data_PCOD9502255
_publ_section_title
;
Structure prediction by ZEFSAII (Michael W. Deem and Ramdas Pophale) SiO2 
 PCOD9502255
Probable space group: C M M A
;
_chemical_formula_sum "Si O2"
_cell_formula_units_Z 104
_cell_length_a 31.303072
_cell_length_b 9.147513
_cell_length_c 23.550565
_cell_angle_alpha 90.000000
_cell_angle_beta 90.000000
_cell_angle_gamma 90.000000
_cell_volume 6743.592612
_symmetry_space_group_name_H-M "C M M A"
_symmetry_group_IT_number 67
_symmetry_cell_setting 'orthorhombic'
loop_
_space_group_symop_operation_xyz
x,y,z
-x,1/2-y,z
x,-y,-z
-x,1/2+y,-z
-x,-y,-z
x,1/2+y,-z
-x,y,z
x,1/2-y,z
1/2+x,1/2+y,z
1/2-x,-y,z
1/2+x,1/2-y,-z
1/2-x,y,-z
1/2-x,1/2-y,-z
1/2+x,y,-z
1/2-x,1/2+y,z
1/2+x,-y,z
loop_
_atom_site_type_symbol
_atom_site_label
_atom_site_fract_x
_atom_site_fract_y
_atom_site_fract_z
Si Si1 0.049672 0.074734 0.325712
Si Si2 0.614464 0.574475 0.223923
Si Si3 0.908439 0.424762 0.892627
Si Si4 0.000000 0.923646 0.059729
Si Si5 0.293435 0.576394 0.183422
Si Si6 0.948179 0.916962 0.443610
Si Si7 0.327418 0.925845 0.057503
O O1 0.049908 0.250000 0.333125
O O2 0.084766 0.039373 0.277750
O O3 0.000000 0.033996 0.311006
O O4 0.061477 0.999240 0.385072
O O5 0.610233 0.750000 0.213061
O O6 0.598496 0.482133 0.170656
O O7 0.665432 0.543891 0.222999
O O8 0.901601 0.250000 0.897229
O O9 0.956659 0.461992 0.908591
O O10 0.874814 0.509487 0.932247
O O11 0.000000 0.750000 0.051867
O O12 0.000000 0.000000 0.000000
O O13 0.287518 0.750000 0.183872
O O14 0.250000 0.500000 0.201205
O O15 0.304178 0.536512 0.117359
O O16 0.933181 0.750000 0.442610
O O17 0.000000 0.914203 0.446800
O O18 0.932903 0.000000 0.500000
O O19 0.328064 0.750000 0.051815
O O20 0.309884 0.000000 0.000000
#
# Coordination Sequence:
#
# PCOD9502255 Si02
#       7
#    16  16  16   8  16  16  16
#     4   9  17  29  46  68  95 128 163 194 227 268
#     4   9  19  34  49  69  94 120 153 191 230 271
#     4  10  20  33  47  64  87 116 149 186 228 271
#     4  10  22  34  44  62  84 110 147 188 225 266
#     4   9  19  34  50  68  91 116 146 185 229 279
#     4   9  16  26  41  63  93 129 166 200 232 263
#     4  10  20  34  50  69  90 111 139 179 226 280
#
# _framework density 15.422046
#
# number of rings (size 3 to 8) (size 9 to 14) (size 15 to 20)
#    0.000    2.615    0.000    2.769    1.077    8.308 
#    0.000    1.538    0.000    0.000    0.000    0.000 
#    0.000    0.615    0.000    7.077    0.000    2.462 
#
# Total GULP energy -289691.304365 kJ/mol
# GULP energy per Si atom -5570.986622 kJ/mol
# Density = 1.538695 g / cm^3
# Si number density = 15.422046 Si / 1000 Ang^3
#
#
#
# Elastic Constant Matrix: (Units=GPa)
#
#
# Indices 1 2 3 4 5 6 
#
# 1 97.0258 32.9511 43.6127 0.0000 0.0000 0.0000
# 2 32.9511 29.8074 37.3281 0.0000 0.0000 0.0000
# 3 43.6127 37.3281 93.4356 0.0000 0.0000 0.0000
# 4 0.0000 0.0000 0.0000 25.3462 0.0000 0.0000
# 5 0.0000 0.0000 0.0000 0.0000 8.8654 0.0000
# 6 0.0000 0.0000 0.0000 0.0000 0.0000 22.5250
#
#
#
# Elastic Compliance Matrix: (Units=1/GPa)
#
#
# Indices 1 2 3 4 5 6 
#
# 1 0.016534 -0.017237 -0.000831 0.000000 0.000000 0.000000
# 2 -0.017237 0.085108 -0.025956 0.000000 0.000000 0.000000
# 3 -0.000831 -0.025956 0.021460 0.000000 0.000000 0.000000
# 4 0.000000 0.000000 0.000000 0.039454 0.000000 0.000000
# 5 0.000000 0.000000 0.000000 0.000000 0.112799 0.000000
# 6 0.000000 0.000000 0.000000 0.000000 0.000000 0.044395
#
#
# Mechanical properties :
#
#
# Convention : Reuss Voigt Hill
#
# Bulk Modulus (GPa) = 28.52690 49.78364 39.15527
# Shear Modulus (GPa) = 11.91946 18.43910 15.17928
#
# Velocity S-wave (km/s) = 2.78310 3.46154 3.14069
# Velocity P-wave (km/s) = 5.37263 6.95178 6.21258
#
# Compressibility (1/GPa) = 0.03505464
#
# Stress axis : x y z
#
# Youngs Moduli (GPa) = 60.48132 11.74975 46.59813
#
# Poissons Ratio (x) = 0.20253 0.03874
# Poissons Ratio (y) = 1.04250 1.20949
# Poissons Ratio (z) = 0.05028 0.30497
#
# Static dielectric constant tensor:
#      x y z
#    x 1.515160 0.000000 0.000000 
#    y 0.000000 1.514030 0.000000 
#    z 0.000000 0.000000 1.500500 
# 
# From -- ./inp_files/42925.got.cif
#   From: 2010.05.17/outbox.cif.g08.bks.cpg/sg67_22_cif.got.tgz:42925.got - 2010.06.03 18:28:57.
