data_PCOD9502487
_publ_section_title
;
Structure prediction by ZEFSAII (Michael W. Deem and Ramdas Pophale) SiO2 
 PCOD9502487
Probable space group: C M M A
;
_chemical_formula_sum "Si O2"
_cell_formula_units_Z 80
_cell_length_a 28.016227
_cell_length_b 8.565170
_cell_length_c 19.264257
_cell_angle_alpha 90.000000
_cell_angle_beta 90.000000
_cell_angle_gamma 90.000000
_cell_volume 4622.723293
_symmetry_space_group_name_H-M "C M M A"
_symmetry_group_IT_number 67
_symmetry_cell_setting 'orthorhombic'
loop_
_space_group_symop_operation_xyz
x,y,z
-x,1/2-y,z
x,-y,-z
-x,1/2+y,-z
-x,-y,-z
x,1/2+y,-z
-x,y,z
x,1/2-y,z
1/2+x,1/2+y,z
1/2-x,-y,z
1/2+x,1/2-y,-z
1/2-x,y,-z
1/2-x,1/2-y,-z
1/2+x,y,-z
1/2-x,1/2+y,z
1/2+x,-y,z
loop_
_atom_site_type_symbol
_atom_site_label
_atom_site_fract_x
_atom_site_fract_y
_atom_site_fract_z
Si Si1 0.150829 0.937426 0.075081
Si Si2 0.105569 0.061098 0.715147
Si Si3 0.944622 0.061645 0.574406
Si Si4 0.946772 0.439598 0.856063
Si Si5 0.198298 0.564340 0.786988
O O1 0.152253 0.750000 0.075939
O O2 0.096472 0.989248 0.093976
O O3 0.183658 0.999753 0.137117
O O4 0.164621 0.000000 0.000000
O O5 0.108673 0.250000 0.715532
O O6 0.085659 0.009776 0.640857
O O7 0.069460 0.018139 0.777865
O O8 0.156766 0.993548 0.735571
O O9 0.943902 0.250000 0.573236
O O10 0.000000 0.012476 0.582966
O O11 0.927639 0.000000 0.500000
O O12 0.947979 0.250000 0.858602
O O13 0.000000 0.497102 0.872271
O O14 0.199051 0.750000 0.789121
O O15 0.250000 0.500000 0.767509
#
# Coordination Sequence:
#
# PCOD9502487 Si02
#       5
#    16  16  16  16  16
#     4  10  20  34  51  73 101 131 165 204 247 295
#     4   9  17  31  51  74 101 133 169 207 247 291
#     4   9  17  29  48  76 110 145 176 205 240 285
#     4   8  14  26  46  70  96 129 167 203 239 283
#     4  11  22  37  56  76  97 123 160 205 255 305
#
# _framework density 17.305816
#
# number of rings (size 3 to 8) (size 9 to 14) (size 15 to 20)
#    0.000    2.600    0.000    4.200    0.000    4.000 
#    0.000    2.000    0.000   19.800    0.000    4.200 
#    0.000    0.000    0.000    0.000    0.000    0.000 
#
# Total GULP energy -223108.224619 kJ/mol
# GULP energy per Si atom -5577.705615 kJ/mol
# Density = 1.726643 g / cm^3
# Si number density = 17.305816 Si / 1000 Ang^3
#
#
#
# Elastic Constant Matrix: (Units=GPa)
#
#
# Indices 1 2 3 4 5 6 
#
# 1 68.2909 15.1488 20.3226 0.0000 0.0000 0.0000
# 2 15.1488 43.3200 22.4591 0.0000 0.0000 0.0000
# 3 20.3226 22.4591 109.1562 0.0000 0.0000 0.0000
# 4 0.0000 0.0000 0.0000 25.3903 0.0000 0.0000
# 5 0.0000 0.0000 0.0000 0.0000 -39.8633 0.0000
# 6 0.0000 0.0000 0.0000 0.0000 0.0000 20.2598
#
#
#
# Elastic Compliance Matrix: (Units=1/GPa)
#
#
# Indices 1 2 3 4 5 6 
#
# 1 0.016287 -0.004616 -0.002083 0.000000 0.000000 0.000000
# 2 -0.004616 0.027149 -0.004727 0.000000 0.000000 0.000000
# 3 -0.002083 -0.004727 0.010521 0.000000 0.000000 0.000000
# 4 0.000000 0.000000 0.000000 0.039385 0.000000 0.000000
# 5 0.000000 0.000000 0.000000 0.000000 -0.025086 0.000000
# 6 0.000000 0.000000 0.000000 0.000000 0.000000 0.049359
#
#
# Mechanical properties :
#
#
# Convention : Reuss Voigt Hill
#
# Bulk Modulus (GPa) = 32.14691 37.40313 34.77502
# Shear Modulus (GPa) = 33.14904 12.01311 22.58108
#
# Velocity S-wave (km/s) = 4.38137 2.63756 3.61616
# Velocity P-wave (km/s) = 6.64916 5.56198 6.12972
#
# Compressibility (1/GPa) = 0.03110719
#
# Stress axis : x y z
#
# Youngs Moduli (GPa) = 61.39911 36.83435 95.04426
#
# Poissons Ratio (x) = 0.17002 0.19794
# Poissons Ratio (y) = 0.28340 0.44923
# Poissons Ratio (z) = 0.12787 0.17410
#
# Static dielectric constant tensor:
#      x y z
#    x 1.585290 0.000000 0.000000 
#    y 0.000000 1.588030 0.000000 
#    z 0.000000 0.000000 1.570350 
# 
# From -- ./inp_files/32112.got.cif
#   From: 2010.05.17/outbox.cif.g08.bks.cpg/sg67_17_cif.got.tgz:32112.got - 2010.06.03 18:28:57.
