data_PCOD9502695
_publ_section_title
;
Structure prediction by ZEFSAII (Michael W. Deem and Ramdas Pophale) SiO2 
 PCOD9502695
Probable space group: C M M A
;
_chemical_formula_sum "Si O2"
_cell_formula_units_Z 104
_cell_length_a 27.438123
_cell_length_b 8.661096
_cell_length_c 24.828190
_cell_angle_alpha 90.000000
_cell_angle_beta 90.000000
_cell_angle_gamma 90.000000
_cell_volume 5900.275781
_symmetry_space_group_name_H-M "C M M A"
_symmetry_group_IT_number 67
_symmetry_cell_setting 'orthorhombic'
loop_
_space_group_symop_operation_xyz
x,y,z
-x,1/2-y,z
x,-y,-z
-x,1/2+y,-z
-x,-y,-z
x,1/2+y,-z
-x,y,z
x,1/2-y,z
1/2+x,1/2+y,z
1/2-x,-y,z
1/2+x,1/2-y,-z
1/2-x,y,-z
1/2-x,1/2-y,-z
1/2+x,y,-z
1/2-x,1/2+y,z
1/2+x,-y,z
loop_
_atom_site_type_symbol
_atom_site_label
_atom_site_fract_x
_atom_site_fract_y
_atom_site_fract_z
Si Si1 0.057141 0.426996 0.231340
Si Si2 0.394434 0.064283 0.331967
Si Si3 0.302195 0.063802 0.149541
Si Si4 0.943539 0.436000 0.557908
Si Si5 0.407250 0.067432 0.123011
Si Si6 0.500000 0.566582 0.059943
Si Si7 0.698084 0.565425 0.271112
O O1 0.075676 0.250000 0.229993
O O2 0.066539 0.500770 0.289172
O O3 0.082062 0.527435 0.185245
O O4 0.000000 0.423526 0.219601
O O5 0.392911 0.250000 0.329699
O O6 0.410353 0.016017 0.391809
O O7 0.344092 0.995529 0.309987
O O8 0.300141 0.250000 0.152729
O O9 0.350512 0.020750 0.115358
O O10 0.250000 0.000000 0.129898
O O11 0.308823 0.998132 0.210200
O O12 0.927993 0.500000 0.500000
O O13 0.943057 0.250000 0.555838
O O14 0.000000 0.484554 0.566951
O O15 0.411025 0.250000 0.113978
O O16 0.450447 0.987927 0.089648
O O17 0.500000 0.750000 0.059078
O O18 0.500000 0.500000 0.000000
O O19 0.698673 0.750000 0.269387
O O20 0.750000 0.500000 0.289473
#
# Coordination Sequence:
#
# PCOD9502695 Si02
#       7
#    16  16  16  16  16   8  16
#     4  11  22  33  49  78 113 148 185 228 280 333
#     4  11  21  34  52  76 107 143 182 223 278 339
#     4  10  20  34  55  83 116 154 192 233 284 342
#     4   9  19  35  54  75 101 137 179 224 272 327
#     4  11  22  37  59  85 118 156 193 235 287 339
#     4  12  26  44  66  90 120 158 203 244 287 340
#     4  11  21  33  51  75 108 144 182 225 275 333
#
# _framework density 17.626294999999999
#
# number of rings (size 3 to 8) (size 9 to 14) (size 15 to 20)
#    0.000    1.385    2.308    5.308    0.000    4.615 
#    0.000    1.538    0.000    0.923    0.000    6.462 
#    0.000    0.000    0.000    0.000    0.000    0.000 
#
# Total GULP energy -290300.966517 kJ/mol
# GULP energy per Si atom -5582.710895 kJ/mol
# Density = 1.758618 g / cm^3
# Si number density = 17.626295 Si / 1000 Ang^3
#
#
#
# Elastic Constant Matrix: (Units=GPa)
#
#
# Indices 1 2 3 4 5 6 
#
# 1 136.2135 43.5444 41.4874 0.0000 0.0000 0.0000
# 2 43.5444 78.3294 21.2419 0.0000 0.0000 0.0000
# 3 41.4874 21.2419 68.1601 0.0000 0.0000 0.0000
# 4 0.0000 0.0000 0.0000 23.9378 0.0000 0.0000
# 5 0.0000 0.0000 0.0000 0.0000 12.9516 0.0000
# 6 0.0000 0.0000 0.0000 0.0000 0.0000 28.6660
#
#
#
# Elastic Compliance Matrix: (Units=1/GPa)
#
#
# Indices 1 2 3 4 5 6 
#
# 1 0.010215 -0.004361 -0.004859 0.000000 0.000000 0.000000
# 2 -0.004361 0.015807 -0.002272 0.000000 0.000000 0.000000
# 3 -0.004859 -0.002272 0.018337 0.000000 0.000000 0.000000
# 4 0.000000 0.000000 0.000000 0.041775 0.000000 0.000000
# 5 0.000000 0.000000 0.000000 0.000000 0.077211 0.000000
# 6 0.000000 0.000000 0.000000 0.000000 0.000000 0.034885
#
#
# Mechanical properties :
#
#
# Convention : Reuss Voigt Hill
#
# Bulk Modulus (GPa) = 46.78147 55.02781 50.90464
# Shear Modulus (GPa) = 21.89733 24.87301 23.38517
#
# Velocity S-wave (km/s) = 3.52847 3.76058 3.64637
# Velocity P-wave (km/s) = 6.57255 7.08116 6.83159
#
# Compressibility (1/GPa) = 0.02137598
#
# Stress axis : x y z
#
# Youngs Moduli (GPa) = 97.89068 63.26253 54.53546
#
# Poissons Ratio (x) = 0.27591 0.26497
# Poissons Ratio (y) = 0.42693 0.12388
# Poissons Ratio (z) = 0.47562 0.14371
#
# Static dielectric constant tensor:
#      x y z
#    x 1.641800 0.000000 0.000000 
#    y 0.000000 1.598010 0.000000 
#    z 0.000000 0.000000 1.572350 
# 
# From -- ./inp_files/42747.got.cif
#   From: 2010.05.17/outbox.cif.g08.bks.cpg/sg67_22_cif.got.tgz:42747.got - 2010.06.03 18:28:57.
