data_PCOD9502681
_publ_section_title
;
Structure prediction by ZEFSAII (Michael W. Deem and Ramdas Pophale) SiO2 
 PCOD9502681
Probable space group: C M M A
;
_chemical_formula_sum "Si O2"
_cell_formula_units_Z 88
_cell_length_a 29.302792
_cell_length_b 9.483193
_cell_length_c 16.596231
_cell_angle_alpha 90.000000
_cell_angle_beta 90.000000
_cell_angle_gamma 90.000000
_cell_volume 4611.827586
_symmetry_space_group_name_H-M "C M M A"
_symmetry_group_IT_number 67
_symmetry_cell_setting 'orthorhombic'
loop_
_space_group_symop_operation_xyz
x,y,z
-x,1/2-y,z
x,-y,-z
-x,1/2+y,-z
-x,-y,-z
x,1/2+y,-z
-x,y,z
x,1/2-y,z
1/2+x,1/2+y,z
1/2-x,-y,z
1/2+x,1/2-y,-z
1/2-x,y,-z
1/2-x,1/2-y,-z
1/2+x,y,-z
1/2-x,1/2+y,z
1/2+x,-y,z
loop_
_atom_site_type_symbol
_atom_site_label
_atom_site_fract_x
_atom_site_fract_y
_atom_site_fract_z
Si Si1 0.446236 0.750000 0.791545
Si Si2 0.054589 0.250000 0.148730
Si Si3 0.500000 0.078326 0.413223
Si Si4 0.410344 0.250000 0.034515
Si Si5 0.611966 0.479146 0.752457
Si Si6 0.156330 0.000000 0.000000
Si Si7 0.588085 0.583677 0.417338
Si Si8 0.203652 0.915074 0.840362
O O1 0.500000 0.750000 0.767026
O O2 0.443506 0.750000 0.889059
O O3 0.416344 0.621591 0.759185
O O4 0.080157 0.122533 0.193203
O O5 0.000000 0.250000 0.161149
O O6 0.065537 0.250000 0.053167
O O7 0.500000 0.250000 0.415820
O O8 0.500000 0.000000 0.500000
O O9 0.454963 0.003698 0.381094
O O10 0.377307 0.115326 0.038341
O O11 0.619735 0.425234 0.660864
O O12 0.661742 0.482140 0.791588
O O13 0.187616 0.071561 0.067024
O O14 0.601082 0.500000 0.500000
O O15 0.578367 0.750000 0.435322
O O16 0.208181 0.750000 0.819943
O O17 0.250000 0.000000 0.827946
#
# Coordination Sequence:
#
# PCOD9502681 Si02
#       8
#     8   8   8   8  16   8  16  16
#     4  12  27  40  63 100 133 181 227 272 312 372
#     4  12  23  42  67  92 125 189 225 260 320 390
#     4  10  20  34  54  88 124 161 208 259 311 385
#     4  12  21  42  65  90 136 176 221 270 317 374
#     4  12  25  44  64  93 138 167 221 277 322 395
#     4  12  21  40  65  90 130 170 211 276 333 392
#     4  11  23  39  63  90 125 171 211 267 332 391
#     4  12  26  44  67  96 125 168 217 272 340 395
#
# _framework density 19.081374
#
# number of rings (size 3 to 8) (size 9 to 14) (size 15 to 20)
#    0.000    0.364    6.364    3.545    7.636    0.727 
#    0.000    2.727    0.000    0.545    0.000    2.545 
#    0.000    0.000    0.000    0.000    0.000    0.000 
#
# Total GULP energy -245425.270564 kJ/mol
# GULP energy per Si atom -5577.847058 kJ/mol
# Density = 1.903794 g / cm^3
# Si number density = 19.081374 Si / 1000 Ang^3
#
#
#
# Elastic Constant Matrix: (Units=GPa)
#
#
# Indices 1 2 3 4 5 6 
#
# 1 142.4569 48.9570 35.5858 0.0000 0.0000 0.0000
# 2 48.9570 165.0408 27.7681 0.0000 0.0000 0.0000
# 3 35.5858 27.7681 127.5106 0.0000 0.0000 0.0000
# 4 0.0000 0.0000 0.0000 4.8324 0.0000 0.0000
# 5 0.0000 0.0000 0.0000 0.0000 9.7974 0.0000
# 6 0.0000 0.0000 0.0000 0.0000 0.0000 24.6335
#
#
#
# Elastic Compliance Matrix: (Units=1/GPa)
#
#
# Indices 1 2 3 4 5 6 
#
# 1 0.008207 -0.002127 -0.001827 0.000000 0.000000 0.000000
# 2 -0.002127 0.006841 -0.000896 0.000000 0.000000 0.000000
# 3 -0.001827 -0.000896 0.008548 0.000000 0.000000 0.000000
# 4 0.000000 0.000000 0.000000 0.206937 0.000000 0.000000
# 5 0.000000 0.000000 0.000000 0.000000 0.102068 0.000000
# 6 0.000000 0.000000 0.000000 0.000000 0.000000 0.040595
#
#
# Mechanical properties :
#
#
# Convention : Reuss Voigt Hill
#
# Bulk Modulus (GPa) = 71.97000 73.29223 72.63112
# Shear Modulus (GPa) = 12.90230 29.36581 21.13406
#
# Velocity S-wave (km/s) = 2.60315 3.92724 3.33164
# Velocity P-wave (km/s) = 6.84357 7.68492 7.27642
#
# Compressibility (1/GPa) = 0.01389468
#
# Stress axis : x y z
#
# Youngs Moduli (GPa) = 121.84556 146.18073 116.99216
#
# Poissons Ratio (x) = 0.31094 0.21377
# Poissons Ratio (y) = 0.25918 0.10484
# Poissons Ratio (z) = 0.22264 0.13099
#
# Static dielectric constant tensor:
#      x y z
#    x 1.731100 0.000000 0.000000 
#    y 0.000000 1.521620 0.000000 
#    z 0.000000 0.000000 1.736230 
# 
# From -- ./inp_files/36247.got.cif
#   From: 2010.05.17/outbox.cif.g08.bks.cpg/sg67_19_cif.got.tgz:36247.got - 2010.06.03 18:28:57.
