data_PCOD9502110
_publ_section_title
;
Structure prediction by ZEFSAII (Michael W. Deem and Ramdas Pophale) SiO2 
 PCOD9502110
Probable space group: C M M A
;
_chemical_formula_sum "Si O2"
_cell_formula_units_Z 96
_cell_length_a 30.990413
_cell_length_b 9.121350
_cell_length_c 26.313713
_cell_angle_alpha 90.000000
_cell_angle_beta 90.000000
_cell_angle_gamma 90.000000
_cell_volume 7438.213129
_symmetry_space_group_name_H-M "C M M A"
_symmetry_group_IT_number 67
_symmetry_cell_setting 'orthorhombic'
loop_
_space_group_symop_operation_xyz
x,y,z
-x,1/2-y,z
x,-y,-z
-x,1/2+y,-z
-x,-y,-z
x,1/2+y,-z
-x,y,z
x,1/2-y,z
1/2+x,1/2+y,z
1/2-x,-y,z
1/2+x,1/2-y,-z
1/2-x,y,-z
1/2-x,1/2-y,-z
1/2+x,y,-z
1/2-x,1/2+y,z
1/2+x,-y,z
loop_
_atom_site_type_symbol
_atom_site_label
_atom_site_fract_x
_atom_site_fract_y
_atom_site_fract_z
Si Si1 0.447418 0.919272 0.948467
Si Si2 0.448425 0.076190 0.637869
Si Si3 0.447393 0.580628 0.154680
Si Si4 0.291530 0.424656 0.444389
Si Si5 0.111396 0.575079 0.444613
Si Si6 0.447541 0.418626 0.257383
O O1 0.500000 0.921079 0.948509
O O2 0.434047 0.750000 0.948082
O O3 0.433601 0.001946 0.897285
O O4 0.433520 0.000000 0.000000
O O5 0.500000 0.054162 0.631853
O O6 0.440180 0.250000 0.636814
O O7 0.422754 0.995104 0.593494
O O8 0.435544 0.008416 0.692336
O O9 0.500000 0.578790 0.154789
O O10 0.434098 0.750000 0.155828
O O11 0.433215 0.495409 0.205250
O O12 0.293610 0.500000 0.500000
O O13 0.284658 0.250000 0.448915
O O14 0.250000 0.500000 0.418513
O O15 0.339736 0.448708 0.423593
O O16 0.108067 0.500000 0.500000
O O17 0.105241 0.750000 0.449819
O O18 0.500000 0.417721 0.256065
O O19 0.433252 0.250000 0.260368
#
# Coordination Sequence:
#
# PCOD9502110 Si02
#       6
#    16  16  16  16  16  16
#     4   9  15  21  28  39  56  77 100 127 163 207
#     4  10  20  32  44  57  73  95 123 154 187 221
#     4   9  15  22  32  45  60  78 102 133 168 207
#     4   9  16  26  42  62  81  99 118 140 169 207
#     4  10  20  32  45  61  79  99 122 147 178 218
#     4   9  16  26  39  52  65  83 109 142 178 213
#
# _framework density 12.906325000000001
#
# number of rings (size 3 to 8) (size 9 to 14) (size 15 to 20)
#    0.000    2.667    0.000    3.500    0.000    9.333 
#    0.000    0.000    0.000    0.000    0.000    0.000 
#    0.000    0.000    0.000    0.000    0.000    0.000 
#
# Total GULP energy -267231.632052 kJ/mol
# GULP energy per Si atom -5567.325668 kJ/mol
# Density = 1.287695 g / cm^3
# Si number density = 12.906325 Si / 1000 Ang^3
#
#
#
# Elastic Constant Matrix: (Units=GPa)
#
#
# Indices 1 2 3 4 5 6 
#
# 1 30.2173 38.0106 33.1035 0.0000 0.0000 0.0000
# 2 38.0106 121.9962 65.4103 0.0000 0.0000 0.0000
# 3 33.1035 65.4103 105.2474 0.0000 0.0000 0.0000
# 4 0.0000 0.0000 0.0000 25.6801 0.0000 0.0000
# 5 0.0000 0.0000 0.0000 0.0000 -0.4289 0.0000
# 6 0.0000 0.0000 0.0000 0.0000 0.0000 13.0127
#
#
#
# Elastic Compliance Matrix: (Units=1/GPa)
#
#
# Indices 1 2 3 4 5 6 
#
# 1 0.062238 -0.013341 -0.011284 0.000000 0.000000 0.000000
# 2 -0.013341 0.015153 -0.005221 0.000000 0.000000 0.000000
# 3 -0.011284 -0.005221 0.016296 0.000000 0.000000 0.000000
# 4 0.000000 0.000000 0.000000 0.038941 0.000000 0.000000
# 5 0.000000 0.000000 0.000000 0.000000 -2.331702 0.000000
# 6 0.000000 0.000000 0.000000 0.000000 0.000000 0.076848
#
#
# Mechanical properties :
#
#
# Convention : Reuss Voigt Hill
#
# Bulk Modulus (GPa) = 29.41786 58.94552 44.18169
# Shear Modulus (GPa) = -2.43759 15.71523 6.63882
#
# Velocity S-wave (km/s) = -1.37578 3.49325 2.27047
# Velocity P-wave (km/s) = 4.50768 7.87663 6.41718
#
# Compressibility (1/GPa) = 0.03399295
#
# Stress axis : x y z
#
# Youngs Moduli (GPa) = 16.06745 65.99218 61.36611
#
# Poissons Ratio (x) = 0.88043 0.69246
# Poissons Ratio (y) = 0.21436 0.32042
# Poissons Ratio (z) = 0.18131 0.34457
#
# Static dielectric constant tensor:
#      x y z
#    x 1.410730 0.000000 0.000000 
#    y 0.000000 1.431620 0.000000 
#    z 0.000000 0.000000 1.410500 
# 
# From -- ./inp_files/44923.got.cif
#   From: 2010.05.17/outbox.cif.g08.bks.cpg/sg67_23_cif.got.tgz:44923.got - 2010.06.03 18:28:57.
