data_PCOD9502838
_publ_section_title
;
Structure prediction by ZEFSAII (Michael W. Deem and Ramdas Pophale) SiO2 
 PCOD9502838
Probable space group: C M M A
;
_chemical_formula_sum "Si O2"
_cell_formula_units_Z 56
_cell_length_a 14.657554
_cell_length_b 8.735056
_cell_length_c 24.342585
_cell_angle_alpha 90.000000
_cell_angle_beta 90.000000
_cell_angle_gamma 90.000000
_cell_volume 3116.692038
_symmetry_space_group_name_H-M "C M M A"
_symmetry_group_IT_number 67
_symmetry_cell_setting 'orthorhombic'
loop_
_space_group_symop_operation_xyz
x,y,z
-x,1/2-y,z
x,-y,-z
-x,1/2+y,-z
-x,-y,-z
x,1/2+y,-z
-x,y,z
x,1/2-y,z
1/2+x,1/2+y,z
1/2-x,-y,z
1/2+x,1/2-y,-z
1/2-x,y,-z
1/2-x,1/2-y,-z
1/2+x,y,-z
1/2-x,1/2+y,z
1/2+x,-y,z
loop_
_atom_site_type_symbol
_atom_site_label
_atom_site_fract_x
_atom_site_fract_y
_atom_site_fract_z
Si Si1 0.500000 0.066350 0.060683
Si Si2 0.350795 0.066804 0.442367
Si Si3 0.648205 0.565633 0.849559
Si Si4 0.500000 0.433891 0.352619
Si Si5 0.500000 0.432428 0.768290
O O1 0.500000 0.250000 0.057351
O O2 0.410985 0.021702 0.096415
O O3 0.500000 0.000000 0.000000
O O4 0.347151 0.250000 0.447223
O O5 0.413498 0.027600 0.390715
O O6 0.386738 0.000000 0.500000
O O7 0.250000 0.000000 0.435005
O O8 0.650803 0.750000 0.846389
O O9 0.750000 0.500000 0.850651
O O10 0.588542 0.501607 0.799006
O O11 0.500000 0.250000 0.343187
O O12 0.500000 0.518560 0.294970
O O13 0.500000 0.250000 0.774097
#
# Coordination Sequence:
#
# PCOD9502838 Si02
#       5
#     8  16  16   8   8
#     4   9  20  36  56  84 118 151 185 229 273 320
#     4  10  20  35  55  78 106 139 175 218 270 325
#     4  10  21  39  60  83 113 150 189 230 277 328
#     4  10  22  38  55  77 108 144 179 223 274 326
#     4  11  23  38  58  83 110 145 186 232 281 330
#
# _framework density 17.967768
#
# number of rings (size 3 to 8) (size 9 to 14) (size 15 to 20)
#    0.000    2.000    0.000    5.143    0.000    7.429 
#    0.000    5.714    0.000    0.000    0.000    0.000 
#    0.000    0.000    0.000    0.000    0.000    0.000 
#
# Total GULP energy -156363.292879 kJ/mol
# GULP energy per Si atom -5584.403317 kJ/mol
# Density = 1.792687 g / cm^3
# Si number density = 17.967768 Si / 1000 Ang^3
#
#
#
# Elastic Constant Matrix: (Units=GPa)
#
#
# Indices 1 2 3 4 5 6 
#
# 1 166.4117 62.8643 95.8133 0.0000 0.0000 0.0000
# 2 62.8643 82.1244 71.2026 0.0000 0.0000 0.0000
# 3 95.8133 71.2026 179.7075 0.0000 0.0000 0.0000
# 4 0.0000 0.0000 0.0000 36.6517 0.0000 0.0000
# 5 0.0000 0.0000 0.0000 0.0000 -44.3817 0.0000
# 6 0.0000 0.0000 0.0000 0.0000 0.0000 25.4378
#
#
#
# Elastic Compliance Matrix: (Units=1/GPa)
#
#
# Indices 1 2 3 4 5 6 
#
# 1 0.009632 -0.004449 -0.003373 0.000000 0.000000 0.000000
# 2 -0.004449 0.020603 -0.005791 0.000000 0.000000 0.000000
# 3 -0.003373 -0.005791 0.009657 0.000000 0.000000 0.000000
# 4 0.000000 0.000000 0.000000 0.027284 0.000000 0.000000
# 5 0.000000 0.000000 0.000000 0.000000 -0.022532 0.000000
# 6 0.000000 0.000000 0.000000 0.000000 0.000000 0.039312
#
#
# Mechanical properties :
#
#
# Convention : Reuss Voigt Hill
#
# Bulk Modulus (GPa) = 78.94641 98.66713 88.80677
# Shear Modulus (GPa) = 43.32637 16.76579 30.04608
#
# Velocity S-wave (km/s) = 4.91587 3.05799 4.09372
# Velocity P-wave (km/s) = 8.73236 8.21590 8.47806
#
# Compressibility (1/GPa) = 0.01266682
#
# Stress axis : x y z
#
# Youngs Moduli (GPa) = 103.82580 48.53614 103.54816
#
# Poissons Ratio (x) = 0.21592 0.34922
# Poissons Ratio (y) = 0.46189 0.59969
# Poissons Ratio (z) = 0.35016 0.28109
#
# Static dielectric constant tensor:
#      x y z
#    x 1.602810 0.000000 0.000000 
#    y 0.000000 1.604760 0.000000 
#    z 0.000000 0.000000 1.591960 
# 
# From -- ./inp_files/41703.got.cif
#   From: 2010.05.17/outbox.cif.g08.bks.cpg/sg67_21_cif.got.tgz:41703.got - 2010.06.03 18:28:57.
