data_PCOD9502590
_publ_section_title
;
Structure prediction by ZEFSAII (Michael W. Deem and Ramdas Pophale) SiO2 
 PCOD9502590
Probable space group: C M M A
;
_chemical_formula_sum "Si O2"
_cell_formula_units_Z 112
_cell_length_a 14.177119
_cell_length_b 15.476825
_cell_length_c 24.413593
_cell_angle_alpha 90.000000
_cell_angle_beta 90.000000
_cell_angle_gamma 90.000000
_cell_volume 5356.752203
_symmetry_space_group_name_H-M "C M M A"
_symmetry_group_IT_number 67
_symmetry_cell_setting 'orthorhombic'
loop_
_space_group_symop_operation_xyz
x,y,z
-x,1/2-y,z
x,-y,-z
-x,1/2+y,-z
-x,-y,-z
x,1/2+y,-z
-x,y,z
x,1/2-y,z
1/2+x,1/2+y,z
1/2-x,-y,z
1/2+x,1/2-y,-z
1/2-x,y,-z
1/2-x,1/2-y,-z
1/2+x,y,-z
1/2-x,1/2+y,z
1/2+x,-y,z
loop_
_atom_site_type_symbol
_atom_site_label
_atom_site_fract_x
_atom_site_fract_y
_atom_site_fract_z
Si Si1 0.198168 0.644330 0.418258
Si Si2 0.732414 0.102955 0.201295
Si Si3 0.607665 0.079640 0.101545
Si Si4 0.392747 0.623599 0.128476
Si Si5 0.106208 0.144444 0.466429
Si Si6 0.111422 0.347231 0.008427
Si Si7 0.607008 0.146577 0.305249
O O1 0.198902 0.750000 0.417479
O O2 0.137775 0.619812 0.471914
O O3 0.306800 0.616657 0.427801
O O4 0.150570 0.613604 0.362368
O O5 0.666758 0.123612 0.149019
O O6 0.831578 0.142823 0.181981
O O7 0.678382 0.129287 0.255690
O O8 0.750000 0.000000 0.204947
O O9 0.500000 0.111838 0.101084
O O10 0.606252 0.979613 0.118549
O O11 0.645988 0.091118 0.039914
O O12 0.500000 0.653357 0.134555
O O13 0.350869 0.653593 0.070141
O O14 0.104811 0.250000 0.465059
O O15 0.000000 0.114658 0.453786
O O16 0.119877 0.250000 0.986590
O O17 0.000000 0.368605 0.016329
O O18 0.500000 0.113618 0.295291
O O19 0.600062 0.250000 0.310533
#
# Coordination Sequence:
#
# PCOD9502590 Si02
#       7
#    16  16  16  16  16  16  16
#     4   8  14  24  40  67 102 137 171 206 252 308
#     4  10  21  35  51  71  95 128 173 214 248 294
#     4   9  17  31  50  69  90 118 155 201 248 294
#     4   9  18  33  50  66  89 124 162 199 241 294
#     4   8  12  20  38  65  99 137 172 207 248 298
#     4   9  17  29  47  71  96 120 148 189 247 310
#     4  10  20  34  53  77 105 134 166 211 264 309
#
# _framework density 20.908190999999999
#
# number of rings (size 3 to 8) (size 9 to 14) (size 15 to 20)
#    0.000    3.000    0.000    2.143    0.000    5.714 
#    0.000    5.000    0.000    0.857    0.000    2.000 
#    0.000    5.714    0.000    0.000    0.000    0.000 
#
# Total GULP energy -312182.422766 kJ/mol
# GULP energy per Si atom -5574.686121 kJ/mol
# Density = 2.086060 g / cm^3
# Si number density = 20.908191 Si / 1000 Ang^3
#
#
#
# Elastic Constant Matrix: (Units=GPa)
#
#
# Indices 1 2 3 4 5 6 
#
# 1 139.9037 16.7752 68.9692 0.0000 0.0000 0.0000
# 2 16.7752 9.7858 11.4439 0.0000 0.0000 0.0000
# 3 68.9692 11.4439 131.4423 0.0000 0.0000 0.0000
# 4 0.0000 0.0000 0.0000 10.3773 0.0000 0.0000
# 5 0.0000 0.0000 0.0000 0.0000 26.7918 0.0000
# 6 0.0000 0.0000 0.0000 0.0000 0.0000 7.0038
#
#
#
# Elastic Compliance Matrix: (Units=1/GPa)
#
#
# Indices 1 2 3 4 5 6 
#
# 1 0.011048 -0.013538 -0.004618 0.000000 0.000000 0.000000
# 2 -0.013538 0.130361 -0.004246 0.000000 0.000000 0.000000
# 3 -0.004618 -0.004246 0.010401 0.000000 0.000000 0.000000
# 4 0.000000 0.000000 0.000000 0.096364 0.000000 0.000000
# 5 0.000000 0.000000 0.000000 0.000000 0.037325 0.000000
# 6 0.000000 0.000000 0.000000 0.000000 0.000000 0.142780
#
#
# Mechanical properties :
#
#
# Convention : Reuss Voigt Hill
#
# Bulk Modulus (GPa) = 9.34533 52.83425 31.08979
# Shear Modulus (GPa) = 9.82797 21.09749 15.46273
#
# Velocity S-wave (km/s) = 2.17042 3.18001 2.72242
# Velocity P-wave (km/s) = 3.28030 6.22959 4.97836
#
# Compressibility (1/GPa) = 0.10700526
#
# Stress axis : x y z
#
# Youngs Moduli (GPa) = 90.51695 7.67099 96.14620
#
# Poissons Ratio (x) = 0.10385 0.44402
# Poissons Ratio (y) = 1.22538 0.40828
# Poissons Ratio (z) = 0.41802 0.03257
#
# Static dielectric constant tensor:
#      x y z
#    x 1.816190 0.000000 0.000000 
#    y 0.000000 1.798660 0.000000 
#    z 0.000000 0.000000 1.728340 
# 
# From -- ./inp_files/41920.got.cif
#   From: 2010.05.17/outbox.cif.g08.bks.cpg/sg67_21_cif.got.tgz:41920.got - 2010.06.03 18:28:57.
