data_PCOD9502565
_publ_section_title
;
Structure prediction by ZEFSAII (Michael W. Deem and Ramdas Pophale) SiO2 
 PCOD9502565
Probable space group: C M M A
;
_chemical_formula_sum "Si O2"
_cell_formula_units_Z 80
_cell_length_a 8.740118
_cell_length_b 18.758157
_cell_length_c 26.831117
_cell_angle_alpha 90.000000
_cell_angle_beta 90.000000
_cell_angle_gamma 90.000000
_cell_volume 4398.921537
_symmetry_space_group_name_H-M "C M M A"
_symmetry_group_IT_number 67
_symmetry_cell_setting 'orthorhombic'
loop_
_space_group_symop_operation_xyz
x,y,z
-x,1/2-y,z
x,-y,-z
-x,1/2+y,-z
-x,-y,-z
x,1/2+y,-z
-x,y,z
x,1/2-y,z
1/2+x,1/2+y,z
1/2-x,-y,z
1/2+x,1/2-y,-z
1/2-x,y,-z
1/2-x,1/2-y,-z
1/2+x,y,-z
1/2-x,1/2+y,z
1/2+x,-y,z
loop_
_atom_site_type_symbol
_atom_site_label
_atom_site_fract_x
_atom_site_fract_y
_atom_site_fract_z
Si Si1 0.677268 0.836765 0.948527
Si Si2 0.187124 0.667225 0.160446
Si Si3 0.815168 0.579046 0.256911
Si Si4 0.182606 0.921286 0.553624
Si Si5 0.684158 0.666495 0.644350
O O1 0.500000 0.856619 0.949786
O O2 0.685753 0.750000 0.948393
O O3 0.741483 0.857954 0.894324
O O4 0.750000 0.862240 0.000000
O O5 0.231552 0.750000 0.167972
O O6 0.236007 0.618716 0.206402
O O7 0.000000 0.666811 0.159006
O O8 0.750000 0.500000 0.260070
O O9 0.771328 0.624853 0.305398
O O10 0.000000 0.576019 0.255936
O O11 0.250000 0.899105 0.500000
O O12 0.235298 0.868743 0.597040
O O13 0.000000 0.925604 0.550655
O O14 0.250000 0.000000 0.564240
O O15 0.500000 0.659502 0.638515
O O16 0.719700 0.750000 0.648752
#
# Coordination Sequence:
#
# PCOD9502565 Si02
#       5
#    16  16  16  16  16
#     4   8  13  22  39  64  92 120 153 196 244 293
#     4   8  14  27  48  71  94 125 166 206 244 293
#     4  10  20  34  53  75 100 132 169 209 253 304
#     4  11  22  38  60  84 112 145 180 216 255 302
#     4  10  21  37  57  81 108 138 174 216 261 309
#
# _framework density 18.186275999999999
#
# number of rings (size 3 to 8) (size 9 to 14) (size 15 to 20)
#    0.000    2.600    0.000    4.800    0.000    5.600 
#    0.000    1.000    0.000    3.600    0.000    4.200 
#    0.000    0.000    0.000    0.000    0.000    0.000 
#
# Total GULP energy -223061.350548 kJ/mol
# GULP energy per Si atom -5576.533764 kJ/mol
# Density = 1.814488 g / cm^3
# Si number density = 18.186276 Si / 1000 Ang^3
#
#
#
# Elastic Constant Matrix: (Units=GPa)
#
#
# Indices 1 2 3 4 5 6 
#
# 1 42.1161 40.9785 61.7674 0.0000 0.0000 0.0000
# 2 40.9785 102.5208 109.9317 0.0000 0.0000 0.0000
# 3 61.7674 109.9317 200.9459 0.0000 0.0000 0.0000
# 4 0.0000 0.0000 0.0000 -54.9157 0.0000 0.0000
# 5 0.0000 0.0000 0.0000 0.0000 24.7364 0.0000
# 6 0.0000 0.0000 0.0000 0.0000 0.0000 22.8483
#
#
#
# Elastic Compliance Matrix: (Units=1/GPa)
#
#
# Indices 1 2 3 4 5 6 
#
# 1 0.045639 -0.007740 -0.009794 0.000000 0.000000 0.000000
# 2 -0.007740 0.024908 -0.011248 0.000000 0.000000 0.000000
# 3 -0.009794 -0.011248 0.014140 0.000000 0.000000 0.000000
# 4 0.000000 0.000000 0.000000 -0.018210 0.000000 0.000000
# 5 0.000000 0.000000 0.000000 0.000000 0.040426 0.000000
# 6 0.000000 0.000000 0.000000 0.000000 0.000000 0.043767
#
#
# Mechanical properties :
#
#
# Convention : Reuss Voigt Hill
#
# Bulk Modulus (GPa) = 36.86761 85.65977 61.26369
# Shear Modulus (GPa) = 23.01215 7.39417 15.20316
#
# Velocity S-wave (km/s) = 3.56105 2.01857 2.89445
# Velocity P-wave (km/s) = 6.10117 7.25510 6.70301
#
# Compressibility (1/GPa) = 0.02712408
#
# Stress axis : x y z
#
# Youngs Moduli (GPa) = 21.91100 40.14703 70.71987
#
# Poissons Ratio (x) = 0.31074 0.69266
# Poissons Ratio (y) = 0.16959 0.79543
# Poissons Ratio (z) = 0.21460 0.45156
#
# Static dielectric constant tensor:
#      x y z
#    x 1.623870 0.000000 0.000000 
#    y 0.000000 1.594310 0.000000 
#    z 0.000000 0.000000 1.641810 
# 
# From -- ./inp_files/43231.got.cif
#   From: 2010.05.17/outbox.cif.g08.bks.cpg/sg67_22_cif.got.tgz:43231.got - 2010.06.03 18:28:57.
