data_PCOD9502107
_publ_section_title
;
Structure prediction by ZEFSAII (Michael W. Deem and Ramdas Pophale) SiO2 
 PCOD9502107
Probable space group: C M M A
;
_chemical_formula_sum "Si O2"
_cell_formula_units_Z 60
_cell_length_a 28.594313
_cell_length_b 20.040232
_cell_length_c 5.466818
_cell_angle_alpha 90.000000
_cell_angle_beta 90.000000
_cell_angle_gamma 90.000000
_cell_volume 3132.687163
_symmetry_space_group_name_H-M "C M M A"
_symmetry_group_IT_number 67
_symmetry_cell_setting 'orthorhombic'
loop_
_space_group_symop_operation_xyz
x,y,z
-x,1/2-y,z
x,-y,-z
-x,1/2+y,-z
-x,-y,-z
x,1/2+y,-z
-x,y,z
x,1/2-y,z
1/2+x,1/2+y,z
1/2-x,-y,z
1/2+x,1/2-y,-z
1/2-x,y,-z
1/2-x,1/2-y,-z
1/2+x,y,-z
1/2-x,1/2+y,z
1/2+x,-y,z
loop_
_atom_site_type_symbol
_atom_site_label
_atom_site_fract_x
_atom_site_fract_y
_atom_site_fract_z
Si Si1 0.398364 0.421167 0.009419
Si Si2 0.250000 0.500000 0.500000
Si Si3 0.797591 0.105155 0.153844
Si Si4 0.219897 0.750000 0.746110
Si Si5 0.945263 0.918611 0.507768
O O1 0.420761 0.394182 0.258695
O O2 0.408933 0.500000 0.000000
O O3 0.342638 0.413341 0.003104
O O4 0.420062 0.394558 0.755497
O O5 0.215433 0.451506 0.349299
O O6 0.806500 0.179338 0.256789
O O7 0.750000 0.108382 0.000000
O O8 0.250000 0.750000 0.500000
O O9 0.250000 0.750000 0.000000
O O10 0.000000 0.901750 0.511360
O O11 0.942061 0.000000 0.500000
#
# Coordination Sequence:
#
# PCOD9502107 Si02
#       5
#    16   4  16   8  16
#     4  10  20  31  52  79 112 143 186 230 283 340
#     4  12  22  34  60  78 126 146 194 228 294 330
#     4  11  24  37  56  85 117 157 193 236 285 344
#     4  10  22  42  58  76 113 158 201 232 276 338
#     4   9  18  32  50  76 110 146 180 229 289 342
#
# _framework density 19.152888000000001
#
# number of rings (size 3 to 8) (size 9 to 14) (size 15 to 20)
#    0.000    1.867    1.333    2.800    9.333    3.200 
#    0.000    0.000    0.000    0.000    0.000    5.600 
#    0.000    0.000    0.000    0.000    0.000    0.000 
#
# Total GULP energy -167258.157055 kJ/mol
# GULP energy per Si atom -5575.271902 kJ/mol
# Density = 1.910930 g / cm^3
# Si number density = 19.152888 Si / 1000 Ang^3
#
#
#
# Elastic Constant Matrix: (Units=GPa)
#
#
# Indices 1 2 3 4 5 6 
#
# 1 123.2200 -7.4244 78.3702 0.0000 0.0000 0.0000
# 2 -7.4244 76.0775 23.4681 0.0000 0.0000 0.0000
# 3 78.3702 23.4681 147.1705 0.0000 0.0000 0.0000
# 4 0.0000 0.0000 0.0000 17.7807 0.0000 0.0000
# 5 0.0000 0.0000 0.0000 0.0000 39.5774 0.0000
# 6 0.0000 0.0000 0.0000 0.0000 0.0000 -11.4699
#
#
#
# Elastic Compliance Matrix: (Units=1/GPa)
#
#
# Indices 1 2 3 4 5 6 
#
# 1 0.013158 0.003624 -0.007585 0.000000 0.000000 0.000000
# 2 0.003624 0.014823 -0.004293 0.000000 0.000000 0.000000
# 3 -0.007585 -0.004293 0.011518 0.000000 0.000000 0.000000
# 4 0.000000 0.000000 0.000000 0.056241 0.000000 0.000000
# 5 0.000000 0.000000 0.000000 0.000000 0.025267 0.000000
# 6 0.000000 0.000000 0.000000 0.000000 0.000000 -0.087185
#
#
# Mechanical properties :
#
#
# Convention : Reuss Voigt Hill
#
# Bulk Modulus (GPa) = 43.49644 59.47734 51.48689
# Shear Modulus (GPa) = 86.21684 25.98125 56.09905
#
# Velocity S-wave (km/s) = 6.71661 3.68709 5.41791
# Velocity P-wave (km/s) = 9.10548 7.01766 8.12888
#
# Compressibility (1/GPa) = 0.02299039
#
# Stress axis : x y z
#
# Youngs Moduli (GPa) = 76.00035 67.46492 86.81807
#
# Poissons Ratio (x) = -0.24447 0.65848
# Poissons Ratio (y) = -0.27540 0.37274
# Poissons Ratio (z) = 0.57643 0.28965
#
# Static dielectric constant tensor:
#      x y z
#    x 1.653520 0.000000 0.000000 
#    y 0.000000 1.731000 0.000000 
#    z 0.000000 0.000000 1.303530 
# 
# From -- ./inp_files/3954.got.cif
#   From: 2010.05.17/outbox.cif.g08.bks.cpg/sg67_2_cif.got.tgz:3954.got - 2010.06.03 18:28:57.
