data_PCOD9502171
_publ_section_title
;
Structure prediction by ZEFSAII (Michael W. Deem and Ramdas Pophale) SiO2 
 PCOD9502171
Probable space group: C M M A
;
_chemical_formula_sum "Si O2"
_cell_formula_units_Z 72
_cell_length_a 25.517924
_cell_length_b 10.465204
_cell_length_c 16.257887
_cell_angle_alpha 90.000000
_cell_angle_beta 90.000000
_cell_angle_gamma 90.000000
_cell_volume 4341.673281
_symmetry_space_group_name_H-M "C M M A"
_symmetry_group_IT_number 67
_symmetry_cell_setting 'orthorhombic'
loop_
_space_group_symop_operation_xyz
x,y,z
-x,1/2-y,z
x,-y,-z
-x,1/2+y,-z
-x,-y,-z
x,1/2+y,-z
-x,y,z
x,1/2-y,z
1/2+x,1/2+y,z
1/2-x,-y,z
1/2+x,1/2-y,-z
1/2-x,y,-z
1/2-x,1/2-y,-z
1/2+x,y,-z
1/2-x,1/2+y,z
1/2+x,-y,z
loop_
_atom_site_type_symbol
_atom_site_label
_atom_site_fract_x
_atom_site_fract_y
_atom_site_fract_z
Si Si1 0.140897 0.500000 0.500000
Si Si2 0.440739 0.393335 0.625390
Si Si3 0.100107 0.896782 0.251995
Si Si4 0.294288 0.894456 0.649778
Si Si5 0.937212 0.602718 0.068937
O O1 0.102382 0.586150 0.555031
O O2 0.176733 0.578776 0.437002
O O3 0.500000 0.405481 0.592883
O O4 0.435150 0.250000 0.659787
O O5 0.431035 0.501033 0.693698
O O6 0.083056 0.750000 0.269350
O O7 0.160265 0.906049 0.281606
O O8 0.091029 0.919768 0.155834
O O9 0.273297 0.750000 0.650773
O O10 0.250000 0.000000 0.660960
O O11 0.927186 0.750000 0.043399
O O12 0.000000 0.591136 0.082751
O O13 0.922263 0.500000 0.000000
#
# Coordination Sequence:
#
# PCOD9502171 Si02
#       5
#     8  16  16  16  16
#     4  10  20  34  50  68  96 130 164 200 246 296
#     4  10  20  32  48  72 100 130 166 205 241 283
#     4   9  19  35  52  71  98 133 166 196 240 295
#     4  10  21  35  52  71  92 122 162 207 250 292
#     4   9  17  30  50  76 104 131 158 189 228 279
#
# _framework density 16.583468
#
# number of rings (size 3 to 8) (size 9 to 14) (size 15 to 20)
#    0.000    2.444    0.000    2.000    0.000    8.444 
#    0.000    2.222    0.000    0.667    0.000    4.667 
#    0.000    0.000    0.000    0.000    0.000    0.000 
#
# Total GULP energy -200741.555450 kJ/mol
# GULP energy per Si atom -5576.154318 kJ/mol
# Density = 1.654572 g / cm^3
# Si number density = 16.583468 Si / 1000 Ang^3
#
#
#
# Elastic Constant Matrix: (Units=GPa)
#
#
# Indices 1 2 3 4 5 6 
#
# 1 50.3950 54.5579 29.2203 0.0000 0.0000 0.0000
# 2 54.5579 135.4427 68.1300 0.0000 0.0000 0.0000
# 3 29.2203 68.1300 101.6750 0.0000 0.0000 0.0000
# 4 0.0000 0.0000 0.0000 22.1274 0.0000 0.0000
# 5 0.0000 0.0000 0.0000 0.0000 6.8143 0.0000
# 6 0.0000 0.0000 0.0000 0.0000 0.0000 24.9526
#
#
#
# Elastic Compliance Matrix: (Units=1/GPa)
#
#
# Indices 1 2 3 4 5 6 
#
# 1 0.035246 -0.013730 -0.000929 0.000000 0.000000 0.000000
# 2 -0.013730 0.016486 -0.007101 0.000000 0.000000 0.000000
# 3 -0.000929 -0.007101 0.014860 0.000000 0.000000 0.000000
# 4 0.000000 0.000000 0.000000 0.045193 0.000000 0.000000
# 5 0.000000 0.000000 0.000000 0.000000 0.146750 0.000000
# 6 0.000000 0.000000 0.000000 0.000000 0.000000 0.040076
#
#
# Mechanical properties :
#
#
# Convention : Reuss Voigt Hill
#
# Bulk Modulus (GPa) = 43.34226 65.70322 54.52274
# Shear Modulus (GPa) = 14.29299 19.81916 17.05608
#
# Velocity S-wave (km/s) = 2.93897 3.46080 3.21050
# Velocity P-wave (km/s) = 6.14079 7.46158 6.83317
#
# Compressibility (1/GPa) = 0.02307217
#
# Stress axis : x y z
#
# Youngs Moduli (GPa) = 28.37164 60.65859 67.29340
#
# Poissons Ratio (x) = 0.83286 0.06252
# Poissons Ratio (y) = 0.38955 0.47783
# Poissons Ratio (z) = 0.02636 0.43072
#
# Static dielectric constant tensor:
#      x y z
#    x 1.551220 0.000000 0.000000 
#    y 0.000000 1.569840 0.000000 
#    z 0.000000 0.000000 1.530810 
# 
# From -- ./inp_files/26014.got.cif
#   From: 2010.05.17/outbox.cif.g08.bks.cpg/sg67_14_cif.got.tgz:26014.got - 2010.06.03 18:28:57.
