data_PCOD9502809
_publ_section_title
;
Structure prediction by ZEFSAII (Michael W. Deem and Ramdas Pophale) SiO2 
 PCOD9502809
Probable space group: C M M A
;
_chemical_formula_sum "Si O2"
_cell_formula_units_Z 80
_cell_length_a 23.936141
_cell_length_b 13.842914
_cell_length_c 11.103940
_cell_angle_alpha 90.000000
_cell_angle_beta 90.000000
_cell_angle_gamma 90.000000
_cell_volume 3679.245452
_symmetry_space_group_name_H-M "C M M A"
_symmetry_group_IT_number 67
_symmetry_cell_setting 'orthorhombic'
loop_
_space_group_symop_operation_xyz
x,y,z
-x,1/2-y,z
x,-y,-z
-x,1/2+y,-z
-x,-y,-z
x,1/2+y,-z
-x,y,z
x,1/2-y,z
1/2+x,1/2+y,z
1/2-x,-y,z
1/2+x,1/2-y,-z
1/2-x,y,-z
1/2-x,1/2-y,-z
1/2+x,y,-z
1/2-x,1/2+y,z
1/2+x,-y,z
loop_
_atom_site_type_symbol
_atom_site_label
_atom_site_fract_x
_atom_site_fract_y
_atom_site_fract_z
Si Si1 0.435158 0.023300 0.815145
Si Si2 0.063940 0.635793 0.563995
Si Si3 0.661982 0.366315 0.932812
Si Si4 0.772974 0.366362 0.818191
Si Si5 0.124919 0.365822 0.678293
O O1 0.500000 0.023819 0.849735
O O2 0.428604 0.081579 0.689047
O O3 0.394875 0.078188 0.907407
O O4 0.413462 0.917710 0.777826
O O5 0.070608 0.750000 0.586381
O O6 0.104045 0.608417 0.454585
O O7 0.000000 0.619253 0.522198
O O8 0.653845 0.250000 0.924068
O O9 0.709728 0.400304 0.837346
O O10 0.690919 0.386224 0.061269
O O11 0.767775 0.250000 0.814415
O O12 0.811352 0.395027 0.706627
O O13 0.120211 0.250000 0.690607
#
# Coordination Sequence:
#
# PCOD9502809 Si02
#       5
#    16  16  16  16  16
#     4  11  22  34  53  82 112 143 180 220 268 325
#     4   9  18  34  55  77 105 142 180 221 272 326
#     4   9  18  36  60  83 109 140 176 223 274 322
#     4   8  17  36  60  82 105 139 181 221 269 324
#     4  10  20  35  54  77 107 144 186 226 262 312
#
# _framework density 21.743590000000001
#
# number of rings (size 3 to 8) (size 9 to 14) (size 15 to 20)
#    0.000    2.600    0.000    3.000    0.000    5.600 
#    0.000    6.000    0.000   14.400    0.000    0.000 
#    0.000    0.000    0.000    0.000    0.000    0.000 
#
# Total GULP energy -223557.864070 kJ/mol
# GULP energy per Si atom -5588.946602 kJ/mol
# Density = 2.169410 g / cm^3
# Si number density = 21.743590 Si / 1000 Ang^3
#
#
#
# Elastic Constant Matrix: (Units=GPa)
#
#
# Indices 1 2 3 4 5 6 
#
# 1 123.5948 30.9090 23.8843 0.0000 0.0000 0.0000
# 2 30.9090 95.2606 21.3780 0.0000 0.0000 0.0000
# 3 23.8843 21.3780 43.8695 0.0000 0.0000 0.0000
# 4 0.0000 0.0000 0.0000 30.2843 0.0000 0.0000
# 5 0.0000 0.0000 0.0000 0.0000 53.3884 0.0000
# 6 0.0000 0.0000 0.0000 0.0000 0.0000 26.7364
#
#
#
# Elastic Compliance Matrix: (Units=1/GPa)
#
#
# Indices 1 2 3 4 5 6 
#
# 1 0.009415 -0.002138 -0.004084 0.000000 0.000000 0.000000
# 2 -0.002138 0.012272 -0.004816 0.000000 0.000000 0.000000
# 3 -0.004084 -0.004816 0.027365 0.000000 0.000000 0.000000
# 4 0.000000 0.000000 0.000000 0.033020 0.000000 0.000000
# 5 0.000000 0.000000 0.000000 0.000000 0.018731 0.000000
# 6 0.000000 0.000000 0.000000 0.000000 0.000000 0.037402
#
#
# Mechanical properties :
#
#
# Convention : Reuss Voigt Hill
#
# Bulk Modulus (GPa) = 37.07043 46.11862 41.59452
# Shear Modulus (GPa) = 29.53790 34.51872 32.02831
#
# Velocity S-wave (km/s) = 3.68973 3.98871 3.84213
# Velocity P-wave (km/s) = 5.93617 6.51685 6.23328
#
# Compressibility (1/GPa) = 0.02697568
#
# Stress axis : x y z
#
# Youngs Moduli (GPa) = 106.21456 81.48518 36.54278
#
# Poissons Ratio (x) = 0.17425 0.14923
# Poissons Ratio (y) = 0.22713 0.17599
# Poissons Ratio (z) = 0.43376 0.39244
#
# Static dielectric constant tensor:
#      x y z
#    x 1.785120 0.000000 0.000000 
#    y 0.000000 1.839670 0.000000 
#    z 0.000000 0.000000 1.803620 
# 
# From -- ./inp_files/17937.got.cif
#   From: 2010.05.17/outbox.cif.g08.bks.cpg/sg67_9_cif.got.tgz:17937.got - 2010.06.03 18:28:57.
