data_PCOD9502902
_publ_section_title
;
Structure prediction by ZEFSAII (Michael W. Deem and Ramdas Pophale) SiO2 
 PCOD9502902
Probable space group: C M M A
;
_chemical_formula_sum "Si O2"
_cell_formula_units_Z 80
_cell_length_a 8.700083
_cell_length_b 18.689093
_cell_length_c 26.240219
_cell_angle_alpha 90.000000
_cell_angle_beta 90.000000
_cell_angle_gamma 90.000000
_cell_volume 4266.571975
_symmetry_space_group_name_H-M "C M M A"
_symmetry_group_IT_number 67
_symmetry_cell_setting 'orthorhombic'
loop_
_space_group_symop_operation_xyz
x,y,z
-x,1/2-y,z
x,-y,-z
-x,1/2+y,-z
-x,-y,-z
x,1/2+y,-z
-x,y,z
x,1/2-y,z
1/2+x,1/2+y,z
1/2-x,-y,z
1/2+x,1/2-y,-z
1/2-x,y,-z
1/2-x,1/2-y,-z
1/2+x,y,-z
1/2-x,1/2+y,z
1/2+x,-y,z
loop_
_atom_site_type_symbol
_atom_site_label
_atom_site_fract_x
_atom_site_fract_y
_atom_site_fract_z
Si Si1 0.183370 0.420858 0.944922
Si Si2 0.815451 0.079547 0.554549
Si Si3 0.314403 0.167209 0.345206
Si Si4 0.684249 0.420168 0.749988
Si Si5 0.685170 0.666527 0.148496
O O1 0.250000 0.500000 0.933810
O O2 0.236733 0.367753 0.900803
O O3 0.000000 0.424938 0.947689
O O4 0.250000 0.399210 0.000000
O O5 0.750000 0.103627 0.500000
O O6 0.771968 0.131098 0.600996
O O7 0.000000 0.075543 0.551526
O O8 0.750000 0.000000 0.564100
O O9 0.500000 0.164504 0.341387
O O10 0.266452 0.250000 0.342885
O O11 0.244346 0.122362 0.299034
O O12 0.500000 0.423312 0.748322
O O13 0.750000 0.500000 0.750731
O O14 0.729998 0.377626 0.801160
O O15 0.500000 0.661039 0.142939
O O16 0.724254 0.750000 0.154280
#
# Coordination Sequence:
#
# PCOD9502902 Si02
#       5
#    16  16  16  16  16
#     4  11  22  38  61  87 116 152 194 237 283 335
#     4  10  20  35  56  81 110 146 188 233 280 332
#     4  10  22  39  58  83 116 150 186 233 286 338
#     4  11  23  39  61  87 114 149 191 234 282 336
#     4  10  22  40  60  85 118 151 187 234 284 336
#
# _framework density 18.750416999999999
#
# number of rings (size 3 to 8) (size 9 to 14) (size 15 to 20)
#    0.000    1.600    0.000    6.000    0.000    8.800 
#    0.000    0.000    0.000    0.000    0.000    0.000 
#    0.000    0.000    0.000    0.000    0.000    0.000 
#
# Total GULP energy -223637.768012 kJ/mol
# GULP energy per Si atom -5590.944200 kJ/mol
# Density = 1.870774 g / cm^3
# Si number density = 18.750417 Si / 1000 Ang^3
#
#
#
# Elastic Constant Matrix: (Units=GPa)
#
#
# Indices 1 2 3 4 5 6 
#
# 1 64.4438 63.7185 67.3502 0.0000 0.0000 0.0000
# 2 63.7185 172.0145 137.4818 0.0000 0.0000 0.0000
# 3 67.3502 137.4818 180.1883 0.0000 0.0000 0.0000
# 4 0.0000 0.0000 0.0000 -181.5325 0.0000 0.0000
# 5 0.0000 0.0000 0.0000 0.0000 -473.5270 0.0000
# 6 0.0000 0.0000 0.0000 0.0000 0.0000 7.0709
#
#
#
# Elastic Compliance Matrix: (Units=1/GPa)
#
#
# Indices 1 2 3 4 5 6 
#
# 1 0.027024 -0.004965 -0.006313 0.000000 0.000000 0.000000
# 2 -0.004965 0.015811 -0.010208 0.000000 0.000000 0.000000
# 3 -0.006313 -0.010208 0.015698 0.000000 0.000000 0.000000
# 4 0.000000 0.000000 0.000000 -0.005509 0.000000 0.000000
# 5 0.000000 0.000000 0.000000 0.000000 -0.002112 0.000000
# 6 0.000000 0.000000 0.000000 0.000000 0.000000 0.141424
#
#
# Mechanical properties :
#
#
# Convention : Reuss Voigt Hill
#
# Bulk Modulus (GPa) = 64.26035 105.97195 85.11615
# Shear Modulus (GPa) = 20.79037 -119.72463 -49.46713
#
# Velocity S-wave (km/s) = 3.33347 -7.99940 -5.14190
# Velocity P-wave (km/s) = 7.01155 5.35543 3.20010
#
# Compressibility (1/GPa) = 0.01556170
#
# Stress axis : x y z
#
# Youngs Moduli (GPa) = 37.00436 63.24543 63.70218
#
# Poissons Ratio (x) = 0.31401 0.40214
# Poissons Ratio (y) = 0.18372 0.65028
# Poissons Ratio (z) = 0.23360 0.64562
#
# Static dielectric constant tensor:
#      x y z
#    x 1.631350 0.000000 0.000000 
#    y 0.000000 1.618770 0.000000 
#    z 0.000000 0.000000 1.623370 
# 
# From -- ./inp_files/43251.got.cif
#   From: 2010.05.17/outbox.cif.g08.bks.cpg/sg67_22_cif.got.tgz:43251.got - 2010.06.03 18:28:57.
