data_PCOD9502139
_publ_section_title
;
Structure prediction by ZEFSAII (Michael W. Deem and Ramdas Pophale) SiO2 
 PCOD9502139
Probable space group: C M M A
;
_chemical_formula_sum "Si O2"
_cell_formula_units_Z 96
_cell_length_a 27.741966
_cell_length_b 8.971109
_cell_length_c 24.779176
_cell_angle_alpha 90.000000
_cell_angle_beta 90.000000
_cell_angle_gamma 90.000000
_cell_volume 6166.947183
_symmetry_space_group_name_H-M "C M M A"
_symmetry_group_IT_number 67
_symmetry_cell_setting 'orthorhombic'
loop_
_space_group_symop_operation_xyz
x,y,z
-x,1/2-y,z
x,-y,-z
-x,1/2+y,-z
-x,-y,-z
x,1/2+y,-z
-x,y,z
x,1/2-y,z
1/2+x,1/2+y,z
1/2-x,-y,z
1/2+x,1/2-y,-z
1/2-x,y,-z
1/2-x,1/2-y,-z
1/2+x,y,-z
1/2-x,1/2+y,z
1/2+x,-y,z
loop_
_atom_site_type_symbol
_atom_site_label
_atom_site_fract_x
_atom_site_fract_y
_atom_site_fract_z
Si Si1 0.441632 0.924619 0.554597
Si Si2 0.900643 0.071057 0.219582
Si Si3 0.199279 0.572100 0.834215
Si Si4 0.444368 0.928374 0.886122
Si Si5 0.354428 0.070954 0.943462
Si Si6 0.557547 0.570678 0.674014
O O1 0.500000 0.939238 0.554637
O O2 0.430748 0.750000 0.551845
O O3 0.426298 0.979341 0.613930
O O4 0.423289 0.000000 0.500000
O O5 0.906104 0.250000 0.215644
O O6 0.845311 0.032898 0.204764
O O7 0.932726 0.993401 0.173233
O O8 0.915955 0.011787 0.277686
O O9 0.204342 0.750000 0.833155
O O10 0.250000 0.500000 0.820635
O O11 0.181516 0.530251 0.894528
O O12 0.500000 0.958264 0.900000
O O13 0.436875 0.750000 0.886214
O O14 0.406449 0.006407 0.925931
O O15 0.356899 0.250000 0.946906
O O16 0.339714 0.000000 0.000000
O O17 0.500000 0.544109 0.678709
O O18 0.564349 0.750000 0.677760
#
# Coordination Sequence:
#
# PCOD9502139 Si02
#       6
#    16  16  16  16  16  16
#     4   8  14  24  37  55  83 119 158 195 225 255
#     4  10  20  32  46  68  94 117 148 188 226 267
#     4   9  20  36  52  70  90 113 142 179 224 272
#     4  10  20  33  49  68  91 122 155 184 219 261
#     4  10  21  36  52  72  95 117 146 181 217 262
#     4   9  17  28  42  63  92 126 161 192 222 260
#
# _framework density 15.56686
#
# number of rings (size 3 to 8) (size 9 to 14) (size 15 to 20)
#    0.000    2.667    0.000    4.000    0.000    9.000 
#    0.000    3.333    0.000    0.000    0.000    0.000 
#    0.000    0.667    0.000    7.333    0.000    5.667 
#
# Total GULP energy -267538.780386 kJ/mol
# GULP energy per Si atom -5573.724591 kJ/mol
# Density = 1.553143 g / cm^3
# Si number density = 15.566860 Si / 1000 Ang^3
#
#
#
# Elastic Constant Matrix: (Units=GPa)
#
#
# Indices 1 2 3 4 5 6 
#
# 1 46.4151 14.3177 7.9725 0.0000 0.0000 0.0000
# 2 14.3177 30.6876 21.8453 0.0000 0.0000 0.0000
# 3 7.9725 21.8453 96.0956 0.0000 0.0000 0.0000
# 4 0.0000 0.0000 0.0000 30.2747 0.0000 0.0000
# 5 0.0000 0.0000 0.0000 0.0000 8.3455 0.0000
# 6 0.0000 0.0000 0.0000 0.0000 0.0000 22.2990
#
#
#
# Elastic Compliance Matrix: (Units=1/GPa)
#
#
# Indices 1 2 3 4 5 6 
#
# 1 0.025206 -0.012254 0.000695 0.000000 0.000000 0.000000
# 2 -0.012254 0.044836 -0.009176 0.000000 0.000000 0.000000
# 3 0.000695 -0.009176 0.012435 0.000000 0.000000 0.000000
# 4 0.000000 0.000000 0.000000 0.033031 0.000000 0.000000
# 5 0.000000 0.000000 0.000000 0.000000 0.119825 0.000000
# 6 0.000000 0.000000 0.000000 0.000000 0.000000 0.044845
#
#
# Mechanical properties :
#
#
# Convention : Reuss Voigt Hill
#
# Bulk Modulus (GPa) = 24.38743 29.05214 26.71979
# Shear Modulus (GPa) = 14.91131 20.78804 17.84967
#
# Velocity S-wave (km/s) = 3.09833 3.65828 3.38989
# Velocity P-wave (km/s) = 5.33852 6.04544 5.70295
#
# Compressibility (1/GPa) = 0.04100473
#
# Stress axis : x y z
#
# Youngs Moduli (GPa) = 39.67378 22.30360 80.42079
#
# Poissons Ratio (x) = 0.27332 -0.05586
# Poissons Ratio (y) = 0.48618 0.73793
# Poissons Ratio (z) = -0.02756 0.20465
#
# Static dielectric constant tensor:
#      x y z
#    x 1.497230 0.000000 0.000000 
#    y 0.000000 1.519850 0.000000 
#    z 0.000000 0.000000 1.531450 
# 
# From -- ./inp_files/40899.got.cif
#   From: 2010.05.17/outbox.cif.g08.bks.cpg/sg67_21_cif.got.tgz:40899.got - 2010.06.03 18:28:57.
