data_PCOD9502357
_publ_section_title
;
Structure prediction by ZEFSAII (Michael W. Deem and Ramdas Pophale) SiO2 
 PCOD9502357
Probable space group: C M M A
;
_chemical_formula_sum "Si O2"
_cell_formula_units_Z 116
_cell_length_a 8.982999
_cell_length_b 25.378936
_cell_length_c 28.183835
_cell_angle_alpha 90.000000
_cell_angle_beta 90.000000
_cell_angle_gamma 90.000000
_cell_volume 6425.321299
_symmetry_space_group_name_H-M "C M M A"
_symmetry_group_IT_number 67
_symmetry_cell_setting 'orthorhombic'
loop_
_space_group_symop_operation_xyz
x,y,z
-x,1/2-y,z
x,-y,-z
-x,1/2+y,-z
-x,-y,-z
x,1/2+y,-z
-x,y,z
x,1/2-y,z
1/2+x,1/2+y,z
1/2-x,-y,z
1/2+x,1/2-y,-z
1/2-x,y,-z
1/2-x,1/2-y,-z
1/2+x,y,-z
1/2-x,1/2+y,z
1/2+x,-y,z
loop_
_atom_site_type_symbol
_atom_site_label
_atom_site_fract_x
_atom_site_fract_y
_atom_site_fract_z
Si Si1 0.827229 0.891572 0.547291
Si Si2 0.821930 0.554865 0.245698
Si Si3 0.825342 0.658138 0.712922
Si Si4 0.167091 0.190421 0.180233
Si Si5 0.327206 0.096101 0.141177
Si Si6 0.321581 0.309538 0.383034
Si Si7 0.177393 0.057903 0.047071
Si Si8 0.750000 0.500000 0.500000
O O1 0.750000 0.869340 0.500000
O O2 0.745754 0.860265 0.589385
O O3 0.817229 0.955576 0.536818
O O4 0.000000 0.878905 0.550039
O O5 0.750000 0.500000 0.260079
O O6 0.746879 0.601656 0.275194
O O7 0.790504 0.564199 0.189455
O O8 0.000000 0.555564 0.251544
O O9 0.814980 0.688333 0.762979
O O10 0.738371 0.685414 0.670481
O O11 0.000000 0.653198 0.700775
O O12 0.171973 0.250000 0.163736
O O13 0.292874 0.155537 0.156598
O O14 0.000000 0.168455 0.170591
O O15 0.500000 0.086864 0.129533
O O16 0.225770 0.083651 0.096342
O O17 0.500000 0.313189 0.384422
O O18 0.280323 0.250000 0.400767
O O19 0.000000 0.055002 0.042275
O O20 0.250000 0.000000 0.049486
O O21 0.250000 0.083527 0.000000
#
# Coordination Sequence:
#
# PCOD9502357 Si02
#       8
#    16  16  16  16  16  16  16   4
#     4  10  21  39  65  91 117 149 188 232 281 334
#     4  10  20  34  52  76 108 144 184 228 273 327
#     4  10  20  36  57  81 111 148 188 229 278 329
#     4   9  18  33  54  79 106 139 180 225 270 320
#     4  10  20  33  51  76 105 138 176 219 269 322
#     4  11  24  40  59  86 120 154 191 235 283 336
#     4  11  21  34  52  75 104 136 172 214 262 319
#     4   8  22  40  68  92 118 148 186 234 278 332
#
# _framework density 18.053573
#
# number of rings (size 3 to 8) (size 9 to 14) (size 15 to 20)
#    0.414    1.517    0.000    4.759    0.000    5.517 
#    1.241    0.000    0.000    0.414    0.000    0.000 
#    0.000    0.000    0.000    0.000    0.000    0.000 
#
# Total GULP energy -322963.487589 kJ/mol
# GULP energy per Si atom -5568.335993 kJ/mol
# Density = 1.801248 g / cm^3
# Si number density = 18.053573 Si / 1000 Ang^3
#
#
#
# Elastic Constant Matrix: (Units=GPa)
#
#
# Indices 1 2 3 4 5 6 
#
# 1 103.0477 34.5377 33.5348 0.0000 0.0000 0.0000
# 2 34.5377 85.9387 19.3163 0.0000 0.0000 0.0000
# 3 33.5348 19.3163 60.1297 0.0000 0.0000 0.0000
# 4 0.0000 0.0000 0.0000 -31.4468 0.0000 0.0000
# 5 0.0000 0.0000 0.0000 0.0000 31.5191 0.0000
# 6 0.0000 0.0000 0.0000 0.0000 0.0000 13.1657
#
#
#
# Elastic Compliance Matrix: (Units=1/GPa)
#
#
# Indices 1 2 3 4 5 6 
#
# 1 0.012943 -0.003858 -0.005979 0.000000 0.000000 0.000000
# 2 -0.003858 0.013692 -0.002247 0.000000 0.000000 0.000000
# 3 -0.005979 -0.002247 0.020687 0.000000 0.000000 0.000000
# 4 0.000000 0.000000 0.000000 -0.031800 0.000000 0.000000
# 5 0.000000 0.000000 0.000000 0.000000 0.031727 0.000000
# 6 0.000000 0.000000 0.000000 0.000000 0.000000 0.075955
#
#
# Mechanical properties :
#
#
# Convention : Reuss Voigt Hill
#
# Bulk Modulus (GPa) = 43.18858 47.09931 45.14394
# Shear Modulus (GPa) = 32.23951 13.42942 22.83446
#
# Velocity S-wave (km/s) = 4.23042 2.73035 3.56028
# Velocity P-wave (km/s) = 6.91638 6.00708 6.47771
#
# Compressibility (1/GPa) = 0.02315427
#
# Stress axis : x y z
#
# Youngs Moduli (GPa) = 77.26183 73.03752 48.33928
#
# Poissons Ratio (x) = 0.28176 0.28903
# Poissons Ratio (y) = 0.29805 0.10861
# Poissons Ratio (z) = 0.46196 0.16411
#
# Static dielectric constant tensor:
#      x y z
#    x 1.615430 0.000000 0.000000 
#    y 0.000000 1.656210 0.000000 
#    z 0.000000 0.000000 1.632570 
# 
# From -- ./inp_files/45450.got.cif
#   From: 2010.05.17/outbox.cif.g08.bks.cpg/sg67_23_cif.got.tgz:45450.got - 2010.06.03 18:28:57.
