data_PCOD9502019
_publ_section_title
;
Structure prediction by ZEFSAII (Michael W. Deem and Ramdas Pophale) SiO2 
 PCOD9502019
Probable space group: C M M A
;
_chemical_formula_sum "Si O2"
_cell_formula_units_Z 96
_cell_length_a 18.650765
_cell_length_b 30.665172
_cell_length_c 9.415562
_cell_angle_alpha 90.000000
_cell_angle_beta 90.000000
_cell_angle_gamma 90.000000
_cell_volume 5385.032174
_symmetry_space_group_name_H-M "C M M A"
_symmetry_group_IT_number 67
_symmetry_cell_setting 'orthorhombic'
loop_
_space_group_symop_operation_xyz
x,y,z
-x,1/2-y,z
x,-y,-z
-x,1/2+y,-z
-x,-y,-z
x,1/2+y,-z
-x,y,z
x,1/2-y,z
1/2+x,1/2+y,z
1/2-x,-y,z
1/2+x,1/2-y,-z
1/2-x,y,-z
1/2-x,1/2-y,-z
1/2+x,y,-z
1/2-x,1/2+y,z
1/2+x,-y,z
loop_
_atom_site_type_symbol
_atom_site_label
_atom_site_fract_x
_atom_site_fract_y
_atom_site_fract_z
Si Si1 0.179313 0.698186 0.402288
Si Si2 0.664780 0.009046 0.835519
Si Si3 0.415309 0.565239 0.668772
Si Si4 0.914693 0.132325 0.433383
Si Si5 0.330817 0.866999 0.843305
Si Si6 0.170018 0.890163 0.834012
O O1 0.171718 0.750000 0.398901
O O2 0.250000 0.687981 0.500000
O O3 0.113630 0.672889 0.475140
O O4 0.180133 0.677730 0.243565
O O5 0.646666 0.059775 0.821662
O O6 0.750000 0.000000 0.821953
O O7 0.624834 0.977665 0.724442
O O8 0.645420 0.000000 0.000000
O O9 0.500000 0.557426 0.667541
O O10 0.394553 0.587600 0.518429
O O11 0.393796 0.603779 0.777936
O O12 0.872936 0.134614 0.286295
O O13 0.000000 0.132859 0.417216
O O14 0.255607 0.891229 0.811970
O O15 0.340174 0.867907 0.012345
#
# Coordination Sequence:
#
# PCOD9502019 Si02
#       6
#    16  16  16  16  16  16
#     4  10  20  38  66  92 113 147 194 241 293 359
#     4  11  19  35  55  82 115 155 204 247 287 339
#     4  10  21  36  54  81 116 155 201 245 282 340
#     4  10  23  40  58  85 121 157 192 239 302 357
#     4  10  19  37  58  85 118 148 194 241 290 350
#     4  11  20  35  59  83 117 156 196 242 292 345
#
# _framework density 17.827190000000002
#
# number of rings (size 3 to 8) (size 9 to 14) (size 15 to 20)
#    0.000    1.667    5.000    1.000    0.000    2.667 
#    0.000    5.000    0.000    0.000    0.000    0.000 
#    0.000    0.000    0.000    0.000    0.000    0.000 
#
# Total GULP energy -267491.525930 kJ/mol
# GULP energy per Si atom -5572.740124 kJ/mol
# Density = 1.778661 g / cm^3
# Si number density = 17.827190 Si / 1000 Ang^3
#
#
#
# Elastic Constant Matrix: (Units=GPa)
#
#
# Indices 1 2 3 4 5 6 
#
# 1 45.5000 16.7890 45.2699 0.0000 0.0000 0.0000
# 2 16.7890 97.8393 53.6891 0.0000 0.0000 0.0000
# 3 45.2699 53.6891 103.2518 0.0000 0.0000 0.0000
# 4 0.0000 0.0000 0.0000 24.4139 0.0000 0.0000
# 5 0.0000 0.0000 0.0000 0.0000 4.7675 0.0000
# 6 0.0000 0.0000 0.0000 0.0000 0.0000 18.6646
#
#
#
# Elastic Compliance Matrix: (Units=1/GPa)
#
#
# Indices 1 2 3 4 5 6 
#
# 1 0.040000 0.003862 -0.019546 0.000000 0.000000 0.000000
# 2 0.003862 0.014675 -0.009324 0.000000 0.000000 0.000000
# 3 -0.019546 -0.009324 0.023103 0.000000 0.000000 0.000000
# 4 0.000000 0.000000 0.000000 0.040960 0.000000 0.000000
# 5 0.000000 0.000000 0.000000 0.000000 0.209752 0.000000
# 6 0.000000 0.000000 0.000000 0.000000 0.000000 0.053577
#
#
# Mechanical properties :
#
#
# Convention : Reuss Voigt Hill
#
# Bulk Modulus (GPa) = 36.02031 53.12080 44.57056
# Shear Modulus (GPa) = 11.32924 18.29207 14.81066
#
# Velocity S-wave (km/s) = 2.52365 3.20672 2.88547
# Velocity P-wave (km/s) = 5.36105 6.60099 6.01307
#
# Compressibility (1/GPa) = 0.02776211
#
# Stress axis : x y z
#
# Youngs Moduli (GPa) = 25.00009 68.14540 43.28477
#
# Poissons Ratio (x) = -0.26316 0.84603
# Poissons Ratio (y) = -0.09654 0.40357
# Poissons Ratio (z) = 0.48864 0.63536
#
# Static dielectric constant tensor:
#      x y z
#    x 1.596200 0.000000 0.000000 
#    y 0.000000 1.615190 0.000000 
#    z 0.000000 0.000000 1.640900 
# 
# From -- ./inp_files/11509.got.cif
#   From: 2010.05.17/outbox.cif.g08.bks.cpg/sg67_6_cif.got.tgz:11509.got - 2010.06.03 18:28:57.
