data_PCOD9502626
_publ_section_title
;
Structure prediction by ZEFSAII (Michael W. Deem and Ramdas Pophale) SiO2 
 PCOD9502626
Probable space group: C M M A
;
_chemical_formula_sum "Si O2"
_cell_formula_units_Z 104
_cell_length_a 8.921806
_cell_length_b 29.081326
_cell_length_c 25.152012
_cell_angle_alpha 90.000000
_cell_angle_beta 90.000000
_cell_angle_gamma 90.000000
_cell_volume 6525.889442
_symmetry_space_group_name_H-M "C M M A"
_symmetry_group_IT_number 67
_symmetry_cell_setting 'orthorhombic'
loop_
_space_group_symop_operation_xyz
x,y,z
-x,1/2-y,z
x,-y,-z
-x,1/2+y,-z
-x,-y,-z
x,1/2+y,-z
-x,y,z
x,1/2-y,z
1/2+x,1/2+y,z
1/2-x,-y,z
1/2+x,1/2-y,-z
1/2-x,y,-z
1/2-x,1/2-y,-z
1/2+x,y,-z
1/2-x,1/2+y,z
1/2+x,-y,z
loop_
_atom_site_type_symbol
_atom_site_label
_atom_site_fract_x
_atom_site_fract_y
_atom_site_fract_z
Si Si1 0.677859 0.141709 0.752651
Si Si2 0.175878 0.548583 0.284409
Si Si3 0.821015 0.143948 0.445233
Si Si4 0.820379 0.250000 0.942387
Si Si5 0.323389 0.695061 0.654612
Si Si6 0.176321 0.048769 0.587249
Si Si7 0.823422 0.302137 0.842216
O O1 0.500000 0.142410 0.746426
O O2 0.740696 0.090772 0.743069
O O3 0.754100 0.173360 0.707625
O O4 0.727084 0.162482 0.809127
O O5 0.250000 0.500000 0.270317
O O6 0.188928 0.553656 0.348561
O O7 0.000000 0.549044 0.271508
O O8 0.750000 0.161737 0.500000
O O9 0.759760 0.173046 0.395704
O O10 0.762630 0.091820 0.437289
O O11 0.000000 0.144931 0.447156
O O12 0.781191 0.293311 0.904010
O O13 0.000000 0.250000 0.946720
O O14 0.750000 0.250000 0.000000
O O15 0.500000 0.683216 0.652020
O O16 0.308379 0.750000 0.654803
O O17 0.000000 0.049799 0.573396
O O18 0.250000 0.000000 0.572521
O O19 0.807324 0.250000 0.818998
O O20 0.000000 0.313743 0.838967
#
# Coordination Sequence:
#
# PCOD9502626 Si02
#       7
#    16  16  16   8  16  16  16
#     4  12  22  32  52  80 109 138 175 218 261 309
#     4  10  20  34  54  76 105 137 169 209 258 316
#     4  12  25  41  60  79 102 128 164 209 257 315
#     4   8  16  30  50  74 108 152 191 228 269 310
#     4  11  24  41  59  77 100 133 169 209 261 314
#     4  10  20  36  58  81 105 131 163 202 254 312
#     4   8  17  32  48  71 105 147 186 220 262 305
#
# _framework density 15.936526000000001
#
# number of rings (size 3 to 8) (size 9 to 14) (size 15 to 20)
#    0.462    1.231    1.538    4.615    0.000    5.846 
#    0.000    1.538    0.000    0.000    0.000    0.000 
#    0.000    0.615    0.000    6.462    0.000    3.538 
#
# Total GULP energy -290283.795245 kJ/mol
# GULP energy per Si atom -5582.380678 kJ/mol
# Density = 1.590025 g / cm^3
# Si number density = 15.936526 Si / 1000 Ang^3
#
#
#
# Elastic Constant Matrix: (Units=GPa)
#
#
# Indices 1 2 3 4 5 6 
#
# 1 137.9662 56.4136 56.7130 0.0000 0.0000 0.0000
# 2 56.4136 72.4841 43.7479 0.0000 0.0000 0.0000
# 3 56.7130 43.7479 99.1782 0.0000 0.0000 0.0000
# 4 0.0000 0.0000 0.0000 15.4240 0.0000 0.0000
# 5 0.0000 0.0000 0.0000 0.0000 26.4829 0.0000
# 6 0.0000 0.0000 0.0000 0.0000 0.0000 26.1858
#
#
#
# Elastic Compliance Matrix: (Units=1/GPa)
#
#
# Indices 1 2 3 4 5 6 
#
# 1 0.011494 -0.006785 -0.003580 0.000000 0.000000 0.000000
# 2 -0.006785 0.022807 -0.006180 0.000000 0.000000 0.000000
# 3 -0.003580 -0.006180 0.014856 0.000000 0.000000 0.000000
# 4 0.000000 0.000000 0.000000 0.064834 0.000000 0.000000
# 5 0.000000 0.000000 0.000000 0.000000 0.037760 0.000000
# 6 0.000000 0.000000 0.000000 0.000000 0.000000 0.038189
#
#
# Mechanical properties :
#
#
# Convention : Reuss Voigt Hill
#
# Bulk Modulus (GPa) = 62.24026 69.26418 65.75222
# Shear Modulus (GPa) = 21.89278 23.80215 22.84747
#
# Velocity S-wave (km/s) = 3.71043 3.86885 3.79047
# Velocity P-wave (km/s) = 7.58263 7.96958 7.77851
#
# Compressibility (1/GPa) = 0.01606677
#
# Stress axis : x y z
#
# Youngs Moduli (GPa) = 87.00160 43.84601 67.31286
#
# Poissons Ratio (x) = 0.29750 0.24096
# Poissons Ratio (y) = 0.59032 0.41602
# Poissons Ratio (z) = 0.31144 0.27098
#
# Static dielectric constant tensor:
#      x y z
#    x 1.525880 0.000000 0.000000 
#    y 0.000000 1.523230 0.000000 
#    z 0.000000 0.000000 1.531310 
# 
# From -- ./inp_files/40990.got.cif
#   From: 2010.05.17/outbox.cif.g08.bks.cpg/sg67_21_cif.got.tgz:40990.got - 2010.06.03 18:28:57.
