data_PCOD9502844
_publ_section_title
;
Structure prediction by ZEFSAII (Michael W. Deem and Ramdas Pophale) SiO2 
 PCOD9502844
Probable space group: C M M A
;
_chemical_formula_sum "Si O2"
_cell_formula_units_Z 104
_cell_length_a 26.881206
_cell_length_b 8.691751
_cell_length_c 22.756070
_cell_angle_alpha 90.000000
_cell_angle_beta 90.000000
_cell_angle_gamma 90.000000
_cell_volume 5316.836266
_symmetry_space_group_name_H-M "C M M A"
_symmetry_group_IT_number 67
_symmetry_cell_setting 'orthorhombic'
loop_
_space_group_symop_operation_xyz
x,y,z
-x,1/2-y,z
x,-y,-z
-x,1/2+y,-z
-x,-y,-z
x,1/2+y,-z
-x,y,z
x,1/2-y,z
1/2+x,1/2+y,z
1/2-x,-y,z
1/2+x,1/2-y,-z
1/2-x,y,-z
1/2-x,1/2-y,-z
1/2+x,y,-z
1/2-x,1/2+y,z
1/2+x,-y,z
loop_
_atom_site_type_symbol
_atom_site_label
_atom_site_fract_x
_atom_site_fract_y
_atom_site_fract_z
Si Si1 0.554993 0.435752 0.816885
Si Si2 0.197184 0.066706 0.648880
Si Si3 0.660119 0.066678 0.769272
Si Si4 0.303450 0.566781 0.098753
Si Si5 0.407781 0.432885 0.061129
Si Si6 0.392050 0.436318 0.433965
Si Si7 0.500000 0.564690 0.566191
O O1 0.500000 0.480817 0.795632
O O2 0.557127 0.250000 0.820422
O O3 0.602608 0.483776 0.778322
O O4 0.564169 0.500544 0.882096
O O5 0.199065 0.250000 0.645789
O O6 0.152581 0.010435 0.607227
O O7 0.250000 0.000000 0.630288
O O8 0.185493 0.017241 0.715342
O O9 0.661108 0.250000 0.758455
O O10 0.687399 0.039718 0.831445
O O11 0.305591 0.750000 0.088416
O O12 0.250000 0.500000 0.081537
O O13 0.350334 0.486680 0.068052
O O14 0.410571 0.250000 0.061018
O O15 0.427360 0.500000 0.000000
O O16 0.387368 0.500000 0.500000
O O17 0.390767 0.250000 0.436775
O O18 0.446467 0.483043 0.408739
O O19 0.500000 0.750000 0.564188
O O20 0.500000 0.500000 0.500000
#
# Coordination Sequence:
#
# PCOD9502844 Si02
#       7
#    16  16  16  16  16  16   8
#     4   9  19  38  61  82 108 141 178 223 274 327
#     4  11  23  37  54  80 112 148 187 229 276 329
#     4   9  19  36  57  80 107 140 178 222 270 323
#     4  10  20  35  55  79 105 138 179 224 275 326
#     4  11  22  36  54  78 109 143 181 223 269 325
#     4   9  19  35  56  81 109 144 184 227 277 329
#     4   8  14  30  54  76 102 134 172 218 265 316
#
# _framework density 19.560504999999999
#
# number of rings (size 3 to 8) (size 9 to 14) (size 15 to 20)
#    0.000    2.308    0.000    3.692    0.000    6.769 
#    1.385    3.077    0.000    0.000    0.000    0.000 
#    0.000    0.000    0.000    0.000    0.000    0.000 
#
# Total GULP energy -290289.684572 kJ/mol
# GULP energy per Si atom -5582.493934 kJ/mol
# Density = 1.951598 g / cm^3
# Si number density = 19.560505 Si / 1000 Ang^3
#
#
#
# Elastic Constant Matrix: (Units=GPa)
#
#
# Indices 1 2 3 4 5 6 
#
# 1 130.6851 17.6996 19.2734 0.0000 0.0000 0.0000
# 2 17.6996 16.2882 9.0045 0.0000 0.0000 0.0000
# 3 19.2734 9.0045 41.2158 0.0000 0.0000 0.0000
# 4 0.0000 0.0000 0.0000 22.4279 0.0000 0.0000
# 5 0.0000 0.0000 0.0000 0.0000 -1.9293 0.0000
# 6 0.0000 0.0000 0.0000 0.0000 0.0000 21.2458
#
#
#
# Elastic Compliance Matrix: (Units=1/GPa)
#
#
# Indices 1 2 3 4 5 6 
#
# 1 0.009177 -0.008644 -0.002403 0.000000 0.000000 0.000000
# 2 -0.008644 0.077969 -0.012992 0.000000 0.000000 0.000000
# 3 -0.002403 -0.012992 0.028225 0.000000 0.000000 0.000000
# 4 0.000000 0.000000 0.000000 0.044587 0.000000 0.000000
# 5 0.000000 0.000000 0.000000 0.000000 -0.518323 0.000000
# 6 0.000000 0.000000 0.000000 0.000000 0.000000 0.047068
#
#
# Mechanical properties :
#
#
# Convention : Reuss Voigt Hill
#
# Bulk Modulus (GPa) = 14.86032 31.12711 22.99371
# Shear Modulus (GPa) = -20.76514 17.82965 -1.46775
#
# Velocity S-wave (km/s) = -3.26173 3.02240 -0.86717
# Velocity P-wave (km/s) = 2.56351 5.30355 3.28299
#
# Compressibility (1/GPa) = 0.06729330
#
# Stress axis : x y z
#
# Youngs Moduli (GPa) = 108.96729 12.82558 35.43006
#
# Poissons Ratio (x) = 0.11086 0.08514
# Poissons Ratio (y) = 0.94190 0.46031
# Poissons Ratio (z) = 0.26185 0.16663
#
# Static dielectric constant tensor:
#      x y z
#    x 1.722780 0.000000 0.000000 
#    y 0.000000 1.651990 0.000000 
#    z 0.000000 0.000000 1.655230 
# 
# From -- ./inp_files/39957.got.cif
#   From: 2010.05.17/outbox.cif.g08.bks.cpg/sg67_20_cif.got.tgz:39957.got - 2010.06.03 18:28:57.
