data_PCOD9502678
_publ_section_title
;
Structure prediction by ZEFSAII (Michael W. Deem and Ramdas Pophale) SiO2 
 PCOD9502678
Probable space group: C M M A
;
_chemical_formula_sum "Si O2"
_cell_formula_units_Z 72
_cell_length_a 26.240405
_cell_length_b 9.840866
_cell_length_c 14.142520
_cell_angle_alpha 90.000000
_cell_angle_beta 90.000000
_cell_angle_gamma 90.000000
_cell_volume 3651.999030
_symmetry_space_group_name_H-M "C M M A"
_symmetry_group_IT_number 67
_symmetry_cell_setting 'orthorhombic'
loop_
_space_group_symop_operation_xyz
x,y,z
-x,1/2-y,z
x,-y,-z
-x,1/2+y,-z
-x,-y,-z
x,1/2+y,-z
-x,y,z
x,1/2-y,z
1/2+x,1/2+y,z
1/2-x,-y,z
1/2+x,1/2-y,-z
1/2-x,y,-z
1/2-x,1/2-y,-z
1/2+x,y,-z
1/2-x,1/2+y,z
1/2+x,-y,z
loop_
_atom_site_type_symbol
_atom_site_label
_atom_site_fract_x
_atom_site_fract_y
_atom_site_fract_z
Si Si1 0.689714 0.010052 0.737640
Si Si2 0.911309 0.589855 0.802113
Si Si3 0.059221 0.408620 0.416619
Si Si4 0.000000 0.081373 0.900690
Si Si5 0.817127 0.250000 0.615608
Si Si6 0.304098 0.250000 0.592000
O O1 0.648256 0.050984 0.816325
O O2 0.685122 0.121023 0.655447
O O3 0.750000 0.000000 0.765488
O O4 0.672713 0.875601 0.683001
O O5 0.920817 0.750000 0.828068
O O6 0.919830 0.579320 0.689142
O O7 0.950097 0.482692 0.848789
O O8 0.082495 0.500000 0.500000
O O9 0.060104 0.250000 0.442588
O O10 0.000000 0.450523 0.407750
O O11 0.000000 0.250000 0.905274
O O12 0.000000 0.000000 0.000000
O O13 0.757032 0.250000 0.591570
O O14 0.834273 0.250000 0.506587
#
# Coordination Sequence:
#
# PCOD9502678 Si02
#       6
#    16  16  16   8   8   8
#     4  10  20  34  54  85 125 174 222 269 322 371
#     4  11  22  42  66  92 130 172 214 265 320 378
#     4   9  18  33  52  79 119 167 214 261 309 362
#     4  12  28  50  79 106 125 152 195 256 326 398
#     4   9  18  28  50  73 123 168 236 283 310 360
#     4   9  16  32  46  77 115 180 228 279 322 354
#
# _framework density 19.715230999999999
#
# number of rings (size 3 to 8) (size 9 to 14) (size 15 to 20)
#    0.000    2.000    2.222    1.667    1.556    5.333 
#    0.000    0.000    0.000    0.667    0.000    3.111 
#    0.000    0.000    0.000    0.000    0.000    0.000 
#
# Total GULP energy -200457.178853 kJ/mol
# GULP energy per Si atom -5568.254968 kJ/mol
# Density = 1.967036 g / cm^3
# Si number density = 19.715231 Si / 1000 Ang^3
#
#
#
# Elastic Constant Matrix: (Units=GPa)
#
#
# Indices 1 2 3 4 5 6 
#
# 1 122.3112 30.0053 21.2063 0.0000 0.0000 0.0000
# 2 30.0053 165.6267 31.9994 0.0000 0.0000 0.0000
# 3 21.2063 31.9994 42.2752 0.0000 0.0000 0.0000
# 4 0.0000 0.0000 0.0000 29.0275 0.0000 0.0000
# 5 0.0000 0.0000 0.0000 0.0000 0.8578 0.0000
# 6 0.0000 0.0000 0.0000 0.0000 0.0000 35.6268
#
#
#
# Elastic Compliance Matrix: (Units=1/GPa)
#
#
# Indices 1 2 3 4 5 6 
#
# 1 0.009066 -0.000895 -0.003871 0.000000 0.000000 0.000000
# 2 -0.000895 0.007160 -0.004971 0.000000 0.000000 0.000000
# 3 -0.003871 -0.004971 0.029359 0.000000 0.000000 0.000000
# 4 0.000000 0.000000 0.000000 0.034450 0.000000 0.000000
# 5 0.000000 0.000000 0.000000 0.000000 1.165798 0.000000
# 6 0.000000 0.000000 0.000000 0.000000 0.000000 0.028069
#
#
# Mechanical properties :
#
#
# Convention : Reuss Voigt Hill
#
# Bulk Modulus (GPa) = 38.29552 55.18169 46.73861
# Shear Modulus (GPa) = 3.84001 29.56923 16.70462
#
# Velocity S-wave (km/s) = 1.39713 3.87695 2.91399
# Velocity P-wave (km/s) = 4.69778 6.93477 5.92285
#
# Compressibility (1/GPa) = 0.02611271
#
# Stress axis : x y z
#
# Youngs Moduli (GPa) = 110.29659 139.66193 34.06124
#
# Poissons Ratio (x) = 0.12495 0.13184
# Poissons Ratio (y) = 0.09868 0.16932
# Poissons Ratio (z) = 0.42693 0.69425
#
# Static dielectric constant tensor:
#      x y z
#    x 1.859830 0.000000 0.000000 
#    y 0.000000 -0.287950 0.000000 
#    z 0.000000 0.000000 1.699250 
# 
# From -- ./inp_files/30576.got.cif
#   From: 2010.05.17/outbox.cif.g08.bks.cpg/sg67_16_cif.got.tgz:30576.got - 2010.06.03 18:28:57.
