data_PCOD9502441
_publ_section_title
;
Structure prediction by ZEFSAII (Michael W. Deem and Ramdas Pophale) SiO2 
 PCOD9502441
Probable space group: C M M A
;
_chemical_formula_sum "Si O2"
_cell_formula_units_Z 104
_cell_length_a 21.952271
_cell_length_b 14.265479
_cell_length_c 17.094895
_cell_angle_alpha 90.000000
_cell_angle_beta 90.000000
_cell_angle_gamma 90.000000
_cell_volume 5353.431522
_symmetry_space_group_name_H-M "C M M A"
_symmetry_group_IT_number 67
_symmetry_cell_setting 'orthorhombic'
loop_
_space_group_symop_operation_xyz
x,y,z
-x,1/2-y,z
x,-y,-z
-x,1/2+y,-z
-x,-y,-z
x,1/2+y,-z
-x,y,z
x,1/2-y,z
1/2+x,1/2+y,z
1/2-x,-y,z
1/2+x,1/2-y,-z
1/2-x,y,-z
1/2-x,1/2-y,-z
1/2+x,y,-z
1/2-x,1/2+y,z
1/2+x,-y,z
loop_
_atom_site_type_symbol
_atom_site_label
_atom_site_fract_x
_atom_site_fract_y
_atom_site_fract_z
Si Si1 0.157309 0.137252 0.698970
Si Si2 0.660235 0.354466 0.847054
Si Si3 0.933136 0.642235 0.166827
Si Si4 0.069653 0.389087 0.010315
Si Si5 0.430233 0.146129 0.701070
Si Si6 0.750000 0.500000 0.226589
Si Si7 0.571266 0.469234 0.410631
O O1 0.167981 0.250000 0.700704
O O2 0.114445 0.104497 0.771863
O O3 0.216570 0.075035 0.716536
O O4 0.118778 0.106672 0.622744
O O5 0.688962 0.250000 0.848175
O O6 0.618671 0.364418 0.924285
O O7 0.614254 0.358924 0.774044
O O8 0.707508 0.437162 0.830087
O O9 0.939735 0.750000 0.190982
O O10 0.000000 0.595811 0.170857
O O11 0.913668 0.643848 0.076861
O O12 0.000000 0.357298 0.028389
O O13 0.067586 0.500000 0.000000
O O14 0.500000 0.138704 0.728887
O O15 0.423234 0.250000 0.664471
O O16 0.419599 0.062426 0.641299
O O17 0.580387 0.500000 0.500000
O O18 0.500000 0.438847 0.401287
#
# Coordination Sequence:
#
# PCOD9502441 Si02
#       7
#    16  16  16  16  16   8  16
#     4  11  23  41  64  88 120 165 209 251 303 362
#     4  11  22  38  61  85 116 161 207 254 305 357
#     4   9  18  34  57  85 116 149 189 242 302 363
#     4  10  20  33  55  89 123 154 194 249 308 364
#     4   9  18  34  59  89 119 152 190 238 303 371
#     4  12  24  42  60  84 118 164 218 268 293 343
#     4  10  21  38  64  97 128 154 186 240 307 375
#
# _framework density 19.426791999999999
#
# number of rings (size 3 to 8) (size 9 to 14) (size 15 to 20)
#    0.000    1.846    1.538    2.769    0.000    3.077 
#    0.000    5.385    0.000    6.462    0.000    0.000 
#    0.000    0.000    0.000    0.000    0.000    0.000 
#
# Total GULP energy -290053.482064 kJ/mol
# GULP energy per Si atom -5577.951578 kJ/mol
# Density = 1.938258 g / cm^3
# Si number density = 19.426792 Si / 1000 Ang^3
#
#
#
# Elastic Constant Matrix: (Units=GPa)
#
#
# Indices 1 2 3 4 5 6 
#
# 1 63.6942 49.2342 45.6126 0.0000 0.0000 0.0000
# 2 49.2342 124.2309 27.5935 0.0000 0.0000 0.0000
# 3 45.6126 27.5935 78.8189 0.0000 0.0000 0.0000
# 4 0.0000 0.0000 0.0000 17.1147 0.0000 0.0000
# 5 0.0000 0.0000 0.0000 0.0000 15.3843 0.0000
# 6 0.0000 0.0000 0.0000 0.0000 0.0000 25.9590
#
#
#
# Elastic Compliance Matrix: (Units=1/GPa)
#
#
# Indices 1 2 3 4 5 6 
#
# 1 0.036180 -0.010505 -0.017260 0.000000 0.000000 0.000000
# 2 -0.010505 0.011778 0.001956 0.000000 0.000000 0.000000
# 3 -0.017260 0.001956 0.021991 0.000000 0.000000 0.000000
# 4 0.000000 0.000000 0.000000 0.058429 0.000000 0.000000
# 5 0.000000 0.000000 0.000000 0.000000 0.065001 0.000000
# 6 0.000000 0.000000 0.000000 0.000000 0.000000 0.038522
#
#
# Mechanical properties :
#
#
# Convention : Reuss Voigt Hill
#
# Bulk Modulus (GPa) = 54.55131 56.84721 55.69926
# Shear Modulus (GPa) = 17.26331 21.31184 19.28758
#
# Velocity S-wave (km/s) = 2.98423 3.31574 3.15434
# Velocity P-wave (km/s) = 6.32579 6.63209 6.48075
#
# Compressibility (1/GPa) = 0.01833137
#
# Stress axis : x y z
#
# Youngs Moduli (GPa) = 27.63933 84.90133 45.47325
#
# Poissons Ratio (x) = 0.89189 0.78487
# Poissons Ratio (y) = 0.29035 -0.08894
# Poissons Ratio (z) = 0.47705 -0.16605
#
# Static dielectric constant tensor:
#      x y z
#    x 1.734030 0.000000 0.000000 
#    y 0.000000 1.698030 0.000000 
#    z 0.000000 0.000000 1.648380 
# 
# From -- ./inp_files/34977.got.cif
#   From: 2010.05.17/outbox.cif.g08.bks.cpg/sg67_18_cif.got.tgz:34977.got - 2010.06.03 18:28:57.
