data_PCOD9502342
_publ_section_title
;
Structure prediction by ZEFSAII (Michael W. Deem and Ramdas Pophale) SiO2 
 PCOD9502342
Probable space group: C M M A
;
_chemical_formula_sum "Si O2"
_cell_formula_units_Z 104
_cell_length_a 7.763132
_cell_length_b 27.084854
_cell_length_c 22.496200
_cell_angle_alpha 90.000000
_cell_angle_beta 90.000000
_cell_angle_gamma 90.000000
_cell_volume 4730.125178
_symmetry_space_group_name_H-M "C M M A"
_symmetry_group_IT_number 67
_symmetry_cell_setting 'orthorhombic'
loop_
_space_group_symop_operation_xyz
x,y,z
-x,1/2-y,z
x,-y,-z
-x,1/2+y,-z
-x,-y,-z
x,1/2+y,-z
-x,y,z
x,1/2-y,z
1/2+x,1/2+y,z
1/2-x,-y,z
1/2+x,1/2-y,-z
1/2-x,y,-z
1/2-x,1/2-y,-z
1/2+x,y,-z
1/2-x,1/2+y,z
1/2+x,-y,z
loop_
_atom_site_type_symbol
_atom_site_label
_atom_site_fract_x
_atom_site_fract_y
_atom_site_fract_z
Si Si1 0.206433 0.162437 0.064399
Si Si2 0.202163 0.303409 0.807386
Si Si3 0.206815 0.554557 0.349702
Si Si4 0.706965 0.250000 0.429749
Si Si5 0.198251 0.554774 0.908432
Si Si6 0.292086 0.143331 0.430387
Si Si7 0.290133 0.412457 0.221145
O O1 0.280661 0.190221 0.121442
O O2 0.278493 0.105736 0.066998
O O3 0.000000 0.162262 0.071990
O O4 0.250000 0.183365 0.000000
O O5 0.276883 0.250000 0.789915
O O6 0.269649 0.355162 0.781422
O O7 0.000000 0.302408 0.791869
O O8 0.250000 0.500000 0.370996
O O9 0.273976 0.597696 0.392197
O O10 0.267784 0.562819 0.282211
O O11 0.000000 0.558876 0.347995
O O12 0.500000 0.250000 0.422813
O O13 0.750000 0.250000 0.500000
O O14 0.771237 0.303029 0.407574
O O15 0.250000 0.500000 0.927328
O O16 0.223597 0.560173 0.837428
O O17 0.000000 0.558337 0.923992
O O18 0.500000 0.143883 0.425845
O O19 0.250000 0.138283 0.500000
O O20 0.500000 0.413008 0.218019
#
# Coordination Sequence:
#
# PCOD9502342 Si02
#       7
#    16  16  16   8  16  16  16
#     4  10  21  35  51  73 101 133 168 206 249 300
#     4   9  18  34  55  77 101 130 164 206 255 304
#     4  10  21  35  51  75 106 138 174 214 257 307
#     4   8  14  28  50  72  96 128 164 206 251 296
#     4  10  20  33  51  74  98 129 167 207 253 301
#     4   9  18  33  52  76 104 136 174 214 259 308
#     4   9  18  34  53  74 101 131 167 209 252 304
#
# _framework density 21.986733000000001
#
# number of rings (size 3 to 8) (size 9 to 14) (size 15 to 20)
#    0.000    2.615    0.000    1.385    0.000    5.538 
#    1.385    3.077    0.000    0.000    0.000    0.000 
#    0.000    0.000    0.000    0.000    0.000    0.000 
#
# Total GULP energy -290146.903557 kJ/mol
# GULP energy per Si atom -5579.748145 kJ/mol
# Density = 2.193669 g / cm^3
# Si number density = 21.986733 Si / 1000 Ang^3
#
#
#
# Elastic Constant Matrix: (Units=GPa)
#
#
# Indices 1 2 3 4 5 6 
#
# 1 28.1200 -3.5900 -16.6818 0.0000 0.0000 0.0000
# 2 -3.5900 156.4547 26.9771 0.0000 0.0000 0.0000
# 3 -16.6818 26.9771 48.9242 0.0000 0.0000 0.0000
# 4 0.0000 0.0000 0.0000 59.7432 0.0000 0.0000
# 5 0.0000 0.0000 0.0000 0.0000 11.8506 0.0000
# 6 0.0000 0.0000 0.0000 0.0000 0.0000 22.9939
#
#
#
# Elastic Compliance Matrix: (Units=1/GPa)
#
#
# Indices 1 2 3 4 5 6 
#
# 1 0.045025 -0.001784 0.016336 0.000000 0.000000 0.000000
# 2 -0.001784 0.007134 -0.004542 0.000000 0.000000 0.000000
# 3 0.016336 -0.004542 0.028514 0.000000 0.000000 0.000000
# 4 0.000000 0.000000 0.000000 0.016738 0.000000 0.000000
# 5 0.000000 0.000000 0.000000 0.000000 0.084384 0.000000
# 6 0.000000 0.000000 0.000000 0.000000 0.000000 0.043490
#
#
# Mechanical properties :
#
#
# Convention : Reuss Voigt Hill
#
# Bulk Modulus (GPa) = 9.93106 27.43438 18.68272
# Shear Modulus (GPa) = 20.93550 34.03712 27.48631
#
# Velocity S-wave (km/s) = 3.08910 3.93883 3.53956
# Velocity P-wave (km/s) = 4.15332 5.76113 5.02198
#
# Compressibility (1/GPa) = 0.10069417
#
# Stress axis : x y z
#
# Youngs Moduli (GPa) = 22.20978 140.17718 35.07021
#
# Poissons Ratio (x) = 0.25002 -0.57290
# Poissons Ratio (y) = 0.03961 0.15928
# Poissons Ratio (z) = -0.36282 0.63666
#
# Static dielectric constant tensor:
#      x y z
#    x 1.848300 0.000000 0.000000 
#    y 0.000000 1.866060 0.000000 
#    z 0.000000 0.000000 1.764560 
# 
# From -- ./inp_files/39964.got.cif
#   From: 2010.05.17/outbox.cif.g08.bks.cpg/sg67_20_cif.got.tgz:39964.got - 2010.06.03 18:28:57.
