data_PCOD9502875
_publ_section_title
;
Structure prediction by ZEFSAII (Michael W. Deem and Ramdas Pophale) SiO2 
 PCOD9502875
Probable space group: C M M A
;
_chemical_formula_sum "Si O2"
_cell_formula_units_Z 80
_cell_length_a 22.822288
_cell_length_b 15.609149
_cell_length_c 11.491933
_cell_angle_alpha 90.000000
_cell_angle_beta 90.000000
_cell_angle_gamma 90.000000
_cell_volume 4093.845920
_symmetry_space_group_name_H-M "C M M A"
_symmetry_group_IT_number 67
_symmetry_cell_setting 'orthorhombic'
loop_
_space_group_symop_operation_xyz
x,y,z
-x,1/2-y,z
x,-y,-z
-x,1/2+y,-z
-x,-y,-z
x,1/2+y,-z
-x,y,z
x,1/2-y,z
1/2+x,1/2+y,z
1/2-x,-y,z
1/2+x,1/2-y,-z
1/2-x,y,-z
1/2-x,1/2-y,-z
1/2+x,y,-z
1/2-x,1/2+y,z
1/2+x,-y,z
loop_
_atom_site_type_symbol
_atom_site_label
_atom_site_fract_x
_atom_site_fract_y
_atom_site_fract_z
Si Si1 0.150147 0.649442 0.726436
Si Si2 0.611134 0.595663 0.528049
Si Si3 0.773376 0.348095 0.631582
Si Si4 0.930459 0.517777 0.862878
Si Si5 0.067049 0.341506 0.751420
O O1 0.148767 0.750000 0.757129
O O2 0.124711 0.638805 0.595210
O O3 0.219053 0.623518 0.711803
O O4 0.110898 0.592507 0.812504
O O5 0.590808 0.500000 0.500000
O O6 0.670094 0.593542 0.608857
O O7 0.568931 0.647690 0.612192
O O8 0.789807 0.250000 0.664022
O O9 0.750000 0.342312 0.500000
O O10 0.909738 0.429100 0.804392
O O11 0.000000 0.533850 0.834675
O O12 0.926567 0.500000 0.000000
O O13 0.093914 0.250000 0.784858
O O14 0.000000 0.339464 0.791128
#
# Coordination Sequence:
#
# PCOD9502875 Si02
#       5
#    16  16  16  16  16
#     4  10  20  35  55  85 119 151 187 234 289 348
#     4  11  19  32  56  87 119 152 189 230 290 352
#     4   8  16  30  49  77 113 145 179 218 268 339
#     4  10  22  40  59  82 111 146 199 253 291 340
#     4  10  21  37  56  79 111 151 189 233 296 359
#
# _framework density 19.541526999999999
#
# number of rings (size 3 to 8) (size 9 to 14) (size 15 to 20)
#    0.000    2.200    2.000    3.000    0.000    6.000 
#    0.000    2.000    0.000    2.400    0.000    4.200 
#    0.000    0.000    0.000    0.000    0.000    0.000 
#
# Total GULP energy -222675.164635 kJ/mol
# GULP energy per Si atom -5566.879116 kJ/mol
# Density = 1.949705 g / cm^3
# Si number density = 19.541527 Si / 1000 Ang^3
#
#
#
# Elastic Constant Matrix: (Units=GPa)
#
#
# Indices 1 2 3 4 5 6 
#
# 1 72.5070 28.2336 33.0328 0.0000 0.0000 0.0000
# 2 28.2336 109.4802 27.4746 0.0000 0.0000 0.0000
# 3 33.0328 27.4746 70.1037 0.0000 0.0000 0.0000
# 4 0.0000 0.0000 0.0000 0.7213 0.0000 0.0000
# 5 0.0000 0.0000 0.0000 0.0000 30.4064 0.0000
# 6 0.0000 0.0000 0.0000 0.0000 0.0000 2.8492
#
#
#
# Elastic Compliance Matrix: (Units=1/GPa)
#
#
# Indices 1 2 3 4 5 6 
#
# 1 0.018324 -0.002838 -0.007522 0.000000 0.000000 0.000000
# 2 -0.002838 0.010570 -0.002805 0.000000 0.000000 0.000000
# 3 -0.007522 -0.002805 0.018908 0.000000 0.000000 0.000000
# 4 0.000000 0.000000 0.000000 1.386452 0.000000 0.000000
# 5 0.000000 0.000000 0.000000 0.000000 0.032888 0.000000
# 6 0.000000 0.000000 0.000000 0.000000 0.000000 0.350978
#
#
# Mechanical properties :
#
#
# Convention : Reuss Voigt Hill
#
# Bulk Modulus (GPa) = 46.57262 47.73031 47.15146
# Shear Modulus (GPa) = 2.70036 17.68536 10.19286
#
# Velocity S-wave (km/s) = 1.17680 3.01161 2.28633
# Velocity P-wave (km/s) = 5.07256 6.04741 5.58131
#
# Compressibility (1/GPa) = 0.02147184
#
# Stress axis : x y z
#
# Youngs Moduli (GPa) = 54.57438 94.60821 52.88672
#
# Poissons Ratio (x) = 0.26848 0.39781
# Poissons Ratio (y) = 0.15487 0.14837
# Poissons Ratio (z) = 0.41050 0.26541
#
# Static dielectric constant tensor:
#      x y z
#    x 1.772690 0.000000 0.000000 
#    y 0.000000 1.716540 0.000000 
#    z 0.000000 0.000000 1.668930 
# 
# From -- ./inp_files/18239.got.cif
#   From: 2010.05.17/outbox.cif.g08.bks.cpg/sg67_10_cif.got.tgz:18239.got - 2010.06.03 18:28:57.
