data_PCOD9502894
_publ_section_title
;
Structure prediction by ZEFSAII (Michael W. Deem and Ramdas Pophale) SiO2 
 PCOD9502894
Probable space group: C M M A
;
_chemical_formula_sum "Si O2"
_cell_formula_units_Z 96
_cell_length_a 14.110329
_cell_length_b 16.855970
_cell_length_c 21.820654
_cell_angle_alpha 90.000000
_cell_angle_beta 90.000000
_cell_angle_gamma 90.000000
_cell_volume 5189.895970
_symmetry_space_group_name_H-M "C M M A"
_symmetry_group_IT_number 67
_symmetry_cell_setting 'orthorhombic'
loop_
_space_group_symop_operation_xyz
x,y,z
-x,1/2-y,z
x,-y,-z
-x,1/2+y,-z
-x,-y,-z
x,1/2+y,-z
-x,y,z
x,1/2-y,z
1/2+x,1/2+y,z
1/2-x,-y,z
1/2+x,1/2-y,-z
1/2-x,y,-z
1/2-x,1/2-y,-z
1/2+x,y,-z
1/2-x,1/2+y,z
1/2+x,-y,z
loop_
_atom_site_type_symbol
_atom_site_label
_atom_site_fract_x
_atom_site_fract_y
_atom_site_fract_z
Si Si1 0.609512 0.656195 0.982624
Si Si2 0.892952 0.344776 0.206637
Si Si3 0.109705 0.496054 0.430031
Si Si4 0.894015 0.839851 0.358369
Si Si5 0.289052 0.416517 0.683717
Si Si6 0.727380 0.092392 0.904782
O O1 0.500000 0.636061 0.972382
O O2 0.616196 0.750000 0.996578
O O3 0.676671 0.636739 0.925319
O O4 0.653328 0.609497 0.040170
O O5 0.887407 0.250000 0.209915
O O6 0.868346 0.381677 0.272382
O O7 0.818409 0.375864 0.157160
O O8 0.000000 0.366603 0.187993
O O9 0.142455 0.500000 0.500000
O O10 0.110352 0.586566 0.405280
O O11 0.168731 0.440944 0.383125
O O12 0.000000 0.468950 0.429553
O O13 0.887600 0.750000 0.383383
O O14 0.800497 0.857253 0.318703
O O15 0.000000 0.845838 0.329199
O O16 0.250000 0.500000 0.709181
O O17 0.750000 0.000000 0.900790
#
# Coordination Sequence:
#
# PCOD9502894 Si02
#       6
#    16  16  16  16  16  16
#     4  10  20  36  59  85 114 148 186 231 282 333
#     4  11  23  39  58  79 108 147 188 231 281 337
#     4   9  18  34  56  80 108 141 177 222 276 331
#     4   9  18  33  52  74 102 138 176 215 264 322
#     4  10  20  35  56  81 108 138 179 227 273 329
#     4  11  22  36  56  82 112 147 187 233 280 331
#
# _framework density 18.497481000000001
#
# number of rings (size 3 to 8) (size 9 to 14) (size 15 to 20)
#    0.000    2.000    0.000    5.000    0.000    7.000 
#    0.000    3.333    0.000    7.000    0.000    0.000 
#    0.000    0.000    0.000    0.000    0.000    0.000 
#
# Total GULP energy -267628.983127 kJ/mol
# GULP energy per Si atom -5575.603815 kJ/mol
# Density = 1.845538 g / cm^3
# Si number density = 18.497481 Si / 1000 Ang^3
#
#
#
# Elastic Constant Matrix: (Units=GPa)
#
#
# Indices 1 2 3 4 5 6 
#
# 1 137.4835 43.2684 43.8172 0.0000 0.0000 0.0000
# 2 43.2684 79.1097 28.8383 0.0000 0.0000 0.0000
# 3 43.8172 28.8383 86.0890 0.0000 0.0000 0.0000
# 4 0.0000 0.0000 0.0000 3.9068 0.0000 0.0000
# 5 0.0000 0.0000 0.0000 0.0000 20.7466 0.0000
# 6 0.0000 0.0000 0.0000 0.0000 0.0000 -32.5843
#
#
#
# Elastic Compliance Matrix: (Units=1/GPa)
#
#
# Indices 1 2 3 4 5 6 
#
# 1 0.009670 -0.003981 -0.003588 0.000000 0.000000 0.000000
# 2 -0.003981 0.016038 -0.003346 0.000000 0.000000 0.000000
# 3 -0.003588 -0.003346 0.014563 0.000000 0.000000 0.000000
# 4 0.000000 0.000000 0.000000 0.255964 0.000000 0.000000
# 5 0.000000 0.000000 0.000000 0.000000 0.048201 0.000000
# 6 0.000000 0.000000 0.000000 0.000000 0.000000 -0.030690
#
#
# Mechanical properties :
#
#
# Convention : Reuss Voigt Hill
#
# Bulk Modulus (GPa) = 54.22926 59.39225 56.81075
# Shear Modulus (GPa) = 14.63169 10.86437 12.74803
#
# Velocity S-wave (km/s) = 2.81554 2.42615 2.62806
# Velocity P-wave (km/s) = 6.32064 6.32663 6.32363
#
# Compressibility (1/GPa) = 0.01844023
#
# Stress axis : x y z
#
# Youngs Moduli (GPa) = 103.41173 62.35265 68.66642
#
# Poissons Ratio (x) = 0.24822 0.24640
# Poissons Ratio (y) = 0.41167 0.22977
# Poissons Ratio (z) = 0.37107 0.20864
#
# Static dielectric constant tensor:
#      x y z
#    x 1.682160 0.000000 0.000000 
#    y 0.000000 1.616570 0.000000 
#    z 0.000000 0.000000 1.630830 
# 
# From -- ./inp_files/38457.got.cif
#   From: 2010.05.17/outbox.cif.g08.bks.cpg/sg67_20_cif.got.tgz:38457.got - 2010.06.03 18:28:57.
