data_PCOD9502285
_publ_section_title
;
Structure prediction by ZEFSAII (Michael W. Deem and Ramdas Pophale) SiO2 
 PCOD9502285
Probable space group: C M M A
;
_chemical_formula_sum "Si O2"
_cell_formula_units_Z 96
_cell_length_a 28.102151
_cell_length_b 8.717946
_cell_length_c 24.299537
_cell_angle_alpha 90.000000
_cell_angle_beta 90.000000
_cell_angle_gamma 90.000000
_cell_volume 5953.217316
_symmetry_space_group_name_H-M "C M M A"
_symmetry_group_IT_number 67
_symmetry_cell_setting 'orthorhombic'
loop_
_space_group_symop_operation_xyz
x,y,z
-x,1/2-y,z
x,-y,-z
-x,1/2+y,-z
-x,-y,-z
x,1/2+y,-z
-x,y,z
x,1/2-y,z
1/2+x,1/2+y,z
1/2-x,-y,z
1/2+x,1/2-y,-z
1/2-x,y,-z
1/2-x,1/2-y,-z
1/2+x,y,-z
1/2-x,1/2+y,z
1/2+x,-y,z
loop_
_atom_site_type_symbol
_atom_site_label
_atom_site_fract_x
_atom_site_fract_y
_atom_site_fract_z
Si Si1 0.555942 0.066511 0.559640
Si Si2 0.445042 0.933859 0.224422
Si Si3 0.197510 0.933516 0.940111
Si Si4 0.801707 0.933802 0.273221
Si Si5 0.356575 0.934256 0.837576
Si Si6 0.102790 0.934438 0.332499
O O1 0.500000 0.028896 0.568866
O O2 0.560575 0.250000 0.559406
O O3 0.569128 0.000000 0.500000
O O4 0.586343 0.995370 0.608779
O O5 0.500000 0.970995 0.213062
O O6 0.439440 0.750000 0.223691
O O7 0.408309 0.009229 0.181786
O O8 0.430339 0.995884 0.284584
O O9 0.199891 0.750000 0.942381
O O10 0.250000 0.000000 0.927050
O O11 0.161709 0.989487 0.893219
O O12 0.184490 0.000000 0.000000
O O13 0.798766 0.750000 0.273840
O O14 0.821115 0.978653 0.212679
O O15 0.843255 0.978984 0.315851
O O16 0.750000 0.000000 0.284342
O O17 0.356134 0.750000 0.842350
O O18 0.099426 0.750000 0.330403
#
# Coordination Sequence:
#
# PCOD9502285 Si02
#       6
#    16  16  16  16  16  16
#     4  10  20  33  50  73  99 128 162 199 242 292
#     4  10  20  33  50  74 102 132 167 205 246 294
#     4  11  21  34  52  75 103 134 168 206 249 296
#     4   9  19  32  48  71  98 128 161 198 240 288
#     4  10  20  34  51  74 102 132 167 205 249 298
#     4  10  20  33  49  72 101 131 164 202 245 292
#
# _framework density 16.125734000000001
#
# number of rings (size 3 to 8) (size 9 to 14) (size 15 to 20)
#    0.000    2.000    0.000    6.000    0.000    9.667 
#    0.000    0.000    0.000    1.000    0.000    3.500 
#    0.000    0.000    0.000    0.000    0.000    0.000 
#
# Total GULP energy -267970.135046 kJ/mol
# GULP energy per Si atom -5582.711147 kJ/mol
# Density = 1.608903 g / cm^3
# Si number density = 16.125734 Si / 1000 Ang^3
#
#
#
# Elastic Constant Matrix: (Units=GPa)
#
#
# Indices 1 2 3 4 5 6 
#
# 1 114.4634 51.1128 82.3679 0.0000 0.0000 0.0000
# 2 51.1128 82.1529 56.0212 0.0000 0.0000 0.0000
# 3 82.3679 56.0212 133.9649 0.0000 0.0000 0.0000
# 4 0.0000 0.0000 0.0000 30.9659 0.0000 0.0000
# 5 0.0000 0.0000 0.0000 0.0000 19.2598 0.0000
# 6 0.0000 0.0000 0.0000 0.0000 0.0000 28.3164
#
#
#
# Elastic Compliance Matrix: (Units=1/GPa)
#
#
# Indices 1 2 3 4 5 6 
#
# 1 0.016924 -0.004803 -0.008397 0.000000 0.000000 0.000000
# 2 -0.004803 0.018392 -0.004738 0.000000 0.000000 0.000000
# 3 -0.008397 -0.004738 0.014609 0.000000 0.000000 0.000000
# 4 0.000000 0.000000 0.000000 0.032294 0.000000 0.000000
# 5 0.000000 0.000000 0.000000 0.000000 0.051922 0.000000
# 6 0.000000 0.000000 0.000000 0.000000 0.000000 0.035315
#
#
# Mechanical properties :
#
#
# Convention : Reuss Voigt Hill
#
# Bulk Modulus (GPa) = 71.18358 78.84278 75.01318
# Shear Modulus (GPa) = 23.80811 25.11372 24.46091
#
# Velocity S-wave (km/s) = 3.84657 3.95063 3.89895
# Velocity P-wave (km/s) = 7.99793 8.35516 8.17849
#
# Compressibility (1/GPa) = 0.01404818
#
# Stress axis : x y z
#
# Youngs Moduli (GPa) = 59.08874 54.37272 68.45326
#
# Poissons Ratio (x) = 0.26118 0.57479
# Poissons Ratio (y) = 0.28383 0.32430
# Poissons Ratio (z) = 0.49615 0.25759
#
# Static dielectric constant tensor:
#      x y z
#    x 1.528850 0.000000 0.000000 
#    y 0.000000 1.539250 0.000000 
#    z 0.000000 0.000000 1.518510 
# 
# From -- ./inp_files/37124.got.cif
#   From: 2010.05.17/outbox.cif.g08.bks.cpg/sg67_19_cif.got.tgz:37124.got - 2010.06.03 18:28:57.
