data_PCOD9502988
_publ_section_title
;
Structure prediction by ZEFSAII (Michael W. Deem and Ramdas Pophale) SiO2 
 PCOD9502988
Probable space group: C M M A
;
_chemical_formula_sum "Si O2"
_cell_formula_units_Z 92
_cell_length_a 23.826077
_cell_length_b 8.900332
_cell_length_c 25.252535
_cell_angle_alpha 90.000000
_cell_angle_beta 90.000000
_cell_angle_gamma 90.000000
_cell_volume 5355.052460
_symmetry_space_group_name_H-M "C M M A"
_symmetry_group_IT_number 67
_symmetry_cell_setting 'orthorhombic'
loop_
_space_group_symop_operation_xyz
x,y,z
-x,1/2-y,z
x,-y,-z
-x,1/2+y,-z
-x,-y,-z
x,1/2+y,-z
-x,y,z
x,1/2-y,z
1/2+x,1/2+y,z
1/2-x,-y,z
1/2+x,1/2-y,-z
1/2-x,y,-z
1/2-x,1/2-y,-z
1/2+x,y,-z
1/2-x,1/2+y,z
1/2+x,-y,z
loop_
_atom_site_type_symbol
_atom_site_label
_atom_site_fract_x
_atom_site_fract_y
_atom_site_fract_z
Si Si1 0.250000 0.500000 0.500000
Si Si2 0.136282 0.421451 0.552435
Si Si3 0.434832 0.428980 0.643253
Si Si4 0.601211 0.568243 0.872233
Si Si5 0.932978 0.423929 0.754585
Si Si6 0.688115 0.430753 0.946497
Si Si7 0.500000 0.431748 0.940883
O O1 0.203840 0.425884 0.539850
O O2 0.111786 0.500000 0.500000
O O3 0.119126 0.250000 0.555470
O O4 0.110812 0.504566 0.602907
O O5 0.500000 0.479977 0.632851
O O6 0.434374 0.250000 0.639119
O O7 0.420346 0.478935 0.702978
O O8 0.599613 0.750000 0.877628
O O9 0.593917 0.531630 0.810337
O O10 0.656745 0.495883 0.895991
O O11 0.552608 0.493929 0.907613
O O12 0.918374 0.250000 0.743442
O O13 0.000000 0.430908 0.763158
O O14 0.688375 0.250000 0.948983
O O15 0.750000 0.500000 0.945281
O O16 0.660749 0.500000 0.000000
O O17 0.500000 0.250000 0.943206
O O18 0.500000 0.500000 0.000000
#
# Coordination Sequence:
#
# PCOD9502988 Si02
#       7
#     4  16  16  16  16  16   8
#     4   8  22  36  60  84 110 148 186 230 272 332
#     4  10  20  35  58  83 112 147 184 227 274 327
#     4  10  21  35  54  83 116 148 185 228 271 324
#     4  11  21  37  58  82 111 145 183 229 279 337
#     4   9  18  35  57  80 109 148 186 223 272 328
#     4  11  22  38  58  81 106 140 180 226 277 333
#     4  12  24  36  52  80 116 150 185 230 281 340
#
# _framework density 17.180036999999999
#
# number of rings (size 3 to 8) (size 9 to 14) (size 15 to 20)
#    0.522    1.217    0.870    5.217    0.000    2.783 
#    0.000    0.000    1.913    0.000    0.000    0.000 
#    0.000    0.000    0.000    0.000    0.000    0.000 
#
# Total GULP energy -256235.939785 kJ/mol
# GULP energy per Si atom -5570.346517 kJ/mol
# Density = 1.714093 g / cm^3
# Si number density = 17.180037 Si / 1000 Ang^3
#
#
#
# Elastic Constant Matrix: (Units=GPa)
#
#
# Indices 1 2 3 4 5 6 
#
# 1 66.3432 37.5124 56.7600 0.0000 0.0000 0.0000
# 2 37.5124 121.9441 70.9297 0.0000 0.0000 0.0000
# 3 56.7600 70.9297 140.9029 0.0000 0.0000 0.0000
# 4 0.0000 0.0000 0.0000 30.6530 0.0000 0.0000
# 5 0.0000 0.0000 0.0000 0.0000 17.9416 0.0000
# 6 0.0000 0.0000 0.0000 0.0000 0.0000 20.5144
#
#
#
# Elastic Compliance Matrix: (Units=1/GPa)
#
#
# Indices 1 2 3 4 5 6 
#
# 1 0.023501 -0.002436 -0.008240 0.000000 0.000000 0.000000
# 2 -0.002436 0.011848 -0.004983 0.000000 0.000000 0.000000
# 3 -0.008240 -0.004983 0.012925 0.000000 0.000000 0.000000
# 4 0.000000 0.000000 0.000000 0.032623 0.000000 0.000000
# 5 0.000000 0.000000 0.000000 0.000000 0.055736 0.000000
# 6 0.000000 0.000000 0.000000 0.000000 0.000000 0.048746
#
#
# Mechanical properties :
#
#
# Convention : Reuss Voigt Hill
#
# Bulk Modulus (GPa) = 58.98037 73.28826 66.13431
# Shear Modulus (GPa) = 22.48698 24.75433 23.62065
#
# Velocity S-wave (km/s) = 3.62180 3.80001 3.71197
# Velocity P-wave (km/s) = 7.20383 7.87432 7.54653
#
# Compressibility (1/GPa) = 0.01695479
#
# Stress axis : x y z
#
# Youngs Moduli (GPa) = 42.55180 84.40038 77.36936
#
# Poissons Ratio (x) = 0.20561 0.63756
# Poissons Ratio (y) = 0.10366 0.38553
# Poissons Ratio (z) = 0.35065 0.42057
#
# Static dielectric constant tensor:
#      x y z
#    x 1.008620 0.000000 0.000000 
#    y 0.000000 1.586380 0.000000 
#    z 0.000000 0.000000 1.582900 
# 
# From -- ./inp_files/39926.got.cif
#   From: 2010.05.17/outbox.cif.g08.bks.cpg/sg67_20_cif.got.tgz:39926.got - 2010.06.03 18:28:57.
