data_PCOD9502916
_publ_section_title
;
Structure prediction by ZEFSAII (Michael W. Deem and Ramdas Pophale) SiO2 
 PCOD9502916
Probable space group: C M M A
;
_chemical_formula_sum "Si O2"
_cell_formula_units_Z 80
_cell_length_a 28.886574
_cell_length_b 15.746124
_cell_length_c 8.775411
_cell_angle_alpha 90.000000
_cell_angle_beta 90.000000
_cell_angle_gamma 90.000000
_cell_volume 3991.509525
_symmetry_space_group_name_H-M "C M M A"
_symmetry_group_IT_number 67
_symmetry_cell_setting 'orthorhombic'
loop_
_space_group_symop_operation_xyz
x,y,z
-x,1/2-y,z
x,-y,-z
-x,1/2+y,-z
-x,-y,-z
x,1/2+y,-z
-x,y,z
x,1/2-y,z
1/2+x,1/2+y,z
1/2-x,-y,z
1/2+x,1/2-y,-z
1/2-x,y,-z
1/2-x,1/2-y,-z
1/2+x,y,-z
1/2-x,1/2+y,z
1/2+x,-y,z
loop_
_atom_site_type_symbol
_atom_site_label
_atom_site_fract_x
_atom_site_fract_y
_atom_site_fract_z
Si Si1 0.125937 0.085464 0.401149
Si Si2 0.094184 0.346098 0.702149
Si Si3 0.210626 0.353014 0.211721
Si Si4 0.189264 0.852923 0.134470
Si Si5 0.947413 0.990016 0.821137
O O1 0.105601 0.151258 0.523244
O O2 0.175101 0.111815 0.333794
O O3 0.130041 0.000000 0.500000
O O4 0.089606 0.068239 0.265704
O O5 0.083081 0.250000 0.749867
O O6 0.141330 0.376222 0.787636
O O7 0.056976 0.416721 0.745379
O O8 0.209573 0.250000 0.218922
O O9 0.264231 0.380974 0.221950
O O10 0.193873 0.378854 0.041728
O O11 0.190545 0.750000 0.134952
O O12 0.000000 0.958450 0.804142
O O13 0.937191 0.000000 0.000000
#
# Coordination Sequence:
#
# PCOD9502916 Si02
#       5
#    16  16  16  16  16
#     4  10  21  34  52  78 108 142 176 215 268 322
#     4  10  20  35  56  83 112 141 177 219 265 319
#     4   9  16  31  54  77 105 142 182 218 255 304
#     4   8  16  30  52  80 106 138 177 218 261 303
#     4  10  22  41  61  78 102 139 179 222 274 323
#
# _framework density 20.042542000000001
#
# number of rings (size 3 to 8) (size 9 to 14) (size 15 to 20)
#    0.000    2.600    0.000    3.000    0.000    4.800 
#    0.000   11.000    0.000   15.000    0.000    0.000 
#    0.000    0.000    0.000    0.000    0.000    0.000 
#
# Total GULP energy -223248.545524 kJ/mol
# GULP energy per Si atom -5581.213638 kJ/mol
# Density = 1.999692 g / cm^3
# Si number density = 20.042542 Si / 1000 Ang^3
#
#
#
# Elastic Constant Matrix: (Units=GPa)
#
#
# Indices 1 2 3 4 5 6 
#
# 1 58.8349 -4.1682 20.7561 0.0000 0.0000 0.0000
# 2 -4.1682 26.7210 -5.5176 0.0000 0.0000 0.0000
# 3 20.7561 -5.5176 56.3724 0.0000 0.0000 0.0000
# 4 0.0000 0.0000 0.0000 15.8212 0.0000 0.0000
# 5 0.0000 0.0000 0.0000 0.0000 11.7439 0.0000
# 6 0.0000 0.0000 0.0000 0.0000 0.0000 22.8685
#
#
#
# Elastic Compliance Matrix: (Units=1/GPa)
#
#
# Indices 1 2 3 4 5 6 
#
# 1 0.019601 0.001600 -0.007060 0.000000 0.000000 0.000000
# 2 0.001600 0.038326 0.003162 0.000000 0.000000 0.000000
# 3 -0.007060 0.003162 0.020648 0.000000 0.000000 0.000000
# 4 0.000000 0.000000 0.000000 0.063207 0.000000 0.000000
# 5 0.000000 0.000000 0.000000 0.000000 0.085151 0.000000
# 6 0.000000 0.000000 0.000000 0.000000 0.000000 0.043728
#
#
# Mechanical properties :
#
#
# Convention : Reuss Voigt Hill
#
# Bulk Modulus (GPa) = 13.51741 18.22985 15.87363
# Shear Modulus (GPa) = 16.67127 18.81058 17.74092
#
# Velocity S-wave (km/s) = 2.88721 3.06687 2.97840
# Velocity P-wave (km/s) = 4.22773 4.65363 4.44578
#
# Compressibility (1/GPa) = 0.07397869
#
# Stress axis : x y z
#
# Youngs Moduli (GPa) = 51.01827 26.09173 48.43013
#
# Poissons Ratio (x) = -0.04174 0.34193
# Poissons Ratio (y) = -0.08161 -0.15315
# Poissons Ratio (z) = 0.36021 -0.08251
#
# Static dielectric constant tensor:
#      x y z
#    x 1.687070 0.000000 0.000000 
#    y 0.000000 1.732740 0.000000 
#    z 0.000000 0.000000 1.707780 
# 
# From -- ./inp_files/9897.got.cif
#   From: 2010.05.17/outbox.cif.g08.bks.cpg/sg67_5_cif.got.tgz:9897.got - 2010.06.03 18:28:57.
