data_PCOD9502288
_publ_section_title
;
Structure prediction by ZEFSAII (Michael W. Deem and Ramdas Pophale) SiO2 
 PCOD9502288
Probable space group: C M M A
;
_chemical_formula_sum "Si O2"
_cell_formula_units_Z 96
_cell_length_a 24.191516
_cell_length_b 8.601584
_cell_length_c 26.637670
_cell_angle_alpha 90.000000
_cell_angle_beta 90.000000
_cell_angle_gamma 90.000000
_cell_volume 5542.909071
_symmetry_space_group_name_H-M "C M M A"
_symmetry_group_IT_number 67
_symmetry_cell_setting 'orthorhombic'
loop_
_space_group_symop_operation_xyz
x,y,z
-x,1/2-y,z
x,-y,-z
-x,1/2+y,-z
-x,-y,-z
x,1/2+y,-z
-x,y,z
x,1/2-y,z
1/2+x,1/2+y,z
1/2-x,-y,z
1/2+x,1/2-y,-z
1/2-x,y,-z
1/2-x,1/2-y,-z
1/2+x,y,-z
1/2-x,1/2+y,z
1/2+x,-y,z
loop_
_atom_site_type_symbol
_atom_site_label
_atom_site_fract_x
_atom_site_fract_y
_atom_site_fract_z
Si Si1 0.000000 0.439078 0.711576
Si Si2 0.187996 0.935891 0.648143
Si Si3 0.119185 0.562813 0.445310
Si Si4 0.687355 0.435538 0.948932
Si Si5 0.687310 0.436688 0.837653
Si Si6 0.000000 0.061127 0.595252
Si Si7 0.379319 0.937053 0.743510
O O1 0.056774 0.487297 0.737983
O O2 0.000000 0.250000 0.710607
O O3 0.000000 0.490440 0.653331
O O4 0.188622 0.750000 0.648376
O O5 0.250000 0.000000 0.651184
O O6 0.158705 0.997740 0.597882
O O7 0.153670 0.997519 0.695750
O O8 0.134187 0.500000 0.500000
O O9 0.121268 0.750000 0.444699
O O10 0.056340 0.512203 0.431847
O O11 0.689260 0.250000 0.952523
O O12 0.750000 0.500000 0.948314
O O13 0.665414 0.478166 0.893664
O O14 0.660537 0.500000 0.000000
O O15 0.689442 0.250000 0.834015
O O16 0.750000 0.500000 0.832526
O O17 0.649491 0.504120 0.793953
O O18 0.000000 0.250000 0.595720
O O19 0.377085 0.750000 0.741767
#
# Coordination Sequence:
#
# PCOD9502288 Si02
#       7
#     8  16  16  16  16   8  16
#     4   9  18  35  59  83 105 136 173 214 265 316
#     4  12  25  41  59  81 108 142 179 217 263 317
#     4  11  22  39  61  86 113 142 175 215 261 313
#     4   9  16  26  43  67 101 140 179 220 261 308
#     4  10  20  33  49  76 111 146 182 221 265 314
#     4   9  17  35  61  85 112 139 171 215 262 314
#     4  11  21  37  59  81 107 140 177 219 265 317
#
# _framework density 17.319426
#
# number of rings (size 3 to 8) (size 9 to 14) (size 15 to 20)
#    0.000    1.667    1.667    4.750    0.000    2.333 
#    0.000    5.417    0.000    0.000    0.000    0.583 
#    0.000    0.000    0.000    0.000    0.000    0.000 
#
# Total GULP energy -267970.422015 kJ/mol
# GULP energy per Si atom -5582.717125 kJ/mol
# Density = 1.728001 g / cm^3
# Si number density = 17.319426 Si / 1000 Ang^3
#
#
#
# Elastic Constant Matrix: (Units=GPa)
#
#
# Indices 1 2 3 4 5 6 
#
# 1 120.6583 40.7103 80.9916 0.0000 0.0000 0.0000
# 2 40.7103 83.2716 58.0981 0.0000 0.0000 0.0000
# 3 80.9916 58.0981 194.3392 0.0000 0.0000 0.0000
# 4 0.0000 0.0000 0.0000 31.0204 0.0000 0.0000
# 5 0.0000 0.0000 0.0000 0.0000 -170.1387 0.0000
# 6 0.0000 0.0000 0.0000 0.0000 0.0000 16.8303
#
#
#
# Elastic Compliance Matrix: (Units=1/GPa)
#
#
# Indices 1 2 3 4 5 6 
#
# 1 0.012081 -0.003024 -0.004131 0.000000 0.000000 0.000000
# 2 -0.003024 0.015931 -0.003502 0.000000 0.000000 0.000000
# 3 -0.004131 -0.003502 0.007914 0.000000 0.000000 0.000000
# 4 0.000000 0.000000 0.000000 0.032237 0.000000 0.000000
# 5 0.000000 0.000000 0.000000 0.000000 -0.005878 0.000000
# 6 0.000000 0.000000 0.000000 0.000000 0.000000 0.059417
#
#
# Mechanical properties :
#
#
# Convention : Reuss Voigt Hill
#
# Bulk Modulus (GPa) = 68.43841 84.20768 76.32305
# Shear Modulus (GPa) = 33.80964 -9.89301 11.95832
#
# Velocity S-wave (km/s) = 4.42308 -2.39259 2.63051
# Velocity P-wave (km/s) = 8.10469 6.41040 7.30682
#
# Compressibility (1/GPa) = 0.01461168
#
# Stress axis : x y z
#
# Youngs Moduli (GPa) = 82.77488 62.77117 126.35672
#
# Poissons Ratio (x) = 0.18984 0.52194
# Poissons Ratio (y) = 0.25033 0.44253
# Poissons Ratio (z) = 0.34192 0.21984
#
# Static dielectric constant tensor:
#      x y z
#    x 1.564240 0.000000 0.000000 
#    y 0.000000 1.587540 0.000000 
#    z 0.000000 0.000000 1.600670 
# 
# From -- ./inp_files/42571.got.cif
#   From: 2010.05.17/outbox.cif.g08.bks.cpg/sg67_22_cif.got.tgz:42571.got - 2010.06.03 18:28:57.
