data_PCOD9502829
_publ_section_title
;
Structure prediction by ZEFSAII (Michael W. Deem and Ramdas Pophale) SiO2 
 PCOD9502829
Probable space group: C M M A
;
_chemical_formula_sum "Si O2"
_cell_formula_units_Z 80
_cell_length_a 14.378608
_cell_length_b 10.149221
_cell_length_c 24.945969
_cell_angle_alpha 90.000000
_cell_angle_beta 90.000000
_cell_angle_gamma 90.000000
_cell_volume 3640.406923
_symmetry_space_group_name_H-M "C M M A"
_symmetry_group_IT_number 67
_symmetry_cell_setting 'orthorhombic'
loop_
_space_group_symop_operation_xyz
x,y,z
-x,1/2-y,z
x,-y,-z
-x,1/2+y,-z
-x,-y,-z
x,1/2+y,-z
-x,y,z
x,1/2-y,z
1/2+x,1/2+y,z
1/2-x,-y,z
1/2+x,1/2-y,-z
1/2-x,y,-z
1/2-x,1/2-y,-z
1/2+x,y,-z
1/2-x,1/2+y,z
1/2+x,-y,z
loop_
_atom_site_type_symbol
_atom_site_label
_atom_site_fract_x
_atom_site_fract_y
_atom_site_fract_z
Si Si1 0.613499 0.473771 0.374420
Si Si2 0.613472 0.750000 0.543043
Si Si3 0.844671 0.587734 0.952901
Si Si4 0.891096 0.393503 0.169502
Si Si5 0.886329 0.250000 0.419939
Si Si6 0.113774 0.897072 0.255030
O O1 0.500000 0.470604 0.373774
O O2 0.641598 0.375834 0.421974
O O3 0.643458 0.619811 0.389242
O O4 0.643690 0.432384 0.315252
O O5 0.500000 0.750000 0.541092
O O6 0.644569 0.750000 0.481704
O O7 0.837180 0.750000 0.964096
O O8 0.750000 0.500000 0.947208
O O9 0.886517 0.577856 0.893734
O O10 0.892593 0.500000 0.000000
O O11 0.847376 0.250000 0.177990
O O12 0.854260 0.502909 0.209503
O O13 0.000000 0.383852 0.182724
O O14 0.000000 0.250000 0.420658
O O15 0.143358 0.750000 0.242024
O O16 0.000000 0.897845 0.255786
#
# Coordination Sequence:
#
# PCOD9502829 Si02
#       6
#    16   8  16  16   8  16
#     4   9  15  22  31  45  66  97 139 185 230 273
#     4   9  14  22  30  40  64  94 134 187 230 270
#     4  10  20  35  55  77 101 130 161 193 232 280
#     4   9  19  33  49  71  98 126 160 201 238 276
#     4   9  16  20  28  44  62  94 138 183 230 274
#     4   9  16  26  39  56  80 112 150 191 235 280
#
# _framework density 21.975565
#
# number of rings (size 3 to 8) (size 9 to 14) (size 15 to 20)
#    0.000    2.800    1.000    1.800    1.400    4.400 
#    0.000    0.000    0.000    0.000    0.000    0.000 
#    0.000    0.000    0.000    0.000    0.000    6.000 
#
# Total GULP energy -223037.159476 kJ/mol
# GULP energy per Si atom -5575.928987 kJ/mol
# Density = 2.192555 g / cm^3
# Si number density = 21.975565 Si / 1000 Ang^3
#
#
#
# Elastic Constant Matrix: (Units=GPa)
#
#
# Indices 1 2 3 4 5 6 
#
# 1 61.6711 0.7504 -5.1734 0.0000 0.0000 0.0000
# 2 0.7504 208.8016 106.3230 0.0000 0.0000 0.0000
# 3 -5.1734 106.3230 157.2526 0.0000 0.0000 0.0000
# 4 0.0000 0.0000 0.0000 67.8399 0.0000 0.0000
# 5 0.0000 0.0000 0.0000 0.0000 -97.7884 0.0000
# 6 0.0000 0.0000 0.0000 0.0000 0.0000 -10.4216
#
#
#
# Elastic Compliance Matrix: (Units=1/GPa)
#
#
# Indices 1 2 3 4 5 6 
#
# 1 0.016295 -0.000506 0.000878 0.000000 0.000000 0.000000
# 2 -0.000506 0.007320 -0.004966 0.000000 0.000000 0.000000
# 3 0.000878 -0.004966 0.009745 0.000000 0.000000 0.000000
# 4 0.000000 0.000000 0.000000 0.014741 0.000000 0.000000
# 5 0.000000 0.000000 0.000000 0.000000 -0.010226 0.000000
# 6 0.000000 0.000000 0.000000 0.000000 0.000000 -0.095954
#
#
# Mechanical properties :
#
#
# Convention : Reuss Voigt Hill
#
# Bulk Modulus (GPa) = 41.36794 70.16949 55.76871
# Shear Modulus (GPa) = -122.44244 13.64765 -54.39739
#
# Velocity S-wave (km/s) = -7.47252 2.49477 -4.98069
# Velocity P-wave (km/s) = 7.45560 6.34811 2.76473
#
# Compressibility (1/GPa) = 0.02417331
#
# Stress axis : x y z
#
# Youngs Moduli (GPa) = 61.36912 136.62015 102.61186
#
# Poissons Ratio (x) = 0.06908 -0.09009
# Poissons Ratio (y) = 0.03103 0.50953
# Poissons Ratio (z) = -0.05388 0.67840
#
# Static dielectric constant tensor:
#      x y z
#    x 1.906750 0.000000 0.000000 
#    y 0.000000 4.607950 0.000000 
#    z 0.000000 0.000000 1.763060 
# 
# From -- ./inp_files/42542.got.cif
#   From: 2010.05.17/outbox.cif.g08.bks.cpg/sg67_22_cif.got.tgz:42542.got - 2010.06.03 18:28:57.
