data_PCOD9502035
_publ_section_title
;
Structure prediction by ZEFSAII (Michael W. Deem and Ramdas Pophale) SiO2 
 PCOD9502035
Probable space group: C M M A
;
_chemical_formula_sum "Si O2"
_cell_formula_units_Z 112
_cell_length_a 29.891932
_cell_length_b 17.683621
_cell_length_c 11.400523
_cell_angle_alpha 90.000000
_cell_angle_beta 90.000000
_cell_angle_gamma 90.000000
_cell_volume 6026.289056
_symmetry_space_group_name_H-M "C M M A"
_symmetry_group_IT_number 67
_symmetry_cell_setting 'orthorhombic'
loop_
_space_group_symop_operation_xyz
x,y,z
-x,1/2-y,z
x,-y,-z
-x,1/2+y,-z
-x,-y,-z
x,1/2+y,-z
-x,y,z
x,1/2-y,z
1/2+x,1/2+y,z
1/2-x,-y,z
1/2+x,1/2-y,-z
1/2-x,y,-z
1/2-x,1/2-y,-z
1/2+x,y,-z
1/2-x,1/2+y,z
1/2+x,-y,z
loop_
_atom_site_type_symbol
_atom_site_label
_atom_site_fract_x
_atom_site_fract_y
_atom_site_fract_z
Si Si1 0.345101 0.412943 0.831492
Si Si2 0.050827 0.582296 0.440405
Si Si3 0.753122 0.841740 0.747393
Si Si4 0.620426 0.069486 0.248646
Si Si5 0.376727 0.839021 0.394529
Si Si6 0.169506 0.837221 0.079683
Si Si7 0.694333 0.917988 0.551260
O O1 0.295537 0.393046 0.781454
O O2 0.363998 0.497873 0.827990
O O3 0.377065 0.370583 0.737705
O O4 0.341144 0.383345 0.963176
O O5 0.050866 0.500000 0.500000
O O6 0.072816 0.572530 0.311813
O O7 0.083021 0.631814 0.523536
O O8 0.000000 0.610528 0.435178
O O9 0.762140 0.750000 0.741016
O O10 0.715872 0.853170 0.850419
O O11 0.731605 0.873567 0.626532
O O12 0.631413 0.143737 0.174486
O O13 0.655124 0.064968 0.355817
O O14 0.376744 0.750000 0.391527
O O15 0.330728 0.867529 0.454853
O O16 0.170882 0.750000 0.046165
O O17 0.705857 0.000000 0.500000
#
# Coordination Sequence:
#
# PCOD9502035 Si02
#       7
#    16  16  16  16  16  16  16
#     4  12  21  37  56  81 116 156 201 244 289 345
#     4  10  20  40  66  90 116 144 182 233 290 357
#     4  10  22  37  55  80 112 157 209 251 292 334
#     4  10  20  38  60  86 110 148 194 235 291 353
#     4  11  21  35  57  86 120 153 190 234 296 358
#     4  10  22  38  58  81 114 156 201 250 288 331
#     4  10  19  38  53  77 116 156 198 244 289 338
#
# _framework density 18.585235000000001
#
# number of rings (size 3 to 8) (size 9 to 14) (size 15 to 20)
#    0.000    1.571    2.857    3.429    0.000    7.714 
#    5.143    4.286    0.000    2.571    0.000    0.000 
#    0.000    0.000    0.000    0.000    0.000    0.000 
#
# Total GULP energy -312459.156458 kJ/mol
# GULP energy per Si atom -5579.627794 kJ/mol
# Density = 1.854293 g / cm^3
# Si number density = 18.585235 Si / 1000 Ang^3
#
#
#
# Elastic Constant Matrix: (Units=GPa)
#
#
# Indices 1 2 3 4 5 6 
#
# 1 97.0016 3.0943 22.2830 0.0000 0.0000 0.0000
# 2 3.0943 46.6847 2.6401 0.0000 0.0000 0.0000
# 3 22.2830 2.6401 95.7707 0.0000 0.0000 0.0000
# 4 0.0000 0.0000 0.0000 13.5872 0.0000 0.0000
# 5 0.0000 0.0000 0.0000 0.0000 17.1583 0.0000
# 6 0.0000 0.0000 0.0000 0.0000 0.0000 46.4992
#
#
#
# Elastic Compliance Matrix: (Units=1/GPa)
#
#
# Indices 1 2 3 4 5 6 
#
# 1 0.010907 -0.000580 -0.002522 0.000000 0.000000 0.000000
# 2 -0.000580 0.021485 -0.000457 0.000000 0.000000 0.000000
# 3 -0.002522 -0.000457 0.011041 0.000000 0.000000 0.000000
# 4 0.000000 0.000000 0.000000 0.073598 0.000000 0.000000
# 5 0.000000 0.000000 0.000000 0.000000 0.058281 0.000000
# 6 0.000000 0.000000 0.000000 0.000000 0.000000 0.021506
#
#
# Mechanical properties :
#
#
# Convention : Reuss Voigt Hill
#
# Bulk Modulus (GPa) = 27.53762 32.83239 30.18500
# Shear Modulus (GPa) = 23.14381 29.54494 26.34437
#
# Velocity S-wave (km/s) = 3.53268 3.99143 3.76904
# Velocity P-wave (km/s) = 5.61149 6.24069 5.93444
#
# Compressibility (1/GPa) = 0.03631396
#
# Stress axis : x y z
#
# Youngs Moduli (GPa) = 91.68503 46.54492 90.57197
#
# Poissons Ratio (x) = 0.02701 0.22840
# Poissons Ratio (y) = 0.05320 0.04141
# Poissons Ratio (z) = 0.23120 0.02128
#
# Static dielectric constant tensor:
#      x y z
#    x 1.662710 0.000000 0.000000 
#    y 0.000000 1.653800 0.000000 
#    z 0.000000 0.000000 1.793940 
# 
# From -- ./inp_files/23866.got.cif
#   From: 2010.05.17/outbox.cif.g08.bks.cpg/sg67_12_cif.got.tgz:23866.got - 2010.06.03 18:28:57.
