data_PCOD9502836
_publ_section_title
;
Structure prediction by ZEFSAII (Michael W. Deem and Ramdas Pophale) SiO2 
 PCOD9502836
Probable space group: C M M A
;
_chemical_formula_sum "Si O2"
_cell_formula_units_Z 96
_cell_length_a 20.370596
_cell_length_b 8.682889
_cell_length_c 30.870199
_cell_angle_alpha 90.000000
_cell_angle_beta 90.000000
_cell_angle_gamma 90.000000
_cell_volume 5460.185709
_symmetry_space_group_name_H-M "C M M A"
_symmetry_group_IT_number 67
_symmetry_cell_setting 'orthorhombic'
loop_
_space_group_symop_operation_xyz
x,y,z
-x,1/2-y,z
x,-y,-z
-x,1/2+y,-z
-x,-y,-z
x,1/2+y,-z
-x,y,z
x,1/2-y,z
1/2+x,1/2+y,z
1/2-x,-y,z
1/2+x,1/2-y,-z
1/2-x,y,-z
1/2-x,1/2-y,-z
1/2+x,y,-z
1/2-x,1/2+y,z
1/2+x,-y,z
loop_
_atom_site_type_symbol
_atom_site_label
_atom_site_fract_x
_atom_site_fract_y
_atom_site_fract_z
Si Si1 0.576321 0.065714 0.211670
Si Si2 0.923317 0.934275 0.883441
Si Si3 0.678200 0.064285 0.619494
Si Si4 0.677702 0.934972 0.280848
Si Si5 0.178306 0.933981 0.047721
Si Si6 0.924335 0.936029 0.546910
O O1 0.500000 0.027941 0.221314
O O2 0.582347 0.250000 0.209026
O O3 0.592070 0.993486 0.164860
O O4 0.624260 0.000934 0.248119
O O5 0.916041 0.750000 0.885164
O O6 0.000000 0.972059 0.891979
O O7 0.875754 0.011640 0.918127
O O8 0.680809 0.250000 0.618218
O O9 0.662829 0.020127 0.669199
O O10 0.623908 0.012190 0.585082
O O11 0.750000 0.000000 0.608706
O O12 0.678851 0.750000 0.278199
O O13 0.750000 0.000000 0.270599
O O14 0.181567 0.750000 0.045706
O O15 0.250000 0.000000 0.059835
O O16 0.162963 0.000000 0.000000
O O17 0.922741 0.750000 0.545358
O O18 0.000000 0.983025 0.554834
O O19 0.904524 0.000000 0.500000
#
# Coordination Sequence:
#
# PCOD9502836 Si02
#       6
#    16  16  16  16  16  16
#     4  10  21  37  56  80 110 141 175 218 266 315
#     4  10  21  38  59  83 111 143 181 223 267 317
#     4   9  19  34  52  74 101 133 168 210 256 305
#     4  10  20  35  55  78 105 138 176 217 263 314
#     4  11  22  38  59  83 113 146 183 225 270 319
#     4   9  18  33  51  72  99 131 168 209 253 302
#
# _framework density 17.581818999999999
#
# number of rings (size 3 to 8) (size 9 to 14) (size 15 to 20)
#    0.000    2.167    0.000    3.500    0.000    5.333 
#    0.000    6.667    0.000    2.000    0.000    0.000 
#    0.000    0.000    0.000    0.000    0.000    0.000 
#
# Total GULP energy -267982.890627 kJ/mol
# GULP energy per Si atom -5582.976888 kJ/mol
# Density = 1.754180 g / cm^3
# Si number density = 17.581819 Si / 1000 Ang^3
#
#
#
# Elastic Constant Matrix: (Units=GPa)
#
#
# Indices 1 2 3 4 5 6 
#
# 1 128.4869 56.0902 126.3465 0.0000 0.0000 0.0000
# 2 56.0902 71.3675 58.1073 0.0000 0.0000 0.0000
# 3 126.3465 58.1073 146.2333 0.0000 0.0000 0.0000
# 4 0.0000 0.0000 0.0000 30.7967 0.0000 0.0000
# 5 0.0000 0.0000 0.0000 0.0000 44.5568 0.0000
# 6 0.0000 0.0000 0.0000 0.0000 0.0000 30.1562
#
#
#
# Elastic Compliance Matrix: (Units=1/GPa)
#
#
# Indices 1 2 3 4 5 6 
#
# 1 0.053748 -0.006552 -0.043835 0.000000 0.000000 0.000000
# 2 -0.006552 0.021512 -0.002887 0.000000 0.000000 0.000000
# 3 -0.043835 -0.002887 0.045860 0.000000 0.000000 0.000000
# 4 0.000000 0.000000 0.000000 0.032471 0.000000 0.000000
# 5 0.000000 0.000000 0.000000 0.000000 0.022443 0.000000
# 6 0.000000 0.000000 0.000000 0.000000 0.000000 0.033161
#
#
# Mechanical properties :
#
#
# Convention : Reuss Voigt Hill
#
# Bulk Modulus (GPa) = 68.62885 91.90841 80.26863
# Shear Modulus (GPa) = 15.59573 28.13817 21.86695
#
# Velocity S-wave (km/s) = 2.98155 4.00486 3.53047
# Velocity P-wave (km/s) = 7.13944 8.58914 7.89762
#
# Compressibility (1/GPa) = 0.01457113
#
# Stress axis : x y z
#
# Youngs Moduli (GPa) = 18.60530 46.48549 21.80570
#
# Poissons Ratio (x) = 0.30457 0.95586
# Poissons Ratio (y) = 0.12190 0.06296
# Poissons Ratio (z) = 0.81557 0.13421
#
# Static dielectric constant tensor:
#      x y z
#    x 1.577190 0.000000 0.000000 
#    y 0.000000 1.592180 0.000000 
#    z 0.000000 0.000000 1.573960 
# 
# From -- ./inp_files/43493.got.cif
#   From: 2010.05.17/outbox.cif.g08.bks.cpg/sg67_22_cif.got.tgz:43493.got - 2010.06.03 18:28:57.
