data_PCOD9502070
_publ_section_title
;
Structure prediction by ZEFSAII (Michael W. Deem and Ramdas Pophale) SiO2 
 PCOD9502070
Probable space group: C M M A
;
_chemical_formula_sum "Si O2"
_cell_formula_units_Z 80
_cell_length_a 24.884634
_cell_length_b 15.127653
_cell_length_c 10.928286
_cell_angle_alpha 90.000000
_cell_angle_beta 90.000000
_cell_angle_gamma 90.000000
_cell_volume 4113.910734
_symmetry_space_group_name_H-M "C M M A"
_symmetry_group_IT_number 67
_symmetry_cell_setting 'orthorhombic'
loop_
_space_group_symop_operation_xyz
x,y,z
-x,1/2-y,z
x,-y,-z
-x,1/2+y,-z
-x,-y,-z
x,1/2+y,-z
-x,y,z
x,1/2-y,z
1/2+x,1/2+y,z
1/2-x,-y,z
1/2+x,1/2-y,-z
1/2-x,y,-z
1/2-x,1/2-y,-z
1/2+x,y,-z
1/2-x,1/2+y,z
1/2+x,-y,z
loop_
_atom_site_type_symbol
_atom_site_label
_atom_site_fract_x
_atom_site_fract_y
_atom_site_fract_z
Si Si1 0.118163 0.853517 0.518682
Si Si2 0.775285 0.598186 0.621822
Si Si3 0.117226 0.142491 0.769236
Si Si4 0.768793 0.602202 0.129022
Si Si5 0.000000 0.105292 0.495698
Si Si6 0.000000 0.352233 0.781579
O O1 0.131271 0.750000 0.525572
O O2 0.161399 0.904625 0.599260
O O3 0.122700 0.880825 0.375334
O O4 0.056729 0.866271 0.560010
O O5 0.750000 0.500000 0.625370
O O6 0.750000 0.641330 0.500000
O O7 0.758856 0.641671 0.749362
O O8 0.117132 0.250000 0.773584
O O9 0.167699 0.108576 0.845807
O O10 0.058527 0.110039 0.814745
O O11 0.750000 0.500000 0.125592
O O12 0.750000 0.641534 0.000000
O O13 0.000000 0.145027 0.633031
O O14 0.000000 0.000000 0.500000
O O15 0.000000 0.250000 0.821060
#
# Coordination Sequence:
#
# PCOD9502070 Si02
#       6
#    16  16  16  16   8   8
#     4  10  20  34  52  77 109 141 176 219 270 316
#     4  10  20  32  54  77 106 137 176 219 257 312
#     4   9  17  31  53  77 101 131 171 218 257 305
#     4  10  21  35  51  73 107 142 171 213 267 313
#     4  10  20  28  50  77 108 141 176 218 266 312
#     4   8  16  32  52  76 102 130 172 222 264 300
#
# _framework density 19.446217000000001
#
# number of rings (size 3 to 8) (size 9 to 14) (size 15 to 20)
#    0.000    2.400    2.000    2.100    2.800    3.200 
#    0.000    0.000    0.000    3.600    0.000    2.800 
#    0.000    0.000    0.000    0.000    0.000    0.000 
#
# Total GULP energy -222962.412535 kJ/mol
# GULP energy per Si atom -5574.060313 kJ/mol
# Density = 1.940196 g / cm^3
# Si number density = 19.446217 Si / 1000 Ang^3
#
#
#
# Elastic Constant Matrix: (Units=GPa)
#
#
# Indices 1 2 3 4 5 6 
#
# 1 230.2728 22.9872 59.9902 0.0000 0.0000 0.0000
# 2 22.9872 60.2708 4.1761 0.0000 0.0000 0.0000
# 3 59.9902 4.1761 119.2226 0.0000 0.0000 0.0000
# 4 0.0000 0.0000 0.0000 -7.4813 0.0000 0.0000
# 5 0.0000 0.0000 0.0000 0.0000 13.5630 0.0000
# 6 0.0000 0.0000 0.0000 0.0000 0.0000 33.6537
#
#
#
# Elastic Compliance Matrix: (Units=1/GPa)
#
#
# Indices 1 2 3 4 5 6 
#
# 1 0.005186 -0.001801 -0.002546 0.000000 0.000000 0.000000
# 2 -0.001801 0.017258 0.000302 0.000000 0.000000 0.000000
# 3 -0.002546 0.000302 0.009658 0.000000 0.000000 0.000000
# 4 0.000000 0.000000 0.000000 -0.133667 0.000000 0.000000
# 5 0.000000 0.000000 0.000000 0.000000 0.073730 0.000000
# 6 0.000000 0.000000 0.000000 0.000000 0.000000 0.029714
#
#
# Mechanical properties :
#
#
# Convention : Reuss Voigt Hill
#
# Bulk Modulus (GPa) = 41.64846 64.89703 53.27274
# Shear Modulus (GPa) = 278.16684 29.45458 153.81071
#
# Velocity S-wave (km/s) = 11.97308 3.89610 8.90321
# Velocity P-wave (km/s) = 14.58093 7.32697 11.53880
#
# Compressibility (1/GPa) = 0.02401049
#
# Stress axis : x y z
#
# Youngs Moduli (GPa) = 192.83174 57.94440 103.53736
#
# Poissons Ratio (x) = 0.10438 0.26364
# Poissons Ratio (y) = 0.34738 -0.03126
# Poissons Ratio (z) = 0.49101 -0.01750
#
# Static dielectric constant tensor:
#      x y z
#    x 1.738850 0.000000 0.000000 
#    y 0.000000 1.654720 0.000000 
#    z 0.000000 0.000000 1.707850 
# 
# From -- ./inp_files/21661.got.cif
#   From: 2010.05.17/outbox.cif.g08.bks.cpg/sg67_11_cif.got.tgz:21661.got - 2010.06.03 18:28:57.
