data_PCOD9502582
_publ_section_title
;
Structure prediction by ZEFSAII (Michael W. Deem and Ramdas Pophale) SiO2 
 PCOD9502582
Probable space group: C M M A
;
_chemical_formula_sum "Si O2"
_cell_formula_units_Z 96
_cell_length_a 18.770644
_cell_length_b 9.024392
_cell_length_c 31.845941
_cell_angle_alpha 90.000000
_cell_angle_beta 90.000000
_cell_angle_gamma 90.000000
_cell_volume 5394.500169
_symmetry_space_group_name_H-M "C M M A"
_symmetry_group_IT_number 67
_symmetry_cell_setting 'orthorhombic'
loop_
_space_group_symop_operation_xyz
x,y,z
-x,1/2-y,z
x,-y,-z
-x,1/2+y,-z
-x,-y,-z
x,1/2+y,-z
-x,y,z
x,1/2-y,z
1/2+x,1/2+y,z
1/2-x,-y,z
1/2+x,1/2-y,-z
1/2-x,y,-z
1/2-x,1/2-y,-z
1/2+x,y,-z
1/2-x,1/2+y,z
1/2+x,-y,z
loop_
_atom_site_type_symbol
_atom_site_label
_atom_site_fract_x
_atom_site_fract_y
_atom_site_fract_z
Si Si1 0.915833 0.425090 0.626198
Si Si2 0.327956 0.428161 0.457358
Si Si3 0.084870 0.425673 0.286746
Si Si4 0.417007 0.572216 0.870870
Si Si5 0.586808 0.579353 0.042576
Si Si6 0.327713 0.428085 0.211747
O O1 0.905414 0.250000 0.635041
O O2 0.873724 0.461708 0.583914
O O3 0.893794 0.517703 0.666999
O O4 0.000000 0.449359 0.619436
O O5 0.358525 0.500000 0.500000
O O6 0.322753 0.250000 0.461973
O O7 0.250000 0.500000 0.452242
O O8 0.096509 0.250000 0.283040
O O9 0.127834 0.511525 0.251166
O O10 0.000000 0.454699 0.282151
O O11 0.500000 0.529673 0.863776
O O12 0.415166 0.750000 0.875438
O O13 0.391720 0.499949 0.914333
O O14 0.369777 0.530915 0.830906
O O15 0.500000 0.574269 0.042042
O O16 0.608542 0.750000 0.042678
O O17 0.611346 0.500000 0.000000
O O18 0.322834 0.250000 0.213742
O O19 0.250000 0.500000 0.211703
#
# Coordination Sequence:
#
# PCOD9502582 Si02
#       6
#    16  16  16  16  16  16
#     4   9  19  36  56  78 105 138 175 214 260 312
#     4  10  20  34  53  76 104 139 176 215 258 307
#     4  10  21  37  58  83 109 138 175 219 265 316
#     4   9  18  33  53  76 102 135 174 213 258 312
#     4   9  16  26  44  72 104 135 168 210 257 304
#     4  11  23  38  56  78 107 142 178 219 266 316
#
# _framework density 17.795902000000002
#
# number of rings (size 3 to 8) (size 9 to 14) (size 15 to 20)
#    0.000    2.333    0.000    3.000    0.000    7.333 
#    0.000    3.333    0.000    0.500    0.000    3.500 
#    0.000    0.000    0.000    0.000    0.000    0.000 
#
# Total GULP energy -267873.570300 kJ/mol
# GULP energy per Si atom -5580.699381 kJ/mol
# Density = 1.775540 g / cm^3
# Si number density = 17.795902 Si / 1000 Ang^3
#
#
#
# Elastic Constant Matrix: (Units=GPa)
#
#
# Indices 1 2 3 4 5 6 
#
# 1 54.1275 47.8497 75.1452 0.0000 0.0000 0.0000
# 2 47.8497 75.0663 87.5029 0.0000 0.0000 0.0000
# 3 75.1452 87.5029 195.8220 0.0000 0.0000 0.0000
# 4 0.0000 0.0000 0.0000 35.3778 0.0000 0.0000
# 5 0.0000 0.0000 0.0000 0.0000 -21.9355 0.0000
# 6 0.0000 0.0000 0.0000 0.0000 0.0000 21.2745
#
#
#
# Elastic Compliance Matrix: (Units=1/GPa)
#
#
# Indices 1 2 3 4 5 6 
#
# 1 0.050947 -0.020216 -0.010517 0.000000 0.000000 0.000000
# 2 -0.020216 0.035826 -0.008251 0.000000 0.000000 0.000000
# 3 -0.010517 -0.008251 0.012830 0.000000 0.000000 0.000000
# 4 0.000000 0.000000 0.000000 0.028266 0.000000 0.000000
# 5 0.000000 0.000000 0.000000 0.000000 -0.045588 0.000000
# 6 0.000000 0.000000 0.000000 0.000000 0.000000 0.047005
#
#
# Mechanical properties :
#
#
# Convention : Reuss Voigt Hill
#
# Bulk Modulus (GPa) = 46.22264 82.89017 64.55640
# Shear Modulus (GPa) = 23.31388 14.57789 18.94589
#
# Velocity S-wave (km/s) = 3.62342 2.86522 3.26639
# Velocity P-wave (km/s) = 6.59816 7.59114 7.11200
#
# Compressibility (1/GPa) = 0.02163442
#
# Stress axis : x y z
#
# Youngs Moduli (GPa) = 19.62825 27.91281 77.94502
#
# Poissons Ratio (x) = 0.56428 0.81976
# Poissons Ratio (y) = 0.39680 0.64313
# Poissons Ratio (z) = 0.20643 0.23031
#
# Static dielectric constant tensor:
#      x y z
#    x 1.590630 0.000000 0.000000 
#    y 0.000000 1.597650 0.000000 
#    z 0.000000 0.000000 1.590690 
# 
# From -- ./inp_files/44592.got.cif
#   From: 2010.05.17/outbox.cif.g08.bks.cpg/sg67_23_cif.got.tgz:44592.got - 2010.06.03 18:28:57.
