data_PCOD9502973
_publ_section_title
;
Structure prediction by ZEFSAII (Michael W. Deem and Ramdas Pophale) SiO2 
 PCOD9502973
Probable space group: C M M A
;
_chemical_formula_sum "Si O2"
_cell_formula_units_Z 72
_cell_length_a 22.664791
_cell_length_b 19.050938
_cell_length_c 8.831723
_cell_angle_alpha 90.000000
_cell_angle_beta 90.000000
_cell_angle_gamma 90.000000
_cell_volume 3813.410180
_symmetry_space_group_name_H-M "C M M A"
_symmetry_group_IT_number 67
_symmetry_cell_setting 'orthorhombic'
loop_
_space_group_symop_operation_xyz
x,y,z
-x,1/2-y,z
x,-y,-z
-x,1/2+y,-z
-x,-y,-z
x,1/2+y,-z
-x,y,z
x,1/2-y,z
1/2+x,1/2+y,z
1/2-x,-y,z
1/2+x,1/2-y,-z
1/2-x,y,-z
1/2-x,1/2-y,-z
1/2+x,y,-z
1/2-x,1/2+y,z
1/2+x,-y,z
loop_
_atom_site_type_symbol
_atom_site_label
_atom_site_fract_x
_atom_site_fract_y
_atom_site_fract_z
Si Si1 0.120702 0.330477 0.459012
Si Si2 0.750000 0.000000 0.249826
Si Si3 0.648974 0.500000 0.000000
Si Si4 0.931955 0.582475 0.826398
Si Si5 0.068225 0.449310 0.625537
Si Si6 0.750000 0.380349 0.500000
O O1 0.101588 0.250000 0.459770
O O2 0.094908 0.369287 0.307652
O O3 0.098135 0.374907 0.604324
O O4 0.191136 0.336515 0.469427
O O5 0.745686 0.067673 0.356518
O O6 0.692562 0.001622 0.143892
O O7 0.610294 0.570721 0.030173
O O8 0.933004 0.501249 0.766671
O O9 0.000000 0.602414 0.857044
O O10 0.098071 0.500000 0.500000
O O11 0.000000 0.437263 0.580786
#
# Coordination Sequence:
#
# PCOD9502973 Si02
#       6
#    16   8   8  16  16   8
#     4  11  21  33  54  84 120 155 190 234 293 351
#     4  10  22  34  64  84 116 144 198 252 292 344
#     4  11  19  36  56  92 107 147 192 242 292 343
#     4  10  20  35  57  85 119 150 194 246 289 341
#     4   8  16  31  51  78 109 142 184 236 283 329
#     4  11  21  38  54  86 116 152 186 252 294 342
#
# _framework density 18.880738000000001
#
# number of rings (size 3 to 8) (size 9 to 14) (size 15 to 20)
#    0.000    2.000    2.222    4.000    6.222    1.778 
#    0.000    0.000    0.000    8.000    0.000    6.222 
#    0.000    0.000    0.000    0.000    0.000    0.000 
#
# Total GULP energy -200428.881200 kJ/mol
# GULP energy per Si atom -5567.468922 kJ/mol
# Density = 1.883776 g / cm^3
# Si number density = 18.880738 Si / 1000 Ang^3
#
#
#
# Elastic Constant Matrix: (Units=GPa)
#
#
# Indices 1 2 3 4 5 6 
#
# 1 118.7009 27.7199 12.6794 0.0000 0.0000 0.0000
# 2 27.7199 117.8321 19.2672 0.0000 0.0000 0.0000
# 3 12.6794 19.2672 52.5043 0.0000 0.0000 0.0000
# 4 0.0000 0.0000 0.0000 17.1951 0.0000 0.0000
# 5 0.0000 0.0000 0.0000 0.0000 21.5948 0.0000
# 6 0.0000 0.0000 0.0000 0.0000 0.0000 4.7069
#
#
#
# Elastic Compliance Matrix: (Units=1/GPa)
#
#
# Indices 1 2 3 4 5 6 
#
# 1 0.009022 -0.001879 -0.001489 0.000000 0.000000 0.000000
# 2 -0.001879 0.009420 -0.003003 0.000000 0.000000 0.000000
# 3 -0.001489 -0.003003 0.020508 0.000000 0.000000 0.000000
# 4 0.000000 0.000000 0.000000 0.058156 0.000000 0.000000
# 5 0.000000 0.000000 0.000000 0.000000 0.046307 0.000000
# 6 0.000000 0.000000 0.000000 0.000000 0.000000 0.212456
#
#
# Mechanical properties :
#
#
# Convention : Reuss Voigt Hill
#
# Bulk Modulus (GPa) = 38.15729 45.37449 41.76589
# Shear Modulus (GPa) = 13.25037 23.99073 18.62055
#
# Velocity S-wave (km/s) = 2.65201 3.56848 3.14382
# Velocity P-wave (km/s) = 5.44344 6.40805 5.94534
#
# Compressibility (1/GPa) = 0.02620731
#
# Stress axis : x y z
#
# Youngs Moduli (GPa) = 110.83498 106.16046 48.76221
#
# Poissons Ratio (x) = 0.19947 0.07262
# Poissons Ratio (y) = 0.20826 0.14643
# Poissons Ratio (z) = 0.16507 0.31879
#
# Static dielectric constant tensor:
#      x y z
#    x 1.741270 0.000000 0.000000 
#    y 0.000000 1.641020 0.000000 
#    z 0.000000 0.000000 1.751460 
# 
# From -- ./inp_files/12270.got.cif
#   From: 2010.05.17/outbox.cif.g08.bks.cpg/sg67_7_cif.got.tgz:12270.got - 2010.06.03 18:28:57.
