data_PCOD9502018
_publ_section_title
;
Structure prediction by ZEFSAII (Michael W. Deem and Ramdas Pophale) SiO2 
 PCOD9502018
Probable space group: C M M A
;
_chemical_formula_sum "Si O2"
_cell_formula_units_Z 64
_cell_length_a 21.628791
_cell_length_b 17.592524
_cell_length_c 6.797247
_cell_angle_alpha 90.000000
_cell_angle_beta 90.000000
_cell_angle_gamma 90.000000
_cell_volume 2586.386638
_symmetry_space_group_name_H-M "C M M A"
_symmetry_group_IT_number 67
_symmetry_cell_setting 'orthorhombic'
loop_
_space_group_symop_operation_xyz
x,y,z
-x,1/2-y,z
x,-y,-z
-x,1/2+y,-z
-x,-y,-z
x,1/2+y,-z
-x,y,z
x,1/2-y,z
1/2+x,1/2+y,z
1/2-x,-y,z
1/2+x,1/2-y,-z
1/2-x,y,-z
1/2-x,1/2-y,-z
1/2+x,y,-z
1/2-x,1/2+y,z
1/2+x,-y,z
loop_
_atom_site_type_symbol
_atom_site_label
_atom_site_fract_x
_atom_site_fract_y
_atom_site_fract_z
Si Si1 0.374707 0.424398 0.599434
Si Si2 0.265204 0.838151 0.264288
Si Si3 0.132841 0.339099 0.801846
Si Si4 0.500000 0.993157 0.233774
Si Si5 0.000000 0.340016 0.817267
O O1 0.346232 0.500000 0.500000
O O2 0.326921 0.387309 0.749817
O O3 0.383747 0.366118 0.419541
O O4 0.437991 0.452410 0.695977
O O5 0.278109 0.750000 0.211304
O O6 0.250000 0.838797 0.500000
O O7 0.202448 0.868963 0.162676
O O8 0.143929 0.250000 0.796537
O O9 0.067989 0.348590 0.918247
O O10 0.500000 0.081042 0.306480
O O11 0.500000 0.000000 0.000000
O O12 0.000000 0.250000 0.746810
#
# Coordination Sequence:
#
# PCOD9502018 Si02
#       5
#    16  16  16   8   8
#     4  11  19  33  57  83 111 143 190 236 294 337
#     4   8  16  30  50  89 123 142 174 236 295 338
#     4   9  17  31  57  92 121 143 185 240 288 348
#     4  12  26  42  53  79 120 152 192 253 287 334
#     4  10  19  37  58  78 111 157 190 219 285 349
#
# _framework density 24.744945999999999
#
# number of rings (size 3 to 8) (size 9 to 14) (size 15 to 20)
#    0.000    2.250    2.500    3.375    0.000    4.500 
#    0.000    4.375    0.000    3.000    0.000    5.250 
#    0.000    0.000    0.000    0.000    0.000    0.000 
#
# Total GULP energy -178370.196834 kJ/mol
# GULP energy per Si atom -5574.068651 kJ/mol
# Density = 2.468863 g / cm^3
# Si number density = 24.744946 Si / 1000 Ang^3
#
#
#
# Elastic Constant Matrix: (Units=GPa)
#
#
# Indices 1 2 3 4 5 6 
#
# 1 292.2416 98.0133 29.3396 0.0000 0.0000 0.0000
# 2 98.0133 81.4438 27.7378 0.0000 0.0000 0.0000
# 3 29.3396 27.7378 90.1825 0.0000 0.0000 0.0000
# 4 0.0000 0.0000 0.0000 5.2543 0.0000 0.0000
# 5 0.0000 0.0000 0.0000 0.0000 30.0356 0.0000
# 6 0.0000 0.0000 0.0000 0.0000 0.0000 50.8822
#
#
#
# Elastic Compliance Matrix: (Units=1/GPa)
#
#
# Indices 1 2 3 4 5 6 
#
# 1 0.005744 -0.007011 0.000288 0.000000 0.000000 0.000000
# 2 -0.007011 0.022272 -0.004569 0.000000 0.000000 0.000000
# 3 0.000288 -0.004569 0.012400 0.000000 0.000000 0.000000
# 4 0.000000 0.000000 0.000000 0.190320 0.000000 0.000000
# 5 0.000000 0.000000 0.000000 0.000000 0.033294 0.000000
# 6 0.000000 0.000000 0.000000 0.000000 0.000000 0.019653
#
#
# Mechanical properties :
#
#
# Convention : Reuss Voigt Hill
#
# Bulk Modulus (GPa) = 56.08131 86.00547 71.04339
# Shear Modulus (GPa) = 16.01473 37.81956 26.91714
#
# Velocity S-wave (km/s) = 2.54676 3.91368 3.30173
# Velocity P-wave (km/s) = 5.60008 7.43336 6.58087
#
# Compressibility (1/GPa) = 0.01783125
#
# Stress axis : x y z
#
# Youngs Moduli (GPa) = 174.08548 44.89973 80.64196
#
# Poissons Ratio (x) = 0.31479 -0.02319
# Poissons Ratio (y) = 1.22049 0.36848
# Poissons Ratio (z) = -0.05006 0.20516
#
# Static dielectric constant tensor:
#      x y z
#    x 2.085930 0.000000 0.000000 
#    y 0.000000 1.928910 0.000000 
#    z 0.000000 0.000000 2.079670 
# 
# From -- ./inp_files/10717.got.cif
#   From: 2010.05.17/outbox.cif.g08.bks.cpg/sg67_6_cif.got.tgz:10717.got - 2010.06.03 18:28:57.
