data_PCOD9502860
_publ_section_title
;
Structure prediction by ZEFSAII (Michael W. Deem and Ramdas Pophale) SiO2 
 PCOD9502860
Probable space group: C M M A
;
_chemical_formula_sum "Si O2"
_cell_formula_units_Z 64
_cell_length_a 26.321982
_cell_length_b 8.508749
_cell_length_c 13.091282
_cell_angle_alpha 90.000000
_cell_angle_beta 90.000000
_cell_angle_gamma 90.000000
_cell_volume 2932.016963
_symmetry_space_group_name_H-M "C M M A"
_symmetry_group_IT_number 67
_symmetry_cell_setting 'orthorhombic'
loop_
_space_group_symop_operation_xyz
x,y,z
-x,1/2-y,z
x,-y,-z
-x,1/2+y,-z
-x,-y,-z
x,1/2+y,-z
-x,y,z
x,1/2-y,z
1/2+x,1/2+y,z
1/2-x,-y,z
1/2+x,1/2-y,-z
1/2-x,y,-z
1/2-x,1/2-y,-z
1/2+x,y,-z
1/2-x,1/2+y,z
1/2+x,-y,z
loop_
_atom_site_type_symbol
_atom_site_label
_atom_site_fract_x
_atom_site_fract_y
_atom_site_fract_z
Si Si1 0.696522 0.563435 0.673568
Si Si2 0.666044 0.939113 0.107686
Si Si3 0.411203 0.937153 0.393555
Si Si4 0.945387 0.058947 0.170915
O O1 0.694789 0.750000 0.665831
O O2 0.750000 0.500000 0.633264
O O3 0.691828 0.511179 0.792270
O O4 0.647124 0.491562 0.619580
O O5 0.669159 0.750000 0.113435
O O6 0.606509 0.989645 0.116334
O O7 0.686313 0.000000 0.000000
O O8 0.412574 0.750000 0.395474
O O9 0.439174 0.988500 0.289795
O O10 0.432063 0.000000 0.500000
O O11 0.945622 0.250000 0.167908
O O12 0.000000 0.002455 0.131473
#
# Coordination Sequence:
#
# PCOD9502860 Si02
#       4
#    16  16  16  16
#     4  11  22  38  58  80 107 138 176 220 269 320
#     4  10  20  35  55  80 110 143 180 220 265 315
#     4  10  20  35  55  80 110 143 180 220 265 315
#     4   8  16  32  53  77 108 144 180 220 264 311
#
# _framework density 21.827977000000001
#
# number of rings (size 3 to 8) (size 9 to 14) (size 15 to 20)
#    0.000    2.250    0.000    5.250    0.000    2.000 
#    0.000    5.000    0.000   25.500    0.000    0.000 
#    0.000    0.000    0.000    0.000    0.000    0.000 
#
# Total GULP energy -178818.242589 kJ/mol
# GULP energy per Si atom -5588.070081 kJ/mol
# Density = 2.177830 g / cm^3
# Si number density = 21.827977 Si / 1000 Ang^3
#
#
#
# Elastic Constant Matrix: (Units=GPa)
#
#
# Indices 1 2 3 4 5 6 
#
# 1 93.8252 -10.1994 -15.9778 0.0000 0.0000 0.0000
# 2 -10.1994 46.4122 4.2968 0.0000 0.0000 0.0000
# 3 -15.9778 4.2968 93.1521 0.0000 0.0000 0.0000
# 4 0.0000 0.0000 0.0000 28.9112 0.0000 0.0000
# 5 0.0000 0.0000 0.0000 0.0000 -11.0147 0.0000
# 6 0.0000 0.0000 0.0000 0.0000 0.0000 -5.0826
#
#
#
# Elastic Compliance Matrix: (Units=1/GPa)
#
#
# Indices 1 2 3 4 5 6 
#
# 1 0.011217 0.002297 0.001818 0.000000 0.000000 0.000000
# 2 0.002297 0.022109 -0.000626 0.000000 0.000000 0.000000
# 3 0.001818 -0.000626 0.011076 0.000000 0.000000 0.000000
# 4 0.000000 0.000000 0.000000 0.034589 0.000000 0.000000
# 5 0.000000 0.000000 0.000000 0.000000 -0.090788 0.000000
# 6 0.000000 0.000000 0.000000 0.000000 0.000000 -0.196750
#
#
# Mechanical properties :
#
#
# Convention : Reuss Voigt Hill
#
# Bulk Modulus (GPa) = 19.46279 21.06984 20.26631
# Shear Modulus (GPa) = -25.20173 19.58079 -2.81047
#
# Velocity S-wave (km/s) = -3.40157 2.99833 -1.13594
# Velocity P-wave (km/s) = 2.54789 4.65406 2.75395
#
# Compressibility (1/GPa) = 0.05138010
#
# Stress axis : x y z
#
# Youngs Moduli (GPa) = 89.14716 45.23100 90.28652
#
# Poissons Ratio (x) = -0.10389 -0.16415
# Poissons Ratio (y) = -0.20475 0.05651
# Poissons Ratio (z) = -0.16208 0.02831
#
# Static dielectric constant tensor:
#      x y z
#    x 1.821600 0.000000 0.000000 
#    y 0.000000 1.728420 0.000000 
#    z 0.000000 0.000000 1.392190 
# 
# From -- ./inp_files/23391.got.cif
#   From: 2010.05.17/outbox.cif.g08.bks.cpg/sg67_12_cif.got.tgz:23391.got - 2010.06.03 18:28:57.
