data_PCOD9502305
_publ_section_title
;
Structure prediction by ZEFSAII (Michael W. Deem and Ramdas Pophale) SiO2 
 PCOD9502305
Probable space group: C M M A
;
_chemical_formula_sum "Si O2"
_cell_formula_units_Z 80
_cell_length_a 22.022373
_cell_length_b 13.325582
_cell_length_c 12.171750
_cell_angle_alpha 90.000000
_cell_angle_beta 90.000000
_cell_angle_gamma 90.000000
_cell_volume 3571.933163
_symmetry_space_group_name_H-M "C M M A"
_symmetry_group_IT_number 67
_symmetry_cell_setting 'orthorhombic'
loop_
_space_group_symop_operation_xyz
x,y,z
-x,1/2-y,z
x,-y,-z
-x,1/2+y,-z
-x,-y,-z
x,1/2+y,-z
-x,y,z
x,1/2-y,z
1/2+x,1/2+y,z
1/2-x,-y,z
1/2+x,1/2-y,-z
1/2-x,y,-z
1/2-x,1/2-y,-z
1/2+x,y,-z
1/2-x,1/2+y,z
1/2+x,-y,z
loop_
_atom_site_type_symbol
_atom_site_label
_atom_site_fract_x
_atom_site_fract_y
_atom_site_fract_z
Si Si1 0.933020 0.062259 0.745208
Si Si2 0.735554 0.865226 0.258730
Si Si3 0.164989 0.366831 0.570850
Si Si4 0.329944 0.466674 0.122602
Si Si5 0.932688 0.631629 0.605251
O O1 0.887039 0.117096 0.662517
O O2 0.000000 0.105482 0.744083
O O3 0.899440 0.062185 0.860968
O O4 0.936409 0.947393 0.702913
O O5 0.715147 0.750000 0.268328
O O6 0.770957 0.896400 0.371759
O O7 0.687147 0.943603 0.209465
O O8 0.787631 0.876577 0.165136
O O9 0.174470 0.250000 0.551891
O O10 0.128290 0.399412 0.461573
O O11 0.317170 0.500000 0.000000
O O12 0.928089 0.750000 0.631987
O O13 0.000000 0.620654 0.546798
#
# Coordination Sequence:
#
# PCOD9502305 Si02
#       5
#    16  16  16  16  16
#     4  10  20  33  50  73 103 138 173 210 252 299
#     4   9  18  34  55  77 100 126 162 212 264 310
#     4   9  17  30  51  79 105 129 163 206 252 306
#     4  10  21  35  52  75  99 129 174 219 260 308
#     4   9  17  30  49  74 106 143 177 206 244 303
#
# _framework density 22.396836
#
# number of rings (size 3 to 8) (size 9 to 14) (size 15 to 20)
#    0.000    2.600    0.000    2.400    0.000    5.600 
#    0.000    1.000    0.000    8.400    0.000    5.600 
#    0.000    0.000    0.000    0.000    0.000    0.000 
#
# Total GULP energy -222754.660436 kJ/mol
# GULP energy per Si atom -5568.866511 kJ/mol
# Density = 2.234586 g / cm^3
# Si number density = 22.396836 Si / 1000 Ang^3
#
#
#
# Elastic Constant Matrix: (Units=GPa)
#
#
# Indices 1 2 3 4 5 6 
#
# 1 110.6992 -3.9174 16.7586 0.0000 0.0000 0.0000
# 2 -3.9174 72.9811 -11.2511 0.0000 0.0000 0.0000
# 3 16.7586 -11.2511 64.2686 0.0000 0.0000 0.0000
# 4 0.0000 0.0000 0.0000 11.3232 0.0000 0.0000
# 5 0.0000 0.0000 0.0000 0.0000 15.6648 0.0000
# 6 0.0000 0.0000 0.0000 0.0000 0.0000 17.4942
#
#
#
# Elastic Compliance Matrix: (Units=1/GPa)
#
#
# Indices 1 2 3 4 5 6 
#
# 1 0.009406 0.000130 -0.002430 0.000000 0.000000 0.000000
# 2 0.000130 0.014084 0.002432 0.000000 0.000000 0.000000
# 3 -0.002430 0.002432 0.016619 0.000000 0.000000 0.000000
# 4 0.000000 0.000000 0.000000 0.088314 0.000000 0.000000
# 5 0.000000 0.000000 0.000000 0.000000 0.063837 0.000000
# 6 0.000000 0.000000 0.000000 0.000000 0.000000 0.057162
#
#
# Mechanical properties :
#
#
# Convention : Reuss Voigt Hill
#
# Bulk Modulus (GPa) = 24.76898 27.90323 26.33610
# Shear Modulus (GPa) = 19.03923 25.32038 22.17980
#
# Velocity S-wave (km/s) = 2.91879 3.36599 3.15033
# Velocity P-wave (km/s) = 4.73732 5.25282 5.00172
#
# Compressibility (1/GPa) = 0.04037308
#
# Stress axis : x y z
#
# Youngs Moduli (GPa) = 106.31560 71.00235 60.17211
#
# Poissons Ratio (x) = -0.00925 0.14621
# Poissons Ratio (y) = -0.01385 -0.14632
# Poissons Ratio (z) = 0.25833 -0.17265
#
# Static dielectric constant tensor:
#      x y z
#    x 1.936960 0.000000 0.000000 
#    y 0.000000 1.847330 0.000000 
#    z 0.000000 0.000000 1.850610 
# 
# From -- ./inp_files/17902.got.cif
#   From: 2010.05.17/outbox.cif.g08.bks.cpg/sg67_9_cif.got.tgz:17902.got - 2010.06.03 18:28:57.
