data_PCOD9502072
_publ_section_title
;
Structure prediction by ZEFSAII (Michael W. Deem and Ramdas Pophale) SiO2 
 PCOD9502072
Probable space group: C M M A
;
_chemical_formula_sum "Si O2"
_cell_formula_units_Z 88
_cell_length_a 31.478233
_cell_length_b 8.901665
_cell_length_c 17.736590
_cell_angle_alpha 90.000000
_cell_angle_beta 90.000000
_cell_angle_gamma 90.000000
_cell_volume 4969.946560
_symmetry_space_group_name_H-M "C M M A"
_symmetry_group_IT_number 67
_symmetry_cell_setting 'orthorhombic'
loop_
_space_group_symop_operation_xyz
x,y,z
-x,1/2-y,z
x,-y,-z
-x,1/2+y,-z
-x,-y,-z
x,1/2+y,-z
-x,y,z
x,1/2-y,z
1/2+x,1/2+y,z
1/2-x,-y,z
1/2+x,1/2-y,-z
1/2-x,y,-z
1/2-x,1/2-y,-z
1/2+x,y,-z
1/2-x,1/2+y,z
1/2+x,-y,z
loop_
_atom_site_type_symbol
_atom_site_label
_atom_site_fract_x
_atom_site_fract_y
_atom_site_fract_z
Si Si1 0.294469 0.070306 0.244419
Si Si2 0.408172 0.925367 0.133530
Si Si3 0.000000 0.931091 0.917858
Si Si4 0.675372 0.571473 0.922323
Si Si5 0.377454 0.574391 0.304836
Si Si6 0.547919 0.931702 0.416837
O O1 0.292750 0.250000 0.245272
O O2 0.303101 0.022063 0.156799
O O3 0.250000 0.000000 0.268601
O O4 0.333503 0.014536 0.295817
O O5 0.403788 0.750000 0.110145
O O6 0.456163 0.976565 0.120998
O O7 0.397853 0.933267 0.221738
O O8 0.373583 0.021641 0.088880
O O9 0.000000 0.750000 0.920586
O O10 0.000000 0.000000 0.000000
O O11 0.678740 0.750000 0.927689
O O12 0.691845 0.500000 0.000000
O O13 0.368226 0.750000 0.320969
O O14 0.413092 0.519976 0.363663
O O15 0.500000 0.971891 0.389213
O O16 0.549269 0.750000 0.420621
O O17 0.552548 0.000000 0.500000
#
# Coordination Sequence:
#
# PCOD9502072 Si02
#       6
#    16  16   8  16  16  16
#     4  10  21  36  54  76 102 132 170 215 263 314
#     4   9  18  31  47  67  92 127 169 212 254 300
#     4  10  20  30  42  62  89 124 166 210 253 294
#     4  10  20  33  49  69  95 127 165 211 261 311
#     4   9  18  33  54  77 103 136 173 211 253 302
#     4   9  18  32  53  82 114 146 176 208 247 297
#
# _framework density 17.706427999999999
#
# number of rings (size 3 to 8) (size 9 to 14) (size 15 to 20)
#    0.000    2.545    0.000    1.636    1.273    5.455 
#    0.000    1.818    0.000    0.545    0.000    3.818 
#    0.000    0.000    0.000    0.000    0.000    0.000 
#
# Total GULP energy -245334.961467 kJ/mol
# GULP energy per Si atom -5575.794579 kJ/mol
# Density = 1.766613 g / cm^3
# Si number density = 17.706428 Si / 1000 Ang^3
#
#
#
# Elastic Constant Matrix: (Units=GPa)
#
#
# Indices 1 2 3 4 5 6 
#
# 1 148.6896 36.0144 46.1142 0.0000 0.0000 0.0000
# 2 36.0144 24.3895 21.2254 0.0000 0.0000 0.0000
# 3 46.1142 21.2254 57.5991 0.0000 0.0000 0.0000
# 4 0.0000 0.0000 0.0000 24.8364 0.0000 0.0000
# 5 0.0000 0.0000 0.0000 0.0000 12.5773 0.0000
# 6 0.0000 0.0000 0.0000 0.0000 0.0000 22.0522
#
#
#
# Elastic Compliance Matrix: (Units=1/GPa)
#
#
# Indices 1 2 3 4 5 6 
#
# 1 0.011119 -0.012766 -0.004198 0.000000 0.000000 0.000000
# 2 -0.012766 0.075014 -0.017422 0.000000 0.000000 0.000000
# 3 -0.004198 -0.017422 0.027143 0.000000 0.000000 0.000000
# 4 0.000000 0.000000 0.000000 0.040263 0.000000 0.000000
# 5 0.000000 0.000000 0.000000 0.000000 0.079509 0.000000
# 6 0.000000 0.000000 0.000000 0.000000 0.000000 0.045347
#
#
# Mechanical properties :
#
#
# Convention : Reuss Voigt Hill
#
# Bulk Modulus (GPa) = 22.47024 48.59848 35.53436
# Shear Modulus (GPa) = 13.81208 20.38144 17.09676
#
# Velocity S-wave (km/s) = 2.79599 3.39643 3.11073
# Velocity P-wave (km/s) = 4.81055 6.54885 5.74581
#
# Compressibility (1/GPa) = 0.04450330
#
# Stress axis : x y z
#
# Youngs Moduli (GPa) = 89.93251 13.33087 36.84257
#
# Poissons Ratio (x) = 0.17018 0.15467
# Poissons Ratio (y) = 1.14807 0.64188
# Poissons Ratio (z) = 0.37754 0.23225
#
# Static dielectric constant tensor:
#      x y z
#    x 1.616010 0.000000 0.000000 
#    y 0.000000 1.601040 0.000000 
#    z 0.000000 0.000000 1.587110 
# 
# From -- ./inp_files/32377.got.cif
#   From: 2010.05.17/outbox.cif.g08.bks.cpg/sg67_17_cif.got.tgz:32377.got - 2010.06.03 18:28:57.
