data_PCOD9502542
_publ_section_title
;
Structure prediction by ZEFSAII (Michael W. Deem and Ramdas Pophale) SiO2 
 PCOD9502542
Probable space group: C M M A
;
_chemical_formula_sum "Si O2"
_cell_formula_units_Z 96
_cell_length_a 8.964505
_cell_length_b 15.214576
_cell_length_c 32.238242
_cell_angle_alpha 90.000000
_cell_angle_beta 90.000000
_cell_angle_gamma 90.000000
_cell_volume 4397.010663
_symmetry_space_group_name_H-M "C M M A"
_symmetry_group_IT_number 67
_symmetry_cell_setting 'orthorhombic'
loop_
_space_group_symop_operation_xyz
x,y,z
-x,1/2-y,z
x,-y,-z
-x,1/2+y,-z
-x,-y,-z
x,1/2+y,-z
-x,y,z
x,1/2-y,z
1/2+x,1/2+y,z
1/2-x,-y,z
1/2+x,1/2-y,-z
1/2-x,y,-z
1/2-x,1/2-y,-z
1/2+x,y,-z
1/2-x,1/2+y,z
1/2+x,-y,z
loop_
_atom_site_type_symbol
_atom_site_label
_atom_site_fract_x
_atom_site_fract_y
_atom_site_fract_z
Si Si1 0.177977 0.403220 0.793086
Si Si2 0.328808 0.357548 0.542405
Si Si3 0.833867 0.853977 0.709752
Si Si4 0.671156 0.857830 0.627325
Si Si5 0.832626 0.146099 0.959555
Si Si6 0.678581 0.402833 0.875426
O O1 0.250000 0.500000 0.791792
O O2 0.228386 0.363983 0.749413
O O3 0.251553 0.359893 0.833954
O O4 0.000000 0.405532 0.797393
O O5 0.500000 0.385963 0.543404
O O6 0.327755 0.250000 0.542294
O O7 0.250000 0.385915 0.500000
O O8 0.244014 0.385340 0.583975
O O9 0.849362 0.750000 0.703224
O O10 0.762366 0.889138 0.667439
O O11 0.000000 0.891008 0.717890
O O12 0.500000 0.885749 0.630056
O O13 0.672237 0.750000 0.627617
O O14 0.849419 0.250000 0.966820
O O15 0.734134 0.137248 0.918437
O O16 0.000000 0.108706 0.953654
O O17 0.750000 0.108510 0.000000
O O18 0.500000 0.404969 0.872528
O O19 0.750000 0.500000 0.876525
#
# Coordination Sequence:
#
# PCOD9502542 Si02
#       6
#    16  16  16  16  16  16
#     4  11  22  38  58  79 106 138 174 216 263 312
#     4   9  15  22  33  51  78 115 157 199 245 299
#     4  10  20  34  52  75 103 135 172 213 258 309
#     4   9  16  26  40  60  88 122 160 203 251 302
#     4  10  21  38  59  84 114 146 180 218 261 308
#     4  11  22  38  59  82 109 140 177 218 262 310
#
# _framework density 21.833016000000001
#
# number of rings (size 3 to 8) (size 9 to 14) (size 15 to 20)
#    0.000    2.000    0.000    6.000    0.000    7.000 
#    0.000    1.667    0.000    0.000    0.000    0.000 
#    0.000    0.667    0.000    6.667    0.000   10.333 
#
# Total GULP energy -268150.917446 kJ/mol
# GULP energy per Si atom -5586.477447 kJ/mol
# Density = 2.178332 g / cm^3
# Si number density = 21.833016 Si / 1000 Ang^3
#
#
#
# Elastic Constant Matrix: (Units=GPa)
#
#
# Indices 1 2 3 4 5 6 
#
# 1 237.3645 9.6286 109.5879 0.0000 0.0000 0.0000
# 2 9.6286 27.3163 5.7840 0.0000 0.0000 0.0000
# 3 109.5879 5.7840 208.9931 0.0000 0.0000 0.0000
# 4 0.0000 0.0000 0.0000 5.0515 0.0000 0.0000
# 5 0.0000 0.0000 0.0000 0.0000 154.6742 0.0000
# 6 0.0000 0.0000 0.0000 0.0000 0.0000 13.5905
#
#
#
# Elastic Compliance Matrix: (Units=1/GPa)
#
#
# Indices 1 2 3 4 5 6 
#
# 1 0.005609 -0.001362 -0.002903 0.000000 0.000000 0.000000
# 2 -0.001362 0.037155 -0.000314 0.000000 0.000000 0.000000
# 3 -0.002903 -0.000314 0.006316 0.000000 0.000000 0.000000
# 4 0.000000 0.000000 0.000000 0.197959 0.000000 0.000000
# 5 0.000000 0.000000 0.000000 0.000000 0.006465 0.000000
# 6 0.000000 0.000000 0.000000 0.000000 0.000000 0.073581
#
#
# Mechanical properties :
#
#
# Convention : Reuss Voigt Hill
#
# Bulk Modulus (GPa) = 25.04983 80.40834 52.72908
# Shear Modulus (GPa) = 14.30411 57.90813 36.10612
#
# Velocity S-wave (km/s) = 2.56239 5.15565 4.07103
# Velocity P-wave (km/s) = 4.50030 8.50587 6.80450
#
# Compressibility (1/GPa) = 0.03992044
#
# Stress axis : x y z
#
# Youngs Moduli (GPa) = 178.29887 26.91440 158.33134
#
# Poissons Ratio (x) = 0.03666 0.45967
# Poissons Ratio (y) = 0.24288 0.04972
# Poissons Ratio (z) = 0.51764 0.00845
#
# Static dielectric constant tensor:
#      x y z
#    x 1.768090 0.000000 0.000000 
#    y 0.000000 1.886910 0.000000 
#    z 0.000000 0.000000 1.804770 
# 
# From -- ./inp_files/43496.got.cif
#   From: 2010.05.17/outbox.cif.g08.bks.cpg/sg67_22_cif.got.tgz:43496.got - 2010.06.03 18:28:57.
