data_PCOD9502058
_publ_section_title
;
Structure prediction by ZEFSAII (Michael W. Deem and Ramdas Pophale) SiO2 
 PCOD9502058
Probable space group: C M M A
;
_chemical_formula_sum "Si O2"
_cell_formula_units_Z 88
_cell_length_a 14.049006
_cell_length_b 14.311276
_cell_length_c 20.688992
_cell_angle_alpha 90.000000
_cell_angle_beta 90.000000
_cell_angle_gamma 90.000000
_cell_volume 4159.712230
_symmetry_space_group_name_H-M "C M M A"
_symmetry_group_IT_number 67
_symmetry_cell_setting 'orthorhombic'
loop_
_space_group_symop_operation_xyz
x,y,z
-x,1/2-y,z
x,-y,-z
-x,1/2+y,-z
-x,-y,-z
x,1/2+y,-z
-x,y,z
x,1/2-y,z
1/2+x,1/2+y,z
1/2-x,-y,z
1/2+x,1/2-y,-z
1/2-x,y,-z
1/2-x,1/2-y,-z
1/2+x,y,-z
1/2-x,1/2+y,z
1/2+x,-y,z
loop_
_atom_site_type_symbol
_atom_site_label
_atom_site_fract_x
_atom_site_fract_y
_atom_site_fract_z
Si Si1 0.205053 0.148871 0.605649
Si Si2 0.500000 0.136486 0.153921
Si Si3 0.787741 0.362688 0.804660
Si Si4 0.250000 0.000000 0.698142
Si Si5 0.190294 0.363295 0.061983
Si Si6 0.500000 0.864729 0.998621
Si Si7 0.108243 0.107073 0.476795
O O1 0.201823 0.250000 0.639426
O O2 0.136953 0.154566 0.544048
O O3 0.311205 0.132357 0.575731
O O4 0.182118 0.058755 0.649525
O O5 0.500000 0.250000 0.153839
O O6 0.400138 0.109458 0.188633
O O7 0.500000 0.109427 0.077462
O O8 0.783911 0.250000 0.798354
O O9 0.730744 0.415437 0.747885
O O10 0.737600 0.391093 0.871466
O O11 0.188369 0.250000 0.064389
O O12 0.087652 0.396777 0.041725
O O13 0.250000 0.389976 0.000000
O O14 0.500000 0.750000 0.996895
O O15 0.000000 0.126889 0.456542
O O16 0.116246 0.000000 0.500000
#
# Coordination Sequence:
#
# PCOD9502058 Si02
#       7
#    16   8  16   8  16   8  16
#     4  11  22  40  66  93 125 162 201 246 296 348
#     4   9  16  32  59  91 114 143 195 252 313 368
#     4  10  21  38  61  85 116 159 201 246 304 365
#     4  12  24  43  55  80 124 166 208 246 282 346
#     4   9  15  27  53  85 111 145 192 246 310 366
#     4   9  14  24  53  89 115 138 185 255 315 375
#     4  10  19  38  69 101 130 156 190 245 304 351
#
# _framework density 21.155308999999999
#
# number of rings (size 3 to 8) (size 9 to 14) (size 15 to 20)
#    0.000    2.000    3.636    2.182    0.000    1.455 
#    3.273    1.364    0.000    1.091    0.000    0.000 
#    0.000    0.000    0.000    0.000    0.000    0.000 
#
# Total GULP energy -245045.220278 kJ/mol
# GULP energy per Si atom -5569.209552 kJ/mol
# Density = 2.110716 g / cm^3
# Si number density = 21.155309 Si / 1000 Ang^3
#
#
#
# Elastic Constant Matrix: (Units=GPa)
#
#
# Indices 1 2 3 4 5 6 
#
# 1 95.8629 10.3644 3.6684 0.0000 0.0000 0.0000
# 2 10.3644 120.7584 22.8088 0.0000 0.0000 0.0000
# 3 3.6684 22.8088 85.0288 0.0000 0.0000 0.0000
# 4 0.0000 0.0000 0.0000 97.5520 0.0000 0.0000
# 5 0.0000 0.0000 0.0000 0.0000 8.0015 0.0000
# 6 0.0000 0.0000 0.0000 0.0000 0.0000 2.8999
#
#
#
# Elastic Compliance Matrix: (Units=1/GPa)
#
#
# Indices 1 2 3 4 5 6 
#
# 1 0.010533 -0.000862 -0.000223 0.000000 0.000000 0.000000
# 2 -0.000862 0.008793 -0.002322 0.000000 0.000000 0.000000
# 3 -0.000223 -0.002322 0.012393 0.000000 0.000000 0.000000
# 4 0.000000 0.000000 0.000000 0.010251 0.000000 0.000000
# 5 0.000000 0.000000 0.000000 0.000000 0.124977 0.000000
# 6 0.000000 0.000000 0.000000 0.000000 0.000000 0.344836
#
#
# Mechanical properties :
#
#
# Convention : Reuss Voigt Hill
#
# Bulk Modulus (GPa) = 40.15040 41.70371 40.92706
# Shear Modulus (GPa) = 9.48947 39.34458 24.41703
#
# Velocity S-wave (km/s) = 2.12023 4.31721 3.40101
# Velocity P-wave (km/s) = 5.00139 6.67885 5.90004
#
# Compressibility (1/GPa) = 0.02490635
#
# Stress axis : x y z
#
# Youngs Moduli (GPa) = 94.93707 113.72052 80.68987
#
# Poissons Ratio (x) = 0.09801 0.01801
# Poissons Ratio (y) = 0.08182 0.18733
# Poissons Ratio (z) = 0.02119 0.26402
#
# Static dielectric constant tensor:
#      x y z
#    x 1.740290 0.000000 0.000000 
#    y 0.000000 1.860290 0.000000 
#    z 0.000000 0.000000 1.751780 
# 
# From -- ./inp_files/38342.got.cif
#   From: 2010.05.17/outbox.cif.g08.bks.cpg/sg67_20_cif.got.tgz:38342.got - 2010.06.03 18:28:57.
