data_PCOD9502683
_publ_section_title
;
Structure prediction by ZEFSAII (Michael W. Deem and Ramdas Pophale) SiO2 
 PCOD9502683
Probable space group: C M M A
;
_chemical_formula_sum "Si O2"
_cell_formula_units_Z 104
_cell_length_a 27.205261
_cell_length_b 23.961602
_cell_length_c 7.232692
_cell_angle_alpha 90.000000
_cell_angle_beta 90.000000
_cell_angle_gamma 90.000000
_cell_volume 4714.859096
_symmetry_space_group_name_H-M "C M M A"
_symmetry_group_IT_number 67
_symmetry_cell_setting 'orthorhombic'
loop_
_space_group_symop_operation_xyz
x,y,z
-x,1/2-y,z
x,-y,-z
-x,1/2+y,-z
-x,-y,-z
x,1/2+y,-z
-x,y,z
x,1/2-y,z
1/2+x,1/2+y,z
1/2-x,-y,z
1/2+x,1/2-y,-z
1/2-x,y,-z
1/2-x,1/2-y,-z
1/2+x,y,-z
1/2-x,1/2+y,z
1/2+x,-y,z
loop_
_atom_site_type_symbol
_atom_site_label
_atom_site_fract_x
_atom_site_fract_y
_atom_site_fract_z
Si Si1 0.420197 0.484310 0.694676
Si Si2 0.633037 0.407969 0.151417
Si Si3 0.500000 0.400205 0.836988
Si Si4 0.157691 0.604429 0.720322
Si Si5 0.740710 0.564617 0.777444
Si Si6 0.945632 0.684538 0.249755
Si Si7 0.423721 0.313485 0.680971
O O1 0.445033 0.500000 0.500000
O O2 0.399087 0.538218 0.796159
O O3 0.457108 0.448706 0.817854
O O4 0.374873 0.444596 0.631530
O O5 0.685496 0.413977 0.255443
O O6 0.599473 0.354018 0.189590
O O7 0.647931 0.407159 0.937479
O O8 0.456949 0.352218 0.808222
O O9 0.215265 0.599574 0.687389
O O10 0.131211 0.662076 0.673773
O O11 0.750000 0.500000 0.725211
O O12 0.750000 0.566764 0.000000
O O13 0.941385 0.750000 0.198035
O O14 0.944662 0.682598 0.473104
O O15 0.000000 0.662337 0.189900
O O16 0.424974 0.250000 0.741888
#
# Coordination Sequence:
#
# PCOD9502683 Si02
#       7
#    16  16   8  16  16  16  16
#     4  11  22  34  53  85 121 156 191 232 284 343
#     4  11  21  37  62  85 118 155 189 242 287 337
#     4  10  20  34  55  80 108 150 199 228 263 346
#     4  10  21  38  58  89 115 149 198 237 286 340
#     4   9  17  35  59  81 116 158 188 224 287 352
#     4  10  22  41  62  83 113 156 197 233 285 349
#     4  10  20  39  62  81 110 152 196 238 283 340
#
# _framework density 22.057924
#
# number of rings (size 3 to 8) (size 9 to 14) (size 15 to 20)
#    0.000    1.846    2.308    2.769    1.077    0.615 
#    5.538    7.692    0.000    4.615    0.000    0.000 
#    0.000    0.000    0.000    0.000    0.000    0.000 
#
# Total GULP energy -289813.897018 kJ/mol
# GULP energy per Si atom -5573.344173 kJ/mol
# Density = 2.200772 g / cm^3
# Si number density = 22.057924 Si / 1000 Ang^3
#
#
#
# Elastic Constant Matrix: (Units=GPa)
#
#
# Indices 1 2 3 4 5 6 
#
# 1 221.0399 86.2781 13.4753 0.0000 0.0000 0.0000
# 2 86.2781 120.2947 5.4718 0.0000 0.0000 0.0000
# 3 13.4753 5.4718 62.7192 0.0000 0.0000 0.0000
# 4 0.0000 0.0000 0.0000 17.8327 0.0000 0.0000
# 5 0.0000 0.0000 0.0000 0.0000 19.1060 0.0000
# 6 0.0000 0.0000 0.0000 0.0000 0.0000 4.2068
#
#
#
# Elastic Compliance Matrix: (Units=1/GPa)
#
#
# Indices 1 2 3 4 5 6 
#
# 1 0.006341 -0.004504 -0.000969 0.000000 0.000000 0.000000
# 2 -0.004504 0.011545 -0.000040 0.000000 0.000000 0.000000
# 3 -0.000969 -0.000040 0.016156 0.000000 0.000000 0.000000
# 4 0.000000 0.000000 0.000000 0.056077 0.000000 0.000000
# 5 0.000000 0.000000 0.000000 0.000000 0.052339 0.000000
# 6 0.000000 0.000000 0.000000 0.000000 0.000000 0.237710
#
#
# Mechanical properties :
#
#
# Convention : Reuss Voigt Hill
#
# Bulk Modulus (GPa) = 43.44781 68.27825 55.86303
# Shear Modulus (GPa) = 12.53553 28.15102 20.34328
#
# Velocity S-wave (km/s) = 2.38649 3.57631 3.04018
# Velocity P-wave (km/s) = 5.22816 6.93359 6.14037
#
# Compressibility (1/GPa) = 0.02301612
#
# Stress axis : x y z
#
# Youngs Moduli (GPa) = 157.69913 86.61720 61.89722
#
# Poissons Ratio (x) = 0.39012 0.06001
# Poissons Ratio (y) = 0.71027 0.00245
# Poissons Ratio (z) = 0.15288 0.00343
#
# Static dielectric constant tensor:
#      x y z
#    x 1.816270 0.000000 0.000000 
#    y 0.000000 1.790780 0.000000 
#    z 0.000000 0.000000 1.963980 
# 
# From -- ./inp_files/13987.got.cif
#   From: 2010.05.17/outbox.cif.g08.bks.cpg/sg67_7_cif.got.tgz:13987.got - 2010.06.03 18:28:57.
