data_PCOD9502792
_publ_section_title
;
Structure prediction by ZEFSAII (Michael W. Deem and Ramdas Pophale) SiO2 
 PCOD9502792
Probable space group: C M M A
;
_chemical_formula_sum "Si O2"
_cell_formula_units_Z 72
_cell_length_a 32.563112
_cell_length_b 8.643256
_cell_length_c 13.708682
_cell_angle_alpha 90.000000
_cell_angle_beta 90.000000
_cell_angle_gamma 90.000000
_cell_volume 3858.326551
_symmetry_space_group_name_H-M "C M M A"
_symmetry_group_IT_number 67
_symmetry_cell_setting 'orthorhombic'
loop_
_space_group_symop_operation_xyz
x,y,z
-x,1/2-y,z
x,-y,-z
-x,1/2+y,-z
-x,-y,-z
x,1/2+y,-z
-x,y,z
x,1/2-y,z
1/2+x,1/2+y,z
1/2-x,-y,z
1/2+x,1/2-y,-z
1/2-x,y,-z
1/2-x,1/2-y,-z
1/2+x,y,-z
1/2-x,1/2+y,z
1/2+x,-y,z
loop_
_atom_site_type_symbol
_atom_site_label
_atom_site_fract_x
_atom_site_fract_y
_atom_site_fract_z
Si Si1 0.916289 0.564850 0.697895
Si Si2 0.293680 0.064722 0.193812
Si Si3 0.000000 0.935247 0.390563
Si Si4 0.333994 0.435973 0.395594
Si Si5 0.119988 0.936241 0.105095
O O1 0.916615 0.750000 0.693570
O O2 0.959221 0.497179 0.661869
O O3 0.879051 0.500939 0.631169
O O4 0.906315 0.506951 0.806973
O O5 0.291768 0.250000 0.192260
O O6 0.304936 0.017125 0.305005
O O7 0.332666 0.017995 0.128491
O O8 0.250000 0.000000 0.162933
O O9 0.000000 0.750000 0.391798
O O10 0.000000 0.000000 0.500000
O O11 0.320630 0.500000 0.500000
O O12 0.335936 0.250000 0.398014
O O13 0.117334 0.750000 0.108402
O O14 0.107962 0.000000 0.000000
#
# Coordination Sequence:
#
# PCOD9502792 Si02
#       5
#    16  16   8  16  16
#     4  11  22  38  59  85 114 147 185 229 276 328
#     4   9  20  35  52  76 109 143 184 232 279 329
#     4  12  24  40  61  88 121 154 186 226 270 322
#     4  10  20  35  53  77 108 147 188 229 277 334
#     4  10  21  39  60  84 111 146 186 229 279 333
#
# _framework density 18.66094
#
# number of rings (size 3 to 8) (size 9 to 14) (size 15 to 20)
#    0.000    1.778    0.000    6.333    0.000    6.222 
#    0.000    5.000    0.000    0.000    0.000    0.000 
#    0.000    0.000    0.000    0.000    0.000    0.000 
#
# Total GULP energy -201175.880343 kJ/mol
# GULP energy per Si atom -5588.218898 kJ/mol
# Density = 1.861847 g / cm^3
# Si number density = 18.660940 Si / 1000 Ang^3
#
#
#
# Elastic Constant Matrix: (Units=GPa)
#
#
# Indices 1 2 3 4 5 6 
#
# 1 93.8676 24.2860 18.3789 0.0000 0.0000 0.0000
# 2 24.2860 99.8320 27.8658 0.0000 0.0000 0.0000
# 3 18.3789 27.8658 97.8338 0.0000 0.0000 0.0000
# 4 0.0000 0.0000 0.0000 30.5003 0.0000 0.0000
# 5 0.0000 0.0000 0.0000 0.0000 3.9068 0.0000
# 6 0.0000 0.0000 0.0000 0.0000 0.0000 28.7030
#
#
#
# Elastic Compliance Matrix: (Units=1/GPa)
#
#
# Indices 1 2 3 4 5 6 
#
# 1 0.011565 -0.002398 -0.001490 0.000000 0.000000 0.000000
# 2 -0.002398 0.011379 -0.002791 0.000000 0.000000 0.000000
# 3 -0.001490 -0.002791 0.011296 0.000000 0.000000 0.000000
# 4 0.000000 0.000000 0.000000 0.032787 0.000000 0.000000
# 5 0.000000 0.000000 0.000000 0.000000 0.255964 0.000000
# 6 0.000000 0.000000 0.000000 0.000000 0.000000 0.034840
#
#
# Mechanical properties :
#
#
# Convention : Reuss Voigt Hill
#
# Bulk Modulus (GPa) = 47.88256 48.06610 47.97433
# Shear Modulus (GPa) = 13.22232 27.35553 20.28893
#
# Velocity S-wave (km/s) = 2.66476 3.83289 3.30091
# Velocity P-wave (km/s) = 5.93152 6.73807 6.34762
#
# Compressibility (1/GPa) = 0.02088443
#
# Stress axis : x y z
#
# Youngs Moduli (GPa) = 86.46535 87.88083 88.52590
#
# Poissons Ratio (x) = 0.21071 0.13188
# Poissons Ratio (y) = 0.20731 0.24704
# Poissons Ratio (z) = 0.12881 0.24524
#
# Static dielectric constant tensor:
#      x y z
#    x 1.623450 0.000000 0.000000 
#    y 0.000000 1.631290 0.000000 
#    z 0.000000 0.000000 1.649150 
# 
# From -- ./inp_files/25326.got.cif
#   From: 2010.05.17/outbox.cif.g08.bks.cpg/sg67_13_cif.got.tgz:25326.got - 2010.06.03 18:28:57.
