data_PCOD9502535
_publ_section_title
;
Structure prediction by ZEFSAII (Michael W. Deem and Ramdas Pophale) SiO2 
 PCOD9502535
Probable space group: C M M A
;
_chemical_formula_sum "Si O2"
_cell_formula_units_Z 60
_cell_length_a 11.029589
_cell_length_b 9.482975
_cell_length_c 32.217324
_cell_angle_alpha 90.000000
_cell_angle_beta 90.000000
_cell_angle_gamma 90.000000
_cell_volume 3369.716774
_symmetry_space_group_name_H-M "C M M A"
_symmetry_group_IT_number 67
_symmetry_cell_setting 'orthorhombic'
loop_
_space_group_symop_operation_xyz
x,y,z
-x,1/2-y,z
x,-y,-z
-x,1/2+y,-z
-x,-y,-z
x,1/2+y,-z
-x,y,z
x,1/2-y,z
1/2+x,1/2+y,z
1/2-x,-y,z
1/2+x,1/2-y,-z
1/2-x,y,-z
1/2-x,1/2-y,-z
1/2+x,y,-z
1/2-x,1/2+y,z
1/2+x,-y,z
loop_
_atom_site_type_symbol
_atom_site_label
_atom_site_fract_x
_atom_site_fract_y
_atom_site_fract_z
Si Si1 0.643281 0.750000 0.054652
Si Si2 0.250000 0.000000 0.797358
Si Si3 0.143273 0.250000 0.147987
Si Si4 0.147132 0.750000 0.352371
Si Si5 0.750000 0.500000 0.407787
Si Si6 0.750000 0.500000 0.000000
Si Si7 0.357132 0.250000 0.257299
Si Si8 0.500000 0.082357 0.543353
O O1 0.500000 0.750000 0.057907
O O2 0.696807 0.750000 0.101320
O O3 0.679199 0.609031 0.029670
O O4 0.320892 0.108915 0.827056
O O5 0.179777 0.109277 0.767623
O O6 0.000000 0.250000 0.144729
O O7 0.200447 0.880122 0.377511
O O8 0.189907 0.750000 0.304503
O O9 0.000000 0.750000 0.353678
O O10 0.628671 0.544628 0.433772
O O11 0.500000 0.250000 0.260319
O O12 0.500000 0.250000 0.536862
O O13 0.500000 0.000000 0.500000
#
# Coordination Sequence:
#
# PCOD9502535 Si02
#       8
#     8   8   8   8   8   4   8   8
#     4  10  20  34  52  77 105 145 185 234 286 339
#     4  10  20  36  56  82 112 148 186 234 280 346
#     4  10  20  34  55  79 110 144 187 233 287 336
#     4  11  23  40  65  91 122 160 196 246 292 350
#     4  12  24  44  66  94 126 160 202 246 294 348
#     4  10  20  34  52  74 108 142 188 234 280 342
#     4  10  21  37  58  86 116 149 190 230 290 341
#     4  12  28  44  68  96 126 162 204 246 296 350
#
# _framework density 17.805651000000001
#
# number of rings (size 3 to 8) (size 9 to 14) (size 15 to 20)
#    0.000    1.333    2.667    3.200    1.867    1.067 
#    0.000    0.000    2.933   12.800    0.000    0.000 
#    0.000    0.000    0.000    0.000    0.000    0.000 
#
# Total GULP energy -167145.924948 kJ/mol
# GULP energy per Si atom -5571.530832 kJ/mol
# Density = 1.776512 g / cm^3
# Si number density = 17.805651 Si / 1000 Ang^3
#
#
#
# Elastic Constant Matrix: (Units=GPa)
#
#
# Indices 1 2 3 4 5 6 
#
# 1 98.5801 58.3086 68.6416 0.0000 0.0000 0.0000
# 2 58.3086 185.2736 97.7360 0.0000 0.0000 0.0000
# 3 68.6416 97.7360 178.2589 0.0000 0.0000 0.0000
# 4 0.0000 0.0000 0.0000 36.9705 0.0000 0.0000
# 5 0.0000 0.0000 0.0000 0.0000 31.6998 0.0000
# 6 0.0000 0.0000 0.0000 0.0000 0.0000 14.6890
#
#
#
# Elastic Compliance Matrix: (Units=1/GPa)
#
#
# Indices 1 2 3 4 5 6 
#
# 1 0.014513 -0.002278 -0.004339 0.000000 0.000000 0.000000
# 2 -0.002278 0.007951 -0.003482 0.000000 0.000000 0.000000
# 3 -0.004339 -0.003482 0.009190 0.000000 0.000000 0.000000
# 4 0.000000 0.000000 0.000000 0.027049 0.000000 0.000000
# 5 0.000000 0.000000 0.000000 0.000000 0.031546 0.000000
# 6 0.000000 0.000000 0.000000 0.000000 0.000000 0.068078
#
#
# Mechanical properties :
#
#
# Convention : Reuss Voigt Hill
#
# Bulk Modulus (GPa) = 87.30143 101.27614 94.28878
# Shear Modulus (GPa) = 27.42047 32.50029 29.96038
#
# Velocity S-wave (km/s) = 3.92852 4.27696 4.10644
# Velocity P-wave (km/s) = 8.34951 9.02175 8.69213
#
# Compressibility (1/GPa) = 0.01145457
#
# Stress axis : x y z
#
# Youngs Moduli (GPa) = 68.90290 125.76285 108.81373
#
# Poissons Ratio (x) = 0.28654 0.47218
# Poissons Ratio (y) = 0.15699 0.37892
# Poissons Ratio (z) = 0.29899 0.43794
#
# Static dielectric constant tensor:
#      x y z
#    x 1.608240 0.000000 0.000000 
#    y 0.000000 1.682040 0.000000 
#    z 0.000000 0.000000 1.621030 
# 
# From -- ./inp_files/45472.got.cif
#   From: 2010.05.17/outbox.cif.g08.bks.cpg/sg67_23_cif.got.tgz:45472.got - 2010.06.03 18:28:57.
