data_PCOD9502489
_publ_section_title
;
Structure prediction by ZEFSAII (Michael W. Deem and Ramdas Pophale) SiO2 
 PCOD9502489
Probable space group: C M M A
;
_chemical_formula_sum "Si O2"
_cell_formula_units_Z 80
_cell_length_a 15.221016
_cell_length_b 18.569590
_cell_length_c 14.170303
_cell_angle_alpha 90.000000
_cell_angle_beta 90.000000
_cell_angle_gamma 90.000000
_cell_volume 4005.208178
_symmetry_space_group_name_H-M "C M M A"
_symmetry_group_IT_number 67
_symmetry_cell_setting 'orthorhombic'
loop_
_space_group_symop_operation_xyz
x,y,z
-x,1/2-y,z
x,-y,-z
-x,1/2+y,-z
-x,-y,-z
x,1/2+y,-z
-x,y,z
x,1/2-y,z
1/2+x,1/2+y,z
1/2-x,-y,z
1/2+x,1/2-y,-z
1/2-x,y,-z
1/2-x,1/2-y,-z
1/2+x,y,-z
1/2-x,1/2+y,z
1/2+x,-y,z
loop_
_atom_site_type_symbol
_atom_site_label
_atom_site_fract_x
_atom_site_fract_y
_atom_site_fract_z
Si Si1 0.107027 0.167741 0.407253
Si Si2 0.398393 0.117545 0.389228
Si Si3 0.351843 0.022757 0.100177
Si Si4 0.893453 0.330694 0.814104
Si Si5 0.350945 0.025398 0.698108
O O1 0.132827 0.250000 0.386736
O O2 0.138889 0.144922 0.512211
O O3 0.139758 0.106474 0.336313
O O4 0.000000 0.164609 0.405965
O O5 0.500000 0.140094 0.391134
O O6 0.361688 0.151136 0.292400
O O7 0.394017 0.031532 0.374373
O O8 0.358985 0.107817 0.117179
O O9 0.250000 0.000000 0.097755
O O10 0.388753 0.987697 0.196778
O O11 0.391464 0.000000 0.000000
O O12 0.868211 0.250000 0.839758
O O13 0.000000 0.335490 0.813872
O O14 0.250000 0.000000 0.700034
#
# Coordination Sequence:
#
# PCOD9502489 Si02
#       5
#    16  16  16  16  16
#     4  10  20  34  52  75 105 139 170 199 239 297
#     4   9  17  31  52  74  99 136 176 206 236 286
#     4   9  19  37  55  72  97 133 173 206 247 306
#     4   9  17  31  53  80 104 126 163 216 258 284
#     4  10  20  34  51  74 101 131 169 210 253 297
#
# _framework density 19.973991999999999
#
# number of rings (size 3 to 8) (size 9 to 14) (size 15 to 20)
#    0.000    2.600    0.000    1.800    0.000    6.800 
#    0.000   14.000    0.000    2.400    0.000    0.000 
#    0.000    0.000    0.000    0.000    0.000    0.000 
#
# Total GULP energy -223137.352974 kJ/mol
# GULP energy per Si atom -5578.433824 kJ/mol
# Density = 1.992853 g / cm^3
# Si number density = 19.973992 Si / 1000 Ang^3
#
#
#
# Elastic Constant Matrix: (Units=GPa)
#
#
# Indices 1 2 3 4 5 6 
#
# 1 43.1884 20.7808 10.3595 0.0000 0.0000 0.0000
# 2 20.7808 214.0369 99.0412 0.0000 0.0000 0.0000
# 3 10.3595 99.0412 113.8889 0.0000 0.0000 0.0000
# 4 0.0000 0.0000 0.0000 17.7061 0.0000 0.0000
# 5 0.0000 0.0000 0.0000 0.0000 9.3849 0.0000
# 6 0.0000 0.0000 0.0000 0.0000 0.0000 15.5213
#
#
#
# Elastic Compliance Matrix: (Units=1/GPa)
#
#
# Indices 1 2 3 4 5 6 
#
# 1 0.024294 -0.002236 -0.000265 0.000000 0.000000 0.000000
# 2 -0.002236 0.008024 -0.006774 0.000000 0.000000 0.000000
# 3 -0.000265 -0.006774 0.014696 0.000000 0.000000 0.000000
# 4 0.000000 0.000000 0.000000 0.056478 0.000000 0.000000
# 5 0.000000 0.000000 0.000000 0.000000 0.106554 0.000000
# 6 0.000000 0.000000 0.000000 0.000000 0.000000 0.064428
#
#
# Mechanical properties :
#
#
# Convention : Reuss Voigt Hill
#
# Bulk Modulus (GPa) = 35.13433 70.16413 52.64923
# Shear Modulus (GPa) = 16.52825 24.58462 20.55643
#
# Velocity S-wave (km/s) = 2.87973 3.51213 3.21153
# Velocity P-wave (km/s) = 5.35587 7.18684 6.33783
#
# Compressibility (1/GPa) = 0.02846219
#
# Stress axis : x y z
#
# Youngs Moduli (GPa) = 41.16263 124.62751 68.04623
#
# Poissons Ratio (x) = 0.27865 0.01806
# Poissons Ratio (y) = 0.09203 0.46098
# Poissons Ratio (z) = 0.01093 0.84428
#
# Static dielectric constant tensor:
#      x y z
#    x 1.767020 0.000000 0.000000 
#    y 0.000000 1.690740 0.000000 
#    z 0.000000 0.000000 1.733750 
# 
# From -- ./inp_files/26984.got.cif
#   From: 2010.05.17/outbox.cif.g08.bks.cpg/sg67_14_cif.got.tgz:26984.got - 2010.06.03 18:28:57.
