data_PCOD9502256
_publ_section_title
;
Structure prediction by ZEFSAII (Michael W. Deem and Ramdas Pophale) SiO2 
 PCOD9502256
Probable space group: C M M A
;
_chemical_formula_sum "Si O2"
_cell_formula_units_Z 80
_cell_length_a 27.616341
_cell_length_b 8.706951
_cell_length_c 20.167975
_cell_angle_alpha 90.000000
_cell_angle_beta 90.000000
_cell_angle_gamma 90.000000
_cell_volume 4849.472840
_symmetry_space_group_name_H-M "C M M A"
_symmetry_group_IT_number 67
_symmetry_cell_setting 'orthorhombic'
loop_
_space_group_symop_operation_xyz
x,y,z
-x,1/2-y,z
x,-y,-z
-x,1/2+y,-z
-x,-y,-z
x,1/2+y,-z
-x,y,z
x,1/2-y,z
1/2+x,1/2+y,z
1/2-x,-y,z
1/2+x,1/2-y,-z
1/2-x,y,-z
1/2-x,1/2-y,-z
1/2+x,y,-z
1/2-x,1/2+y,z
1/2+x,-y,z
loop_
_atom_site_type_symbol
_atom_site_label
_atom_site_fract_x
_atom_site_fract_y
_atom_site_fract_z
Si Si1 0.441464 0.575035 0.568286
Si Si2 0.196349 0.565744 0.926862
Si Si3 0.943498 0.933070 0.710245
Si Si4 0.442463 0.923993 0.067818
Si Si5 0.382196 0.070792 0.173688
O O1 0.423444 0.500000 0.500000
O O2 0.500000 0.580839 0.563068
O O3 0.424187 0.750000 0.575545
O O4 0.432051 0.478658 0.634526
O O5 0.197507 0.750000 0.930508
O O6 0.250000 0.500000 0.914017
O O7 0.160936 0.511123 0.867605
O O8 0.182444 0.500000 0.000000
O O9 0.943219 0.750000 0.718888
O O10 0.000000 0.984217 0.723971
O O11 0.902324 0.004068 0.757366
O O12 0.500000 0.912703 0.065216
O O13 0.423328 0.750000 0.076997
O O14 0.427425 0.036314 0.125814
O O15 0.425466 0.000000 0.000000
O O16 0.371381 0.250000 0.179705
#
# Coordination Sequence:
#
# PCOD9502256 Si02
#       5
#    16  16  16  16  16
#     4   9  16  27  44  66  93 128 168 206 242 282
#     4  11  22  39  59  78  98 121 155 199 248 298
#     4  10  20  33  48  69  99 134 170 207 246 288
#     4  10  20  33  47  64  88 120 158 197 235 277
#     4  12  23  34  49  70  96 126 159 196 242 292
#
# _framework density 16.496637
#
# number of rings (size 3 to 8) (size 9 to 14) (size 15 to 20)
#    0.000    1.600    0.000    7.200    0.000    7.200 
#    0.000    0.000    0.000    0.000    0.000    0.000 
#    0.000    0.800    0.000    8.000    0.000    5.200 
#
# Total GULP energy -223054.806841 kJ/mol
# GULP energy per Si atom -5576.370171 kJ/mol
# Density = 1.645909 g / cm^3
# Si number density = 16.496637 Si / 1000 Ang^3
#
#
#
# Elastic Constant Matrix: (Units=GPa)
#
#
# Indices 1 2 3 4 5 6 
#
# 1 78.8925 41.8145 42.3265 0.0000 0.0000 0.0000
# 2 41.8145 119.4972 40.8802 0.0000 0.0000 0.0000
# 3 42.3265 40.8802 113.9279 0.0000 0.0000 0.0000
# 4 0.0000 0.0000 0.0000 28.7097 0.0000 0.0000
# 5 0.0000 0.0000 0.0000 0.0000 27.2723 0.0000
# 6 0.0000 0.0000 0.0000 0.0000 0.0000 55.0928
#
#
#
# Elastic Compliance Matrix: (Units=1/GPa)
#
#
# Indices 1 2 3 4 5 6 
#
# 1 0.017729 -0.004503 -0.004971 0.000000 0.000000 0.000000
# 2 -0.004503 0.010683 -0.002160 0.000000 0.000000 0.000000
# 3 -0.004971 -0.002160 0.011399 0.000000 0.000000 0.000000
# 4 0.000000 0.000000 0.000000 0.034831 0.000000 0.000000
# 5 0.000000 0.000000 0.000000 0.000000 0.036667 0.000000
# 6 0.000000 0.000000 0.000000 0.000000 0.000000 0.018151
#
#
# Mechanical properties :
#
#
# Convention : Reuss Voigt Hill
#
# Bulk Modulus (GPa) = 60.44888 62.48443 61.46666
# Shear Modulus (GPa) = 31.59657 34.70140 33.14898
#
# Velocity S-wave (km/s) = 4.38120 4.59142 4.48754
# Velocity P-wave (km/s) = 7.89404 8.12819 8.01197
#
# Compressibility (1/GPa) = 0.01654290
#
# Stress axis : x y z
#
# Youngs Moduli (GPa) = 56.40414 93.60449 87.72348
#
# Poissons Ratio (x) = 0.42153 0.43606
# Poissons Ratio (y) = 0.25400 0.18952
# Poissons Ratio (z) = 0.28038 0.20222
#
# Static dielectric constant tensor:
#      x y z
#    x 1.568170 0.000000 0.000000 
#    y 0.000000 1.552530 0.000000 
#    z 0.000000 0.000000 1.537230 
# 
# From -- ./inp_files/36072.got.cif
#   From: 2010.05.17/outbox.cif.g08.bks.cpg/sg67_19_cif.got.tgz:36072.got - 2010.06.03 18:28:57.
