data_PCOD9502790
_publ_section_title
;
Structure prediction by ZEFSAII (Michael W. Deem and Ramdas Pophale) SiO2 
 PCOD9502790
Probable space group: C M M A
;
_chemical_formula_sum "Si O2"
_cell_formula_units_Z 64
_cell_length_a 39.745424
_cell_length_b 8.732175
_cell_length_c 10.491892
_cell_angle_alpha 90.000000
_cell_angle_beta 90.000000
_cell_angle_gamma 90.000000
_cell_volume 3641.357982
_symmetry_space_group_name_H-M "C M M A"
_symmetry_group_IT_number 67
_symmetry_cell_setting 'orthorhombic'
loop_
_space_group_symop_operation_xyz
x,y,z
-x,1/2-y,z
x,-y,-z
-x,1/2+y,-z
-x,-y,-z
x,1/2+y,-z
-x,y,z
x,1/2-y,z
1/2+x,1/2+y,z
1/2-x,-y,z
1/2+x,1/2-y,-z
1/2-x,y,-z
1/2-x,1/2-y,-z
1/2+x,y,-z
1/2-x,1/2+y,z
1/2+x,-y,z
loop_
_atom_site_type_symbol
_atom_site_label
_atom_site_fract_x
_atom_site_fract_y
_atom_site_fract_z
Si Si1 0.787205 0.065352 0.637636
Si Si2 0.460545 0.066791 0.637699
Si Si3 0.162819 0.565891 0.136643
Si Si4 0.084773 0.433800 0.862194
O O1 0.785724 0.250000 0.631313
O O2 0.812957 0.018580 0.748437
O O3 0.797650 0.000000 0.500000
O O4 0.750000 0.000000 0.663853
O O5 0.500000 0.028074 0.657470
O O6 0.457396 0.250000 0.635614
O O7 0.450587 0.000000 0.500000
O O8 0.438252 0.998106 0.750151
O O9 0.163762 0.750000 0.129394
O O10 0.123906 0.520824 0.158950
O O11 0.173424 0.500000 0.000000
O O12 0.082856 0.250000 0.865102
O O13 0.074689 0.500000 0.000000
#
# Coordination Sequence:
#
# PCOD9502790 Si02
#       4
#    16  16  16  16
#     4  10  20  35  53  76 104 135 172 212 256 305
#     4  10  21  37  56  79 107 139 175 216 262 311
#     4   9  20  36  54  77 105 136 172 213 257 306
#     4  10  20  36  56  79 107 139 176 217 261 310
#
# _framework density 17.575859999999999
#
# number of rings (size 3 to 8) (size 9 to 14) (size 15 to 20)
#    0.000    2.250    0.000    3.000    0.000    6.500 
#    0.000    5.000    0.000    0.000    0.000    0.000 
#    0.000    0.000    0.000    0.000    0.000    0.000 
#
# Total GULP energy -178634.886032 kJ/mol
# GULP energy per Si atom -5582.340189 kJ/mol
# Density = 1.753586 g / cm^3
# Si number density = 17.575860 Si / 1000 Ang^3
#
#
#
# Elastic Constant Matrix: (Units=GPa)
#
#
# Indices 1 2 3 4 5 6 
#
# 1 85.5610 40.5153 120.8312 0.0000 0.0000 0.0000
# 2 40.5153 50.5124 60.6171 0.0000 0.0000 0.0000
# 3 120.8312 60.6171 212.2509 0.0000 0.0000 0.0000
# 4 0.0000 0.0000 0.0000 36.4590 0.0000 0.0000
# 5 0.0000 0.0000 0.0000 0.0000 44.1328 0.0000
# 6 0.0000 0.0000 0.0000 0.0000 0.0000 13.9905
#
#
#
# Elastic Compliance Matrix: (Units=1/GPa)
#
#
# Indices 1 2 3 4 5 6 
#
# 1 0.063748 -0.011534 -0.032997 0.000000 0.000000 0.000000
# 2 -0.011534 0.032207 -0.002632 0.000000 0.000000 0.000000
# 3 -0.032997 -0.002632 0.024248 0.000000 0.000000 0.000000
# 4 0.000000 0.000000 0.000000 0.027428 0.000000 0.000000
# 5 0.000000 0.000000 0.000000 0.000000 0.022659 0.000000
# 6 0.000000 0.000000 0.000000 0.000000 0.000000 0.071477
#
#
# Mechanical properties :
#
#
# Convention : Reuss Voigt Hill
#
# Bulk Modulus (GPa) = 38.64401 88.02797 63.33599
# Shear Modulus (GPa) = 14.50465 27.34049 20.92257
#
# Velocity S-wave (km/s) = 2.87585 3.94835 3.45398
# Velocity P-wave (km/s) = 5.74996 8.42492 7.21254
#
# Compressibility (1/GPa) = 0.02587723
#
# Stress axis : x y z
#
# Youngs Moduli (GPa) = 15.68680 31.04951 41.24113
#
# Poissons Ratio (x) = 0.35812 1.36082
# Poissons Ratio (y) = 0.18093 0.10855
# Poissons Ratio (z) = 0.51761 0.08172
#
# Static dielectric constant tensor:
#      x y z
#    x 1.589610 0.000000 0.000000 
#    y 0.000000 1.590900 0.000000 
#    z 0.000000 0.000000 1.565880 
# 
# From -- ./inp_files/23390.got.cif
#   From: 2010.05.17/outbox.cif.g08.bks.cpg/sg67_12_cif.got.tgz:23390.got - 2010.06.03 18:28:57.
