data_PCOD9502017
_publ_section_title
;
Structure prediction by ZEFSAII (Michael W. Deem and Ramdas Pophale) SiO2 
 PCOD9502017
Probable space group: C M M A
;
_chemical_formula_sum "Si O2"
_cell_formula_units_Z 80
_cell_length_a 24.420177
_cell_length_b 8.450538
_cell_length_c 21.052081
_cell_angle_alpha 90.000000
_cell_angle_beta 90.000000
_cell_angle_gamma 90.000000
_cell_volume 4344.383932
_symmetry_space_group_name_H-M "C M M A"
_symmetry_group_IT_number 67
_symmetry_cell_setting 'orthorhombic'
loop_
_space_group_symop_operation_xyz
x,y,z
-x,1/2-y,z
x,-y,-z
-x,1/2+y,-z
-x,-y,-z
x,1/2+y,-z
-x,y,z
x,1/2-y,z
1/2+x,1/2+y,z
1/2-x,-y,z
1/2+x,1/2-y,-z
1/2-x,y,-z
1/2-x,1/2-y,-z
1/2+x,y,-z
1/2-x,1/2+y,z
1/2+x,-y,z
loop_
_atom_site_type_symbol
_atom_site_label
_atom_site_fract_x
_atom_site_fract_y
_atom_site_fract_z
Si Si1 0.382706 0.440813 0.930692
Si Si2 0.881536 0.058664 0.690100
Si Si3 0.811329 0.060051 0.570231
Si Si4 0.188116 0.060051 0.190227
Si Si5 0.500000 0.558541 0.734159
Si Si6 0.000000 0.558601 0.879007
O O1 0.382894 0.250000 0.931148
O O2 0.342385 0.492991 0.874310
O O3 0.444418 0.495000 0.913452
O O4 0.366642 0.500000 0.000000
O O5 0.881152 0.250000 0.690212
O O6 0.853044 0.006023 0.624797
O O7 0.944109 0.005744 0.700148
O O8 0.845903 0.001168 0.749597
O O9 0.810078 0.250000 0.569204
O O10 0.825920 0.000000 0.500000
O O11 0.750000 0.000000 0.584830
O O12 0.187898 0.250000 0.191520
O O13 0.250000 0.000000 0.192489
O O14 0.500000 0.750000 0.735392
O O15 0.500000 0.498977 0.806520
O O16 0.000000 0.750000 0.878429
#
# Coordination Sequence:
#
# PCOD9502017 Si02
#       6
#    16  16  16  16   8   8
#     4  10  22  37  56  80 109 143 181 228 278 332
#     4  10  21  37  58  85 114 146 185 228 274 327
#     4  10  20  35  56  83 114 147 185 226 270 321
#     4  11  23  38  57  81 110 145 185 231 279 332
#     4  10  20  35  58  85 112 145 182 225 276 326
#     4  10  19  37  57  81 111 139 181 231 277 328
#
# _framework density 18.414577999999999
#
# number of rings (size 3 to 8) (size 9 to 14) (size 15 to 20)
#    0.000    1.800    2.000    2.700    0.000    6.000 
#    0.000    2.500    0.000    0.000    0.000    0.000 
#    0.000    0.000    0.000    0.000    0.000    0.000 
#
# Total GULP energy -223431.407617 kJ/mol
# GULP energy per Si atom -5585.785190 kJ/mol
# Density = 1.837267 g / cm^3
# Si number density = 18.414578 Si / 1000 Ang^3
#
#
#
# Elastic Constant Matrix: (Units=GPa)
#
#
# Indices 1 2 3 4 5 6 
#
# 1 162.0216 18.6356 99.0342 0.0000 0.0000 0.0000
# 2 18.6356 12.3862 18.9382 0.0000 0.0000 0.0000
# 3 99.0342 18.9382 162.8359 0.0000 0.0000 0.0000
# 4 0.0000 0.0000 0.0000 26.2249 0.0000 0.0000
# 5 0.0000 0.0000 0.0000 0.0000 40.5416 0.0000
# 6 0.0000 0.0000 0.0000 0.0000 0.0000 4.3694
#
#
#
# Elastic Compliance Matrix: (Units=1/GPa)
#
#
# Indices 1 2 3 4 5 6 
#
# 1 0.010329 -0.007219 -0.005442 0.000000 0.000000 0.000000
# 2 -0.007219 0.103242 -0.007617 0.000000 0.000000 0.000000
# 3 -0.005442 -0.007617 0.010337 0.000000 0.000000 0.000000
# 4 0.000000 0.000000 0.000000 0.038132 0.000000 0.000000
# 5 0.000000 0.000000 0.000000 0.000000 0.024666 0.000000
# 6 0.000000 0.000000 0.000000 0.000000 0.000000 0.228863
#
#
# Mechanical properties :
#
#
# Convention : Reuss Voigt Hill
#
# Bulk Modulus (GPa) = 11.99738 67.82888 39.91313
# Shear Modulus (GPa) = 10.33253 27.60290 18.96771
#
# Velocity S-wave (km/s) = 2.37134 3.87585 3.21290
# Velocity P-wave (km/s) = 3.74526 7.54612 5.95697
#
# Compressibility (1/GPa) = 0.08335153
#
# Stress axis : x y z
#
# Youngs Moduli (GPa) = 96.81582 9.68598 96.74083
#
# Poissons Ratio (x) = 0.06992 0.52649
# Poissons Ratio (y) = 0.69893 0.73685
# Poissons Ratio (z) = 0.52690 0.07378
#
# Static dielectric constant tensor:
#      x y z
#    x 1.628440 0.000000 0.000000 
#    y 0.000000 1.629290 0.000000 
#    z 0.000000 0.000000 1.606420 
# 
# From -- ./inp_files/39532.got.cif
#   From: 2010.05.17/outbox.cif.g08.bks.cpg/sg67_20_cif.got.tgz:39532.got - 2010.06.03 18:28:57.
