data_PCOD9502091
_publ_section_title
;
Structure prediction by ZEFSAII (Michael W. Deem and Ramdas Pophale) SiO2 
 PCOD9502091
Probable space group: C M M A
;
_chemical_formula_sum "Si O2"
_cell_formula_units_Z 112
_cell_length_a 27.122039
_cell_length_b 14.522456
_cell_length_c 17.712282
_cell_angle_alpha 90.000000
_cell_angle_beta 90.000000
_cell_angle_gamma 90.000000
_cell_volume 6976.489156
_symmetry_space_group_name_H-M "C M M A"
_symmetry_group_IT_number 67
_symmetry_cell_setting 'orthorhombic'
loop_
_space_group_symop_operation_xyz
x,y,z
-x,1/2-y,z
x,-y,-z
-x,1/2+y,-z
-x,-y,-z
x,1/2+y,-z
-x,y,z
x,1/2-y,z
1/2+x,1/2+y,z
1/2-x,-y,z
1/2+x,1/2-y,-z
1/2-x,y,-z
1/2-x,1/2-y,-z
1/2+x,y,-z
1/2-x,1/2+y,z
1/2+x,-y,z
loop_
_atom_site_type_symbol
_atom_site_label
_atom_site_fract_x
_atom_site_fract_y
_atom_site_fract_z
Si Si1 0.944480 0.500000 0.670410
Si Si2 0.843477 0.500000 0.411566
Si Si3 0.594899 0.640415 0.791129
Si Si4 0.805505 0.141181 0.707499
Si Si5 0.094899 0.359585 0.208871
Si Si6 0.194495 0.858819 0.707499
Si Si7 0.559275 0.500000 0.088224
O O1 0.901706 0.500000 0.608107
O O2 0.935239 0.411747 0.724867
O O3 0.935238 0.588253 0.724868
O O4 0.000000 0.500000 0.641578
O O5 0.834354 0.500000 0.500000
O O6 0.820029 0.586544 0.367765
O O7 0.820029 0.413456 0.367765
O O8 0.586516 0.750000 0.792856
O O9 0.652042 0.621912 0.768911
O O10 0.580164 0.588873 0.867697
O O11 0.807023 0.250000 0.693096
O O12 0.750000 0.116258 0.731006
O O13 0.086516 0.250000 0.207144
O O14 0.152042 0.378088 0.231089
O O15 0.080165 0.411127 0.132303
O O16 0.192977 0.750000 0.693096
O O17 0.500000 0.500000 0.096037
O O18 0.571618 0.500000 0.000000
#
# Coordination Sequence:
#
# PCOD9502091 Si02
#       7
#    16  16  16  16  16  16  16
#     4   9  18  31  46  66  90 117 156 199 229 262
#     4  10  20  31  44  66  95 124 153 186 229 279
#     4   9  17  31  51  70  90 119 153 189 226 265
#     4   9  18  32  50  71  92 117 152 191 228 267
#     4   9  17  31  51  70  90 119 153 189 226 265
#     4   9  18  32  50  71  92 117 152 191 228 267
#     4  10  21  33  45  69 101 124 147 182 223 270
#
# _framework density 16.053920000000002
#
# number of rings (size 3 to 8) (size 9 to 14) (size 15 to 20)
#    0.000    2.714    0.000    3.000    0.000    4.857 
#    0.000    2.857    0.000    1.714    0.000   12.000 
#    0.000    0.000    0.000    0.000    0.000    0.000 
#
# Total GULP energy -312045.978241 kJ/mol
# GULP energy per Si atom -5572.249611 kJ/mol
# Density = 1.601738 g / cm^3
# Si number density = 16.053920 Si / 1000 Ang^3
#
#
#
# Elastic Constant Matrix: (Units=GPa)
#
#
# Indices 1 2 3 4 5 6 
#
# 1 108.2905 30.7840 28.6705 0.0000 0.0000 0.0000
# 2 30.7840 101.3787 39.8505 0.0000 0.0000 0.0000
# 3 28.6705 39.8505 94.9390 0.0000 0.0000 0.0000
# 4 0.0000 0.0000 0.0000 17.4265 0.0000 0.0000
# 5 0.0000 0.0000 0.0000 0.0000 9.2254 0.0000
# 6 0.0000 0.0000 0.0000 0.0000 0.0000 14.1032
#
#
#
# Elastic Compliance Matrix: (Units=1/GPa)
#
#
# Indices 1 2 3 4 5 6 
#
# 1 0.010473 -0.002320 -0.002189 0.000000 0.000000 0.000000
# 2 -0.002320 0.012327 -0.004474 0.000000 0.000000 0.000000
# 3 -0.002189 -0.004474 0.013072 0.000000 0.000000 0.000000
# 4 0.000000 0.000000 0.000000 0.057384 0.000000 0.000000
# 5 0.000000 0.000000 0.000000 0.000000 0.108396 0.000000
# 6 0.000000 0.000000 0.000000 0.000000 0.000000 0.070906
#
#
# Mechanical properties :
#
#
# Convention : Reuss Voigt Hill
#
# Bulk Modulus (GPa) = 55.84342 55.91313 55.87827
# Shear Modulus (GPa) = 16.86386 21.83792 19.35089
#
# Velocity S-wave (km/s) = 3.24458 3.69221 3.47561
# Velocity P-wave (km/s) = 6.99263 7.28563 7.14063
#
# Compressibility (1/GPa) = 0.01790721
#
# Stress axis : x y z
#
# Youngs Moduli (GPa) = 95.47942 81.12304 76.49947
#
# Poissons Ratio (x) = 0.18819 0.16747
# Poissons Ratio (y) = 0.22149 0.34223
# Poissons Ratio (z) = 0.20902 0.36292
#
# Static dielectric constant tensor:
#      x y z
#    x 1.565720 0.000000 0.000000 
#    y 0.000000 1.543960 0.000000 
#    z 0.000000 0.000000 1.491750 
# 
# From -- ./inp_files/30821.got.cif
#   From: 2010.05.17/outbox.cif.g08.bks.cpg/sg67_16_cif.got.tgz:30821.got - 2010.06.03 18:28:57.
