data_PCOD9502388
_publ_section_title
;
Structure prediction by ZEFSAII (Michael W. Deem and Ramdas Pophale) SiO2 
 PCOD9502388
Probable space group: C M M A
;
_chemical_formula_sum "Si O2"
_cell_formula_units_Z 100
_cell_length_a 25.685397
_cell_length_b 9.402225
_cell_length_c 23.076653
_cell_angle_alpha 90.000000
_cell_angle_beta 90.000000
_cell_angle_gamma 90.000000
_cell_volume 5573.008972
_symmetry_space_group_name_H-M "C M M A"
_symmetry_group_IT_number 67
_symmetry_cell_setting 'orthorhombic'
loop_
_space_group_symop_operation_xyz
x,y,z
-x,1/2-y,z
x,-y,-z
-x,1/2+y,-z
-x,-y,-z
x,1/2+y,-z
-x,y,z
x,1/2-y,z
1/2+x,1/2+y,z
1/2-x,-y,z
1/2+x,1/2-y,-z
1/2-x,y,-z
1/2-x,1/2-y,-z
1/2+x,y,-z
1/2-x,1/2+y,z
1/2+x,-y,z
loop_
_atom_site_type_symbol
_atom_site_label
_atom_site_fract_x
_atom_site_fract_y
_atom_site_fract_z
Si Si1 0.301505 0.581178 0.262441
Si Si2 0.352709 0.587372 0.945282
Si Si3 0.801727 0.419642 0.398548
Si Si4 0.000000 0.922442 0.651156
Si Si5 0.084949 0.578887 0.557605
Si Si6 0.250000 0.500000 0.000000
Si Si7 0.000000 0.076988 0.216220
Si Si8 0.388157 0.578912 0.168037
O O1 0.292344 0.750000 0.258889
O O2 0.250000 0.500000 0.242096
O O3 0.309746 0.546569 0.330197
O O4 0.351118 0.548704 0.223011
O O5 0.370129 0.750000 0.943550
O O6 0.366466 0.504133 0.887193
O O7 0.375457 0.500000 0.000000
O O8 0.290497 0.584027 0.959291
O O9 0.794084 0.250000 0.403452
O O10 0.750000 0.500000 0.418623
O O11 0.854810 0.457600 0.430888
O O12 0.949693 0.962078 0.613170
O O13 0.000000 0.750000 0.654423
O O14 0.000000 0.974437 0.717087
O O15 0.066620 0.500000 0.500000
O O16 0.080717 0.750000 0.550875
O O17 0.052969 0.036300 0.183832
O O18 0.000000 0.250000 0.218445
O O19 0.386661 0.750000 0.157818
#
# Coordination Sequence:
#
# PCOD9502388 Si02
#       8
#    16  16  16   8  16   4   8  16
#     4   9  18  31  49  75 104 135 172 217 266 320
#     4  10  21  36  56  81 111 144 179 218 262 309
#     4   9  18  33  50  70 100 137 175 213 260 316
#     4   9  17  33  58  81 103 134 175 221 268 313
#     4  10  20  33  52  77 103 133 172 219 266 318
#     4   8  22  36  58  78 110 148 186 212 258 304
#     4   9  18  35  59  83 106 140 184 225 262 313
#     4  10  20  34  55  82 110 140 180 224 267 316
#
# _framework density 17.943628
#
# number of rings (size 3 to 8) (size 9 to 14) (size 15 to 20)
#    0.480    2.080    0.000    1.920    1.120    5.440 
#    0.000    2.400    0.000    3.840    0.000    0.000 
#    0.000    0.000    0.000    0.000    0.000    0.000 
#
# Total GULP energy -278652.766993 kJ/mol
# GULP energy per Si atom -5573.055340 kJ/mol
# Density = 1.790279 g / cm^3
# Si number density = 17.943628 Si / 1000 Ang^3
#
#
#
# Elastic Constant Matrix: (Units=GPa)
#
#
# Indices 1 2 3 4 5 6 
#
# 1 112.9062 28.5242 43.5237 0.0000 0.0000 0.0000
# 2 28.5242 34.1828 30.2810 0.0000 0.0000 0.0000
# 3 43.5237 30.2810 85.6081 0.0000 0.0000 0.0000
# 4 0.0000 0.0000 0.0000 21.8494 0.0000 0.0000
# 5 0.0000 0.0000 0.0000 0.0000 40.3557 0.0000
# 6 0.0000 0.0000 0.0000 0.0000 0.0000 5.9502
#
#
#
# Elastic Compliance Matrix: (Units=1/GPa)
#
#
# Indices 1 2 3 4 5 6 
#
# 1 0.011985 -0.006704 -0.003722 0.000000 0.000000 0.000000
# 2 -0.006704 0.046354 -0.012988 0.000000 0.000000 0.000000
# 3 -0.003722 -0.012988 0.018167 0.000000 0.000000 0.000000
# 4 0.000000 0.000000 0.000000 0.045768 0.000000 0.000000
# 5 0.000000 0.000000 0.000000 0.000000 0.024780 0.000000
# 6 0.000000 0.000000 0.000000 0.000000 0.000000 0.168062
#
#
# Mechanical properties :
#
#
# Convention : Reuss Voigt Hill
#
# Bulk Modulus (GPa) = 33.69388 48.59497 41.14443
# Shear Modulus (GPa) = 13.44674 22.32227 17.88450
#
# Velocity S-wave (km/s) = 2.74047 3.53090 3.16049
# Velocity P-wave (km/s) = 5.36954 6.61542 6.02477
#
# Compressibility (1/GPa) = 0.02967898
#
# Stress axis : x y z
#
# Youngs Moduli (GPa) = 83.43459 21.57307 55.04343
#
# Poissons Ratio (x) = 0.14463 0.20488
# Poissons Ratio (y) = 0.55936 0.71489
# Poissons Ratio (z) = 0.31055 0.28019
#
# Static dielectric constant tensor:
#      x y z
#    x 1.613300 0.000000 0.000000 
#    y 0.000000 1.595310 0.000000 
#    z 0.000000 0.000000 1.604730 
# 
# From -- ./inp_files/40015.got.cif
#   From: 2010.05.17/outbox.cif.g08.bks.cpg/sg67_21_cif.got.tgz:40015.got - 2010.06.03 18:28:57.
