data_PCOD9502403
_publ_section_title
;
Structure prediction by ZEFSAII (Michael W. Deem and Ramdas Pophale) SiO2 
 PCOD9502403
Probable space group: C M M A
;
_chemical_formula_sum "Si O2"
_cell_formula_units_Z 88
_cell_length_a 27.789311
_cell_length_b 8.895909
_cell_length_c 19.468947
_cell_angle_alpha 90.000000
_cell_angle_beta 90.000000
_cell_angle_gamma 90.000000
_cell_volume 4812.941397
_symmetry_space_group_name_H-M "C M M A"
_symmetry_group_IT_number 67
_symmetry_cell_setting 'orthorhombic'
loop_
_space_group_symop_operation_xyz
x,y,z
-x,1/2-y,z
x,-y,-z
-x,1/2+y,-z
-x,-y,-z
x,1/2+y,-z
-x,y,z
x,1/2-y,z
1/2+x,1/2+y,z
1/2-x,-y,z
1/2+x,1/2-y,-z
1/2-x,y,-z
1/2-x,1/2-y,-z
1/2+x,y,-z
1/2-x,1/2+y,z
1/2+x,-y,z
loop_
_atom_site_type_symbol
_atom_site_label
_atom_site_fract_x
_atom_site_fract_y
_atom_site_fract_z
Si Si1 0.205111 0.574308 0.710480
Si Si2 0.097160 0.074338 0.299872
Si Si3 0.700880 0.570396 0.861791
Si Si4 0.000000 0.569482 0.924431
Si Si5 0.557415 0.581017 0.568445
Si Si6 0.906999 0.569177 0.149182
O O1 0.214353 0.750000 0.724209
O O2 0.250000 0.500000 0.672362
O O3 0.152978 0.561501 0.677560
O O4 0.201278 0.486750 0.782924
O O5 0.086726 0.250000 0.286905
O O6 0.066902 0.009514 0.362136
O O7 0.091724 0.985007 0.228533
O O8 0.705025 0.750000 0.865074
O O9 0.750000 0.500000 0.893506
O O10 0.645889 0.529502 0.883191
O O11 0.951782 0.509245 0.887549
O O12 0.000000 0.750000 0.925700
O O13 0.000000 0.500000 0.000000
O O14 0.576479 0.500000 0.500000
O O15 0.500000 0.591430 0.560372
O O16 0.576927 0.750000 0.574618
O O17 0.911562 0.750000 0.146396
#
# Coordination Sequence:
#
# PCOD9502403 Si02
#       6
#    16  16  16   8  16  16
#     4   9  16  26  43  69 102 137 173 214 262 315
#     4  10  20  33  52  80 110 141 179 223 269 317
#     4   9  16  27  48  77 110 144 177 221 272 320
#     4  12  26  44  64  84 111 150 187 226 274 328
#     4  10  21  36  53  73 100 137 177 220 272 327
#     4  10  21  37  57  84 115 148 188 230 274 325
#
# _framework density 18.284037000000001
#
# number of rings (size 3 to 8) (size 9 to 14) (size 15 to 20)
#    0.000    2.182    0.000    4.636    1.273    5.455 
#    0.000    0.000    0.000    1.091    0.000    7.636 
#    0.000    0.000    0.000    0.000    0.000    0.000 
#
# Total GULP energy -245112.683303 kJ/mol
# GULP energy per Si atom -5570.742802 kJ/mol
# Density = 1.824242 g / cm^3
# Si number density = 18.284037 Si / 1000 Ang^3
#
#
#
# Elastic Constant Matrix: (Units=GPa)
#
#
# Indices 1 2 3 4 5 6 
#
# 1 114.5411 61.6896 41.3539 0.0000 0.0000 0.0000
# 2 61.6896 111.4577 28.2710 0.0000 0.0000 0.0000
# 3 41.3539 28.2710 56.9594 0.0000 0.0000 0.0000
# 4 0.0000 0.0000 0.0000 19.1521 0.0000 0.0000
# 5 0.0000 0.0000 0.0000 0.0000 -14.2717 0.0000
# 6 0.0000 0.0000 0.0000 0.0000 0.0000 30.5481
#
#
#
# Elastic Compliance Matrix: (Units=1/GPa)
#
#
# Indices 1 2 3 4 5 6 
#
# 1 0.014898 -0.006295 -0.007692 0.000000 0.000000 0.000000
# 2 -0.006295 0.012924 -0.001845 0.000000 0.000000 0.000000
# 3 -0.007692 -0.001845 0.024056 0.000000 0.000000 0.000000
# 4 0.000000 0.000000 0.000000 0.052214 0.000000 0.000000
# 5 0.000000 0.000000 0.000000 0.000000 -0.070069 0.000000
# 6 0.000000 0.000000 0.000000 0.000000 0.000000 0.032735
#
#
# Mechanical properties :
#
#
# Convention : Reuss Voigt Hill
#
# Bulk Modulus (GPa) = 49.46600 60.62080 55.04340
# Shear Modulus (GPa) = 47.54736 17.19530 32.37133
#
# Velocity S-wave (km/s) = 5.10503 3.07001 4.21226
# Velocity P-wave (km/s) = 7.86520 6.76710 7.33672
#
# Compressibility (1/GPa) = 0.02021591
#
# Stress axis : x y z
#
# Youngs Moduli (GPa) = 67.12463 77.37676 41.56910
#
# Poissons Ratio (x) = 0.48705 0.31974
# Poissons Ratio (y) = 0.42252 0.07668
# Poissons Ratio (z) = 0.51631 0.14273
#
# Static dielectric constant tensor:
#      x y z
#    x 1.707530 0.000000 0.000000 
#    y 0.000000 1.636630 0.000000 
#    z 0.000000 0.000000 1.588020 
# 
# From -- ./inp_files/36133.got.cif
#   From: 2010.05.17/outbox.cif.g08.bks.cpg/sg67_19_cif.got.tgz:36133.got - 2010.06.03 18:28:57.
