data_PCOD9502408
_publ_section_title
;
Structure prediction by ZEFSAII (Michael W. Deem and Ramdas Pophale) SiO2 
 PCOD9502408
Probable space group: C M M A
;
_chemical_formula_sum "Si O2"
_cell_formula_units_Z 96
_cell_length_a 23.598869
_cell_length_b 21.752343
_cell_length_c 9.447982
_cell_angle_alpha 90.000000
_cell_angle_beta 90.000000
_cell_angle_gamma 90.000000
_cell_volume 4849.939147
_symmetry_space_group_name_H-M "C M M A"
_symmetry_group_IT_number 67
_symmetry_cell_setting 'orthorhombic'
loop_
_space_group_symop_operation_xyz
x,y,z
-x,1/2-y,z
x,-y,-z
-x,1/2+y,-z
-x,-y,-z
x,1/2+y,-z
-x,y,z
x,1/2-y,z
1/2+x,1/2+y,z
1/2-x,-y,z
1/2+x,1/2-y,-z
1/2-x,y,-z
1/2-x,1/2-y,-z
1/2+x,y,-z
1/2-x,1/2+y,z
1/2+x,-y,z
loop_
_atom_site_type_symbol
_atom_site_label
_atom_site_fract_x
_atom_site_fract_y
_atom_site_fract_z
Si Si1 0.909031 0.516794 0.654353
Si Si2 0.342055 0.820402 0.336692
Si Si3 0.718719 0.059031 0.649305
Si Si4 0.433406 0.400486 0.164899
Si Si5 0.064081 0.177003 0.566115
Si Si6 0.564262 0.369374 0.849409
O O1 0.934113 0.500000 0.500000
O O2 0.844965 0.536648 0.629849
O O3 0.907188 0.457492 0.753632
O O4 0.936546 0.571557 0.745066
O O5 0.322418 0.750000 0.356615
O O6 0.293169 0.870407 0.300631
O O7 0.381106 0.840886 0.472696
O O8 0.389974 0.823581 0.215474
O O9 0.750000 0.065869 0.500000
O O10 0.750000 0.000000 0.723407
O O11 0.500000 0.415014 0.154365
O O12 0.427282 0.343859 0.272661
O O13 0.415103 0.389071 0.005139
O O14 0.061523 0.250000 0.554011
O O15 0.000000 0.153801 0.523219
O O16 0.500000 0.344838 0.859211
#
# Coordination Sequence:
#
# PCOD9502408 Si02
#       6
#    16  16  16  16  16  16
#     4  11  20  33  55  81 109 146 192 244 296 343
#     4  10  21  36  58  87 115 150 195 244 291 345
#     4  10  20  36  57  84 109 138 185 249 309 355
#     4  10  20  33  52  80 119 160 190 223 276 349
#     4   9  18  32  51  80 115 148 185 226 272 334
#     4  10  21  34  51  82 122 158 189 223 274 348
#
# _framework density 19.794063000000001
#
# number of rings (size 3 to 8) (size 9 to 14) (size 15 to 20)
#    0.000    2.000    1.667    3.500    0.000    6.000 
#    0.000    1.667    0.000    8.000    0.000    1.167 
#    0.000    0.000    0.000    0.000    0.000    0.000 
#
# Total GULP energy -267235.780049 kJ/mol
# GULP energy per Si atom -5567.412084 kJ/mol
# Density = 1.974901 g / cm^3
# Si number density = 19.794063 Si / 1000 Ang^3
#
#
#
# Elastic Constant Matrix: (Units=GPa)
#
#
# Indices 1 2 3 4 5 6 
#
# 1 60.0558 28.4453 13.1716 0.0000 0.0000 0.0000
# 2 28.4453 82.6823 23.5099 0.0000 0.0000 0.0000
# 3 13.1716 23.5099 104.5556 0.0000 0.0000 0.0000
# 4 0.0000 0.0000 0.0000 18.0872 0.0000 0.0000
# 5 0.0000 0.0000 0.0000 0.0000 53.6894 0.0000
# 6 0.0000 0.0000 0.0000 0.0000 0.0000 150.2612
#
#
#
# Elastic Compliance Matrix: (Units=1/GPa)
#
#
# Indices 1 2 3 4 5 6 
#
# 1 0.019998 -0.006584 -0.001039 0.000000 0.000000 0.000000
# 2 -0.006584 0.015089 -0.002563 0.000000 0.000000 0.000000
# 3 -0.001039 -0.002563 0.010272 0.000000 0.000000 0.000000
# 4 0.000000 0.000000 0.000000 0.055288 0.000000 0.000000
# 5 0.000000 0.000000 0.000000 0.000000 0.018626 0.000000
# 6 0.000000 0.000000 0.000000 0.000000 0.000000 0.006655
#
#
# Mechanical properties :
#
#
# Convention : Reuss Voigt Hill
#
# Bulk Modulus (GPa) = 40.02412 41.94969 40.98691
# Shear Modulus (GPa) = 32.33581 56.55203 44.44392
#
# Velocity S-wave (km/s) = 4.04618 5.35091 4.74362
# Velocity P-wave (km/s) = 6.48791 7.70814 7.12419
#
# Compressibility (1/GPa) = 0.02498493
#
# Stress axis : x y z
#
# Youngs Moduli (GPa) = 50.00569 66.27519 97.35672
#
# Poissons Ratio (x) = 0.43639 0.10112
# Poissons Ratio (y) = 0.32926 0.24955
# Poissons Ratio (z) = 0.05194 0.16988
#
# Static dielectric constant tensor:
#      x y z
#    x 1.702720 0.000000 0.000000 
#    y 0.000000 1.789260 0.000000 
#    z 0.000000 0.000000 1.747860 
# 
# From -- ./inp_files/12614.got.cif
#   From: 2010.05.17/outbox.cif.g08.bks.cpg/sg67_7_cif.got.tgz:12614.got - 2010.06.03 18:28:57.
