data_PCOD9502504
_publ_section_title
;
Structure prediction by ZEFSAII (Michael W. Deem and Ramdas Pophale) SiO2 
 PCOD9502504
Probable space group: C M M A
;
_chemical_formula_sum "Si O2"
_cell_formula_units_Z 80
_cell_length_a 14.306047
_cell_length_b 9.396257
_cell_length_c 26.519615
_cell_angle_alpha 90.000000
_cell_angle_beta 90.000000
_cell_angle_gamma 90.000000
_cell_volume 3564.854011
_symmetry_space_group_name_H-M "C M M A"
_symmetry_group_IT_number 67
_symmetry_cell_setting 'orthorhombic'
loop_
_space_group_symop_operation_xyz
x,y,z
-x,1/2-y,z
x,-y,-z
-x,1/2+y,-z
-x,-y,-z
x,1/2+y,-z
-x,y,z
x,1/2-y,z
1/2+x,1/2+y,z
1/2-x,-y,z
1/2+x,1/2-y,-z
1/2-x,y,-z
1/2-x,1/2-y,-z
1/2+x,y,-z
1/2-x,1/2+y,z
1/2+x,-y,z
loop_
_atom_site_type_symbol
_atom_site_label
_atom_site_fract_x
_atom_site_fract_y
_atom_site_fract_z
Si Si1 0.885866 0.412473 0.049491
Si Si2 0.650536 0.420901 0.452389
Si Si3 0.885734 0.909872 0.754341
Si Si4 0.885948 0.588159 0.148132
Si Si5 0.391170 0.406968 0.337283
O O1 0.852466 0.250000 0.048404
O O2 0.858208 0.494331 0.100161
O O3 0.000000 0.407908 0.049433
O O4 0.858329 0.500000 0.000000
O O5 0.603875 0.500000 0.500000
O O6 0.656102 0.250000 0.461283
O O7 0.750000 0.500000 0.449024
O O8 0.610642 0.441563 0.396516
O O9 0.851199 0.750000 0.761959
O O10 0.000000 0.902808 0.755047
O O11 0.858716 0.013357 0.799801
O O12 0.855063 0.974468 0.700776
O O13 0.852295 0.750000 0.144572
O O14 0.000000 0.592695 0.147735
O O15 0.500000 0.393636 0.323594
O O16 0.347312 0.250000 0.330692
#
# Coordination Sequence:
#
# PCOD9502504 Si02
#       5
#    16  16  16  16  16
#     4   9  15  21  28  39  57  83 120 166 211 254
#     4  10  20  34  52  71  93 121 151 183 219 263
#     4   9  16  25  38  57  79 103 133 171 214 258
#     4   9  15  22  32  45  64  93 127 164 208 256
#     4   9  18  32  48  67  91 118 148 183 223 265
#
# _framework density 22.441310999999999
#
# number of rings (size 3 to 8) (size 9 to 14) (size 15 to 20)
#    0.000    2.800    0.000    3.000    0.000    9.200 
#    0.000    0.000    0.000    0.000    0.000    0.000 
#    0.000    0.000    0.000    0.000    0.000    1.000 
#
# Total GULP energy -223378.847942 kJ/mol
# GULP energy per Si atom -5584.471199 kJ/mol
# Density = 2.239023 g / cm^3
# Si number density = 22.441311 Si / 1000 Ang^3
#
#
#
# Elastic Constant Matrix: (Units=GPa)
#
#
# Indices 1 2 3 4 5 6 
#
# 1 60.7801 9.7419 -9.3647 0.0000 0.0000 0.0000
# 2 9.7419 226.8956 131.9173 0.0000 0.0000 0.0000
# 3 -9.3647 131.9173 178.8996 0.0000 0.0000 0.0000
# 4 0.0000 0.0000 0.0000 44.6263 0.0000 0.0000
# 5 0.0000 0.0000 0.0000 0.0000 181.8290 0.0000
# 6 0.0000 0.0000 0.0000 0.0000 0.0000 1.6287
#
#
#
# Elastic Compliance Matrix: (Units=1/GPa)
#
#
# Indices 1 2 3 4 5 6 
#
# 1 0.017196 -0.002209 0.002529 0.000000 0.000000 0.000000
# 2 -0.002209 0.007998 -0.006013 0.000000 0.000000 0.000000
# 3 0.002529 -0.006013 0.010156 0.000000 0.000000 0.000000
# 4 0.000000 0.000000 0.000000 0.022408 0.000000 0.000000
# 5 0.000000 0.000000 0.000000 0.000000 0.005500 0.000000
# 6 0.000000 0.000000 0.000000 0.000000 0.000000 0.613984
#
#
# Mechanical properties :
#
#
# Convention : Reuss Voigt Hill
#
# Bulk Modulus (GPa) = 41.72846 81.24047 61.48447
# Shear Modulus (GPa) = 7.17754 67.90219 37.53986
#
# Velocity S-wave (km/s) = 1.79034 5.50667 4.09443
# Velocity P-wave (km/s) = 4.78629 8.75848 7.05761
#
# Compressibility (1/GPa) = 0.02396446
#
# Stress axis : x y z
#
# Youngs Moduli (GPa) = 58.15185 125.02553 98.46094
#
# Poissons Ratio (x) = 0.27612 -0.24898
# Poissons Ratio (y) = 0.12843 0.59209
# Poissons Ratio (z) = -0.14705 0.75184
#
# Static dielectric constant tensor:
#      x y z
#    x 1.935770 0.000000 0.000000 
#    y 0.000000 1.785960 0.000000 
#    z 0.000000 0.000000 1.806100 
# 
# From -- ./inp_files/43259.got.cif
#   From: 2010.05.17/outbox.cif.g08.bks.cpg/sg67_22_cif.got.tgz:43259.got - 2010.06.03 18:28:57.
