data_PCOD9502458
_publ_section_title
;
Structure prediction by ZEFSAII (Michael W. Deem and Ramdas Pophale) SiO2 
 PCOD9502458
Probable space group: C M M A
;
_chemical_formula_sum "Si O2"
_cell_formula_units_Z 104
_cell_length_a 8.817979
_cell_length_b 31.363549
_cell_length_c 23.868966
_cell_angle_alpha 90.000000
_cell_angle_beta 90.000000
_cell_angle_gamma 90.000000
_cell_volume 6601.275623
_symmetry_space_group_name_H-M "C M M A"
_symmetry_group_IT_number 67
_symmetry_cell_setting 'orthorhombic'
loop_
_space_group_symop_operation_xyz
x,y,z
-x,1/2-y,z
x,-y,-z
-x,1/2+y,-z
-x,-y,-z
x,1/2+y,-z
-x,y,z
x,1/2-y,z
1/2+x,1/2+y,z
1/2-x,-y,z
1/2+x,1/2-y,-z
1/2-x,y,-z
1/2-x,1/2-y,-z
1/2+x,y,-z
1/2-x,1/2+y,z
1/2+x,-y,z
loop_
_atom_site_type_symbol
_atom_site_label
_atom_site_fract_x
_atom_site_fract_y
_atom_site_fract_z
Si Si1 0.317266 0.840767 0.107985
Si Si2 0.181401 0.750000 0.939265
Si Si3 0.317738 0.576322 0.941735
Si Si4 0.315466 0.299960 0.682016
Si Si5 0.681869 0.044841 0.182620
Si Si6 0.182564 0.364888 0.772628
Si Si7 0.827112 0.801711 0.556914
O O1 0.500000 0.845287 0.108211
O O2 0.273785 0.793308 0.090782
O O3 0.245565 0.875852 0.066922
O O4 0.248807 0.848213 0.168943
O O5 0.000000 0.750000 0.942691
O O6 0.250000 0.750000 0.000000
O O7 0.500000 0.576325 0.945008
O O8 0.272221 0.554073 0.882602
O O9 0.250000 0.558792 0.000000
O O10 0.500000 0.301201 0.682890
O O11 0.274190 0.250000 0.694244
O O12 0.250390 0.334875 0.724435
O O13 0.262599 0.310964 0.618579
O O14 0.500000 0.042557 0.182226
O O15 0.723896 0.084687 0.222701
O O16 0.750000 0.000000 0.200421
O O17 0.000000 0.362071 0.771763
O O18 0.828386 0.750000 0.554484
O O19 0.750000 0.817152 0.500000
O O20 0.000000 0.816547 0.556362
#
# Coordination Sequence:
#
# PCOD9502458 Si02
#       7
#    16   8  16  16  16  16  16
#     4  10  20  34  49  65  87 119 152 190 235 279
#     4  10  22  34  46  64  84 110 149 190 227 270
#     4  10  20  34  50  71  94 115 143 183 228 285
#     4   9  18  31  47  69  99 135 171 203 232 272
#     4   9  20  36  52  70  93 117 149 190 236 289
#     4  10  21  35  49  71  97 122 155 197 238 280
#     4   8  14  25  41  63  93 129 167 203 236 267
#
# _framework density 15.754530000000001
#
# number of rings (size 3 to 8) (size 9 to 14) (size 15 to 20)
#    0.000    2.615    0.000    3.692    1.077    7.385 
#    0.000    3.077    0.000    0.000    0.000    0.000 
#    0.000    0.615    0.000    6.769    0.000    5.231 
#
# Total GULP energy -289613.556914 kJ/mol
# GULP energy per Si atom -5569.491479 kJ/mol
# Density = 1.571867 g / cm^3
# Si number density = 15.754530 Si / 1000 Ang^3
#
#
#
# Elastic Constant Matrix: (Units=GPa)
#
#
# Indices 1 2 3 4 5 6 
#
# 1 25.9076 27.3045 27.6313 0.0000 0.0000 0.0000
# 2 27.3045 107.4451 50.0125 0.0000 0.0000 0.0000
# 3 27.6313 50.0125 106.9636 0.0000 0.0000 0.0000
# 4 0.0000 0.0000 0.0000 10.1973 0.0000 0.0000
# 5 0.0000 0.0000 0.0000 0.0000 26.8797 0.0000
# 6 0.0000 0.0000 0.0000 0.0000 0.0000 21.5092
#
#
#
# Elastic Compliance Matrix: (Units=1/GPa)
#
#
# Indices 1 2 3 4 5 6 
#
# 1 0.061319 -0.010493 -0.010934 0.000000 0.000000 0.000000
# 2 -0.010493 0.013692 -0.003691 0.000000 0.000000 0.000000
# 3 -0.010934 -0.003691 0.013899 0.000000 0.000000 0.000000
# 4 0.000000 0.000000 0.000000 0.098065 0.000000 0.000000
# 5 0.000000 0.000000 0.000000 0.000000 0.037203 0.000000
# 6 0.000000 0.000000 0.000000 0.000000 0.000000 0.046492
#
#
# Mechanical properties :
#
#
# Convention : Reuss Voigt Hill
#
# Bulk Modulus (GPa) = 25.85747 50.02366 37.94056
# Shear Modulus (GPa) = 14.97910 20.74177 17.86043
#
# Velocity S-wave (km/s) = 3.08682 3.63238 3.37065
# Velocity P-wave (km/s) = 5.39935 7.02944 6.26762
#
# Compressibility (1/GPa) = 0.03867355
#
# Stress axis : x y z
#
# Youngs Moduli (GPa) = 16.30809 73.03633 71.94600
#
# Poissons Ratio (x) = 0.76640 0.78665
# Poissons Ratio (y) = 0.17113 0.26556
# Poissons Ratio (z) = 0.17831 0.26959
#
# Static dielectric constant tensor:
#      x y z
#    x 1.534690 0.000000 0.000000 
#    y 0.000000 1.529710 0.000000 
#    z 0.000000 0.000000 1.533370 
# 
# From -- ./inp_files/41142.got.cif
#   From: 2010.05.17/outbox.cif.g08.bks.cpg/sg67_21_cif.got.tgz:41142.got - 2010.06.03 18:28:57.
