data_PCOD9502803
_publ_section_title
;
Structure prediction by ZEFSAII (Michael W. Deem and Ramdas Pophale) SiO2 
 PCOD9502803
Probable space group: C M M A
;
_chemical_formula_sum "Si O2"
_cell_formula_units_Z 104
_cell_length_a 9.113032
_cell_length_b 30.245963
_cell_length_c 23.517980
_cell_angle_alpha 90.000000
_cell_angle_beta 90.000000
_cell_angle_gamma 90.000000
_cell_volume 6482.317945
_symmetry_space_group_name_H-M "C M M A"
_symmetry_group_IT_number 67
_symmetry_cell_setting 'orthorhombic'
loop_
_space_group_symop_operation_xyz
x,y,z
-x,1/2-y,z
x,-y,-z
-x,1/2+y,-z
-x,-y,-z
x,1/2+y,-z
-x,y,z
x,1/2-y,z
1/2+x,1/2+y,z
1/2-x,-y,z
1/2+x,1/2-y,-z
1/2-x,y,-z
1/2-x,1/2-y,-z
1/2+x,y,-z
1/2-x,1/2+y,z
1/2+x,-y,z
loop_
_atom_site_type_symbol
_atom_site_label
_atom_site_fract_x
_atom_site_fract_y
_atom_site_fract_z
Si Si1 0.175948 0.045192 0.178148
Si Si2 0.332018 0.696344 0.443176
Si Si3 0.673813 0.071195 0.058987
Si Si4 0.163498 0.168707 0.896996
Si Si5 0.170041 0.750000 0.940215
Si Si6 0.823138 0.801268 0.324757
Si Si7 0.170248 0.128393 0.771505
O O1 0.242955 0.053125 0.114698
O O2 0.229331 0.085783 0.217542
O O3 0.000000 0.042563 0.175463
O O4 0.250000 0.000000 0.198955
O O5 0.500000 0.681053 0.441614
O O6 0.334438 0.750000 0.446128
O O7 0.250000 0.680634 0.500000
O O8 0.247491 0.686048 0.385032
O O9 0.500000 0.059643 0.060611
O O10 0.683854 0.124504 0.065848
O O11 0.750000 0.057648 0.000000
O O12 0.280299 0.206063 0.908181
O O13 0.169133 0.153520 0.831842
O O14 0.000000 0.186416 0.909067
O O15 0.000000 0.750000 0.949426
O O16 0.250000 0.750000 0.000000
O O17 0.780811 0.750000 0.311277
O O18 0.782508 0.836848 0.276663
O O19 0.000000 0.801629 0.329485
O O20 0.000000 0.114949 0.760564
#
# Coordination Sequence:
#
# PCOD9502803 Si02
#       7
#    16  16  16  16   8  16  16
#     4  11  22  37  56  75  98 125 157 197 245 297
#     4   9  16  26  41  63  95 134 174 213 248 283
#     4  10  20  35  54  75  96 119 149 188 239 297
#     4   9  19  34  51  67  89 120 154 194 238 286
#     4  12  24  34  46  64  86 116 157 200 239 284
#     4   9  17  29  48  73 101 136 173 206 242 287
#     4   9  19  35  54  74  98 128 163 200 243 293
#
# _framework density 16.043644
#
# number of rings (size 3 to 8) (size 9 to 14) (size 15 to 20)
#    0.000    2.308    0.000    4.385    1.077    7.077 
#    0.000    1.538    0.000    0.000    0.000    0.000 
#    0.000    0.615    0.000    6.462    0.000    3.077 
#
# Total GULP energy -290033.326667 kJ/mol
# GULP energy per Si atom -5577.563974 kJ/mol
# Density = 1.600713 g / cm^3
# Si number density = 16.043644 Si / 1000 Ang^3
#
#
#
# Elastic Constant Matrix: (Units=GPa)
#
#
# Indices 1 2 3 4 5 6 
#
# 1 111.8647 58.0072 41.8515 0.0000 0.0000 0.0000
# 2 58.0072 76.9694 42.5865 0.0000 0.0000 0.0000
# 3 41.8515 42.5865 97.0504 0.0000 0.0000 0.0000
# 4 0.0000 0.0000 0.0000 5.9524 0.0000 0.0000
# 5 0.0000 0.0000 0.0000 0.0000 25.0723 0.0000
# 6 0.0000 0.0000 0.0000 0.0000 0.0000 21.4081
#
#
#
# Elastic Compliance Matrix: (Units=1/GPa)
#
#
# Indices 1 2 3 4 5 6 
#
# 1 0.014958 -0.010174 -0.001986 0.000000 0.000000 0.000000
# 2 -0.010174 0.024078 -0.006178 0.000000 0.000000 0.000000
# 3 -0.001986 -0.006178 0.013871 0.000000 0.000000 0.000000
# 4 0.000000 0.000000 0.000000 0.168001 0.000000 0.000000
# 5 0.000000 0.000000 0.000000 0.000000 0.039885 0.000000
# 6 0.000000 0.000000 0.000000 0.000000 0.000000 0.046711
#
#
# Mechanical properties :
#
#
# Convention : Reuss Voigt Hill
#
# Bulk Modulus (GPa) = 61.61070 63.41944 62.51507
# Shear Modulus (GPa) = 14.30238 20.04917 17.17578
#
# Velocity S-wave (km/s) = 2.98898 3.53889 3.27550
# Velocity P-wave (km/s) = 7.09911 7.50423 7.30448
#
# Compressibility (1/GPa) = 0.01623095
#
# Stress axis : x y z
#
# Youngs Moduli (GPa) = 66.85285 41.53113 72.09080
#
# Poissons Ratio (x) = 0.42255 0.14317
# Poissons Ratio (y) = 0.68018 0.44540
# Poissons Ratio (z) = 0.13276 0.25659
#
# Static dielectric constant tensor:
#      x y z
#    x 1.549360 0.000000 0.000000 
#    y 0.000000 1.535570 0.000000 
#    z 0.000000 0.000000 1.518540 
# 
# From -- ./inp_files/37535.got.cif
#   From: 2010.05.17/outbox.cif.g08.bks.cpg/sg67_19_cif.got.tgz:37535.got - 2010.06.03 18:28:57.
