data_PCOD9502127
_publ_section_title
;
Structure prediction by ZEFSAII (Michael W. Deem and Ramdas Pophale) SiO2 
 PCOD9502127
Probable space group: C M M A
;
_chemical_formula_sum "Si O2"
_cell_formula_units_Z 88
_cell_length_a 7.472092
_cell_length_b 28.519424
_cell_length_c 19.313136
_cell_angle_alpha 90.000000
_cell_angle_beta 90.000000
_cell_angle_gamma 90.000000
_cell_volume 4115.624645
_symmetry_space_group_name_H-M "C M M A"
_symmetry_group_IT_number 67
_symmetry_cell_setting 'orthorhombic'
loop_
_space_group_symop_operation_xyz
x,y,z
-x,1/2-y,z
x,-y,-z
-x,1/2+y,-z
-x,-y,-z
x,1/2+y,-z
-x,y,z
x,1/2-y,z
1/2+x,1/2+y,z
1/2-x,-y,z
1/2+x,1/2-y,-z
1/2-x,y,-z
1/2-x,1/2-y,-z
1/2+x,y,-z
1/2-x,1/2+y,z
1/2+x,-y,z
loop_
_atom_site_type_symbol
_atom_site_label
_atom_site_fract_x
_atom_site_fract_y
_atom_site_fract_z
Si Si1 0.785632 0.447629 0.170187
Si Si2 0.786090 0.250000 0.081148
Si Si3 0.286185 0.948133 0.329143
Si Si4 0.714146 0.638153 0.419190
Si Si5 0.717713 0.653797 0.152751
Si Si6 0.282305 0.697771 0.294991
O O1 0.750000 0.500000 0.141792
O O2 0.717053 0.446478 0.249974
O O3 0.722698 0.399164 0.134121
O O4 0.000000 0.444191 0.172876
O O5 0.718699 0.299537 0.112636
O O6 0.000000 0.250000 0.094336
O O7 0.750000 0.250000 0.000000
O O8 0.500000 0.941677 0.323755
O O9 0.217524 0.908806 0.381397
O O10 0.250000 0.000000 0.356371
O O11 0.500000 0.637576 0.413331
O O12 0.750000 0.641662 0.500000
O O13 0.777896 0.680190 0.369847
O O14 0.500000 0.654224 0.147310
O O15 0.765854 0.662912 0.233100
O O16 0.500000 0.698888 0.294901
O O17 0.220226 0.750000 0.278966
#
# Coordination Sequence:
#
# PCOD9502127 Si02
#       6
#    16   8  16  16  16  16
#     4   9  16  28  48  75 101 126 164 211 251 289
#     4  10  20  34  56  86 113 136 162 198 245 294
#     4   9  17  29  45  64  89 119 155 202 249 289
#     4  10  20  32  45  64  91 123 159 204 251 294
#     4   9  15  28  53  79 101 130 170 207 239 286
#     4   9  15  27  49  73  91 116 163 210 241 282
#
# _framework density 21.381931999999999
#
# number of rings (size 3 to 8) (size 9 to 14) (size 15 to 20)
#    0.000    2.727    2.727    0.000    0.000    1.455 
#    0.000    2.727    0.000    1.636    0.000    3.818 
#    0.000    0.000    0.000    0.000    0.000    0.000 
#
# Total GULP energy -245236.997015 kJ/mol
# GULP energy per Si atom -5573.568114 kJ/mol
# Density = 2.133327 g / cm^3
# Si number density = 21.381932 Si / 1000 Ang^3
#
#
#
# Elastic Constant Matrix: (Units=GPa)
#
#
# Indices 1 2 3 4 5 6 
#
# 1 59.1418 3.8231 -3.4900 0.0000 0.0000 0.0000
# 2 3.8231 204.9654 45.0713 0.0000 0.0000 0.0000
# 3 -3.4900 45.0713 58.7008 0.0000 0.0000 0.0000
# 4 0.0000 0.0000 0.0000 7.0306 0.0000 0.0000
# 5 0.0000 0.0000 0.0000 0.0000 23.2331 0.0000
# 6 0.0000 0.0000 0.0000 0.0000 0.0000 11.0648
#
#
#
# Elastic Compliance Matrix: (Units=1/GPa)
#
#
# Indices 1 2 3 4 5 6 
#
# 1 0.017040 -0.000650 0.001512 0.000000 0.000000 0.000000
# 2 -0.000650 0.005895 -0.004565 0.000000 0.000000 0.000000
# 3 0.001512 -0.004565 0.020630 0.000000 0.000000 0.000000
# 4 0.000000 0.000000 0.000000 0.142236 0.000000 0.000000
# 5 0.000000 0.000000 0.000000 0.000000 0.043042 0.000000
# 6 0.000000 0.000000 0.000000 0.000000 0.000000 0.090377
#
#
# Mechanical properties :
#
#
# Convention : Reuss Voigt Hill
#
# Bulk Modulus (GPa) = 27.65522 45.95741 36.80632
# Shear Modulus (GPa) = 14.76326 26.75926 20.76126
#
# Velocity S-wave (km/s) = 2.63050 3.54148 3.11942
# Velocity P-wave (km/s) = 4.71042 6.18571 5.49777
#
# Compressibility (1/GPa) = 0.03615953
#
# Stress axis : x y z
#
# Youngs Moduli (GPa) = 58.68614 169.64153 48.47222
#
# Poissons Ratio (x) = 0.11034 -0.07331
# Poissons Ratio (y) = 0.03817 0.22126
# Poissons Ratio (z) = -0.08876 0.77437
#
# Static dielectric constant tensor:
#      x y z
#    x 1.845120 0.000000 0.000000 
#    y 0.000000 1.818400 0.000000 
#    z 0.000000 0.000000 1.731510 
# 
# From -- ./inp_files/29943.got.cif
#   From: 2010.05.17/outbox.cif.g08.bks.cpg/sg67_15_cif.got.tgz:29943.got - 2010.06.03 18:28:57.
