data_PCOD9502039
_publ_section_title
;
Structure prediction by ZEFSAII (Michael W. Deem and Ramdas Pophale) SiO2 
 PCOD9502039
Probable space group: C M M A
;
_chemical_formula_sum "Si O2"
_cell_formula_units_Z 88
_cell_length_a 32.347505
_cell_length_b 25.302061
_cell_length_c 5.711192
_cell_angle_alpha 90.000000
_cell_angle_beta 90.000000
_cell_angle_gamma 90.000000
_cell_volume 4674.373893
_symmetry_space_group_name_H-M "C M M A"
_symmetry_group_IT_number 67
_symmetry_cell_setting 'orthorhombic'
loop_
_space_group_symop_operation_xyz
x,y,z
-x,1/2-y,z
x,-y,-z
-x,1/2+y,-z
-x,-y,-z
x,1/2+y,-z
-x,y,z
x,1/2-y,z
1/2+x,1/2+y,z
1/2-x,-y,z
1/2+x,1/2-y,-z
1/2-x,y,-z
1/2-x,1/2-y,-z
1/2+x,y,-z
1/2-x,1/2+y,z
1/2+x,-y,z
loop_
_atom_site_type_symbol
_atom_site_label
_atom_site_fract_x
_atom_site_fract_y
_atom_site_fract_z
Si Si1 0.000000 0.468958 0.746229
Si Si2 0.330845 0.940040 0.522793
Si Si3 0.706259 0.250000 0.239240
Si Si4 0.717099 0.863913 0.817192
Si Si5 0.656901 0.750000 0.265213
Si Si6 0.910694 0.443566 0.863069
Si Si7 0.863621 0.136675 0.128313
O O1 0.000000 0.500000 0.500000
O O2 0.955813 0.440000 0.749072
O O3 0.000000 0.500000 0.000000
O O4 0.293430 0.905085 0.619254
O O5 0.371936 0.943218 0.686163
O O6 0.345466 0.908354 0.296682
O O7 0.317129 0.000000 0.500000
O O8 0.730920 0.194987 0.252697
O O9 0.678212 0.250000 0.476545
O O10 0.685222 0.250000 0.975745
O O11 0.750000 0.885166 0.000000
O O12 0.671874 0.856330 0.933041
O O13 0.632413 0.805782 0.245751
O O14 0.908449 0.500000 0.000000
O O15 0.903528 0.391760 0.022011
#
# Coordination Sequence:
#
# PCOD9502039 Si02
#       7
#     8  16   8  16   8  16  16
#     4  10  22  36  58  97 128 153 190 248 302 363
#     4  11  20  35  58  77 113 160 201 246 314 374
#     4  10  19  38  60  86 112 146 196 269 317 354
#     4  10  22  37  54  80 115 153 206 259 313 365
#     4  10  20  38  59  87 118 149 206 254 305 361
#     4  10  20  35  60  87 121 151 192 246 307 374
#     4  10  21  37  57  84 112 159 198 251 306 367
#
# _framework density 18.826051
#
# number of rings (size 3 to 8) (size 9 to 14) (size 15 to 20)
#    0.000    1.818    3.636    0.818    2.545    0.727 
#    0.000    4.545    0.000    0.545    0.000    0.000 
#    0.000    0.000    0.000    0.000    0.000    0.000 
#
# Total GULP energy -245028.584906 kJ/mol
# GULP energy per Si atom -5568.831475 kJ/mol
# Density = 1.878320 g / cm^3
# Si number density = 18.826051 Si / 1000 Ang^3
#
#
#
# Elastic Constant Matrix: (Units=GPa)
#
#
# Indices 1 2 3 4 5 6 
#
# 1 83.3688 16.5613 21.5716 0.0000 0.0000 0.0000
# 2 16.5613 121.4041 23.7783 0.0000 0.0000 0.0000
# 3 21.5716 23.7783 77.0684 0.0000 0.0000 0.0000
# 4 0.0000 0.0000 0.0000 23.0997 0.0000 0.0000
# 5 0.0000 0.0000 0.0000 0.0000 24.0844 0.0000
# 6 0.0000 0.0000 0.0000 0.0000 0.0000 23.7261
#
#
#
# Elastic Compliance Matrix: (Units=1/GPa)
#
#
# Indices 1 2 3 4 5 6 
#
# 1 0.013077 -0.001136 -0.003310 0.000000 0.000000 0.000000
# 2 -0.001136 0.008865 -0.002417 0.000000 0.000000 0.000000
# 3 -0.003310 -0.002417 0.014648 0.000000 0.000000 0.000000
# 4 0.000000 0.000000 0.000000 0.043291 0.000000 0.000000
# 5 0.000000 0.000000 0.000000 0.000000 0.041521 0.000000
# 6 0.000000 0.000000 0.000000 0.000000 0.000000 0.042148
#
#
# Mechanical properties :
#
#
# Convention : Reuss Voigt Hill
#
# Bulk Modulus (GPa) = 43.73641 45.07375 44.40508
# Shear Modulus (GPa) = 27.04220 28.84404 27.94312
#
# Velocity S-wave (km/s) = 3.79413 3.91850 3.85681
# Velocity P-wave (km/s) = 6.51738 6.66836 6.59330
#
# Compressibility (1/GPa) = 0.02286424
#
# Stress axis : x y z
#
# Youngs Moduli (GPa) = 76.47061 112.79877 68.26974
#
# Poissons Ratio (x) = 0.12810 0.22596
# Poissons Ratio (y) = 0.08684 0.16504
# Poissons Ratio (z) = 0.25311 0.27268
#
# Static dielectric constant tensor:
#      x y z
#    x 1.640530 0.000000 0.000000 
#    y 0.000000 1.955240 0.000000 
#    z 0.000000 0.000000 1.708110 
# 
# From -- ./inp_files/3651.got.cif
#   From: 2010.05.17/outbox.cif.g08.bks.cpg/sg67_2_cif.got.tgz:3651.got - 2010.06.03 18:28:57.
