data_PCOD9502908
_publ_section_title
;
Structure prediction by ZEFSAII (Michael W. Deem and Ramdas Pophale) SiO2 
 PCOD9502908
Probable space group: C M M A
;
_chemical_formula_sum "Si O2"
_cell_formula_units_Z 104
_cell_length_a 8.351947
_cell_length_b 19.751271
_cell_length_c 30.614280
_cell_angle_alpha 90.000000
_cell_angle_beta 90.000000
_cell_angle_gamma 90.000000
_cell_volume 5050.179650
_symmetry_space_group_name_H-M "C M M A"
_symmetry_group_IT_number 67
_symmetry_cell_setting 'orthorhombic'
loop_
_space_group_symop_operation_xyz
x,y,z
-x,1/2-y,z
x,-y,-z
-x,1/2+y,-z
-x,-y,-z
x,1/2+y,-z
-x,y,z
x,1/2-y,z
1/2+x,1/2+y,z
1/2-x,-y,z
1/2+x,1/2-y,-z
1/2-x,y,-z
1/2-x,1/2-y,-z
1/2+x,y,-z
1/2-x,1/2+y,z
1/2+x,-y,z
loop_
_atom_site_type_symbol
_atom_site_label
_atom_site_fract_x
_atom_site_fract_y
_atom_site_fract_z
Si Si1 0.804671 0.672037 0.212037
Si Si2 0.806135 0.171470 0.373250
Si Si3 0.192567 0.250000 0.049458
Si Si4 0.808777 0.068385 0.859209
Si Si5 0.191621 0.925424 0.549460
Si Si6 0.307910 0.921975 0.706711
Si Si7 0.690822 0.103890 0.950846
O O1 0.749557 0.750000 0.215832
O O2 0.754718 0.634522 0.167453
O O3 0.754245 0.622391 0.251297
O O4 0.000000 0.673825 0.212442
O O5 0.751482 0.250000 0.369363
O O6 0.755270 0.134303 0.418131
O O7 0.748103 0.122228 0.334707
O O8 0.000000 0.172631 0.372400
O O9 0.254236 0.321893 0.063893
O O10 0.000000 0.250000 0.053240
O O11 0.250000 0.250000 0.000000
O O12 0.740225 0.065163 0.907930
O O13 0.000000 0.068199 0.861140
O O14 0.750000 0.000000 0.835630
O O15 0.250000 0.915261 0.500000
O O16 0.000000 0.927004 0.549297
O O17 0.250000 0.000000 0.564253
O O18 0.500000 0.924004 0.707159
O O19 0.250000 0.000000 0.706323
O O20 0.500000 0.104247 0.954646
O O21 0.750000 0.086575 0.000000
#
# Coordination Sequence:
#
# PCOD9502908 Si02
#       7
#    16  16   8  16  16  16  16
#     4   9  20  39  62  89 118 149 189 237 288 343
#     4  10  22  39  58  85 122 159 199 250 305 358
#     4   8  16  30  50  76 108 140 172 218 266 316
#     4  11  23  39  60  84 115 153 190 232 283 338
#     4  10  20  35  56  81 113 155 202 253 305 359
#     4  11  22  38  63  91 121 157 198 242 292 351
#     4  10  20  36  57  84 116 149 189 232 280 334
#
# _framework density 20.593326000000001
#
# number of rings (size 3 to 8) (size 9 to 14) (size 15 to 20)
#    0.000    2.000    0.000    3.692    1.077    4.615 
#    0.000    3.846    0.000    3.692    0.000    0.000 
#    0.000    0.000    0.000    0.000    0.000    0.000 
#
# Total GULP energy -289902.659978 kJ/mol
# GULP energy per Si atom -5575.051153 kJ/mol
# Density = 2.054645 g / cm^3
# Si number density = 20.593326 Si / 1000 Ang^3
#
#
#
# Elastic Constant Matrix: (Units=GPa)
#
#
# Indices 1 2 3 4 5 6 
#
# 1 23.5267 12.5261 19.7203 0.0000 0.0000 0.0000
# 2 12.5261 211.5267 91.6228 0.0000 0.0000 0.0000
# 3 19.7203 91.6228 130.6802 0.0000 0.0000 0.0000
# 4 0.0000 0.0000 0.0000 38.8231 0.0000 0.0000
# 5 0.0000 0.0000 0.0000 0.0000 10.6262 0.0000
# 6 0.0000 0.0000 0.0000 0.0000 0.0000 22.7481
#
#
#
# Elastic Compliance Matrix: (Units=1/GPa)
#
#
# Indices 1 2 3 4 5 6 
#
# 1 0.048687 0.000430 -0.007648 0.000000 0.000000 0.000000
# 2 0.000430 0.006793 -0.004828 0.000000 0.000000 0.000000
# 3 -0.007648 -0.004828 0.012191 0.000000 0.000000 0.000000
# 4 0.000000 0.000000 0.000000 0.025758 0.000000 0.000000
# 5 0.000000 0.000000 0.000000 0.000000 0.094107 0.000000
# 6 0.000000 0.000000 0.000000 0.000000 0.000000 0.043960
#
#
# Mechanical properties :
#
#
# Convention : Reuss Voigt Hill
#
# Bulk Modulus (GPa) = 22.94697 68.16356 45.55527
# Shear Modulus (GPa) = 18.51062 30.56378 24.53720
#
# Velocity S-wave (km/s) = 3.00136 3.85666 3.45557
# Velocity P-wave (km/s) = 4.81435 7.28035 6.17177
#
# Compressibility (1/GPa) = 0.04357873
#
# Stress axis : x y z
#
# Youngs Moduli (GPa) = 20.53936 147.20568 82.02578
#
# Poissons Ratio (x) = -0.06327 0.62737
# Poissons Ratio (y) = -0.00883 0.39600
# Poissons Ratio (z) = 0.15709 0.71067
#
# Static dielectric constant tensor:
#      x y z
#    x 1.711630 0.000000 0.000000 
#    y 0.000000 1.689410 0.000000 
#    z 0.000000 0.000000 1.726370 
# 
# From -- ./inp_files/43568.got.cif
#   From: 2010.05.17/outbox.cif.g08.bks.cpg/sg67_22_cif.got.tgz:43568.got - 2010.06.03 18:28:57.
