data_PCOD9502878
_publ_section_title
;
Structure prediction by ZEFSAII (Michael W. Deem and Ramdas Pophale) SiO2 
 PCOD9502878
Probable space group: C M M A
;
_chemical_formula_sum "Si O2"
_cell_formula_units_Z 88
_cell_length_a 24.421747
_cell_length_b 9.336489
_cell_length_c 20.047513
_cell_angle_alpha 90.000000
_cell_angle_beta 90.000000
_cell_angle_gamma 90.000000
_cell_volume 4571.101044
_symmetry_space_group_name_H-M "C M M A"
_symmetry_group_IT_number 67
_symmetry_cell_setting 'orthorhombic'
loop_
_space_group_symop_operation_xyz
x,y,z
-x,1/2-y,z
x,-y,-z
-x,1/2+y,-z
-x,-y,-z
x,1/2+y,-z
-x,y,z
x,1/2-y,z
1/2+x,1/2+y,z
1/2-x,-y,z
1/2+x,1/2-y,-z
1/2-x,y,-z
1/2-x,1/2-y,-z
1/2+x,y,-z
1/2-x,1/2+y,z
1/2+x,-y,z
loop_
_atom_site_type_symbol
_atom_site_label
_atom_site_fract_x
_atom_site_fract_y
_atom_site_fract_z
Si Si1 0.307418 0.416947 0.439408
Si Si2 0.343955 0.409322 0.286586
Si Si3 0.671381 0.915744 0.063548
Si Si4 0.059654 0.915088 0.764512
Si Si5 0.438692 0.919273 0.901007
Si Si6 0.750000 0.000000 0.815571
O O1 0.337661 0.500000 0.500000
O O2 0.301821 0.250000 0.457503
O O3 0.250000 0.500000 0.434033
O O4 0.329520 0.419644 0.364380
O O5 0.367582 0.250000 0.274382
O O6 0.387279 0.534799 0.274461
O O7 0.292069 0.423209 0.236073
O O8 0.665501 0.750000 0.046819
O O9 0.612043 0.988531 0.073173
O O10 0.708044 0.927122 0.130978
O O11 0.694633 0.000000 0.000000
O O12 0.065673 0.750000 0.787789
O O13 0.000000 0.923673 0.729915
O O14 0.057860 0.025288 0.825461
O O15 0.500000 0.943568 0.929397
O O16 0.426974 0.750000 0.905536
#
# Coordination Sequence:
#
# PCOD9502878 Si02
#       6
#    16  16  16  16  16   8
#     4  10  20  35  55  86 125 166 205 245 294 352
#     4  11  23  38  62  92 124 161 202 247 298 352
#     4  12  27  44  64  87 118 161 202 248 304 362
#     4  10  21  37  60  91 123 155 196 246 302 359
#     4  10  21  39  64  91 119 151 193 248 304 359
#     4  12  25  42  63  90 122 154 204 246 297 360
#
# _framework density 19.251380000000001
#
# number of rings (size 3 to 8) (size 9 to 14) (size 15 to 20)
#    0.000    1.273    2.727    3.545    0.000    7.636 
#    0.000    0.000    0.000    0.545    0.000    0.000 
#    0.000    0.000    0.000    0.000    0.000    0.000 
#
# Total GULP energy -245045.930424 kJ/mol
# GULP energy per Si atom -5569.225691 kJ/mol
# Density = 1.920756 g / cm^3
# Si number density = 19.251380 Si / 1000 Ang^3
#
#
#
# Elastic Constant Matrix: (Units=GPa)
#
#
# Indices 1 2 3 4 5 6 
#
# 1 107.2444 58.6799 33.6051 0.0000 0.0000 0.0000
# 2 58.6799 146.3740 51.0656 0.0000 0.0000 0.0000
# 3 33.6051 51.0656 116.8757 0.0000 0.0000 0.0000
# 4 0.0000 0.0000 0.0000 24.6493 0.0000 0.0000
# 5 0.0000 0.0000 0.0000 0.0000 -33.8814 0.0000
# 6 0.0000 0.0000 0.0000 0.0000 0.0000 1.1835
#
#
#
# Elastic Compliance Matrix: (Units=1/GPa)
#
#
# Indices 1 2 3 4 5 6 
#
# 1 0.012198 -0.004326 -0.001617 0.000000 0.000000 0.000000
# 2 -0.004326 0.009595 -0.002948 0.000000 0.000000 0.000000
# 3 -0.001617 -0.002948 0.010309 0.000000 0.000000 0.000000
# 4 0.000000 0.000000 0.000000 0.040569 0.000000 0.000000
# 5 0.000000 0.000000 0.000000 0.000000 -0.029515 0.000000
# 6 0.000000 0.000000 0.000000 0.000000 0.000000 0.844960
#
#
# Mechanical properties :
#
#
# Convention : Reuss Voigt Hill
#
# Bulk Modulus (GPa) = 69.83625 73.02170 71.42898
# Shear Modulus (GPa) = 5.49045 13.53316 9.51180
#
# Velocity S-wave (km/s) = 1.69061 2.65424 2.22521
# Velocity P-wave (km/s) = 6.33763 6.88522 6.61709
#
# Compressibility (1/GPa) = 0.01431921
#
# Stress axis : x y z
#
# Youngs Moduli (GPa) = 81.97893 104.22525 97.00009
#
# Poissons Ratio (x) = 0.45087 0.15687
# Poissons Ratio (y) = 0.35464 0.28598
# Poissons Ratio (z) = 0.13258 0.30728
#
# Static dielectric constant tensor:
#      x y z
#    x 1.726880 0.000000 0.000000 
#    y 0.000000 1.738350 0.000000 
#    z 0.000000 0.000000 1.743120 
# 
# From -- ./inp_files/39567.got.cif
#   From: 2010.05.17/outbox.cif.g08.bks.cpg/sg67_20_cif.got.tgz:39567.got - 2010.06.03 18:28:57.
