data_PCOD9502958
_publ_section_title
;
Structure prediction by ZEFSAII (Michael W. Deem and Ramdas Pophale) SiO2 
 PCOD9502958
Probable space group: C M M A
;
_chemical_formula_sum "Si O2"
_cell_formula_units_Z 76
_cell_length_a 8.218743
_cell_length_b 25.691381
_cell_length_c 18.644374
_cell_angle_alpha 90.000000
_cell_angle_beta 90.000000
_cell_angle_gamma 90.000000
_cell_volume 3936.775562
_symmetry_space_group_name_H-M "C M M A"
_symmetry_group_IT_number 67
_symmetry_cell_setting 'orthorhombic'
loop_
_space_group_symop_operation_xyz
x,y,z
-x,1/2-y,z
x,-y,-z
-x,1/2+y,-z
-x,-y,-z
x,1/2+y,-z
-x,y,z
x,1/2-y,z
1/2+x,1/2+y,z
1/2-x,-y,z
1/2+x,1/2-y,-z
1/2-x,y,-z
1/2-x,1/2-y,-z
1/2+x,y,-z
1/2-x,1/2+y,z
1/2+x,-y,z
loop_
_atom_site_type_symbol
_atom_site_label
_atom_site_fract_x
_atom_site_fract_y
_atom_site_fract_z
Si Si1 0.697154 0.808227 0.143583
Si Si2 0.194728 0.166310 0.307066
Si Si3 0.690153 0.419555 0.107210
Si Si4 0.190569 0.750000 0.418796
Si Si5 0.750000 0.500000 0.000000
Si Si6 0.194682 0.444903 0.266176
O O1 0.500000 0.812387 0.140851
O O2 0.742947 0.750000 0.118897
O O3 0.747202 0.814088 0.227698
O O4 0.769782 0.858186 0.103011
O O5 0.254926 0.200644 0.372002
O O6 0.239602 0.105733 0.312001
O O7 0.000000 0.170473 0.306192
O O8 0.500000 0.429327 0.088641
O O9 0.803744 0.456264 0.058357
O O10 0.722162 0.436309 0.188954
O O11 0.250000 0.750000 0.500000
O O12 0.000000 0.750000 0.421431
O O13 0.250000 0.500000 0.296150
O O14 0.000000 0.444439 0.255514
#
# Coordination Sequence:
#
# PCOD9502958 Si02
#       6
#    16  16  16   8   4  16
#     4   9  18  36  60  83 111 144 180 228 287 338
#     4   9  18  35  56  81 115 152 184 225 279 330
#     4  11  23  36  55  80 108 145 189 236 283 340
#     4  12  24  36  56  86 120 157 192 229 272 330
#     4  12  26  40  54  74 114 156 188 234 294 344
#     4  10  20  35  57  84 114 146 186 234 284 331
#
# _framework density 19.305140000000002
#
# number of rings (size 3 to 8) (size 9 to 14) (size 15 to 20)
#    0.000    1.895    2.105    3.789    0.000    7.158 
#    0.000    0.526    0.000    0.632    0.000    4.421 
#    0.000    0.000    0.000    0.000    0.000    0.000 
#
# Total GULP energy -211792.645771 kJ/mol
# GULP energy per Si atom -5573.490678 kJ/mol
# Density = 1.926120 g / cm^3
# Si number density = 19.305140 Si / 1000 Ang^3
#
#
#
# Elastic Constant Matrix: (Units=GPa)
#
#
# Indices 1 2 3 4 5 6 
#
# 1 52.2339 39.1394 17.6331 0.0000 0.0000 0.0000
# 2 39.1394 203.6318 58.1867 0.0000 0.0000 0.0000
# 3 17.6331 58.1867 80.1610 0.0000 0.0000 0.0000
# 4 0.0000 0.0000 0.0000 45.0396 0.0000 0.0000
# 5 0.0000 0.0000 0.0000 0.0000 -5.0140 0.0000
# 6 0.0000 0.0000 0.0000 0.0000 0.0000 25.4058
#
#
#
# Elastic Compliance Matrix: (Units=1/GPa)
#
#
# Indices 1 2 3 4 5 6 
#
# 1 0.022698 -0.003704 -0.002304 0.000000 0.000000 0.000000
# 2 -0.003704 0.006801 -0.004121 0.000000 0.000000 0.000000
# 3 -0.002304 -0.004121 0.015973 0.000000 0.000000 0.000000
# 4 0.000000 0.000000 0.000000 0.022203 0.000000 0.000000
# 5 0.000000 0.000000 0.000000 0.000000 -0.199442 0.000000
# 6 0.000000 0.000000 0.000000 0.000000 0.000000 0.039361
#
#
# Mechanical properties :
#
#
# Convention : Reuss Voigt Hill
#
# Bulk Modulus (GPa) = 39.66310 62.88277 51.27293
# Shear Modulus (GPa) = -78.44057 27.82413 -25.30822
#
# Velocity S-wave (km/s) = -6.38124 3.80054 -3.62464
# Velocity P-wave (km/s) = 5.80548 7.20434 3.01654
#
# Compressibility (1/GPa) = 0.02521235
#
# Stress axis : x y z
#
# Youngs Moduli (GPa) = 44.05637 147.04778 62.60419
#
# Poissons Ratio (x) = 0.54472 0.14424
# Poissons Ratio (y) = 0.16320 0.25802
# Poissons Ratio (z) = 0.10151 0.60605
#
# Static dielectric constant tensor:
#      x y z
#    x 1.725260 0.000000 0.000000 
#    y 0.000000 1.699010 0.000000 
#    z 0.000000 0.000000 1.602740 
# 
# From -- ./inp_files/32150.got.cif
#   From: 2010.05.17/outbox.cif.g08.bks.cpg/sg67_17_cif.got.tgz:32150.got - 2010.06.03 18:28:57.
