data_PCOD9502129
_publ_section_title
;
Structure prediction by ZEFSAII (Michael W. Deem and Ramdas Pophale) SiO2 
 PCOD9502129
Probable space group: C M M A
;
_chemical_formula_sum "Si O2"
_cell_formula_units_Z 128
_cell_length_a 17.246195
_cell_length_b 25.852009
_cell_length_c 17.507747
_cell_angle_alpha 90.000000
_cell_angle_beta 90.000000
_cell_angle_gamma 90.000000
_cell_volume 7805.807787
_symmetry_space_group_name_H-M "C M M A"
_symmetry_group_IT_number 67
_symmetry_cell_setting 'orthorhombic'
loop_
_space_group_symop_operation_xyz
x,y,z
-x,1/2-y,z
x,-y,-z
-x,1/2+y,-z
-x,-y,-z
x,1/2+y,-z
-x,y,z
x,1/2-y,z
1/2+x,1/2+y,z
1/2-x,-y,z
1/2+x,1/2-y,-z
1/2-x,y,-z
1/2-x,1/2-y,-z
1/2+x,y,-z
1/2-x,1/2+y,z
1/2+x,-y,z
loop_
_atom_site_type_symbol
_atom_site_label
_atom_site_fract_x
_atom_site_fract_y
_atom_site_fract_z
Si Si1 0.590601 0.062209 0.987377
Si Si2 0.911040 0.967969 0.401149
Si Si3 0.670963 0.934761 0.330385
Si Si4 0.335672 0.387704 0.303018
Si Si5 0.321941 0.188805 0.441265
Si Si6 0.410246 0.389597 0.534694
Si Si7 0.906688 0.539141 0.825226
Si Si8 0.905763 0.917176 0.153722
O O1 0.500000 0.077034 0.983370
O O2 0.624249 0.066884 0.902281
O O3 0.620455 0.088210 0.065069
O O4 0.592141 0.000000 0.000000
O O5 0.904452 0.921421 0.340592
O O6 0.891449 0.939228 0.480439
O O7 0.000000 0.987031 0.403345
O O8 0.853161 0.012305 0.373359
O O9 0.759557 0.923482 0.311354
O O10 0.640467 0.892014 0.389505
O O11 0.625616 0.936188 0.251052
O O12 0.318761 0.339096 0.358450
O O13 0.361377 0.381962 0.215276
O O14 0.329841 0.250000 0.433087
O O15 0.250000 0.178583 0.500000
O O16 0.392157 0.160670 0.484934
O O17 0.500000 0.392607 0.554328
O O18 0.888432 0.477648 0.826203
O O19 0.000000 0.542014 0.826254
O O20 0.000000 0.910891 0.157385
#
# Coordination Sequence:
#
# PCOD9502129 Si02
#       8
#    16  16  16  16  16  16  16  16
#     4   7  12  24  42  63  87 129 175 196 220 272
#     4  10  20  32  46  64  96 133 163 197 238 280
#     4  12  20  29  43  69 101 135 164 196 232 280
#     4  11  21  31  48  74  94 124 165 205 244 294
#     4  10  21  41  58  68  91 125 160 206 263 306
#     4  10  21  35  51  72  94 123 164 202 243 293
#     4   9  16  26  43  65  95 137 171 192 226 272
#     4   9  16  29  47  66  97 131 165 203 235 275
#
# _framework density 16.398046999999998
#
# number of rings (size 3 to 8) (size 9 to 14) (size 15 to 20)
#    0.000    2.250    2.500    3.750    0.000    1.750 
#    0.000    1.875    0.000    2.250    0.000    0.000 
#    0.000    3.000    0.000    7.375    0.000    0.000 
#
# Total GULP energy -356322.981438 kJ/mol
# GULP energy per Si atom -5567.546585 kJ/mol
# Density = 1.636072 g / cm^3
# Si number density = 16.398047 Si / 1000 Ang^3
#
#
#
# Elastic Constant Matrix: (Units=GPa)
#
#
# Indices 1 2 3 4 5 6 
#
# 1 40.3712 18.2896 31.6512 0.0000 0.0000 0.0000
# 2 18.2896 55.2983 29.7407 0.0000 0.0000 0.0000
# 3 31.6512 29.7407 138.5521 0.0000 0.0000 0.0000
# 4 0.0000 0.0000 0.0000 14.1021 0.0000 0.0000
# 5 0.0000 0.0000 0.0000 0.0000 14.5556 0.0000
# 6 0.0000 0.0000 0.0000 0.0000 0.0000 9.4307
#
#
#
# Elastic Compliance Matrix: (Units=1/GPa)
#
#
# Indices 1 2 3 4 5 6 
#
# 1 0.032852 -0.007721 -0.005848 0.000000 0.000000 0.000000
# 2 -0.007721 0.022258 -0.003014 0.000000 0.000000 0.000000
# 3 -0.005848 -0.003014 0.009200 0.000000 0.000000 0.000000
# 4 0.000000 0.000000 0.000000 0.070911 0.000000 0.000000
# 5 0.000000 0.000000 0.000000 0.000000 0.068702 0.000000
# 6 0.000000 0.000000 0.000000 0.000000 0.000000 0.106037
#
#
# Mechanical properties :
#
#
# Convention : Reuss Voigt Hill
#
# Bulk Modulus (GPa) = 32.10659 43.73160 37.91909
# Shear Modulus (GPa) = 14.14393 17.92036 16.03214
#
# Velocity S-wave (km/s) = 2.94008 3.30939 3.13019
# Velocity P-wave (km/s) = 5.58099 6.42880 6.01984
#
# Compressibility (1/GPa) = 0.03114626
#
# Stress axis : x y z
#
# Youngs Moduli (GPa) = 30.43910 44.92692 108.69180
#
# Poissons Ratio (x) = 0.34687 0.63559
# Poissons Ratio (y) = 0.23501 0.32761
# Poissons Ratio (z) = 0.17800 0.13541
#
# Static dielectric constant tensor:
#      x y z
#    x 1.570730 0.000000 0.000000 
#    y 0.000000 1.537130 0.000000 
#    z 0.000000 0.000000 1.622450 
# 
# From -- ./inp_files/34546.got.cif
#   From: 2010.05.17/outbox.cif.g08.bks.cpg/sg67_18_cif.got.tgz:34546.got - 2010.06.03 18:28:57.
