data_PCOD9502744
_publ_section_title
;
Structure prediction by ZEFSAII (Michael W. Deem and Ramdas Pophale) SiO2 
 PCOD9502744
Probable space group: C M M A
;
_chemical_formula_sum "Si O2"
_cell_formula_units_Z 64
_cell_length_a 16.180673
_cell_length_b 23.145028
_cell_length_c 8.715076
_cell_angle_alpha 90.000000
_cell_angle_beta 90.000000
_cell_angle_gamma 90.000000
_cell_volume 3263.814522
_symmetry_space_group_name_H-M "C M M A"
_symmetry_group_IT_number 67
_symmetry_cell_setting 'orthorhombic'
loop_
_space_group_symop_operation_xyz
x,y,z
-x,1/2-y,z
x,-y,-z
-x,1/2+y,-z
-x,-y,-z
x,1/2+y,-z
-x,y,z
x,1/2-y,z
1/2+x,1/2+y,z
1/2-x,-y,z
1/2+x,1/2-y,-z
1/2-x,y,-z
1/2-x,1/2-y,-z
1/2+x,y,-z
1/2-x,1/2+y,z
1/2+x,-y,z
loop_
_atom_site_type_symbol
_atom_site_label
_atom_site_fract_x
_atom_site_fract_y
_atom_site_fract_z
Si Si1 0.748123 0.684448 0.679905
Si Si2 0.650512 0.491180 0.673513
Si Si3 0.832712 0.590268 0.101489
Si Si4 0.093879 0.867882 0.800687
O O1 0.717381 0.750000 0.697812
O O2 0.750000 0.669726 0.500000
O O3 0.696785 0.637534 0.774946
O O4 0.840797 0.679266 0.745092
O O5 0.619683 0.500000 0.500000
O O6 0.750000 0.500000 0.668791
O O7 0.627604 0.537171 0.805741
O O8 0.622833 0.427750 0.721960
O O9 0.750000 0.573704 0.000000
O O10 0.893371 0.619629 0.980461
O O11 0.000000 0.854454 0.763152
#
# Coordination Sequence:
#
# PCOD9502744 Si02
#       4
#    16  16  16  16
#     4  10  21  40  65  87 109 152 204 240 279 344
#     4  11  20  34  58  84 116 154 195 233 283 345
#     4  10  20  34  57  84 115 153 193 235 277 346
#     4  11  24  37  57  90 122 152 188 240 298 341
#
# _framework density 19.608957
#
# number of rings (size 3 to 8) (size 9 to 14) (size 15 to 20)
#    0.000    1.500    5.000    2.250    0.000    7.500 
#    0.000    3.750    0.000    1.500    0.000    0.000 
#    0.000    0.000    0.000    0.000    0.000    0.000 
#
# Total GULP energy -178663.972927 kJ/mol
# GULP energy per Si atom -5583.249154 kJ/mol
# Density = 1.956433 g / cm^3
# Si number density = 19.608957 Si / 1000 Ang^3
#
#
#
# Elastic Constant Matrix: (Units=GPa)
#
#
# Indices 1 2 3 4 5 6 
#
# 1 24.0832 -20.0761 -22.0961 0.0000 0.0000 0.0000
# 2 -20.0761 68.2618 33.2425 0.0000 0.0000 0.0000
# 3 -22.0961 33.2425 111.3025 0.0000 0.0000 0.0000
# 4 0.0000 0.0000 0.0000 -120.8018 0.0000 0.0000
# 5 0.0000 0.0000 0.0000 0.0000 3.7359 0.0000
# 6 0.0000 0.0000 0.0000 0.0000 0.0000 12.7411
#
#
#
# Elastic Compliance Matrix: (Units=1/GPa)
#
#
# Indices 1 2 3 4 5 6 
#
# 1 0.060303 0.013932 0.007810 0.000000 0.000000 0.000000
# 2 0.013932 0.020361 -0.003316 0.000000 0.000000 0.000000
# 3 0.007810 -0.003316 0.011525 0.000000 0.000000 0.000000
# 4 0.000000 0.000000 0.000000 -0.008278 0.000000 0.000000
# 5 0.000000 0.000000 0.000000 0.000000 0.267675 0.000000
# 6 0.000000 0.000000 0.000000 0.000000 0.000000 0.078486
#
#
# Mechanical properties :
#
#
# Convention : Reuss Voigt Hill
#
# Bulk Modulus (GPa) = 7.74938 20.64311 14.19624
# Shear Modulus (GPa) = 11.46176 -6.69315 2.38430
#
# Velocity S-wave (km/s) = 2.42030 -1.84952 1.10389
# Velocity P-wave (km/s) = 3.43089 2.44730 2.97996
#
# Compressibility (1/GPa) = 0.12904255
#
# Stress axis : x y z
#
# Youngs Moduli (GPa) = 16.58306 49.11231 86.76529
#
# Poissons Ratio (x) = -0.68422 -0.67768
# Poissons Ratio (y) = -0.23103 0.28768
# Poissons Ratio (z) = -0.12952 0.16284
#
# Static dielectric constant tensor:
#      x y z
#    x 1.700930 0.000000 0.000000 
#    y 0.000000 1.668180 0.000000 
#    z 0.000000 0.000000 1.708560 
# 
# From -- ./inp_files/9333.got.cif
#   From: 2010.05.17/outbox.cif.g08.bks.cpg/sg67_5_cif.got.tgz:9333.got - 2010.06.03 18:28:57.
