data_PCOD9502030
_publ_section_title
;
Structure prediction by ZEFSAII (Michael W. Deem and Ramdas Pophale) SiO2 
 PCOD9502030
Probable space group: C M M A
;
_chemical_formula_sum "Si O2"
_cell_formula_units_Z 84
_cell_length_a 21.159018
_cell_length_b 25.430918
_cell_length_c 7.583505
_cell_angle_alpha 90.000000
_cell_angle_beta 90.000000
_cell_angle_gamma 90.000000
_cell_volume 4080.632865
_symmetry_space_group_name_H-M "C M M A"
_symmetry_group_IT_number 67
_symmetry_cell_setting 'orthorhombic'
loop_
_space_group_symop_operation_xyz
x,y,z
-x,1/2-y,z
x,-y,-z
-x,1/2+y,-z
-x,-y,-z
x,1/2+y,-z
-x,y,z
x,1/2-y,z
1/2+x,1/2+y,z
1/2-x,-y,z
1/2+x,1/2-y,-z
1/2-x,y,-z
1/2-x,1/2-y,-z
1/2+x,y,-z
1/2-x,1/2+y,z
1/2+x,-y,z
loop_
_atom_site_type_symbol
_atom_site_label
_atom_site_fract_x
_atom_site_fract_y
_atom_site_fract_z
Si Si1 0.000000 0.663369 0.693681
Si Si2 0.867843 0.114473 0.214590
Si Si3 0.000000 0.836631 0.306320
Si Si4 0.177389 0.500000 0.214881
Si Si5 0.132157 0.114473 0.785409
Si Si6 0.250000 0.688622 0.784938
Si Si7 0.500000 0.250000 0.000000
O O1 0.064094 0.630526 0.715859
O O2 0.000000 0.705099 0.847602
O O3 0.000000 0.687357 0.500000
O O4 0.812460 0.155618 0.268092
O O5 0.852294 0.055110 0.270963
O O6 0.869081 0.115843 1.000000
O O7 0.064094 0.869474 0.284142
O O8 0.000000 0.794901 0.152399
O O9 0.250000 0.500000 0.269223
O O10 0.147706 0.555110 0.270963
O O11 0.175842 0.500000 0.000000
O O12 0.187540 0.155618 0.731908
O O13 0.250000 0.750000 0.727799
O O14 0.250000 0.689542 0.000000
#
# Coordination Sequence:
#
# PCOD9502030 Si02
#       7
#     8  16   8  16  16  16   4
#     4  12  27  44  68 101 134 175 226 274 335 406
#     4  10  19  37  62  94 135 177 226 283 335 397
#     4  12  27  44  68 101 134 175 226 274 335 406
#     4   9  16  31  61  98 132 178 234 276 331 401
#     4  10  19  37  62  94 135 177 226 283 335 397
#     4   9  18  29  56  90 125 171 225 280 340 394
#     4  12  26  52  72  90 136 184 222 274 334 398
#
# _framework density 20.585044
#
# number of rings (size 3 to 8) (size 9 to 14) (size 15 to 20)
#    0.000    1.905    3.810    0.286    2.667    0.762 
#    0.000    5.714    0.000    2.286    0.000    0.000 
#    0.000    0.000    0.000    0.000    0.000    0.000 
#
# Total GULP energy -234075.540692 kJ/mol
# GULP energy per Si atom -5573.227159 kJ/mol
# Density = 2.053819 g / cm^3
# Si number density = 20.585044 Si / 1000 Ang^3
#
#
#
# Elastic Constant Matrix: (Units=GPa)
#
#
# Indices 1 2 3 4 5 6 
#
# 1 202.1772 126.5991 29.8204 0.0000 0.0000 0.0000
# 2 126.5991 232.8299 48.4185 0.0000 0.0000 0.0000
# 3 29.8204 48.4185 101.0365 0.0000 0.0000 0.0000
# 4 0.0000 0.0000 0.0000 12.7260 0.0000 0.0000
# 5 0.0000 0.0000 0.0000 0.0000 -7.6952 0.0000
# 6 0.0000 0.0000 0.0000 0.0000 0.0000 2117.9374
#
#
#
# Elastic Compliance Matrix: (Units=1/GPa)
#
#
# Indices 1 2 3 4 5 6 
#
# 1 0.007507 -0.004022 -0.000288 0.000000 0.000000 0.000000
# 2 -0.004022 0.006925 -0.002132 0.000000 0.000000 0.000000
# 3 -0.000288 -0.002132 0.011004 0.000000 0.000000 0.000000
# 4 0.000000 0.000000 0.000000 0.078579 0.000000 0.000000
# 5 0.000000 0.000000 0.000000 0.000000 -0.129951 0.000000
# 6 0.000000 0.000000 0.000000 0.000000 0.000000 0.000472
#
#
# Mechanical properties :
#
#
# Convention : Reuss Voigt Hill
#
# Bulk Modulus (GPa) = 79.66494 105.07999 92.37246
# Shear Modulus (GPa) = -595.59518 446.67401 -74.46058
#
# Velocity S-wave (km/s) = -17.02827 14.74655 -6.02086
# Velocity P-wave (km/s) = 18.65025 18.46903 1.83392
#
# Compressibility (1/GPa) = 0.01255257
#
# Stress axis : x y z
#
# Youngs Moduli (GPa) = 133.20599 144.40039 90.87607
#
# Poissons Ratio (x) = 0.58078 0.02620
# Poissons Ratio (y) = 0.53575 0.19371
# Poissons Ratio (z) = 0.03840 0.30780
#
# Static dielectric constant tensor:
#      x y z
#    x 1.674620 0.000000 0.000000 
#    y 0.000000 1.743820 0.000000 
#    z 0.000000 0.000000 1.731170 
# 
# From -- ./inp_files/11178.got.cif
#   From: 2010.05.17/outbox.cif.g08.bks.cpg/sg67_6_cif.got.tgz:11178.got - 2010.06.03 18:28:57.
