data_PCOD9502759
_publ_section_title
;
Structure prediction by ZEFSAII (Michael W. Deem and Ramdas Pophale) SiO2 
 PCOD9502759
Probable space group: C M M A
;
_chemical_formula_sum "Si O2"
_cell_formula_units_Z 112
_cell_length_a 28.563323
_cell_length_b 14.388742
_cell_length_c 12.408318
_cell_angle_alpha 90.000000
_cell_angle_beta 90.000000
_cell_angle_gamma 90.000000
_cell_volume 5099.698155
_symmetry_space_group_name_H-M "C M M A"
_symmetry_group_IT_number 67
_symmetry_cell_setting 'orthorhombic'
loop_
_space_group_symop_operation_xyz
x,y,z
-x,1/2-y,z
x,-y,-z
-x,1/2+y,-z
-x,-y,-z
x,1/2+y,-z
-x,y,z
x,1/2-y,z
1/2+x,1/2+y,z
1/2-x,-y,z
1/2+x,1/2-y,-z
1/2-x,y,-z
1/2-x,1/2-y,-z
1/2+x,y,-z
1/2-x,1/2+y,z
1/2+x,-y,z
loop_
_atom_site_type_symbol
_atom_site_label
_atom_site_fract_x
_atom_site_fract_y
_atom_site_fract_z
Si Si1 0.947081 0.362744 0.423979
Si Si2 0.701003 0.477544 0.311681
Si Si3 0.132121 0.143233 0.256717
Si Si4 0.717075 0.145357 0.099497
Si Si5 0.384416 0.362277 0.371139
Si Si6 0.620066 0.109591 0.992335
Si Si7 0.948129 0.859480 0.175567
O O1 0.950313 0.250000 0.425103
O O2 0.913411 0.386308 0.324931
O O3 0.919603 0.387612 0.532883
O O4 0.000000 0.399353 0.418467
O O5 0.750000 0.500000 0.366844
O O6 0.673627 0.571669 0.281020
O O7 0.714467 0.421176 0.202231
O O8 0.664913 0.413799 0.377551
O O9 0.143925 0.250000 0.286478
O O10 0.120325 0.139700 0.130671
O O11 0.732868 0.250000 0.130002
O O12 0.750000 0.114001 0.000000
O O13 0.664598 0.151180 0.053484
O O14 0.377844 0.250000 0.370397
O O15 0.409501 0.393659 0.260189
O O16 0.572884 0.131557 0.056773
O O17 0.626974 0.000000 0.000000
O O18 0.951986 0.750000 0.200021
O O19 0.000000 0.900807 0.186806
#
# Coordination Sequence:
#
# PCOD9502759 Si02
#       7
#    16  16  16  16  16  16  16
#     4   9  20  42  73 102 129 172 225 274 330 396
#     4  12  25  41  64  94 131 172 220 276 326 395
#     4  11  24  42  63  92 134 177 219 267 324 391
#     4  11  23  39  64  94 125 168 220 274 331 388
#     4  10  20  41  69  97 130 166 217 281 335 385
#     4  12  22  38  59  87 131 171 213 266 319 394
#     4  10  20  34  57  90 126 164 206 261 331 391
#
# _framework density 21.962084000000001
#
# number of rings (size 3 to 8) (size 9 to 14) (size 15 to 20)
#    0.000    1.286    2.857    3.000    0.000    5.429 
#    0.000    6.429    0.000    3.000    0.000    0.000 
#    0.000    0.000    0.000    0.000    0.000    0.000 
#
# Total GULP energy -313307.802572 kJ/mol
# GULP energy per Si atom -5594.782189 kJ/mol
# Density = 2.191210 g / cm^3
# Si number density = 21.962084 Si / 1000 Ang^3
#
#
#
# Elastic Constant Matrix: (Units=GPa)
#
#
# Indices 1 2 3 4 5 6 
#
# 1 167.2209 40.8695 38.7051 0.0000 0.0000 0.0000
# 2 40.8695 110.9277 14.4976 0.0000 0.0000 0.0000
# 3 38.7051 14.4976 60.9191 0.0000 0.0000 0.0000
# 4 0.0000 0.0000 0.0000 18.6878 0.0000 0.0000
# 5 0.0000 0.0000 0.0000 0.0000 -19.9213 0.0000
# 6 0.0000 0.0000 0.0000 0.0000 0.0000 11.4218
#
#
#
# Elastic Compliance Matrix: (Units=1/GPa)
#
#
# Indices 1 2 3 4 5 6 
#
# 1 0.007502 -0.002210 -0.004240 0.000000 0.000000 0.000000
# 2 -0.002210 0.009955 -0.000965 0.000000 0.000000 0.000000
# 3 -0.004240 -0.000965 0.019339 0.000000 0.000000 0.000000
# 4 0.000000 0.000000 0.000000 0.053511 0.000000 0.000000
# 5 0.000000 0.000000 0.000000 0.000000 -0.050198 0.000000
# 6 0.000000 0.000000 0.000000 0.000000 0.000000 0.087552
#
#
# Mechanical properties :
#
#
# Convention : Reuss Voigt Hill
#
# Bulk Modulus (GPa) = 45.52618 58.57911 52.05265
# Shear Modulus (GPa) = 33.37489 18.37069 25.87279
#
# Velocity S-wave (km/s) = 3.90251 2.89532 3.43602
# Velocity P-wave (km/s) = 6.40941 6.15694 6.28444
#
# Compressibility (1/GPa) = 0.02196538
#
# Stress axis : x y z
#
# Youngs Moduli (GPa) = 133.30425 100.45054 51.70890
#
# Poissons Ratio (x) = 0.22196 0.21926
# Poissons Ratio (y) = 0.29456 0.04991
# Poissons Ratio (z) = 0.56525 0.09696
#
# Static dielectric constant tensor:
#      x y z
#    x 1.786280 0.000000 0.000000 
#    y 0.000000 1.844160 0.000000 
#    z 0.000000 0.000000 1.786810 
# 
# From -- ./inp_files/23786.got.cif
#   From: 2010.05.17/outbox.cif.g08.bks.cpg/sg67_12_cif.got.tgz:23786.got - 2010.06.03 18:28:57.
