data_PCOD9502349
_publ_section_title
;
Structure prediction by ZEFSAII (Michael W. Deem and Ramdas Pophale) SiO2 
 PCOD9502349
Probable space group: C M M A
;
_chemical_formula_sum "Si O2"
_cell_formula_units_Z 96
_cell_length_a 28.614542
_cell_length_b 17.218025
_cell_length_c 8.517709
_cell_angle_alpha 90.000000
_cell_angle_beta 90.000000
_cell_angle_gamma 90.000000
_cell_volume 4196.555121
_symmetry_space_group_name_H-M "C M M A"
_symmetry_group_IT_number 67
_symmetry_cell_setting 'orthorhombic'
loop_
_space_group_symop_operation_xyz
x,y,z
-x,1/2-y,z
x,-y,-z
-x,1/2+y,-z
-x,-y,-z
x,1/2+y,-z
-x,y,z
x,1/2-y,z
1/2+x,1/2+y,z
1/2-x,-y,z
1/2+x,1/2-y,-z
1/2-x,y,-z
1/2-x,1/2-y,-z
1/2+x,y,-z
1/2-x,1/2+y,z
1/2+x,-y,z
loop_
_atom_site_type_symbol
_atom_site_label
_atom_site_fract_x
_atom_site_fract_y
_atom_site_fract_z
Si Si1 0.611294 0.412378 0.071356
Si Si2 0.854486 0.659419 0.622335
Si Si3 0.948165 0.033779 0.659058
Si Si4 0.447061 0.865714 0.209542
Si Si5 0.277803 0.341536 0.849507
Si Si6 0.181787 0.158914 0.708827
O O1 0.581065 0.411146 0.231980
O O2 0.659928 0.380692 0.136637
O O3 0.615860 0.500000 0.000000
O O4 0.582297 0.358868 0.950593
O O5 0.840662 0.750000 0.617652
O O6 0.909835 0.657978 0.657082
O O7 0.824902 0.624928 0.769679
O O8 0.838565 0.626604 0.454901
O O9 0.000000 0.064297 0.618392
O O10 0.926399 0.000000 0.500000
O O11 0.953069 0.957530 0.765824
O O12 0.500000 0.834111 0.211185
O O13 0.286983 0.250000 0.888641
O O14 0.237759 0.345622 0.715759
O O15 0.250000 0.374650 0.000000
O O16 0.169133 0.250000 0.719761
#
# Coordination Sequence:
#
# PCOD9502349 Si02
#       6
#    16  16  16  16  16  16
#     4  10  20  34  54  81 110 145 187 235 283 332
#     4  10  20  34  54  81 113 148 187 231 280 335
#     4   9  17  31  52  74  98 135 184 231 273 326
#     4  10  20  33  51  75 104 142 186 229 274 327
#     4   9  17  31  54  82 109 139 179 223 268 327
#     4  10  20  35  56  82 112 146 186 232 282 337
#
# _framework density 22.875904999999999
#
# number of rings (size 3 to 8) (size 9 to 14) (size 15 to 20)
#    0.000    2.333    0.000    3.000    0.000    6.333 
#    0.000    0.833    0.000   15.000    0.000   15.167 
#    0.000    0.000    0.000    0.000    0.000    0.000 
#
# Total GULP energy -267392.229590 kJ/mol
# GULP energy per Si atom -5570.671450 kJ/mol
# Density = 2.282384 g / cm^3
# Si number density = 22.875905 Si / 1000 Ang^3
#
#
#
# Elastic Constant Matrix: (Units=GPa)
#
#
# Indices 1 2 3 4 5 6 
#
# 1 141.4344 8.6791 50.8073 0.0000 0.0000 0.0000
# 2 8.6791 14.8095 -3.9141 0.0000 0.0000 0.0000
# 3 50.8073 -3.9141 108.3746 0.0000 0.0000 0.0000
# 4 0.0000 0.0000 0.0000 18.7298 0.0000 0.0000
# 5 0.0000 0.0000 0.0000 0.0000 33.7815 0.0000
# 6 0.0000 0.0000 0.0000 0.0000 0.0000 16.7215
#
#
#
# Elastic Compliance Matrix: (Units=1/GPa)
#
#
# Indices 1 2 3 4 5 6 
#
# 1 0.009084 -0.006512 -0.004494 0.000000 0.000000 0.000000
# 2 -0.006512 0.072843 0.005684 0.000000 0.000000 0.000000
# 3 -0.004494 0.005684 0.011539 0.000000 0.000000 0.000000
# 4 0.000000 0.000000 0.000000 0.053391 0.000000 0.000000
# 5 0.000000 0.000000 0.000000 0.000000 0.029602 0.000000
# 6 0.000000 0.000000 0.000000 0.000000 0.000000 0.059803
#
#
# Mechanical properties :
#
#
# Convention : Reuss Voigt Hill
#
# Bulk Modulus (GPa) = 12.07408 41.75147 26.91277
# Shear Modulus (GPa) = 18.21398 27.78296 22.99847
#
# Velocity S-wave (km/s) = 2.82478 3.48876 3.17418
# Velocity P-wave (km/s) = 3.99108 5.87533 5.02236
#
# Compressibility (1/GPa) = 0.08282207
#
# Stress axis : x y z
#
# Youngs Moduli (GPa) = 110.07891 13.72822 86.65974
#
# Poissons Ratio (x) = 0.08939 0.38945
# Poissons Ratio (y) = 0.71680 -0.49253
# Poissons Ratio (z) = 0.49470 -0.07802
#
# Static dielectric constant tensor:
#      x y z
#    x 1.905340 0.000000 0.000000 
#    y 0.000000 1.865420 0.000000 
#    z 0.000000 0.000000 1.929470 
# 
# From -- ./inp_files/11427.got.cif
#   From: 2010.05.17/outbox.cif.g08.bks.cpg/sg67_6_cif.got.tgz:11427.got - 2010.06.03 18:28:57.
