data_PCOD9502943
_publ_section_title
;
Structure prediction by ZEFSAII (Michael W. Deem and Ramdas Pophale) SiO2 
 PCOD9502943
Probable space group: C M M A
;
_chemical_formula_sum "Si O2"
_cell_formula_units_Z 88
_cell_length_a 9.376100
_cell_length_b 17.058445
_cell_length_c 30.151499
_cell_angle_alpha 90.000000
_cell_angle_beta 90.000000
_cell_angle_gamma 90.000000
_cell_volume 4822.481590
_symmetry_space_group_name_H-M "C M M A"
_symmetry_group_IT_number 67
_symmetry_cell_setting 'orthorhombic'
loop_
_space_group_symop_operation_xyz
x,y,z
-x,1/2-y,z
x,-y,-z
-x,1/2+y,-z
-x,-y,-z
x,1/2+y,-z
-x,y,z
x,1/2-y,z
1/2+x,1/2+y,z
1/2-x,-y,z
1/2+x,1/2-y,-z
1/2-x,y,-z
1/2-x,1/2-y,-z
1/2+x,y,-z
1/2-x,1/2+y,z
1/2+x,-y,z
loop_
_atom_site_type_symbol
_atom_site_label
_atom_site_fract_x
_atom_site_fract_y
_atom_site_fract_z
Si Si1 0.827294 0.250000 0.047164
Si Si2 0.662428 0.341568 0.272803
Si Si3 0.336709 0.155819 0.457710
Si Si4 0.827462 0.081785 0.634527
Si Si5 0.668742 0.420126 0.801416
Si Si6 0.829843 0.917541 0.906396
O O1 0.789622 0.166042 0.070769
O O2 0.000000 0.250000 0.043354
O O3 0.750000 0.250000 0.000000
O O4 0.500000 0.368524 0.262522
O O5 0.656430 0.250000 0.282185
O O6 0.712760 0.382331 0.317923
O O7 0.763209 0.357181 0.231198
O O8 0.500000 0.129585 0.462244
O O9 0.334335 0.250000 0.459170
O O10 0.250000 0.125669 0.500000
O O11 0.285880 0.130968 0.409008
O O12 0.000000 0.075694 0.634751
O O13 0.750000 0.000000 0.630245
O O14 0.500000 0.427099 0.794765
O O15 0.750000 0.500000 0.789714
O O16 0.694063 0.405791 0.853648
O O17 0.000000 0.929229 0.913600
O O18 0.750000 0.000000 0.919107
#
# Coordination Sequence:
#
# PCOD9502943 Si02
#       6
#     8  16  16  16  16  16
#     4  10  22  40  60  86 118 156 196 242 291 344
#     4  10  21  36  54  78 108 142 180 223 270 324
#     4   9  18  34  55  76  98 128 166 209 258 312
#     4  10  21  36  53  73 102 138 173 212 262 316
#     4  10  20  35  57  82 111 146 184 227 276 331
#     4   9  20  38  60  84 117 155 194 238 291 345
#
# _framework density 18.247865999999998
#
# number of rings (size 3 to 8) (size 9 to 14) (size 15 to 20)
#    0.000    2.364    0.000    1.636    1.273    7.636 
#    0.000    3.636    0.000    3.273    0.000    0.000 
#    0.000    0.000    0.000    0.000    0.000    0.000 
#
# Total GULP energy -245186.274317 kJ/mol
# GULP energy per Si atom -5572.415325 kJ/mol
# Density = 1.820633 g / cm^3
# Si number density = 18.247866 Si / 1000 Ang^3
#
#
#
# Elastic Constant Matrix: (Units=GPa)
#
#
# Indices 1 2 3 4 5 6 
#
# 1 36.4549 28.1477 42.1907 0.0000 0.0000 0.0000
# 2 28.1477 69.5728 41.5309 0.0000 0.0000 0.0000
# 3 42.1907 41.5309 78.7633 0.0000 0.0000 0.0000
# 4 0.0000 0.0000 0.0000 53.1402 0.0000 0.0000
# 5 0.0000 0.0000 0.0000 0.0000 20.2907 0.0000
# 6 0.0000 0.0000 0.0000 0.0000 0.0000 22.0982
#
#
#
# Elastic Compliance Matrix: (Units=1/GPa)
#
#
# Indices 1 2 3 4 5 6 
#
# 1 0.076194 -0.009431 -0.035841 0.000000 0.000000 0.000000
# 2 -0.009431 0.022143 -0.006624 0.000000 0.000000 0.000000
# 3 -0.035841 -0.006624 0.035388 0.000000 0.000000 0.000000
# 4 0.000000 0.000000 0.000000 0.018818 0.000000 0.000000
# 5 0.000000 0.000000 0.000000 0.000000 0.049284 0.000000
# 6 0.000000 0.000000 0.000000 0.000000 0.000000 0.045253
#
#
# Mechanical properties :
#
#
# Convention : Reuss Voigt Hill
#
# Bulk Modulus (GPa) = 33.40902 45.39217 39.40060
# Shear Modulus (GPa) = 13.85621 23.96727 18.91174
#
# Velocity S-wave (km/s) = 2.75859 3.62806 3.22278
# Velocity P-wave (km/s) = 5.33804 6.51765 5.95711
#
# Compressibility (1/GPa) = 0.02993204
#
# Stress axis : x y z
#
# Youngs Moduli (GPa) = 13.12445 45.16071 28.25832
#
# Poissons Ratio (x) = 0.42592 1.01281
# Poissons Ratio (y) = 0.12378 0.18718
# Poissons Ratio (z) = 0.47040 0.29914
#
# Static dielectric constant tensor:
#      x y z
#    x 1.626920 0.000000 0.000000 
#    y 0.000000 1.632090 0.000000 
#    z 0.000000 0.000000 1.616640 
# 
# From -- ./inp_files/45203.got.cif
#   From: 2010.05.17/outbox.cif.g08.bks.cpg/sg67_23_cif.got.tgz:45203.got - 2010.06.03 18:28:57.
