data_PCOD9502152
_publ_section_title
;
Structure prediction by ZEFSAII (Michael W. Deem and Ramdas Pophale) SiO2 
 PCOD9502152
Probable space group: C M M A
;
_chemical_formula_sum "Si O2"
_cell_formula_units_Z 96
_cell_length_a 28.391250
_cell_length_b 8.679260
_cell_length_c 24.421094
_cell_angle_alpha 90.000000
_cell_angle_beta 90.000000
_cell_angle_gamma 90.000000
_cell_volume 6017.724866
_symmetry_space_group_name_H-M "C M M A"
_symmetry_group_IT_number 67
_symmetry_cell_setting 'orthorhombic'
loop_
_space_group_symop_operation_xyz
x,y,z
-x,1/2-y,z
x,-y,-z
-x,1/2+y,-z
-x,-y,-z
x,1/2+y,-z
-x,y,z
x,1/2-y,z
1/2+x,1/2+y,z
1/2-x,-y,z
1/2+x,1/2-y,-z
1/2-x,y,-z
1/2-x,1/2-y,-z
1/2+x,y,-z
1/2-x,1/2+y,z
1/2+x,-y,z
loop_
_atom_site_type_symbol
_atom_site_label
_atom_site_fract_x
_atom_site_fract_y
_atom_site_fract_z
Si Si1 0.554561 0.065725 0.559338
Si Si2 0.447059 0.062528 0.224861
Si Si3 0.197769 0.933725 0.940828
Si Si4 0.801496 0.935258 0.274152
Si Si5 0.354424 0.936357 0.837357
Si Si6 0.105421 0.936155 0.335742
O O1 0.500000 0.017809 0.569634
O O2 0.556083 0.250000 0.557558
O O3 0.568078 0.000000 0.500000
O O4 0.587033 0.004850 0.607979
O O5 0.500000 0.007808 0.214409
O O6 0.447574 0.250000 0.224439
O O7 0.406951 0.017002 0.181542
O O8 0.428719 0.018049 0.285263
O O9 0.200381 0.750000 0.943536
O O10 0.250000 0.000000 0.929277
O O11 0.163564 0.987872 0.892656
O O12 0.183415 0.000000 0.000000
O O13 0.799711 0.750000 0.275197
O O14 0.820384 0.978834 0.213615
O O15 0.842025 0.983150 0.317078
O O16 0.750000 0.000000 0.284756
O O17 0.353170 0.750000 0.842631
O O18 0.104445 0.750000 0.339096
#
# Coordination Sequence:
#
# PCOD9502152 Si02
#       6
#    16  16  16  16  16  16
#     4  10  20  32  47  69  95 123 154 188 229 275
#     4   8  14  26  47  72  96 125 157 187 224 271
#     4  11  21  33  49  69  93 121 153 189 232 277
#     4   9  18  30  46  69  96 126 156 188 227 272
#     4   9  17  30  47  70  98 124 154 190 227 270
#     4   9  17  30  48  70  95 123 156 191 228 271
#
# _framework density 15.952874
#
# number of rings (size 3 to 8) (size 9 to 14) (size 15 to 20)
#    0.000    2.667    0.000    5.500    0.000    4.333 
#    0.000    2.500    0.000    2.500    0.000    3.500 
#    0.000    0.000    0.000    0.000    0.000    0.000 
#
# Total GULP energy -267634.064261 kJ/mol
# GULP energy per Si atom -5575.709672 kJ/mol
# Density = 1.591656 g / cm^3
# Si number density = 15.952874 Si / 1000 Ang^3
#
#
#
# Elastic Constant Matrix: (Units=GPa)
#
#
# Indices 1 2 3 4 5 6 
#
# 1 139.1402 36.6997 96.6410 0.0000 0.0000 0.0000
# 2 36.6997 45.2446 45.4683 0.0000 0.0000 0.0000
# 3 96.6410 45.4683 147.8960 0.0000 0.0000 0.0000
# 4 0.0000 0.0000 0.0000 23.6245 0.0000 0.0000
# 5 0.0000 0.0000 0.0000 0.0000 21.9051 0.0000
# 6 0.0000 0.0000 0.0000 0.0000 0.0000 20.0124
#
#
#
# Elastic Compliance Matrix: (Units=1/GPa)
#
#
# Indices 1 2 3 4 5 6 
#
# 1 0.013436 -0.003003 -0.007856 0.000000 0.000000 0.000000
# 2 -0.003003 0.032655 -0.008077 0.000000 0.000000 0.000000
# 3 -0.007856 -0.008077 0.014378 0.000000 0.000000 0.000000
# 4 0.000000 0.000000 0.000000 0.042329 0.000000 0.000000
# 5 0.000000 0.000000 0.000000 0.000000 0.045652 0.000000
# 6 0.000000 0.000000 0.000000 0.000000 0.000000 0.049969
#
#
# Mechanical properties :
#
#
# Convention : Reuss Voigt Hill
#
# Bulk Modulus (GPa) = 44.25494 76.65541 60.45518
# Shear Modulus (GPa) = 20.50673 23.33985 21.92329
#
# Velocity S-wave (km/s) = 3.58922 3.82913 3.71111
# Velocity P-wave (km/s) = 6.70656 8.22831 7.50610
#
# Compressibility (1/GPa) = 0.02259634
#
# Stress axis : x y z
#
# Youngs Moduli (GPa) = 74.42893 30.62330 69.55044
#
# Poissons Ratio (x) = 0.09197 0.54639
# Poissons Ratio (y) = 0.22353 0.56174
# Poissons Ratio (z) = 0.58472 0.24734
#
# Static dielectric constant tensor:
#      x y z
#    x 1.533780 0.000000 0.000000 
#    y 0.000000 1.538710 0.000000 
#    z 0.000000 0.000000 1.509950 
# 
# From -- ./inp_files/40938.got.cif
#   From: 2010.05.17/outbox.cif.g08.bks.cpg/sg67_21_cif.got.tgz:40938.got - 2010.06.03 18:28:57.
