data_PCOD9502588
_publ_section_title
;
Structure prediction by ZEFSAII (Michael W. Deem and Ramdas Pophale) SiO2 
 PCOD9502588
Probable space group: C M M A
;
_chemical_formula_sum "Si O2"
_cell_formula_units_Z 104
_cell_length_a 26.715134
_cell_length_b 8.711486
_cell_length_c 22.583774
_cell_angle_alpha 90.000000
_cell_angle_beta 90.000000
_cell_angle_gamma 90.000000
_cell_volume 5255.888205
_symmetry_space_group_name_H-M "C M M A"
_symmetry_group_IT_number 67
_symmetry_cell_setting 'orthorhombic'
loop_
_space_group_symop_operation_xyz
x,y,z
-x,1/2-y,z
x,-y,-z
-x,1/2+y,-z
-x,-y,-z
x,1/2+y,-z
-x,y,z
x,1/2-y,z
1/2+x,1/2+y,z
1/2-x,-y,z
1/2+x,1/2-y,-z
1/2-x,y,-z
1/2-x,1/2-y,-z
1/2+x,y,-z
1/2-x,1/2+y,z
1/2+x,-y,z
loop_
_atom_site_type_symbol
_atom_site_label
_atom_site_fract_x
_atom_site_fract_y
_atom_site_fract_z
Si Si1 0.109085 0.935019 0.433267
Si Si2 0.337248 0.065342 0.229215
Si Si3 0.696994 0.432676 0.646757
Si Si4 0.801519 0.433263 0.105030
Si Si5 0.054748 0.565090 0.186186
Si Si6 0.000000 0.934320 0.433603
Si Si7 0.411689 0.932721 0.061967
O O1 0.112886 0.750000 0.434569
O O2 0.053908 0.978154 0.407618
O O3 0.112065 0.000000 0.500000
O O4 0.152719 0.004438 0.394094
O O5 0.333956 0.250000 0.232730
O O6 0.395922 0.019123 0.222764
O O7 0.313373 0.991344 0.286854
O O8 0.310544 0.007427 0.169640
O O9 0.698449 0.250000 0.645528
O O10 0.750000 0.500000 0.626478
O O11 0.797560 0.250000 0.110555
O O12 0.750000 0.500000 0.079811
O O13 0.852300 0.468541 0.069325
O O14 0.055534 0.750000 0.184114
O O15 0.062268 0.503335 0.119666
O O16 0.000000 0.516301 0.208824
O O17 0.000000 0.750000 0.437033
O O18 0.000000 0.000000 0.500000
O O19 0.417806 0.750000 0.062818
O O20 0.429899 0.000000 0.000000
#
# Coordination Sequence:
#
# PCOD9502588 Si02
#       7
#    16  16  16  16  16   8  16
#     4  10  20  38  62  91 123 159 199 241 290 343
#     4  10  20  37  59  82 110 143 183 230 282 339
#     4  12  25  41  60  85 118 156 198 244 291 345
#     4  10  20  34  53  77 104 138 180 224 276 331
#     4   9  19  37  60  83 108 141 181 226 277 334
#     4   8  16  32  58  86 116 152 190 232 277 330
#     4  10  21  35  52  76 107 142 180 224 272 329
#
# _framework density 19.787329
#
# number of rings (size 3 to 8) (size 9 to 14) (size 15 to 20)
#    0.000    2.000    0.000    3.692    0.000    4.308 
#    1.385    3.077    0.000    0.000    0.000    0.000 
#    0.000    0.000    0.000    0.000    0.000    0.000 
#
# Total GULP energy -290444.088303 kJ/mol
# GULP energy per Si atom -5585.463237 kJ/mol
# Density = 1.974229 g / cm^3
# Si number density = 19.787329 Si / 1000 Ang^3
#
#
#
# Elastic Constant Matrix: (Units=GPa)
#
#
# Indices 1 2 3 4 5 6 
#
# 1 141.4986 38.5896 19.1264 0.0000 0.0000 0.0000
# 2 38.5896 61.5353 19.4322 0.0000 0.0000 0.0000
# 3 19.1264 19.4322 46.7480 0.0000 0.0000 0.0000
# 4 0.0000 0.0000 0.0000 26.2036 0.0000 0.0000
# 5 0.0000 0.0000 0.0000 0.0000 -146.6925 0.0000
# 6 0.0000 0.0000 0.0000 0.0000 0.0000 24.3059
#
#
#
# Elastic Compliance Matrix: (Units=1/GPa)
#
#
# Indices 1 2 3 4 5 6 
#
# 1 0.008612 -0.004936 -0.001472 0.000000 0.000000 0.000000
# 2 -0.004936 0.021536 -0.006932 0.000000 0.000000 0.000000
# 3 -0.001472 -0.006932 0.024875 0.000000 0.000000 0.000000
# 4 0.000000 0.000000 0.000000 0.038163 0.000000 0.000000
# 5 0.000000 0.000000 0.000000 0.000000 -0.006817 0.000000
# 6 0.000000 0.000000 0.000000 0.000000 0.000000 0.041142
#
#
# Mechanical properties :
#
#
# Convention : Reuss Voigt Hill
#
# Bulk Modulus (GPa) = 35.28278 44.89759 40.09019
# Shear Modulus (GPa) = 30.55510 -7.72769 11.41370
#
# Velocity S-wave (km/s) = 3.93386 -1.97835 2.40431
# Velocity P-wave (km/s) = 6.20511 4.18579 5.29265
#
# Compressibility (1/GPa) = 0.02834244
#
# Stress axis : x y z
#
# Youngs Moduli (GPa) = 116.11252 46.43492 40.20093
#
# Poissons Ratio (x) = 0.22921 0.05917
# Poissons Ratio (y) = 0.57315 0.27869
# Poissons Ratio (z) = 0.17089 0.32190
#
# Static dielectric constant tensor:
#      x y z
#    x 1.746840 0.000000 0.000000 
#    y 0.000000 1.668100 0.000000 
#    z 0.000000 0.000000 1.653330 
# 
# From -- ./inp_files/39963.got.cif
#   From: 2010.05.17/outbox.cif.g08.bks.cpg/sg67_20_cif.got.tgz:39963.got - 2010.06.03 18:28:57.
