data_PCOD9502758
_publ_section_title
;
Structure prediction by ZEFSAII (Michael W. Deem and Ramdas Pophale) SiO2 
 PCOD9502758
Probable space group: C M M A
;
_chemical_formula_sum "Si O2"
_cell_formula_units_Z 96
_cell_length_a 14.724337
_cell_length_b 15.034857
_cell_length_c 20.487597
_cell_angle_alpha 90.000000
_cell_angle_beta 90.000000
_cell_angle_gamma 90.000000
_cell_volume 4535.509420
_symmetry_space_group_name_H-M "C M M A"
_symmetry_group_IT_number 67
_symmetry_cell_setting 'orthorhombic'
loop_
_space_group_symop_operation_xyz
x,y,z
-x,1/2-y,z
x,-y,-z
-x,1/2+y,-z
-x,-y,-z
x,1/2+y,-z
-x,y,z
x,1/2-y,z
1/2+x,1/2+y,z
1/2-x,-y,z
1/2+x,1/2-y,-z
1/2-x,y,-z
1/2-x,1/2-y,-z
1/2+x,y,-z
1/2-x,1/2+y,z
1/2+x,-y,z
loop_
_atom_site_type_symbol
_atom_site_label
_atom_site_fract_x
_atom_site_fract_y
_atom_site_fract_z
Si Si1 0.602847 0.398168 0.519809
Si Si2 0.891416 0.855852 0.051468
Si Si3 0.100279 0.855420 0.286094
Si Si4 0.892539 0.651375 0.904523
Si Si5 0.652763 0.476016 0.169496
Si Si6 0.230519 0.352234 0.600153
O O1 0.594306 0.500000 0.500000
O O2 0.500000 0.363141 0.530455
O O3 0.674520 0.395694 0.579383
O O4 0.659007 0.354716 0.460126
O O5 0.881988 0.750000 0.063240
O O6 0.840940 0.914686 0.104867
O O7 0.000000 0.877514 0.057080
O O8 0.859234 0.872703 0.977386
O O9 0.113560 0.750000 0.270025
O O10 0.101912 0.916565 0.222378
O O11 0.176752 0.885638 0.336884
O O12 0.000000 0.862095 0.317192
O O13 0.856348 0.750000 0.885789
O O14 0.882995 0.571409 0.854142
O O15 0.000000 0.661525 0.914159
O O16 0.750000 0.500000 0.197818
O O17 0.253172 0.250000 0.612618
#
# Coordination Sequence:
#
# PCOD9502758 Si02
#       6
#    16  16  16  16  16  16
#     4  10  20  34  57  89 126 164 196 232 281 339
#     4   9  18  35  59  83 107 140 188 244 295 348
#     4  10  22  41  63  84 109 149 204 261 309 353
#     4   9  19  36  57  81 110 145 187 237 292 353
#     4  12  24  34  52  81 114 152 190 235 295 365
#     4  10  20  35  59  90 122 152 191 245 294 343
#
# _framework density 21.166309999999999
#
# number of rings (size 3 to 8) (size 9 to 14) (size 15 to 20)
#    0.000    2.000    0.000    6.000    0.000    8.667 
#    0.000    1.667    0.000    2.000    0.000    0.000 
#    0.000    0.000    0.000    0.000    0.000    0.000 
#
# Total GULP energy -267820.931527 kJ/mol
# GULP energy per Si atom -5579.602740 kJ/mol
# Density = 2.111813 g / cm^3
# Si number density = 21.166310 Si / 1000 Ang^3
#
#
#
# Elastic Constant Matrix: (Units=GPa)
#
#
# Indices 1 2 3 4 5 6 
#
# 1 126.3111 31.5020 42.9311 0.0000 0.0000 0.0000
# 2 31.5020 76.8620 50.8594 0.0000 0.0000 0.0000
# 3 42.9311 50.8594 92.6920 0.0000 0.0000 0.0000
# 4 0.0000 0.0000 0.0000 29.0449 0.0000 0.0000
# 5 0.0000 0.0000 0.0000 0.0000 -17.8421 0.0000
# 6 0.0000 0.0000 0.0000 0.0000 0.0000 33.1153
#
#
#
# Elastic Compliance Matrix: (Units=1/GPa)
#
#
# Indices 1 2 3 4 5 6 
#
# 1 0.009511 -0.001544 -0.003558 0.000000 0.000000 0.000000
# 2 -0.001544 0.020677 -0.010630 0.000000 0.000000 0.000000
# 3 -0.003558 -0.010630 0.018269 0.000000 0.000000 0.000000
# 4 0.000000 0.000000 0.000000 0.034429 0.000000 0.000000
# 5 0.000000 0.000000 0.000000 0.000000 -0.056047 0.000000
# 6 0.000000 0.000000 0.000000 0.000000 0.000000 0.030198
#
#
# Mechanical properties :
#
#
# Convention : Reuss Voigt Hill
#
# Bulk Modulus (GPa) = 58.84774 60.71668 59.78221
# Shear Modulus (GPa) = 53.09742 20.23513 36.66628
#
# Velocity S-wave (km/s) = 5.01401 3.09529 4.16660
# Velocity P-wave (km/s) = 7.83475 6.44377 7.17306
#
# Compressibility (1/GPa) = 0.01699301
#
# Stress axis : x y z
#
# Youngs Moduli (GPa) = 105.13748 48.36258 54.73676
#
# Poissons Ratio (x) = 0.07466 0.19476
# Poissons Ratio (y) = 0.16231 0.58187
# Poissons Ratio (z) = 0.37410 0.51411
#
# Static dielectric constant tensor:
#      x y z
#    x 1.843790 0.000000 0.000000 
#    y 0.000000 1.808380 0.000000 
#    z 0.000000 0.000000 1.752920 
# 
# From -- ./inp_files/38396.got.cif
#   From: 2010.05.17/outbox.cif.g08.bks.cpg/sg67_20_cif.got.tgz:38396.got - 2010.06.03 18:28:57.
