data_PCOD9502628
_publ_section_title
;
Structure prediction by ZEFSAII (Michael W. Deem and Ramdas Pophale) SiO2 
 PCOD9502628
Probable space group: C M M A
;
_chemical_formula_sum "Si O2"
_cell_formula_units_Z 96
_cell_length_a 14.962652
_cell_length_b 12.084388
_cell_length_c 25.805818
_cell_angle_alpha 90.000000
_cell_angle_beta 90.000000
_cell_angle_gamma 90.000000
_cell_volume 4666.065879
_symmetry_space_group_name_H-M "C M M A"
_symmetry_group_IT_number 67
_symmetry_cell_setting 'orthorhombic'
loop_
_space_group_symop_operation_xyz
x,y,z
-x,1/2-y,z
x,-y,-z
-x,1/2+y,-z
-x,-y,-z
x,1/2+y,-z
-x,y,z
x,1/2-y,z
1/2+x,1/2+y,z
1/2-x,-y,z
1/2+x,1/2-y,-z
1/2-x,y,-z
1/2-x,1/2-y,-z
1/2+x,y,-z
1/2-x,1/2+y,z
1/2+x,-y,z
loop_
_atom_site_type_symbol
_atom_site_label
_atom_site_fract_x
_atom_site_fract_y
_atom_site_fract_z
Si Si1 0.390197 0.511744 0.742768
Si Si2 0.609497 0.250000 0.225213
Si Si3 0.105937 0.250000 0.892860
Si Si4 0.608803 0.879936 0.474324
Si Si5 0.108629 0.625843 0.645206
Si Si6 0.394235 0.626161 0.157675
Si Si7 0.354921 0.517208 0.942686
O O1 0.500000 0.510176 0.743318
O O2 0.361403 0.637950 0.747773
O O3 0.360577 0.457599 0.689203
O O4 0.359257 0.444919 0.793818
O O5 0.500000 0.250000 0.224982
O O6 0.640674 0.250000 0.165739
O O7 0.130759 0.359145 0.923394
O O8 0.000000 0.250000 0.887642
O O9 0.500000 0.878430 0.477470
O O10 0.634836 0.750000 0.490719
O O11 0.637049 0.890436 0.414084
O O12 0.635787 0.000000 0.500000
O O13 0.132775 0.750000 0.661524
O O14 0.000000 0.620250 0.643965
O O15 0.500000 0.635373 0.167303
O O16 0.356411 0.750000 0.155447
O O17 0.385706 0.564180 0.102976
O O18 0.250000 0.500000 0.946603
O O19 0.394442 0.500000 0.000000
#
# Coordination Sequence:
#
# PCOD9502628 Si02
#       7
#    16   8   8  16  16  16  16
#     4   9  15  26  42  64  90 115 149 198 254 304
#     4   9  16  28  45  67  95 120 151 197 251 308
#     4  11  22  41  65  83 106 143 179 215 268 327
#     4   8  13  21  30  42  65 101 146 193 239 293
#     4   8  13  21  34  51  74 107 146 191 248 303
#     4  10  20  34  54  78 101 126 165 215 258 306
#     4  11  26  41  58  79 110 140 173 213 263 317
#
# _framework density 20.574076999999999
#
# number of rings (size 3 to 8) (size 9 to 14) (size 15 to 20)
#    0.000    2.667    1.667    2.000    2.333    4.000 
#    1.500    0.000    0.000    0.000    0.000    0.000 
#    0.000    0.000    0.000    0.000    0.000    0.833 
#
# Total GULP energy -267542.072070 kJ/mol
# GULP energy per Si atom -5573.793168 kJ/mol
# Density = 2.052725 g / cm^3
# Si number density = 20.574077 Si / 1000 Ang^3
#
#
#
# Elastic Constant Matrix: (Units=GPa)
#
#
# Indices 1 2 3 4 5 6 
#
# 1 37.1025 8.4664 1.1211 0.0000 0.0000 0.0000
# 2 8.4664 238.1142 116.6879 0.0000 0.0000 0.0000
# 3 1.1211 116.6879 131.3331 0.0000 0.0000 0.0000
# 4 0.0000 0.0000 0.0000 44.6131 0.0000 0.0000
# 5 0.0000 0.0000 0.0000 0.0000 -127.0660 0.0000
# 6 0.0000 0.0000 0.0000 0.0000 0.0000 -50.1614
#
#
#
# Elastic Compliance Matrix: (Units=1/GPa)
#
#
# Indices 1 2 3 4 5 6 
#
# 1 0.027264 -0.001515 0.001113 0.000000 0.000000 0.000000
# 2 -0.001515 0.007523 -0.006671 0.000000 0.000000 0.000000
# 3 0.001113 -0.006671 0.013532 0.000000 0.000000 0.000000
# 4 0.000000 0.000000 0.000000 0.022415 0.000000 0.000000
# 5 0.000000 0.000000 0.000000 0.000000 -0.007870 0.000000
# 6 0.000000 0.000000 0.000000 0.000000 0.000000 -0.019936
#
#
# Mechanical properties :
#
#
# Convention : Reuss Voigt Hill
#
# Bulk Modulus (GPa) = 29.26224 73.23340 51.24782
# Shear Modulus (GPa) = 73.03104 -7.83789 32.59658
#
# Velocity S-wave (km/s) = 5.96437 -1.95394 3.98471
# Velocity P-wave (km/s) = 7.85400 5.53008 6.79217
#
# Compressibility (1/GPa) = 0.03417373
#
# Stress axis : x y z
#
# Youngs Moduli (GPa) = 36.67779 132.93400 73.90110
#
# Poissons Ratio (x) = 0.20139 -0.08227
# Poissons Ratio (y) = 0.05557 0.49298
# Poissons Ratio (z) = -0.04083 0.88677
#
# Static dielectric constant tensor:
#      x y z
#    x 1.757450 0.000000 0.000000 
#    y 0.000000 1.738000 0.000000 
#    z 0.000000 0.000000 1.727490 
# 
# From -- ./inp_files/42171.got.cif
#   From: 2010.05.17/outbox.cif.g08.bks.cpg/sg67_22_cif.got.tgz:42171.got - 2010.06.03 18:28:57.
