data_PCOD9502455
_publ_section_title
;
Structure prediction by ZEFSAII (Michael W. Deem and Ramdas Pophale) SiO2 
 PCOD9502455
Probable space group: C M M A
;
_chemical_formula_sum "Si O2"
_cell_formula_units_Z 104
_cell_length_a 22.502511
_cell_length_b 9.620155
_cell_length_c 29.259653
_cell_angle_alpha 90.000000
_cell_angle_beta 90.000000
_cell_angle_gamma 90.000000
_cell_volume 6334.060737
_symmetry_space_group_name_H-M "C M M A"
_symmetry_group_IT_number 67
_symmetry_cell_setting 'orthorhombic'
loop_
_space_group_symop_operation_xyz
x,y,z
-x,1/2-y,z
x,-y,-z
-x,1/2+y,-z
-x,-y,-z
x,1/2+y,-z
-x,y,z
x,1/2-y,z
1/2+x,1/2+y,z
1/2-x,-y,z
1/2+x,1/2-y,-z
1/2-x,y,-z
1/2-x,1/2-y,-z
1/2+x,y,-z
1/2-x,1/2+y,z
1/2+x,-y,z
loop_
_atom_site_type_symbol
_atom_site_label
_atom_site_fract_x
_atom_site_fract_y
_atom_site_fract_z
Si Si1 0.927633 0.912051 0.544581
Si Si2 0.500000 0.596484 0.043850
Si Si3 0.382246 0.505217 0.093395
Si Si4 0.427720 0.589420 0.278057
Si Si5 0.927581 0.911737 0.366261
Si Si6 0.697115 0.750000 0.067169
Si Si7 0.666320 0.750000 0.960872
Si Si8 0.071172 0.911008 0.190056
O O1 0.908424 0.750000 0.544299
O O2 0.000000 0.908894 0.544479
O O3 0.909334 0.000000 0.500000
O O4 0.909523 0.997974 0.589611
O O5 0.500000 0.750000 0.024791
O O6 0.442305 0.574870 0.075013
O O7 0.500000 0.500000 0.000000
O O8 0.328942 0.615270 0.091961
O O9 0.366701 0.384320 0.057863
O O10 0.395005 0.444892 0.143350
O O11 0.500000 0.591572 0.279153
O O12 0.407980 0.750000 0.281120
O O13 0.408701 0.494261 0.320751
O O14 0.411170 0.514531 0.230751
O O15 0.908444 0.750000 0.367635
O O16 0.000000 0.909066 0.366165
O O17 0.767526 0.750000 0.060560
O O18 0.671469 0.750000 0.015366
O O19 0.080762 0.750000 0.203281
O O20 0.000000 0.927168 0.182123
#
# Coordination Sequence:
#
# PCOD9502455 Si02
#       8
#    16   8  16  16  16   8   8  16
#     4   9  15  21  29  42  63  91 129 178 231 280
#     4  12  26  38  56  82 110 136 160 194 245 298
#     4  12  23  38  58  81 107 133 164 202 245 296
#     4   9  17  27  42  59  80 109 144 183 225 280
#     4   9  15  23  34  49  69  98 135 176 225 281
#     4  11  24  41  61  81 103 134 171 207 238 285
#     4  11  24  43  61  79 103 136 171 203 242 285
#     4  10  20  34  48  69  98 128 154 186 238 296
#
# _framework density 16.419167000000002
#
# number of rings (size 3 to 8) (size 9 to 14) (size 15 to 20)
#    0.000    1.846    2.308    3.231    2.154    6.769 
#    0.000    0.000    0.000    0.000    0.000    0.000 
#    0.000    0.000    0.000    0.000    0.000    0.000 
#
# Total GULP energy -290087.921208 kJ/mol
# GULP energy per Si atom -5578.613869 kJ/mol
# Density = 1.638180 g / cm^3
# Si number density = 16.419167 Si / 1000 Ang^3
#
#
#
# Elastic Constant Matrix: (Units=GPa)
#
#
# Indices 1 2 3 4 5 6 
#
# 1 27.4356 13.0744 9.0736 0.0000 0.0000 0.0000
# 2 13.0744 148.3107 51.2231 0.0000 0.0000 0.0000
# 3 9.0736 51.2231 95.9451 0.0000 0.0000 0.0000
# 4 0.0000 0.0000 0.0000 37.0608 0.0000 0.0000
# 5 0.0000 0.0000 0.0000 0.0000 2.9727 0.0000
# 6 0.0000 0.0000 0.0000 0.0000 0.0000 -32.3913
#
#
#
# Elastic Compliance Matrix: (Units=1/GPa)
#
#
# Indices 1 2 3 4 5 6 
#
# 1 0.038436 -0.002615 -0.002239 0.000000 0.000000 0.000000
# 2 -0.002615 0.008445 -0.004261 0.000000 0.000000 0.000000
# 3 -0.002239 -0.004261 0.012909 0.000000 0.000000 0.000000
# 4 0.000000 0.000000 0.000000 0.026983 0.000000 0.000000
# 5 0.000000 0.000000 0.000000 0.000000 0.336392 0.000000
# 6 0.000000 0.000000 0.000000 0.000000 0.000000 -0.030872
#
#
# Mechanical properties :
#
#
# Convention : Reuss Voigt Hill
#
# Bulk Modulus (GPa) = 24.06177 46.49261 35.27719
# Shear Modulus (GPa) = 11.78202 14.74981 13.26592
#
# Velocity S-wave (km/s) = 2.68167 3.00046 2.84554
# Velocity P-wave (km/s) = 4.92696 6.35462 5.68578
#
# Compressibility (1/GPa) = 0.04155970
#
# Stress axis : x y z
#
# Youngs Moduli (GPa) = 26.01750 118.41515 77.46343
#
# Poissons Ratio (x) = 0.30967 0.17342
# Poissons Ratio (y) = 0.06804 0.33009
# Poissons Ratio (z) = 0.05825 0.50459
#
# Static dielectric constant tensor:
#      x y z
#    x 1.518780 0.000000 0.000000 
#    y 0.000000 1.559430 0.000000 
#    z 0.000000 0.000000 1.542550 
# 
# From -- ./inp_files/43871.got.cif
#   From: 2010.05.17/outbox.cif.g08.bks.cpg/sg67_22_cif.got.tgz:43871.got - 2010.06.03 18:28:57.
