data_PCOD9502851
_publ_section_title
;
Structure prediction by ZEFSAII (Michael W. Deem and Ramdas Pophale) SiO2 
 PCOD9502851
Probable space group: C M M A
;
_chemical_formula_sum "Si O2"
_cell_formula_units_Z 80
_cell_length_a 10.704962
_cell_length_b 14.304374
_cell_length_c 28.586287
_cell_angle_alpha 90.000000
_cell_angle_beta 90.000000
_cell_angle_gamma 90.000000
_cell_volume 4377.354670
_symmetry_space_group_name_H-M "C M M A"
_symmetry_group_IT_number 67
_symmetry_cell_setting 'orthorhombic'
loop_
_space_group_symop_operation_xyz
x,y,z
-x,1/2-y,z
x,-y,-z
-x,1/2+y,-z
-x,-y,-z
x,1/2+y,-z
-x,y,z
x,1/2-y,z
1/2+x,1/2+y,z
1/2-x,-y,z
1/2+x,1/2-y,-z
1/2-x,y,-z
1/2-x,1/2-y,-z
1/2+x,y,-z
1/2-x,1/2+y,z
1/2+x,-y,z
loop_
_atom_site_type_symbol
_atom_site_label
_atom_site_fract_x
_atom_site_fract_y
_atom_site_fract_z
Si Si1 0.145823 0.925389 0.106618
Si Si2 0.148507 0.854163 0.209971
Si Si3 0.750000 0.000000 0.716013
Si Si4 0.139306 0.750000 0.037073
Si Si5 0.644389 0.636226 0.463189
Si Si6 0.351340 0.644616 0.358220
O O1 0.184444 0.889313 0.158302
O O2 0.147754 0.839761 0.070671
O O3 0.000000 0.959001 0.108878
O O4 0.250000 0.000000 0.092192
O O5 0.201440 0.750000 0.219273
O O6 0.178748 0.929823 0.249294
O O7 0.000000 0.845713 0.208284
O O8 0.677902 0.069891 0.681421
O O9 0.000000 0.750000 0.015167
O O10 0.250000 0.750000 0.000000
O O11 0.500000 0.604498 0.471368
O O12 0.639538 0.750000 0.464748
O O13 0.750000 0.606471 0.500000
O O14 0.687438 0.613307 0.410340
O O15 0.500000 0.652786 0.361358
O O16 0.300944 0.750000 0.348642
#
# Coordination Sequence:
#
# PCOD9502851 Si02
#       6
#    16  16   8   8  16  16
#     4  10  20  38  61  87 117 154 193 238 287 335
#     4  10  20  35  55  79 109 145 187 231 281 331
#     4  12  20  32  55  80 105 140 188 230 274 328
#     4  10  22  40  64  88 124 164 196 236 289 344
#     4   8  14  28  51  75 100 135 177 222 274 332
#     4   9  19  35  52  74 108 143 176 223 283 339
#
# _framework density 18.275877000000001
#
# number of rings (size 3 to 8) (size 9 to 14) (size 15 to 20)
#    0.000    2.400    2.000    2.400    0.000    1.200 
#    0.000    4.500    0.000    8.400    0.000    0.000 
#    0.000    0.000    0.000    0.000    0.000    0.800 
#
# Total GULP energy -222818.811407 kJ/mol
# GULP energy per Si atom -5570.470285 kJ/mol
# Density = 1.823428 g / cm^3
# Si number density = 18.275877 Si / 1000 Ang^3
#
#
#
# Elastic Constant Matrix: (Units=GPa)
#
#
# Indices 1 2 3 4 5 6 
#
# 1 67.3194 41.5936 47.0583 0.0000 0.0000 0.0000
# 2 41.5936 99.0725 31.8505 0.0000 0.0000 0.0000
# 3 47.0583 31.8505 106.2511 0.0000 0.0000 0.0000
# 4 0.0000 0.0000 0.0000 -6.7025 0.0000 0.0000
# 5 0.0000 0.0000 0.0000 0.0000 24.4711 0.0000
# 6 0.0000 0.0000 0.0000 0.0000 0.0000 16.2210
#
#
#
# Elastic Compliance Matrix: (Units=1/GPa)
#
#
# Indices 1 2 3 4 5 6 
#
# 1 0.026289 -0.008072 -0.009224 0.000000 0.000000 0.000000
# 2 -0.008072 0.013648 -0.000516 0.000000 0.000000 0.000000
# 3 -0.009224 -0.000516 0.013652 0.000000 0.000000 0.000000
# 4 0.000000 0.000000 0.000000 -0.149198 0.000000 0.000000
# 5 0.000000 0.000000 0.000000 0.000000 0.040865 0.000000
# 6 0.000000 0.000000 0.000000 0.000000 0.000000 0.061648
#
#
# Mechanical properties :
#
#
# Convention : Reuss Voigt Hill
#
# Bulk Modulus (GPa) = 55.66214 57.07197 56.36705
# Shear Modulus (GPa) = 103.05587 16.94063 59.99825
#
# Velocity S-wave (km/s) = 7.51741 3.04787 5.73589
# Velocity P-wave (km/s) = 10.28938 6.60922 8.64735
#
# Compressibility (1/GPa) = 0.01796553
#
# Stress axis : x y z
#
# Youngs Moduli (GPa) = 38.03803 73.26870 73.25102
#
# Poissons Ratio (x) = 0.59141 0.67566
# Poissons Ratio (y) = 0.30703 0.03783
# Poissons Ratio (z) = 0.35086 0.03783
#
# Static dielectric constant tensor:
#      x y z
#    x 1.614600 0.000000 0.000000 
#    y 0.000000 1.606620 0.000000 
#    z 0.000000 0.000000 1.633600 
# 
# From -- ./inp_files/41352.got.cif
#   From: 2010.05.17/outbox.cif.g08.bks.cpg/sg67_21_cif.got.tgz:41352.got - 2010.06.03 18:28:57.
