data_PCOD9502611
_publ_section_title
;
Structure prediction by ZEFSAII (Michael W. Deem and Ramdas Pophale) SiO2 
 PCOD9502611
Probable space group: C M M A
;
_chemical_formula_sum "Si O2"
_cell_formula_units_Z 116
_cell_length_a 31.024457
_cell_length_b 8.848652
_cell_length_c 24.504732
_cell_angle_alpha 90.000000
_cell_angle_beta 90.000000
_cell_angle_gamma 90.000000
_cell_volume 6727.152326
_symmetry_space_group_name_H-M "C M M A"
_symmetry_group_IT_number 67
_symmetry_cell_setting 'orthorhombic'
loop_
_space_group_symop_operation_xyz
x,y,z
-x,1/2-y,z
x,-y,-z
-x,1/2+y,-z
-x,-y,-z
x,1/2+y,-z
-x,y,z
x,1/2-y,z
1/2+x,1/2+y,z
1/2-x,-y,z
1/2+x,1/2-y,-z
1/2-x,y,-z
1/2-x,1/2-y,-z
1/2+x,y,-z
1/2-x,1/2+y,z
1/2+x,-y,z
loop_
_atom_site_type_symbol
_atom_site_label
_atom_site_fract_x
_atom_site_fract_y
_atom_site_fract_z
Si Si1 0.297231 0.068244 0.858718
Si Si2 0.500000 0.250000 0.427040
Si Si3 0.049429 0.932091 0.755162
Si Si4 0.703477 0.568515 0.267832
Si Si5 0.588735 0.084359 0.442661
Si Si6 0.132450 0.431822 0.940278
Si Si7 0.880103 0.432517 0.333504
Si Si8 0.049047 0.568168 0.126555
O O1 0.296463 0.250000 0.864308
O O2 0.307487 0.030938 0.795313
O O3 0.250000 0.000000 0.870182
O O4 0.332173 0.996930 0.898781
O O5 0.538617 0.120606 0.429361
O O6 0.051515 0.750000 0.759126
O O7 0.082425 0.981732 0.708656
O O8 0.000000 0.974730 0.741806
O O9 0.059855 0.000004 0.814258
O O10 0.706435 0.750000 0.270571
O O11 0.750000 0.500000 0.280520
O O12 0.665452 0.518501 0.307911
O O13 0.609685 0.250000 0.447656
O O14 0.591475 0.000000 0.500000
O O15 0.609776 0.995558 0.392847
O O16 0.135367 0.250000 0.942021
O O17 0.085289 0.475156 0.916886
O O18 0.138863 0.500000 0.000000
O O19 0.880628 0.250000 0.335025
O O20 0.049389 0.750000 0.130993
O O21 0.000000 0.520771 0.112627
#
# Coordination Sequence:
#
# PCOD9502611 Si02
#       8
#    16   4  16  16  16  16  16  16
#     4  10  20  37  60  84 110 139 171 212 262 321
#     4   8  22  36  54  76 110 146 198 224 264 304
#     4   9  18  31  49  76 106 138 173 212 262 319
#     4   9  19  35  57  83 110 140 176 216 266 319
#     4  10  21  36  53  77 107 148 187 227 264 309
#     4  11  23  37  54  77 104 136 177 219 265 317
#     4  10  20  34  53  79 111 144 178 222 264 314
#     4   9  19  36  54  73 101 137 175 220 267 313
#
# _framework density 17.243552000000001
#
# number of rings (size 3 to 8) (size 9 to 14) (size 15 to 20)
#    0.414    1.931    0.000    2.276    0.966    4.414 
#    0.000    1.379    0.000    0.414    0.000    2.897 
#    0.000    0.000    0.000    0.000    0.000    0.000 
#
# Total GULP energy -322933.568700 kJ/mol
# GULP energy per Si atom -5567.820150 kJ/mol
# Density = 1.720431 g / cm^3
# Si number density = 17.243552 Si / 1000 Ang^3
#
#
#
# Elastic Constant Matrix: (Units=GPa)
#
#
# Indices 1 2 3 4 5 6 
#
# 1 118.2829 42.9206 101.0655 0.0000 0.0000 0.0000
# 2 42.9206 38.5321 40.2593 0.0000 0.0000 0.0000
# 3 101.0655 40.2593 122.2883 0.0000 0.0000 0.0000
# 4 0.0000 0.0000 0.0000 27.3642 0.0000 0.0000
# 5 0.0000 0.0000 0.0000 0.0000 2.7581 0.0000
# 6 0.0000 0.0000 0.0000 0.0000 0.0000 25.8565
#
#
#
# Elastic Compliance Matrix: (Units=1/GPa)
#
#
# Indices 1 2 3 4 5 6 
#
# 1 0.032181 -0.012283 -0.022552 0.000000 0.000000 0.000000
# 2 -0.012283 0.044248 -0.004416 0.000000 0.000000 0.000000
# 3 -0.022552 -0.004416 0.028270 0.000000 0.000000 0.000000
# 4 0.000000 0.000000 0.000000 0.036544 0.000000 0.000000
# 5 0.000000 0.000000 0.000000 0.000000 0.362568 0.000000
# 6 0.000000 0.000000 0.000000 0.000000 0.000000 0.038675
#
#
# Mechanical properties :
#
#
# Convention : Reuss Voigt Hill
#
# Bulk Modulus (GPa) = 38.17329 71.95490 55.06409
# Shear Modulus (GPa) = 7.94005 17.51961 12.72983
#
# Velocity S-wave (km/s) = 2.14817 3.19095 2.72000
# Velocity P-wave (km/s) = 5.32340 7.44281 6.47047
#
# Compressibility (1/GPa) = 0.02619633
#
# Stress axis : x y z
#
# Youngs Moduli (GPa) = 31.07448 22.59988 35.37380
#
# Poissons Ratio (x) = 0.27759 0.79776
# Poissons Ratio (y) = 0.38168 0.15621
# Poissons Ratio (z) = 0.70080 0.09980
#
# Static dielectric constant tensor:
#      x y z
#    x 1.579650 0.000000 0.000000 
#    y 0.000000 1.590230 0.000000 
#    z 0.000000 0.000000 1.556900 
# 
# From -- ./inp_files/42988.got.cif
#   From: 2010.05.17/outbox.cif.g08.bks.cpg/sg67_22_cif.got.tgz:42988.got - 2010.06.03 18:28:57.
