data_PCOD9502857
_publ_section_title
;
Structure prediction by ZEFSAII (Michael W. Deem and Ramdas Pophale) SiO2 
 PCOD9502857
Probable space group: C M M A
;
_chemical_formula_sum "Si O2"
_cell_formula_units_Z 56
_cell_length_a 22.206548
_cell_length_b 14.728978
_cell_length_c 8.444492
_cell_angle_alpha 90.000000
_cell_angle_beta 90.000000
_cell_angle_gamma 90.000000
_cell_volume 2762.022391
_symmetry_space_group_name_H-M "C M M A"
_symmetry_group_IT_number 67
_symmetry_cell_setting 'orthorhombic'
loop_
_space_group_symop_operation_xyz
x,y,z
-x,1/2-y,z
x,-y,-z
-x,1/2+y,-z
-x,-y,-z
x,1/2+y,-z
-x,y,z
x,1/2-y,z
1/2+x,1/2+y,z
1/2-x,-y,z
1/2+x,1/2-y,-z
1/2-x,y,-z
1/2-x,1/2-y,-z
1/2+x,y,-z
1/2-x,1/2+y,z
1/2+x,-y,z
loop_
_atom_site_type_symbol
_atom_site_label
_atom_site_fract_x
_atom_site_fract_y
_atom_site_fract_z
Si Si1 0.280183 0.750000 0.745661
Si Si2 0.106486 0.750000 0.474181
Si Si3 0.655914 0.907618 0.935169
Si Si4 0.930758 0.942134 0.350628
Si Si5 0.860038 0.250000 0.178862
O O1 0.323591 0.750000 0.590859
O O2 0.300176 0.659445 0.839463
O O3 0.208517 0.750000 0.754364
O O4 0.075225 0.661608 0.404742
O O5 0.101487 0.750000 0.662612
O O6 0.606086 0.944370 0.811749
O O7 0.631235 0.839737 0.071344
O O8 0.683783 0.000000 0.000000
O O9 0.000000 0.969102 0.326366
O O10 0.905926 0.000000 0.500000
#
# Coordination Sequence:
#
# PCOD9502857 Si02
#       5
#     8   8  16  16   8
#     4   9  21  36  54  79 109 147 178 211 265 325
#     4  10  20  37  57  79 108 143 182 220 263 324
#     4  10  20  35  55  80 108 138 177 224 271 319
#     4  10  21  38  57  77 106 144 182 222 273 329
#     4  11  21  35  55  82 111 140 179 225 270 317
#
# _framework density 20.274999999999999
#
# number of rings (size 3 to 8) (size 9 to 14) (size 15 to 20)
#    0.000    2.000    0.000    5.143    0.000    2.857 
#    0.000    2.857    0.000    5.143    0.000    0.000 
#    0.000    0.000    0.000    0.000    0.000    0.000 
#
# Total GULP energy -156175.364052 kJ/mol
# GULP energy per Si atom -5577.691573 kJ/mol
# Density = 2.022885 g / cm^3
# Si number density = 20.275000 Si / 1000 Ang^3
#
#
#
# Elastic Constant Matrix: (Units=GPa)
#
#
# Indices 1 2 3 4 5 6 
#
# 1 57.5668 -0.3565 25.9819 0.0000 0.0000 0.0000
# 2 -0.3565 142.5332 36.7083 0.0000 0.0000 0.0000
# 3 25.9819 36.7083 118.9085 0.0000 0.0000 0.0000
# 4 0.0000 0.0000 0.0000 37.9822 0.0000 0.0000
# 5 0.0000 0.0000 0.0000 0.0000 10.1474 0.0000
# 6 0.0000 0.0000 0.0000 0.0000 0.0000 0.3290
#
#
#
# Elastic Compliance Matrix: (Units=1/GPa)
#
#
# Indices 1 2 3 4 5 6 
#
# 1 0.019472 0.001243 -0.004639 0.000000 0.000000 0.000000
# 2 0.001243 0.007701 -0.002649 0.000000 0.000000 0.000000
# 3 -0.004639 -0.002649 0.010241 0.000000 0.000000 0.000000
# 4 0.000000 0.000000 0.000000 0.026328 0.000000 0.000000
# 5 0.000000 0.000000 0.000000 0.000000 0.098547 0.000000
# 6 0.000000 0.000000 0.000000 0.000000 0.000000 3.039664
#
#
# Mechanical properties :
#
#
# Convention : Reuss Voigt Hill
#
# Bulk Modulus (GPa) = 39.48506 49.29733 44.39120
# Shear Modulus (GPa) = 1.55160 26.80337 14.17748
#
# Velocity S-wave (km/s) = 0.87575 3.63986 2.64722
# Velocity P-wave (km/s) = 4.53207 6.48320 5.59337
#
# Compressibility (1/GPa) = 0.02532603
#
# Stress axis : x y z
#
# Youngs Moduli (GPa) = 51.35481 129.84845 97.64484
#
# Poissons Ratio (x) = -0.16145 0.45294
# Poissons Ratio (y) = -0.06385 0.25867
# Poissons Ratio (z) = 0.23821 0.34399
#
# Static dielectric constant tensor:
#      x y z
#    x 1.732640 0.000000 0.000000 
#    y 0.000000 1.684410 0.000000 
#    z 0.000000 0.000000 1.734400 
# 
# From -- ./inp_files/7725.got.cif
#   From: 2010.05.17/outbox.cif.g08.bks.cpg/sg67_4_cif.got.tgz:7725.got - 2010.06.03 18:28:57.
