data_PCOD9502940
_publ_section_title
;
Structure prediction by ZEFSAII (Michael W. Deem and Ramdas Pophale) SiO2 
 PCOD9502940
Probable space group: C M M A
;
_chemical_formula_sum "Si O2"
_cell_formula_units_Z 80
_cell_length_a 8.775412
_cell_length_b 15.576713
_cell_length_c 30.182590
_cell_angle_alpha 90.000000
_cell_angle_beta 90.000000
_cell_angle_gamma 90.000000
_cell_volume 4125.720831
_symmetry_space_group_name_H-M "C M M A"
_symmetry_group_IT_number 67
_symmetry_cell_setting 'orthorhombic'
loop_
_space_group_symop_operation_xyz
x,y,z
-x,1/2-y,z
x,-y,-z
-x,1/2+y,-z
-x,-y,-z
x,1/2+y,-z
-x,y,z
x,1/2-y,z
1/2+x,1/2+y,z
1/2-x,-y,z
1/2+x,1/2-y,-z
1/2-x,y,-z
1/2-x,1/2-y,-z
1/2+x,y,-z
1/2-x,1/2+y,z
1/2+x,-y,z
loop_
_atom_site_type_symbol
_atom_site_label
_atom_site_fract_x
_atom_site_fract_y
_atom_site_fract_z
Si Si1 0.168235 0.648429 0.956428
Si Si2 0.318242 0.405034 0.133243
Si Si3 0.684091 0.906693 0.549232
Si Si4 0.814884 0.250000 0.703525
Si Si5 0.817007 0.250000 0.394611
Si Si6 0.683529 0.595572 0.768353
O O1 0.152843 0.750000 0.964182
O O2 0.256923 0.639492 0.910591
O O3 0.000000 0.609947 0.951486
O O4 0.250000 0.611874 0.000000
O O5 0.500000 0.406476 0.131334
O O6 0.250000 0.500000 0.131779
O O7 0.273771 0.371498 0.182149
O O8 0.500000 0.908258 0.548157
O O9 0.750000 0.889461 0.500000
O O10 0.745969 0.833257 0.581420
O O11 0.750000 0.000000 0.562306
O O12 0.734374 0.250000 0.656324
O O13 0.772515 0.334677 0.731740
O O14 0.000000 0.250000 0.698157
O O15 0.000000 0.250000 0.398912
O O16 0.500000 0.588351 0.767548
O O17 0.750000 0.500000 0.761765
#
# Coordination Sequence:
#
# PCOD9502940 Si02
#       6
#    16  16  16   8   8  16
#     4  10  21  36  53  77 108 141 177 220 270 330
#     4  10  20  35  57  82 108 140 179 225 278 338
#     4  11  22  40  65  95 129 169 212 259 309 364
#     4  10  22  41  61  86 117 159 203 246 306 366
#     4  12  25  41  60  90 127 167 213 260 309 364
#     4   9  20  38  61  85 115 149 191 242 296 355
#
# _framework density 19.390550999999999
#
# number of rings (size 3 to 8) (size 9 to 14) (size 15 to 20)
#    0.000    1.800    0.000    4.800    1.400    4.000 
#    0.000    4.000    0.000    0.000    0.000    0.000 
#    0.000    0.000    0.000    0.000    0.000    0.000 
#
# Total GULP energy -223316.071491 kJ/mol
# GULP energy per Si atom -5582.901787 kJ/mol
# Density = 1.934642 g / cm^3
# Si number density = 19.390551 Si / 1000 Ang^3
#
#
#
# Elastic Constant Matrix: (Units=GPa)
#
#
# Indices 1 2 3 4 5 6 
#
# 1 131.6033 51.5188 79.2113 0.0000 0.0000 0.0000
# 2 51.5188 95.5220 96.4466 0.0000 0.0000 0.0000
# 3 79.2113 96.4466 166.9275 0.0000 0.0000 0.0000
# 4 0.0000 0.0000 0.0000 -119.6947 0.0000 0.0000
# 5 0.0000 0.0000 0.0000 0.0000 101.7348 0.0000
# 6 0.0000 0.0000 0.0000 0.0000 0.0000 25.4807
#
#
#
# Elastic Compliance Matrix: (Units=1/GPa)
#
#
# Indices 1 2 3 4 5 6 
#
# 1 0.010731 -0.001551 -0.004196 0.000000 0.000000 0.000000
# 2 -0.001551 0.025351 -0.013911 0.000000 0.000000 0.000000
# 3 -0.004196 -0.013911 0.016019 0.000000 0.000000 0.000000
# 4 0.000000 0.000000 0.000000 -0.008355 0.000000 0.000000
# 5 0.000000 0.000000 0.000000 0.000000 0.009829 0.000000
# 6 0.000000 0.000000 0.000000 0.000000 0.000000 0.039245
#
#
# Mechanical properties :
#
#
# Convention : Reuss Voigt Hill
#
# Bulk Modulus (GPa) = 78.21661 94.26735 86.24198
# Shear Modulus (GPa) = 36.65656 12.62926 24.64291
#
# Velocity S-wave (km/s) = 4.35263 2.55485 3.56880
# Velocity P-wave (km/s) = 8.10466 7.57784 7.84567
#
# Compressibility (1/GPa) = 0.01278501
#
# Stress axis : x y z
#
# Youngs Moduli (GPa) = 93.18414 39.44566 62.42434
#
# Poissons Ratio (x) = 0.06119 0.26194
# Poissons Ratio (y) = 0.14454 0.86840
# Poissons Ratio (z) = 0.39101 0.54874
#
# Static dielectric constant tensor:
#      x y z
#    x 1.675760 0.000000 0.000000 
#    y 0.000000 1.661600 0.000000 
#    z 0.000000 0.000000 1.680760 
# 
# From -- ./inp_files/43350.got.cif
#   From: 2010.05.17/outbox.cif.g08.bks.cpg/sg67_22_cif.got.tgz:43350.got - 2010.06.03 18:28:57.
