data_PCOD9502671
_publ_section_title
;
Structure prediction by ZEFSAII (Michael W. Deem and Ramdas Pophale) SiO2 
 PCOD9502671
Probable space group: C M M A
;
_chemical_formula_sum "Si O2"
_cell_formula_units_Z 96
_cell_length_a 24.137847
_cell_length_b 8.614024
_cell_length_c 26.277895
_cell_angle_alpha 90.000000
_cell_angle_beta 90.000000
_cell_angle_gamma 90.000000
_cell_volume 5463.804866
_symmetry_space_group_name_H-M "C M M A"
_symmetry_group_IT_number 67
_symmetry_cell_setting 'orthorhombic'
loop_
_space_group_symop_operation_xyz
x,y,z
-x,1/2-y,z
x,-y,-z
-x,1/2+y,-z
-x,-y,-z
x,1/2+y,-z
-x,y,z
x,1/2-y,z
1/2+x,1/2+y,z
1/2-x,-y,z
1/2+x,1/2-y,-z
1/2-x,y,-z
1/2-x,1/2-y,-z
1/2+x,y,-z
1/2-x,1/2+y,z
1/2+x,-y,z
loop_
_atom_site_type_symbol
_atom_site_label
_atom_site_fract_x
_atom_site_fract_y
_atom_site_fract_z
Si Si1 0.000000 0.071898 0.689098
Si Si2 0.606705 0.937311 0.838978
Si Si3 0.884880 0.433526 0.346391
Si Si4 0.688176 0.564535 0.746053
Si Si5 0.435886 0.435575 0.055190
Si Si6 0.500000 0.573561 0.208941
Si Si7 0.435432 0.064171 0.443522
O O1 0.000000 0.250000 0.670826
O O2 0.054848 0.982564 0.673746
O O3 0.000000 0.061814 0.749368
O O4 0.596102 0.750000 0.834199
O O5 0.655174 0.973754 0.798484
O O6 0.607404 0.970952 0.899455
O O7 0.555116 0.040668 0.821763
O O8 0.877904 0.250000 0.348728
O O9 0.842596 0.500941 0.304596
O O10 0.890186 0.501487 0.403522
O O11 0.688909 0.750000 0.741938
O O12 0.750000 0.500000 0.748293
O O13 0.500000 0.487446 0.066794
O O14 0.438223 0.250000 0.051722
O O15 0.420833 0.500000 0.000000
O O16 0.500000 0.750000 0.229537
O O17 0.500000 0.019347 0.430078
O O18 0.433555 0.250000 0.443732
O O19 0.425719 0.000000 0.500000
#
# Coordination Sequence:
#
# PCOD9502671 Si02
#       7
#     8  16  16  16  16   8  16
#     4  12  22  34  51  78 115 152 184 221 282 341
#     4  10  20  36  56  76 109 151 184 221 281 342
#     4  12  23  36  57  85 116 149 190 234 279 337
#     4  11  24  41  61  81 108 146 189 238 289 339
#     4   9  17  30  49  76 110 147 182 219 268 331
#     4  12  22  30  49  82 113 142 181 225 274 333
#     4  10  20  34  54  82 120 159 192 228 277 332
#
# _framework density 17.570174000000002
#
# number of rings (size 3 to 8) (size 9 to 14) (size 15 to 20)
#    0.000    1.333    3.333    4.000    0.000    2.000 
#    0.000    0.000    0.000    1.000    0.000    7.000 
#    0.000    0.000    0.000    0.000    0.000    0.000 
#
# Total GULP energy -267498.228244 kJ/mol
# GULP energy per Si atom -5572.879755 kJ/mol
# Density = 1.753018 g / cm^3
# Si number density = 17.570174 Si / 1000 Ang^3
#
#
#
# Elastic Constant Matrix: (Units=GPa)
#
#
# Indices 1 2 3 4 5 6 
#
# 1 105.9328 41.9379 72.2321 0.0000 0.0000 0.0000
# 2 41.9379 66.7440 52.1049 0.0000 0.0000 0.0000
# 3 72.2321 52.1049 169.2156 0.0000 0.0000 0.0000
# 4 0.0000 0.0000 0.0000 31.5225 0.0000 0.0000
# 5 0.0000 0.0000 0.0000 0.0000 10.6557 0.0000
# 6 0.0000 0.0000 0.0000 0.0000 0.0000 40.0552
#
#
#
# Elastic Compliance Matrix: (Units=1/GPa)
#
#
# Indices 1 2 3 4 5 6 
#
# 1 0.014826 -0.005760 -0.004555 0.000000 0.000000 0.000000
# 2 -0.005760 0.021962 -0.004304 0.000000 0.000000 0.000000
# 3 -0.004555 -0.004304 0.009179 0.000000 0.000000 0.000000
# 4 0.000000 0.000000 0.000000 0.031723 0.000000 0.000000
# 5 0.000000 0.000000 0.000000 0.000000 0.093847 0.000000
# 6 0.000000 0.000000 0.000000 0.000000 0.000000 0.024966
#
#
# Mechanical properties :
#
#
# Convention : Reuss Voigt Hill
#
# Bulk Modulus (GPa) = 59.77460 74.93801 67.35631
# Shear Modulus (GPa) = 21.61540 28.15453 24.88496
#
# Velocity S-wave (km/s) = 3.51127 4.00735 3.76748
# Velocity P-wave (km/s) = 7.10866 8.00969 7.57259
#
# Compressibility (1/GPa) = 0.01672951
#
# Stress axis : x y z
#
# Youngs Moduli (GPa) = 67.44786 45.53423 108.94083
#
# Poissons Ratio (x) = 0.26227 0.49625
# Poissons Ratio (y) = 0.38849 0.46885
# Poissons Ratio (z) = 0.30724 0.19597
#
# Static dielectric constant tensor:
#      x y z
#    x 1.587970 0.000000 0.000000 
#    y 0.000000 1.592020 0.000000 
#    z 0.000000 0.000000 1.673090 
# 
# From -- ./inp_files/42598.got.cif
#   From: 2010.05.17/outbox.cif.g08.bks.cpg/sg67_22_cif.got.tgz:42598.got - 2010.06.03 18:28:57.
