data_PCOD9502795
_publ_section_title
;
Structure prediction by ZEFSAII (Michael W. Deem and Ramdas Pophale) SiO2 
 PCOD9502795
Probable space group: C M M A
;
_chemical_formula_sum "Si O2"
_cell_formula_units_Z 92
_cell_length_a 9.105657
_cell_length_b 28.388877
_cell_length_c 20.881563
_cell_angle_alpha 90.000000
_cell_angle_beta 90.000000
_cell_angle_gamma 90.000000
_cell_volume 5397.871017
_symmetry_space_group_name_H-M "C M M A"
_symmetry_group_IT_number 67
_symmetry_cell_setting 'orthorhombic'
loop_
_space_group_symop_operation_xyz
x,y,z
-x,1/2-y,z
x,-y,-z
-x,1/2+y,-z
-x,-y,-z
x,1/2+y,-z
-x,y,z
x,1/2-y,z
1/2+x,1/2+y,z
1/2-x,-y,z
1/2+x,1/2-y,-z
1/2-x,y,-z
1/2-x,1/2-y,-z
1/2+x,y,-z
1/2-x,1/2+y,z
1/2+x,-y,z
loop_
_atom_site_type_symbol
_atom_site_label
_atom_site_fract_x
_atom_site_fract_y
_atom_site_fract_z
Si Si1 0.170442 0.450452 0.797257
Si Si2 0.326538 0.614607 0.671727
Si Si3 0.678063 0.450822 0.570231
Si Si4 0.500000 0.750000 0.965609
Si Si5 0.669539 0.628692 0.130713
Si Si6 0.323675 0.694932 0.249662
Si Si7 0.750000 0.175704 0.000000
O O1 0.250000 0.500000 0.793815
O O2 0.188205 0.421612 0.731114
O O3 0.234535 0.416173 0.851221
O O4 0.000000 0.458528 0.808128
O O5 0.500000 0.618532 0.655861
O O6 0.232933 0.591745 0.614654
O O7 0.261018 0.663733 0.697834
O O8 0.500000 0.454235 0.567565
O O9 0.750000 0.500000 0.595034
O O10 0.750000 0.444760 0.500000
O O11 0.626535 0.790944 0.970300
O O12 0.500000 0.616977 0.143648
O O13 0.707804 0.671031 0.180503
O O14 0.688404 0.645272 0.058517
O O15 0.500000 0.691597 0.259963
O O16 0.283314 0.750000 0.250003
#
# Coordination Sequence:
#
# PCOD9502795 Si02
#       7
#    16  16  16   4  16  16   8
#     4  10  21  36  56  79 105 139 178 219 263 312
#     4  10  20  35  53  80 110 142 177 218 262 311
#     4  11  21  34  54  81 112 145 178 217 261 310
#     4  10  24  34  56  78 106 142 176 210 266 326
#     4  10  21  36  55  77 108 139 174 217 266 319
#     4   9  19  34  54  77 105 141 179 218 263 315
#     4  11  22  38  53  82 106 140 175 218 267 324
#
# _framework density 17.043756999999999
#
# number of rings (size 3 to 8) (size 9 to 14) (size 15 to 20)
#    0.000    1.913    0.870    3.652    3.652    3.826 
#    0.000    0.435    0.000    2.609    0.000    0.000 
#    0.000    0.000    0.000    0.000    0.000    0.000 
#
# Total GULP energy -256123.080086 kJ/mol
# GULP energy per Si atom -5567.893045 kJ/mol
# Density = 1.700496 g / cm^3
# Si number density = 17.043757 Si / 1000 Ang^3
#
#
#
# Elastic Constant Matrix: (Units=GPa)
#
#
# Indices 1 2 3 4 5 6 
#
# 1 102.1416 64.9028 28.7824 0.0000 0.0000 0.0000
# 2 64.9028 126.7818 29.4885 0.0000 0.0000 0.0000
# 3 28.7824 29.4885 54.4914 0.0000 0.0000 0.0000
# 4 0.0000 0.0000 0.0000 -15.5974 0.0000 0.0000
# 5 0.0000 0.0000 0.0000 0.0000 13.0647 0.0000
# 6 0.0000 0.0000 0.0000 0.0000 0.0000 39.7438
#
#
#
# Elastic Compliance Matrix: (Units=1/GPa)
#
#
# Indices 1 2 3 4 5 6 
#
# 1 0.015388 -0.006849 -0.004422 0.000000 0.000000 0.000000
# 2 -0.006849 0.012072 -0.002915 0.000000 0.000000 0.000000
# 3 -0.004422 -0.002915 0.022265 0.000000 0.000000 0.000000
# 4 0.000000 0.000000 0.000000 -0.064113 0.000000 0.000000
# 5 0.000000 0.000000 0.000000 0.000000 0.076542 0.000000
# 6 0.000000 0.000000 0.000000 0.000000 0.000000 0.025161
#
#
# Mechanical properties :
#
#
# Convention : Reuss Voigt Hill
#
# Bulk Modulus (GPa) = 46.83185 58.86247 52.84716
# Shear Modulus (GPa) = 40.71513 18.12497 29.42005
#
# Velocity S-wave (km/s) = 4.89290 3.26458 4.15920
# Velocity P-wave (km/s) = 7.71088 6.98720 7.35794
#
# Compressibility (1/GPa) = 0.02135299
#
# Stress axis : x y z
#
# Youngs Moduli (GPa) = 64.98361 82.83695 44.91448
#
# Poissons Ratio (x) = 0.56738 0.19860
# Poissons Ratio (y) = 0.44509 0.13093
# Poissons Ratio (z) = 0.28734 0.24147
#
# Static dielectric constant tensor:
#      x y z
#    x 1.585880 0.000000 0.000000 
#    y 0.000000 1.556080 0.000000 
#    z 0.000000 0.000000 1.574050 
# 
# From -- ./inp_files/37230.got.cif
#   From: 2010.05.17/outbox.cif.g08.bks.cpg/sg67_19_cif.got.tgz:37230.got - 2010.06.03 18:28:57.
