data_PCOD9502674
_publ_section_title
;
Structure prediction by ZEFSAII (Michael W. Deem and Ramdas Pophale) SiO2 
 PCOD9502674
Probable space group: C M M A
;
_chemical_formula_sum "Si O2"
_cell_formula_units_Z 104
_cell_length_a 15.326267
_cell_length_b 20.775504
_cell_length_c 14.431734
_cell_angle_alpha 90.000000
_cell_angle_beta 90.000000
_cell_angle_gamma 90.000000
_cell_volume 4595.221720
_symmetry_space_group_name_H-M "C M M A"
_symmetry_group_IT_number 67
_symmetry_cell_setting 'orthorhombic'
loop_
_space_group_symop_operation_xyz
x,y,z
-x,1/2-y,z
x,-y,-z
-x,1/2+y,-z
-x,-y,-z
x,1/2+y,-z
-x,y,z
x,1/2-y,z
1/2+x,1/2+y,z
1/2-x,-y,z
1/2+x,1/2-y,-z
1/2-x,y,-z
1/2-x,1/2-y,-z
1/2+x,y,-z
1/2-x,1/2+y,z
1/2+x,-y,z
loop_
_atom_site_type_symbol
_atom_site_label
_atom_site_fract_x
_atom_site_fract_y
_atom_site_fract_z
Si Si1 0.896891 0.955297 0.580487
Si Si2 0.103370 0.456704 0.216854
Si Si3 0.100442 0.922185 0.110168
Si Si4 0.361007 0.675912 0.724436
Si Si5 0.750000 0.356086 0.000000
Si Si6 0.675522 0.681501 0.191723
Si Si7 0.354890 0.323119 0.490352
O O1 0.858635 0.969485 0.681185
O O2 0.888570 0.880504 0.554127
O O3 0.000000 0.969927 0.586311
O O4 0.858887 0.000000 0.500000
O O5 0.135319 0.508687 0.143671
O O6 0.119957 0.382628 0.195581
O O7 0.000000 0.467941 0.219587
O O8 0.103586 0.874811 0.200596
O O9 0.000000 0.925543 0.077781
O O10 0.166243 0.895657 0.034235
O O11 0.388491 0.750000 0.745077
O O12 0.256063 0.674996 0.737028
O O13 0.380852 0.662591 0.616837
O O14 0.779979 0.318037 0.090599
O O15 0.630633 0.750000 0.208264
O O16 0.384042 0.250000 0.512321
O O17 0.250000 0.323584 0.500000
#
# Coordination Sequence:
#
# PCOD9502674 Si02
#       7
#    16  16  16  16   8  16  16
#     4  10  21  37  56  80 114 154 197 245 291 342
#     4  10  22  38  58  85 115 155 200 239 295 361
#     4  10  22  41  63  90 125 157 197 256 309 368
#     4   9  19  35  57  85 117 158 204 247 301 364
#     4  10  23  41  66  94 115 151 200 242 307 379
#     4  10  21  39  60  83 116 152 191 243 297 358
#     4  10  20  34  54  83 118 157 203 253 299 346
#
# _framework density 22.632204999999999
#
# number of rings (size 3 to 8) (size 9 to 14) (size 15 to 20)
#    0.000    2.154    0.000    2.077    0.000    9.846 
#    0.000    9.231    0.000    0.000    0.000    0.000 
#    0.000    0.000    0.000    0.000    0.000    0.000 
#
# Total GULP energy -290609.725034 kJ/mol
# GULP energy per Si atom -5588.648558 kJ/mol
# Density = 2.258069 g / cm^3
# Si number density = 22.632205 Si / 1000 Ang^3
#
#
#
# Elastic Constant Matrix: (Units=GPa)
#
#
# Indices 1 2 3 4 5 6 
#
# 1 55.1042 22.8233 20.0034 0.0000 0.0000 0.0000
# 2 22.8233 104.6481 13.7709 0.0000 0.0000 0.0000
# 3 20.0034 13.7709 59.8641 0.0000 0.0000 0.0000
# 4 0.0000 0.0000 0.0000 -25.5586 0.0000 0.0000
# 5 0.0000 0.0000 0.0000 0.0000 20.2380 0.0000
# 6 0.0000 0.0000 0.0000 0.0000 0.0000 -41.0140
#
#
#
# Elastic Compliance Matrix: (Units=1/GPa)
#
#
# Indices 1 2 3 4 5 6 
#
# 1 0.022149 -0.003977 -0.006486 0.000000 0.000000 0.000000
# 2 -0.003977 0.010568 -0.001102 0.000000 0.000000 0.000000
# 3 -0.006486 -0.001102 0.019125 0.000000 0.000000 0.000000
# 4 0.000000 0.000000 0.000000 -0.039126 0.000000 0.000000
# 5 0.000000 0.000000 0.000000 0.000000 0.049412 0.000000
# 6 0.000000 0.000000 0.000000 0.000000 0.000000 -0.024382
#
#
# Mechanical properties :
#
#
# Convention : Reuss Voigt Hill
#
# Bulk Modulus (GPa) = 34.82869 36.97905 35.90387
# Shear Modulus (GPa) = 70.97362 1.60101 36.28732
#
# Velocity S-wave (km/s) = 5.60604 0.84199 4.00853
# Velocity P-wave (km/s) = 7.57139 4.16171 6.10925
#
# Compressibility (1/GPa) = 0.02871196
#
# Stress axis : x y z
#
# Youngs Moduli (GPa) = 45.14820 94.62293 52.28652
#
# Poissons Ratio (x) = 0.37633 0.33914
# Poissons Ratio (y) = 0.17956 0.05763
# Poissons Ratio (z) = 0.29284 0.10429
#
# Static dielectric constant tensor:
#      x y z
#    x 1.825380 0.000000 0.000000 
#    y 0.000000 1.838960 0.000000 
#    z 0.000000 0.000000 1.851140 
# 
# From -- ./inp_files/28629.got.cif
#   From: 2010.05.17/outbox.cif.g08.bks.cpg/sg67_15_cif.got.tgz:28629.got - 2010.06.03 18:28:57.
