data_PCOD9502184
_publ_section_title
;
Structure prediction by ZEFSAII (Michael W. Deem and Ramdas Pophale) SiO2 
 PCOD9502184
Probable space group: C M M A
;
_chemical_formula_sum "Si O2"
_cell_formula_units_Z 104
_cell_length_a 9.012252
_cell_length_b 30.336278
_cell_length_c 23.235575
_cell_angle_alpha 90.000000
_cell_angle_beta 90.000000
_cell_angle_gamma 90.000000
_cell_volume 6352.563965
_symmetry_space_group_name_H-M "C M M A"
_symmetry_group_IT_number 67
_symmetry_cell_setting 'orthorhombic'
loop_
_space_group_symop_operation_xyz
x,y,z
-x,1/2-y,z
x,-y,-z
-x,1/2+y,-z
-x,-y,-z
x,1/2+y,-z
-x,y,z
x,1/2-y,z
1/2+x,1/2+y,z
1/2-x,-y,z
1/2+x,1/2-y,-z
1/2-x,y,-z
1/2-x,1/2-y,-z
1/2+x,y,-z
1/2-x,1/2+y,z
1/2+x,-y,z
loop_
_atom_site_type_symbol
_atom_site_label
_atom_site_fract_x
_atom_site_fract_y
_atom_site_fract_z
Si Si1 0.328358 0.130612 0.267642
Si Si2 0.178260 0.454340 0.318134
Si Si3 0.823880 0.929110 0.439947
Si Si4 0.328698 0.750000 0.439165
Si Si5 0.670123 0.303403 0.058117
Si Si6 0.677986 0.198162 0.820582
Si Si7 0.664959 0.168006 0.396470
O O1 0.500000 0.121475 0.251467
O O2 0.237261 0.085768 0.278741
O O3 0.253171 0.164669 0.223919
O O4 0.331769 0.152993 0.330536
O O5 0.250000 0.500000 0.297677
O O6 0.241293 0.447070 0.383210
O O7 0.000000 0.455717 0.319288
O O8 0.750000 0.943246 0.500000
O O9 0.810462 0.875980 0.433751
O O10 0.000000 0.939860 0.437762
O O11 0.500000 0.750000 0.448692
O O12 0.250000 0.750000 0.500000
O O13 0.280629 0.706099 0.406591
O O14 0.500000 0.318862 0.062110
O O15 0.665295 0.250000 0.054472
O O16 0.761752 0.313059 0.115747
O O17 0.750000 0.319284 0.000000
O O18 0.500000 0.194536 0.818547
O O19 0.716128 0.250000 0.808946
O O20 0.500000 0.185103 0.410216
#
# Coordination Sequence:
#
# PCOD9502184 Si02
#       7
#    16  16  16   8  16  16  16
#     4  10  21  37  55  75 100 132 168 208 253 302
#     4  11  22  38  58  78 101 128 160 202 252 308
#     4  10  20  35  54  76  98 123 154 194 245 304
#     4  12  24  34  48  66  88 118 159 202 243 292
#     4   9  16  27  44  67  98 138 180 219 258 297
#     4  10  20  32  48  74 107 142 180 218 254 298
#     4   9  20  36  51  67  91 122 157 199 246 294
#
# _framework density 16.371343
#
# number of rings (size 3 to 8) (size 9 to 14) (size 15 to 20)
#    0.000    2.000    0.000    5.308    1.077    8.000 
#    0.000    1.538    0.000    0.000    0.000    0.000 
#    0.000    0.615    0.000    6.154    0.000    4.000 
#
# Total GULP energy -290203.989509 kJ/mol
# GULP energy per Si atom -5580.845952 kJ/mol
# Density = 1.633408 g / cm^3
# Si number density = 16.371343 Si / 1000 Ang^3
#
#
#
# Elastic Constant Matrix: (Units=GPa)
#
#
# Indices 1 2 3 4 5 6 
#
# 1 148.2554 66.3645 46.2491 0.0000 0.0000 0.0000
# 2 66.3645 83.4273 42.1038 0.0000 0.0000 0.0000
# 3 46.2491 42.1038 87.8727 0.0000 0.0000 0.0000
# 4 0.0000 0.0000 0.0000 2.0182 0.0000 0.0000
# 5 0.0000 0.0000 0.0000 0.0000 28.6654 0.0000
# 6 0.0000 0.0000 0.0000 0.0000 0.0000 23.3943
#
#
#
# Elastic Compliance Matrix: (Units=1/GPa)
#
#
# Indices 1 2 3 4 5 6 
#
# 1 0.010750 -0.007513 -0.002058 0.000000 0.000000 0.000000
# 2 -0.007513 0.021060 -0.006137 0.000000 0.000000 0.000000
# 3 -0.002058 -0.006137 0.015404 0.000000 0.000000 0.000000
# 4 0.000000 0.000000 0.000000 0.495493 0.000000 0.000000
# 5 0.000000 0.000000 0.000000 0.000000 0.034885 0.000000
# 6 0.000000 0.000000 0.000000 0.000000 0.000000 0.042745
#
#
# Mechanical properties :
#
#
# Convention : Reuss Voigt Hill
#
# Bulk Modulus (GPa) = 63.29771 69.88781 66.59276
# Shear Modulus (GPa) = 7.61014 21.80478 14.70746
#
# Velocity S-wave (km/s) = 2.15837 3.65346 3.00053
# Velocity P-wave (km/s) = 6.70515 7.78324 7.26422
#
# Compressibility (1/GPa) = 0.01579836
#
# Stress axis : x y z
#
# Youngs Moduli (GPa) = 93.02142 47.48418 64.91932
#
# Poissons Ratio (x) = 0.35674 0.13363
# Poissons Ratio (y) = 0.69885 0.39838
# Poissons Ratio (z) = 0.19147 0.29139
#
# Static dielectric constant tensor:
#      x y z
#    x 1.552340 0.000000 0.000000 
#    y 0.000000 1.543180 0.000000 
#    z 0.000000 0.000000 1.529780 
# 
# From -- ./inp_files/37495.got.cif
#   From: 2010.05.17/outbox.cif.g08.bks.cpg/sg67_19_cif.got.tgz:37495.got - 2010.06.03 18:28:57.
