data_PCOD9502121
_publ_section_title
;
Structure prediction by ZEFSAII (Michael W. Deem and Ramdas Pophale) SiO2 
 PCOD9502121
Probable space group: C M M A
;
_chemical_formula_sum "Si O2"
_cell_formula_units_Z 96
_cell_length_a 9.041202
_cell_length_b 27.178783
_cell_length_c 25.680533
_cell_angle_alpha 90.000000
_cell_angle_beta 90.000000
_cell_angle_gamma 90.000000
_cell_volume 6310.448284
_symmetry_space_group_name_H-M "C M M A"
_symmetry_group_IT_number 67
_symmetry_cell_setting 'orthorhombic'
loop_
_space_group_symop_operation_xyz
x,y,z
-x,1/2-y,z
x,-y,-z
-x,1/2+y,-z
-x,-y,-z
x,1/2+y,-z
-x,y,z
x,1/2-y,z
1/2+x,1/2+y,z
1/2-x,-y,z
1/2+x,1/2-y,-z
1/2-x,y,-z
1/2-x,1/2-y,-z
1/2+x,y,-z
1/2-x,1/2+y,z
1/2+x,-y,z
loop_
_atom_site_type_symbol
_atom_site_label
_atom_site_fract_x
_atom_site_fract_y
_atom_site_fract_z
Si Si1 0.665268 0.308079 0.949798
Si Si2 0.670912 0.309993 0.553316
Si Si3 0.821120 0.947290 0.056566
Si Si4 0.831071 0.690447 0.341292
Si Si5 0.675480 0.859864 0.862490
Si Si6 0.677281 0.807876 0.232183
O O1 0.500000 0.329216 0.943767
O O2 0.649398 0.250000 0.956847
O O3 0.766779 0.317335 0.900588
O O4 0.750000 0.327795 0.000000
O O5 0.500000 0.325006 0.554143
O O6 0.673287 0.250000 0.553617
O O7 0.750000 0.325604 0.500000
O O8 0.755214 0.326717 0.605299
O O9 0.788131 0.908431 0.102915
O O10 0.000000 0.950088 0.051097
O O11 0.750000 0.000000 0.070178
O O12 0.750000 0.934840 0.000000
O O13 0.835826 0.750000 0.344531
O O14 0.737469 0.679801 0.289649
O O15 0.000000 0.673007 0.336653
O O16 0.500000 0.858841 0.855054
O O17 0.755189 0.846576 0.808649
O O18 0.500000 0.809839 0.230488
O O19 0.719362 0.750000 0.220959
#
# Coordination Sequence:
#
# PCOD9502121 Si02
#       6
#    16  16  16  16  16  16
#     4  10  20  32  45  62  84 110 138 167 201 241
#     4   9  15  22  33  50  72  99 135 179 222 260
#     4  10  21  36  54  73  90 108 132 165 208 257
#     4   9  16  26  39  54  75 105 140 179 220 256
#     4  11  22  33  47  67  87 109 138 170 206 249
#     4  10  20  32  45  62  85 115 149 181 213 251
#
# _framework density 15.212866
#
# number of rings (size 3 to 8) (size 9 to 14) (size 15 to 20)
#    0.000    2.167    0.000    4.500    0.000   12.000 
#    0.000    0.000    0.000    0.000    0.000    0.000 
#    0.000    0.000    0.000    0.000    0.000    0.833 
#
# Total GULP energy -267421.403947 kJ/mol
# GULP energy per Si atom -5571.279249 kJ/mol
# Density = 1.517824 g / cm^3
# Si number density = 15.212866 Si / 1000 Ang^3
#
#
#
# Elastic Constant Matrix: (Units=GPa)
#
#
# Indices 1 2 3 4 5 6 
#
# 1 97.7222 37.2384 62.7156 0.0000 0.0000 0.0000
# 2 37.2384 47.7284 33.3377 0.0000 0.0000 0.0000
# 3 62.7156 33.3377 137.8714 0.0000 0.0000 0.0000
# 4 0.0000 0.0000 0.0000 13.2080 0.0000 0.0000
# 5 0.0000 0.0000 0.0000 0.0000 30.9988 0.0000
# 6 0.0000 0.0000 0.0000 0.0000 0.0000 1683.7416
#
#
#
# Elastic Compliance Matrix: (Units=1/GPa)
#
#
# Indices 1 2 3 4 5 6 
#
# 1 0.017571 -0.009778 -0.005629 0.000000 0.000000 0.000000
# 2 -0.009778 0.030651 -0.002964 0.000000 0.000000 0.000000
# 3 -0.005629 -0.002964 0.010530 0.000000 0.000000 0.000000
# 4 0.000000 0.000000 0.000000 0.075712 0.000000 0.000000
# 5 0.000000 0.000000 0.000000 0.000000 0.032259 0.000000
# 6 0.000000 0.000000 0.000000 0.000000 0.000000 0.000594
#
#
# Mechanical properties :
#
#
# Convention : Reuss Voigt Hill
#
# Bulk Modulus (GPa) = 45.42982 61.10060 53.26521
# Shear Modulus (GPa) = 23.65239 355.59170 189.62204
#
# Velocity S-wave (km/s) = 3.94732 15.30528 11.17660
# Velocity P-wave (km/s) = 7.12059 18.77728 14.20016
#
# Compressibility (1/GPa) = 0.02201197
#
# Stress axis : x y z
#
# Youngs Moduli (GPa) = 56.91050 32.62553 94.96558
#
# Poissons Ratio (x) = 0.31901 0.53453
# Poissons Ratio (y) = 0.55647 0.28144
# Poissons Ratio (z) = 0.32033 0.09669
#
# Static dielectric constant tensor:
#      x y z
#    x 1.517090 0.000000 0.000000 
#    y 0.000000 1.504880 0.000000 
#    z 0.000000 0.000000 1.496170 
# 
# From -- ./inp_files/40906.got.cif
#   From: 2010.05.17/outbox.cif.g08.bks.cpg/sg67_21_cif.got.tgz:40906.got - 2010.06.03 18:28:57.
