data_PCOD9502947
_publ_section_title
;
Structure prediction by ZEFSAII (Michael W. Deem and Ramdas Pophale) SiO2 
 PCOD9502947
Probable space group: C M M A
;
_chemical_formula_sum "Si O2"
_cell_formula_units_Z 80
_cell_length_a 18.423336
_cell_length_b 8.987608
_cell_length_c 26.585642
_cell_angle_alpha 90.000000
_cell_angle_beta 90.000000
_cell_angle_gamma 90.000000
_cell_volume 4402.096383
_symmetry_space_group_name_H-M "C M M A"
_symmetry_group_IT_number 67
_symmetry_cell_setting 'orthorhombic'
loop_
_space_group_symop_operation_xyz
x,y,z
-x,1/2-y,z
x,-y,-z
-x,1/2+y,-z
-x,-y,-z
x,1/2+y,-z
-x,y,z
x,1/2-y,z
1/2+x,1/2+y,z
1/2-x,-y,z
1/2+x,1/2-y,-z
1/2-x,y,-z
1/2-x,1/2-y,-z
1/2+x,y,-z
1/2-x,1/2+y,z
1/2+x,-y,z
loop_
_atom_site_type_symbol
_atom_site_label
_atom_site_fract_x
_atom_site_fract_y
_atom_site_fract_z
Si Si1 0.911783 0.077063 0.949323
Si Si2 0.913503 0.429401 0.837776
Si Si3 0.670963 0.927910 0.551915
Si Si4 0.914280 0.573480 0.345927
Si Si5 0.170806 0.572690 0.745197
O O1 0.892691 0.250000 0.951817
O O2 0.890064 0.020750 0.894014
O O3 0.000000 0.067632 0.949567
O O4 0.884847 0.000000 0.000000
O O5 0.903556 0.250000 0.834475
O O6 0.870007 0.510837 0.794381
O O7 0.000000 0.456455 0.832328
O O8 0.678356 0.750000 0.545869
O O9 0.619897 0.957168 0.599483
O O10 0.643426 0.000000 0.500000
O O11 0.750000 0.000000 0.561251
O O12 0.903276 0.750000 0.335365
O O13 0.874296 0.479709 0.303377
O O14 0.000000 0.544709 0.345705
O O15 0.176359 0.750000 0.746874
O O16 0.250000 0.500000 0.742449
#
# Coordination Sequence:
#
# PCOD9502947 Si02
#       5
#    16  16  16  16  16
#     4   8  14  25  44  72 105 140 175 212 258 311
#     4   9  18  34  55  79 110 145 178 218 270 322
#     4  10  20  35  57  83 112 148 186 223 265 314
#     4  10  22  40  60  83 113 146 179 221 274 325
#     4  12  25  39  57  80 106 140 182 226 273 325
#
# _framework density 18.173159999999999
#
# number of rings (size 3 to 8) (size 9 to 14) (size 15 to 20)
#    0.000    2.200    0.000    5.400    0.000    7.600 
#    0.000    2.000    0.000    0.600    0.000    4.200 
#    0.000    0.000    0.000    0.000    0.000    0.000 
#
# Total GULP energy -223255.248955 kJ/mol
# GULP energy per Si atom -5581.381224 kJ/mol
# Density = 1.813180 g / cm^3
# Si number density = 18.173160 Si / 1000 Ang^3
#
#
#
# Elastic Constant Matrix: (Units=GPa)
#
#
# Indices 1 2 3 4 5 6 
#
# 1 78.7032 63.0671 81.1522 0.0000 0.0000 0.0000
# 2 63.0671 97.0010 98.6022 0.0000 0.0000 0.0000
# 3 81.1522 98.6022 186.0147 0.0000 0.0000 0.0000
# 4 0.0000 0.0000 0.0000 37.5827 0.0000 0.0000
# 5 0.0000 0.0000 0.0000 0.0000 142.7673 0.0000
# 6 0.0000 0.0000 0.0000 0.0000 0.0000 18.5893
#
#
#
# Elastic Compliance Matrix: (Units=1/GPa)
#
#
# Indices 1 2 3 4 5 6 
#
# 1 0.029144 -0.013062 -0.005790 0.000000 0.000000 0.000000
# 2 -0.013062 0.028209 -0.009254 0.000000 0.000000 0.000000
# 3 -0.005790 -0.009254 0.012808 0.000000 0.000000 0.000000
# 4 0.000000 0.000000 0.000000 0.026608 0.000000 0.000000
# 5 0.000000 0.000000 0.000000 0.000000 0.007004 0.000000
# 6 0.000000 0.000000 0.000000 0.000000 0.000000 0.053794
#
#
# Mechanical properties :
#
#
# Convention : Reuss Voigt Hill
#
# Bulk Modulus (GPa) = 71.70408 94.15132 82.92770
# Shear Modulus (GPa) = 22.89064 47.71436 35.30250
#
# Velocity S-wave (km/s) = 3.55291 5.12956 4.41223
# Velocity P-wave (km/s) = 7.50817 9.32757 8.46688
#
# Compressibility (1/GPa) = 0.01394621
#
# Stress axis : x y z
#
# Youngs Moduli (GPa) = 34.31252 35.44980 78.07906
#
# Poissons Ratio (x) = 0.46306 0.45211
# Poissons Ratio (y) = 0.44821 0.72256
# Poissons Ratio (z) = 0.19868 0.32806
#
# Static dielectric constant tensor:
#      x y z
#    x 1.600210 0.000000 0.000000 
#    y 0.000000 1.609550 0.000000 
#    z 0.000000 0.000000 1.631420 
# 
# From -- ./inp_files/44422.got.cif
#   From: 2010.05.17/outbox.cif.g08.bks.cpg/sg67_23_cif.got.tgz:44422.got - 2010.06.03 18:28:57.
