data_PCOD9502446
_publ_section_title
;
Structure prediction by ZEFSAII (Michael W. Deem and Ramdas Pophale) SiO2 
 PCOD9502446
Probable space group: C M M A
;
_chemical_formula_sum "Si O2"
_cell_formula_units_Z 52
_cell_length_a 23.908317
_cell_length_b 5.377802
_cell_length_c 20.070012
_cell_angle_alpha 90.000000
_cell_angle_beta 90.000000
_cell_angle_gamma 90.000000
_cell_volume 2580.485636
_symmetry_space_group_name_H-M "C M M A"
_symmetry_group_IT_number 67
_symmetry_cell_setting 'orthorhombic'
loop_
_space_group_symop_operation_xyz
x,y,z
-x,1/2-y,z
x,-y,-z
-x,1/2+y,-z
-x,-y,-z
x,1/2+y,-z
-x,y,z
x,1/2-y,z
1/2+x,1/2+y,z
1/2-x,-y,z
1/2+x,1/2-y,-z
1/2-x,y,-z
1/2-x,1/2-y,-z
1/2+x,y,-z
1/2-x,1/2+y,z
1/2+x,-y,z
loop_
_atom_site_type_symbol
_atom_site_label
_atom_site_fract_x
_atom_site_fract_y
_atom_site_fract_z
Si Si1 0.063385 0.750000 0.716352
Si Si2 0.129278 0.750000 0.038039
Si Si3 0.215277 0.250000 0.684128
Si Si4 0.212569 0.750000 0.159435
Si Si5 0.000000 0.250000 0.543511
Si Si6 0.099795 0.250000 0.648662
Si Si7 0.500000 0.750000 0.928549
Si Si8 0.000000 0.250000 0.155434
O O1 0.090636 0.498874 0.691540
O O2 0.053370 0.750000 0.795325
O O3 0.000000 0.750000 0.688030
O O4 0.159037 0.750000 0.110353
O O5 0.061063 0.750000 0.037304
O O6 0.147274 0.500000 0.000000
O O7 0.250000 0.500000 0.675739
O O8 0.195967 0.250000 0.762207
O O9 0.164648 0.250000 0.632214
O O10 0.250000 0.500000 0.148226
O O11 0.000000 0.500000 0.500000
O O12 0.945100 0.250000 0.590047
O O13 0.500000 0.498688 0.886108
#
# Coordination Sequence:
#
# PCOD9502446 Si02
#       8
#     8   8   8   8   4   8   4   4
#     4  10  20  33  57  94 131 152 205 249 320 385
#     4  12  26  43  63  83 117 165 206 255 316 383
#     4  10  23  42  64  95 128 169 208 262 328 382
#     4  10  23  41  63  92 118 148 206 267 316 369
#     4  12  24  40  66 100 140 176 222 260 310 352
#     4  12  21  41  65  93 139 173 206 264 314 379
#     4  12  24  42  58  84 121 155 206 250 310 388
#     4  10  22  34  56  90 119 151 194 244 312 378
#
# _framework density 20.151246
#
# number of rings (size 3 to 8) (size 9 to 14) (size 15 to 20)
#    0.462    0.615    1.538    5.077    4.308    1.846 
#    0.000    0.000    0.000    2.769    0.000    0.000 
#    0.000    0.000    0.000    0.000    0.000    0.000 
#
# Total GULP energy -145193.002038 kJ/mol
# GULP energy per Si atom -5584.346232 kJ/mol
# Density = 2.010538 g / cm^3
# Si number density = 20.151246 Si / 1000 Ang^3
#
#
#
# Elastic Constant Matrix: (Units=GPa)
#
#
# Indices 1 2 3 4 5 6 
#
# 1 113.3195 39.0371 39.2838 0.0000 0.0000 0.0000
# 2 39.0371 212.1832 51.0570 0.0000 0.0000 0.0000
# 3 39.2838 51.0570 59.9941 0.0000 0.0000 0.0000
# 4 0.0000 0.0000 0.0000 55.5793 0.0000 0.0000
# 5 0.0000 0.0000 0.0000 0.0000 -13.9391 0.0000
# 6 0.0000 0.0000 0.0000 0.0000 0.0000 29.2511
#
#
#
# Elastic Compliance Matrix: (Units=1/GPa)
#
#
# Indices 1 2 3 4 5 6 
#
# 1 0.011440 -0.000380 -0.007168 0.000000 0.000000 0.000000
# 2 -0.000380 0.005939 -0.004806 0.000000 0.000000 0.000000
# 3 -0.007168 -0.004806 0.025451 0.000000 0.000000 0.000000
# 4 0.000000 0.000000 0.000000 0.017992 0.000000 0.000000
# 5 0.000000 0.000000 0.000000 0.000000 -0.071741 0.000000
# 6 0.000000 0.000000 0.000000 0.000000 0.000000 0.034187
#
#
# Mechanical properties :
#
#
# Convention : Reuss Voigt Hill
#
# Bulk Modulus (GPa) = 55.17448 71.58362 63.37905
# Shear Modulus (GPa) = 92.56308 31.25284 61.90796
#
# Velocity S-wave (km/s) = 6.78483 3.94244 5.54872
# Velocity P-wave (km/s) = 9.42434 7.50493 8.51887
#
# Compressibility (1/GPa) = 0.01812432
#
# Stress axis : x y z
#
# Youngs Moduli (GPa) = 87.41042 168.37321 39.29060
#
# Poissons Ratio (x) = 0.06399 0.28162
# Poissons Ratio (y) = 0.03322 0.18882
# Poissons Ratio (z) = 0.62652 0.80914
#
# Static dielectric constant tensor:
#      x y z
#    x 1.754690 0.000000 0.000000 
#    y 0.000000 1.648890 0.000000 
#    z 0.000000 0.000000 1.700620 
# 
# From -- ./inp_files/39200.got.cif
#   From: 2010.05.17/outbox.cif.g08.bks.cpg/sg67_20_cif.got.tgz:39200.got - 2010.06.03 18:28:57.
