data_PCOD9502961
_publ_section_title
;
Structure prediction by ZEFSAII (Michael W. Deem and Ramdas Pophale) SiO2 
 PCOD9502961
Probable space group: C M M A
;
_chemical_formula_sum "Si O2"
_cell_formula_units_Z 112
_cell_length_a 30.308902
_cell_length_b 15.122808
_cell_length_c 11.887257
_cell_angle_alpha 90.000000
_cell_angle_beta 90.000000
_cell_angle_gamma 90.000000
_cell_volume 5448.592070
_symmetry_space_group_name_H-M "C M M A"
_symmetry_group_IT_number 67
_symmetry_cell_setting 'orthorhombic'
loop_
_space_group_symop_operation_xyz
x,y,z
-x,1/2-y,z
x,-y,-z
-x,1/2+y,-z
-x,-y,-z
x,1/2+y,-z
-x,y,z
x,1/2-y,z
1/2+x,1/2+y,z
1/2-x,-y,z
1/2+x,1/2-y,-z
1/2-x,y,-z
1/2-x,1/2-y,-z
1/2+x,y,-z
1/2-x,1/2+y,z
1/2+x,-y,z
loop_
_atom_site_type_symbol
_atom_site_label
_atom_site_fract_x
_atom_site_fract_y
_atom_site_fract_z
Si Si1 0.549619 0.353532 0.786742
Si Si2 0.287884 0.151413 0.594407
Si Si3 0.791536 0.148974 0.918984
Si Si4 0.450072 0.398704 0.536240
Si Si5 0.636239 0.652776 0.584950
Si Si6 0.816691 0.491899 0.738834
Si Si7 0.128135 0.586180 0.930702
O O1 0.500000 0.385146 0.815427
O O2 0.547407 0.250000 0.762956
O O3 0.563238 0.395325 0.667427
O O4 0.584884 0.366725 0.884721
O O5 0.283426 0.250000 0.648702
O O6 0.250000 0.144883 0.500000
O O7 0.333706 0.150548 0.526572
O O8 0.288922 0.064133 0.669724
O O9 0.788457 0.250000 0.878785
O O10 0.791990 0.077712 0.819702
O O11 0.750000 0.131585 0.000000
O O12 0.836561 0.137223 0.991455
O O13 0.451547 0.500000 0.500000
O O14 0.500000 0.361920 0.528100
O O15 0.413829 0.354804 0.456627
O O16 0.643521 0.750000 0.638989
O O17 0.653158 0.571158 0.659893
O O18 0.845906 0.551543 0.821720
O O19 0.114292 0.500000 0.000000
#
# Coordination Sequence:
#
# PCOD9502961 Si02
#       7
#    16  16  16  16  16  16  16
#     4  10  20  35  57  84 114 151 195 242 293 350
#     4  10  23  40  59  88 122 158 200 244 295 355
#     4  10  23  43  65  90 119 153 198 249 302 361
#     4  10  20  35  57  86 121 160 202 247 295 352
#     4  11  22  36  57  86 122 162 201 243 294 354
#     4  11  23  40  62  87 117 157 199 245 299 357
#     4  10  22  37  59  87 114 150 196 248 304 354
#
# _framework density 20.555769000000002
#
# number of rings (size 3 to 8) (size 9 to 14) (size 15 to 20)
#    0.000    1.714    0.000    4.286    0.000    9.429 
#    0.000    2.857    0.000    4.286    0.000    0.000 
#    0.000    0.000    0.000    0.000    0.000    0.000 
#
# Total GULP energy -312907.492149 kJ/mol
# GULP energy per Si atom -5587.633788 kJ/mol
# Density = 2.050898 g / cm^3
# Si number density = 20.555769 Si / 1000 Ang^3
#
#
#
# Elastic Constant Matrix: (Units=GPa)
#
#
# Indices 1 2 3 4 5 6 
#
# 1 83.0206 37.8733 42.7042 0.0000 0.0000 0.0000
# 2 37.8733 119.3653 48.2533 0.0000 0.0000 0.0000
# 3 42.7042 48.2533 76.1510 0.0000 0.0000 0.0000
# 4 0.0000 0.0000 0.0000 9.1162 0.0000 0.0000
# 5 0.0000 0.0000 0.0000 0.0000 28.0357 0.0000
# 6 0.0000 0.0000 0.0000 0.0000 0.0000 35.6611
#
#
#
# Elastic Compliance Matrix: (Units=1/GPa)
#
#
# Indices 1 2 3 4 5 6 
#
# 1 0.017314 -0.002109 -0.008373 0.000000 0.000000 0.000000
# 2 -0.002109 0.011519 -0.006117 0.000000 0.000000 0.000000
# 3 -0.008373 -0.006117 0.021703 0.000000 0.000000 0.000000
# 4 0.000000 0.000000 0.000000 0.109694 0.000000 0.000000
# 5 0.000000 0.000000 0.000000 0.000000 0.035669 0.000000
# 6 0.000000 0.000000 0.000000 0.000000 0.000000 0.028042
#
#
# Mechanical properties :
#
#
# Convention : Reuss Voigt Hill
#
# Bulk Modulus (GPa) = 57.67231 59.57761 58.62496
# Shear Modulus (GPa) = 19.01722 24.54300 21.78011
#
# Velocity S-wave (km/s) = 3.04493 3.45914 3.25862
# Velocity P-wave (km/s) = 6.36236 6.70824 6.53759
#
# Compressibility (1/GPa) = 0.01733934
#
# Stress axis : x y z
#
# Youngs Moduli (GPa) = 57.75580 86.80990 46.07580
#
# Poissons Ratio (x) = 0.18306 0.38581
# Poissons Ratio (y) = 0.12179 0.28184
# Poissons Ratio (z) = 0.48361 0.53100
#
# Static dielectric constant tensor:
#      x y z
#    x 1.798550 0.000000 0.000000 
#    y 0.000000 1.740640 0.000000 
#    z 0.000000 0.000000 1.723140 
# 
# From -- ./inp_files/23830.got.cif
#   From: 2010.05.17/outbox.cif.g08.bks.cpg/sg67_12_cif.got.tgz:23830.got - 2010.06.03 18:28:57.
