data_PCOD9502084
_publ_section_title
;
Structure prediction by ZEFSAII (Michael W. Deem and Ramdas Pophale) SiO2 
 PCOD9502084
Probable space group: C M M A
;
_chemical_formula_sum "Si O2"
_cell_formula_units_Z 72
_cell_length_a 14.176234
_cell_length_b 25.788212
_cell_length_c 10.556020
_cell_angle_alpha 90.000000
_cell_angle_beta 90.000000
_cell_angle_gamma 90.000000
_cell_volume 3859.066918
_symmetry_space_group_name_H-M "C M M A"
_symmetry_group_IT_number 67
_symmetry_cell_setting 'orthorhombic'
loop_
_space_group_symop_operation_xyz
x,y,z
-x,1/2-y,z
x,-y,-z
-x,1/2+y,-z
-x,-y,-z
x,1/2+y,-z
-x,y,z
x,1/2-y,z
1/2+x,1/2+y,z
1/2-x,-y,z
1/2+x,1/2-y,-z
1/2-x,y,-z
1/2-x,1/2-y,-z
1/2+x,y,-z
1/2-x,1/2+y,z
1/2+x,-y,z
loop_
_atom_site_type_symbol
_atom_site_label
_atom_site_fract_x
_atom_site_fract_y
_atom_site_fract_z
Si Si1 0.209385 0.250000 0.859954
Si Si2 0.000000 0.250000 0.804374
Si Si3 0.500000 0.127165 0.913095
Si Si4 0.161204 0.938747 0.275375
Si Si5 0.287976 0.641914 0.143674
Si Si6 0.500000 0.508511 0.148524
Si Si7 0.750000 0.000000 0.500000
Si Si8 0.500000 0.137110 0.225741
O O1 0.242690 0.304816 0.801219
O O2 0.097372 0.250000 0.878736
O O3 0.250000 0.250000 0.000000
O O4 0.000000 0.196161 0.733651
O O5 0.599797 0.149824 0.867964
O O6 0.500000 0.070338 0.847696
O O7 0.500000 0.129567 0.069844
O O8 0.252540 0.911456 0.210234
O O9 0.189272 0.964188 0.406954
O O10 0.090337 0.890929 0.280806
O O11 0.095230 0.981258 0.202656
O O12 0.250000 0.636583 0.000000
O O13 0.500000 0.500000 0.000000
#
# Coordination Sequence:
#
# PCOD9502084 Si02
#       8
#     8   4   8  16  16   8   4   8
#     4  10  20  30  58  92 126 164 192 250 325 392
#     4  12  18  36  60  92 120 158 200 248 310 382
#     4  12  21  34  53  94 128 169 194 245 313 376
#     4  11  23  41  60  89 124 170 216 258 311 372
#     4  11  20  36  59  91 129 161 204 258 322 384
#     4  11  20  38  66  96 123 162 208 262 324 383
#     4  12  28  42  58  86 124 182 220 264 304 362
#     4  11  20  37  64  88 120 156 205 256 308 378
#
# _framework density 18.657359
#
# number of rings (size 3 to 8) (size 9 to 14) (size 15 to 20)
#    0.000    0.889    6.667    2.667    0.000    2.222 
#    0.000    2.222    0.000    2.667    0.000    0.000 
#    0.000    0.000    0.000    0.000    0.000    0.000 
#
# Total GULP energy -200439.835896 kJ/mol
# GULP energy per Si atom -5567.773219 kJ/mol
# Density = 1.861489 g / cm^3
# Si number density = 18.657359 Si / 1000 Ang^3
#
#
#
# Elastic Constant Matrix: (Units=GPa)
#
#
# Indices 1 2 3 4 5 6 
#
# 1 161.2930 41.5755 40.4143 0.0000 0.0000 0.0000
# 2 41.5755 135.0585 43.4409 0.0000 0.0000 0.0000
# 3 40.4143 43.4409 81.1347 0.0000 0.0000 0.0000
# 4 0.0000 0.0000 0.0000 12.9333 0.0000 0.0000
# 5 0.0000 0.0000 0.0000 0.0000 27.7679 0.0000
# 6 0.0000 0.0000 0.0000 0.0000 0.0000 37.0402
#
#
#
# Elastic Compliance Matrix: (Units=1/GPa)
#
#
# Indices 1 2 3 4 5 6 
#
# 1 0.007267 -0.001296 -0.002926 0.000000 0.000000 0.000000
# 2 -0.001296 0.009176 -0.004267 0.000000 0.000000 0.000000
# 3 -0.002926 -0.004267 0.016067 0.000000 0.000000 0.000000
# 4 0.000000 0.000000 0.000000 0.077320 0.000000 0.000000
# 5 0.000000 0.000000 0.000000 0.000000 0.036013 0.000000
# 6 0.000000 0.000000 0.000000 0.000000 0.000000 0.026998
#
#
# Mechanical properties :
#
#
# Convention : Reuss Voigt Hill
#
# Bulk Modulus (GPa) = 64.38399 69.81639 67.10019
# Shear Modulus (GPa) = 25.64152 32.35197 28.99675
#
# Velocity S-wave (km/s) = 3.71123 4.16866 3.94658
# Velocity P-wave (km/s) = 7.27653 7.78921 7.53723
#
# Compressibility (1/GPa) = 0.01553181
#
# Stress axis : x y z
#
# Youngs Moduli (GPa) = 137.60679 108.98370 62.23765
#
# Poissons Ratio (x) = 0.14123 0.18211
# Poissons Ratio (y) = 0.17833 0.26559
# Poissons Ratio (z) = 0.40263 0.46507
#
# Static dielectric constant tensor:
#      x y z
#    x 1.698200 0.000000 0.000000 
#    y 0.000000 1.628850 0.000000 
#    z 0.000000 0.000000 1.576880 
# 
# From -- ./inp_files/8394.got.cif
#   From: 2010.05.17/outbox.cif.g08.bks.cpg/sg67_5_cif.got.tgz:8394.got - 2010.06.03 18:28:57.
