data_PCOD9502650
_publ_section_title
;
Structure prediction by ZEFSAII (Michael W. Deem and Ramdas Pophale) SiO2 
 PCOD9502650
Probable space group: C M M A
;
_chemical_formula_sum "Si O2"
_cell_formula_units_Z 120
_cell_length_a 26.536035
_cell_length_b 8.907950
_cell_length_c 27.620318
_cell_angle_alpha 90.000000
_cell_angle_beta 90.000000
_cell_angle_gamma 90.000000
_cell_volume 6528.936977
_symmetry_space_group_name_H-M "C M M A"
_symmetry_group_IT_number 67
_symmetry_cell_setting 'orthorhombic'
loop_
_space_group_symop_operation_xyz
x,y,z
-x,1/2-y,z
x,-y,-z
-x,1/2+y,-z
-x,-y,-z
x,1/2+y,-z
-x,y,z
x,1/2-y,z
1/2+x,1/2+y,z
1/2-x,-y,z
1/2+x,1/2-y,-z
1/2-x,y,-z
1/2-x,1/2-y,-z
1/2+x,y,-z
1/2-x,1/2+y,z
1/2+x,-y,z
loop_
_atom_site_type_symbol
_atom_site_label
_atom_site_fract_x
_atom_site_fract_y
_atom_site_fract_z
Si Si1 0.443472 0.070399 0.084247
Si Si2 0.404330 0.571116 0.808717
Si Si3 0.000000 0.568985 0.446728
Si Si4 0.158386 0.571613 0.951094
Si Si5 0.558082 0.071251 0.710056
Si Si6 0.196773 0.930649 0.446882
Si Si7 0.697369 0.070132 0.845441
Si Si8 0.401626 0.430368 0.384559
O O1 0.500000 0.025228 0.070170
O O2 0.438193 0.250000 0.076906
O O3 0.435075 0.041668 0.141637
O O4 0.398628 0.986912 0.056972
O O5 0.400044 0.750000 0.803597
O O6 0.429605 0.501691 0.761591
O O7 0.349625 0.498199 0.816732
O O8 0.000000 0.500000 0.500000
O O9 0.050333 0.524520 0.417460
O O10 0.000000 0.750000 0.450570
O O11 0.158277 0.750000 0.955447
O O12 0.187697 0.529896 0.902015
O O13 0.179204 0.500000 0.000000
O O14 0.500000 0.036048 0.697393
O O15 0.563613 0.250000 0.713396
O O16 0.592515 0.006275 0.667462
O O17 0.200930 0.750000 0.450748
O O18 0.150221 0.967259 0.411891
O O19 0.187036 0.000000 0.500000
O O20 0.250000 0.000000 0.430167
O O21 0.697683 0.250000 0.841379
O O22 0.750000 0.000000 0.829657
O O23 0.403834 0.250000 0.378690
#
# Coordination Sequence:
#
# PCOD9502650 Si02
#       8
#    16  16   8  16  16  16  16  16
#     4   9  18  33  53  77 104 137 179 222 267 323
#     4  10  20  36  59  83 108 142 182 226 275 329
#     4  10  20  34  54  80 112 148 186 232 281 338
#     4  10  21  35  52  76 107 142 179 221 269 324
#     4  11  23  37  56  84 116 149 184 227 279 334
#     4  10  20  35  57  83 110 146 189 233 279 329
#     4  10  21  38  59  83 110 140 179 227 277 329
#     4  10  21  37  56  80 112 150 191 232 281 338
#
# _framework density 18.379715000000001
#
# number of rings (size 3 to 8) (size 9 to 14) (size 15 to 20)
#    0.000    2.000    0.667    3.200    0.000    5.867 
#    0.000    2.000    0.000    1.600    0.000    0.000 
#    0.000    0.000    0.000    0.000    0.000    0.000 
#
# Total GULP energy -335159.936530 kJ/mol
# GULP energy per Si atom -5585.998942 kJ/mol
# Density = 1.833788 g / cm^3
# Si number density = 18.379715 Si / 1000 Ang^3
#
#
#
# Elastic Constant Matrix: (Units=GPa)
#
#
# Indices 1 2 3 4 5 6 
#
# 1 88.9803 30.9378 14.9224 0.0000 0.0000 0.0000
# 2 30.9378 36.8108 28.3883 0.0000 0.0000 0.0000
# 3 14.9224 28.3883 76.4912 0.0000 0.0000 0.0000
# 4 0.0000 0.0000 0.0000 34.0021 0.0000 0.0000
# 5 0.0000 0.0000 0.0000 0.0000 0.1213 0.0000
# 6 0.0000 0.0000 0.0000 0.0000 0.0000 26.9911
#
#
#
# Elastic Compliance Matrix: (Units=1/GPa)
#
#
# Indices 1 2 3 4 5 6 
#
# 1 0.016256 -0.015714 0.002661 0.000000 0.000000 0.000000
# 2 -0.015714 0.053250 -0.016697 0.000000 0.000000 0.000000
# 3 0.002661 -0.016697 0.018751 0.000000 0.000000 0.000000
# 4 0.000000 0.000000 0.000000 0.029410 0.000000 0.000000
# 5 0.000000 0.000000 0.000000 0.000000 8.242328 0.000000
# 6 0.000000 0.000000 0.000000 0.000000 0.000000 0.037049
#
#
# Mechanical properties :
#
#
# Convention : Reuss Voigt Hill
#
# Bulk Modulus (GPa) = 34.77578 38.97546 36.87562
# Shear Modulus (GPa) = 0.59059 20.75850 10.67455
#
# Velocity S-wave (km/s) = 0.56747 3.36434 2.41255
# Velocity P-wave (km/s) = 4.40354 6.02855 5.27895
#
# Compressibility (1/GPa) = 0.02875565
#
# Stress axis : x y z
#
# Youngs Moduli (GPa) = 61.51585 18.77948 53.33025
#
# Poissons Ratio (x) = 0.29511 -0.14190
# Poissons Ratio (y) = 0.96668 0.89045
# Poissons Ratio (z) = -0.16368 0.31356
#
# Static dielectric constant tensor:
#      x y z
#    x 1.621150 0.000000 0.000000 
#    y 0.000000 1.610420 0.000000 
#    z 0.000000 0.000000 1.612950 
# 
# From -- ./inp_files/45048.got.cif
#   From: 2010.05.17/outbox.cif.g08.bks.cpg/sg67_23_cif.got.tgz:45048.got - 2010.06.03 18:28:57.
