data_PCOD9502203
_publ_section_title
;
Structure prediction by ZEFSAII (Michael W. Deem and Ramdas Pophale) SiO2 
 PCOD9502203
Probable space group: C M M A
;
_chemical_formula_sum "Si O2"
_cell_formula_units_Z 60
_cell_length_a 21.524249
_cell_length_b 10.605917
_cell_length_c 13.863640
_cell_angle_alpha 90.000000
_cell_angle_beta 90.000000
_cell_angle_gamma 90.000000
_cell_volume 3164.852717
_symmetry_space_group_name_H-M "C M M A"
_symmetry_group_IT_number 67
_symmetry_cell_setting 'orthorhombic'
loop_
_space_group_symop_operation_xyz
x,y,z
-x,1/2-y,z
x,-y,-z
-x,1/2+y,-z
-x,-y,-z
x,1/2+y,-z
-x,y,z
x,1/2-y,z
1/2+x,1/2+y,z
1/2-x,-y,z
1/2+x,1/2-y,-z
1/2-x,y,-z
1/2-x,1/2-y,-z
1/2+x,y,-z
1/2-x,1/2+y,z
1/2+x,-y,z
loop_
_atom_site_type_symbol
_atom_site_label
_atom_site_fract_x
_atom_site_fract_y
_atom_site_fract_z
Si Si1 0.368697 0.608079 0.575093
Si Si2 0.426752 0.108072 0.214702
Si Si3 0.750000 0.000000 0.326663
Si Si4 0.750000 0.500000 0.000000
Si Si5 0.664793 0.391261 0.838255
O O1 0.386262 0.500000 0.500000
O O2 0.373001 0.750000 0.535406
O O3 0.410281 0.600750 0.671513
O O4 0.298338 0.579384 0.610182
O O5 0.500000 0.093989 0.200082
O O6 0.407854 0.250000 0.183342
O O7 0.387256 0.999229 0.164736
O O8 0.708384 0.914116 0.255600
O O9 0.707620 0.415365 0.930725
O O10 0.639631 0.250000 0.836949
#
# Coordination Sequence:
#
# PCOD9502203 Si02
#       5
#    16  16   8   4  16
#     4  10  20  32  49  74 104 139 178 220 266 313
#     4   9  20  39  57  74 104 144 180 218 268 315
#     4   9  19  33  51  74 108 142 173 215 271 319
#     4  10  22  36  56  86 120 140 154 200 270 326
#     4  10  20  35  58  84 107 137 177 216 256 311
#
# _framework density 18.958228999999999
#
# number of rings (size 3 to 8) (size 9 to 14) (size 15 to 20)
#    0.000    2.400    0.000    1.600    0.000   14.933 
#    0.000    0.667    0.000    0.000    0.000    0.000 
#    0.000    0.000    0.000    0.000    0.000    0.000 
#
# Total GULP energy -167464.796968 kJ/mol
# GULP energy per Si atom -5582.159899 kJ/mol
# Density = 1.891508 g / cm^3
# Si number density = 18.958229 Si / 1000 Ang^3
#
#
#
# Elastic Constant Matrix: (Units=GPa)
#
#
# Indices 1 2 3 4 5 6 
#
# 1 71.2026 61.5324 12.5303 0.0000 0.0000 0.0000
# 2 61.5324 196.5399 51.2060 0.0000 0.0000 0.0000
# 3 12.5303 51.2060 42.7296 0.0000 0.0000 0.0000
# 4 0.0000 0.0000 0.0000 1.9805 0.0000 0.0000
# 5 0.0000 0.0000 0.0000 0.0000 5.7350 0.0000
# 6 0.0000 0.0000 0.0000 0.0000 0.0000 17.7613
#
#
#
# Elastic Compliance Matrix: (Units=1/GPa)
#
#
# Indices 1 2 3 4 5 6 
#
# 1 0.019410 -0.006679 0.002312 0.000000 0.000000 0.000000
# 2 -0.006679 0.009696 -0.009661 0.000000 0.000000 0.000000
# 3 0.002312 -0.009661 0.034302 0.000000 0.000000 0.000000
# 4 0.000000 0.000000 0.000000 0.504922 0.000000 0.000000
# 5 0.000000 0.000000 0.000000 0.000000 0.174369 0.000000
# 6 0.000000 0.000000 0.000000 0.000000 0.000000 0.056302
#
#
# Mechanical properties :
#
#
# Convention : Reuss Voigt Hill
#
# Bulk Modulus (GPa) = 28.28657 62.33440 45.31048
# Shear Modulus (GPa) = 5.96061 17.44224 11.70142
#
# Velocity S-wave (km/s) = 1.77508 3.03650 2.48709
# Velocity P-wave (km/s) = 4.37654 6.72644 5.67446
#
# Compressibility (1/GPa) = 0.03535247
#
# Stress axis : x y z
#
# Youngs Moduli (GPa) = 51.52098 103.13342 29.15251
#
# Poissons Ratio (x) = 0.68885 -0.06741
# Poissons Ratio (y) = 0.34412 0.28164
# Poissons Ratio (z) = -0.11913 0.99637
#
# Static dielectric constant tensor:
#      x y z
#    x 1.636560 0.000000 0.000000 
#    y 0.000000 1.655930 0.000000 
#    z 0.000000 0.000000 1.655620 
# 
# From -- ./inp_files/29747.got.cif
#   From: 2010.05.17/outbox.cif.g08.bks.cpg/sg67_15_cif.got.tgz:29747.got - 2010.06.03 18:28:57.
