data_PCOD9502137
_publ_section_title
;
Structure prediction by ZEFSAII (Michael W. Deem and Ramdas Pophale) SiO2 
 PCOD9502137
Probable space group: C M M A
;
_chemical_formula_sum "Si O2"
_cell_formula_units_Z 64
_cell_length_a 27.795717
_cell_length_b 8.747455
_cell_length_c 14.742793
_cell_angle_alpha 90.000000
_cell_angle_beta 90.000000
_cell_angle_gamma 90.000000
_cell_volume 3584.588986
_symmetry_space_group_name_H-M "C M M A"
_symmetry_group_IT_number 67
_symmetry_cell_setting 'orthorhombic'
loop_
_space_group_symop_operation_xyz
x,y,z
-x,1/2-y,z
x,-y,-z
-x,1/2+y,-z
-x,-y,-z
x,1/2+y,-z
-x,y,z
x,1/2-y,z
1/2+x,1/2+y,z
1/2-x,-y,z
1/2+x,1/2-y,-z
1/2-x,y,-z
1/2-x,1/2-y,-z
1/2+x,y,-z
1/2-x,1/2+y,z
1/2+x,-y,z
loop_
_atom_site_type_symbol
_atom_site_label
_atom_site_fract_x
_atom_site_fract_y
_atom_site_fract_z
Si Si1 0.057320 0.577033 0.092571
Si Si2 0.696746 0.934789 0.099372
Si Si3 0.445225 0.932970 0.600663
Si Si4 0.615059 0.570605 0.242587
O O1 0.076286 0.750000 0.104388
O O2 0.072249 0.468231 0.173492
O O3 0.000000 0.587455 0.088645
O O4 0.074200 0.500000 0.000000
O O5 0.697324 0.750000 0.093677
O O6 0.661381 0.979158 0.182451
O O7 0.750000 0.000000 0.116569
O O8 0.682459 0.000000 0.000000
O O9 0.500000 0.977159 0.631983
O O10 0.444125 0.750000 0.597816
O O11 0.439602 0.000000 0.500000
O O12 0.402564 0.989834 0.665855
O O13 0.619897 0.750000 0.259790
#
# Coordination Sequence:
#
# PCOD9502137 Si02
#       4
#    16  16  16  16
#     4  10  20  32  46  68 100 137 174 210 252 305
#     4  10  21  36  55  79 107 140 178 220 266 316
#     4  10  21  37  57  81 109 142 179 219 264 314
#     4  11  22  34  52  78 105 136 175 217 263 315
#
# _framework density 17.854209000000001
#
# number of rings (size 3 to 8) (size 9 to 14) (size 15 to 20)
#    0.000    1.750    0.000    5.250    0.000   12.000 
#    0.000    0.000    0.000    0.750    0.000    5.250 
#    0.000    0.000    0.000    0.000    0.000    0.000 
#
# Total GULP energy -178469.161668 kJ/mol
# GULP energy per Si atom -5577.161302 kJ/mol
# Density = 1.781357 g / cm^3
# Si number density = 17.854209 Si / 1000 Ang^3
#
#
#
# Elastic Constant Matrix: (Units=GPa)
#
#
# Indices 1 2 3 4 5 6 
#
# 1 109.3088 47.2134 65.0157 0.0000 0.0000 0.0000
# 2 47.2134 50.1804 31.6498 0.0000 0.0000 0.0000
# 3 65.0157 31.6498 110.8182 0.0000 0.0000 0.0000
# 4 0.0000 0.0000 0.0000 32.2106 0.0000 0.0000
# 5 0.0000 0.0000 0.0000 0.0000 30.2244 0.0000
# 6 0.0000 0.0000 0.0000 0.0000 0.0000 84.4209
#
#
#
# Elastic Compliance Matrix: (Units=1/GPa)
#
#
# Indices 1 2 3 4 5 6 
#
# 1 0.019523 -0.013593 -0.007572 0.000000 0.000000 0.000000
# 2 -0.013593 0.033771 -0.001670 0.000000 0.000000 0.000000
# 3 -0.007572 -0.001670 0.013943 0.000000 0.000000 0.000000
# 4 0.000000 0.000000 0.000000 0.031046 0.000000 0.000000
# 5 0.000000 0.000000 0.000000 0.000000 0.033086 0.000000
# 6 0.000000 0.000000 0.000000 0.000000 0.000000 0.011845
#
#
# Mechanical properties :
#
#
# Convention : Reuss Voigt Hill
#
# Bulk Modulus (GPa) = 46.36698 62.00726 54.18712
# Shear Modulus (GPa) = 25.50060 37.79973 31.65017
#
# Velocity S-wave (km/s) = 3.78334 4.60622 4.21491
# Velocity P-wave (km/s) = 6.71648 7.94323 7.35547
#
# Compressibility (1/GPa) = 0.02156707
#
# Stress axis : x y z
#
# Youngs Moduli (GPa) = 51.22064 29.61121 71.72022
#
# Poissons Ratio (x) = 0.40251 0.54306
# Poissons Ratio (y) = 0.69626 0.11977
# Poissons Ratio (z) = 0.38784 0.04945
#
# Static dielectric constant tensor:
#      x y z
#    x 1.639800 0.000000 0.000000 
#    y 0.000000 1.617780 0.000000 
#    z 0.000000 0.000000 1.591340 
# 
# From -- ./inp_files/25211.got.cif
#   From: 2010.05.17/outbox.cif.g08.bks.cpg/sg67_13_cif.got.tgz:25211.got - 2010.06.03 18:28:57.
