data_PCOD9502522
_publ_section_title
;
Structure prediction by ZEFSAII (Michael W. Deem and Ramdas Pophale) SiO2 
 PCOD9502522
Probable space group: C M M A
;
_chemical_formula_sum "Si O2"
_cell_formula_units_Z 96
_cell_length_a 7.988686
_cell_length_b 20.674109
_cell_length_c 31.167659
_cell_angle_alpha 90.000000
_cell_angle_beta 90.000000
_cell_angle_gamma 90.000000
_cell_volume 5147.618306
_symmetry_space_group_name_H-M "C M M A"
_symmetry_group_IT_number 67
_symmetry_cell_setting 'orthorhombic'
loop_
_space_group_symop_operation_xyz
x,y,z
-x,1/2-y,z
x,-y,-z
-x,1/2+y,-z
-x,-y,-z
x,1/2+y,-z
-x,y,z
x,1/2-y,z
1/2+x,1/2+y,z
1/2-x,-y,z
1/2+x,1/2-y,-z
1/2-x,y,-z
1/2-x,1/2-y,-z
1/2+x,y,-z
1/2-x,1/2+y,z
1/2+x,-y,z
loop_
_atom_site_type_symbol
_atom_site_label
_atom_site_fract_x
_atom_site_fract_y
_atom_site_fract_z
Si Si1 0.300647 0.573664 0.951099
Si Si2 0.702105 0.823740 0.214972
Si Si3 0.797973 0.073077 0.284463
Si Si4 0.797919 0.323745 0.881836
Si Si5 0.202038 0.073082 0.382171
Si Si6 0.202025 0.823751 0.548348
O O1 0.500000 0.576108 0.949386
O O2 0.250000 0.500000 0.941185
O O3 0.233604 0.625536 0.916963
O O4 0.250000 0.588213 0.000000
O O5 0.500000 0.822823 0.217117
O O6 0.761552 0.750000 0.222398
O O7 0.763925 0.874189 0.250472
O O8 0.750874 0.842436 0.166633
O O9 0.738104 0.084688 0.333315
O O10 0.000000 0.076640 0.285163
O O11 0.750000 0.000000 0.272386
O O12 0.737809 0.250000 0.889179
O O13 0.000000 0.322574 0.884343
O O14 0.263995 0.125861 0.416131
O O15 0.000000 0.076628 0.381481
O O16 0.250000 0.000000 0.394249
O O17 0.261957 0.750000 0.555550
O O18 0.250000 0.842740 0.500000
O O19 0.000000 0.822667 0.550670
#
# Coordination Sequence:
#
# PCOD9502522 Si02
#       6
#    16  16  16  16  16  16
#     4  10  20  34  52  73  98 127 159 196 236 279
#     4   9  18  32  50  72  96 123 157 196 235 275
#     4   9  18  32  49  70  96 124 156 194 234 278
#     4   9  19  35  52  71  97 128 160 194 234 280
#     4   9  18  32  49  69  94 124 156 192 234 279
#     4   9  18  32  49  69  93 122 156 193 234 279
#
# _framework density 18.649401000000001
#
# number of rings (size 3 to 8) (size 9 to 14) (size 15 to 20)
#    0.000    2.833    0.000    1.000    0.000    4.667 
#    0.000    8.333    0.000    0.000    0.000    9.333 
#    0.000    0.000    0.000    0.000    0.000    0.000 
#
# Total GULP energy -267663.315698 kJ/mol
# GULP energy per Si atom -5576.319077 kJ/mol
# Density = 1.860695 g / cm^3
# Si number density = 18.649401 Si / 1000 Ang^3
#
#
#
# Elastic Constant Matrix: (Units=GPa)
#
#
# Indices 1 2 3 4 5 6 
#
# 1 15.6871 8.0345 7.3740 0.0000 0.0000 0.0000
# 2 8.0345 147.4172 142.8062 0.0000 0.0000 0.0000
# 3 7.3740 142.8062 161.3600 0.0000 0.0000 0.0000
# 4 0.0000 0.0000 0.0000 39.2873 0.0000 0.0000
# 5 0.0000 0.0000 0.0000 0.0000 24.3530 0.0000
# 6 0.0000 0.0000 0.0000 0.0000 0.0000 22.2318
#
#
#
# Elastic Compliance Matrix: (Units=1/GPa)
#
#
# Indices 1 2 3 4 5 6 
#
# 1 0.065608 -0.004705 0.001166 0.000000 0.000000 0.000000
# 2 -0.004705 0.047886 -0.042165 0.000000 0.000000 0.000000
# 3 0.001166 -0.042165 0.043460 0.000000 0.000000 0.000000
# 4 0.000000 0.000000 0.000000 0.025454 0.000000 0.000000
# 5 0.000000 0.000000 0.000000 0.000000 0.041063 0.000000
# 6 0.000000 0.000000 0.000000 0.000000 0.000000 0.044981
#
#
# Mechanical properties :
#
#
# Convention : Reuss Voigt Hill
#
# Bulk Modulus (GPa) = 15.25629 71.21043 43.23336
# Shear Modulus (GPa) = 13.09903 28.25772 20.67838
#
# Velocity S-wave (km/s) = 2.65313 3.89679 3.33347
# Velocity P-wave (km/s) = 4.19330 7.64940 6.16835
#
# Compressibility (1/GPa) = 0.06554672
#
# Stress axis : x y z
#
# Youngs Moduli (GPa) = 15.24195 20.88310 23.00950
#
# Poissons Ratio (x) = 0.09826 -0.02683
# Poissons Ratio (y) = 0.07172 0.97018
# Poissons Ratio (z) = -0.01777 0.88053
#
# Static dielectric constant tensor:
#      x y z
#    x 1.673260 0.000000 0.000000 
#    y 0.000000 1.639750 0.000000 
#    z 0.000000 0.000000 1.631720 
# 
# From -- ./inp_files/43435.got.cif
#   From: 2010.05.17/outbox.cif.g08.bks.cpg/sg67_22_cif.got.tgz:43435.got - 2010.06.03 18:28:57.
