data_PCOD9502055
_publ_section_title
;
Structure prediction by ZEFSAII (Michael W. Deem and Ramdas Pophale) SiO2 
 PCOD9502055
Probable space group: C M M A
;
_chemical_formula_sum "Si O2"
_cell_formula_units_Z 116
_cell_length_a 15.062936
_cell_length_b 27.658145
_cell_length_c 12.406817
_cell_angle_alpha 90.000000
_cell_angle_beta 90.000000
_cell_angle_gamma 90.000000
_cell_volume 5168.839613
_symmetry_space_group_name_H-M "C M M A"
_symmetry_group_IT_number 67
_symmetry_cell_setting 'orthorhombic'
loop_
_space_group_symop_operation_xyz
x,y,z
-x,1/2-y,z
x,-y,-z
-x,1/2+y,-z
-x,-y,-z
x,1/2+y,-z
-x,y,z
x,1/2-y,z
1/2+x,1/2+y,z
1/2-x,-y,z
1/2+x,1/2-y,-z
1/2-x,y,-z
1/2-x,1/2-y,-z
1/2+x,y,-z
1/2-x,1/2+y,z
1/2+x,-y,z
loop_
_atom_site_type_symbol
_atom_site_label
_atom_site_fract_x
_atom_site_fract_y
_atom_site_fract_z
Si Si1 0.000000 0.750000 0.664875
Si Si2 0.891719 0.999832 0.302771
Si Si3 0.641933 0.176191 0.745621
Si Si4 0.397307 0.350377 0.985913
Si Si5 0.892177 0.093637 0.411345
Si Si6 0.840173 0.803951 0.201883
Si Si7 0.891904 0.543999 0.922353
Si Si8 0.894170 0.392728 0.649373
O O1 0.922788 0.791696 0.674422
O O2 0.859143 0.944820 0.309929
O O3 0.000000 0.997383 0.297911
O O4 0.869918 0.037043 0.398330
O O5 0.861795 0.027196 0.194886
O O6 0.604076 0.172480 0.866946
O O7 0.646324 0.124609 0.686772
O O8 0.738837 0.197231 0.760889
O O9 0.500000 0.353263 0.022858
O O10 0.360811 0.404579 0.967777
O O11 0.347216 0.320372 0.077272
O O12 0.862329 0.113851 0.526659
O O13 0.000000 0.097133 0.402560
O O14 0.879457 0.750000 0.214951
O O15 0.879430 0.847422 0.273226
O O16 0.000000 0.548682 0.917395
O O17 0.870116 0.500000 0.000000
O O18 0.000000 0.398554 0.640860
#
# Coordination Sequence:
#
# PCOD9502055 Si02
#       8
#     4  16  16  16  16  16  16  16
#     4  12  24  44  74  98 120 164 228 286 338 384
#     4   9  16  32  63  98 132 168 218 273 322 383
#     4  12  24  44  68  98 124 159 222 287 337 386
#     4  11  22  39  67  95 130 171 216 265 323 397
#     4  10  19  38  68 100 129 166 221 280 330 389
#     4  12  28  44  61  90 135 180 218 273 334 397
#     4   9  16  28  54  93 129 166 209 257 311 376
#     4  10  22  41  64  97 136 179 223 264 327 401
#
# _framework density 22.442174999999999
#
# number of rings (size 3 to 8) (size 9 to 14) (size 15 to 20)
#    0.000    1.517    3.448    2.069    0.966    6.069 
#    1.241    1.379    0.000    2.483    0.000    0.000 
#    0.000    0.000    0.000    0.000    0.000    0.000 
#
# Total GULP energy -323580.784367 kJ/mol
# GULP energy per Si atom -5578.979041 kJ/mol
# Density = 2.239110 g / cm^3
# Si number density = 22.442175 Si / 1000 Ang^3
#
#
#
# Elastic Constant Matrix: (Units=GPa)
#
#
# Indices 1 2 3 4 5 6 
#
# 1 38.5669 7.0198 -7.7882 0.0000 0.0000 0.0000
# 2 7.0198 156.3602 58.7795 0.0000 0.0000 0.0000
# 3 -7.7882 58.7795 102.1716 0.0000 0.0000 0.0000
# 4 0.0000 0.0000 0.0000 -365.3282 0.0000 0.0000
# 5 0.0000 0.0000 0.0000 0.0000 2.5858 0.0000
# 6 0.0000 0.0000 0.0000 0.0000 0.0000 -18.5936
#
#
#
# Elastic Compliance Matrix: (Units=1/GPa)
#
#
# Indices 1 2 3 4 5 6 
#
# 1 0.027105 -0.002544 0.003529 0.000000 0.000000 0.000000
# 2 -0.002544 0.008399 -0.005026 0.000000 0.000000 0.000000
# 3 0.003529 -0.005026 0.012948 0.000000 0.000000 0.000000
# 4 0.000000 0.000000 0.000000 -0.002737 0.000000 0.000000
# 5 0.000000 0.000000 0.000000 0.000000 0.386734 0.000000
# 6 0.000000 0.000000 0.000000 0.000000 0.000000 -0.053782
#
#
# Mechanical properties :
#
#
# Convention : Reuss Voigt Hill
#
# Bulk Modulus (GPa) = 24.76997 45.90233 35.33615
# Shear Modulus (GPa) = 12.49364 -60.32804 -23.91720
#
# Velocity S-wave (km/s) = 2.36202 -5.19037 -3.26809
# Velocity P-wave (km/s) = 4.30117 3.92707 1.24060
#
# Compressibility (1/GPa) = 0.04037146
#
# Stress axis : x y z
#
# Youngs Moduli (GPa) = 36.89398 119.06129 77.23261
#
# Poissons Ratio (x) = 0.30285 -0.27259
# Poissons Ratio (y) = 0.09385 0.38816
# Poissons Ratio (z) = -0.13022 0.59839
#
# Static dielectric constant tensor:
#      x y z
#    x 1.871540 0.000000 0.000000 
#    y 0.000000 1.962670 0.000000 
#    z 0.000000 0.000000 1.829540 
# 
# From -- ./inp_files/19970.got.cif
#   From: 2010.05.17/outbox.cif.g08.bks.cpg/sg67_10_cif.got.tgz:19970.got - 2010.06.03 18:28:57.
