data_PCOD9502398
_publ_section_title
;
Structure prediction by ZEFSAII (Michael W. Deem and Ramdas Pophale) SiO2 
 PCOD9502398
Probable space group: C M M A
;
_chemical_formula_sum "Si O2"
_cell_formula_units_Z 112
_cell_length_a 24.768301
_cell_length_b 20.870971
_cell_length_c 11.861010
_cell_angle_alpha 90.000000
_cell_angle_beta 90.000000
_cell_angle_gamma 90.000000
_cell_volume 6131.412622
_symmetry_space_group_name_H-M "C M M A"
_symmetry_group_IT_number 67
_symmetry_cell_setting 'orthorhombic'
loop_
_space_group_symop_operation_xyz
x,y,z
-x,1/2-y,z
x,-y,-z
-x,1/2+y,-z
-x,-y,-z
x,1/2+y,-z
-x,y,z
x,1/2-y,z
1/2+x,1/2+y,z
1/2-x,-y,z
1/2+x,1/2-y,-z
1/2-x,y,-z
1/2-x,1/2-y,-z
1/2+x,y,-z
1/2-x,1/2+y,z
1/2+x,-y,z
loop_
_atom_site_type_symbol
_atom_site_label
_atom_site_fract_x
_atom_site_fract_y
_atom_site_fract_z
Si Si1 0.064453 0.631611 0.746622
Si Si2 0.163816 0.680107 0.135153
Si Si3 0.434853 0.323661 0.499999
Si Si4 0.250000 0.425358 0.137374
Si Si5 0.163814 0.180106 0.135154
Si Si6 0.435548 0.631614 0.746625
Si Si7 0.064725 0.000000 0.872234
O O1 0.079109 0.640232 0.615386
O O2 0.103681 0.676961 0.816399
O O3 0.076971 0.562485 0.799821
O O4 0.000000 0.643948 0.759143
O O5 0.187196 0.750000 0.165521
O O6 0.198951 0.618706 0.172639
O O7 0.103683 0.676963 0.183601
O O8 0.161949 0.676869 0.999999
O O9 0.500000 0.319926 0.500001
O O10 0.414671 0.250000 0.499999
O O11 0.420892 0.359767 0.384611
O O12 0.250000 0.500000 0.174609
O O13 0.198950 0.381294 0.172639
O O14 0.250000 0.427092 0.000000
O O15 0.187193 0.250000 0.165524
O O16 0.500000 0.643955 0.759146
O O17 0.423032 0.562488 0.799827
O O18 0.000000 0.999997 0.885183
O O19 0.088349 0.000000 0.000000
#
# Coordination Sequence:
#
# PCOD9502398 Si02
#       7
#    16  16  16  16  16  16  16
#     4  10  20  33  52  78 110 147 183 222 272 324
#     4  10  20  33  52  79 110 141 177 226 278 331
#     4   9  18  33  51  72 103 145 192 232 263 313
#     4   9  19  35  55  76 101 138 182 224 272 334
#     4  10  20  33  52  79 110 141 177 226 278 331
#     4  10  20  33  52  78 110 147 183 222 272 324
#     4   9  18  31  47  72 108 144 176 217 269 329
#
# _framework density 18.266590000000001
#
# number of rings (size 3 to 8) (size 9 to 14) (size 15 to 20)
#    0.000    2.429    0.000    2.143    2.000    5.714 
#    0.000    4.286    0.000    0.857    0.000    4.000 
#    0.000    0.000    0.000    0.000    0.000    0.000 
#
# Total GULP energy -311820.281211 kJ/mol
# GULP energy per Si atom -5568.219307 kJ/mol
# Density = 1.822501 g / cm^3
# Si number density = 18.266590 Si / 1000 Ang^3
#
#
#
# Elastic Constant Matrix: (Units=GPa)
#
#
# Indices 1 2 3 4 5 6 
#
# 1 77.8549 50.1905 16.7373 0.0000 0.0000 0.0000
# 2 50.1905 165.6720 77.4128 0.0000 0.0000 0.0000
# 3 16.7373 77.4128 70.3093 0.0000 0.0000 0.0000
# 4 0.0000 0.0000 0.0000 12.9454 0.0000 0.0000
# 5 0.0000 0.0000 0.0000 0.0000 6.2685 0.0000
# 6 0.0000 0.0000 0.0000 0.0000 0.0000 -4.6571
#
#
#
# Elastic Compliance Matrix: (Units=1/GPa)
#
#
# Indices 1 2 3 4 5 6 
#
# 1 0.016306 -0.006439 0.003207 0.000000 0.000000 0.000000
# 2 -0.006439 0.014974 -0.014954 0.000000 0.000000 0.000000
# 3 0.003207 -0.014954 0.029925 0.000000 0.000000 0.000000
# 4 0.000000 0.000000 0.000000 0.077248 0.000000 0.000000
# 5 0.000000 0.000000 0.000000 0.000000 0.159528 0.000000
# 6 0.000000 0.000000 0.000000 0.000000 0.000000 -0.214725
#
#
# Mechanical properties :
#
#
# Convention : Reuss Voigt Hill
#
# Bulk Modulus (GPa) = 40.26828 66.94639 53.60734
# Shear Modulus (GPa) = 39.09186 14.21105 26.65146
#
# Velocity S-wave (km/s) = 4.63111 2.79226 3.82387
# Velocity P-wave (km/s) = 7.11961 6.86475 6.99334
#
# Compressibility (1/GPa) = 0.02483344
#
# Stress axis : x y z
#
# Youngs Moduli (GPa) = 61.32873 66.78107 33.41719
#
# Poissons Ratio (x) = 0.42997 -0.10718
# Poissons Ratio (y) = 0.39487 0.49974
# Poissons Ratio (z) = -0.19671 0.99868
#
# Static dielectric constant tensor:
#      x y z
#    x 1.641670 0.000000 0.000000 
#    y 0.000000 1.846370 0.000000 
#    z 0.000000 0.000000 1.602220 
# 
# From -- ./inp_files/23135.got.cif
#   From: 2010.05.17/outbox.cif.g08.bks.cpg/sg67_12_cif.got.tgz:23135.got - 2010.06.03 18:28:57.
