data_PCOD9502223
_publ_section_title
;
Structure prediction by ZEFSAII (Michael W. Deem and Ramdas Pophale) SiO2 
 PCOD9502223
Probable space group: C M M A
;
_chemical_formula_sum "Si O2"
_cell_formula_units_Z 104
_cell_length_a 8.912399
_cell_length_b 21.313155
_cell_length_c 29.423064
_cell_angle_alpha 90.000000
_cell_angle_beta 90.000000
_cell_angle_gamma 90.000000
_cell_volume 5588.950472
_symmetry_space_group_name_H-M "C M M A"
_symmetry_group_IT_number 67
_symmetry_cell_setting 'orthorhombic'
loop_
_space_group_symop_operation_xyz
x,y,z
-x,1/2-y,z
x,-y,-z
-x,1/2+y,-z
-x,-y,-z
x,1/2+y,-z
-x,y,z
x,1/2-y,z
1/2+x,1/2+y,z
1/2-x,-y,z
1/2+x,1/2-y,-z
1/2-x,y,-z
1/2-x,1/2-y,-z
1/2+x,y,-z
1/2-x,1/2+y,z
1/2+x,-y,z
loop_
_atom_site_type_symbol
_atom_site_label
_atom_site_fract_x
_atom_site_fract_y
_atom_site_fract_z
Si Si1 0.321207 0.250000 0.049708
Si Si2 0.823016 0.679519 0.295224
Si Si3 0.323769 0.678827 0.814104
Si Si4 0.820966 0.069628 0.455295
Si Si5 0.819672 0.888744 0.050314
Si Si6 0.177455 0.061707 0.138162
Si Si7 0.178985 0.569616 0.646962
O O1 0.500000 0.250000 0.045671
O O2 0.281747 0.318069 0.068405
O O3 0.250000 0.250000 0.000000
O O4 0.770444 0.750000 0.308605
O O5 0.811340 0.676011 0.240523
O O6 0.739382 0.621865 0.318632
O O7 0.000000 0.675255 0.306262
O O8 0.500000 0.669605 0.826370
O O9 0.283218 0.750000 0.828339
O O10 0.226556 0.623976 0.835362
O O11 0.750000 0.101423 0.500000
O O12 0.788183 0.093793 0.404595
O O13 0.000000 0.065817 0.460940
O O14 0.750000 0.000000 0.454128
O O15 0.746903 0.932432 0.087771
O O16 0.000000 0.895655 0.048064
O O17 0.750000 0.896323 0.000000
O O18 0.000000 0.055771 0.135981
O O19 0.250000 0.000000 0.160279
O O20 0.250000 0.500000 0.653039
O O21 0.000000 0.562905 0.651080
#
# Coordination Sequence:
#
# PCOD9502223 Si02
#       7
#     8  16  16  16  16  16  16
#     4   8  16  30  52  80 110 142 176 216 262 306
#     4   9  19  37  60  84 110 143 182 224 276 336
#     4   9  20  41  66  88 112 144 182 226 277 333
#     4   9  16  26  42  67 100 139 182 227 276 325
#     4  10  20  37  59  86 117 152 188 227 273 322
#     4  12  26  42  60  86 117 152 190 229 275 328
#     4  10  20  32  50  79 112 146 185 231 280 331
#
# _framework density 18.608143999999999
#
# number of rings (size 3 to 8) (size 9 to 14) (size 15 to 20)
#    0.000    2.308    0.000    4.154    1.077    4.615 
#    0.000    3.077    0.000    0.462    0.000    0.000 
#    0.000    0.000    0.000    0.000    0.000    0.000 
#
# Total GULP energy -289966.981638 kJ/mol
# GULP energy per Si atom -5576.288108 kJ/mol
# Density = 1.856579 g / cm^3
# Si number density = 18.608144 Si / 1000 Ang^3
#
#
#
# Elastic Constant Matrix: (Units=GPa)
#
#
# Indices 1 2 3 4 5 6 
#
# 1 88.1381 58.0282 38.7627 0.0000 0.0000 0.0000
# 2 58.0282 119.9530 42.0082 0.0000 0.0000 0.0000
# 3 38.7627 42.0082 55.0998 0.0000 0.0000 0.0000
# 4 0.0000 0.0000 0.0000 16.1516 0.0000 0.0000
# 5 0.0000 0.0000 0.0000 0.0000 32.4041 0.0000
# 6 0.0000 0.0000 0.0000 0.0000 0.0000 25.9600
#
#
#
# Elastic Compliance Matrix: (Units=1/GPa)
#
#
# Indices 1 2 3 4 5 6 
#
# 1 0.019362 -0.006271 -0.008841 0.000000 0.000000 0.000000
# 2 -0.006271 0.013404 -0.005808 0.000000 0.000000 0.000000
# 3 -0.008841 -0.005808 0.028796 0.000000 0.000000 0.000000
# 4 0.000000 0.000000 0.000000 0.061914 0.000000 0.000000
# 5 0.000000 0.000000 0.000000 0.000000 0.030860 0.000000
# 6 0.000000 0.000000 0.000000 0.000000 0.000000 0.038521
#
#
# Mechanical properties :
#
#
# Convention : Reuss Voigt Hill
#
# Bulk Modulus (GPa) = 50.69897 60.08769 55.39333
# Shear Modulus (GPa) = 20.72364 23.19593 21.95978
#
# Velocity S-wave (km/s) = 3.34081 3.53448 3.43901
# Velocity P-wave (km/s) = 6.49508 7.00128 6.75293
#
# Compressibility (1/GPa) = 0.01972426
#
# Stress axis : x y z
#
# Youngs Moduli (GPa) = 51.64653 74.60448 34.72675
#
# Poissons Ratio (x) = 0.46782 0.30701
# Poissons Ratio (y) = 0.32386 0.20169
# Poissons Ratio (z) = 0.45659 0.43329
#
# Static dielectric constant tensor:
#      x y z
#    x 1.635590 0.000000 0.000000 
#    y 0.000000 1.666070 0.000000 
#    z 0.000000 0.000000 1.674720 
# 
# From -- ./inp_files/43583.got.cif
#   From: 2010.05.17/outbox.cif.g08.bks.cpg/sg67_22_cif.got.tgz:43583.got - 2010.06.03 18:28:57.
