data_PCOD9502702
_publ_section_title
;
Structure prediction by ZEFSAII (Michael W. Deem and Ramdas Pophale) SiO2 
 PCOD9502702
Probable space group: C M M A
;
_chemical_formula_sum "Si O2"
_cell_formula_units_Z 116
_cell_length_a 26.699699
_cell_length_b 9.121747
_cell_length_c 23.717570
_cell_angle_alpha 90.000000
_cell_angle_beta 90.000000
_cell_angle_gamma 90.000000
_cell_volume 5776.364349
_symmetry_space_group_name_H-M "C M M A"
_symmetry_group_IT_number 67
_symmetry_cell_setting 'orthorhombic'
loop_
_space_group_symop_operation_xyz
x,y,z
-x,1/2-y,z
x,-y,-z
-x,1/2+y,-z
-x,-y,-z
x,1/2+y,-z
-x,y,z
x,1/2-y,z
1/2+x,1/2+y,z
1/2-x,-y,z
1/2+x,1/2-y,-z
1/2-x,y,-z
1/2-x,1/2-y,-z
1/2+x,y,-z
1/2-x,1/2+y,z
1/2+x,-y,z
loop_
_atom_site_type_symbol
_atom_site_label
_atom_site_fract_x
_atom_site_fract_y
_atom_site_fract_z
Si Si1 0.558499 0.580642 0.888289
Si Si2 0.557462 0.579395 0.232138
Si Si3 0.853628 0.075171 0.057450
Si Si4 0.591907 0.088148 0.446084
Si Si5 0.197663 0.925993 0.392342
Si Si6 0.500000 0.750000 0.601767
Si Si7 0.356012 0.582308 0.719160
Si Si8 0.699252 0.580682 0.837983
O O1 0.500000 0.579877 0.902533
O O2 0.576652 0.750000 0.888968
O O3 0.563061 0.514747 0.825294
O O4 0.590103 0.480913 0.930284
O O5 0.500000 0.563046 0.250550
O O6 0.566807 0.750000 0.218781
O O7 0.596043 0.521294 0.278140
O O8 0.850511 0.250000 0.054653
O O9 0.824446 0.009243 0.110746
O O10 0.835524 0.000000 0.000000
O O11 0.605693 0.250000 0.468043
O O12 0.644691 0.029068 0.421561
O O13 0.545483 0.123514 0.404313
O O14 0.573759 0.000000 0.500000
O O15 0.202987 0.750000 0.398279
O O16 0.185550 0.958773 0.326596
O O17 0.250000 0.000000 0.410101
O O18 0.371636 0.750000 0.706116
O O19 0.333895 0.578743 0.781887
O O20 0.706986 0.750000 0.854579
O O21 0.750000 0.500000 0.822976
#
# Coordination Sequence:
#
# PCOD9502702 Si02
#       8
#    16  16  16  16  16   4  16  16
#     4  10  20  36  59  85 115 149 186 231 286 352
#     4  10  20  34  55  84 118 153 195 243 296 360
#     4  12  25  41  61  85 115 149 188 240 296 361
#     4   9  19  36  62  91 125 168 218 267 327 373
#     4  10  22  40  59  90 128 168 215 264 319 381
#     4   8  18  36  66  90 130 168 222 282 312 388
#     4  10  21  38  60  86 118 158 204 249 304 369
#     4  11  23  40  62  86 111 144 191 240 297 366
#
# _framework density 20.081835999999999
#
# number of rings (size 3 to 8) (size 9 to 14) (size 15 to 20)
#    0.414    1.379    1.379    3.103    0.000    4.138 
#    1.241    2.759    0.000    0.000    0.000    0.000 
#    0.000    0.000    0.000    0.000    0.000    0.000 
#
# Total GULP energy -322908.015537 kJ/mol
# GULP energy per Si atom -5567.379578 kJ/mol
# Density = 2.003613 g / cm^3
# Si number density = 20.081836 Si / 1000 Ang^3
#
#
#
# Elastic Constant Matrix: (Units=GPa)
#
#
# Indices 1 2 3 4 5 6 
#
# 1 87.7361 37.2269 13.3676 0.0000 0.0000 0.0000
# 2 37.2269 108.3577 13.9544 0.0000 0.0000 0.0000
# 3 13.3676 13.9544 24.9388 0.0000 0.0000 0.0000
# 4 0.0000 0.0000 0.0000 14.7902 0.0000 0.0000
# 5 0.0000 0.0000 0.0000 0.0000 7.3795 0.0000
# 6 0.0000 0.0000 0.0000 0.0000 0.0000 37.3404
#
#
#
# Elastic Compliance Matrix: (Units=1/GPa)
#
#
# Indices 1 2 3 4 5 6 
#
# 1 0.013933 -0.004122 -0.005162 0.000000 0.000000 0.000000
# 2 -0.004122 0.011165 -0.004038 0.000000 0.000000 0.000000
# 3 -0.005162 -0.004038 0.045124 0.000000 0.000000 0.000000
# 4 0.000000 0.000000 0.000000 0.067612 0.000000 0.000000
# 5 0.000000 0.000000 0.000000 0.000000 0.135511 0.000000
# 6 0.000000 0.000000 0.000000 0.000000 0.000000 0.026781
#
#
# Mechanical properties :
#
#
# Convention : Reuss Voigt Hill
#
# Bulk Modulus (GPa) = 22.94687 38.90338 30.92513
# Shear Modulus (GPa) = 14.65003 22.33426 18.49214
#
# Velocity S-wave (km/s) = 2.70389 3.33853 3.03783
# Velocity P-wave (km/s) = 4.60429 5.85453 5.26664
#
# Compressibility (1/GPa) = 0.04357893
#
# Stress axis : x y z
#
# Youngs Moduli (GPa) = 71.77031 89.56680 22.16095
#
# Poissons Ratio (x) = 0.36920 0.11440
# Poissons Ratio (y) = 0.29585 0.08948
# Poissons Ratio (z) = 0.37048 0.36165
#
# Static dielectric constant tensor:
#      x y z
#    x 1.775550 0.000000 0.000000 
#    y 0.000000 1.717050 0.000000 
#    z 0.000000 0.000000 1.737930 
# 
# From -- ./inp_files/42831.got.cif
#   From: 2010.05.17/outbox.cif.g08.bks.cpg/sg67_22_cif.got.tgz:42831.got - 2010.06.03 18:28:57.
