data_PCOD9502918
_publ_section_title
;
Structure prediction by ZEFSAII (Michael W. Deem and Ramdas Pophale) SiO2 
 PCOD9502918
Probable space group: C M M A
;
_chemical_formula_sum "Si O2"
_cell_formula_units_Z 88
_cell_length_a 22.343433
_cell_length_b 8.812744
_cell_length_c 24.329495
_cell_angle_alpha 90.000000
_cell_angle_beta 90.000000
_cell_angle_gamma 90.000000
_cell_volume 4790.646780
_symmetry_space_group_name_H-M "C M M A"
_symmetry_group_IT_number 67
_symmetry_cell_setting 'orthorhombic'
loop_
_space_group_symop_operation_xyz
x,y,z
-x,1/2-y,z
x,-y,-z
-x,1/2+y,-z
-x,-y,-z
x,1/2+y,-z
-x,y,z
x,1/2-y,z
1/2+x,1/2+y,z
1/2-x,-y,z
1/2+x,1/2-y,-z
1/2-x,y,-z
1/2-x,1/2-y,-z
1/2+x,y,-z
1/2-x,1/2+y,z
1/2+x,-y,z
loop_
_atom_site_type_symbol
_atom_site_label
_atom_site_fract_x
_atom_site_fract_y
_atom_site_fract_z
Si Si1 0.686089 0.575709 0.551421
Si Si2 0.570293 0.068139 0.124582
Si Si3 0.096268 0.926416 0.357023
Si Si4 0.928688 0.423777 0.243189
Si Si5 0.500000 0.430713 0.561317
Si Si6 0.685998 0.066340 0.938237
O O1 0.651592 0.500000 0.500000
O O2 0.690388 0.750000 0.536481
O O3 0.750000 0.500000 0.554190
O O4 0.658311 0.566124 0.611228
O O5 0.500000 0.025014 0.110719
O O6 0.574421 0.250000 0.118042
O O7 0.580000 0.019911 0.187973
O O8 0.624810 0.989227 0.091588
O O9 0.077456 0.750000 0.352039
O O10 0.097871 0.002257 0.297732
O O11 0.054236 0.012340 0.400440
O O12 0.908361 0.250000 0.235061
O O13 0.000000 0.420240 0.253170
O O14 0.500000 0.250000 0.556483
O O15 0.500000 0.500000 0.500000
O O16 0.688686 0.250000 0.938454
O O17 0.750000 0.000000 0.915703
O O18 0.682332 0.000000 0.000000
#
# Coordination Sequence:
#
# PCOD9502918 Si02
#       6
#    16  16  16  16   8  16
#     4  10  21  36  55  76  99 133 173 219 272 331
#     4  10  21  38  61  89 122 161 205 253 301 353
#     4  11  22  36  55  79 107 140 179 224 276 335
#     4  10  20  35  56  83 113 149 191 234 285 340
#     4  12  24  36  52  78 108 140 175 220 277 336
#     4  11  22  39  63  91 126 165 206 251 303 364
#
# _framework density 18.369128
#
# number of rings (size 3 to 8) (size 9 to 14) (size 15 to 20)
#    0.000    1.455    0.909    6.273    0.000    6.545 
#    0.000    0.909    0.000    2.182    0.000    0.000 
#    0.000    0.000    0.000    0.000    0.000    0.000 
#
# Total GULP energy -245297.834951 kJ/mol
# GULP energy per Si atom -5574.950794 kJ/mol
# Density = 1.832732 g / cm^3
# Si number density = 18.369128 Si / 1000 Ang^3
#
#
#
# Elastic Constant Matrix: (Units=GPa)
#
#
# Indices 1 2 3 4 5 6 
#
# 1 100.4961 56.6196 55.7525 0.0000 0.0000 0.0000
# 2 56.6196 144.2067 44.1810 0.0000 0.0000 0.0000
# 3 55.7525 44.1810 92.9811 0.0000 0.0000 0.0000
# 4 0.0000 0.0000 0.0000 30.5391 0.0000 0.0000
# 5 0.0000 0.0000 0.0000 0.0000 73.1740 0.0000
# 6 0.0000 0.0000 0.0000 0.0000 0.0000 20.5051
#
#
#
# Elastic Compliance Matrix: (Units=1/GPa)
#
#
# Indices 1 2 3 4 5 6 
#
# 1 0.016751 -0.004096 -0.008098 0.000000 0.000000 0.000000
# 2 -0.004096 0.009118 -0.001876 0.000000 0.000000 0.000000
# 3 -0.008098 -0.001876 0.016502 0.000000 0.000000 0.000000
# 4 0.000000 0.000000 0.000000 0.032745 0.000000 0.000000
# 5 0.000000 0.000000 0.000000 0.000000 0.013666 0.000000
# 6 0.000000 0.000000 0.000000 0.000000 0.000000 0.048768
#
#
# Mechanical properties :
#
#
# Convention : Reuss Voigt Hill
#
# Bulk Modulus (GPa) = 70.27283 72.31002 71.29143
# Shear Modulus (GPa) = 29.33713 36.91903 33.12808
#
# Velocity S-wave (km/s) = 4.00070 4.48799 4.25133
# Velocity P-wave (km/s) = 7.72527 8.14288 7.93682
#
# Compressibility (1/GPa) = 0.01423025
#
# Stress axis : x y z
#
# Youngs Moduli (GPa) = 59.69938 109.67918 60.59907
#
# Poissons Ratio (x) = 0.44923 0.49071
# Poissons Ratio (y) = 0.24452 0.11371
# Poissons Ratio (z) = 0.48343 0.20580
#
# Static dielectric constant tensor:
#      x y z
#    x 1.683580 0.000000 0.000000 
#    y 0.000000 1.644630 0.000000 
#    z 0.000000 0.000000 1.622400 
# 
# From -- ./inp_files/39588.got.cif
#   From: 2010.05.17/outbox.cif.g08.bks.cpg/sg67_20_cif.got.tgz:39588.got - 2010.06.03 18:28:57.
