data_PCOD9502621
_publ_section_title
;
Structure prediction by ZEFSAII (Michael W. Deem and Ramdas Pophale) SiO2 
 PCOD9502621
Probable space group: C M M A
;
_chemical_formula_sum "Si O2"
_cell_formula_units_Z 68
_cell_length_a 25.907727
_cell_length_b 8.052669
_cell_length_c 14.737866
_cell_angle_alpha 90.000000
_cell_angle_beta 90.000000
_cell_angle_gamma 90.000000
_cell_volume 3074.707191
_symmetry_space_group_name_H-M "C M M A"
_symmetry_group_IT_number 67
_symmetry_cell_setting 'orthorhombic'
loop_
_space_group_symop_operation_xyz
x,y,z
-x,1/2-y,z
x,-y,-z
-x,1/2+y,-z
-x,-y,-z
x,1/2+y,-z
-x,y,z
x,1/2-y,z
1/2+x,1/2+y,z
1/2-x,-y,z
1/2+x,1/2-y,-z
1/2-x,y,-z
1/2-x,1/2-y,-z
1/2+x,y,-z
1/2-x,1/2+y,z
1/2+x,-y,z
loop_
_atom_site_type_symbol
_atom_site_label
_atom_site_fract_x
_atom_site_fract_y
_atom_site_fract_z
Si Si1 0.917777 0.548821 0.846643
Si Si2 0.332868 0.052041 0.404124
Si Si3 0.194451 0.053548 0.202701
Si Si4 0.055444 0.950617 0.357229
Si Si5 0.500000 0.000000 0.000000
O O1 0.920566 0.750000 0.856989
O O2 0.857894 0.490687 0.845731
O O3 0.938931 0.501149 0.747758
O O4 0.954694 0.475798 0.922640
O O5 0.333172 0.250000 0.400684
O O6 0.392026 0.985516 0.402036
O O7 0.309290 0.000000 0.500000
O O8 0.308794 0.993346 0.309423
O O9 0.191604 0.250000 0.197518
O O10 0.250000 0.000000 0.166106
O O11 0.055778 0.750000 0.363372
O O12 0.000000 0.012361 0.391578
#
# Coordination Sequence:
#
# PCOD9502621 Si02
#       5
#    16  16  16  16   4
#     4  10  22  38  59  88 119 153 193 236 286 348
#     4  10  20  34  53  82 117 154 199 246 292 340
#     4  10  21  40  63  86 115 154 198 243 293 345
#     4   9  18  33  53  78 113 155 195 239 290 345
#     4  12  22  36  62  94 124 148 180 232 288 340
#
# _framework density 22.115929000000001
#
# number of rings (size 3 to 8) (size 9 to 14) (size 15 to 20)
#    0.000    2.118    1.176    1.765    0.000    4.706 
#    0.000    2.941    0.000    2.824    0.000    0.000 
#    0.000    0.000    0.000    0.000    0.000    0.000 
#
# Total GULP energy -189294.659694 kJ/mol
# GULP energy per Si atom -5567.489991 kJ/mol
# Density = 2.206559 g / cm^3
# Si number density = 22.115929 Si / 1000 Ang^3
#
#
#
# Elastic Constant Matrix: (Units=GPa)
#
#
# Indices 1 2 3 4 5 6 
#
# 1 214.6664 14.8019 46.1047 0.0000 0.0000 0.0000
# 2 14.8019 22.9957 -12.9647 0.0000 0.0000 0.0000
# 3 46.1047 -12.9647 106.1455 0.0000 0.0000 0.0000
# 4 0.0000 0.0000 0.0000 635.8125 0.0000 0.0000
# 5 0.0000 0.0000 0.0000 0.0000 12.6468 0.0000
# 6 0.0000 0.0000 0.0000 0.0000 0.0000 -953.9623
#
#
#
# Elastic Compliance Matrix: (Units=1/GPa)
#
#
# Indices 1 2 3 4 5 6 
#
# 1 0.005710 -0.005449 -0.003146 0.000000 0.000000 0.000000
# 2 -0.005449 0.051902 0.008706 0.000000 0.000000 0.000000
# 3 -0.003146 0.008706 0.011851 0.000000 0.000000 0.000000
# 4 0.000000 0.000000 0.000000 0.001573 0.000000 0.000000
# 5 0.000000 0.000000 0.000000 0.000000 0.079071 0.000000
# 6 0.000000 0.000000 0.000000 0.000000 0.000000 -0.001048
#
#
# Mechanical properties :
#
#
# Convention : Reuss Voigt Hill
#
# Bulk Modulus (GPa) = 14.35008 48.85457 31.60233
# Shear Modulus (GPa) = 29.05915 -41.37621 -6.15853
#
# Velocity S-wave (km/s) = 3.62877 -4.33006 -1.67054
# Velocity P-wave (km/s) = 4.90510 1.69146 3.25568
#
# Compressibility (1/GPa) = 0.06968602
#
# Stress axis : x y z
#
# Youngs Moduli (GPa) = 175.14176 19.26710 84.38353
#
# Poissons Ratio (x) = 0.10498 0.26543
# Poissons Ratio (y) = 0.95428 -0.73464
# Poissons Ratio (z) = 0.55091 -0.16774
#
# Static dielectric constant tensor:
#      x y z
#    x 1.887940 0.000000 0.000000 
#    y 0.000000 1.780050 0.000000 
#    z 0.000000 0.000000 1.714970 
# 
# From -- ./inp_files/30482.got.cif
#   From: 2010.05.17/outbox.cif.g08.bks.cpg/sg67_16_cif.got.tgz:30482.got - 2010.06.03 18:28:57.
