data_PCOD9502315
_publ_section_title
;
Structure prediction by ZEFSAII (Michael W. Deem and Ramdas Pophale) SiO2 
 PCOD9502315
Probable space group: C M M A
;
_chemical_formula_sum "Si O2"
_cell_formula_units_Z 116
_cell_length_a 8.863079
_cell_length_b 25.878261
_cell_length_c 26.203081
_cell_angle_alpha 90.000000
_cell_angle_beta 90.000000
_cell_angle_gamma 90.000000
_cell_volume 6009.966738
_symmetry_space_group_name_H-M "C M M A"
_symmetry_group_IT_number 67
_symmetry_cell_setting 'orthorhombic'
loop_
_space_group_symop_operation_xyz
x,y,z
-x,1/2-y,z
x,-y,-z
-x,1/2+y,-z
-x,-y,-z
x,1/2+y,-z
-x,y,z
x,1/2-y,z
1/2+x,1/2+y,z
1/2-x,-y,z
1/2+x,1/2-y,-z
1/2-x,y,-z
1/2-x,1/2-y,-z
1/2+x,y,-z
1/2-x,1/2+y,z
1/2+x,-y,z
loop_
_atom_site_type_symbol
_atom_site_label
_atom_site_fract_x
_atom_site_fract_y
_atom_site_fract_z
Si Si1 0.820213 0.164577 0.843414
Si Si2 0.818432 0.087754 0.698331
Si Si3 0.500000 0.250000 0.404678
Si Si4 0.819513 0.807887 0.735597
Si Si5 0.830864 0.688687 0.949550
Si Si6 0.678475 0.551413 0.810513
Si Si7 0.667503 0.343013 0.450351
Si Si8 0.179840 0.445919 0.406635
O O1 0.735541 0.188480 0.794560
O O2 0.763682 0.183012 0.897915
O O3 0.787044 0.103565 0.840308
O O4 0.000000 0.172819 0.837065
O O5 0.766368 0.147197 0.705208
O O6 0.774306 0.061366 0.751895
O O7 0.735124 0.060973 0.651763
O O8 0.000000 0.085647 0.691762
O O9 0.630093 0.296582 0.411152
O O10 0.784783 0.750000 0.716976
O O11 0.000000 0.816024 0.733349
O O12 0.845171 0.750000 0.957840
O O13 0.000000 0.667450 0.943096
O O14 0.750000 0.666877 0.000000
O O15 0.500000 0.545341 0.809586
O O16 0.750000 0.500000 0.831671
O O17 0.500000 0.361822 0.465724
O O18 0.750000 0.320848 0.500000
O O19 0.757808 0.393216 0.431909
O O20 0.250000 0.500000 0.426364
O O21 0.000000 0.448312 0.409839
#
# Coordination Sequence:
#
# PCOD9502315 Si02
#       8
#    16  16   4  16  16  16  16  16
#     4  10  20  33  50  74 104 137 175 220 272 329
#     4  10  21  38  57  81 113 151 195 237 291 349
#     4   8  22  40  74  94 134 160 206 250 302 364
#     4  10  20  34  52  77 110 146 189 237 284 340
#     4  10  20  33  50  74 102 133 170 210 258 318
#     4   9  19  33  52  77 102 133 175 220 267 321
#     4  10  21  41  67  99 126 161 203 248 303 357
#     4  12  25  42  63  91 127 165 206 254 305 362
#
# _framework density 19.301272000000001
#
# number of rings (size 3 to 8) (size 9 to 14) (size 15 to 20)
#    0.414    1.517    0.000    5.172    0.000    8.276 
#    1.241    1.379    0.000    0.414    0.000    2.897 
#    0.000    0.000    0.000    0.000    0.000    0.000 
#
# Total GULP energy -323019.989205 kJ/mol
# GULP energy per Si atom -5569.310159 kJ/mol
# Density = 1.925734 g / cm^3
# Si number density = 19.301272 Si / 1000 Ang^3
#
#
#
# Elastic Constant Matrix: (Units=GPa)
#
#
# Indices 1 2 3 4 5 6 
#
# 1 85.8915 34.6690 5.9122 0.0000 0.0000 0.0000
# 2 34.6690 103.4886 1.7860 0.0000 0.0000 0.0000
# 3 5.9122 1.7860 29.3204 0.0000 0.0000 0.0000
# 4 0.0000 0.0000 0.0000-1259.9980 0.0000 0.0000
# 5 0.0000 0.0000 0.0000 0.0000 18.8270 0.0000
# 6 0.0000 0.0000 0.0000 0.0000 0.0000 32.8204
#
#
#
# Elastic Compliance Matrix: (Units=1/GPa)
#
#
# Indices 1 2 3 4 5 6 
#
# 1 0.013640 -0.004527 -0.002475 0.000000 0.000000 0.000000
# 2 -0.004527 0.011175 0.000232 0.000000 0.000000 0.000000
# 3 -0.002475 0.000232 0.034591 0.000000 0.000000 0.000000
# 4 0.000000 0.000000 0.000000 -0.000794 0.000000 0.000000
# 5 0.000000 0.000000 0.000000 0.000000 0.053115 0.000000
# 6 0.000000 0.000000 0.000000 0.000000 0.000000 0.030469
#
#
# Mechanical properties :
#
#
# Convention : Reuss Voigt Hill
#
# Bulk Modulus (GPa) = 21.80190 33.71500 27.75845
# Shear Modulus (GPa) = 29.23556 -229.91456 -100.33950
#
# Velocity S-wave (km/s) = 3.89613 -10.92600 -7.21795
# Velocity P-wave (km/s) = 5.61782 11.90228 7.41972
#
# Compressibility (1/GPa) = 0.04586756
#
# Stress axis : x y z
#
# Youngs Moduli (GPa) = 73.31323 89.48246 28.90937
#
# Poissons Ratio (x) = 0.40507 0.07154
# Poissons Ratio (y) = 0.33187 -0.00671
# Poissons Ratio (z) = 0.18143 -0.02076
#
# Static dielectric constant tensor:
#      x y z
#    x 1.681470 0.000000 0.000000 
#    y 0.000000 1.651700 0.000000 
#    z 0.000000 0.000000 1.679390 
# 
# From -- ./inp_files/43932.got.cif
#   From: 2010.05.17/outbox.cif.g08.bks.cpg/sg67_22_cif.got.tgz:43932.got - 2010.06.03 18:28:57.
