data_PCOD9502985
_publ_section_title
;
Structure prediction by ZEFSAII (Michael W. Deem and Ramdas Pophale) SiO2 
 PCOD9502985
Probable space group: C M M A
;
_chemical_formula_sum "Si O2"
_cell_formula_units_Z 80
_cell_length_a 20.597968
_cell_length_b 20.979255
_cell_length_c 9.106181
_cell_angle_alpha 90.000000
_cell_angle_beta 90.000000
_cell_angle_gamma 90.000000
_cell_volume 3935.054206
_symmetry_space_group_name_H-M "C M M A"
_symmetry_group_IT_number 67
_symmetry_cell_setting 'orthorhombic'
loop_
_space_group_symop_operation_xyz
x,y,z
-x,1/2-y,z
x,-y,-z
-x,1/2+y,-z
-x,-y,-z
x,1/2+y,-z
-x,y,z
x,1/2-y,z
1/2+x,1/2+y,z
1/2-x,-y,z
1/2+x,1/2-y,-z
1/2-x,y,-z
1/2-x,1/2-y,-z
1/2+x,y,-z
1/2-x,1/2+y,z
1/2+x,-y,z
loop_
_atom_site_type_symbol
_atom_site_label
_atom_site_fract_x
_atom_site_fract_y
_atom_site_fract_z
Si Si1 0.000000 0.436386 0.695114
Si Si2 0.140248 0.093741 0.318970
Si Si3 0.000000 0.589534 0.641627
Si Si4 0.766951 0.858872 0.153553
Si Si5 0.871513 0.034408 0.845607
Si Si6 0.676702 0.817724 0.560260
O O1 0.000000 0.512907 0.664819
O O2 0.000000 0.402524 0.535866
O O3 0.934028 0.426503 0.787592
O O4 0.066276 0.113786 0.286124
O O5 0.198095 0.126260 0.229819
O O6 0.149151 0.118380 0.485975
O O7 0.143990 0.019333 0.277868
O O8 0.807861 0.923448 0.126435
O O9 0.813001 0.822664 0.266900
O O10 0.750000 0.827497 0.000000
O O11 0.888138 0.000000 0.000000
O O12 0.644313 0.750000 0.519413
O O13 0.750000 0.815023 0.500000
#
# Coordination Sequence:
#
# PCOD9502985 Si02
#       6
#     8  16   8  16  16  16
#     4   9  19  32  50  76 113 154 188 219 282 349
#     4  10  20  35  58  79 114 151 186 239 286 339
#     4   9  18  34  51  80 108 145 196 231 273 354
#     4  11  21  34  55  86 119 151 189 236 293 341
#     4  11  20  33  54  82 120 149 185 232 287 359
#     4   9  20  38  57  79 106 144 197 238 279 337
#
# _framework density 20.330089000000001
#
# number of rings (size 3 to 8) (size 9 to 14) (size 15 to 20)
#    0.000    2.000    2.000    2.100    0.000    2.800 
#    0.000    7.500    0.000    0.000    0.000    0.000 
#    0.000    0.000    0.000    0.000    0.000    0.000 
#
# Total GULP energy -222731.693795 kJ/mol
# GULP energy per Si atom -5568.292345 kJ/mol
# Density = 2.028382 g / cm^3
# Si number density = 20.330089 Si / 1000 Ang^3
#
#
#
# Elastic Constant Matrix: (Units=GPa)
#
#
# Indices 1 2 3 4 5 6 
#
# 1 116.3138 5.2635 22.3362 0.0000 0.0000 0.0000
# 2 5.2635 48.4526 24.4823 0.0000 0.0000 0.0000
# 3 22.3362 24.4823 95.0628 0.0000 0.0000 0.0000
# 4 0.0000 0.0000 0.0000 3.4805 0.0000 0.0000
# 5 0.0000 0.0000 0.0000 0.0000 29.9244 0.0000
# 6 0.0000 0.0000 0.0000 0.0000 0.0000 -0.2621
#
#
#
# Elastic Compliance Matrix: (Units=1/GPa)
#
#
# Indices 1 2 3 4 5 6 
#
# 1 0.009004 0.000104 -0.002143 0.000000 0.000000 0.000000
# 2 0.000104 0.023727 -0.006135 0.000000 0.000000 0.000000
# 3 -0.002143 -0.006135 0.012603 0.000000 0.000000 0.000000
# 4 0.000000 0.000000 0.000000 0.287313 0.000000 0.000000
# 5 0.000000 0.000000 0.000000 0.000000 0.033418 0.000000
# 6 0.000000 0.000000 0.000000 0.000000 0.000000 -3.815677
#
#
# Mechanical properties :
#
#
# Convention : Reuss Voigt Hill
#
# Bulk Modulus (GPa) = 34.49735 40.44368 37.47051
# Shear Modulus (GPa) = -1.46045 20.47838 9.50896
#
# Velocity S-wave (km/s) = -0.84849 3.17723 2.16505
# Velocity P-wave (km/s) = 4.00569 5.77897 4.97202
#
# Compressibility (1/GPa) = 0.02898773
#
# Stress axis : x y z
#
# Youngs Moduli (GPa) = 111.05993 42.14528 79.34716
#
# Poissons Ratio (x) = -0.00440 0.17000
# Poissons Ratio (y) = -0.01160 0.48682
# Poissons Ratio (z) = 0.23795 0.25857
#
# Static dielectric constant tensor:
#      x y z
#    x 1.731420 0.000000 0.000000 
#    y 0.000000 1.756150 0.000000 
#    z 0.000000 0.000000 1.796270 
# 
# From -- ./inp_files/11121.got.cif
#   From: 2010.05.17/outbox.cif.g08.bks.cpg/sg67_6_cif.got.tgz:11121.got - 2010.06.03 18:28:57.
