data_PCOD9502559
_publ_section_title
;
Structure prediction by ZEFSAII (Michael W. Deem and Ramdas Pophale) SiO2 
 PCOD9502559
Probable space group: C M M A
;
_chemical_formula_sum "Si O2"
_cell_formula_units_Z 120
_cell_length_a 8.743338
_cell_length_b 27.864295
_cell_length_c 25.773397
_cell_angle_alpha 90.000000
_cell_angle_beta 90.000000
_cell_angle_gamma 90.000000
_cell_volume 6279.094085
_symmetry_space_group_name_H-M "C M M A"
_symmetry_group_IT_number 67
_symmetry_cell_setting 'orthorhombic'
loop_
_space_group_symop_operation_xyz
x,y,z
-x,1/2-y,z
x,-y,-z
-x,1/2+y,-z
-x,-y,-z
x,1/2+y,-z
-x,y,z
x,1/2-y,z
1/2+x,1/2+y,z
1/2-x,-y,z
1/2+x,1/2-y,-z
1/2-x,y,-z
1/2-x,1/2-y,-z
1/2+x,y,-z
1/2-x,1/2+y,z
1/2+x,-y,z
loop_
_atom_site_type_symbol
_atom_site_label
_atom_site_fract_x
_atom_site_fract_y
_atom_site_fract_z
Si Si1 0.173441 0.805355 0.828927
Si Si2 0.681975 0.653082 0.610434
Si Si3 0.316946 0.948104 0.247481
Si Si4 0.318886 0.553228 0.052494
Si Si5 0.816032 0.750000 0.557877
Si Si6 0.326920 0.694632 0.721351
Si Si7 0.316723 0.447460 0.629601
Si Si8 0.323556 0.896653 0.849117
O O1 0.190733 0.750000 0.843612
O O2 0.206760 0.808453 0.767378
O O3 0.294177 0.840221 0.854788
O O4 0.000000 0.821056 0.839651
O O5 0.500000 0.653383 0.599695
O O6 0.757109 0.699896 0.583550
O O7 0.704171 0.662545 0.671848
O O8 0.750037 0.599797 0.600842
O O9 0.500000 0.946854 0.241658
O O10 0.281104 0.941652 0.308554
O O11 0.240500 0.911634 0.207337
O O12 0.250000 0.000000 0.232790
O O13 0.500000 0.550953 0.047827
O O14 0.250000 0.500000 0.055200
O O15 0.269864 0.578424 0.105315
O O16 0.250000 0.576140 0.000000
O O17 0.750000 0.750000 0.500000
O O18 0.000000 0.750000 0.558908
O O19 0.500000 0.684403 0.741043
O O20 0.327376 0.750000 0.703145
O O21 0.500000 0.448356 0.624010
O O22 0.250000 0.500000 0.614325
O O23 0.500000 0.909871 0.852702
#
# Coordination Sequence:
#
# PCOD9502559 Si02
#       8
#    16  16  16  16   8  16  16  16
#     4  10  21  35  51  75 108 145 185 230 275 324
#     4  11  21  37  60  87 119 155 195 242 293 348
#     4  10  20  34  52  78 114 152 192 234 278 329
#     4  11  22  39  60  83 109 135 170 217 271 329
#     4  12  26  44  66  92 122 154 194 244 299 352
#     4   9  17  31  51  78 112 150 189 228 276 336
#     4  10  21  36  55  83 118 160 203 243 287 341
#     4  12  23  35  53  77 106 144 186 226 276 332
#
# _framework density 19.111037
#
# number of rings (size 3 to 8) (size 9 to 14) (size 15 to 20)
#    0.000    1.467    0.667    6.200    0.000    5.600 
#    0.000    0.000    0.000    0.800    0.000    2.800 
#    0.000    0.000    0.000    0.000    0.000    0.000 
#
# Total GULP energy -334974.083714 kJ/mol
# GULP energy per Si atom -5582.901395 kJ/mol
# Density = 1.906754 g / cm^3
# Si number density = 19.111037 Si / 1000 Ang^3
#
#
#
# Elastic Constant Matrix: (Units=GPa)
#
#
# Indices 1 2 3 4 5 6 
#
# 1 94.0150 52.5387 23.3287 0.0000 0.0000 0.0000
# 2 52.5387 129.4499 29.4385 0.0000 0.0000 0.0000
# 3 23.3287 29.4385 29.0203 0.0000 0.0000 0.0000
# 4 0.0000 0.0000 0.0000 11.8250 0.0000 0.0000
# 5 0.0000 0.0000 0.0000 0.0000 41.6572 0.0000
# 6 0.0000 0.0000 0.0000 0.0000 0.0000 29.2930
#
#
#
# Elastic Compliance Matrix: (Units=1/GPa)
#
#
# Indices 1 2 3 4 5 6 
#
# 1 0.014950 -0.004334 -0.007621 0.000000 0.000000 0.000000
# 2 -0.004334 0.011298 -0.007977 0.000000 0.000000 0.000000
# 3 -0.007621 -0.007977 0.048676 0.000000 0.000000 0.000000
# 4 0.000000 0.000000 0.000000 0.084566 0.000000 0.000000
# 5 0.000000 0.000000 0.000000 0.000000 0.024005 0.000000
# 6 0.000000 0.000000 0.000000 0.000000 0.000000 0.034138
#
#
# Mechanical properties :
#
#
# Convention : Reuss Voigt Hill
#
# Bulk Modulus (GPa) = 28.52209 51.45520 39.98864
# Shear Modulus (GPa) = 18.57459 26.36700 22.47080
#
# Velocity S-wave (km/s) = 3.12096 3.71843 3.43272
# Velocity P-wave (km/s) = 5.28621 6.73932 6.05650
#
# Compressibility (1/GPa) = 0.03506055
#
# Stress axis : x y z
#
# Youngs Moduli (GPa) = 66.89016 88.50985 20.54383
#
# Poissons Ratio (x) = 0.38365 0.15656
# Poissons Ratio (y) = 0.28994 0.16387
# Poissons Ratio (z) = 0.50976 0.70601
#
# Static dielectric constant tensor:
#      x y z
#    x 1.679660 0.000000 0.000000 
#    y 0.000000 1.753890 0.000000 
#    z 0.000000 0.000000 1.661120 
# 
# From -- ./inp_files/43901.got.cif
#   From: 2010.05.17/outbox.cif.g08.bks.cpg/sg67_22_cif.got.tgz:43901.got - 2010.06.03 18:28:57.
