data_PCOD9502374
_publ_section_title
;
Structure prediction by ZEFSAII (Michael W. Deem and Ramdas Pophale) SiO2 
 PCOD9502374
Probable space group: C M M A
;
_chemical_formula_sum "Si O2"
_cell_formula_units_Z 96
_cell_length_a 25.777638
_cell_length_b 16.921281
_cell_length_c 11.624397
_cell_angle_alpha 90.000000
_cell_angle_beta 90.000000
_cell_angle_gamma 90.000000
_cell_volume 5070.453354
_symmetry_space_group_name_H-M "C M M A"
_symmetry_group_IT_number 67
_symmetry_cell_setting 'orthorhombic'
loop_
_space_group_symop_operation_xyz
x,y,z
-x,1/2-y,z
x,-y,-z
-x,1/2+y,-z
-x,-y,-z
x,1/2+y,-z
-x,y,z
x,1/2-y,z
1/2+x,1/2+y,z
1/2-x,-y,z
1/2+x,1/2-y,-z
1/2-x,y,-z
1/2-x,1/2-y,-z
1/2+x,y,-z
1/2-x,1/2+y,z
1/2+x,-y,z
loop_
_atom_site_type_symbol
_atom_site_label
_atom_site_fract_x
_atom_site_fract_y
_atom_site_fract_z
Si Si1 0.389466 0.464914 0.886687
Si Si2 0.745508 0.836188 0.329655
Si Si3 0.841403 0.550055 0.324132
Si Si4 0.353596 0.381269 0.551874
Si Si5 0.059413 0.162658 0.273356
Si Si6 0.198677 0.160317 0.075603
O O1 0.366605 0.531439 0.799219
O O2 0.425632 0.406892 0.813330
O O3 0.342944 0.409015 0.933818
O O4 0.415355 0.500000 0.000000
O O5 0.772069 0.750000 0.332304
O O6 0.785136 0.908975 0.320907
O O7 0.702002 0.840301 0.429147
O O8 0.713752 0.838610 0.209979
O O9 0.841833 0.465087 0.385957
O O10 0.868955 0.605376 0.419624
O O11 0.399763 0.342700 0.622864
O O12 0.065218 0.250000 0.219777
O O13 0.000000 0.154071 0.311765
O O14 0.180687 0.250000 0.045527
O O15 0.250000 0.144910 0.000000
#
# Coordination Sequence:
#
# PCOD9502374 Si02
#       6
#    16  16  16  16  16  16
#     4  11  22  37  58  83 117 155 191 238 286 343
#     4  11  20  31  50  77 112 155 192 227 278 341
#     4  10  21  34  50  81 114 148 188 226 281 343
#     4  10  20  35  55  79 111 144 188 238 287 340
#     4  10  21  40  66  88 107 142 194 247 294 342
#     4  10  20  33  51  77 112 154 200 240 276 330
#
# _framework density 18.933219000000001
#
# number of rings (size 3 to 8) (size 9 to 14) (size 15 to 20)
#    0.000    1.667    3.333    3.000    0.000    5.333 
#    0.000    7.500    0.000    0.000    0.000    2.333 
#    0.000    0.000    0.000    0.000    0.000    0.000 
#
# Total GULP energy -267595.261957 kJ/mol
# GULP energy per Si atom -5574.901291 kJ/mol
# Density = 1.889013 g / cm^3
# Si number density = 18.933219 Si / 1000 Ang^3
#
#
#
# Elastic Constant Matrix: (Units=GPa)
#
#
# Indices 1 2 3 4 5 6 
#
# 1 86.2778 35.8472 20.8766 0.0000 0.0000 0.0000
# 2 35.8472 73.9344 28.8451 0.0000 0.0000 0.0000
# 3 20.8766 28.8451 92.7606 0.0000 0.0000 0.0000
# 4 0.0000 0.0000 0.0000 18.7442 0.0000 0.0000
# 5 0.0000 0.0000 0.0000 0.0000 13.0634 0.0000
# 6 0.0000 0.0000 0.0000 0.0000 0.0000 -5.2430
#
#
#
# Elastic Compliance Matrix: (Units=1/GPa)
#
#
# Indices 1 2 3 4 5 6 
#
# 1 0.014638 -0.006614 -0.001238 0.000000 0.000000 0.000000
# 2 -0.006614 0.018382 -0.004227 0.000000 0.000000 0.000000
# 3 -0.001238 -0.004227 0.012374 0.000000 0.000000 0.000000
# 4 0.000000 0.000000 0.000000 0.053350 0.000000 0.000000
# 5 0.000000 0.000000 0.000000 0.000000 0.076550 0.000000
# 6 0.000000 0.000000 0.000000 0.000000 0.000000 -0.190731
#
#
# Mechanical properties :
#
#
# Convention : Reuss Voigt Hill
#
# Bulk Modulus (GPa) = 47.09308 47.12341 47.10825
# Shear Modulus (GPa) = 316.46859 16.47318 166.47088
#
# Velocity S-wave (km/s) = 12.94267 2.95289 9.38702
# Velocity P-wave (km/s) = 15.75683 6.04726 11.93413
#
# Compressibility (1/GPa) = 0.02123454
#
# Stress axis : x y z
#
# Youngs Moduli (GPa) = 68.31463 54.40150 80.81763
#
# Poissons Ratio (x) = 0.35984 0.10002
# Poissons Ratio (y) = 0.45187 0.34165
# Poissons Ratio (z) = 0.08455 0.22998
#
# Static dielectric constant tensor:
#      x y z
#    x 1.635100 0.000000 0.000000 
#    y 0.000000 1.697790 0.000000 
#    z 0.000000 0.000000 1.699850 
# 
# From -- ./inp_files/21911.got.cif
#   From: 2010.05.17/outbox.cif.g08.bks.cpg/sg67_11_cif.got.tgz:21911.got - 2010.06.03 18:28:57.
