data_PCOD9502972
_publ_section_title
;
Structure prediction by ZEFSAII (Michael W. Deem and Ramdas Pophale) SiO2 
 PCOD9502972
Probable space group: C M M A
;
_chemical_formula_sum "Si O2"
_cell_formula_units_Z 80
_cell_length_a 13.837525
_cell_length_b 13.109734
_cell_length_c 20.490990
_cell_angle_alpha 90.000000
_cell_angle_beta 90.000000
_cell_angle_gamma 90.000000
_cell_volume 3717.194105
_symmetry_space_group_name_H-M "C M M A"
_symmetry_group_IT_number 67
_symmetry_cell_setting 'orthorhombic'
loop_
_space_group_symop_operation_xyz
x,y,z
-x,1/2-y,z
x,-y,-z
-x,1/2+y,-z
-x,-y,-z
x,1/2+y,-z
-x,y,z
x,1/2-y,z
1/2+x,1/2+y,z
1/2-x,-y,z
1/2+x,1/2-y,-z
1/2-x,y,-z
1/2-x,1/2-y,-z
1/2+x,y,-z
1/2-x,1/2+y,z
1/2+x,-y,z
loop_
_atom_site_type_symbol
_atom_site_label
_atom_site_fract_x
_atom_site_fract_y
_atom_site_fract_z
Si Si1 0.305962 0.626082 0.599383
Si Si2 0.106210 0.625943 0.538798
Si Si3 0.384258 0.131557 0.259700
Si Si4 0.717270 0.863544 0.925211
Si Si5 0.611211 0.024599 0.857762
O O1 0.307871 0.750000 0.598907
O O2 0.195938 0.595164 0.583748
O O3 0.370022 0.597549 0.536216
O O4 0.342151 0.598665 0.670640
O O5 0.106024 0.750000 0.539888
O O6 0.000000 0.592316 0.559270
O O7 0.500000 0.136731 0.265171
O O8 0.352083 0.250000 0.245054
O O9 0.364995 0.043576 0.206339
O O10 0.685156 0.750000 0.910824
O O11 0.630074 0.940878 0.913805
O O12 0.807753 0.892906 0.877911
O O13 0.750000 0.869948 0.000000
O O14 0.500000 0.059663 0.854764
#
# Coordination Sequence:
#
# PCOD9502972 Si02
#       5
#    16  16  16  16  16
#     4   8  13  20  32  54  88 133 182 233 286 335
#     4   8  12  18  30  51  83 127 181 235 285 340
#     4   9  16  26  43  69 102 142 188 235 283 336
#     4  10  22  39  59  86 119 152 185 226 281 339
#     4  10  20  35  57  85 116 151 192 235 276 327
#
# _framework density 21.521609999999999
#
# number of rings (size 3 to 8) (size 9 to 14) (size 15 to 20)
#    0.000    3.000    0.000    3.600    0.000    5.600 
#    0.000    2.000    0.000    4.800    0.000    5.600 
#    0.000   12.800    0.000   91.600    0.000  192.000 
#
# Total GULP energy -223227.860710 kJ/mol
# GULP energy per Si atom -5580.696518 kJ/mol
# Density = 2.147263 g / cm^3
# Si number density = 21.521610 Si / 1000 Ang^3
#
#
#
# Elastic Constant Matrix: (Units=GPa)
#
#
# Indices 1 2 3 4 5 6 
#
# 1 89.2771 -14.2585 18.1349 0.0000 0.0000 0.0000
# 2 -14.2585 46.9227 -11.8086 0.0000 0.0000 0.0000
# 3 18.1349 -11.8086 101.4837 0.0000 0.0000 0.0000
# 4 0.0000 0.0000 0.0000 9.3318 0.0000 0.0000
# 5 0.0000 0.0000 0.0000 0.0000 24.3033 0.0000
# 6 0.0000 0.0000 0.0000 0.0000 0.0000 14.1108
#
#
#
# Elastic Compliance Matrix: (Units=1/GPa)
#
#
# Indices 1 2 3 4 5 6 
#
# 1 0.012078 0.003221 -0.001783 0.000000 0.000000 0.000000
# 2 0.003221 0.022814 0.002079 0.000000 0.000000 0.000000
# 3 -0.001783 0.002079 0.010414 0.000000 0.000000 0.000000
# 4 0.000000 0.000000 0.000000 0.107161 0.000000 0.000000
# 5 0.000000 0.000000 0.000000 0.000000 0.041147 0.000000
# 6 0.000000 0.000000 0.000000 0.000000 0.000000 0.070868
#
#
# Mechanical properties :
#
#
# Convention : Reuss Voigt Hill
#
# Bulk Modulus (GPa) = 19.10601 24.64655 21.87628
# Shear Modulus (GPa) = 18.18886 25.92357 22.05621
#
# Velocity S-wave (km/s) = 2.91029 3.47441 3.20479
# Velocity P-wave (km/s) = 4.49332 5.25093 4.88683
#
# Compressibility (1/GPa) = 0.05233956
#
# Stress axis : x y z
#
# Youngs Moduli (GPa) = 82.79631 43.83330 96.02084
#
# Poissons Ratio (x) = -0.14120 0.17125
# Poissons Ratio (y) = -0.26671 -0.19962
# Poissons Ratio (z) = 0.14766 -0.09113
#
# Static dielectric constant tensor:
#      x y z
#    x 1.765630 0.000000 0.000000 
#    y 0.000000 1.882180 0.000000 
#    z 0.000000 0.000000 1.766000 
# 
# From -- ./inp_files/38287.got.cif
#   From: 2010.05.17/outbox.cif.g08.bks.cpg/sg67_20_cif.got.tgz:38287.got - 2010.06.03 18:28:57.
