data_PCOD9502817
_publ_section_title
;
Structure prediction by ZEFSAII (Michael W. Deem and Ramdas Pophale) SiO2 
 PCOD9502817
Probable space group: C M M A
;
_chemical_formula_sum "Si O2"
_cell_formula_units_Z 104
_cell_length_a 8.639833
_cell_length_b 26.615255
_cell_length_c 22.797183
_cell_angle_alpha 90.000000
_cell_angle_beta 90.000000
_cell_angle_gamma 90.000000
_cell_volume 5242.243200
_symmetry_space_group_name_H-M "C M M A"
_symmetry_group_IT_number 67
_symmetry_cell_setting 'orthorhombic'
loop_
_space_group_symop_operation_xyz
x,y,z
-x,1/2-y,z
x,-y,-z
-x,1/2+y,-z
-x,-y,-z
x,1/2+y,-z
-x,y,z
x,1/2-y,z
1/2+x,1/2+y,z
1/2-x,-y,z
1/2+x,1/2-y,-z
1/2-x,y,-z
1/2-x,1/2-y,-z
1/2+x,y,-z
1/2-x,1/2+y,z
1/2+x,-y,z
loop_
_atom_site_type_symbol
_atom_site_label
_atom_site_fract_x
_atom_site_fract_y
_atom_site_fract_z
Si Si1 0.185905 0.195589 0.113695
Si Si2 0.316591 0.657670 0.766970
Si Si3 0.186457 0.944730 0.566262
Si Si4 0.315403 0.590630 0.062093
Si Si5 0.812816 0.347051 0.632408
Si Si6 0.681636 0.549399 0.820327
Si Si7 0.314364 0.250000 0.565320
O O1 0.243436 0.250000 0.093161
O O2 0.231754 0.187836 0.181662
O O3 0.243196 0.147299 0.077522
O O4 0.000000 0.195084 0.109862
O O5 0.500000 0.668720 0.771558
O O6 0.268138 0.663920 0.700007
O O7 0.292278 0.599299 0.783011
O O8 0.250000 0.935760 0.500000
O O9 0.245630 0.899392 0.607381
O O10 0.000000 0.945702 0.565121
O O11 0.250000 0.000000 0.584046
O O12 0.500000 0.591075 0.059528
O O13 0.262319 0.557819 0.117053
O O14 0.250000 0.573913 0.000000
O O15 0.749780 0.300224 0.595741
O O16 0.000000 0.349450 0.629488
O O17 0.500000 0.543563 0.829705
O O18 0.750000 0.500000 0.791202
O O19 0.500000 0.250000 0.566301
O O20 0.250000 0.250000 0.500000
#
# Coordination Sequence:
#
# PCOD9502817 Si02
#       7
#    16  16  16  16  16  16   8
#     4   9  19  35  55  79 109 145 183 229 281 333
#     4   9  21  38  57  82 113 147 186 230 280 336
#     4  11  22  39  62  89 119 155 196 242 295 352
#     4  10  20  35  54  79 111 145 185 232 281 335
#     4  11  23  41  62  89 123 159 199 247 298 355
#     4  10  20  37  58  82 111 147 187 230 282 338
#     4  12  26  44  64  90 122 162 205 250 303 360
#
# _framework density 19.838837000000002
#
# number of rings (size 3 to 8) (size 9 to 14) (size 15 to 20)
#    0.000    1.846    0.000    4.385    1.077    4.000 
#    0.000    3.077    0.000    0.000    0.000    0.000 
#    0.000    0.000    0.000    0.000    0.000    0.000 
#
# Total GULP energy -290493.770418 kJ/mol
# GULP energy per Si atom -5586.418662 kJ/mol
# Density = 1.979368 g / cm^3
# Si number density = 19.838837 Si / 1000 Ang^3
#
#
#
# Elastic Constant Matrix: (Units=GPa)
#
#
# Indices 1 2 3 4 5 6 
#
# 1 72.2326 20.2841 16.4197 0.0000 0.0000 0.0000
# 2 20.2841 52.5963 -15.9439 0.0000 0.0000 0.0000
# 3 16.4197 -15.9439 69.0817 0.0000 0.0000 0.0000
# 4 0.0000 0.0000 0.0000 12.3255 0.0000 0.0000
# 5 0.0000 0.0000 0.0000 0.0000 26.4014 0.0000
# 6 0.0000 0.0000 0.0000 0.0000 0.0000 30.2250
#
#
#
# Elastic Compliance Matrix: (Units=1/GPa)
#
#
# Indices 1 2 3 4 5 6 
#
# 1 0.017705 -0.008713 -0.006219 0.000000 0.000000 0.000000
# 2 -0.008713 0.024731 0.007779 0.000000 0.000000 0.000000
# 3 -0.006219 0.007779 0.017749 0.000000 0.000000 0.000000
# 4 0.000000 0.000000 0.000000 0.081133 0.000000 0.000000
# 5 0.000000 0.000000 0.000000 0.000000 0.037877 0.000000
# 6 0.000000 0.000000 0.000000 0.000000 0.000000 0.033085
#
#
# Mechanical properties :
#
#
# Convention : Reuss Voigt Hill
#
# Bulk Modulus (GPa) = 21.79688 26.15892 23.97790
# Shear Modulus (GPa) = 20.67149 25.33376 23.00262
#
# Velocity S-wave (km/s) = 3.23146 3.57736 3.40880
# Velocity P-wave (km/s) = 4.99339 5.50252 5.25412
#
# Compressibility (1/GPa) = 0.04587812
#
# Stress axis : x y z
#
# Youngs Moduli (GPa) = 56.48220 40.43492 56.34066
#
# Poissons Ratio (x) = 0.35232 0.35039
# Poissons Ratio (y) = 0.49214 -0.43827
# Poissons Ratio (z) = 0.35127 -0.31454
#
# Static dielectric constant tensor:
#      x y z
#    x 1.670980 0.000000 0.000000 
#    y 0.000000 1.662980 0.000000 
#    z 0.000000 0.000000 1.664150 
# 
# From -- ./inp_files/37333.got.cif
#   From: 2010.05.17/outbox.cif.g08.bks.cpg/sg67_19_cif.got.tgz:37333.got - 2010.06.03 18:28:57.
