data_PCOD9502495
_publ_section_title
;
Structure prediction by ZEFSAII (Michael W. Deem and Ramdas Pophale) SiO2 
 PCOD9502495
Probable space group: C M M A
;
_chemical_formula_sum "Si O2"
_cell_formula_units_Z 112
_cell_length_a 20.175309
_cell_length_b 28.616250
_cell_length_c 11.275202
_cell_angle_alpha 90.000000
_cell_angle_beta 90.000000
_cell_angle_gamma 90.000000
_cell_volume 6509.644135
_symmetry_space_group_name_H-M "C M M A"
_symmetry_group_IT_number 67
_symmetry_cell_setting 'orthorhombic'
loop_
_space_group_symop_operation_xyz
x,y,z
-x,1/2-y,z
x,-y,-z
-x,1/2+y,-z
-x,-y,-z
x,1/2+y,-z
-x,y,z
x,1/2-y,z
1/2+x,1/2+y,z
1/2-x,-y,z
1/2+x,1/2-y,-z
1/2-x,y,-z
1/2-x,1/2-y,-z
1/2+x,y,-z
1/2-x,1/2+y,z
1/2+x,-y,z
loop_
_atom_site_type_symbol
_atom_site_label
_atom_site_fract_x
_atom_site_fract_y
_atom_site_fract_z
Si Si1 0.676741 0.428763 0.041820
Si Si2 0.220135 0.110523 0.713526
Si Si3 0.076467 0.009489 0.809345
Si Si4 0.320224 0.197495 0.433850
Si Si5 0.374574 0.548487 0.568158
Si Si6 0.868510 0.405149 0.209480
Si Si7 0.424902 0.137418 0.576773
O O1 0.692016 0.397482 0.155619
O O2 0.625368 0.466497 0.095110
O O3 0.750000 0.446660 0.000000
O O4 0.645620 0.401156 0.930817
O O5 0.194534 0.160314 0.669061
O O6 0.191246 0.072136 0.622503
O O7 0.298411 0.102502 0.724141
O O8 0.082276 0.037422 0.685390
O O9 0.000000 0.008162 0.848049
O O10 0.103777 0.957777 0.782227
O O11 0.338934 0.250000 0.397095
O O12 0.250000 0.199888 0.500000
O O13 0.374451 0.174625 0.520865
O O14 0.363292 0.500000 0.500000
O O15 0.408074 0.587315 0.484551
O O16 0.915623 0.370718 0.282437
O O17 0.500000 0.150188 0.549261
#
# Coordination Sequence:
#
# PCOD9502495 Si02
#       7
#    16  16  16  16  16  16  16
#     4   9  21  37  54  72 107 153 198 242 270 312
#     4   9  20  37  54  79 105 144 187 231 279 327
#     4  11  22  34  49  74 109 157 201 231 269 322
#     4  10  20  38  63  86 109 134 174 230 282 345
#     4  10  20  34  51  75 112 148 186 230 273 326
#     4  11  20  33  50  75 111 146 190 232 273 319
#     4  11  22  35  53  82 115 146 179 225 285 342
#
# _framework density 17.205241000000001
#
# number of rings (size 3 to 8) (size 9 to 14) (size 15 to 20)
#    0.000    1.857    2.857    1.286    0.000    9.429 
#    2.571    0.000    0.000    4.714    0.000    0.000 
#    0.000    0.000    0.000    0.000    0.000    0.000 
#
# Total GULP energy -312261.822921 kJ/mol
# GULP energy per Si atom -5576.103981 kJ/mol
# Density = 1.716608 g / cm^3
# Si number density = 17.205241 Si / 1000 Ang^3
#
#
#
# Elastic Constant Matrix: (Units=GPa)
#
#
# Indices 1 2 3 4 5 6 
#
# 1 106.6586 54.1692 46.1696 0.0000 0.0000 0.0000
# 2 54.1692 107.2260 39.6428 0.0000 0.0000 0.0000
# 3 46.1696 39.6428 98.7006 0.0000 0.0000 0.0000
# 4 0.0000 0.0000 0.0000 11.4462 0.0000 0.0000
# 5 0.0000 0.0000 0.0000 0.0000 16.7263 0.0000
# 6 0.0000 0.0000 0.0000 0.0000 0.0000 11.2538
#
#
#
# Elastic Compliance Matrix: (Units=1/GPa)
#
#
# Indices 1 2 3 4 5 6 
#
# 1 0.014053 -0.005483 -0.004371 0.000000 0.000000 0.000000
# 2 -0.005483 0.013092 -0.002693 0.000000 0.000000 0.000000
# 3 -0.004371 -0.002693 0.013258 0.000000 0.000000 0.000000
# 4 0.000000 0.000000 0.000000 0.087365 0.000000 0.000000
# 5 0.000000 0.000000 0.000000 0.000000 0.059786 0.000000
# 6 0.000000 0.000000 0.000000 0.000000 0.000000 0.088859
#
#
# Mechanical properties :
#
#
# Convention : Reuss Voigt Hill
#
# Bulk Modulus (GPa) = 65.32875 65.83873 65.58374
# Shear Modulus (GPa) = 16.30731 19.39217 17.84974
#
# Velocity S-wave (km/s) = 3.08199 3.36089 3.22446
# Velocity P-wave (km/s) = 7.12163 7.30825 7.21554
#
# Compressibility (1/GPa) = 0.01530720
#
# Stress axis : x y z
#
# Youngs Moduli (GPa) = 71.16122 76.38304 75.42513
#
# Poissons Ratio (x) = 0.41882 0.32969
# Poissons Ratio (y) = 0.39019 0.20316
# Poissons Ratio (z) = 0.31106 0.20574
#
# Static dielectric constant tensor:
#      x y z
#    x 1.613270 0.000000 0.000000 
#    y 0.000000 1.565360 0.000000 
#    z 0.000000 0.000000 1.607020 
# 
# From -- ./inp_files/21263.got.cif
#   From: 2010.05.17/outbox.cif.g08.bks.cpg/sg67_11_cif.got.tgz:21263.got - 2010.06.03 18:28:57.
