data_PCOD9502054
_publ_section_title
;
Structure prediction by ZEFSAII (Michael W. Deem and Ramdas Pophale) SiO2 
 PCOD9502054
Probable space group: C M M A
;
_chemical_formula_sum "Si O2"
_cell_formula_units_Z 104
_cell_length_a 28.032930
_cell_length_b 21.927956
_cell_length_c 8.869346
_cell_angle_alpha 90.000000
_cell_angle_beta 90.000000
_cell_angle_gamma 90.000000
_cell_volume 5452.030052
_symmetry_space_group_name_H-M "C M M A"
_symmetry_group_IT_number 67
_symmetry_cell_setting 'orthorhombic'
loop_
_space_group_symop_operation_xyz
x,y,z
-x,1/2-y,z
x,-y,-z
-x,1/2+y,-z
-x,-y,-z
x,1/2+y,-z
-x,y,z
x,1/2-y,z
1/2+x,1/2+y,z
1/2-x,-y,z
1/2+x,1/2-y,-z
1/2-x,y,-z
1/2-x,1/2-y,-z
1/2+x,y,-z
1/2-x,1/2+y,z
1/2+x,-y,z
loop_
_atom_site_type_symbol
_atom_site_label
_atom_site_fract_x
_atom_site_fract_y
_atom_site_fract_z
Si Si1 0.213511 0.625608 0.730276
Si Si2 0.552427 0.615054 0.909332
Si Si3 0.814625 0.750000 0.894184
Si Si4 0.092366 0.037452 0.651510
Si Si5 0.584023 0.250000 0.043642
Si Si6 0.187352 0.618913 0.379142
Si Si7 0.671096 0.250000 0.236282
Si Si8 0.632798 0.949294 0.106488
O O1 0.205909 0.691642 0.806639
O O2 0.200155 0.625317 0.554246
O O3 0.267487 0.600117 0.724855
O O4 0.174910 0.585920 0.815538
O O5 0.500000 0.593036 0.958461
O O6 0.560380 0.588531 0.738868
O O7 0.555216 0.687377 0.942613
O O8 0.597239 0.590153 0.004175
O O9 0.873855 0.750000 0.912150
O O10 0.697462 0.750000 0.926978
O O11 0.142824 0.073109 0.630311
O O12 0.077870 0.000000 0.500000
O O13 0.100857 0.983993 0.771675
O O14 0.615954 0.250000 0.193134
O O15 0.179325 0.687836 0.323380
O O16 0.655049 0.000000 0.000000
#
# Coordination Sequence:
#
# PCOD9502054 Si02
#       8
#    16  16   8  16   8  16   8  16
#     4  11  22  39  59  91 127 167 216 250 307 372
#     4  11  23  43  68  94 119 157 211 266 330 382
#     4  10  20  37  63  88 124 163 210 258 309 376
#     4  11  22  41  63  87 127 169 208 258 311 374
#     4  10  19  38  67  90 120 152 197 262 327 368
#     4  11  23  38  61  90 126 173 207 255 306 373
#     4  10  20  39  61  90 126 163 210 256 323 362
#     4  10  22  40  60  88 124 166 208 262 311 364
#
# _framework density 19.075462999999999
#
# number of rings (size 3 to 8) (size 9 to 14) (size 15 to 20)
#    0.462    0.923    4.615    1.154    2.154    6.154 
#    0.000    2.308    0.000    0.000    0.000    4.308 
#    0.000    0.000    0.000    0.000    0.000    0.000 
#
# Total GULP energy -289536.245750 kJ/mol
# GULP energy per Si atom -5568.004726 kJ/mol
# Density = 1.903205 g / cm^3
# Si number density = 19.075463 Si / 1000 Ang^3
#
#
#
# Elastic Constant Matrix: (Units=GPa)
#
#
# Indices 1 2 3 4 5 6 
#
# 1 88.1018 25.1195 21.5139 0.0000 0.0000 0.0000
# 2 25.1195 93.1191 37.9515 0.0000 0.0000 0.0000
# 3 21.5139 37.9515 82.3441 0.0000 0.0000 0.0000
# 4 0.0000 0.0000 0.0000 33.1440 0.0000 0.0000
# 5 0.0000 0.0000 0.0000 0.0000 12.1857 0.0000
# 6 0.0000 0.0000 0.0000 0.0000 0.0000 18.2962
#
#
#
# Elastic Compliance Matrix: (Units=1/GPa)
#
#
# Indices 1 2 3 4 5 6 
#
# 1 0.012591 -0.002531 -0.002123 0.000000 0.000000 0.000000
# 2 -0.002531 0.013732 -0.005667 0.000000 0.000000 0.000000
# 3 -0.002123 -0.005667 0.015311 0.000000 0.000000 0.000000
# 4 0.000000 0.000000 0.000000 0.030171 0.000000 0.000000
# 5 0.000000 0.000000 0.000000 0.000000 0.082063 0.000000
# 6 0.000000 0.000000 0.000000 0.000000 0.000000 0.054656
#
#
# Mechanical properties :
#
#
# Convention : Reuss Voigt Hill
#
# Bulk Modulus (GPa) = 47.64179 48.08164 47.86172
# Shear Modulus (GPa) = 21.17177 24.65720 22.91448
#
# Velocity S-wave (km/s) = 3.33512 3.59919 3.46967
# Velocity P-wave (km/s) = 6.31351 6.52173 6.41846
#
# Compressibility (1/GPa) = 0.02098997
#
# Stress axis : x y z
#
# Youngs Moduli (GPa) = 79.42437 72.82508 65.31313
#
# Poissons Ratio (x) = 0.18433 0.13866
# Poissons Ratio (y) = 0.20104 0.37016
# Poissons Ratio (z) = 0.16861 0.41273
#
# Static dielectric constant tensor:
#      x y z
#    x 1.710150 0.000000 0.000000 
#    y 0.000000 1.712790 0.000000 
#    z 0.000000 0.000000 1.663800 
# 
# From -- ./inp_files/13846.got.cif
#   From: 2010.05.17/outbox.cif.g08.bks.cpg/sg67_7_cif.got.tgz:13846.got - 2010.06.03 18:28:57.
