data_PCOD9502593
_publ_section_title
;
Structure prediction by ZEFSAII (Michael W. Deem and Ramdas Pophale) SiO2 
 PCOD9502593
Probable space group: C M M A
;
_chemical_formula_sum "Si O2"
_cell_formula_units_Z 80
_cell_length_a 8.389374
_cell_length_b 18.771179
_cell_length_c 26.548615
_cell_angle_alpha 90.000000
_cell_angle_beta 90.000000
_cell_angle_gamma 90.000000
_cell_volume 4180.834502
_symmetry_space_group_name_H-M "C M M A"
_symmetry_group_IT_number 67
_symmetry_cell_setting 'orthorhombic'
loop_
_space_group_symop_operation_xyz
x,y,z
-x,1/2-y,z
x,-y,-z
-x,1/2+y,-z
-x,-y,-z
x,1/2+y,-z
-x,y,z
x,1/2-y,z
1/2+x,1/2+y,z
1/2-x,-y,z
1/2+x,1/2-y,-z
1/2-x,y,-z
1/2-x,1/2-y,-z
1/2+x,y,-z
1/2-x,1/2+y,z
1/2+x,-y,z
loop_
_atom_site_type_symbol
_atom_site_label
_atom_site_fract_x
_atom_site_fract_y
_atom_site_fract_z
Si Si1 0.692343 0.667669 0.554931
Si Si2 0.692860 0.919220 0.652457
Si Si3 0.309221 0.832123 0.055304
Si Si4 0.690763 0.580663 0.849298
Si Si5 0.194737 0.167932 0.751132
O O1 0.500000 0.667487 0.555026
O O2 0.744508 0.750000 0.562082
O O3 0.750000 0.643701 0.500000
O O4 0.747614 0.618819 0.600983
O O5 0.500000 0.918777 0.652296
O O6 0.745505 0.873844 0.701010
O O7 0.750000 0.000000 0.655647
O O8 0.500000 0.832957 0.055533
O O9 0.254991 0.750000 0.063443
O O10 0.246838 0.881846 0.099562
O O11 0.250000 0.854267 0.000000
O O12 0.500000 0.580425 0.848489
O O13 0.750000 0.500000 0.846052
O O14 0.747487 0.626352 0.801132
O O15 0.247048 0.250000 0.751077
O O16 0.000000 0.168414 0.751193
#
# Coordination Sequence:
#
# PCOD9502593 Si02
#       5
#    16  16  16  16  16
#     4   9  18  33  53  75 100 134 176 219 261 308
#     4  10  20  34  53  77 106 138 173 215 263 316
#     4  10  21  38  60  85 113 145 183 226 270 319
#     4  11  22  36  56  82 113 146 181 222 270 323
#     4   9  18  34  57  81 104 136 179 222 264 316
#
# _framework density 19.134936
#
# number of rings (size 3 to 8) (size 9 to 14) (size 15 to 20)
#    0.000    2.200    0.000    3.000    0.000    6.000 
#    0.000    5.000    0.000    4.200    0.000    0.000 
#    0.000    0.000    0.000    0.000    0.000    0.000 
#
# Total GULP energy -223414.398390 kJ/mol
# GULP energy per Si atom -5585.359960 kJ/mol
# Density = 1.909138 g / cm^3
# Si number density = 19.134936 Si / 1000 Ang^3
#
#
#
# Elastic Constant Matrix: (Units=GPa)
#
#
# Indices 1 2 3 4 5 6 
#
# 1 20.6626 22.5655 28.4986 0.0000 0.0000 0.0000
# 2 22.5655 176.0703 144.1015 0.0000 0.0000 0.0000
# 3 28.4986 144.1015 216.9290 0.0000 0.0000 0.0000
# 4 0.0000 0.0000 0.0000 3.3259 0.0000 0.0000
# 5 0.0000 0.0000 0.0000 0.0000 16.4403 0.0000
# 6 0.0000 0.0000 0.0000 0.0000 0.0000 26.0838
#
#
#
# Elastic Compliance Matrix: (Units=1/GPa)
#
#
# Indices 1 2 3 4 5 6 
#
# 1 0.059686 -0.002700 -0.006048 0.000000 0.000000 0.000000
# 2 -0.002700 0.012568 -0.007994 0.000000 0.000000 0.000000
# 3 -0.006048 -0.007994 0.010715 0.000000 0.000000 0.000000
# 4 0.000000 0.000000 0.000000 0.300673 0.000000 0.000000
# 5 0.000000 0.000000 0.000000 0.000000 0.060826 0.000000
# 6 0.000000 0.000000 0.000000 0.000000 0.000000 0.038338
#
#
# Mechanical properties :
#
#
# Convention : Reuss Voigt Hill
#
# Bulk Modulus (GPa) = 20.20784 89.33256 54.77020
# Shear Modulus (GPa) = 9.38465 23.73641 16.56053
#
# Velocity S-wave (km/s) = 2.21700 3.52586 2.94506
# Velocity P-wave (km/s) = 4.13970 7.96006 6.34427
#
# Compressibility (1/GPa) = 0.04948575
#
# Stress axis : x y z
#
# Youngs Moduli (GPa) = 16.75428 79.56583 93.33032
#
# Poissons Ratio (x) = 0.21482 0.56443
# Poissons Ratio (y) = 0.04523 0.74609
# Poissons Ratio (z) = 0.10132 0.63606
#
# Static dielectric constant tensor:
#      x y z
#    x 1.664760 0.000000 0.000000 
#    y 0.000000 1.637140 0.000000 
#    z 0.000000 0.000000 1.644520 
# 
# From -- ./inp_files/43253.got.cif
#   From: 2010.05.17/outbox.cif.g08.bks.cpg/sg67_22_cif.got.tgz:43253.got - 2010.06.03 18:28:57.
