data_PCOD9502657
_publ_section_title
;
Structure prediction by ZEFSAII (Michael W. Deem and Ramdas Pophale) SiO2 
 PCOD9502657
Probable space group: C M M A
;
_chemical_formula_sum "Si O2"
_cell_formula_units_Z 80
_cell_length_a 8.762426
_cell_length_b 27.224860
_cell_length_c 18.638336
_cell_angle_alpha 90.000000
_cell_angle_beta 90.000000
_cell_angle_gamma 90.000000
_cell_volume 4446.283549
_symmetry_space_group_name_H-M "C M M A"
_symmetry_group_IT_number 67
_symmetry_cell_setting 'orthorhombic'
loop_
_space_group_symop_operation_xyz
x,y,z
-x,1/2-y,z
x,-y,-z
-x,1/2+y,-z
-x,-y,-z
x,1/2+y,-z
-x,y,z
x,1/2-y,z
1/2+x,1/2+y,z
1/2-x,-y,z
1/2+x,1/2-y,-z
1/2-x,y,-z
1/2-x,1/2-y,-z
1/2+x,y,-z
1/2-x,1/2+y,z
1/2+x,-y,z
loop_
_atom_site_type_symbol
_atom_site_label
_atom_site_fract_x
_atom_site_fract_y
_atom_site_fract_z
Si Si1 0.683982 0.157191 0.674501
Si Si2 0.182697 0.341270 0.834710
Si Si3 0.181794 0.250000 0.079330
Si Si4 0.318112 0.049001 0.671951
Si Si5 0.315963 0.250000 0.579235
Si Si6 0.182565 0.549457 0.166643
O O1 0.500000 0.159528 0.684964
O O2 0.761325 0.161810 0.752289
O O3 0.718749 0.103143 0.642337
O O4 0.730842 0.201559 0.623342
O O5 0.260252 0.298249 0.879201
O O6 0.220383 0.396397 0.863108
O O7 0.000000 0.335791 0.836743
O O8 0.000000 0.250000 0.076800
O O9 0.250000 0.250000 0.000000
O O10 0.500000 0.043814 0.675867
O O11 0.250490 0.050512 0.752673
O O12 0.250000 0.000000 0.636583
O O13 0.500000 0.250000 0.575521
O O14 0.250000 0.250000 0.500000
O O15 0.250000 0.500000 0.131681
O O16 0.000000 0.545078 0.170459
#
# Coordination Sequence:
#
# PCOD9502657 Si02
#       6
#    16  16   8  16   8  16
#     4   9  18  32  51  75 102 132 166 205 250 300
#     4  10  20  34  54  81 108 134 170 212 251 297
#     4  12  25  40  57  75 101 137 173 212 259 306
#     4   9  15  24  41  67  98 128 159 197 242 291
#     4  10  21  36  51  69  95 127 165 208 255 304
#     4   9  16  26  44  72 105 135 163 200 244 291
#
# _framework density 17.992553999999998
#
# number of rings (size 3 to 8) (size 9 to 14) (size 15 to 20)
#    0.000    2.400    0.000    4.500    0.000    4.800 
#    0.000    0.000    0.000    1.200    0.000    8.400 
#    0.000    0.000    0.000    0.000    0.000    0.000 
#
# Total GULP energy -222920.114462 kJ/mol
# GULP energy per Si atom -5573.002862 kJ/mol
# Density = 1.795160 g / cm^3
# Si number density = 17.992554 Si / 1000 Ang^3
#
#
#
# Elastic Constant Matrix: (Units=GPa)
#
#
# Indices 1 2 3 4 5 6 
#
# 1 70.9604 76.0433 27.8500 0.0000 0.0000 0.0000
# 2 76.0433 233.7932 69.3819 0.0000 0.0000 0.0000
# 3 27.8500 69.3819 56.8681 0.0000 0.0000 0.0000
# 4 0.0000 0.0000 0.0000 -5.1407 0.0000 0.0000
# 5 0.0000 0.0000 0.0000 0.0000 21.7097 0.0000
# 6 0.0000 0.0000 0.0000 0.0000 0.0000 -35.5057
#
#
#
# Elastic Compliance Matrix: (Units=1/GPa)
#
#
# Indices 1 2 3 4 5 6 
#
# 1 0.021999 -0.006205 -0.003204 0.000000 0.000000 0.000000
# 2 -0.006205 0.008455 -0.007277 0.000000 0.000000 0.000000
# 3 -0.003204 -0.007277 0.028032 0.000000 0.000000 0.000000
# 4 0.000000 0.000000 0.000000 -0.194528 0.000000 0.000000
# 5 0.000000 0.000000 0.000000 0.000000 0.046062 0.000000
# 6 0.000000 0.000000 0.000000 0.000000 0.000000 -0.028164
#
#
# Mechanical properties :
#
#
# Convention : Reuss Voigt Hill
#
# Bulk Modulus (GPa) = 39.81651 78.68580 59.25115
# Shear Modulus (GPa) = -65.44221 8.76909 -28.33656
#
# Velocity S-wave (km/s) = -6.03745 2.21005 -3.97281
# Velocity P-wave (km/s) = 5.14039 7.09505 3.45805
#
# Compressibility (1/GPa) = 0.02511521
#
# Stress axis : x y z
#
# Youngs Moduli (GPa) = 45.45730 118.27482 35.67413
#
# Poissons Ratio (x) = 0.73384 0.11428
# Poissons Ratio (y) = 0.28204 0.25959
# Poissons Ratio (z) = 0.14562 0.86067
#
# Static dielectric constant tensor:
#      x y z
#    x 1.606410 0.000000 0.000000 
#    y 0.000000 1.693570 0.000000 
#    z 0.000000 0.000000 1.560280 
# 
# From -- ./inp_files/32165.got.cif
#   From: 2010.05.17/outbox.cif.g08.bks.cpg/sg67_17_cif.got.tgz:32165.got - 2010.06.03 18:28:57.
