data_PCOD9502186
_publ_section_title
;
Structure prediction by ZEFSAII (Michael W. Deem and Ramdas Pophale) SiO2 
 PCOD9502186
Probable space group: C M M A
;
_chemical_formula_sum "Si O2"
_cell_formula_units_Z 104
_cell_length_a 10.062906
_cell_length_b 26.185833
_cell_length_c 22.934336
_cell_angle_alpha 90.000000
_cell_angle_beta 90.000000
_cell_angle_gamma 90.000000
_cell_volume 6043.325418
_symmetry_space_group_name_H-M "C M M A"
_symmetry_group_IT_number 67
_symmetry_cell_setting 'orthorhombic'
loop_
_space_group_symop_operation_xyz
x,y,z
-x,1/2-y,z
x,-y,-z
-x,1/2+y,-z
-x,-y,-z
x,1/2+y,-z
-x,y,z
x,1/2-y,z
1/2+x,1/2+y,z
1/2-x,-y,z
1/2+x,1/2-y,-z
1/2-x,y,-z
1/2-x,1/2-y,-z
1/2+x,y,-z
1/2-x,1/2+y,z
1/2+x,-y,z
loop_
_atom_site_type_symbol
_atom_site_label
_atom_site_fract_x
_atom_site_fract_y
_atom_site_fract_z
Si Si1 0.347329 0.250000 0.054113
Si Si2 0.157491 0.691831 0.762846
Si Si3 0.845144 0.109664 0.820602
Si Si4 0.844983 0.135355 0.944217
Si Si5 0.658337 0.451003 0.295809
Si Si6 0.000000 0.310627 0.570545
Si Si7 0.500000 0.812600 0.433131
Si Si8 0.247088 0.151692 0.359177
O O1 0.500000 0.250000 0.034183
O O2 0.327717 0.306277 0.080866
O O3 0.250000 0.250000 0.000000
O O4 0.173659 0.750000 0.782987
O O5 0.241852 0.652513 0.800429
O O6 0.213543 0.685803 0.697432
O O7 0.000000 0.679801 0.762482
O O8 0.820062 0.098960 0.888804
O O9 0.832589 0.065307 0.772508
O O10 0.000000 0.127456 0.816705
O O11 0.000000 0.130446 0.961737
O O12 0.750000 0.128743 0.000000
O O13 0.500000 0.457650 0.308798
O O14 0.750000 0.500000 0.306088
O O15 0.719675 0.404206 0.333249
O O16 0.000000 0.323198 0.502065
O O17 0.126302 0.330924 0.604782
O O18 0.000000 0.250000 0.573902
O O19 0.500000 0.750000 0.424730
O O20 0.375010 0.838969 0.402335
#
# Coordination Sequence:
#
# PCOD9502186 Si02
#       8
#     8  16  16  16  16   8   8  16
#     4   8  14  24  40  62  92 138 182 208 245 302
#     4  10  20  32  48  74 110 149 184 228 279 329
#     4   9  20  35  52  80 108 135 185 234 282 341
#     4   9  17  30  48  71 105 144 182 224 269 330
#     4  10  22  40  63  86 107 143 192 247 303 347
#     4  11  22  36  59  89 125 163 197 226 268 332
#     4  11  22  36  59  91 125 167 195 222 270 332
#     4  11  21  38  57  85 120 151 198 241 280 338
#
# _framework density 17.209067999999998
#
# number of rings (size 3 to 8) (size 9 to 14) (size 15 to 20)
#    0.000    2.154    1.538    1.846    3.231    2.769 
#    0.000    0.000    0.000    3.231    0.000    3.231 
#    0.000    0.000    0.000    0.000    0.000    0.000 
#
# Total GULP energy -289586.610922 kJ/mol
# GULP energy per Si atom -5568.973287 kJ/mol
# Density = 1.716990 g / cm^3
# Si number density = 17.209068 Si / 1000 Ang^3
#
#
#
# Elastic Constant Matrix: (Units=GPa)
#
#
# Indices 1 2 3 4 5 6 
#
# 1 116.0866 39.0885 50.8397 0.0000 0.0000 0.0000
# 2 39.0885 61.9983 25.8233 0.0000 0.0000 0.0000
# 3 50.8397 25.8233 99.4572 0.0000 0.0000 0.0000
# 4 0.0000 0.0000 0.0000 13.3643 0.0000 0.0000
# 5 0.0000 0.0000 0.0000 0.0000 32.3045 0.0000
# 6 0.0000 0.0000 0.0000 0.0000 0.0000 26.7744
#
#
#
# Elastic Compliance Matrix: (Units=1/GPa)
#
#
# Indices 1 2 3 4 5 6 
#
# 1 0.012824 -0.006004 -0.004996 0.000000 0.000000 0.000000
# 2 -0.006004 0.020897 -0.002356 0.000000 0.000000 0.000000
# 3 -0.004996 -0.002356 0.013220 0.000000 0.000000 0.000000
# 4 0.000000 0.000000 0.000000 0.074826 0.000000 0.000000
# 5 0.000000 0.000000 0.000000 0.000000 0.030955 0.000000
# 6 0.000000 0.000000 0.000000 0.000000 0.000000 0.037349
#
#
# Mechanical properties :
#
#
# Convention : Reuss Voigt Hill
#
# Bulk Modulus (GPa) = 49.43895 56.56055 52.99975
# Shear Modulus (GPa) = 22.36857 25.27469 23.82163
#
# Velocity S-wave (km/s) = 3.60920 3.83650 3.72459
# Velocity P-wave (km/s) = 6.79406 7.25004 7.02575
#
# Compressibility (1/GPa) = 0.02022697
#
# Stress axis : x y z
#
# Youngs Moduli (GPa) = 77.97788 47.85490 75.64066
#
# Poissons Ratio (x) = 0.28733 0.37793
# Poissons Ratio (y) = 0.46820 0.17824
# Poissons Ratio (z) = 0.38961 0.11277
#
# Static dielectric constant tensor:
#      x y z
#    x 1.568100 0.000000 0.000000 
#    y 0.000000 1.590350 0.000000 
#    z 0.000000 0.000000 1.596570 
# 
# From -- ./inp_files/41056.got.cif
#   From: 2010.05.17/outbox.cif.g08.bks.cpg/sg67_21_cif.got.tgz:41056.got - 2010.06.03 18:28:57.
