data_PCOD9502891
_publ_section_title
;
Structure prediction by ZEFSAII (Michael W. Deem and Ramdas Pophale) SiO2 
 PCOD9502891
Probable space group: C M M A
;
_chemical_formula_sum "Si O2"
_cell_formula_units_Z 88
_cell_length_a 29.389173
_cell_length_b 26.146348
_cell_length_c 5.210254
_cell_angle_alpha 90.000000
_cell_angle_beta 90.000000
_cell_angle_gamma 90.000000
_cell_volume 4003.661006
_symmetry_space_group_name_H-M "C M M A"
_symmetry_group_IT_number 67
_symmetry_cell_setting 'orthorhombic'
loop_
_space_group_symop_operation_xyz
x,y,z
-x,1/2-y,z
x,-y,-z
-x,1/2+y,-z
-x,-y,-z
x,1/2+y,-z
-x,y,z
x,1/2-y,z
1/2+x,1/2+y,z
1/2-x,-y,z
1/2+x,1/2-y,-z
1/2-x,y,-z
1/2-x,1/2-y,-z
1/2+x,y,-z
1/2-x,1/2+y,z
1/2+x,-y,z
loop_
_atom_site_type_symbol
_atom_site_label
_atom_site_fract_x
_atom_site_fract_y
_atom_site_fract_z
Si Si1 0.250000 0.861565 0.500000
Si Si2 0.189292 0.945610 0.617207
Si Si3 0.554374 0.694077 0.509235
Si Si4 0.198079 0.808398 0.113978
Si Si5 0.642828 0.090255 0.096327
Si Si6 0.053512 0.367130 0.018673
O O1 0.229003 0.904744 0.687373
O O2 0.210185 0.824648 0.405747
O O3 0.160470 0.922313 0.380182
O O4 0.203079 0.000000 0.500000
O O5 0.161494 0.947296 0.878419
O O6 0.500000 0.697581 0.464764
O O7 0.574874 0.750000 0.467278
O O8 0.559387 0.676622 0.801685
O O9 0.569102 0.653388 0.296512
O O10 0.182633 0.750000 0.084544
O O11 0.162936 0.852492 0.031461
O O12 0.250000 0.811849 0.000000
O O13 0.588604 0.090549 0.074939
O O14 0.000000 0.380932 0.024422
#
# Coordination Sequence:
#
# PCOD9502891 Si02
#       6
#     8  16  16  16  16  16
#     4  10  20  38  60  90 120 158 200 242 290 358
#     4  11  23  40  64  88 117 150 194 255 311 354
#     4   9  17  30  50  77 110 149 194 241 287 335
#     4  10  20  36  57  84 125 165 192 228 278 345
#     4  11  23  40  59  89 120 155 202 244 293 361
#     4  10  20  35  56  80 113 157 198 247 301 343
#
# _framework density 21.979883999999998
#
# number of rings (size 3 to 8) (size 9 to 14) (size 15 to 20)
#    0.000    1.818    1.818    2.727    0.000    3.636 
#    0.000    1.818    0.000    3.273    0.000    0.000 
#    0.000    0.000    0.000    0.000    0.000    0.000 
#
# Total GULP energy -245091.259982 kJ/mol
# GULP energy per Si atom -5570.255909 kJ/mol
# Density = 2.192986 g / cm^3
# Si number density = 21.979884 Si / 1000 Ang^3
#
#
#
# Elastic Constant Matrix: (Units=GPa)
#
#
# Indices 1 2 3 4 5 6 
#
# 1 69.4895 20.5264 8.9125 0.0000 0.0000 0.0000
# 2 20.5264 93.2777 16.7986 0.0000 0.0000 0.0000
# 3 8.9125 16.7986 64.8814 0.0000 0.0000 0.0000
# 4 0.0000 0.0000 0.0000 16.1259 0.0000 0.0000
# 5 0.0000 0.0000 0.0000 0.0000 22.3304 0.0000
# 6 0.0000 0.0000 0.0000 0.0000 0.0000 7.4475
#
#
#
# Elastic Compliance Matrix: (Units=1/GPa)
#
#
# Indices 1 2 3 4 5 6 
#
# 1 0.015496 -0.003175 -0.001307 0.000000 0.000000 0.000000
# 2 -0.003175 0.011895 -0.002644 0.000000 0.000000 0.000000
# 3 -0.001307 -0.002644 0.016277 0.000000 0.000000 0.000000
# 4 0.000000 0.000000 0.000000 0.062012 0.000000 0.000000
# 5 0.000000 0.000000 0.000000 0.000000 0.044782 0.000000
# 6 0.000000 0.000000 0.000000 0.000000 0.000000 0.134273
#
#
# Mechanical properties :
#
#
# Convention : Reuss Voigt Hill
#
# Bulk Modulus (GPa) = 33.99289 35.56929 34.78109
# Shear Modulus (GPa) = 16.19214 21.27482 18.73348
#
# Velocity S-wave (km/s) = 2.71713 3.11452 2.92259
# Velocity P-wave (km/s) = 5.03416 5.39921 5.21987
#
# Compressibility (1/GPa) = 0.02941791
#
# Stress axis : x y z
#
# Youngs Moduli (GPa) = 64.53268 84.06600 61.43733
#
# Poissons Ratio (x) = 0.26688 0.08028
# Poissons Ratio (y) = 0.20487 0.16243
# Poissons Ratio (z) = 0.08432 0.22225
#
# Static dielectric constant tensor:
#      x y z
#    x 1.855870 0.000000 0.000000 
#    y 0.000000 1.813740 0.000000 
#    z 0.000000 0.000000 1.911650 
# 
# From -- ./inp_files/4752.got.cif
#   From: 2010.05.17/outbox.cif.g08.bks.cpg/sg67_3_cif.got.tgz:4752.got - 2010.06.03 18:28:57.
