data_PCOD9502296
_publ_section_title
;
Structure prediction by ZEFSAII (Michael W. Deem and Ramdas Pophale) SiO2 
 PCOD9502296
Probable space group: C M M A
;
_chemical_formula_sum "Si O2"
_cell_formula_units_Z 64
_cell_length_a 14.987554
_cell_length_b 9.093570
_cell_length_c 21.775991
_cell_angle_alpha 90.000000
_cell_angle_beta 90.000000
_cell_angle_gamma 90.000000
_cell_volume 2967.857902
_symmetry_space_group_name_H-M "C M M A"
_symmetry_group_IT_number 67
_symmetry_cell_setting 'orthorhombic'
loop_
_space_group_symop_operation_xyz
x,y,z
-x,1/2-y,z
x,-y,-z
-x,1/2+y,-z
-x,-y,-z
x,1/2+y,-z
-x,y,z
x,1/2-y,z
1/2+x,1/2+y,z
1/2-x,-y,z
1/2+x,1/2-y,-z
1/2-x,y,-z
1/2-x,1/2-y,-z
1/2+x,y,-z
1/2-x,1/2+y,z
1/2+x,-y,z
loop_
_atom_site_type_symbol
_atom_site_label
_atom_site_fract_x
_atom_site_fract_y
_atom_site_fract_z
Si Si1 0.895275 0.913549 0.182356
Si Si2 0.390576 0.418079 0.937791
Si Si3 0.348829 0.426562 0.559997
Si Si4 0.846833 0.425613 0.305163
O O1 0.855707 0.750000 0.189670
O O2 0.000000 0.896964 0.169594
O O3 0.858840 0.999116 0.123401
O O4 0.889416 0.004317 0.245091
O O5 0.500000 0.416202 0.937164
O O6 0.360489 0.250000 0.937878
O O7 0.363894 0.500000 0.000000
O O8 0.392135 0.500000 0.500000
O O9 0.342034 0.250000 0.552071
O O10 0.250000 0.500000 0.562696
O O11 0.389331 0.454693 0.627563
O O12 0.840811 0.250000 0.298797
O O13 0.750000 0.500000 0.307044
#
# Coordination Sequence:
#
# PCOD9502296 Si02
#       4
#    16  16  16  16
#     4  10  20  33  50  73 100 130 164 202 244 289
#     4   9  16  27  45  69  96 125 159 200 242 283
#     4   9  16  26  43  67  93 121 155 196 239 282
#     4  10  20  33  50  73 100 130 163 200 243 290
#
# _framework density 21.564374000000001
#
# number of rings (size 3 to 8) (size 9 to 14) (size 15 to 20)
#    0.000    2.500    0.000    3.750    0.000    7.500 
#    0.000    0.000    0.000    1.500    0.000    5.250 
#    0.000    0.000    0.000    0.000    0.000    0.000 
#
# Total GULP energy -178516.790758 kJ/mol
# GULP energy per Si atom -5578.649711 kJ/mol
# Density = 2.151529 g / cm^3
# Si number density = 21.564374 Si / 1000 Ang^3
#
#
#
# Elastic Constant Matrix: (Units=GPa)
#
#
# Indices 1 2 3 4 5 6 
#
# 1 36.1295 9.2616 9.8979 0.0000 0.0000 0.0000
# 2 9.2616 186.8836 131.0289 0.0000 0.0000 0.0000
# 3 9.8979 131.0289 245.4109 0.0000 0.0000 0.0000
# 4 0.0000 0.0000 0.0000 32.2088 0.0000 0.0000
# 5 0.0000 0.0000 0.0000 0.0000 -83.3995 0.0000
# 6 0.0000 0.0000 0.0000 0.0000 0.0000 11.2938
#
#
#
# Elastic Compliance Matrix: (Units=1/GPa)
#
#
# Indices 1 2 3 4 5 6 
#
# 1 0.028094 -0.000956 -0.000623 0.000000 0.000000 0.000000
# 2 -0.000956 0.008585 -0.004545 0.000000 0.000000 0.000000
# 3 -0.000623 -0.004545 0.006527 0.000000 0.000000 0.000000
# 4 0.000000 0.000000 0.000000 0.031047 0.000000 0.000000
# 5 0.000000 0.000000 0.000000 0.000000 -0.011990 0.000000
# 6 0.000000 0.000000 0.000000 0.000000 0.000000 0.088544
#
#
# Mechanical properties :
#
#
# Convention : Reuss Voigt Hill
#
# Bulk Modulus (GPa) = 32.30149 85.42231 58.86190
# Shear Modulus (GPa) = 28.83949 13.23630 21.03790
#
# Velocity S-wave (km/s) = 3.66097 2.48019 3.12683
# Velocity P-wave (km/s) = 5.73427 6.92102 6.35541
#
# Compressibility (1/GPa) = 0.03095832
#
# Stress axis : x y z
#
# Youngs Moduli (GPa) = 35.59498 116.48243 153.21823
#
# Poissons Ratio (x) = 0.11131 0.09544
# Poissons Ratio (y) = 0.03401 0.69640
# Poissons Ratio (z) = 0.02217 0.52943
#
# Static dielectric constant tensor:
#      x y z
#    x 1.875040 0.000000 0.000000 
#    y 0.000000 1.745460 0.000000 
#    z 0.000000 0.000000 1.811730 
# 
# From -- ./inp_files/31725.got.cif
#   From: 2010.05.17/outbox.cif.g08.bks.cpg/sg67_16_cif.got.tgz:31725.got - 2010.06.03 18:28:57.
