data_PCOD9502447
_publ_section_title
;
Structure prediction by ZEFSAII (Michael W. Deem and Ramdas Pophale) SiO2 
 PCOD9502447
Probable space group: C M M A
;
_chemical_formula_sum "Si O2"
_cell_formula_units_Z 100
_cell_length_a 21.598287
_cell_length_b 14.277470
_cell_length_c 14.960296
_cell_angle_alpha 90.000000
_cell_angle_beta 90.000000
_cell_angle_gamma 90.000000
_cell_volume 4613.289942
_symmetry_space_group_name_H-M "C M M A"
_symmetry_group_IT_number 67
_symmetry_cell_setting 'orthorhombic'
loop_
_space_group_symop_operation_xyz
x,y,z
-x,1/2-y,z
x,-y,-z
-x,1/2+y,-z
-x,-y,-z
x,1/2+y,-z
-x,y,z
x,1/2-y,z
1/2+x,1/2+y,z
1/2-x,-y,z
1/2+x,1/2-y,-z
1/2-x,y,-z
1/2-x,1/2-y,-z
1/2+x,y,-z
1/2-x,1/2+y,z
1/2+x,-y,z
loop_
_atom_site_type_symbol
_atom_site_label
_atom_site_fract_x
_atom_site_fract_y
_atom_site_fract_z
Si Si1 0.000000 0.750000 0.092818
Si Si2 0.774611 0.138270 0.898902
Si Si3 0.813578 0.250000 0.555513
Si Si4 0.815429 0.460193 0.602454
Si Si5 0.855642 0.856739 0.844652
Si Si6 0.570517 0.560311 0.308203
Si Si7 0.431417 0.250000 0.574705
Si Si8 0.399848 0.097955 0.039345
O O1 0.946818 0.667307 0.085673
O O2 0.785480 0.250000 0.886666
O O3 0.715912 0.111032 0.838676
O O4 0.750000 0.124231 0.000000
O O5 0.839668 0.085071 0.897223
O O6 0.750000 0.250000 0.500000
O O7 0.813613 0.348097 0.606548
O O8 0.873966 0.250000 0.492251
O O9 0.819320 0.500000 0.500000
O O10 0.750000 0.500000 0.637354
O O11 0.877219 0.494798 0.650203
O O12 0.856817 0.750000 0.810469
O O13 0.905849 0.914444 0.790223
O O14 0.874929 0.854297 0.948151
O O15 0.500000 0.524497 0.309514
O O16 0.571768 0.656965 0.364918
O O17 0.500000 0.250000 0.530697
O O18 0.424090 0.000000 0.000000
#
# Coordination Sequence:
#
# PCOD9502447 Si02
#       8
#     4  16   8  16  16  16   8  16
#     4  12  22  38  58  90 126 166 218 280 328 416
#     4   8  15  33  56  82 116 153 200 262 320 381
#     4  12  20  38  69  93 123 174 224 278 321 380
#     4  11  22  40  65  94 129 172 224 273 324 387
#     4  10  20  37  64  92 123 168 213 272 333 394
#     4  11  23  38  60  96 139 169 211 276 338 396
#     4  10  20  33  57  95 129 161 207 270 332 373
#     4  11  22  37  62  89 122 163 218 272 336 398
#
# _framework density 21.676503
#
# number of rings (size 3 to 8) (size 9 to 14) (size 15 to 20)
#    0.000    1.600    5.600    1.200    1.120    3.840 
#    2.880    0.000    0.000    0.960    0.000    0.000 
#    0.000    0.000    0.000    0.000    0.000    0.000 
#
# Total GULP energy -278696.744315 kJ/mol
# GULP energy per Si atom -5573.934886 kJ/mol
# Density = 2.162717 g / cm^3
# Si number density = 21.676503 Si / 1000 Ang^3
#
#
#
# Elastic Constant Matrix: (Units=GPa)
#
#
# Indices 1 2 3 4 5 6 
#
# 1 197.8294 53.5737 37.2003 0.0000 0.0000 0.0000
# 2 53.5737 132.2002 2.9011 0.0000 0.0000 0.0000
# 3 37.2003 2.9011 27.4399 0.0000 0.0000 0.0000
# 4 0.0000 0.0000 0.0000 10.5013 0.0000 0.0000
# 5 0.0000 0.0000 0.0000 0.0000 46.3949 0.0000
# 6 0.0000 0.0000 0.0000 0.0000 0.0000 46.0942
#
#
#
# Elastic Compliance Matrix: (Units=1/GPa)
#
#
# Indices 1 2 3 4 5 6 
#
# 1 0.007769 -0.002924 -0.010224 0.000000 0.000000 0.000000
# 2 -0.002924 0.008682 0.003046 0.000000 0.000000 0.000000
# 3 -0.010224 0.003046 0.049981 0.000000 0.000000 0.000000
# 4 0.000000 0.000000 0.000000 0.095226 0.000000 0.000000
# 5 0.000000 0.000000 0.000000 0.000000 0.021554 0.000000
# 6 0.000000 0.000000 0.000000 0.000000 0.000000 0.021695
#
#
# Mechanical properties :
#
#
# Convention : Reuss Voigt Hill
#
# Bulk Modulus (GPa) = 21.63095 60.53553 41.08324
# Shear Modulus (GPa) = 20.78826 38.18438 29.48632
#
# Velocity S-wave (km/s) = 3.10017 4.20164 3.69221
# Velocity P-wave (km/s) = 4.77654 7.17815 6.09677
#
# Compressibility (1/GPa) = 0.04623006
#
# Stress axis : x y z
#
# Youngs Moduli (GPa) = 128.71380 115.17536 20.00751
#
# Poissons Ratio (x) = 0.33678 0.20455
# Poissons Ratio (y) = 0.37637 -0.06095
# Poissons Ratio (z) = 1.31591 -0.35085
#
# Static dielectric constant tensor:
#      x y z
#    x 1.782250 0.000000 0.000000 
#    y 0.000000 1.762060 0.000000 
#    z 0.000000 0.000000 1.798920 
# 
# From -- ./inp_files/35037.got.cif
#   From: 2010.05.17/outbox.cif.g08.bks.cpg/sg67_18_cif.got.tgz:35037.got - 2010.06.03 18:28:57.
