data_PCOD9502274
_publ_section_title
;
Structure prediction by ZEFSAII (Michael W. Deem and Ramdas Pophale) SiO2 
 PCOD9502274
Probable space group: C M M A
;
_chemical_formula_sum "Si O2"
_cell_formula_units_Z 96
_cell_length_a 9.176918
_cell_length_b 14.503545
_cell_length_c 32.434304
_cell_angle_alpha 90.000000
_cell_angle_beta 90.000000
_cell_angle_gamma 90.000000
_cell_volume 4316.935907
_symmetry_space_group_name_H-M "C M M A"
_symmetry_group_IT_number 67
_symmetry_cell_setting 'orthorhombic'
loop_
_space_group_symop_operation_xyz
x,y,z
-x,1/2-y,z
x,-y,-z
-x,1/2+y,-z
-x,-y,-z
x,1/2+y,-z
-x,y,z
x,1/2-y,z
1/2+x,1/2+y,z
1/2-x,-y,z
1/2+x,1/2-y,-z
1/2-x,y,-z
1/2-x,1/2-y,-z
1/2+x,y,-z
1/2-x,1/2+y,z
1/2+x,-y,z
loop_
_atom_site_type_symbol
_atom_site_label
_atom_site_fract_x
_atom_site_fract_y
_atom_site_fract_z
Si Si1 0.666415 0.862709 0.541351
Si Si2 0.837993 0.642712 0.786617
Si Si3 0.833746 0.137374 0.376011
Si Si4 0.833826 0.862997 0.293213
Si Si5 0.674990 0.898694 0.959980
Si Si6 0.325874 0.599233 0.869176
O O1 0.500000 0.894833 0.541293
O O2 0.663707 0.750000 0.541365
O O3 0.750000 0.890624 0.500000
O O4 0.749696 0.890720 0.582739
O O5 0.856818 0.750000 0.776738
O O6 0.748656 0.605084 0.747927
O O7 0.747694 0.640723 0.828852
O O8 0.000000 0.601093 0.791673
O O9 0.836794 0.250000 0.376153
O O10 0.750792 0.110020 0.334502
O O11 0.000000 0.104918 0.376099
O O12 0.837979 0.750000 0.292868
O O13 0.000000 0.895355 0.293683
O O14 0.500000 0.905915 0.965778
O O15 0.700111 0.857060 0.914463
O O16 0.750000 0.000000 0.957999
O O17 0.750000 0.854337 0.000000
O O18 0.500000 0.593436 0.864049
O O19 0.250000 0.500000 0.871218
#
# Coordination Sequence:
#
# PCOD9502274 Si02
#       6
#    16  16  16  16  16  16
#     4   9  15  21  28  39  57  83 117 158 205 255
#     4  10  20  33  49  69  93 122 156 194 235 278
#     4   9  15  22  32  46  65  90 123 165 210 255
#     4   9  16  26  40  57  77 103 137 177 219 263
#     4   9  16  26  43  67  93 120 150 185 224 266
#     4  10  20  33  50  73  99 126 156 191 231 275
#
# _framework density 22.237995000000002
#
# number of rings (size 3 to 8) (size 9 to 14) (size 15 to 20)
#    0.000    2.667    0.000    3.500    0.000    9.000 
#    0.000    0.000    0.000    0.500    0.000    0.000 
#    0.000    0.000    0.000    0.000    0.000    0.833 
#
# Total GULP energy -268025.002366 kJ/mol
# GULP energy per Si atom -5583.854216 kJ/mol
# Density = 2.218738 g / cm^3
# Si number density = 22.237995 Si / 1000 Ang^3
#
#
#
# Elastic Constant Matrix: (Units=GPa)
#
#
# Indices 1 2 3 4 5 6 
#
# 1 233.5306 13.2392 155.0739 0.0000 0.0000 0.0000
# 2 13.2392 59.2132 9.1964 0.0000 0.0000 0.0000
# 3 155.0739 9.1964 262.2991 0.0000 0.0000 0.0000
# 4 0.0000 0.0000 0.0000 116.7313 0.0000 0.0000
# 5 0.0000 0.0000 0.0000 0.0000 39.8639 0.0000
# 6 0.0000 0.0000 0.0000 0.0000 0.0000 4.3394
#
#
#
# Elastic Compliance Matrix: (Units=1/GPa)
#
#
# Indices 1 2 3 4 5 6 
#
# 1 0.007101 -0.000941 -0.004165 0.000000 0.000000 0.000000
# 2 -0.000941 0.017105 -0.000043 0.000000 0.000000 0.000000
# 3 -0.004165 -0.000043 0.006277 0.000000 0.000000 0.000000
# 4 0.000000 0.000000 0.000000 0.008567 0.000000 0.000000
# 5 0.000000 0.000000 0.000000 0.000000 0.025085 0.000000
# 6 0.000000 0.000000 0.000000 0.000000 0.000000 0.230448
#
#
# Mechanical properties :
#
#
# Convention : Reuss Voigt Hill
#
# Bulk Modulus (GPa) = 49.54482 101.11797 75.33139
# Shear Modulus (GPa) = 16.04566 57.35580 36.70073
#
# Velocity S-wave (km/s) = 2.68907 5.08407 4.06687
# Velocity P-wave (km/s) = 5.65413 8.94613 7.48340
#
# Compressibility (1/GPa) = 0.02018375
#
# Stress axis : x y z
#
# Youngs Moduli (GPa) = 140.81562 58.46161 159.32082
#
# Poissons Ratio (x) = 0.05500 0.66365
# Poissons Ratio (y) = 0.13249 0.00693
# Poissons Ratio (z) = 0.58657 0.00254
#
# Static dielectric constant tensor:
#      x y z
#    x 1.766770 0.000000 0.000000 
#    y 0.000000 1.933350 0.000000 
#    z 0.000000 0.000000 1.804950 
# 
# From -- ./inp_files/43667.got.cif
#   From: 2010.05.17/outbox.cif.g08.bks.cpg/sg67_22_cif.got.tgz:43667.got - 2010.06.03 18:28:57.
