data_PCOD9502594
_publ_section_title
;
Structure prediction by ZEFSAII (Michael W. Deem and Ramdas Pophale) SiO2 
 PCOD9502594
Probable space group: C M M A
;
_chemical_formula_sum "Si O2"
_cell_formula_units_Z 112
_cell_length_a 14.732012
_cell_length_b 19.071289
_cell_length_c 18.464408
_cell_angle_alpha 90.000000
_cell_angle_beta 90.000000
_cell_angle_gamma 90.000000
_cell_volume 5187.731607
_symmetry_space_group_name_H-M "C M M A"
_symmetry_group_IT_number 67
_symmetry_cell_setting 'orthorhombic'
loop_
_space_group_symop_operation_xyz
x,y,z
-x,1/2-y,z
x,-y,-z
-x,1/2+y,-z
-x,-y,-z
x,1/2+y,-z
-x,y,z
x,1/2-y,z
1/2+x,1/2+y,z
1/2-x,-y,z
1/2+x,1/2-y,-z
1/2-x,y,-z
1/2-x,1/2-y,-z
1/2+x,y,-z
1/2-x,1/2+y,z
1/2+x,-y,z
loop_
_atom_site_type_symbol
_atom_site_label
_atom_site_fract_x
_atom_site_fract_y
_atom_site_fract_z
Si Si1 0.108106 0.458905 0.771623
Si Si2 0.641218 0.830100 0.998580
Si Si3 0.108291 0.001983 0.386908
Si Si4 0.767503 0.330378 0.737513
Si Si5 0.394999 0.969292 0.927029
Si Si6 0.901826 0.664798 0.836952
Si Si7 0.250905 0.118397 0.578734
O O1 0.125439 0.503712 0.699805
O O2 0.153579 0.384114 0.757138
O O3 0.142413 0.488037 0.848413
O O4 0.000000 0.450414 0.777569
O O5 0.610501 0.750000 0.986532
O O6 0.610827 0.854271 0.078795
O O7 0.750000 0.829554 0.000000
O O8 0.609452 0.885557 0.939303
O O9 0.163514 0.933637 0.414047
O O10 0.000000 0.999225 0.400363
O O11 0.160363 0.068451 0.418938
O O12 0.788926 0.250000 0.756306
O O13 0.680288 0.353101 0.784592
O O14 0.748629 0.336335 0.651636
O O15 0.500000 0.991808 0.926756
O O16 0.351894 0.000000 0.000000
O O17 0.903955 0.750000 0.837064
O O18 0.000000 0.638190 0.811433
O O19 0.250000 0.153768 0.500000
#
# Coordination Sequence:
#
# PCOD9502594 Si02
#       7
#    16  16  16  16  16  16  16
#     4   9  19  36  57  81 108 142 187 230 272 333
#     4  10  20  34  53  77 106 144 192 238 278 326
#     4   9  18  35  58  81 108 142 181 229 279 330
#     4  10  21  37  56  79 111 147 182 225 274 331
#     4  10  21  35  51  76 110 142 175 224 283 331
#     4   9  18  33  52  74 103 143 191 236 273 318
#     4  10  21  35  55  85 111 136 179 226 276 344
#
# _framework density 21.589397000000002
#
# number of rings (size 3 to 8) (size 9 to 14) (size 15 to 20)
#    0.000    2.429    0.000    2.143    0.000    6.286 
#    0.000    5.714    0.000    0.000    0.000    4.000 
#    0.000    0.000    0.000    0.000    0.000    0.000 
#
# Total GULP energy -312895.399819 kJ/mol
# GULP energy per Si atom -5587.417854 kJ/mol
# Density = 2.154026 g / cm^3
# Si number density = 21.589397 Si / 1000 Ang^3
#
#
#
# Elastic Constant Matrix: (Units=GPa)
#
#
# Indices 1 2 3 4 5 6 
#
# 1 98.5761 12.4056 18.3316 0.0000 0.0000 0.0000
# 2 12.4056 57.2308 10.3541 0.0000 0.0000 0.0000
# 3 18.3316 10.3541 153.8662 0.0000 0.0000 0.0000
# 4 0.0000 0.0000 0.0000 16.9688 0.0000 0.0000
# 5 0.0000 0.0000 0.0000 0.0000 23.3160 0.0000
# 6 0.0000 0.0000 0.0000 0.0000 0.0000 11.8507
#
#
#
# Elastic Compliance Matrix: (Units=1/GPa)
#
#
# Indices 1 2 3 4 5 6 
#
# 1 0.010617 -0.002098 -0.001124 0.000000 0.000000 0.000000
# 2 -0.002098 0.018103 -0.000968 0.000000 0.000000 0.000000
# 3 -0.001124 -0.000968 0.006698 0.000000 0.000000 0.000000
# 4 0.000000 0.000000 0.000000 0.058932 0.000000 0.000000
# 5 0.000000 0.000000 0.000000 0.000000 0.042889 0.000000
# 6 0.000000 0.000000 0.000000 0.000000 0.000000 0.084383
#
#
# Mechanical properties :
#
#
# Convention : Reuss Voigt Hill
#
# Bulk Modulus (GPa) = 36.98442 43.53950 40.26196
# Shear Modulus (GPa) = 20.91911 28.33256 24.62583
#
# Velocity S-wave (km/s) = 3.11618 3.62655 3.38101
# Velocity P-wave (km/s) = 5.48775 6.14383 5.82504
#
# Compressibility (1/GPa) = 0.02703841
#
# Stress axis : x y z
#
# Youngs Moduli (GPa) = 94.18429 55.23915 149.29394
#
# Poissons Ratio (x) = 0.11590 0.16777
# Poissons Ratio (y) = 0.19762 0.14455
# Poissons Ratio (z) = 0.10584 0.05348
#
# Static dielectric constant tensor:
#      x y z
#    x 1.757120 0.000000 0.000000 
#    y 0.000000 1.797970 0.000000 
#    z 0.000000 0.000000 1.821190 
# 
# From -- ./inp_files/27570.got.cif
#   From: 2010.05.17/outbox.cif.g08.bks.cpg/sg67_14_cif.got.tgz:27570.got - 2010.06.03 18:28:57.
