data_PCOD9502546
_publ_section_title
;
Structure prediction by ZEFSAII (Michael W. Deem and Ramdas Pophale) SiO2 
 PCOD9502546
Probable space group: C M M A
;
_chemical_formula_sum "Si O2"
_cell_formula_units_Z 80
_cell_length_a 8.614187
_cell_length_b 27.495836
_cell_length_c 18.951104
_cell_angle_alpha 90.000000
_cell_angle_beta 90.000000
_cell_angle_gamma 90.000000
_cell_volume 4488.649961
_symmetry_space_group_name_H-M "C M M A"
_symmetry_group_IT_number 67
_symmetry_cell_setting 'orthorhombic'
loop_
_space_group_symop_operation_xyz
x,y,z
-x,1/2-y,z
x,-y,-z
-x,1/2+y,-z
-x,-y,-z
x,1/2+y,-z
-x,y,z
x,1/2-y,z
1/2+x,1/2+y,z
1/2-x,-y,z
1/2+x,1/2-y,-z
1/2-x,y,-z
1/2-x,1/2-y,-z
1/2+x,y,-z
1/2-x,1/2+y,z
1/2+x,-y,z
loop_
_atom_site_type_symbol
_atom_site_label
_atom_site_fract_x
_atom_site_fract_y
_atom_site_fract_z
Si Si1 0.684326 0.649819 0.781115
Si Si2 0.184650 0.402276 0.576409
Si Si3 0.183861 0.191851 0.076057
Si Si4 0.814406 0.805564 0.640736
Si Si5 0.185233 0.447256 0.282275
O O1 0.500000 0.652886 0.771114
O O2 0.732350 0.666612 0.858583
O O3 0.766309 0.683040 0.721470
O O4 0.741850 0.595313 0.765218
O O5 0.250000 0.415165 0.500000
O O6 0.229899 0.346380 0.594298
O O7 0.262461 0.433864 0.638142
O O8 0.000000 0.407919 0.579179
O O9 0.208376 0.250000 0.082252
O O10 0.000000 0.182591 0.079296
O O11 0.250000 0.176688 0.000000
O O12 0.774382 0.750000 0.622735
O O13 0.000000 0.811849 0.633844
O O14 0.250000 0.500000 0.263552
O O15 0.000000 0.445886 0.277587
#
# Coordination Sequence:
#
# PCOD9502546 Si02
#       5
#    16  16  16  16  16
#     4  11  21  34  54  80 109 142 179 219 264 313
#     4  11  22  37  55  77 105 137 174 217 267 319
#     4  10  20  34  53  80 114 150 185 221 262 308
#     4  10  20  34  52  75 104 140 180 220 263 312
#     4  11  22  39  60  82 106 134 173 219 268 318
#
# _framework density 17.822731000000001
#
# number of rings (size 3 to 8) (size 9 to 14) (size 15 to 20)
#    0.000    1.400    0.000    9.600    0.000    6.000 
#    0.000    2.000    0.000    0.600    0.000    4.200 
#    0.000    0.000    0.000    0.000    0.000    0.000 
#
# Total GULP energy -223625.092843 kJ/mol
# GULP energy per Si atom -5590.627321 kJ/mol
# Density = 1.778217 g / cm^3
# Si number density = 17.822731 Si / 1000 Ang^3
#
#
#
# Elastic Constant Matrix: (Units=GPa)
#
#
# Indices 1 2 3 4 5 6 
#
# 1 77.5008 7.5914 9.2389 0.0000 0.0000 0.0000
# 2 7.5914 36.0300 -18.5087 0.0000 0.0000 0.0000
# 3 9.2389 -18.5087 55.7778 0.0000 0.0000 0.0000
# 4 0.0000 0.0000 0.0000 1.5319 0.0000 0.0000
# 5 0.0000 0.0000 0.0000 0.0000 33.3025 0.0000
# 6 0.0000 0.0000 0.0000 0.0000 0.0000 25.1920
#
#
#
# Elastic Compliance Matrix: (Units=1/GPa)
#
#
# Indices 1 2 3 4 5 6 
#
# 1 0.013856 -0.004941 -0.003935 0.000000 0.000000 0.000000
# 2 -0.004941 0.035220 0.012505 0.000000 0.000000 0.000000
# 3 -0.003935 0.012505 0.022730 0.000000 0.000000 0.000000
# 4 0.000000 0.000000 0.000000 0.652787 0.000000 0.000000
# 5 0.000000 0.000000 0.000000 0.000000 0.030028 0.000000
# 6 0.000000 0.000000 0.000000 0.000000 0.000000 0.039695
#
#
# Mechanical properties :
#
#
# Convention : Reuss Voigt Hill
#
# Bulk Modulus (GPa) = 12.64772 18.43908 15.54340
# Shear Modulus (GPa) = 6.14696 23.40439 14.77568
#
# Velocity S-wave (km/s) = 1.85915 3.62771 2.88242
# Velocity P-wave (km/s) = 3.42350 5.28349 4.45172
#
# Compressibility (1/GPa) = 0.07906564
#
# Stress axis : x y z
#
# Youngs Moduli (GPa) = 72.17050 28.39321 43.99545
#
# Poissons Ratio (x) = 0.14028 0.17310
# Poissons Ratio (y) = 0.35657 -0.55018
# Poissons Ratio (z) = 0.28396 -0.35507
#
# Static dielectric constant tensor:
#      x y z
#    x 1.593090 0.000000 0.000000 
#    y 0.000000 1.603130 0.000000 
#    z 0.000000 0.000000 1.588670 
# 
# From -- ./inp_files/32107.got.cif
#   From: 2010.05.17/outbox.cif.g08.bks.cpg/sg67_17_cif.got.tgz:32107.got - 2010.06.03 18:28:57.
