data_PCOD9502859
_publ_section_title
;
Structure prediction by ZEFSAII (Michael W. Deem and Ramdas Pophale) SiO2 
 PCOD9502859
Probable space group: C M M A
;
_chemical_formula_sum "Si O2"
_cell_formula_units_Z 72
_cell_length_a 8.819779
_cell_length_b 32.304077
_cell_length_c 13.680560
_cell_angle_alpha 90.000000
_cell_angle_beta 90.000000
_cell_angle_gamma 90.000000
_cell_volume 3897.794289
_symmetry_space_group_name_H-M "C M M A"
_symmetry_group_IT_number 67
_symmetry_cell_setting 'orthorhombic'
loop_
_space_group_symop_operation_xyz
x,y,z
-x,1/2-y,z
x,-y,-z
-x,1/2+y,-z
-x,-y,-z
x,1/2+y,-z
-x,y,z
x,1/2-y,z
1/2+x,1/2+y,z
1/2-x,-y,z
1/2+x,1/2-y,-z
1/2-x,y,-z
1/2-x,1/2-y,-z
1/2+x,y,-z
1/2-x,1/2+y,z
1/2+x,-y,z
loop_
_atom_site_type_symbol
_atom_site_label
_atom_site_fract_x
_atom_site_fract_y
_atom_site_fract_z
Si Si1 0.819993 0.668384 0.196047
Si Si2 0.318548 0.375357 0.397938
Si Si3 0.178976 0.250000 0.107399
Si Si4 0.181984 0.079386 0.894662
Si Si5 0.181450 0.543752 0.697780
O O1 0.786009 0.655080 0.307280
O O2 0.732916 0.708703 0.162098
O O3 0.785993 0.627723 0.130706
O O4 0.000000 0.676079 0.188051
O O5 0.500000 0.380247 0.404008
O O6 0.250000 0.360823 0.500000
O O7 0.243879 0.419143 0.369101
O O8 0.000000 0.250000 0.098663
O O9 0.250000 0.250000 0.000000
O O10 0.257502 0.053639 0.807066
O O11 0.000000 0.073728 0.892445
O O12 0.250000 0.068957 0.000000
O O13 0.250000 0.500000 0.666203
O O14 0.000000 0.542983 0.696918
#
# Coordination Sequence:
#
# PCOD9502859 Si02
#       5
#    16  16   8  16  16
#     4   9  20  38  58  81 113 146 182 227 274 324
#     4  10  21  39  62  86 111 144 183 227 278 332
#     4  12  24  36  57  86 117 150 187 226 270 322
#     4  10  20  35  55  80 109 146 187 228 277 334
#     4  11  22  37  56  80 111 145 184 232 279 329
#
# _framework density 18.471985
#
# number of rings (size 3 to 8) (size 9 to 14) (size 15 to 20)
#    0.000    1.778    0.000    6.333    0.000    8.000 
#    0.000    5.000    0.000    0.000    0.000    0.000 
#    0.000    0.000    0.000    0.000    0.000    0.000 
#
# Total GULP energy -201220.641693 kJ/mol
# GULP energy per Si atom -5589.462269 kJ/mol
# Density = 1.842994 g / cm^3
# Si number density = 18.471985 Si / 1000 Ang^3
#
#
#
# Elastic Constant Matrix: (Units=GPa)
#
#
# Indices 1 2 3 4 5 6 
#
# 1 105.4407 58.1060 38.6486 0.0000 0.0000 0.0000
# 2 58.1060 91.4142 14.6453 0.0000 0.0000 0.0000
# 3 38.6486 14.6453 83.3623 0.0000 0.0000 0.0000
# 4 0.0000 0.0000 0.0000 2.9588 0.0000 0.0000
# 5 0.0000 0.0000 0.0000 0.0000 35.2459 0.0000
# 6 0.0000 0.0000 0.0000 0.0000 0.0000 31.5005
#
#
#
# Elastic Compliance Matrix: (Units=1/GPa)
#
#
# Indices 1 2 3 4 5 6 
#
# 1 0.017277 -0.009979 -0.006257 0.000000 0.000000 0.000000
# 2 -0.009979 0.017020 0.001636 0.000000 0.000000 0.000000
# 3 -0.006257 0.001636 0.014609 0.000000 0.000000 0.000000
# 4 0.000000 0.000000 0.000000 0.337979 0.000000 0.000000
# 5 0.000000 0.000000 0.000000 0.000000 0.028372 0.000000
# 6 0.000000 0.000000 0.000000 0.000000 0.000000 0.031746
#
#
# Mechanical properties :
#
#
# Convention : Reuss Voigt Hill
#
# Bulk Modulus (GPa) = 50.74343 55.89079 53.31711
# Shear Modulus (GPa) = 10.35688 25.19551 17.77620
#
# Velocity S-wave (km/s) = 2.37044 3.69722 3.10551
# Velocity P-wave (km/s) = 5.91795 6.96769 6.46416
#
# Compressibility (1/GPa) = 0.01970698
#
# Stress axis : x y z
#
# Youngs Moduli (GPa) = 57.88139 58.75363 68.45066
#
# Poissons Ratio (x) = 0.58632 0.42827
# Poissons Ratio (y) = 0.57762 -0.11202
# Poissons Ratio (z) = 0.36215 -0.09615
#
# Static dielectric constant tensor:
#      x y z
#    x 1.609340 0.000000 0.000000 
#    y 0.000000 1.622620 0.000000 
#    z 0.000000 0.000000 1.625700 
# 
# From -- ./inp_files/25094.got.cif
#   From: 2010.05.17/outbox.cif.g08.bks.cpg/sg67_13_cif.got.tgz:25094.got - 2010.06.03 18:28:57.
