data_PCOD9502183
_publ_section_title
;
Structure prediction by ZEFSAII (Michael W. Deem and Ramdas Pophale) SiO2 
 PCOD9502183
Probable space group: C M M A
;
_chemical_formula_sum "Si O2"
_cell_formula_units_Z 80
_cell_length_a 8.697908
_cell_length_b 28.172870
_cell_length_c 19.253614
_cell_angle_alpha 90.000000
_cell_angle_beta 90.000000
_cell_angle_gamma 90.000000
_cell_volume 4718.002446
_symmetry_space_group_name_H-M "C M M A"
_symmetry_group_IT_number 67
_symmetry_cell_setting 'orthorhombic'
loop_
_space_group_symop_operation_xyz
x,y,z
-x,1/2-y,z
x,-y,-z
-x,1/2+y,-z
-x,-y,-z
x,1/2+y,-z
-x,y,z
x,1/2-y,z
1/2+x,1/2+y,z
1/2-x,-y,z
1/2+x,1/2-y,-z
1/2-x,y,-z
1/2-x,1/2-y,-z
1/2+x,y,-z
1/2-x,1/2+y,z
1/2+x,-y,z
loop_
_atom_site_type_symbol
_atom_site_label
_atom_site_fract_x
_atom_site_fract_y
_atom_site_fract_z
Si Si1 0.314501 0.352785 0.289779
Si Si2 0.187072 0.803055 0.146739
Si Si3 0.814559 0.898944 0.074388
Si Si4 0.683747 0.194818 0.574225
Si Si5 0.814903 0.948849 0.215869
O O1 0.500000 0.351325 0.294631
O O2 0.270187 0.318858 0.224959
O O3 0.244007 0.335279 0.361255
O O4 0.268973 0.405974 0.266982
O O5 0.241721 0.750000 0.130421
O O6 0.236069 0.845445 0.095679
O O7 0.000000 0.802639 0.145015
O O8 0.766795 0.932722 0.138156
O O9 0.000000 0.899212 0.072077
O O10 0.750000 0.912700 0.000000
O O11 0.500000 0.193217 0.571727
O O12 0.731923 0.250000 0.584137
O O13 0.750000 0.178991 0.500000
O O14 0.000000 0.950545 0.216199
O O15 0.750000 0.000000 0.233814
#
# Coordination Sequence:
#
# PCOD9502183 Si02
#       5
#    16  16  16  16  16
#     4   9  17  31  51  72  94 123 160 199 238 282
#     4   8  14  26  45  66  89 121 157 190 229 280
#     4   9  18  31  45  65  92 120 154 194 236 284
#     4  10  20  32  48  74 106 136 163 190 224 269
#     4   9  19  34  51  71  93 120 157 199 244 293
#
# _framework density 16.956327999999999
#
# number of rings (size 3 to 8) (size 9 to 14) (size 15 to 20)
#    0.000    3.000    0.000    3.600    0.000    4.400 
#    0.000    5.000    0.000    1.800    0.000    4.200 
#    0.000    0.000    0.000    0.000    0.000    0.000 
#
# Total GULP energy -222953.481765 kJ/mol
# GULP energy per Si atom -5573.837044 kJ/mol
# Density = 1.691773 g / cm^3
# Si number density = 16.956328 Si / 1000 Ang^3
#
#
#
# Elastic Constant Matrix: (Units=GPa)
#
#
# Indices 1 2 3 4 5 6 
#
# 1 10.9058 12.9111 21.6171 0.0000 0.0000 0.0000
# 2 12.9111 70.9350 22.5729 0.0000 0.0000 0.0000
# 3 21.6171 22.5729 106.9136 0.0000 0.0000 0.0000
# 4 0.0000 0.0000 0.0000 10.6841 0.0000 0.0000
# 5 0.0000 0.0000 0.0000 0.0000 28.3691 0.0000
# 6 0.0000 0.0000 0.0000 0.0000 0.0000 21.7802
#
#
#
# Elastic Compliance Matrix: (Units=1/GPa)
#
#
# Indices 1 2 3 4 5 6 
#
# 1 0.182415 -0.023011 -0.032025 0.000000 0.000000 0.000000
# 2 -0.023011 0.018016 0.000849 0.000000 0.000000 0.000000
# 3 -0.032025 0.000849 0.015649 0.000000 0.000000 0.000000
# 4 0.000000 0.000000 0.000000 0.093597 0.000000 0.000000
# 5 0.000000 0.000000 0.000000 0.000000 0.035250 0.000000
# 6 0.000000 0.000000 0.000000 0.000000 0.000000 0.045913
#
#
# Mechanical properties :
#
#
# Convention : Reuss Voigt Hill
#
# Bulk Modulus (GPa) = 9.28449 33.66185 21.47317
# Shear Modulus (GPa) = 9.34378 20.94358 15.14368
#
# Velocity S-wave (km/s) = 2.34999 3.51828 2.99172
# Velocity P-wave (km/s) = 3.58479 6.03321 4.96237
#
# Compressibility (1/GPa) = 0.10770648
#
# Stress axis : x y z
#
# Youngs Moduli (GPa) = 5.48200 55.50754 63.90092
#
# Poissons Ratio (x) = 1.27729 2.04640
# Poissons Ratio (y) = 0.12615 -0.05425
# Poissons Ratio (z) = 0.17556 -0.04713
#
# Static dielectric constant tensor:
#      x y z
#    x 1.573230 0.000000 0.000000 
#    y 0.000000 1.576700 0.000000 
#    z 0.000000 0.000000 1.549430 
# 
# From -- ./inp_files/29868.got.cif
#   From: 2010.05.17/outbox.cif.g08.bks.cpg/sg67_15_cif.got.tgz:29868.got - 2010.06.03 18:28:57.
