data_PCOD9502177
_publ_section_title
;
Structure prediction by ZEFSAII (Michael W. Deem and Ramdas Pophale) SiO2 
 PCOD9502177
Probable space group: C M M A
;
_chemical_formula_sum "Si O2"
_cell_formula_units_Z 104
_cell_length_a 25.267288
_cell_length_b 8.644240
_cell_length_c 27.039215
_cell_angle_alpha 90.000000
_cell_angle_beta 90.000000
_cell_angle_gamma 90.000000
_cell_volume 5905.810747
_symmetry_space_group_name_H-M "C M M A"
_symmetry_group_IT_number 67
_symmetry_cell_setting 'orthorhombic'
loop_
_space_group_symop_operation_xyz
x,y,z
-x,1/2-y,z
x,-y,-z
-x,1/2+y,-z
-x,-y,-z
x,1/2+y,-z
-x,y,z
x,1/2-y,z
1/2+x,1/2+y,z
1/2-x,-y,z
1/2+x,1/2-y,-z
1/2-x,y,-z
1/2-x,1/2-y,-z
1/2+x,y,-z
1/2-x,1/2+y,z
1/2+x,-y,z
loop_
_atom_site_type_symbol
_atom_site_label
_atom_site_fract_x
_atom_site_fract_y
_atom_site_fract_z
Si Si1 0.615355 0.064345 0.136974
Si Si2 0.915160 0.936484 0.364478
Si Si3 0.500000 0.938481 0.830236
Si Si4 0.500000 0.938372 0.716355
Si Si5 0.307053 0.065190 0.944801
Si Si6 0.500000 0.436429 0.445024
Si Si7 0.693660 0.066072 0.665929
Si Si8 0.192696 0.435778 0.218154
O O1 0.617211 0.250000 0.132674
O O2 0.554299 0.014734 0.143088
O O3 0.646664 0.990233 0.091325
O O4 0.647097 0.012187 0.185758
O O5 0.913211 0.750000 0.363647
O O6 0.948843 0.985725 0.315871
O O7 0.949176 0.983950 0.412301
O O8 0.856632 0.001937 0.362778
O O9 0.500000 0.750000 0.828877
O O10 0.500000 0.991801 0.772905
O O11 0.500000 0.750000 0.717145
O O12 0.304321 0.250000 0.946080
O O13 0.250000 0.000000 0.927534
O O14 0.315287 0.000000 0.000000
O O15 0.500000 0.250000 0.446755
O O16 0.500000 0.500000 0.500000
O O17 0.695138 0.250000 0.663045
O O18 0.686724 0.023355 0.723986
O O19 0.750000 0.000000 0.649342
O O20 0.191658 0.250000 0.212673
O O21 0.250000 0.500000 0.202133
#
# Coordination Sequence:
#
# PCOD9502177 Si02
#       8
#    16  16   8   8  16   8  16  16
#     4  11  21  35  54  77 104 137 174 211 252 300
#     4   9  17  31  52  76 103 135 174 214 257 305
#     4   9  19  32  50  75 104 139 176 207 242 291
#     4   8  14  28  50  75 101 134 173 212 250 293
#     4  11  22  39  61  84 105 127 159 205 258 309
#     4   9  19  34  54  80 106 135 170 215 265 312
#     4  10  20  32  48  72 104 140 176 211 253 303
#     4  10  20  33  49  74 105 138 174 213 255 301
#
# _framework density 17.609776
#
# number of rings (size 3 to 8) (size 9 to 14) (size 15 to 20)
#    0.000    2.154    0.000    5.538    0.000    3.692 
#    0.000    3.077    0.000    6.000    0.000    3.231 
#    0.000    0.000    0.000    0.000    0.000    0.000 
#
# Total GULP energy -290323.097238 kJ/mol
# GULP energy per Si atom -5583.136485 kJ/mol
# Density = 1.756969 g / cm^3
# Si number density = 17.609776 Si / 1000 Ang^3
#
#
#
# Elastic Constant Matrix: (Units=GPa)
#
#
# Indices 1 2 3 4 5 6 
#
# 1 191.1159 46.4661 82.9178 0.0000 0.0000 0.0000
# 2 46.4661 56.6145 35.1339 0.0000 0.0000 0.0000
# 3 82.9178 35.1339 101.6804 0.0000 0.0000 0.0000
# 4 0.0000 0.0000 0.0000 25.9237 0.0000 0.0000
# 5 0.0000 0.0000 0.0000 0.0000 12.0256 0.0000
# 6 0.0000 0.0000 0.0000 0.0000 0.0000 23.9986
#
#
#
# Elastic Compliance Matrix: (Units=1/GPa)
#
#
# Indices 1 2 3 4 5 6 
#
# 1 0.008594 -0.003442 -0.005819 0.000000 0.000000 0.000000
# 2 -0.003442 0.023864 -0.005438 0.000000 0.000000 0.000000
# 3 -0.005819 -0.005438 0.016459 0.000000 0.000000 0.000000
# 4 0.000000 0.000000 0.000000 0.038575 0.000000 0.000000
# 5 0.000000 0.000000 0.000000 0.000000 0.083156 0.000000
# 6 0.000000 0.000000 0.000000 0.000000 0.000000 0.041669
#
#
# Mechanical properties :
#
#
# Convention : Reuss Voigt Hill
#
# Bulk Modulus (GPa) = 51.23637 75.38292 63.30964
# Shear Modulus (GPa) = 20.14335 24.71578 22.42956
#
# Velocity S-wave (km/s) = 3.38579 3.75043 3.57276
# Velocity P-wave (km/s) = 6.66658 7.85205 7.28347
#
# Compressibility (1/GPa) = 0.01951738
#
# Stress axis : x y z
#
# Youngs Moduli (GPa) = 116.36218 41.90464 60.75778
#
# Poissons Ratio (x) = 0.14426 0.35352
# Poissons Ratio (y) = 0.40057 0.33043
# Poissons Ratio (z) = 0.67706 0.22790
#
# Static dielectric constant tensor:
#      x y z
#    x 1.595560 0.000000 0.000000 
#    y 0.000000 1.596640 0.000000 
#    z 0.000000 0.000000 1.589750 
# 
# From -- ./inp_files/44888.got.cif
#   From: 2010.05.17/outbox.cif.g08.bks.cpg/sg67_23_cif.got.tgz:44888.got - 2010.06.03 18:28:57.
