data_PCOD9502834
_publ_section_title
;
Structure prediction by ZEFSAII (Michael W. Deem and Ramdas Pophale) SiO2 
 PCOD9502834
Probable space group: C M M A
;
_chemical_formula_sum "Si O2"
_cell_formula_units_Z 80
_cell_length_a 19.982629
_cell_length_b 9.016999
_cell_length_c 26.205210
_cell_angle_alpha 90.000000
_cell_angle_beta 90.000000
_cell_angle_gamma 90.000000
_cell_volume 4721.742413
_symmetry_space_group_name_H-M "C M M A"
_symmetry_group_IT_number 67
_symmetry_cell_setting 'orthorhombic'
loop_
_space_group_symop_operation_xyz
x,y,z
-x,1/2-y,z
x,-y,-z
-x,1/2+y,-z
-x,-y,-z
x,1/2+y,-z
-x,y,z
x,1/2-y,z
1/2+x,1/2+y,z
1/2-x,-y,z
1/2+x,1/2-y,-z
1/2-x,y,-z
1/2-x,1/2-y,-z
1/2+x,y,-z
1/2-x,1/2+y,z
1/2+x,-y,z
loop_
_atom_site_type_symbol
_atom_site_label
_atom_site_fract_x
_atom_site_fract_y
_atom_site_fract_z
Si Si1 0.077802 0.571340 0.157365
Si Si2 0.579188 0.426362 0.554736
Si Si3 0.581502 0.579119 0.051840
Si Si4 0.178289 0.072032 0.753892
Si Si5 0.822686 0.071819 0.636111
O O1 0.080191 0.750000 0.153317
O O2 0.101457 0.502347 0.103898
O O3 0.123411 0.524494 0.204826
O O4 0.000000 0.529408 0.165368
O O5 0.594298 0.500000 0.500000
O O6 0.500000 0.448954 0.564647
O O7 0.591762 0.250000 0.552806
O O8 0.623694 0.502734 0.597885
O O9 0.500000 0.574907 0.051026
O O10 0.602133 0.750000 0.052437
O O11 0.604511 0.500000 0.000000
O O12 0.184657 0.250000 0.757041
O O13 0.159812 0.037036 0.695243
O O14 0.250000 0.000000 0.764629
O O15 0.819391 0.250000 0.630466
O O16 0.750000 0.000000 0.626246
#
# Coordination Sequence:
#
# PCOD9502834 Si02
#       5
#    16  16  16  16  16
#     4   9  17  30  48  71  98 127 162 202 242 288
#     4  10  21  37  56  79 107 137 169 207 253 303
#     4   9  16  26  42  66  95 126 159 197 243 291
#     4   9  19  34  52  73  99 133 167 202 246 294
#     4  10  20  35  55  78 104 135 173 213 252 298
#
# _framework density 16.942896999999999
#
# number of rings (size 3 to 8) (size 9 to 14) (size 15 to 20)
#    0.000    2.600    0.000    1.800    0.000    6.400 
#    0.000    4.000    0.000    3.000    0.000    4.200 
#    0.000    0.000    0.000    0.000    0.000    0.000 
#
# Total GULP energy -223055.359874 kJ/mol
# GULP energy per Si atom -5576.383997 kJ/mol
# Density = 1.690433 g / cm^3
# Si number density = 16.942897 Si / 1000 Ang^3
#
#
#
# Elastic Constant Matrix: (Units=GPa)
#
#
# Indices 1 2 3 4 5 6 
#
# 1 74.1509 51.2789 101.3330 0.0000 0.0000 0.0000
# 2 51.2789 70.6854 75.8909 0.0000 0.0000 0.0000
# 3 101.3330 75.8909 174.6031 0.0000 0.0000 0.0000
# 4 0.0000 0.0000 0.0000 30.5216 0.0000 0.0000
# 5 0.0000 0.0000 0.0000 0.0000 -32.2773 0.0000
# 6 0.0000 0.0000 0.0000 0.0000 0.0000 24.6056
#
#
#
# Elastic Compliance Matrix: (Units=1/GPa)
#
#
# Indices 1 2 3 4 5 6 
#
# 1 0.071670 -0.013754 -0.035617 0.000000 0.000000 0.000000
# 2 -0.013754 0.029165 -0.004694 0.000000 0.000000 0.000000
# 3 -0.035617 -0.004694 0.028438 0.000000 0.000000 0.000000
# 4 0.000000 0.000000 0.000000 0.032764 0.000000 0.000000
# 5 0.000000 0.000000 0.000000 0.000000 -0.030982 0.000000
# 6 0.000000 0.000000 0.000000 0.000000 0.000000 0.040641
#
#
# Mechanical properties :
#
#
# Convention : Reuss Voigt Hill
#
# Bulk Modulus (GPa) = 47.29491 86.27168 66.78329
# Shear Modulus (GPa) = 17.42922 10.63244 14.03083
#
# Velocity S-wave (km/s) = 3.21082 2.50780 2.88084
# Velocity P-wave (km/s) = 6.45916 7.70812 7.11111
#
# Compressibility (1/GPa) = 0.02114393
#
# Stress axis : x y z
#
# Youngs Moduli (GPa) = 13.95275 34.28780 35.16392
#
# Poissons Ratio (x) = 0.47159 1.25242
# Poissons Ratio (y) = 0.19190 0.16507
# Poissons Ratio (z) = 0.49695 0.16096
#
# Static dielectric constant tensor:
#      x y z
#    x 1.547810 0.000000 0.000000 
#    y 0.000000 1.567360 0.000000 
#    z 0.000000 0.000000 1.560540 
# 
# From -- ./inp_files/43237.got.cif
#   From: 2010.05.17/outbox.cif.g08.bks.cpg/sg67_22_cif.got.tgz:43237.got - 2010.06.03 18:28:57.
