data_PCOD9502938
_publ_section_title
;
Structure prediction by ZEFSAII (Michael W. Deem and Ramdas Pophale) SiO2 
 PCOD9502938
Probable space group: C M M A
;
_chemical_formula_sum "Si O2"
_cell_formula_units_Z 80
_cell_length_a 18.462842
_cell_length_b 8.743278
_cell_length_c 27.204528
_cell_angle_alpha 90.000000
_cell_angle_beta 90.000000
_cell_angle_gamma 90.000000
_cell_volume 4391.511615
_symmetry_space_group_name_H-M "C M M A"
_symmetry_group_IT_number 67
_symmetry_cell_setting 'orthorhombic'
loop_
_space_group_symop_operation_xyz
x,y,z
-x,1/2-y,z
x,-y,-z
-x,1/2+y,-z
-x,-y,-z
x,1/2+y,-z
-x,y,z
x,1/2-y,z
1/2+x,1/2+y,z
1/2-x,-y,z
1/2+x,1/2-y,-z
1/2-x,y,-z
1/2-x,1/2-y,-z
1/2+x,y,-z
1/2-x,1/2+y,z
1/2+x,-y,z
loop_
_atom_site_type_symbol
_atom_site_label
_atom_site_fract_x
_atom_site_fract_y
_atom_site_fract_z
Si Si1 0.415017 0.566684 0.349465
Si Si2 0.330671 0.933466 0.448452
Si Si3 0.668959 0.431725 0.257511
Si Si4 0.668270 0.933383 0.157017
Si Si5 0.168138 0.066966 0.049588
O O1 0.500000 0.532982 0.350439
O O2 0.405689 0.750000 0.343062
O O3 0.378413 0.525013 0.401321
O O4 0.376486 0.483219 0.304444
O O5 0.326725 0.750000 0.452018
O O6 0.359036 0.000000 0.500000
O O7 0.250000 0.000000 0.441733
O O8 0.674131 0.250000 0.254307
O O9 0.750000 0.500000 0.262497
O O10 0.635729 0.496772 0.206579
O O11 0.671437 0.750000 0.161436
O O12 0.635443 0.970643 0.103297
O O13 0.750000 0.000000 0.155930
O O14 0.172327 0.250000 0.045463
O O15 0.250000 0.000000 0.050809
O O16 0.133365 0.000000 0.000000
#
# Coordination Sequence:
#
# PCOD9502938 Si02
#       5
#    16  16  16  16  16
#     4  10  22  39  56  76 105 138 170 208 256 305
#     4  10  20  35  57  82 107 137 171 207 247 292
#     4  11  21  33  52  75  99 131 171 214 257 302
#     4   9  16  26  40  60  87 121 161 203 248 298
#     4   9  15  21  32  51  79 116 154 193 240 294
#
# _framework density 18.216961999999999
#
# number of rings (size 3 to 8) (size 9 to 14) (size 15 to 20)
#    0.000    2.200    0.000    6.600    0.000    6.400 
#    0.000    0.000    0.000    0.000    0.000    0.000 
#    0.000    0.800    0.000    2.600    0.000    9.800 
#
# Total GULP energy -223032.698820 kJ/mol
# GULP energy per Si atom -5575.817470 kJ/mol
# Density = 1.817550 g / cm^3
# Si number density = 18.216962 Si / 1000 Ang^3
#
#
#
# Elastic Constant Matrix: (Units=GPa)
#
#
# Indices 1 2 3 4 5 6 
#
# 1 32.9128 33.5349 56.1524 0.0000 0.0000 0.0000
# 2 33.5349 91.3257 89.3462 0.0000 0.0000 0.0000
# 3 56.1524 89.3462 228.0758 0.0000 0.0000 0.0000
# 4 0.0000 0.0000 0.0000 40.9588 0.0000 0.0000
# 5 0.0000 0.0000 0.0000 0.0000 -5.5954 0.0000
# 6 0.0000 0.0000 0.0000 0.0000 0.0000 11.4983
#
#
#
# Elastic Compliance Matrix: (Units=1/GPa)
#
#
# Indices 1 2 3 4 5 6 
#
# 1 0.059792 -0.012248 -0.009923 0.000000 0.000000 0.000000
# 2 -0.012248 0.020263 -0.004922 0.000000 0.000000 0.000000
# 3 -0.009923 -0.004922 0.008756 0.000000 0.000000 0.000000
# 4 0.000000 0.000000 0.000000 0.024415 0.000000 0.000000
# 5 0.000000 0.000000 0.000000 0.000000 -0.178717 0.000000
# 6 0.000000 0.000000 0.000000 0.000000 0.000000 0.086969
#
#
# Mechanical properties :
#
#
# Convention : Reuss Voigt Hill
#
# Bulk Modulus (GPa) = 28.88126 78.93125 53.90626
# Shear Modulus (GPa) = 57.33618 20.92440 39.13029
#
# Velocity S-wave (km/s) = 5.61626 3.39281 4.63970
# Velocity P-wave (km/s) = 7.61216 7.66621 7.63923
#
# Compressibility (1/GPa) = 0.03462453
#
# Stress axis : x y z
#
# Youngs Moduli (GPa) = 16.72464 49.35134 114.21023
#
# Poissons Ratio (x) = 0.60445 1.13329
# Poissons Ratio (y) = 0.20484 0.56218
# Poissons Ratio (z) = 0.16596 0.24292
#
# Static dielectric constant tensor:
#      x y z
#    x 1.584310 0.000000 0.000000 
#    y 0.000000 1.615410 0.000000 
#    z 0.000000 0.000000 1.688040 
# 
# From -- ./inp_files/44443.got.cif
#   From: 2010.05.17/outbox.cif.g08.bks.cpg/sg67_23_cif.got.tgz:44443.got - 2010.06.03 18:28:57.
