data_PCOD9502692
_publ_section_title
;
Structure prediction by ZEFSAII (Michael W. Deem and Ramdas Pophale) SiO2 
 PCOD9502692
Probable space group: C M M A
;
_chemical_formula_sum "Si O2"
_cell_formula_units_Z 96
_cell_length_a 25.745251
_cell_length_b 11.072391
_cell_length_c 17.362858
_cell_angle_alpha 90.000000
_cell_angle_beta 90.000000
_cell_angle_gamma 90.000000
_cell_volume 4949.482093
_symmetry_space_group_name_H-M "C M M A"
_symmetry_group_IT_number 67
_symmetry_cell_setting 'orthorhombic'
loop_
_space_group_symop_operation_xyz
x,y,z
-x,1/2-y,z
x,-y,-z
-x,1/2+y,-z
-x,-y,-z
x,1/2+y,-z
-x,y,z
x,1/2-y,z
1/2+x,1/2+y,z
1/2-x,-y,z
1/2+x,1/2-y,-z
1/2-x,y,-z
1/2-x,1/2-y,-z
1/2+x,y,-z
1/2-x,1/2+y,z
1/2+x,-y,z
loop_
_atom_site_type_symbol
_atom_site_label
_atom_site_fract_x
_atom_site_fract_y
_atom_site_fract_z
Si Si1 0.438416 0.884937 0.447084
Si Si2 0.386012 0.882699 0.281401
Si Si3 0.278531 0.619007 0.877306
Si Si4 0.106644 0.117036 0.947322
Si Si5 0.762911 0.378325 0.295388
Si Si6 0.440249 0.615690 0.787801
O O1 0.500000 0.893819 0.427318
O O2 0.431027 0.750000 0.482349
O O3 0.404687 0.888904 0.369745
O O4 0.426121 0.000000 0.500000
O O5 0.403880 0.750000 0.251343
O O6 0.323815 0.882861 0.275243
O O7 0.408947 0.000693 0.241662
O O8 0.257351 0.750000 0.903727
O O9 0.250000 0.500000 0.907331
O O10 0.338029 0.612434 0.902711
O O11 0.269596 0.618597 0.784799
O O12 0.104210 0.250000 0.986240
O O13 0.064195 0.113605 0.880091
O O14 0.102625 0.000000 0.000000
O O15 0.752213 0.250000 0.333943
O O16 0.750000 0.500000 0.340102
O O17 0.500000 0.605698 0.762974
O O18 0.420674 0.750000 0.763611
#
# Coordination Sequence:
#
# PCOD9502692 Si02
#       6
#    16  16  16  16  16  16
#     4   9  18  33  53  79 112 146 179 217 260 307
#     4  10  20  34  55  83 112 141 177 221 266 315
#     4   9  17  30  48  69  94 123 157 201 252 306
#     4  10  22  38  53  72 100 133 172 219 269 320
#     4   9  17  30  50  75 102 133 169 210 258 310
#     4  10  21  36  54  77 105 137 175 220 269 323
#
# _framework density 19.395968
#
# number of rings (size 3 to 8) (size 9 to 14) (size 15 to 20)
#    0.000    2.500    0.000    2.500    0.000    5.667 
#    0.000    3.333    0.000    0.500    0.000    3.500 
#    0.000    0.000    0.000    0.000    0.000    0.000 
#
# Total GULP energy -267371.148616 kJ/mol
# GULP energy per Si atom -5570.232263 kJ/mol
# Density = 1.935182 g / cm^3
# Si number density = 19.395968 Si / 1000 Ang^3
#
#
#
# Elastic Constant Matrix: (Units=GPa)
#
#
# Indices 1 2 3 4 5 6 
#
# 1 22.8234 37.3579 1.9557 0.0000 0.0000 0.0000
# 2 37.3579 232.6502 35.0652 0.0000 0.0000 0.0000
# 3 1.9557 35.0652 31.4305 0.0000 0.0000 0.0000
# 4 0.0000 0.0000 0.0000 23.5750 0.0000 0.0000
# 5 0.0000 0.0000 0.0000 0.0000 -41.9862 0.0000
# 6 0.0000 0.0000 0.0000 0.0000 0.0000 26.4937
#
#
#
# Elastic Compliance Matrix: (Units=1/GPa)
#
#
# Indices 1 2 3 4 5 6 
#
# 1 0.061319 -0.011145 0.008619 0.000000 0.000000 0.000000
# 2 -0.011145 0.007193 -0.007331 0.000000 0.000000 0.000000
# 3 0.008619 -0.007331 0.039459 0.000000 0.000000 0.000000
# 4 0.000000 0.000000 0.000000 0.042418 0.000000 0.000000
# 5 0.000000 0.000000 0.000000 0.000000 -0.023817 0.000000
# 6 0.000000 0.000000 0.000000 0.000000 0.000000 0.037745
#
#
# Mechanical properties :
#
#
# Convention : Reuss Voigt Hill
#
# Bulk Modulus (GPa) = 11.33074 48.40687 29.86881
# Shear Modulus (GPa) = 23.42460 15.78484 19.60472
#
# Velocity S-wave (km/s) = 3.47897 2.85585 3.18270
# Velocity P-wave (km/s) = 4.68958 5.99048 5.37950
#
# Compressibility (1/GPa) = 0.08825546
#
# Stress axis : x y z
#
# Youngs Moduli (GPa) = 16.30808 139.02494 25.34276
#
# Poissons Ratio (x) = 1.54949 -0.21842
# Poissons Ratio (y) = 0.18176 0.18579
# Poissons Ratio (z) = -0.14056 1.01923
#
# Static dielectric constant tensor:
#      x y z
#    x 1.682380 0.000000 0.000000 
#    y 0.000000 1.771850 0.000000 
#    z 0.000000 0.000000 1.645740 
# 
# From -- ./inp_files/35443.got.cif
#   From: 2010.05.17/outbox.cif.g08.bks.cpg/sg67_18_cif.got.tgz:35443.got - 2010.06.03 18:28:57.
