data_PCOD9502726
_publ_section_title
;
Structure prediction by ZEFSAII (Michael W. Deem and Ramdas Pophale) SiO2 
 PCOD9502726
Probable space group: C M M A
;
_chemical_formula_sum "Si O2"
_cell_formula_units_Z 96
_cell_length_a 18.221497
_cell_length_b 22.831650
_cell_length_c 11.356356
_cell_angle_alpha 90.000000
_cell_angle_beta 90.000000
_cell_angle_gamma 90.000000
_cell_volume 4724.548923
_symmetry_space_group_name_H-M "C M M A"
_symmetry_group_IT_number 67
_symmetry_cell_setting 'orthorhombic'
loop_
_space_group_symop_operation_xyz
x,y,z
-x,1/2-y,z
x,-y,-z
-x,1/2+y,-z
-x,-y,-z
x,1/2+y,-z
-x,y,z
x,1/2-y,z
1/2+x,1/2+y,z
1/2-x,-y,z
1/2+x,1/2-y,-z
1/2-x,y,-z
1/2-x,1/2-y,-z
1/2+x,y,-z
1/2-x,1/2+y,z
1/2+x,-y,z
loop_
_atom_site_type_symbol
_atom_site_label
_atom_site_fract_x
_atom_site_fract_y
_atom_site_fract_z
Si Si1 0.692378 0.313799 0.300475
Si Si2 0.085449 0.078605 0.976003
Si Si3 0.699066 0.087893 0.613982
Si Si4 0.834376 0.995799 0.824013
Si Si5 0.912967 0.182316 0.483561
Si Si6 0.170399 0.814546 0.027746
O O1 0.727511 0.250000 0.331898
O O2 0.747174 0.367990 0.315448
O O3 0.623511 0.319949 0.387006
O O4 0.667878 0.309943 0.167356
O O5 0.103469 0.145271 0.005725
O O6 0.000000 0.067197 0.964514
O O7 0.126760 0.057535 0.855902
O O8 0.120603 0.045098 0.086870
O O9 0.750000 0.071677 0.500000
O O10 0.671276 0.033746 0.694495
O O11 0.631122 0.130388 0.581324
O O12 0.750000 0.000000 0.861582
O O13 0.900872 0.250000 0.440769
O O14 0.000000 0.172300 0.484340
O O15 0.169652 0.750000 0.972624
O O16 0.250000 0.842107 0.000000
#
# Coordination Sequence:
#
# PCOD9502726 Si02
#       6
#    16  16  16  16  16  16
#     4   9  17  31  52  78 110 148 189 233 283 342
#     4  11  23  39  60  88 118 152 194 237 289 351
#     4  10  20  34  56  84 111 145 194 249 297 335
#     4  11  22  39  61  80 109 152 198 242 287 344
#     4   9  18  32  51  78 114 155 194 231 282 352
#     4  10  20  36  60  88 116 147 186 234 287 341
#
# _framework density 20.319400000000002
#
# number of rings (size 3 to 8) (size 9 to 14) (size 15 to 20)
#    0.000    2.000    0.000    5.500    0.000    4.667 
#    0.000    2.500    0.000    1.000    0.000   10.500 
#    0.000    0.000    0.000    0.000    0.000    0.000 
#
# Total GULP energy -267471.766246 kJ/mol
# GULP energy per Si atom -5572.328463 kJ/mol
# Density = 2.027315 g / cm^3
# Si number density = 20.319400 Si / 1000 Ang^3
#
#
#
# Elastic Constant Matrix: (Units=GPa)
#
#
# Indices 1 2 3 4 5 6 
#
# 1 147.9923 38.4202 22.1056 0.0000 0.0000 0.0000
# 2 38.4202 69.3636 19.2782 0.0000 0.0000 0.0000
# 3 22.1056 19.2782 55.7898 0.0000 0.0000 0.0000
# 4 0.0000 0.0000 0.0000 27.2831 0.0000 0.0000
# 5 0.0000 0.0000 0.0000 0.0000 10.6698 0.0000
# 6 0.0000 0.0000 0.0000 0.0000 0.0000 -58.0183
#
#
#
# Elastic Compliance Matrix: (Units=1/GPa)
#
#
# Indices 1 2 3 4 5 6 
#
# 1 0.008057 -0.003955 -0.001826 0.000000 0.000000 0.000000
# 2 -0.003955 0.017890 -0.004615 0.000000 0.000000 0.000000
# 3 -0.001826 -0.004615 0.020242 0.000000 0.000000 0.000000
# 4 0.000000 0.000000 0.000000 0.036653 0.000000 0.000000
# 5 0.000000 0.000000 0.000000 0.000000 0.093722 0.000000
# 6 0.000000 0.000000 0.000000 0.000000 0.000000 -0.017236
#
#
# Mechanical properties :
#
#
# Convention : Reuss Voigt Hill
#
# Bulk Modulus (GPa) = 39.37300 48.08375 43.72837
# Shear Modulus (GPa) = 26.51320 8.87637 17.69479
#
# Velocity S-wave (km/s) = 3.61615 2.09234 2.95419
# Velocity P-wave (km/s) = 6.07079 5.43622 5.76225
#
# Compressibility (1/GPa) = 0.02539812
#
# Stress axis : x y z
#
# Youngs Moduli (GPa) = 124.12218 55.89681 49.40116
#
# Poissons Ratio (x) = 0.22108 0.09018
# Poissons Ratio (y) = 0.49092 0.22798
# Poissons Ratio (z) = 0.22659 0.25795
#
# Static dielectric constant tensor:
#      x y z
#    x 1.676100 0.000000 0.000000 
#    y 0.000000 1.942330 0.000000 
#    z 0.000000 0.000000 1.731110 
# 
# From -- ./inp_files/19641.got.cif
#   From: 2010.05.17/outbox.cif.g08.bks.cpg/sg67_10_cif.got.tgz:19641.got - 2010.06.03 18:28:57.
