data_PCOD9502917
_publ_section_title
;
Structure prediction by ZEFSAII (Michael W. Deem and Ramdas Pophale) SiO2 
 PCOD9502917
Probable space group: C M M A
;
_chemical_formula_sum "Si O2"
_cell_formula_units_Z 96
_cell_length_a 29.135306
_cell_length_b 8.739287
_cell_length_c 20.937101
_cell_angle_alpha 90.000000
_cell_angle_beta 90.000000
_cell_angle_gamma 90.000000
_cell_volume 5331.042364
_symmetry_space_group_name_H-M "C M M A"
_symmetry_group_IT_number 67
_symmetry_cell_setting 'orthorhombic'
loop_
_space_group_symop_operation_xyz
x,y,z
-x,1/2-y,z
x,-y,-z
-x,1/2+y,-z
-x,-y,-z
x,1/2+y,-z
-x,y,z
x,1/2-y,z
1/2+x,1/2+y,z
1/2-x,-y,z
1/2+x,1/2-y,-z
1/2-x,y,-z
1/2-x,1/2-y,-z
1/2+x,y,-z
1/2-x,1/2+y,z
1/2+x,-y,z
loop_
_atom_site_type_symbol
_atom_site_label
_atom_site_fract_x
_atom_site_fract_y
_atom_site_fract_z
Si Si1 0.102656 0.567042 0.567827
Si Si2 0.445397 0.931538 0.692412
Si Si3 0.798521 0.432825 0.761983
Si Si4 0.554011 0.067145 0.069784
Si Si5 0.202172 0.433070 0.380899
Si Si6 0.109169 0.432253 0.188012
O O1 0.087907 0.500000 0.500000
O O2 0.097318 0.750000 0.568960
O O3 0.074912 0.494314 0.626314
O O4 0.156656 0.531640 0.579135
O O5 0.500000 0.955239 0.694986
O O6 0.436188 0.750000 0.697436
O O7 0.420809 0.015249 0.751084
O O8 0.797120 0.250000 0.760391
O O9 0.750000 0.500000 0.784883
O O10 0.804562 0.495675 0.689627
O O11 0.841056 0.492377 0.802848
O O12 0.500000 0.035680 0.082491
O O13 0.560205 0.250000 0.069982
O O14 0.584311 0.991325 0.124542
O O15 0.564702 0.000000 0.000000
O O16 0.206279 0.250000 0.374690
O O17 0.250000 0.500000 0.406804
O O18 0.113292 0.250000 0.187724
#
# Coordination Sequence:
#
# PCOD9502917 Si02
#       6
#    16  16  16  16  16  16
#     4  11  24  40  59  81 111 149 192 238 293 354
#     4  11  24  41  61  85 112 146 192 244 296 348
#     4  11  21  35  58  86 118 153 191 239 290 343
#     4  10  21  38  60  89 125 163 202 243 291 344
#     4  10  20  35  56  83 112 146 186 233 288 348
#     4  12  23  37  60  90 122 157 197 239 289 344
#
# _framework density 18.007736000000001
#
# number of rings (size 3 to 8) (size 9 to 14) (size 15 to 20)
#    0.000    1.167    1.667    6.500    0.000    7.000 
#    0.000    1.667    0.000    0.500    0.000    3.500 
#    0.000    0.000    0.000    0.000    0.000    0.000 
#
# Total GULP energy -268449.037471 kJ/mol
# GULP energy per Si atom -5592.688281 kJ/mol
# Density = 1.796675 g / cm^3
# Si number density = 18.007736 Si / 1000 Ang^3
#
#
#
# Elastic Constant Matrix: (Units=GPa)
#
#
# Indices 1 2 3 4 5 6 
#
# 1 88.1582 60.3362 59.1251 0.0000 0.0000 0.0000
# 2 60.3362 108.5296 47.6359 0.0000 0.0000 0.0000
# 3 59.1251 47.6359 110.9992 0.0000 0.0000 0.0000
# 4 0.0000 0.0000 0.0000 30.9012 0.0000 0.0000
# 5 0.0000 0.0000 0.0000 0.0000 61.4990 0.0000
# 6 0.0000 0.0000 0.0000 0.0000 0.0000 29.9492
#
#
#
# Elastic Compliance Matrix: (Units=1/GPa)
#
#
# Indices 1 2 3 4 5 6 
#
# 1 0.023371 -0.009276 -0.008468 0.000000 0.000000 0.000000
# 2 -0.009276 0.015034 -0.001511 0.000000 0.000000 0.000000
# 3 -0.008468 -0.001511 0.014168 0.000000 0.000000 0.000000
# 4 0.000000 0.000000 0.000000 0.032361 0.000000 0.000000
# 5 0.000000 0.000000 0.000000 0.000000 0.016260 0.000000
# 6 0.000000 0.000000 0.000000 0.000000 0.000000 0.033390
#
#
# Mechanical properties :
#
#
# Convention : Reuss Voigt Hill
#
# Bulk Modulus (GPa) = 71.10756 71.32017 71.21386
# Shear Modulus (GPa) = 28.12408 33.84253 30.98331
#
# Velocity S-wave (km/s) = 3.95622 4.33983 4.15246
# Velocity P-wave (km/s) = 7.77444 8.05006 7.91345
#
# Compressibility (1/GPa) = 0.01406320
#
# Stress axis : x y z
#
# Youngs Moduli (GPa) = 42.78751 66.51439 70.58104
#
# Poissons Ratio (x) = 0.61701 0.59768
# Poissons Ratio (y) = 0.39691 0.10664
# Poissons Ratio (z) = 0.36233 0.10050
#
# Static dielectric constant tensor:
#      x y z
#    x 1.620220 0.000000 0.000000 
#    y 0.000000 1.599080 0.000000 
#    z 0.000000 0.000000 1.581520 
# 
# From -- ./inp_files/39882.got.cif
#   From: 2010.05.17/outbox.cif.g08.bks.cpg/sg67_20_cif.got.tgz:39882.got - 2010.06.03 18:28:57.
