data_PCOD9502502
_publ_section_title
;
Structure prediction by ZEFSAII (Michael W. Deem and Ramdas Pophale) SiO2 
 PCOD9502502
Probable space group: C M M A
;
_chemical_formula_sum "Si O2"
_cell_formula_units_Z 96
_cell_length_a 14.256008
_cell_length_b 9.578965
_cell_length_c 31.943014
_cell_angle_alpha 90.000000
_cell_angle_beta 90.000000
_cell_angle_gamma 90.000000
_cell_volume 4362.067771
_symmetry_space_group_name_H-M "C M M A"
_symmetry_group_IT_number 67
_symmetry_cell_setting 'orthorhombic'
loop_
_space_group_symop_operation_xyz
x,y,z
-x,1/2-y,z
x,-y,-z
-x,1/2+y,-z
-x,-y,-z
x,1/2+y,-z
-x,y,z
x,1/2-y,z
1/2+x,1/2+y,z
1/2-x,-y,z
1/2+x,1/2-y,-z
1/2-x,y,-z
1/2-x,1/2-y,-z
1/2+x,y,-z
1/2-x,1/2+y,z
1/2+x,-y,z
loop_
_atom_site_type_symbol
_atom_site_label
_atom_site_fract_x
_atom_site_fract_y
_atom_site_fract_z
Si Si1 0.385510 0.591426 0.287989
Si Si2 0.651565 0.082169 0.961286
Si Si3 0.114602 0.406958 0.791600
Si Si4 0.614251 0.589718 0.539440
Si Si5 0.890915 0.096608 0.134528
Si Si6 0.614294 0.588975 0.632605
O O1 0.500000 0.595424 0.288184
O O2 0.351580 0.750000 0.286882
O O3 0.358570 0.505437 0.246876
O O4 0.356406 0.510855 0.329910
O O5 0.658432 0.250000 0.969595
O O6 0.610710 0.066856 0.914895
O O7 0.750000 0.000000 0.957791
O O8 0.604373 0.000000 0.000000
O O9 0.149732 0.250000 0.786617
O O10 0.145236 0.476070 0.835324
O O11 0.000000 0.399431 0.791165
O O12 0.645182 0.500000 0.500000
O O13 0.500000 0.589358 0.538925
O O14 0.644385 0.750000 0.535112
O O15 0.641458 0.540258 0.585957
O O16 0.846747 0.250000 0.141077
O O17 0.000000 0.109025 0.146302
O O18 0.500000 0.591669 0.633369
O O19 0.644599 0.750000 0.638544
#
# Coordination Sequence:
#
# PCOD9502502 Si02
#       6
#    16  16  16  16  16  16
#     4   9  15  21  30  44  62  85 112 143 181 228
#     4  10  20  34  52  71  93 121 150 181 215 253
#     4   9  16  25  38  56  77 101 127 157 196 241
#     4   8  13  19  25  32  43  61  87 124 171 220
#     4   9  18  32  48  67  91 117 145 178 216 255
#     4   8  13  20  27  35  49  70  98 133 174 222
#
# _framework density 22.007911
#
# number of rings (size 3 to 8) (size 9 to 14) (size 15 to 20)
#    0.000    3.167    0.000    3.000    0.000    6.333 
#    0.000    3.333    0.000    0.000    0.000    0.000 
#    0.000    0.000    0.000    0.000    0.000    0.000 
#
# Total GULP energy -267832.749627 kJ/mol
# GULP energy per Si atom -5579.848951 kJ/mol
# Density = 2.195782 g / cm^3
# Si number density = 22.007911 Si / 1000 Ang^3
#
#
#
# Elastic Constant Matrix: (Units=GPa)
#
#
# Indices 1 2 3 4 5 6 
#
# 1 62.4641 11.4672 -4.6325 0.0000 0.0000 0.0000
# 2 11.4672 184.0023 140.7494 0.0000 0.0000 0.0000
# 3 -4.6325 140.7494 204.3236 0.0000 0.0000 0.0000
# 4 0.0000 0.0000 0.0000 46.9812 0.0000 0.0000
# 5 0.0000 0.0000 0.0000 0.0000 -572.0261 0.0000
# 6 0.0000 0.0000 0.0000 0.0000 0.0000 -0.6342
#
#
#
# Elastic Compliance Matrix: (Units=1/GPa)
#
#
# Indices 1 2 3 4 5 6 
#
# 1 0.016697 -0.002812 0.002315 0.000000 0.000000 0.000000
# 2 -0.002812 0.011962 -0.008304 0.000000 0.000000 0.000000
# 3 0.002315 -0.008304 0.010667 0.000000 0.000000 0.000000
# 4 0.000000 0.000000 0.000000 0.021285 0.000000 0.000000
# 5 0.000000 0.000000 0.000000 0.000000 -0.001748 0.000000
# 6 0.000000 0.000000 0.000000 0.000000 0.000000 -1.576754
#
#
# Mechanical properties :
#
#
# Convention : Reuss Voigt Hill
#
# Bulk Modulus (GPa) = 46.02858 82.88423 64.45640
# Shear Modulus (GPa) = -3.34885 -84.92209 -44.13547
#
# Velocity S-wave (km/s) = -1.23489 -6.21859 -4.48307
# Velocity P-wave (km/s) = 4.35048 3.71729 1.59819
#
# Compressibility (1/GPa) = 0.02172563
#
# Stress axis : x y z
#
# Youngs Moduli (GPa) = 59.89069 83.60075 93.75012
#
# Poissons Ratio (x) = 0.23506 -0.21707
# Poissons Ratio (y) = 0.16840 0.77846
# Poissons Ratio (z) = -0.13867 0.69418
#
# Static dielectric constant tensor:
#      x y z
#    x 1.981430 0.000000 0.000000 
#    y 0.000000 1.770210 0.000000 
#    z 0.000000 0.000000 1.794990 
# 
# From -- ./inp_files/44787.got.cif
#   From: 2010.05.17/outbox.cif.g08.bks.cpg/sg67_23_cif.got.tgz:44787.got - 2010.06.03 18:28:57.
