data_PCOD9502519
_publ_section_title
;
Structure prediction by ZEFSAII (Michael W. Deem and Ramdas Pophale) SiO2 
 PCOD9502519
Probable space group: C M M A
;
_chemical_formula_sum "Si O2"
_cell_formula_units_Z 104
_cell_length_a 21.364363
_cell_length_b 8.486836
_cell_length_c 30.750112
_cell_angle_alpha 90.000000
_cell_angle_beta 90.000000
_cell_angle_gamma 90.000000
_cell_volume 5575.482542
_symmetry_space_group_name_H-M "C M M A"
_symmetry_group_IT_number 67
_symmetry_cell_setting 'orthorhombic'
loop_
_space_group_symop_operation_xyz
x,y,z
-x,1/2-y,z
x,-y,-z
-x,1/2+y,-z
-x,-y,-z
x,1/2+y,-z
-x,y,z
x,1/2-y,z
1/2+x,1/2+y,z
1/2-x,-y,z
1/2+x,1/2-y,-z
1/2-x,y,-z
1/2-x,1/2-y,-z
1/2+x,y,-z
1/2-x,1/2+y,z
1/2+x,-y,z
loop_
_atom_site_type_symbol
_atom_site_label
_atom_site_fract_x
_atom_site_fract_y
_atom_site_fract_z
Si Si1 0.427836 0.439664 0.885828
Si Si2 0.928554 0.060799 0.301449
Si Si3 0.000000 0.439151 0.450919
Si Si4 0.924273 0.929419 0.207921
Si Si5 0.818281 0.439614 0.049189
Si Si6 0.862234 0.559776 0.548950
Si Si7 0.814908 0.059548 0.361266
O O1 0.500000 0.495388 0.893458
O O2 0.429723 0.250000 0.887203
O O3 0.406929 0.490837 0.837559
O O4 0.376276 0.493007 0.920781
O O5 0.931381 0.250000 0.305124
O O6 0.875905 0.004337 0.334899
O O7 0.000000 0.001836 0.309155
O O8 0.908215 0.017202 0.252506
O O9 0.000000 0.500000 0.500000
O O10 0.067868 0.489410 0.434907
O O11 0.000000 0.250000 0.448945
O O12 0.901655 0.750000 0.209334
O O13 0.000000 0.927584 0.207492
O O14 0.816911 0.250000 0.048862
O O15 0.750000 0.500000 0.064308
O O16 0.826867 0.500000 0.000000
O O17 0.850361 0.500000 0.500000
O O18 0.860708 0.750000 0.546408
O O19 0.819152 0.506126 0.588391
O O20 0.815529 0.250000 0.361071
O O21 0.750000 0.000000 0.341903
#
# Coordination Sequence:
#
# PCOD9502519 Si02
#       7
#    16  16   8  16  16  16  16
#     4   9  18  33  53  77 105 137 174 215 259 308
#     4   9  18  34  57  79  99 130 171 209 248 300
#     4   8  14  26  46  70  96 120 150 196 240 278
#     4   9  17  30  51  80 109 133 162 207 261 309
#     4  10  20  34  52  73 102 141 181 221 262 308
#     4   9  18  32  51  74  99 129 164 203 246 293
#     4  10  22  37  53  75 103 135 168 205 250 299
#
# _framework density 18.653092999999998
#
# number of rings (size 3 to 8) (size 9 to 14) (size 15 to 20)
#    0.000    2.769    0.000    1.385    1.077    4.923 
#    0.000    2.308    0.000    0.000    0.000    0.000 
#    0.000    0.000    0.000    0.000    0.000    0.000 
#
# Total GULP energy -289586.947923 kJ/mol
# GULP energy per Si atom -5568.979768 kJ/mol
# Density = 1.861064 g / cm^3
# Si number density = 18.653093 Si / 1000 Ang^3
#
#
#
# Elastic Constant Matrix: (Units=GPa)
#
#
# Indices 1 2 3 4 5 6 
#
# 1 127.1505 18.8175 81.4657 0.0000 0.0000 0.0000
# 2 18.8175 11.1755 14.8697 0.0000 0.0000 0.0000
# 3 81.4657 14.8697 116.9053 0.0000 0.0000 0.0000
# 4 0.0000 0.0000 0.0000 16.8492 0.0000 0.0000
# 5 0.0000 0.0000 0.0000 0.0000 7.9030 0.0000
# 6 0.0000 0.0000 0.0000 0.0000 0.0000 20.3678
#
#
#
# Elastic Compliance Matrix: (Units=1/GPa)
#
#
# Indices 1 2 3 4 5 6 
#
# 1 0.015954 -0.014530 -0.009269 0.000000 0.000000 0.000000
# 2 -0.014530 0.120943 -0.005258 0.000000 0.000000 0.000000
# 3 -0.009269 -0.005258 0.015682 0.000000 0.000000 0.000000
# 4 0.000000 0.000000 0.000000 0.059350 0.000000 0.000000
# 5 0.000000 0.000000 0.000000 0.000000 0.126534 0.000000
# 6 0.000000 0.000000 0.000000 0.000000 0.000000 0.049097
#
#
# Mechanical properties :
#
#
# Convention : Reuss Voigt Hill
#
# Bulk Modulus (GPa) = 10.58599 53.94857 32.26728
# Shear Modulus (GPa) = 10.47858 18.36256 14.42057
#
# Velocity S-wave (km/s) = 2.37272 3.14096 2.78347
# Velocity P-wave (km/s) = 3.63234 6.49146 5.25989
#
# Compressibility (1/GPa) = 0.09446450
#
# Stress axis : x y z
#
# Youngs Moduli (GPa) = 62.68008 8.26832 63.76670
#
# Poissons Ratio (x) = 0.12014 0.59108
# Poissons Ratio (y) = 0.91075 0.33529
# Poissons Ratio (z) = 0.58101 0.04348
#
# Static dielectric constant tensor:
#      x y z
#    x 1.679160 0.000000 0.000000 
#    y 0.000000 1.657670 0.000000 
#    z 0.000000 0.000000 1.631820 
# 
# From -- ./inp_files/45860.got.cif
#   From: 2010.05.17/outbox.cif.g08.bks.cpg/sg67_23_cif.got.tgz:45860.got - 2010.06.03 18:28:57.
