data_PCOD9502172
_publ_section_title
;
Structure prediction by ZEFSAII (Michael W. Deem and Ramdas Pophale) SiO2 
 PCOD9502172
Probable space group: C M M A
;
_chemical_formula_sum "Si O2"
_cell_formula_units_Z 96
_cell_length_a 18.931394
_cell_length_b 8.879305
_cell_length_c 32.280948
_cell_angle_alpha 90.000000
_cell_angle_beta 90.000000
_cell_angle_gamma 90.000000
_cell_volume 5426.350575
_symmetry_space_group_name_H-M "C M M A"
_symmetry_group_IT_number 67
_symmetry_cell_setting 'orthorhombic'
loop_
_space_group_symop_operation_xyz
x,y,z
-x,1/2-y,z
x,-y,-z
-x,1/2+y,-z
-x,-y,-z
x,1/2+y,-z
-x,y,z
x,1/2-y,z
1/2+x,1/2+y,z
1/2-x,-y,z
1/2+x,1/2-y,-z
1/2-x,y,-z
1/2-x,1/2-y,-z
1/2+x,y,-z
1/2-x,1/2+y,z
1/2+x,-y,z
loop_
_atom_site_type_symbol
_atom_site_label
_atom_site_fract_x
_atom_site_fract_y
_atom_site_fract_z
Si Si1 0.828196 0.069940 0.632778
Si Si2 0.914104 0.424190 0.201316
Si Si3 0.582733 0.431801 0.706821
Si Si4 0.172351 0.070572 0.043289
Si Si5 0.671051 0.430087 0.458865
Si Si6 0.584873 0.074350 0.115985
O O1 0.822882 0.250000 0.635966
O O2 0.859073 0.035352 0.586761
O O3 0.750000 0.000000 0.635114
O O4 0.874289 0.004611 0.669789
O O5 0.892601 0.250000 0.195372
O O6 0.891402 0.476829 0.247033
O O7 0.892550 0.521643 0.161904
O O8 0.000000 0.424991 0.202620
O O9 0.500000 0.471562 0.703249
O O10 0.587811 0.250000 0.705038
O O11 0.177585 0.250000 0.039562
O O12 0.250000 0.000000 0.050088
O O13 0.122745 0.023135 0.081060
O O14 0.145743 0.000000 0.000000
O O15 0.636298 0.500000 0.500000
O O16 0.675598 0.250000 0.463454
O O17 0.750000 0.500000 0.457494
O O18 0.500000 0.055672 0.113362
O O19 0.601404 0.250000 0.109787
#
# Coordination Sequence:
#
# PCOD9502172 Si02
#       6
#    16  16  16  16  16  16
#     4  10  20  32  48  72 101 130 162 204 250 295
#     4   8  15  30  51  74 100 131 167 206 249 296
#     4   9  18  33  53  75 100 132 168 204 246 299
#     4  11  22  38  58  78 105 139 174 210 251 301
#     4   9  16  26  42  65  91 121 157 197 242 291
#     4  10  20  34  54  81 109 135 168 210 253 296
#
# _framework density 17.691448000000001
#
# number of rings (size 3 to 8) (size 9 to 14) (size 15 to 20)
#    0.000    2.500    0.000    5.000    0.000    4.333 
#    0.000    2.500    0.000    4.500    0.000    0.000 
#    0.000    0.000    0.000    0.000    0.000    0.000 
#
# Total GULP energy -267567.381626 kJ/mol
# GULP energy per Si atom -5574.320451 kJ/mol
# Density = 1.765118 g / cm^3
# Si number density = 17.691448 Si / 1000 Ang^3
#
#
#
# Elastic Constant Matrix: (Units=GPa)
#
#
# Indices 1 2 3 4 5 6 
#
# 1 23.4830 27.8773 45.1035 0.0000 0.0000 0.0000
# 2 27.8773 97.7235 74.5120 0.0000 0.0000 0.0000
# 3 45.1035 74.5120 177.7695 0.0000 0.0000 0.0000
# 4 0.0000 0.0000 0.0000 4.2784 0.0000 0.0000
# 5 0.0000 0.0000 0.0000 0.0000 27.5874 0.0000
# 6 0.0000 0.0000 0.0000 0.0000 0.0000 22.1938
#
#
#
# Elastic Compliance Matrix: (Units=1/GPa)
#
#
# Indices 1 2 3 4 5 6 
#
# 1 0.092347 -0.012461 -0.018207 0.000000 0.000000 0.000000
# 2 -0.012461 0.016721 -0.003847 0.000000 0.000000 0.000000
# 3 -0.018207 -0.003847 0.011857 0.000000 0.000000 0.000000
# 4 0.000000 0.000000 0.000000 0.233734 0.000000 0.000000
# 5 0.000000 0.000000 0.000000 0.000000 0.036248 0.000000
# 6 0.000000 0.000000 0.000000 0.000000 0.000000 0.045058
#
#
# Mechanical properties :
#
#
# Convention : Reuss Voigt Hill
#
# Bulk Modulus (GPa) = 19.26971 65.99571 42.63271
# Shear Modulus (GPa) = 9.57315 20.91080 15.24198
#
# Velocity S-wave (km/s) = 2.32872 3.44171 2.93839
# Velocity P-wave (km/s) = 4.25985 7.29236 5.97180
#
# Compressibility (1/GPa) = 0.05189493
#
# Stress axis : x y z
#
# Youngs Moduli (GPa) = 10.82871 59.80541 84.33689
#
# Poissons Ratio (x) = 0.74524 1.53554
# Poissons Ratio (y) = 0.13494 0.32444
# Poissons Ratio (z) = 0.19716 0.23007
#
# Static dielectric constant tensor:
#      x y z
#    x 1.580520 0.000000 0.000000 
#    y 0.000000 1.591890 0.000000 
#    z 0.000000 0.000000 1.637430 
# 
# From -- ./inp_files/44570.got.cif
#   From: 2010.05.17/outbox.cif.g08.bks.cpg/sg67_23_cif.got.tgz:44570.got - 2010.06.03 18:28:57.
