data_PCOD9502810
_publ_section_title
;
Structure prediction by ZEFSAII (Michael W. Deem and Ramdas Pophale) SiO2 
 PCOD9502810
Probable space group: C M M A
;
_chemical_formula_sum "Si O2"
_cell_formula_units_Z 72
_cell_length_a 31.940756
_cell_length_b 8.682942
_cell_length_c 14.601694
_cell_angle_alpha 90.000000
_cell_angle_beta 90.000000
_cell_angle_gamma 90.000000
_cell_volume 4049.629898
_symmetry_space_group_name_H-M "C M M A"
_symmetry_group_IT_number 67
_symmetry_cell_setting 'orthorhombic'
loop_
_space_group_symop_operation_xyz
x,y,z
-x,1/2-y,z
x,-y,-z
-x,1/2+y,-z
-x,-y,-z
x,1/2+y,-z
-x,y,z
x,1/2-y,z
1/2+x,1/2+y,z
1/2-x,-y,z
1/2+x,1/2-y,-z
1/2-x,y,-z
1/2-x,1/2-y,-z
1/2+x,y,-z
1/2-x,1/2+y,z
1/2+x,-y,z
loop_
_atom_site_type_symbol
_atom_site_label
_atom_site_fract_x
_atom_site_fract_y
_atom_site_fract_z
Si Si1 0.294770 0.065221 0.898209
Si Si2 0.452536 0.935086 0.896957
Si Si3 0.500000 0.435222 0.397375
Si Si4 0.875529 0.065653 0.219781
Si Si5 0.092218 0.434947 0.602583
O O1 0.292438 0.250000 0.903198
O O2 0.333264 0.021199 0.833435
O O3 0.250000 0.000000 0.866830
O O4 0.302264 0.000000 0.000000
O O5 0.500000 0.974448 0.864871
O O6 0.449523 0.750000 0.898517
O O7 0.415484 0.000998 0.835319
O O8 0.448277 0.000000 0.000000
O O9 0.500000 0.250000 0.398061
O O10 0.500000 0.500000 0.500000
O O11 0.454553 0.481924 0.361240
O O12 0.878157 0.250000 0.221924
O O13 0.876475 0.000617 0.322484
O O14 0.097481 0.500000 0.500000
O O15 0.094112 0.250000 0.599175
#
# Coordination Sequence:
#
# PCOD9502810 Si02
#       5
#    16  16   8  16  16
#     4  10  21  37  59  85 113 141 177 222 273 330
#     4  10  21  36  53  75 107 146 186 225 267 320
#     4   8  16  30  48  70  97 132 177 222 266 310
#     4  11  23  36  54  82 111 144 184 225 272 329
#     4  10  20  35  54  77 108 145 186 232 277 324
#
# _framework density 17.779402999999999
#
# number of rings (size 3 to 8) (size 9 to 14) (size 15 to 20)
#    0.000    2.000    0.000    4.000    1.556    7.556 
#    0.000    0.000    0.000    0.667    0.000    4.667 
#    0.000    0.000    0.000    0.000    0.000    0.000 
#
# Total GULP energy -200931.311224 kJ/mol
# GULP energy per Si atom -5581.425312 kJ/mol
# Density = 1.773894 g / cm^3
# Si number density = 17.779403 Si / 1000 Ang^3
#
#
#
# Elastic Constant Matrix: (Units=GPa)
#
#
# Indices 1 2 3 4 5 6 
#
# 1 140.9306 54.6552 95.0319 0.0000 0.0000 0.0000
# 2 54.6552 53.7734 41.4177 0.0000 0.0000 0.0000
# 3 95.0319 41.4177 108.7903 0.0000 0.0000 0.0000
# 4 0.0000 0.0000 0.0000 28.8409 0.0000 0.0000
# 5 0.0000 0.0000 0.0000 0.0000 26.0031 0.0000
# 6 0.0000 0.0000 0.0000 0.0000 0.0000 22.3958
#
#
#
# Elastic Compliance Matrix: (Units=1/GPa)
#
#
# Indices 1 2 3 4 5 6 
#
# 1 0.020435 -0.009934 -0.014069 0.000000 0.000000 0.000000
# 2 -0.009934 0.031141 -0.003178 0.000000 0.000000 0.000000
# 3 -0.014069 -0.003178 0.022691 0.000000 0.000000 0.000000
# 4 0.000000 0.000000 0.000000 0.034673 0.000000 0.000000
# 5 0.000000 0.000000 0.000000 0.000000 0.038457 0.000000
# 6 0.000000 0.000000 0.000000 0.000000 0.000000 0.044651
#
#
# Mechanical properties :
#
#
# Convention : Reuss Voigt Hill
#
# Bulk Modulus (GPa) = 50.23587 76.18932 63.21260
# Shear Modulus (GPa) = 19.75924 22.94059 21.34991
#
# Velocity S-wave (km/s) = 3.33732 3.59596 3.46905
# Velocity P-wave (km/s) = 6.57014 7.75802 7.18865
#
# Compressibility (1/GPa) = 0.01990609
#
# Stress axis : x y z
#
# Youngs Moduli (GPa) = 48.93551 32.11154 44.06957
#
# Poissons Ratio (x) = 0.31900 0.62000
# Poissons Ratio (y) = 0.48613 0.14006
# Poissons Ratio (z) = 0.68846 0.10205
#
# Static dielectric constant tensor:
#      x y z
#    x 1.619460 0.000000 0.000000 
#    y 0.000000 1.598800 0.000000 
#    z 0.000000 0.000000 1.594200 
# 
# From -- ./inp_files/25085.got.cif
#   From: 2010.05.17/outbox.cif.g08.bks.cpg/sg67_13_cif.got.tgz:25085.got - 2010.06.03 18:28:57.
