data_PCOD9502262
_publ_section_title
;
Structure prediction by ZEFSAII (Michael W. Deem and Ramdas Pophale) SiO2 
 PCOD9502262
Probable space group: C M M A
;
_chemical_formula_sum "Si O2"
_cell_formula_units_Z 72
_cell_length_a 26.186476
_cell_length_b 8.356261
_cell_length_c 17.350935
_cell_angle_alpha 90.000000
_cell_angle_beta 90.000000
_cell_angle_gamma 90.000000
_cell_volume 3796.749436
_symmetry_space_group_name_H-M "C M M A"
_symmetry_group_IT_number 67
_symmetry_cell_setting 'orthorhombic'
loop_
_space_group_symop_operation_xyz
x,y,z
-x,1/2-y,z
x,-y,-z
-x,1/2+y,-z
-x,-y,-z
x,1/2+y,-z
-x,y,z
x,1/2-y,z
1/2+x,1/2+y,z
1/2-x,-y,z
1/2+x,1/2-y,-z
1/2-x,y,-z
1/2-x,1/2-y,-z
1/2+x,y,-z
1/2-x,1/2+y,z
1/2+x,-y,z
loop_
_atom_site_type_symbol
_atom_site_label
_atom_site_fract_x
_atom_site_fract_y
_atom_site_fract_z
Si Si1 0.334229 0.558573 0.580653
Si Si2 0.445029 0.557530 0.624554
Si Si3 0.584889 0.055905 0.792835
Si Si4 0.803829 0.559372 0.747897
Si Si5 0.000000 0.942827 0.912780
O O1 0.311850 0.500000 0.500000
O O2 0.333698 0.750000 0.581836
O O3 0.393148 0.497261 0.585551
O O4 0.308969 0.498876 0.659417
O O5 0.500000 0.495879 0.596406
O O6 0.445013 0.750000 0.617692
O O7 0.439032 0.512102 0.714252
O O8 0.583162 0.250000 0.788395
O O9 0.644454 0.006117 0.791617
O O10 0.550139 0.005023 0.864613
O O11 0.803528 0.750000 0.747339
O O12 0.750000 0.500000 0.780085
O O13 0.000000 0.750000 0.912779
O O14 0.000000 0.000000 0.000000
#
# Coordination Sequence:
#
# PCOD9502262 Si02
#       5
#    16  16  16  16   8
#     4  10  20  33  47  68  99 133 172 218 264 310
#     4   9  17  29  47  70  97 131 171 212 255 303
#     4   9  18  33  53  76 105 136 169 206 248 299
#     4  10  20  35  55  77  99 131 173 217 260 304
#     4  10  20  34  54  84 115 140 165 198 243 298
#
# _framework density 18.96359
#
# number of rings (size 3 to 8) (size 9 to 14) (size 15 to 20)
#    0.000    2.444    1.111    1.333    0.000    3.556 
#    0.000    2.222    0.000    0.667    0.000    4.667 
#    0.000    0.000    0.000    0.000    0.000    0.000 
#
# Total GULP energy -200810.093494 kJ/mol
# GULP energy per Si atom -5578.058153 kJ/mol
# Density = 1.892043 g / cm^3
# Si number density = 18.963590 Si / 1000 Ang^3
#
#
#
# Elastic Constant Matrix: (Units=GPa)
#
#
# Indices 1 2 3 4 5 6 
#
# 1 159.6070 19.5246 42.5766 0.0000 0.0000 0.0000
# 2 19.5246 17.1251 4.5924 0.0000 0.0000 0.0000
# 3 42.5766 4.5924 102.5657 0.0000 0.0000 0.0000
# 4 0.0000 0.0000 0.0000 21.1537 0.0000 0.0000
# 5 0.0000 0.0000 0.0000 0.0000 25.6427 0.0000
# 6 0.0000 0.0000 0.0000 0.0000 0.0000 16.8936
#
#
#
# Elastic Compliance Matrix: (Units=1/GPa)
#
#
# Indices 1 2 3 4 5 6 
#
# 1 0.008091 -0.008426 -0.002982 0.000000 0.000000 0.000000
# 2 -0.008426 0.067877 0.000458 0.000000 0.000000 0.000000
# 3 -0.002982 0.000458 0.010967 0.000000 0.000000 0.000000
# 4 0.000000 0.000000 0.000000 0.047273 0.000000 0.000000
# 5 0.000000 0.000000 0.000000 0.000000 0.038997 0.000000
# 6 0.000000 0.000000 0.000000 0.000000 0.000000 0.059194
#
#
# Mechanical properties :
#
#
# Convention : Reuss Voigt Hill
#
# Bulk Modulus (GPa) = 15.37566 45.85387 30.61477
# Shear Modulus (GPa) = 18.11745 26.91161 22.51453
#
# Velocity S-wave (km/s) = 3.09428 3.77121 3.44939
# Velocity P-wave (km/s) = 4.57074 6.57230 5.66069
#
# Compressibility (1/GPa) = 0.06503784
#
# Stress axis : x y z
#
# Youngs Moduli (GPa) = 123.58699 14.73253 91.18225
#
# Poissons Ratio (x) = 0.12413 0.27187
# Poissons Ratio (y) = 1.04130 -0.04180
# Poissons Ratio (z) = 0.36849 -0.00675
#
# Static dielectric constant tensor:
#      x y z
#    x 1.740480 0.000000 0.000000 
#    y 0.000000 1.665790 0.000000 
#    z 0.000000 0.000000 1.614360 
# 
# From -- ./inp_files/25056.got.cif
#   From: 2010.05.17/outbox.cif.g08.bks.cpg/sg67_13_cif.got.tgz:25056.got - 2010.06.03 18:28:57.
