data_PCOD9502779
_publ_section_title
;
Structure prediction by ZEFSAII (Michael W. Deem and Ramdas Pophale) SiO2 
 PCOD9502779
Probable space group: C M M A
;
_chemical_formula_sum "Si O2"
_cell_formula_units_Z 116
_cell_length_a 8.892093
_cell_length_b 28.780440
_cell_length_c 25.682787
_cell_angle_alpha 90.000000
_cell_angle_beta 90.000000
_cell_angle_gamma 90.000000
_cell_volume 6572.696448
_symmetry_space_group_name_H-M "C M M A"
_symmetry_group_IT_number 67
_symmetry_cell_setting 'orthorhombic'
loop_
_space_group_symop_operation_xyz
x,y,z
-x,1/2-y,z
x,-y,-z
-x,1/2+y,-z
-x,-y,-z
x,1/2+y,-z
-x,y,z
x,1/2-y,z
1/2+x,1/2+y,z
1/2-x,-y,z
1/2+x,1/2-y,-z
1/2-x,y,-z
1/2-x,1/2-y,-z
1/2+x,y,-z
1/2-x,1/2+y,z
1/2+x,-y,z
loop_
_atom_site_type_symbol
_atom_site_label
_atom_site_fract_x
_atom_site_fract_y
_atom_site_fract_z
Si Si1 0.172693 0.805831 0.446607
Si Si2 0.179933 0.047544 0.654113
Si Si3 0.250000 0.500000 0.000000
Si Si4 0.179836 0.303983 0.748269
Si Si5 0.320932 0.145247 0.648706
Si Si6 0.321364 0.954855 0.230965
Si Si7 0.328240 0.094863 0.050883
Si Si8 0.818825 0.374683 0.835403
O O1 0.168241 0.750000 0.448605
O O2 0.250000 0.822455 0.500000
O O3 0.269143 0.820489 0.396916
O O4 0.000000 0.822395 0.442034
O O5 0.246777 0.095787 0.633920
O O6 0.236199 0.048366 0.714024
O O7 0.000000 0.046446 0.651513
O O8 0.250000 0.000000 0.631321
O O9 0.320698 0.461422 0.039786
O O10 0.225682 0.250000 0.745153
O O11 0.259092 0.334618 0.703529
O O12 0.204804 0.325785 0.805770
O O13 0.000000 0.306513 0.738379
O O14 0.500000 0.140445 0.652078
O O15 0.500000 0.959271 0.238478
O O16 0.275695 0.910507 0.198602
O O17 0.250000 0.000000 0.203808
O O18 0.500000 0.108115 0.049385
O O19 0.269835 0.114713 0.105407
O O20 0.250000 0.115120 0.000000
O O21 0.000000 0.384339 0.832115
#
# Coordination Sequence:
#
# PCOD9502779 Si02
#       8
#    16  16   4  16  16  16  16  16
#     4  10  21  38  60  87 119 155 196 244 296 347
#     4  11  21  36  55  78 111 150 188 231 275 330
#     4   8  18  32  50  72 100 136 170 224 268 336
#     4  10  21  37  57  79 107 146 188 235 289 342
#     4  12  23  36  57  86 117 154 193 235 288 344
#     4  11  21  32  48  74 106 142 179 217 264 321
#     4   9  19  32  49  72 100 135 174 219 271 326
#     4  10  20  35  52  75 107 141 181 227 277 338
#
# _framework density 17.648769000000001
#
# number of rings (size 3 to 8) (size 9 to 14) (size 15 to 20)
#    0.414    1.241    1.379    5.586    0.966    3.310 
#    0.000    0.000    0.000    0.828    0.000    2.897 
#    0.000    0.000    0.000    0.000    0.000    0.000 
#
# Total GULP energy -322974.948718 kJ/mol
# GULP energy per Si atom -5568.533599 kJ/mol
# Density = 1.760860 g / cm^3
# Si number density = 17.648769 Si / 1000 Ang^3
#
#
#
# Elastic Constant Matrix: (Units=GPa)
#
#
# Indices 1 2 3 4 5 6 
#
# 1 95.5467 31.8709 16.6527 0.0000 0.0000 0.0000
# 2 31.8709 71.7978 12.4334 0.0000 0.0000 0.0000
# 3 16.6527 12.4334 74.9648 0.0000 0.0000 0.0000
# 4 0.0000 0.0000 0.0000 18.1848 0.0000 0.0000
# 5 0.0000 0.0000 0.0000 0.0000 18.5515 0.0000
# 6 0.0000 0.0000 0.0000 0.0000 0.0000 16.8316
#
#
#
# Elastic Compliance Matrix: (Units=1/GPa)
#
#
# Indices 1 2 3 4 5 6 
#
# 1 0.012548 -0.005238 -0.001919 0.000000 0.000000 0.000000
# 2 -0.005238 0.016526 -0.001577 0.000000 0.000000 0.000000
# 3 -0.001919 -0.001577 0.014027 0.000000 0.000000 0.000000
# 4 0.000000 0.000000 0.000000 0.054991 0.000000 0.000000
# 5 0.000000 0.000000 0.000000 0.000000 0.053904 0.000000
# 6 0.000000 0.000000 0.000000 0.000000 0.000000 0.059412
#
#
# Mechanical properties :
#
#
# Convention : Reuss Voigt Hill
#
# Bulk Modulus (GPa) = 39.01109 40.46924 39.74016
# Shear Modulus (GPa) = 21.05971 22.80373 21.93172
#
# Velocity S-wave (km/s) = 3.45812 3.59846 3.52899
# Velocity P-wave (km/s) = 6.17227 6.34392 6.25868
#
# Compressibility (1/GPa) = 0.02563373
#
# Stress axis : x y z
#
# Youngs Moduli (GPa) = 79.69691 60.51024 71.28883
#
# Poissons Ratio (x) = 0.31693 0.13678
# Poissons Ratio (y) = 0.41742 0.11246
# Poissons Ratio (z) = 0.15291 0.09545
#
# Static dielectric constant tensor:
#      x y z
#    x 1.605130 0.000000 0.000000 
#    y 0.000000 1.668730 0.000000 
#    z 0.000000 0.000000 1.623410 
# 
# From -- ./inp_files/41235.got.cif
#   From: 2010.05.17/outbox.cif.g08.bks.cpg/sg67_21_cif.got.tgz:41235.got - 2010.06.03 18:28:57.
