data_PCOD9502904
_publ_section_title
;
Structure prediction by ZEFSAII (Michael W. Deem and Ramdas Pophale) SiO2 
 PCOD9502904
Probable space group: C M M A
;
_chemical_formula_sum "Si O2"
_cell_formula_units_Z 80
_cell_length_a 16.485557
_cell_length_b 13.834560
_cell_length_c 15.450119
_cell_angle_alpha 90.000000
_cell_angle_beta 90.000000
_cell_angle_gamma 90.000000
_cell_volume 3523.715244
_symmetry_space_group_name_H-M "C M M A"
_symmetry_group_IT_number 67
_symmetry_cell_setting 'orthorhombic'
loop_
_space_group_symop_operation_xyz
x,y,z
-x,1/2-y,z
x,-y,-z
-x,1/2+y,-z
-x,-y,-z
x,1/2+y,-z
-x,y,z
x,1/2-y,z
1/2+x,1/2+y,z
1/2-x,-y,z
1/2+x,1/2-y,-z
1/2-x,y,-z
1/2-x,1/2-y,-z
1/2+x,y,-z
1/2-x,1/2+y,z
1/2+x,-y,z
loop_
_atom_site_type_symbol
_atom_site_label
_atom_site_fract_x
_atom_site_fract_y
_atom_site_fract_z
Si Si1 0.402262 0.930545 0.697341
Si Si2 0.405660 0.359598 0.959051
Si Si3 0.158366 0.114492 0.516002
Si Si4 0.659742 0.540698 0.874030
Si Si5 0.594371 0.851898 0.334814
O O1 0.500000 0.929511 0.694526
O O2 0.370024 0.872751 0.614252
O O3 0.369170 0.900758 0.790365
O O4 0.371874 0.043090 0.690002
O O5 0.500000 0.361308 0.985681
O O6 0.385912 0.250000 0.931780
O O7 0.352712 0.394523 0.040633
O O8 0.393856 0.443358 0.888120
O O9 0.250000 0.147563 0.500000
O O10 0.101784 0.151010 0.439105
O O11 0.157879 0.000000 0.500000
O O12 0.750000 0.500000 0.866577
O O13 0.500000 0.852856 0.309790
O O14 0.630681 0.750000 0.301927
#
# Coordination Sequence:
#
# PCOD9502904 Si02
#       5
#    16  16  16  16  16
#     4  10  20  35  56  81 110 149 196 238 285 343
#     4  10  21  41  66  89 119 158 198 241 293 361
#     4   9  18  31  53  73 103 142 182 235 279 336
#     4  11  23  36  61  91 123 159 195 246 301 353
#     4   9  18  32  50  73 103 141 186 235 286 339
#
# _framework density 22.703309999999998
#
# number of rings (size 3 to 8) (size 9 to 14) (size 15 to 20)
#    0.000    2.200    0.000    4.200    5.600    5.200 
#    0.000    3.000    0.000    3.600    0.000    0.000 
#    0.000    0.000    0.000    0.000    0.000    0.000 
#
# Total GULP energy -223242.511737 kJ/mol
# GULP energy per Si atom -5581.062793 kJ/mol
# Density = 2.265164 g / cm^3
# Si number density = 22.703310 Si / 1000 Ang^3
#
#
#
# Elastic Constant Matrix: (Units=GPa)
#
#
# Indices 1 2 3 4 5 6 
#
# 1 81.8021 -4.7504 17.4093 0.0000 0.0000 0.0000
# 2 -4.7504 74.0788 -23.6312 0.0000 0.0000 0.0000
# 3 17.4093 -23.6312 112.2268 0.0000 0.0000 0.0000
# 4 0.0000 0.0000 0.0000 8.2497 0.0000 0.0000
# 5 0.0000 0.0000 0.0000 0.0000 21.2657 0.0000
# 6 0.0000 0.0000 0.0000 0.0000 0.0000 -6.1150
#
#
#
# Elastic Compliance Matrix: (Units=1/GPa)
#
#
# Indices 1 2 3 4 5 6 
#
# 1 0.012645 0.000198 -0.001920 0.000000 0.000000 0.000000
# 2 0.000198 0.014474 0.003017 0.000000 0.000000 0.000000
# 3 -0.001920 0.003017 0.009844 0.000000 0.000000 0.000000
# 4 0.000000 0.000000 0.000000 0.121216 0.000000 0.000000
# 5 0.000000 0.000000 0.000000 0.000000 0.047024 0.000000
# 6 0.000000 0.000000 0.000000 0.000000 0.000000 -0.163534
#
#
# Mechanical properties :
#
#
# Convention : Reuss Voigt Hill
#
# Bulk Modulus (GPa) = 25.28183 27.35146 26.31665
# Shear Modulus (GPa) = 95.67112 23.28542 59.47827
#
# Velocity S-wave (km/s) = 6.49855 3.20604 5.12396
# Velocity P-wave (km/s) = 8.21390 5.07724 6.82813
#
# Compressibility (1/GPa) = 0.03955409
#
# Stress axis : x y z
#
# Youngs Moduli (GPa) = 79.08439 69.08804 101.58873
#
# Poissons Ratio (x) = -0.01371 0.19502
# Poissons Ratio (y) = -0.01570 -0.30649
# Poissons Ratio (z) = 0.15182 -0.20844
#
# Static dielectric constant tensor:
#      x y z
#    x 1.815200 0.000000 0.000000 
#    y 0.000000 1.906920 0.000000 
#    z 0.000000 0.000000 1.846210 
# 
# From -- ./inp_files/34101.got.cif
#   From: 2010.05.17/outbox.cif.g08.bks.cpg/sg67_18_cif.got.tgz:34101.got - 2010.06.03 18:28:57.
