data_PCOD9502162
_publ_section_title
;
Structure prediction by ZEFSAII (Michael W. Deem and Ramdas Pophale) SiO2 
 PCOD9502162
Probable space group: C M M A
;
_chemical_formula_sum "Si O2"
_cell_formula_units_Z 80
_cell_length_a 14.413311
_cell_length_b 10.208436
_cell_length_c 24.654765
_cell_angle_alpha 90.000000
_cell_angle_beta 90.000000
_cell_angle_gamma 90.000000
_cell_volume 3627.637105
_symmetry_space_group_name_H-M "C M M A"
_symmetry_group_IT_number 67
_symmetry_cell_setting 'orthorhombic'
loop_
_space_group_symop_operation_xyz
x,y,z
-x,1/2-y,z
x,-y,-z
-x,1/2+y,-z
-x,-y,-z
x,1/2+y,-z
-x,y,z
x,1/2-y,z
1/2+x,1/2+y,z
1/2-x,-y,z
1/2+x,1/2-y,-z
1/2-x,y,-z
1/2-x,1/2-y,-z
1/2+x,y,-z
1/2-x,1/2+y,z
1/2+x,-y,z
loop_
_atom_site_type_symbol
_atom_site_label
_atom_site_fract_x
_atom_site_fract_y
_atom_site_fract_z
Si Si1 0.163120 0.096950 0.743810
Si Si2 0.863142 0.008732 0.629839
Si Si3 0.863557 0.750000 0.567978
Si Si4 0.891740 0.393708 0.866627
Si Si5 0.137949 0.750000 0.443424
Si Si6 0.113053 0.599856 0.951858
O O1 0.188767 0.250000 0.732816
O O2 0.114020 0.093575 0.801871
O O3 0.250000 0.000000 0.749800
O O4 0.109353 0.044312 0.691040
O O5 0.892588 0.874485 0.602746
O O6 0.750000 0.000000 0.631741
O O7 0.891441 0.122767 0.589237
O O8 0.893342 0.750000 0.505462
O O9 0.750890 0.750000 0.561240
O O10 0.850393 0.250000 0.881265
O O11 0.856691 0.522614 0.897482
O O12 0.000000 0.386371 0.882069
O O13 0.146545 0.750000 0.956675
O O14 0.000000 0.608540 0.952493
O O15 0.138950 0.500000 0.000000
#
# Coordination Sequence:
#
# PCOD9502162 Si02
#       6
#    16  16   8  16   8  16
#     4  10  20  32  48  68  94 130 163 195 236 284
#     4   9  16  25  37  57  84 117 151 188 230 284
#     4   9  16  22  36  56  81 115 150 183 238 278
#     4   9  18  33  51  72  98 126 161 201 236 275
#     4   9  14  24  36  54  83 113 148 187 232 284
#     4   9  16  27  46  73 101 128 157 192 238 283
#
# _framework density 22.052921999999999
#
# number of rings (size 3 to 8) (size 9 to 14) (size 15 to 20)
#    0.000    2.800    1.000    1.200    4.200    5.600 
#    0.000    0.000    0.000    0.600    0.000    4.200 
#    0.000    4.800    0.000    0.000    0.000    0.000 
#
# Total GULP energy -223200.619153 kJ/mol
# GULP energy per Si atom -5580.015479 kJ/mol
# Density = 2.200273 g / cm^3
# Si number density = 22.052922 Si / 1000 Ang^3
#
#
#
# Elastic Constant Matrix: (Units=GPa)
#
#
# Indices 1 2 3 4 5 6 
#
# 1 73.5467 11.6413 -3.5629 0.0000 0.0000 0.0000
# 2 11.6413 248.3746 113.7893 0.0000 0.0000 0.0000
# 3 -3.5629 113.7893 157.9460 0.0000 0.0000 0.0000
# 4 0.0000 0.0000 0.0000 41.6271 0.0000 0.0000
# 5 0.0000 0.0000 0.0000 0.0000 12.5714 0.0000
# 6 0.0000 0.0000 0.0000 0.0000 0.0000 -6.4052
#
#
#
# Elastic Compliance Matrix: (Units=1/GPa)
#
#
# Indices 1 2 3 4 5 6 
#
# 1 0.013840 -0.001182 0.001164 0.000000 0.000000 0.000000
# 2 -0.001182 0.006111 -0.004429 0.000000 0.000000 0.000000
# 3 0.001164 -0.004429 0.009548 0.000000 0.000000 0.000000
# 4 0.000000 0.000000 0.000000 0.024023 0.000000 0.000000
# 5 0.000000 0.000000 0.000000 0.000000 0.079546 0.000000
# 6 0.000000 0.000000 0.000000 0.000000 0.000000 -0.156123
#
#
# Mechanical properties :
#
#
# Convention : Reuss Voigt Hill
#
# Bulk Modulus (GPa) = 48.53222 80.40031 64.46627
# Shear Modulus (GPa) = -685.64158 33.42530 -326.10814
#
# Velocity S-wave (km/s) = -17.65169 3.89740 -12.17359
# Velocity P-wave (km/s) = 19.83401 7.53592 12.97301
#
# Compressibility (1/GPa) = 0.02060487
#
# Stress axis : x y z
#
# Youngs Moduli (GPa) = 72.25317 163.64940 104.73093
#
# Poissons Ratio (x) = 0.19340 -0.12186
# Poissons Ratio (y) = 0.08539 0.46385
# Poissons Ratio (z) = -0.08407 0.72479
#
# Static dielectric constant tensor:
#      x y z
#    x 1.871090 0.000000 0.000000 
#    y 0.000000 1.682290 0.000000 
#    z 0.000000 0.000000 1.790710 
# 
# From -- ./inp_files/40753.got.cif
#   From: 2010.05.17/outbox.cif.g08.bks.cpg/sg67_21_cif.got.tgz:40753.got - 2010.06.03 18:28:57.
