data_PCOD9502243
_publ_section_title
;
Structure prediction by ZEFSAII (Michael W. Deem and Ramdas Pophale) SiO2 
 PCOD9502243
Probable space group: C M M A
;
_chemical_formula_sum "Si O2"
_cell_formula_units_Z 80
_cell_length_a 13.739897
_cell_length_b 22.661697
_cell_length_c 11.310027
_cell_angle_alpha 90.000000
_cell_angle_beta 90.000000
_cell_angle_gamma 90.000000
_cell_volume 3521.596124
_symmetry_space_group_name_H-M "C M M A"
_symmetry_group_IT_number 67
_symmetry_cell_setting 'orthorhombic'
loop_
_space_group_symop_operation_xyz
x,y,z
-x,1/2-y,z
x,-y,-z
-x,1/2+y,-z
-x,-y,-z
x,1/2+y,-z
-x,y,z
x,1/2-y,z
1/2+x,1/2+y,z
1/2-x,-y,z
1/2+x,1/2-y,-z
1/2-x,y,-z
1/2-x,1/2-y,-z
1/2+x,y,-z
1/2-x,1/2+y,z
1/2+x,-y,z
loop_
_atom_site_type_symbol
_atom_site_label
_atom_site_fract_x
_atom_site_fract_y
_atom_site_fract_z
Si Si1 0.500000 0.441358 0.424723
Si Si2 0.814643 0.682124 0.235890
Si Si3 0.500000 0.185303 0.413608
Si Si4 0.896772 0.627208 0.773539
Si Si5 0.635010 0.505632 0.756675
Si Si6 0.141956 0.087055 0.962754
O O1 0.500000 0.500000 0.500000
O O2 0.500000 0.376956 0.481729
O O3 0.593092 0.449421 0.339086
O O4 0.803071 0.750000 0.197657
O O5 0.900768 0.682695 0.334112
O O6 0.704905 0.657924 0.264087
O O7 0.851521 0.640522 0.130319
O O8 0.500000 0.250000 0.472478
O O9 0.898106 0.560110 0.726479
O O10 0.000000 0.657502 0.745609
O O11 0.896942 0.613568 0.915211
O O12 0.750000 0.500000 0.755271
O O13 0.604174 0.532289 0.883904
O O14 0.250000 0.069087 0.000000
#
# Coordination Sequence:
#
# PCOD9502243 Si02
#       6
#     8  16   8  16  16  16
#     4  12  26  42  66  98 123 159 216 276 343 387
#     4  10  21  37  57  85 126 172 220 260 309 374
#     4  10  20  42  71  93 120 170 219 277 332 388
#     4  11  23  33  53  87 130 176 208 253 320 384
#     4  12  21  39  60  88 129 160 204 267 318 392
#     4  10  20  32  56  87 125 169 215 250 313 376
#
# _framework density 22.716971000000001
#
# number of rings (size 3 to 8) (size 9 to 14) (size 15 to 20)
#    0.000    1.200    7.000    0.600    2.800    5.200 
#    0.000    0.000    0.000    1.200    0.000    4.200 
#    0.000    0.000    0.000    0.000    0.000    0.000 
#
# Total GULP energy -222988.798931 kJ/mol
# GULP energy per Si atom -5574.719973 kJ/mol
# Density = 2.266527 g / cm^3
# Si number density = 22.716971 Si / 1000 Ang^3
#
#
#
# Elastic Constant Matrix: (Units=GPa)
#
#
# Indices 1 2 3 4 5 6 
#
# 1 185.8406 15.2220 11.9911 0.0000 0.0000 0.0000
# 2 15.2220 162.1770 22.9673 0.0000 0.0000 0.0000
# 3 11.9911 22.9673 48.7091 0.0000 0.0000 0.0000
# 4 0.0000 0.0000 0.0000 28.4661 0.0000 0.0000
# 5 0.0000 0.0000 0.0000 0.0000 -3.3686 0.0000
# 6 0.0000 0.0000 0.0000 0.0000 0.0000 32.8340
#
#
#
# Elastic Compliance Matrix: (Units=1/GPa)
#
#
# Indices 1 2 3 4 5 6 
#
# 1 0.005486 -0.000347 -0.001187 0.000000 0.000000 0.000000
# 2 -0.000347 0.006629 -0.003040 0.000000 0.000000 0.000000
# 3 -0.001187 -0.003040 0.022256 0.000000 0.000000 0.000000
# 4 0.000000 0.000000 0.000000 0.035130 0.000000 0.000000
# 5 0.000000 0.000000 0.000000 0.000000 -0.296858 0.000000
# 6 0.000000 0.000000 0.000000 0.000000 0.000000 0.030456
#
#
# Mechanical properties :
#
#
# Convention : Reuss Voigt Hill
#
# Bulk Modulus (GPa) = 39.64700 55.23193 47.43947
# Shear Modulus (GPa) = -27.87921 34.68937 3.40508
#
# Velocity S-wave (km/s) = -3.50700 3.91196 1.22563
# Velocity P-wave (km/s) = 1.04486 6.69107 4.78864
#
# Compressibility (1/GPa) = 0.02522259
#
# Stress axis : x y z
#
# Youngs Moduli (GPa) = 182.28374 150.84686 44.93193
#
# Poissons Ratio (x) = 0.05232 0.05333
# Poissons Ratio (y) = 0.06322 0.13661
# Poissons Ratio (z) = 0.21637 0.45864
#
# Static dielectric constant tensor:
#      x y z
#    x 1.908690 0.000000 0.000000 
#    y 0.000000 1.833550 0.000000 
#    z 0.000000 0.000000 1.876060 
# 
# From -- ./inp_files/17987.got.cif
#   From: 2010.05.17/outbox.cif.g08.bks.cpg/sg67_9_cif.got.tgz:17987.got - 2010.06.03 18:28:57.
