data_PCOD9502540
_publ_section_title
;
Structure prediction by ZEFSAII (Michael W. Deem and Ramdas Pophale) SiO2 
 PCOD9502540
Probable space group: C M M A
;
_chemical_formula_sum "Si O2"
_cell_formula_units_Z 96
_cell_length_a 18.708534
_cell_length_b 8.842942
_cell_length_c 32.490898
_cell_angle_alpha 90.000000
_cell_angle_beta 90.000000
_cell_angle_gamma 90.000000
_cell_volume 5375.244814
_symmetry_space_group_name_H-M "C M M A"
_symmetry_group_IT_number 67
_symmetry_cell_setting 'orthorhombic'
loop_
_space_group_symop_operation_xyz
x,y,z
-x,1/2-y,z
x,-y,-z
-x,1/2+y,-z
-x,-y,-z
x,1/2+y,-z
-x,y,z
x,1/2-y,z
1/2+x,1/2+y,z
1/2-x,-y,z
1/2+x,1/2-y,-z
1/2-x,y,-z
1/2-x,1/2-y,-z
1/2+x,y,-z
1/2-x,1/2+y,z
1/2+x,-y,z
loop_
_atom_site_type_symbol
_atom_site_label
_atom_site_fract_x
_atom_site_fract_y
_atom_site_fract_z
Si Si1 0.669890 0.931589 0.712979
Si Si2 0.416629 0.067846 0.457191
Si Si3 0.414163 0.427559 0.128626
Si Si4 0.170425 0.569968 0.796559
Si Si5 0.912929 0.424333 0.042546
Si Si6 0.170861 0.067769 0.622547
O O1 0.672748 0.750000 0.717406
O O2 0.638921 0.968831 0.667811
O O3 0.750000 0.000000 0.711570
O O4 0.637584 0.003649 0.754084
O O5 0.500000 0.025019 0.453559
O O6 0.412731 0.250000 0.459409
O O7 0.374913 0.017138 0.416538
O O8 0.388553 0.000000 0.500000
O O9 0.500000 0.446509 0.131665
O O10 0.397937 0.250000 0.132756
O O11 0.375598 0.519266 0.164484
O O12 0.391587 0.486566 0.083582
O O13 0.175773 0.750000 0.793701
O O14 0.250000 0.500000 0.800733
O O15 0.890532 0.250000 0.044846
O O16 0.000000 0.426582 0.041735
O O17 0.888549 0.500000 0.000000
O O18 0.176229 0.250000 0.621120
O O19 0.250000 0.000000 0.619884
#
# Coordination Sequence:
#
# PCOD9502540 Si02
#       6
#    16  16  16  16  16  16
#     4   9  16  29  48  70  95 124 160 198 240 288
#     4   9  18  33  50  68  93 126 161 194 232 282
#     4  10  20  34  52  75 103 133 167 209 254 297
#     4  11  21  34  53  75 101 133 169 206 246 297
#     4   9  16  27  45  70  99 131 167 206 249 296
#     4   9  18  31  49  72  96 122 155 198 242 283
#
# _framework density 17.859652000000001
#
# number of rings (size 3 to 8) (size 9 to 14) (size 15 to 20)
#    0.000    2.500    0.000    4.000    0.000    4.667 
#    0.000    2.500    0.000    3.500    0.000    3.500 
#    0.000    0.000    0.000    0.000    0.000    0.000 
#
# Total GULP energy -267554.702495 kJ/mol
# GULP energy per Si atom -5574.056302 kJ/mol
# Density = 1.781900 g / cm^3
# Si number density = 17.859652 Si / 1000 Ang^3
#
#
#
# Elastic Constant Matrix: (Units=GPa)
#
#
# Indices 1 2 3 4 5 6 
#
# 1 17.9536 21.9452 40.8645 0.0000 0.0000 0.0000
# 2 21.9452 94.2700 65.2698 0.0000 0.0000 0.0000
# 3 40.8645 65.2698 197.7626 0.0000 0.0000 0.0000
# 4 0.0000 0.0000 0.0000 35.1712 0.0000 0.0000
# 5 0.0000 0.0000 0.0000 0.0000 21.7912 0.0000
# 6 0.0000 0.0000 0.0000 0.0000 0.0000 18.2234
#
#
#
# Elastic Compliance Matrix: (Units=1/GPa)
#
#
# Indices 1 2 3 4 5 6 
#
# 1 0.117290 -0.013641 -0.019734 0.000000 0.000000 0.000000
# 2 -0.013641 0.015336 -0.002243 0.000000 0.000000 0.000000
# 3 -0.019734 -0.002243 0.009875 0.000000 0.000000 0.000000
# 4 0.000000 0.000000 0.000000 0.028432 0.000000 0.000000
# 5 0.000000 0.000000 0.000000 0.000000 0.045890 0.000000
# 6 0.000000 0.000000 0.000000 0.000000 0.000000 0.054874
#
#
# Mechanical properties :
#
#
# Convention : Reuss Voigt Hill
#
# Bulk Modulus (GPa) = 14.03207 62.90503 38.46855
# Shear Modulus (GPa) = 13.63554 27.16427 20.39991
#
# Velocity S-wave (km/s) = 2.76612 3.90421 3.38336
# Velocity P-wave (km/s) = 4.25156 7.45803 6.07034
#
# Compressibility (1/GPa) = 0.07126533
#
# Stress axis : x y z
#
# Youngs Moduli (GPa) = 8.52586 65.20516 101.27010
#
# Poissons Ratio (x) = 0.88945 1.99848
# Poissons Ratio (y) = 0.11630 0.22714
# Poissons Ratio (z) = 0.16825 0.14625
#
# Static dielectric constant tensor:
#      x y z
#    x 1.592710 0.000000 0.000000 
#    y 0.000000 1.600500 0.000000 
#    z 0.000000 0.000000 1.642280 
# 
# From -- ./inp_files/44620.got.cif
#   From: 2010.05.17/outbox.cif.g08.bks.cpg/sg67_23_cif.got.tgz:44620.got - 2010.06.03 18:28:57.
