data_PCOD9502083
_publ_section_title
;
Structure prediction by ZEFSAII (Michael W. Deem and Ramdas Pophale) SiO2 
 PCOD9502083
Probable space group: C M M A
;
_chemical_formula_sum "Si O2"
_cell_formula_units_Z 88
_cell_length_a 21.297833
_cell_length_b 20.109074
_cell_length_c 11.637336
_cell_angle_alpha 90.000000
_cell_angle_beta 90.000000
_cell_angle_gamma 90.000000
_cell_volume 4984.034769
_symmetry_space_group_name_H-M "C M M A"
_symmetry_group_IT_number 67
_symmetry_cell_setting 'orthorhombic'
loop_
_space_group_symop_operation_xyz
x,y,z
-x,1/2-y,z
x,-y,-z
-x,1/2+y,-z
-x,-y,-z
x,1/2+y,-z
-x,y,z
x,1/2-y,z
1/2+x,1/2+y,z
1/2-x,-y,z
1/2+x,1/2-y,-z
1/2-x,y,-z
1/2-x,1/2-y,-z
1/2+x,y,-z
1/2-x,1/2+y,z
1/2+x,-y,z
loop_
_atom_site_type_symbol
_atom_site_label
_atom_site_fract_x
_atom_site_fract_y
_atom_site_fract_z
Si Si1 0.073097 0.250000 0.906945
Si Si2 0.341385 0.132903 0.803765
Si Si3 0.070035 0.750000 0.816135
Si Si4 0.854746 0.119192 0.816197
Si Si5 0.250000 0.626827 0.000000
Si Si6 0.260162 0.829387 0.635569
Si Si7 0.071946 0.509228 0.862484
O O1 0.110140 0.315732 0.866210
O O2 0.000000 0.250000 0.867202
O O3 0.070700 0.250000 0.045090
O O4 0.393938 0.185743 0.776002
O O5 0.298464 0.159755 0.910299
O O6 0.295093 0.130169 0.697382
O O7 0.376860 0.065667 0.835884
O O8 0.000000 0.750000 0.774363
O O9 0.799706 0.095864 0.907481
O O10 0.822158 0.141382 0.697205
O O11 0.903783 0.059371 0.807919
O O12 0.256431 0.750000 0.664198
O O13 0.250000 0.835467 0.500000
O O14 0.000000 0.525953 0.828189
O O15 0.071191 0.500000 0.000000
#
# Coordination Sequence:
#
# PCOD9502083 Si02
#       7
#     8  16   8  16   8  16  16
#     4  11  20  32  52  83 117 151 189 233 282 347
#     4  11  21  35  57  84 116 150 191 236 285 346
#     4  11  20  32  52  83 117 151 189 233 282 347
#     4  11  21  35  57  84 116 150 191 236 285 346
#     4  10  20  30  52  80 116 140 188 224 290 338
#     4  10  22  40  63  86 113 150 192 248 298 336
#     4  11  22  38  56  85 125 161 187 223 282 351
#
# _framework density 17.656376999999999
#
# number of rings (size 3 to 8) (size 9 to 14) (size 15 to 20)
#    0.000    1.273    5.455    1.091    0.000    7.273 
#    0.000    1.818    0.000    6.545    0.000    0.000 
#    0.000    0.000    0.000    0.000    0.000    0.000 
#
# Total GULP energy -245087.479472 kJ/mol
# GULP energy per Si atom -5570.169988 kJ/mol
# Density = 1.761619 g / cm^3
# Si number density = 17.656377 Si / 1000 Ang^3
#
#
#
# Elastic Constant Matrix: (Units=GPa)
#
#
# Indices 1 2 3 4 5 6 
#
# 1 113.7559 32.0060 23.9192 0.0000 0.0000 0.0000
# 2 32.0060 81.4941 7.0852 0.0000 0.0000 0.0000
# 3 23.9192 7.0852 66.2381 0.0000 0.0000 0.0000
# 4 0.0000 0.0000 0.0000 20.2796 0.0000 0.0000
# 5 0.0000 0.0000 0.0000 0.0000 17.2890 0.0000
# 6 0.0000 0.0000 0.0000 0.0000 0.0000 35.3705
#
#
#
# Elastic Compliance Matrix: (Units=1/GPa)
#
#
# Indices 1 2 3 4 5 6 
#
# 1 0.010596 -0.003865 -0.003413 0.000000 0.000000 0.000000
# 2 -0.003865 0.013796 -0.000080 0.000000 0.000000 0.000000
# 3 -0.003413 -0.000080 0.016338 0.000000 0.000000 0.000000
# 4 0.000000 0.000000 0.000000 0.049311 0.000000 0.000000
# 5 0.000000 0.000000 0.000000 0.000000 0.057840 0.000000
# 6 0.000000 0.000000 0.000000 0.000000 0.000000 0.028272
#
#
# Mechanical properties :
#
#
# Convention : Reuss Voigt Hill
#
# Bulk Modulus (GPa) = 38.44054 43.05653 40.74854
# Shear Modulus (GPa) = 25.05777 27.81966 26.43872
#
# Velocity S-wave (km/s) = 3.77130 3.97371 3.87383
# Velocity P-wave (km/s) = 6.38611 6.74482 6.56791
#
# Compressibility (1/GPa) = 0.02601420
#
# Stress axis : x y z
#
# Youngs Moduli (GPa) = 94.37789 72.48690 61.20691
#
# Poissons Ratio (x) = 0.28014 0.20889
# Poissons Ratio (y) = 0.36474 0.00490
# Poissons Ratio (z) = 0.32210 0.00581
#
# Static dielectric constant tensor:
#      x y z
#    x 1.639020 0.000000 0.000000 
#    y 0.000000 1.587790 0.000000 
#    z 0.000000 0.000000 1.589570 
# 
# From -- ./inp_files/11294.got.cif
#   From: 2010.05.17/outbox.cif.g08.bks.cpg/sg67_6_cif.got.tgz:11294.got - 2010.06.03 18:28:57.
