data_PCOD9502574
_publ_section_title
;
Structure prediction by ZEFSAII (Michael W. Deem and Ramdas Pophale) SiO2 
 PCOD9502574
Probable space group: C M M A
;
_chemical_formula_sum "Si O2"
_cell_formula_units_Z 96
_cell_length_a 9.135366
_cell_length_b 19.897493
_cell_length_c 31.809205
_cell_angle_alpha 90.000000
_cell_angle_beta 90.000000
_cell_angle_gamma 90.000000
_cell_volume 5781.987218
_symmetry_space_group_name_H-M "C M M A"
_symmetry_group_IT_number 67
_symmetry_cell_setting 'orthorhombic'
loop_
_space_group_symop_operation_xyz
x,y,z
-x,1/2-y,z
x,-y,-z
-x,1/2+y,-z
-x,-y,-z
x,1/2+y,-z
-x,y,z
x,1/2-y,z
1/2+x,1/2+y,z
1/2-x,-y,z
1/2+x,1/2-y,-z
1/2-x,y,-z
1/2-x,1/2-y,-z
1/2+x,y,-z
1/2-x,1/2+y,z
1/2+x,-y,z
loop_
_atom_site_type_symbol
_atom_site_label
_atom_site_fract_x
_atom_site_fract_y
_atom_site_fract_z
Si Si1 0.669181 0.168113 0.373624
Si Si2 0.324718 0.071448 0.208445
Si Si3 0.668145 0.168015 0.542262
Si Si4 0.178681 0.172760 0.719114
Si Si5 0.324253 0.572689 0.888765
Si Si6 0.673739 0.170279 0.955213
O O1 0.500000 0.147742 0.378165
O O2 0.671006 0.250000 0.373053
O O3 0.758176 0.145557 0.414267
O O4 0.724986 0.148124 0.327338
O O5 0.500000 0.064083 0.212269
O O6 0.275001 0.125691 0.242700
O O7 0.295253 0.091366 0.160067
O O8 0.250000 0.000000 0.216033
O O9 0.500000 0.147869 0.540661
O O10 0.673599 0.250000 0.542497
O O11 0.750000 0.145964 0.500000
O O12 0.225744 0.250000 0.725005
O O13 0.000000 0.173422 0.718130
O O14 0.500000 0.568716 0.894691
O O15 0.250000 0.500000 0.895855
O O16 0.252226 0.626170 0.919864
O O17 0.500000 0.155833 0.957155
O O18 0.691365 0.250000 0.946775
O O19 0.750000 0.156274 0.000000
#
# Coordination Sequence:
#
# PCOD9502574 Si02
#       6
#    16  16  16  16  16  16
#     4   8  13  22  36  53  75 104 139 180 222 262
#     4   9  18  32  50  71  96 126 158 195 236 278
#     4   9  15  21  30  46  71 104 140 175 214 263
#     4   8  14  26  45  67  89 117 155 193 228 271
#     4  10  20  34  53  76 102 132 167 205 244 287
#     4  10  21  37  56  78 105 134 164 200 242 288
#
# _framework density 16.603287000000002
#
# number of rings (size 3 to 8) (size 9 to 14) (size 15 to 20)
#    0.000    3.000    0.000    2.500    0.000    4.667 
#    0.000    4.167    0.000    1.500    0.000    0.000 
#    0.000    0.667    0.000    7.667    0.000    9.333 
#
# Total GULP energy -267362.139018 kJ/mol
# GULP energy per Si atom -5570.044563 kJ/mol
# Density = 1.656550 g / cm^3
# Si number density = 16.603287 Si / 1000 Ang^3
#
#
#
# Elastic Constant Matrix: (Units=GPa)
#
#
# Indices 1 2 3 4 5 6 
#
# 1 83.0100 41.8013 84.3180 0.0000 0.0000 0.0000
# 2 41.8013 50.5385 85.3452 0.0000 0.0000 0.0000
# 3 84.3180 85.3452 184.7455 0.0000 0.0000 0.0000
# 4 0.0000 0.0000 0.0000 -10.0832 0.0000 0.0000
# 5 0.0000 0.0000 0.0000 0.0000 23.7722 0.0000
# 6 0.0000 0.0000 0.0000 0.0000 0.0000 18.7560
#
#
#
# Elastic Compliance Matrix: (Units=1/GPa)
#
#
# Indices 1 2 3 4 5 6 
#
# 1 0.022833 -0.005855 -0.007716 0.000000 0.000000 0.000000
# 2 -0.005855 0.091492 -0.039593 0.000000 0.000000 0.000000
# 3 -0.007716 -0.039593 0.027225 0.000000 0.000000 0.000000
# 4 0.000000 0.000000 0.000000 -0.099174 0.000000 0.000000
# 5 0.000000 0.000000 0.000000 0.000000 0.042066 0.000000
# 6 0.000000 0.000000 0.000000 0.000000 0.000000 0.053316
#
#
# Mechanical properties :
#
#
# Convention : Reuss Voigt Hill
#
# Bulk Modulus (GPa) = 28.39259 82.35809 55.37534
# Shear Modulus (GPa) = 19.54447 13.61094 16.57771
#
# Velocity S-wave (km/s) = 3.43468 2.86628 3.16327
# Velocity P-wave (km/s) = 5.73298 7.78879 6.83858
#
# Compressibility (1/GPa) = 0.03522046
#
# Stress axis : x y z
#
# Youngs Moduli (GPa) = 43.79642 10.92996 36.73094
#
# Poissons Ratio (x) = 0.06400 0.28342
# Poissons Ratio (y) = 0.25644 1.45430
# Poissons Ratio (z) = 0.33794 0.43275
#
# Static dielectric constant tensor:
#      x y z
#    x 1.558410 0.000000 0.000000 
#    y 0.000000 1.531460 0.000000 
#    z 0.000000 0.000000 1.568420 
# 
# From -- ./inp_files/43428.got.cif
#   From: 2010.05.17/outbox.cif.g08.bks.cpg/sg67_22_cif.got.tgz:43428.got - 2010.06.03 18:28:57.
