data_PCOD9502330
_publ_section_title
;
Structure prediction by ZEFSAII (Michael W. Deem and Ramdas Pophale) SiO2 
 PCOD9502330
Probable space group: C M M A
;
_chemical_formula_sum "Si O2"
_cell_formula_units_Z 96
_cell_length_a 16.950415
_cell_length_b 14.350911
_cell_length_c 20.631635
_cell_angle_alpha 90.000000
_cell_angle_beta 90.000000
_cell_angle_gamma 90.000000
_cell_volume 5018.725617
_symmetry_space_group_name_H-M "C M M A"
_symmetry_group_IT_number 67
_symmetry_cell_setting 'orthorhombic'
loop_
_space_group_symop_operation_xyz
x,y,z
-x,1/2-y,z
x,-y,-z
-x,1/2+y,-z
-x,-y,-z
x,1/2+y,-z
-x,y,z
x,1/2-y,z
1/2+x,1/2+y,z
1/2-x,-y,z
1/2+x,1/2-y,-z
1/2-x,y,-z
1/2-x,1/2-y,-z
1/2+x,y,-z
1/2-x,1/2+y,z
1/2+x,-y,z
loop_
_atom_site_type_symbol
_atom_site_label
_atom_site_fract_x
_atom_site_fract_y
_atom_site_fract_z
Si Si1 0.406360 0.858038 0.021779
Si Si2 0.593568 0.352107 0.618921
Si Si3 0.095625 0.049578 0.650057
Si Si4 0.404674 0.142814 0.215432
Si Si5 0.162350 0.359846 0.521045
Si Si6 0.841774 0.475713 0.902570
O O1 0.500000 0.861533 0.008506
O O2 0.384469 0.750000 0.032566
O O3 0.387189 0.928302 0.080468
O O4 0.362119 0.903131 0.960319
O O5 0.500000 0.346820 0.629327
O O6 0.628544 0.250000 0.633963
O O7 0.622547 0.442167 0.657434
O O8 0.608817 0.370670 0.542782
O O9 0.117025 0.110984 0.712038
O O10 0.131237 0.087439 0.583486
O O11 0.000000 0.051196 0.644362
O O12 0.500000 0.138050 0.210264
O O13 0.381302 0.250000 0.203420
O O14 0.368453 0.072904 0.163336
O O15 0.164491 0.250000 0.536729
O O16 0.250000 0.388636 0.500000
O O17 0.750000 0.500000 0.902709
#
# Coordination Sequence:
#
# PCOD9502330 Si02
#       6
#    16  16  16  16  16  16
#     4  10  20  36  62  91 119 155 199 243 281 326
#     4   9  18  33  52  74 102 136 176 224 281 343
#     4  10  20  35  57  81 105 141 192 242 284 336
#     4  10  21  39  62  84 110 150 200 248 289 337
#     4  10  20  33  50  78 109 139 175 225 292 351
#     4  11  22  36  56  87 123 158 190 234 291 346
#
# _framework density 19.128361000000002
#
# number of rings (size 3 to 8) (size 9 to 14) (size 15 to 20)
#    0.000    2.000    0.000    5.000    0.000    7.667 
#    3.000    0.833    0.000    3.000    0.000    0.000 
#    0.000    0.000    0.000    0.000    0.000    0.000 
#
# Total GULP energy -267962.405319 kJ/mol
# GULP energy per Si atom -5582.550111 kJ/mol
# Density = 1.908482 g / cm^3
# Si number density = 19.128361 Si / 1000 Ang^3
#
#
#
# Elastic Constant Matrix: (Units=GPa)
#
#
# Indices 1 2 3 4 5 6 
#
# 1 38.1564 36.4796 19.7821 0.0000 0.0000 0.0000
# 2 36.4796 161.2370 51.0009 0.0000 0.0000 0.0000
# 3 19.7821 51.0009 54.9222 0.0000 0.0000 0.0000
# 4 0.0000 0.0000 0.0000 28.7771 0.0000 0.0000
# 5 0.0000 0.0000 0.0000 0.0000 -16.9499 0.0000
# 6 0.0000 0.0000 0.0000 0.0000 0.0000 11.5702
#
#
#
# Elastic Compliance Matrix: (Units=1/GPa)
#
#
# Indices 1 2 3 4 5 6 
#
# 1 0.035522 -0.005649 -0.007549 0.000000 0.000000 0.000000
# 2 -0.005649 0.009680 -0.006954 0.000000 0.000000 0.000000
# 3 -0.007549 -0.006954 0.027384 0.000000 0.000000 0.000000
# 4 0.000000 0.000000 0.000000 0.034750 0.000000 0.000000
# 5 0.000000 0.000000 0.000000 0.000000 -0.058997 0.000000
# 6 0.000000 0.000000 0.000000 0.000000 0.000000 0.086429
#
#
# Mechanical properties :
#
#
# Convention : Reuss Voigt Hill
#
# Bulk Modulus (GPa) = 30.97662 52.09344 41.53503
# Shear Modulus (GPa) = 26.90597 14.48301 20.69449
#
# Velocity S-wave (km/s) = 3.75454 2.75462 3.29275
# Velocity P-wave (km/s) = 5.91816 6.11637 6.01808
#
# Compressibility (1/GPa) = 0.03228241
#
# Stress axis : x y z
#
# Youngs Moduli (GPa) = 28.15119 103.30841 36.51768
#
# Poissons Ratio (x) = 0.58360 0.27567
# Poissons Ratio (y) = 0.15903 0.25394
# Poissons Ratio (z) = 0.21251 0.71840
#
# Static dielectric constant tensor:
#      x y z
#    x 1.661820 0.000000 0.000000 
#    y 0.000000 1.707300 0.000000 
#    z 0.000000 0.000000 1.629730 
# 
# From -- ./inp_files/38465.got.cif
#   From: 2010.05.17/outbox.cif.g08.bks.cpg/sg67_20_cif.got.tgz:38465.got - 2010.06.03 18:28:57.
