data_PCOD9502136
_publ_section_title
;
Structure prediction by ZEFSAII (Michael W. Deem and Ramdas Pophale) SiO2 
 PCOD9502136
Probable space group: C M M A
;
_chemical_formula_sum "Si O2"
_cell_formula_units_Z 80
_cell_length_a 28.750359
_cell_length_b 9.017095
_cell_length_c 16.208251
_cell_angle_alpha 90.000000
_cell_angle_beta 90.000000
_cell_angle_gamma 90.000000
_cell_volume 4201.903466
_symmetry_space_group_name_H-M "C M M A"
_symmetry_group_IT_number 67
_symmetry_cell_setting 'orthorhombic'
loop_
_space_group_symop_operation_xyz
x,y,z
-x,1/2-y,z
x,-y,-z
-x,1/2+y,-z
-x,-y,-z
x,1/2+y,-z
-x,y,z
x,1/2-y,z
1/2+x,1/2+y,z
1/2-x,-y,z
1/2+x,1/2-y,-z
1/2-x,y,-z
1/2-x,1/2-y,-z
1/2+x,y,-z
1/2-x,1/2+y,z
1/2+x,-y,z
loop_
_atom_site_type_symbol
_atom_site_label
_atom_site_fract_x
_atom_site_fract_y
_atom_site_fract_z
Si Si1 0.595482 0.572165 0.242216
Si Si2 0.921106 0.081724 0.584672
Si Si3 0.444209 0.080926 0.082682
Si Si4 0.309219 0.082680 0.417839
Si Si5 0.296577 0.573998 0.246974
O O1 0.593316 0.750000 0.248897
O O2 0.575012 0.504074 0.327752
O O3 0.568156 0.509744 0.164239
O O4 0.650085 0.532022 0.223863
O O5 0.939792 0.250000 0.589428
O O6 0.865161 0.093755 0.577682
O O7 0.937177 0.000000 0.500000
O O8 0.500000 0.087483 0.076489
O O9 0.426693 0.250000 0.088173
O O10 0.426620 0.000000 0.000000
O O11 0.290814 0.250000 0.408980
O O12 0.295670 0.000000 0.500000
O O13 0.297150 0.979919 0.341365
O O14 0.292197 0.750000 0.239524
O O15 0.250000 0.500000 0.208602
#
# Coordination Sequence:
#
# PCOD9502136 Si02
#       5
#    16  16  16  16  16
#     4  10  20  34  54  80 110 145 183 223 270 322
#     4   9  16  27  45  70 102 141 184 227 269 315
#     4  10  21  38  62  91 118 141 168 208 262 323
#     4   9  16  26  40  59  87 125 171 223 273 316
#     4  10  20  32  46  67  97 135 179 222 263 309
#
# _framework density 19.038990999999999
#
# number of rings (size 3 to 8) (size 9 to 14) (size 15 to 20)
#    0.000    2.400    0.000    3.000    0.000    8.800 
#    0.000    2.000    0.000    1.200    0.000    4.200 
#    0.000    0.000    0.000    0.000    0.000    0.000 
#
# Total GULP energy -222860.692942 kJ/mol
# GULP energy per Si atom -5571.517324 kJ/mol
# Density = 1.899566 g / cm^3
# Si number density = 19.038991 Si / 1000 Ang^3
#
#
#
# Elastic Constant Matrix: (Units=GPa)
#
#
# Indices 1 2 3 4 5 6 
#
# 1 16.4009 12.3156 9.8454 0.0000 0.0000 0.0000
# 2 12.3156 79.3850 51.3539 0.0000 0.0000 0.0000
# 3 9.8454 51.3539 117.8028 0.0000 0.0000 0.0000
# 4 0.0000 0.0000 0.0000 24.4842 0.0000 0.0000
# 5 0.0000 0.0000 0.0000 0.0000 -10.2499 0.0000
# 6 0.0000 0.0000 0.0000 0.0000 0.0000 23.5879
#
#
#
# Elastic Compliance Matrix: (Units=1/GPa)
#
#
# Indices 1 2 3 4 5 6 
#
# 1 0.069211 -0.009743 -0.001537 0.000000 0.000000 0.000000
# 2 -0.009743 0.018916 -0.007432 0.000000 0.000000 0.000000
# 3 -0.001537 -0.007432 0.011857 0.000000 0.000000 0.000000
# 4 0.000000 0.000000 0.000000 0.040843 0.000000 0.000000
# 5 0.000000 0.000000 0.000000 0.000000 -0.097562 0.000000
# 6 0.000000 0.000000 0.000000 0.000000 0.000000 0.042395
#
#
# Mechanical properties :
#
#
# Convention : Reuss Voigt Hill
#
# Bulk Modulus (GPa) = 15.98455 40.06871 28.02663
# Shear Modulus (GPa) = 34.73761 16.90268 25.82014
#
# Velocity S-wave (km/s) = 4.27611 2.98282 3.68662
# Velocity P-wave (km/s) = 5.72661 5.74058 5.73360
#
# Compressibility (1/GPa) = 0.06256040
#
# Stress axis : x y z
#
# Youngs Moduli (GPa) = 14.44857 52.86557 84.33860
#
# Poissons Ratio (x) = 0.51506 0.12964
# Poissons Ratio (y) = 0.14077 0.62679
# Poissons Ratio (z) = 0.02221 0.39288
#
# Static dielectric constant tensor:
#      x y z
#    x 1.748460 0.000000 0.000000 
#    y 0.000000 1.673530 0.000000 
#    z 0.000000 0.000000 1.610740 
# 
# From -- ./inp_files/36068.got.cif
#   From: 2010.05.17/outbox.cif.g08.bks.cpg/sg67_19_cif.got.tgz:36068.got - 2010.06.03 18:28:57.
