data_PCOD9502367
_publ_section_title
;
Structure prediction by ZEFSAII (Michael W. Deem and Ramdas Pophale) SiO2 
 PCOD9502367
Probable space group: C M M A
;
_chemical_formula_sum "Si O2"
_cell_formula_units_Z 80
_cell_length_a 8.700612
_cell_length_b 18.719768
_cell_length_c 26.912036
_cell_angle_alpha 90.000000
_cell_angle_beta 90.000000
_cell_angle_gamma 90.000000
_cell_volume 4383.255830
_symmetry_space_group_name_H-M "C M M A"
_symmetry_group_IT_number 67
_symmetry_cell_setting 'orthorhombic'
loop_
_space_group_symop_operation_xyz
x,y,z
-x,1/2-y,z
x,-y,-z
-x,1/2+y,-z
-x,-y,-z
x,1/2+y,-z
-x,y,z
x,1/2-y,z
1/2+x,1/2+y,z
1/2-x,-y,z
1/2+x,1/2-y,-z
1/2-x,y,-z
1/2-x,1/2-y,-z
1/2+x,y,-z
1/2-x,1/2+y,z
1/2+x,-y,z
loop_
_atom_site_type_symbol
_atom_site_label
_atom_site_fract_x
_atom_site_fract_y
_atom_site_fract_z
Si Si1 0.685951 0.420476 0.649970
Si Si2 0.815817 0.419634 0.839915
Si Si3 0.685758 0.832618 0.252272
Si Si4 0.183634 0.919352 0.050116
Si Si5 0.314682 0.832968 0.446830
O O1 0.500000 0.422859 0.649729
O O2 0.750000 0.500000 0.652660
O O3 0.733664 0.375066 0.698203
O O4 0.735967 0.380914 0.599439
O O5 0.750000 0.500000 0.835323
O O6 0.751063 0.371182 0.796201
O O7 0.776217 0.390205 0.895210
O O8 0.000000 0.423704 0.836706
O O9 0.500000 0.834722 0.250203
O O10 0.733267 0.750000 0.254828
O O11 0.000000 0.922498 0.045870
O O12 0.250000 0.000000 0.051125
O O13 0.250000 0.884502 0.000000
O O14 0.500000 0.834789 0.448754
O O15 0.268648 0.750000 0.439226
O O16 0.250000 0.856741 0.500000
#
# Coordination Sequence:
#
# PCOD9502367 Si02
#       5
#    16  16  16  16  16
#     4  10  21  36  54  77 105 135 169 211 257 304
#     4  10  20  33  51  77 107 137 170 212 259 305
#     4  10  21  37  56  76 100 134 174 214 260 314
#     4   9  16  26  43  69 100 132 166 205 250 299
#     4   9  18  34  55  77 103 136 172 209 249 296
#
# _framework density 18.251273000000001
#
# number of rings (size 3 to 8) (size 9 to 14) (size 15 to 20)
#    0.000    2.400    0.000    3.000    0.000    8.800 
#    0.000    2.000    0.000    4.200    0.000    0.000 
#    0.000    0.000    0.000    0.000    0.000    0.000 
#
# Total GULP energy -223112.769113 kJ/mol
# GULP energy per Si atom -5577.819228 kJ/mol
# Density = 1.820973 g / cm^3
# Si number density = 18.251273 Si / 1000 Ang^3
#
#
#
# Elastic Constant Matrix: (Units=GPa)
#
#
# Indices 1 2 3 4 5 6 
#
# 1 23.4610 27.4633 47.1747 0.0000 0.0000 0.0000
# 2 27.4633 109.1161 107.5567 0.0000 0.0000 0.0000
# 3 47.1747 107.5567 230.8282 0.0000 0.0000 0.0000
# 4 0.0000 0.0000 0.0000 -21.3044 0.0000 0.0000
# 5 0.0000 0.0000 0.0000 0.0000 37.7240 0.0000
# 6 0.0000 0.0000 0.0000 0.0000 0.0000 24.3443
#
#
#
# Elastic Compliance Matrix: (Units=1/GPa)
#
#
# Indices 1 2 3 4 5 6 
#
# 1 0.075129 -0.006980 -0.012102 0.000000 0.000000 0.000000
# 2 -0.006980 0.017598 -0.006773 0.000000 0.000000 0.000000
# 3 -0.012102 -0.006773 0.009962 0.000000 0.000000 0.000000
# 4 0.000000 0.000000 0.000000 -0.046939 0.000000 0.000000
# 5 0.000000 0.000000 0.000000 0.000000 0.026508 0.000000
# 6 0.000000 0.000000 0.000000 0.000000 0.000000 0.041077
#
#
# Mechanical properties :
#
#
# Convention : Reuss Voigt Hill
#
# Bulk Modulus (GPa) = 19.61645 80.86608 50.24127
# Shear Modulus (GPa) = 26.03641 20.23349 23.13495
#
# Velocity S-wave (km/s) = 3.78107 3.33319 3.56417
# Velocity P-wave (km/s) = 5.46199 7.69524 6.67271
#
# Compressibility (1/GPa) = 0.05097762
#
# Stress axis : x y z
#
# Youngs Moduli (GPa) = 13.31047 56.82458 100.38582
#
# Poissons Ratio (x) = 0.39666 1.21483
# Poissons Ratio (y) = 0.09291 0.67995
# Poissons Ratio (z) = 0.16108 0.38489
#
# Static dielectric constant tensor:
#      x y z
#    x 1.619820 0.000000 0.000000 
#    y 0.000000 1.593410 0.000000 
#    z 0.000000 0.000000 1.651180 
# 
# From -- ./inp_files/43274.got.cif
#   From: 2010.05.17/outbox.cif.g08.bks.cpg/sg67_22_cif.got.tgz:43274.got - 2010.06.03 18:28:57.
