data_PCOD9502717
_publ_section_title
;
Structure prediction by ZEFSAII (Michael W. Deem and Ramdas Pophale) SiO2 
 PCOD9502717
Probable space group: C M M A
;
_chemical_formula_sum "Si O2"
_cell_formula_units_Z 80
_cell_length_a 17.163757
_cell_length_b 23.037554
_cell_length_c 10.741069
_cell_angle_alpha 90.000000
_cell_angle_beta 90.000000
_cell_angle_gamma 90.000000
_cell_volume 4247.136606
_symmetry_space_group_name_H-M "C M M A"
_symmetry_group_IT_number 67
_symmetry_cell_setting 'orthorhombic'
loop_
_space_group_symop_operation_xyz
x,y,z
-x,1/2-y,z
x,-y,-z
-x,1/2+y,-z
-x,-y,-z
x,1/2+y,-z
-x,y,z
x,1/2-y,z
1/2+x,1/2+y,z
1/2-x,-y,z
1/2+x,1/2-y,-z
1/2-x,y,-z
1/2-x,1/2-y,-z
1/2+x,y,-z
1/2-x,1/2+y,z
1/2+x,-y,z
loop_
_atom_site_type_symbol
_atom_site_label
_atom_site_fract_x
_atom_site_fract_y
_atom_site_fract_z
Si Si1 0.232630 0.750000 0.219779
Si Si2 0.305585 0.874358 0.723230
Si Si3 0.820444 0.042817 0.172959
Si Si4 0.589548 0.879231 0.973507
Si Si5 0.130319 0.750000 0.964622
Si Si6 0.089918 0.034882 0.627906
O O1 0.212824 0.807435 0.295305
O O2 0.318464 0.750000 0.160617
O O3 0.181866 0.750000 0.091684
O O4 0.225617 0.908069 0.749752
O O5 0.359060 0.878293 0.848211
O O6 0.355548 0.908621 0.622285
O O7 0.876520 0.005228 0.261190
O O8 0.750000 0.000000 0.132782
O O9 0.867936 0.075627 0.065723
O O10 0.500000 0.896120 0.951158
O O11 0.589875 0.813096 0.027301
O O12 0.000000 0.049924 0.650837
O O13 0.095212 0.000000 0.500000
#
# Coordination Sequence:
#
# PCOD9502717 Si02
#       6
#     8  16  16  16   8  16
#     4   9  16  32  54  80 110 141 181 219 265 318
#     4  10  20  34  56  81 109 144 181 224 269 327
#     4  10  21  34  53  77 107 144 185 221 271 326
#     4  11  20  32  51  82 116 144 180 220 272 326
#     4   9  17  30  52  77 111 150 176 212 265 326
#     4  10  22  40  58  77 103 138 183 233 285 331
#
# _framework density 18.836220000000001
#
# number of rings (size 3 to 8) (size 9 to 14) (size 15 to 20)
#    0.000    2.000    2.000    2.100    0.000    9.200 
#    0.000    6.500    0.000    3.600    0.000    2.800 
#    0.000    0.000    0.000    0.000    0.000    0.000 
#
# Total GULP energy -223197.916527 kJ/mol
# GULP energy per Si atom -5579.947913 kJ/mol
# Density = 1.879335 g / cm^3
# Si number density = 18.836220 Si / 1000 Ang^3
#
#
#
# Elastic Constant Matrix: (Units=GPa)
#
#
# Indices 1 2 3 4 5 6 
#
# 1 51.5468 6.8435 -8.3793 0.0000 0.0000 0.0000
# 2 6.8435 117.7830 1.4959 0.0000 0.0000 0.0000
# 3 -8.3793 1.4959 18.5332 0.0000 0.0000 0.0000
# 4 0.0000 0.0000 0.0000 19.6910 0.0000 0.0000
# 5 0.0000 0.0000 0.0000 0.0000 19.1321 0.0000
# 6 0.0000 0.0000 0.0000 0.0000 0.0000 23.1796
#
#
#
# Elastic Compliance Matrix: (Units=1/GPa)
#
#
# Indices 1 2 3 4 5 6 
#
# 1 0.021152 -0.001352 0.009672 0.000000 0.000000 0.000000
# 2 -0.001352 0.008585 -0.001304 0.000000 0.000000 0.000000
# 3 0.009672 -0.001304 0.058435 0.000000 0.000000 0.000000
# 4 0.000000 0.000000 0.000000 0.050785 0.000000 0.000000
# 5 0.000000 0.000000 0.000000 0.000000 0.052268 0.000000
# 6 0.000000 0.000000 0.000000 0.000000 0.000000 0.043141
#
#
# Mechanical properties :
#
#
# Convention : Reuss Voigt Hill
#
# Bulk Modulus (GPa) = 9.78427 20.86481 15.32454
# Shear Modulus (GPa) = 19.65390 24.92738 22.29064
#
# Velocity S-wave (km/s) = 3.23369 3.64177 3.44378
# Velocity P-wave (km/s) = 4.37584 5.36510 4.89552
#
# Compressibility (1/GPa) = 0.10220490
#
# Stress axis : x y z
#
# Youngs Moduli (GPa) = 47.27772 116.47824 17.11290
#
# Poissons Ratio (x) = 0.15746 -0.16552
# Poissons Ratio (y) = 0.06391 0.02232
# Poissons Ratio (z) = -0.45728 0.15190
#
# Static dielectric constant tensor:
#      x y z
#    x 1.652560 0.000000 0.000000 
#    y 0.000000 1.677090 0.000000 
#    z 0.000000 0.000000 1.637050 
# 
# From -- ./inp_files/19343.got.cif
#   From: 2010.05.17/outbox.cif.g08.bks.cpg/sg67_10_cif.got.tgz:19343.got - 2010.06.03 18:28:57.
