data_PCOD9502760
_publ_section_title
;
Structure prediction by ZEFSAII (Michael W. Deem and Ramdas Pophale) SiO2 
 PCOD9502760
Probable space group: C M M A
;
_chemical_formula_sum "Si O2"
_cell_formula_units_Z 68
_cell_length_a 18.242515
_cell_length_b 22.197166
_cell_length_c 8.683913
_cell_angle_alpha 90.000000
_cell_angle_beta 90.000000
_cell_angle_gamma 90.000000
_cell_volume 3516.395420
_symmetry_space_group_name_H-M "C M M A"
_symmetry_group_IT_number 67
_symmetry_cell_setting 'orthorhombic'
loop_
_space_group_symop_operation_xyz
x,y,z
-x,1/2-y,z
x,-y,-z
-x,1/2+y,-z
-x,-y,-z
x,1/2+y,-z
-x,y,z
x,1/2-y,z
1/2+x,1/2+y,z
1/2-x,-y,z
1/2+x,1/2-y,-z
1/2-x,y,-z
1/2-x,1/2-y,-z
1/2+x,y,-z
1/2-x,1/2+y,z
1/2+x,-y,z
loop_
_atom_site_type_symbol
_atom_site_label
_atom_site_fract_x
_atom_site_fract_y
_atom_site_fract_z
Si Si1 0.750000 0.500000 0.000000
Si Si2 0.912959 0.515939 0.665913
Si Si3 0.780604 0.178151 0.669260
Si Si4 0.662002 0.392638 0.854422
Si Si5 0.587241 0.888864 0.821240
O O1 0.705593 0.453481 0.896686
O O2 0.879519 0.500000 0.500000
O O3 0.889200 0.581687 0.720988
O O4 0.900170 0.459597 0.781416
O O5 0.000000 0.518223 0.651171
O O6 0.787497 0.250000 0.676570
O O7 0.750000 0.161498 0.500000
O O8 0.720661 0.155031 0.793505
O O9 0.858522 0.147854 0.709550
O O10 0.615602 0.375798 0.005488
O O11 0.500000 0.876868 0.805176
#
# Coordination Sequence:
#
# PCOD9502760 Si02
#       5
#     4  16  16  16  16
#     4  12  20  32  58  92 120 152 192 242 292 368
#     4  10  20  34  57  91 127 160 194 242 307 369
#     4  11  25  44  64  86 117 164 215 255 295 352
#     4  12  20  37  61  89 125 158 201 248 300 361
#     4  11  22  38  61  92 124 157 198 253 311 362
#
# _framework density 19.337985
#
# number of rings (size 3 to 8) (size 9 to 14) (size 15 to 20)
#    0.000    0.941    4.706    2.118    0.000    4.235 
#    0.000    3.529    0.000    4.941    0.000    0.000 
#    0.000    0.000    0.000    0.000    0.000    0.000 
#
# Total GULP energy -189674.803767 kJ/mol
# GULP energy per Si atom -5578.670699 kJ/mol
# Density = 1.929397 g / cm^3
# Si number density = 19.337985 Si / 1000 Ang^3
#
#
#
# Elastic Constant Matrix: (Units=GPa)
#
#
# Indices 1 2 3 4 5 6 
#
# 1 125.0346 54.7162 55.0856 0.0000 0.0000 0.0000
# 2 54.7162 49.0763 10.9267 0.0000 0.0000 0.0000
# 3 55.0856 10.9267 83.4299 0.0000 0.0000 0.0000
# 4 0.0000 0.0000 0.0000 28.6156 0.0000 0.0000
# 5 0.0000 0.0000 0.0000 0.0000 24.4791 0.0000
# 6 0.0000 0.0000 0.0000 0.0000 0.0000 -84.6310
#
#
#
# Elastic Compliance Matrix: (Units=1/GPa)
#
#
# Indices 1 2 3 4 5 6 
#
# 1 0.024210 -0.024137 -0.012824 0.000000 0.000000 0.000000
# 2 -0.024137 0.045053 0.010036 0.000000 0.000000 0.000000
# 3 -0.012824 0.010036 0.019139 0.000000 0.000000 0.000000
# 4 0.000000 0.000000 0.000000 0.034946 0.000000 0.000000
# 5 0.000000 0.000000 0.000000 0.000000 0.040851 0.000000
# 6 0.000000 0.000000 0.000000 0.000000 0.000000 -0.011816
#
#
# Mechanical properties :
#
#
# Convention : Reuss Voigt Hill
#
# Bulk Modulus (GPa) = 28.94149 55.44419 42.19284
# Shear Modulus (GPa) = 22.96217 2.81357 12.88787
#
# Velocity S-wave (km/s) = 3.44962 1.20752 2.58438
# Velocity P-wave (km/s) = 5.55564 5.53873 5.54719
#
# Compressibility (1/GPa) = 0.03455247
#
# Stress axis : x y z
#
# Youngs Moduli (GPa) = 41.30516 22.19613 52.25016
#
# Poissons Ratio (x) = 0.53575 0.67004
# Poissons Ratio (y) = 0.99699 -0.52440
# Poissons Ratio (z) = 0.52969 -0.22277
#
# Static dielectric constant tensor:
#      x y z
#    x 1.729070 0.000000 0.000000 
#    y 0.000000 1.634860 0.000000 
#    z 0.000000 0.000000 1.857820 
# 
# From -- ./inp_files/9472.got.cif
#   From: 2010.05.17/outbox.cif.g08.bks.cpg/sg67_5_cif.got.tgz:9472.got - 2010.06.03 18:28:57.
