data_PCOD9502618
_publ_section_title
;
Structure prediction by ZEFSAII (Michael W. Deem and Ramdas Pophale) SiO2 
 PCOD9502618
Probable space group: C M M A
;
_chemical_formula_sum "Si O2"
_cell_formula_units_Z 116
_cell_length_a 26.208454
_cell_length_b 8.101958
_cell_length_c 25.913857
_cell_angle_alpha 90.000000
_cell_angle_beta 90.000000
_cell_angle_gamma 90.000000
_cell_volume 5502.543046
_symmetry_space_group_name_H-M "C M M A"
_symmetry_group_IT_number 67
_symmetry_cell_setting 'orthorhombic'
loop_
_space_group_symop_operation_xyz
x,y,z
-x,1/2-y,z
x,-y,-z
-x,1/2+y,-z
-x,-y,-z
x,1/2+y,-z
-x,y,z
x,1/2-y,z
1/2+x,1/2+y,z
1/2-x,-y,z
1/2+x,1/2-y,-z
1/2-x,y,-z
1/2-x,1/2-y,-z
1/2+x,y,-z
1/2-x,1/2+y,z
1/2+x,-y,z
loop_
_atom_site_type_symbol
_atom_site_label
_atom_site_fract_x
_atom_site_fract_y
_atom_site_fract_z
Si Si1 0.944571 0.948623 0.940087
Si Si2 0.411763 0.065415 0.664575
Si Si3 0.163797 0.449544 0.808186
Si Si4 0.938881 0.934097 0.445141
Si Si5 0.554872 0.443239 0.228623
Si Si6 0.195509 0.553868 0.306056
Si Si7 0.750000 0.000000 0.000000
Si Si8 0.329142 0.946279 0.081796
O O1 0.944659 0.750000 0.935834
O O2 0.888684 0.002073 0.920397
O O3 0.000000 0.008046 0.918302
O O4 0.944827 0.000000 0.000000
O O5 0.424838 0.250000 0.680370
O O6 0.428593 0.035266 0.606371
O O7 0.436163 0.954436 0.709569
O O8 0.351504 0.035046 0.667154
O O9 0.163728 0.250000 0.813940
O O10 0.105368 0.510772 0.798797
O O11 0.191589 0.489384 0.754706
O O12 0.186328 0.529990 0.859043
O O13 0.918871 0.750000 0.436305
O O14 0.000000 0.926201 0.450041
O O15 0.919211 0.000000 0.500000
O O16 0.500000 0.518798 0.215656
O O17 0.553462 0.250000 0.215363
O O18 0.188360 0.750000 0.310434
O O19 0.250000 0.500000 0.326414
O O20 0.793025 0.049120 0.956810
O O21 0.325047 0.750000 0.067457
#
# Coordination Sequence:
#
# PCOD9502618 Si02
#       8
#    16  16  16  16  16  16   4  16
#     4   9  18  35  57  79 102 130 167 212 260 313
#     4  11  21  33  53  83 117 155 198 242 289 343
#     4   9  21  38  57  83 113 143 177 221 274 335
#     4  10  20  34  53  80 117 160 203 247 294 344
#     4   9  18  35  57  82 115 153 190 230 281 341
#     4  10  21  39  60  83 110 144 186 236 290 343
#     4  12  26  44  58  82 106 152 184 228 272 336
#     4  11  24  40  59  83 110 141 180 225 274 331
#
# _framework density 21.081161000000002
#
# number of rings (size 3 to 8) (size 9 to 14) (size 15 to 20)
#    0.000    2.069    0.690    3.517    0.966    7.724 
#    0.000    0.000    0.000    0.414    0.000    2.897 
#    0.000    0.000    0.000    0.000    0.000    0.000 
#
# Total GULP energy -323364.114801 kJ/mol
# GULP energy per Si atom -5575.243359 kJ/mol
# Density = 2.103318 g / cm^3
# Si number density = 21.081161 Si / 1000 Ang^3
#
#
#
# Elastic Constant Matrix: (Units=GPa)
#
#
# Indices 1 2 3 4 5 6 
#
# 1 102.0842 4.5852 6.2832 0.0000 0.0000 0.0000
# 2 4.5852 31.7917 0.1169 0.0000 0.0000 0.0000
# 3 6.2832 0.1169 81.9536 0.0000 0.0000 0.0000
# 4 0.0000 0.0000 0.0000 16.8282 0.0000 0.0000
# 5 0.0000 0.0000 0.0000 0.0000 10.1414 0.0000
# 6 0.0000 0.0000 0.0000 0.0000 0.0000 -2.9827
#
#
#
# Elastic Compliance Matrix: (Units=1/GPa)
#
#
# Indices 1 2 3 4 5 6 
#
# 1 0.009907 -0.001426 -0.000757 0.000000 0.000000 0.000000
# 2 -0.001426 0.031660 0.000064 0.000000 0.000000 0.000000
# 3 -0.000757 0.000064 0.012260 0.000000 0.000000 0.000000
# 4 0.000000 0.000000 0.000000 0.059424 0.000000 0.000000
# 5 0.000000 0.000000 0.000000 0.000000 0.098606 0.000000
# 6 0.000000 0.000000 0.000000 0.000000 0.000000 -0.335264
#
#
# Mechanical properties :
#
#
# Convention : Reuss Voigt Hill
#
# Bulk Modulus (GPa) = 20.16614 26.42223 23.29419
# Shear Modulus (GPa) = -48.71401 18.45365 -15.13018
#
# Velocity S-wave (km/s) = -4.81228 2.96186 -2.68192
# Velocity P-wave (km/s) = 4.61418 4.92520 1.21799
#
# Compressibility (1/GPa) = 0.04958807
#
# Stress axis : x y z
#
# Youngs Moduli (GPa) = 100.94380 31.58545 81.56598
#
# Poissons Ratio (x) = 0.04504 0.06178
# Poissons Ratio (y) = 0.14394 -0.00523
# Poissons Ratio (z) = 0.07646 -0.00203
#
# Static dielectric constant tensor:
#      x y z
#    x 1.823670 0.000000 0.000000 
#    y 0.000000 1.799090 0.000000 
#    z 0.000000 0.000000 1.738100 
# 
# From -- ./inp_files/42858.got.cif
#   From: 2010.05.17/outbox.cif.g08.bks.cpg/sg67_22_cif.got.tgz:42858.got - 2010.06.03 18:28:57.
