data_PCOD9502119
_publ_section_title
;
Structure prediction by ZEFSAII (Michael W. Deem and Ramdas Pophale) SiO2 
 PCOD9502119
Probable space group: C M M A
;
_chemical_formula_sum "Si O2"
_cell_formula_units_Z 96
_cell_length_a 9.017297
_cell_length_b 30.707876
_cell_length_c 21.447303
_cell_angle_alpha 90.000000
_cell_angle_beta 90.000000
_cell_angle_gamma 90.000000
_cell_volume 5938.801913
_symmetry_space_group_name_H-M "C M M A"
_symmetry_group_IT_number 67
_symmetry_cell_setting 'orthorhombic'
loop_
_space_group_symop_operation_xyz
x,y,z
-x,1/2-y,z
x,-y,-z
-x,1/2+y,-z
-x,-y,-z
x,1/2+y,-z
-x,y,z
x,1/2-y,z
1/2+x,1/2+y,z
1/2-x,-y,z
1/2+x,1/2-y,-z
1/2-x,y,-z
1/2-x,1/2-y,-z
1/2+x,y,-z
1/2-x,1/2+y,z
1/2+x,-y,z
loop_
_atom_site_type_symbol
_atom_site_label
_atom_site_fract_x
_atom_site_fract_y
_atom_site_fract_z
Si Si1 0.832164 0.955555 0.727066
Si Si2 0.178018 0.136462 0.706758
Si Si3 0.333318 0.543368 0.422229
Si Si4 0.170996 0.697014 0.063571
Si Si5 0.674971 0.302160 0.807083
Si Si6 0.676663 0.865697 0.562937
O O1 0.743722 0.909856 0.731086
O O2 0.846700 0.959787 0.652402
O O3 0.000000 0.952341 0.752818
O O4 0.750000 0.000000 0.748906
O O5 0.240175 0.173184 0.752322
O O6 0.219767 0.147546 0.634221
O O7 0.000000 0.133767 0.708342
O O8 0.500000 0.548138 0.447896
O O9 0.250000 0.500000 0.440168
O O10 0.231384 0.584451 0.436347
O O11 0.171387 0.750000 0.062208
O O12 0.258428 0.684381 0.125904
O O13 0.000000 0.682968 0.066047
O O14 0.250000 0.682325 0.000000
O O15 0.500000 0.311712 0.804540
O O16 0.693931 0.250000 0.801356
O O17 0.500000 0.862132 0.557427
O O18 0.750000 0.845710 0.500000
#
# Coordination Sequence:
#
# PCOD9502119 Si02
#       6
#    16  16  16  16  16  16
#     4   9  16  27  44  65  90 120 153 191 235 283
#     4  10  20  33  49  69  93 122 157 198 243 290
#     4   9  16  26  40  58  81 108 139 177 223 278
#     4   9  16  27  45  70 101 134 163 190 223 268
#     4  10  20  33  50  73 100 130 163 197 234 278
#     4  10  20  32  45  61  81 108 145 189 238 289
#
# _framework density 16.164877000000001
#
# number of rings (size 3 to 8) (size 9 to 14) (size 15 to 20)
#    0.000    2.500    0.000    3.000    0.000    9.333 
#    0.000    1.667    0.000    0.500    0.000    0.000 
#    0.000    0.667    0.000    6.667    0.000    4.667 
#
# Total GULP energy -267267.435151 kJ/mol
# GULP energy per Si atom -5568.071566 kJ/mol
# Density = 1.612808 g / cm^3
# Si number density = 16.164877 Si / 1000 Ang^3
#
#
#
# Elastic Constant Matrix: (Units=GPa)
#
#
# Indices 1 2 3 4 5 6 
#
# 1 90.7005 28.1078 45.6266 0.0000 0.0000 0.0000
# 2 28.1078 26.9000 31.5174 0.0000 0.0000 0.0000
# 3 45.6266 31.5174 107.8689 0.0000 0.0000 0.0000
# 4 0.0000 0.0000 0.0000 17.8352 0.0000 0.0000
# 5 0.0000 0.0000 0.0000 0.0000 28.7854 0.0000
# 6 0.0000 0.0000 0.0000 0.0000 0.0000 18.2512
#
#
#
# Elastic Compliance Matrix: (Units=1/GPa)
#
#
# Indices 1 2 3 4 5 6 
#
# 1 0.016932 -0.014142 -0.003030 0.000000 0.000000 0.000000
# 2 -0.014142 0.068338 -0.013985 0.000000 0.000000 0.000000
# 3 -0.003030 -0.013985 0.014638 0.000000 0.000000 0.000000
# 4 0.000000 0.000000 0.000000 0.056069 0.000000 0.000000
# 5 0.000000 0.000000 0.000000 0.000000 0.034740 0.000000
# 6 0.000000 0.000000 0.000000 0.000000 0.000000 0.054791
#
#
# Mechanical properties :
#
#
# Convention : Reuss Voigt Hill
#
# Bulk Modulus (GPa) = 26.60040 48.44143 37.52091
# Shear Modulus (GPa) = 15.60776 20.98887 18.29831
#
# Velocity S-wave (km/s) = 3.11068 3.60727 3.36814
# Velocity P-wave (km/s) = 5.42154 6.88346 6.19577
#
# Compressibility (1/GPa) = 0.03759343
#
# Stress axis : x y z
#
# Youngs Moduli (GPa) = 59.05933 14.63322 68.31426
#
# Poissons Ratio (x) = 0.20695 0.20698
# Poissons Ratio (y) = 0.83525 0.95538
# Poissons Ratio (z) = 0.17894 0.20465
#
# Static dielectric constant tensor:
#      x y z
#    x 1.565840 0.000000 0.000000 
#    y 0.000000 1.522590 0.000000 
#    z 0.000000 0.000000 1.566510 
# 
# From -- ./inp_files/37122.got.cif
#   From: 2010.05.17/outbox.cif.g08.bks.cpg/sg67_19_cif.got.tgz:37122.got - 2010.06.03 18:28:57.
