data_PCOD9502234
_publ_section_title
;
Structure prediction by ZEFSAII (Michael W. Deem and Ramdas Pophale) SiO2 
 PCOD9502234
Probable space group: C M M A
;
_chemical_formula_sum "Si O2"
_cell_formula_units_Z 96
_cell_length_a 28.049511
_cell_length_b 16.959103
_cell_length_c 10.509164
_cell_angle_alpha 90.000000
_cell_angle_beta 90.000000
_cell_angle_gamma 90.000000
_cell_volume 4999.151999
_symmetry_space_group_name_H-M "C M M A"
_symmetry_group_IT_number 67
_symmetry_cell_setting 'orthorhombic'
loop_
_space_group_symop_operation_xyz
x,y,z
-x,1/2-y,z
x,-y,-z
-x,1/2+y,-z
-x,-y,-z
x,1/2+y,-z
-x,y,z
x,1/2-y,z
1/2+x,1/2+y,z
1/2-x,-y,z
1/2+x,1/2-y,-z
1/2-x,y,-z
1/2-x,1/2-y,-z
1/2+x,y,-z
1/2-x,1/2+y,z
1/2+x,-y,z
loop_
_atom_site_type_symbol
_atom_site_label
_atom_site_fract_x
_atom_site_fract_y
_atom_site_fract_z
Si Si1 0.623657 0.042718 0.626565
Si Si2 0.193765 0.094915 0.006151
Si Si3 0.446637 0.344235 0.093227
Si Si4 0.609299 0.155535 0.837806
Si Si5 0.193304 0.836507 0.503819
Si Si6 0.642525 0.619143 0.751655
O O1 0.595142 0.105032 0.713457
O O2 0.668387 0.092965 0.577317
O O3 0.602080 0.000000 0.500000
O O4 0.641304 0.972587 0.715681
O O5 0.171700 0.132680 0.879504
O O6 0.250000 0.109303 0.000000
O O7 0.163485 0.131673 0.122043
O O8 0.186377 0.000000 0.000000
O O9 0.500000 0.376394 0.108118
O O10 0.449513 0.250000 0.082873
O O11 0.411674 0.360397 0.211383
O O12 0.422112 0.370300 0.960595
O O13 0.605353 0.250000 0.820805
O O14 0.183788 0.750000 0.561417
O O15 0.250000 0.847175 0.500000
O O16 0.168202 0.838828 0.365557
#
# Coordination Sequence:
#
# PCOD9502234 Si02
#       6
#    16  16  16  16  16  16
#     4  10  21  36  54  76 111 154 193 234 285 338
#     4  10  20  32  52  80 113 153 186 229 295 355
#     4   9  19  37  63  91 115 145 185 237 302 357
#     4  10  20  36  57  82 113 148 190 239 290 351
#     4  10  22  36  54  81 114 157 205 245 284 337
#     4  10  20  35  56  81 116 147 192 239 286 347
#
# _framework density 19.203257000000001
#
# number of rings (size 3 to 8) (size 9 to 14) (size 15 to 20)
#    0.000    2.167    1.667    1.000    2.333    4.000 
#    0.000    1.667    0.000    9.000    0.000    9.333 
#    0.000    0.000    0.000    0.000    0.000    0.000 
#
# Total GULP energy -267504.180894 kJ/mol
# GULP energy per Si atom -5573.003769 kJ/mol
# Density = 1.915955 g / cm^3
# Si number density = 19.203257 Si / 1000 Ang^3
#
#
#
# Elastic Constant Matrix: (Units=GPa)
#
#
# Indices 1 2 3 4 5 6 
#
# 1 113.3058 20.4261 40.1736 0.0000 0.0000 0.0000
# 2 20.4261 72.4831 21.0319 0.0000 0.0000 0.0000
# 3 40.1736 21.0319 95.5094 0.0000 0.0000 0.0000
# 4 0.0000 0.0000 0.0000 28.8263 0.0000 0.0000
# 5 0.0000 0.0000 0.0000 0.0000 12.3207 0.0000
# 6 0.0000 0.0000 0.0000 0.0000 0.0000 21.2100
#
#
#
# Elastic Compliance Matrix: (Units=1/GPa)
#
#
# Indices 1 2 3 4 5 6 
#
# 1 0.010590 -0.001807 -0.004056 0.000000 0.000000 0.000000
# 2 -0.001807 0.015046 -0.002553 0.000000 0.000000 0.000000
# 3 -0.004056 -0.002553 0.012739 0.000000 0.000000 0.000000
# 4 0.000000 0.000000 0.000000 0.034691 0.000000 0.000000
# 5 0.000000 0.000000 0.000000 0.000000 0.081164 0.000000
# 6 0.000000 0.000000 0.000000 0.000000 0.000000 0.047148
#
#
# Mechanical properties :
#
#
# Convention : Reuss Voigt Hill
#
# Bulk Modulus (GPa) = 46.42253 49.39573 47.90913
# Shear Modulus (GPa) = 22.18368 25.78251 23.98309
#
# Velocity S-wave (km/s) = 3.40252 3.66814 3.53782
# Velocity P-wave (km/s) = 6.29785 6.61202 6.45685
#
# Compressibility (1/GPa) = 0.02154126
#
# Stress axis : x y z
#
# Youngs Moduli (GPa) = 94.43169 66.46088 78.50169
#
# Poissons Ratio (x) = 0.12011 0.31843
# Poissons Ratio (y) = 0.17066 0.20043
# Poissons Ratio (z) = 0.38304 0.16969
#
# Static dielectric constant tensor:
#      x y z
#    x 1.662140 0.000000 0.000000 
#    y 0.000000 1.685010 0.000000 
#    z 0.000000 0.000000 1.714230 
# 
# From -- ./inp_files/22942.got.cif
#   From: 2010.05.17/outbox.cif.g08.bks.cpg/sg67_12_cif.got.tgz:22942.got - 2010.06.03 18:28:57.
