data_PCOD9502409
_publ_section_title
;
Structure prediction by ZEFSAII (Michael W. Deem and Ramdas Pophale) SiO2 
 PCOD9502409
Probable space group: C M M A
;
_chemical_formula_sum "Si O2"
_cell_formula_units_Z 104
_cell_length_a 21.309006
_cell_length_b 8.654921
_cell_length_c 30.384307
_cell_angle_alpha 90.000000
_cell_angle_beta 90.000000
_cell_angle_gamma 90.000000
_cell_volume 5603.709786
_symmetry_space_group_name_H-M "C M M A"
_symmetry_group_IT_number 67
_symmetry_cell_setting 'orthorhombic'
loop_
_space_group_symop_operation_xyz
x,y,z
-x,1/2-y,z
x,-y,-z
-x,1/2+y,-z
-x,-y,-z
x,1/2+y,-z
-x,y,z
x,1/2-y,z
1/2+x,1/2+y,z
1/2-x,-y,z
1/2+x,1/2-y,-z
1/2-x,y,-z
1/2-x,1/2-y,-z
1/2+x,y,-z
1/2-x,1/2+y,z
1/2+x,-y,z
loop_
_atom_site_type_symbol
_atom_site_label
_atom_site_fract_x
_atom_site_fract_y
_atom_site_fract_z
Si Si1 0.321267 0.435690 0.856911
Si Si2 0.929709 0.064696 0.305586
Si Si3 0.000000 0.564381 0.450733
Si Si4 0.928678 0.935433 0.206746
Si Si5 0.820729 0.434241 0.044375
Si Si6 0.862026 0.563558 0.450980
Si Si7 0.813969 0.565276 0.359951
O O1 0.318008 0.250000 0.853289
O O2 0.250000 0.500000 0.850788
O O3 0.372484 0.501240 0.823264
O O4 0.344194 0.474842 0.906785
O O5 0.925719 0.250000 0.306512
O O6 0.000000 0.018942 0.320999
O O7 0.923139 0.005997 0.255560
O O8 0.874690 0.993331 0.334389
O O9 0.000000 0.500000 0.500000
O O10 0.931954 0.515241 0.434311
O O11 0.000000 0.750000 0.450387
O O12 0.924169 0.750000 0.209374
O O13 0.000000 0.973887 0.190883
O O14 0.818564 0.250000 0.040675
O O15 0.750000 0.500000 0.044661
O O16 0.851978 0.500000 0.000000
O O17 0.850118 0.500000 0.500000
O O18 0.860404 0.750000 0.454380
O O19 0.818497 0.513154 0.411030
O O20 0.813177 0.750000 0.359176
O O21 0.750000 0.500000 0.340100
#
# Coordination Sequence:
#
# PCOD9502409 Si02
#       7
#    16  16   8  16  16  16  16
#     4  10  20  33  52  81 114 148 188 234 282 332
#     4  10  22  41  64  88 112 141 180 226 275 331
#     4   8  14  28  48  74 102 130 170 214 258 302
#     4  10  21  38  60  85 112 144 182 225 277 336
#     4   9  16  26  43  69 103 143 185 230 278 326
#     4   9  19  34  55  80 109 145 182 223 267 317
#     4  11  24  40  59  84 116 151 186 227 273 325
#
# _framework density 18.559134
#
# number of rings (size 3 to 8) (size 9 to 14) (size 15 to 20)
#    0.000    2.308    0.000    2.769    1.077    5.846 
#    0.000    4.615    0.000    0.462    0.000    0.000 
#    0.000    0.000    0.000    0.000    0.000    0.000 
#
# Total GULP energy -289818.905674 kJ/mol
# GULP energy per Si atom -5573.440494 kJ/mol
# Density = 1.851689 g / cm^3
# Si number density = 18.559134 Si / 1000 Ang^3
#
#
#
# Elastic Constant Matrix: (Units=GPa)
#
#
# Indices 1 2 3 4 5 6 
#
# 1 138.6354 43.7189 76.3355 0.0000 0.0000 0.0000
# 2 43.7189 51.5979 32.7383 0.0000 0.0000 0.0000
# 3 76.3355 32.7383 96.8366 0.0000 0.0000 0.0000
# 4 0.0000 0.0000 0.0000 28.0244 0.0000 0.0000
# 5 0.0000 0.0000 0.0000 0.0000 18.5670 0.0000
# 6 0.0000 0.0000 0.0000 0.0000 0.0000 22.9946
#
#
#
# Elastic Compliance Matrix: (Units=1/GPa)
#
#
# Indices 1 2 3 4 5 6 
#
# 1 0.014175 -0.006265 -0.009056 0.000000 0.000000 0.000000
# 2 -0.006265 0.027442 -0.004339 0.000000 0.000000 0.000000
# 3 -0.009056 -0.004339 0.018933 0.000000 0.000000 0.000000
# 4 0.000000 0.000000 0.000000 0.035683 0.000000 0.000000
# 5 0.000000 0.000000 0.000000 0.000000 0.053859 0.000000
# 6 0.000000 0.000000 0.000000 0.000000 0.000000 0.043489
#
#
# Mechanical properties :
#
#
# Convention : Reuss Voigt Hill
#
# Bulk Modulus (GPa) = 47.10402 65.85060 56.47731
# Shear Modulus (GPa) = 20.83529 22.86899 21.85214
#
# Velocity S-wave (km/s) = 3.35422 3.51411 3.43510
# Velocity P-wave (km/s) = 6.35898 7.21276 6.79928
#
# Compressibility (1/GPa) = 0.02122961
#
# Stress axis : x y z
#
# Youngs Moduli (GPa) = 70.54499 36.44079 52.81861
#
# Poissons Ratio (x) = 0.22829 0.47835
# Poissons Ratio (y) = 0.44194 0.22919
# Poissons Ratio (z) = 0.63888 0.15812
#
# Static dielectric constant tensor:
#      x y z
#    x 1.663090 0.000000 0.000000 
#    y 0.000000 1.623350 0.000000 
#    z 0.000000 0.000000 1.655480 
# 
# From -- ./inp_files/45863.got.cif
#   From: 2010.05.17/outbox.cif.g08.bks.cpg/sg67_23_cif.got.tgz:45863.got - 2010.06.03 18:28:57.
