data_PCOD9502978
_publ_section_title
;
Structure prediction by ZEFSAII (Michael W. Deem and Ramdas Pophale) SiO2 
 PCOD9502978
Probable space group: C M M A
;
_chemical_formula_sum "Si O2"
_cell_formula_units_Z 88
_cell_length_a 23.977071
_cell_length_b 15.011142
_cell_length_c 10.800949
_cell_angle_alpha 90.000000
_cell_angle_beta 90.000000
_cell_angle_gamma 90.000000
_cell_volume 3887.512316
_symmetry_space_group_name_H-M "C M M A"
_symmetry_group_IT_number 67
_symmetry_cell_setting 'orthorhombic'
loop_
_space_group_symop_operation_xyz
x,y,z
-x,1/2-y,z
x,-y,-z
-x,1/2+y,-z
-x,-y,-z
x,1/2+y,-z
-x,y,z
x,1/2-y,z
1/2+x,1/2+y,z
1/2-x,-y,z
1/2+x,1/2-y,-z
1/2-x,y,-z
1/2-x,1/2-y,-z
1/2+x,y,-z
1/2-x,1/2+y,z
1/2+x,-y,z
loop_
_atom_site_type_symbol
_atom_site_label
_atom_site_fract_x
_atom_site_fract_y
_atom_site_fract_z
Si Si1 0.676488 0.148256 0.071774
Si Si2 0.066714 0.150170 0.538457
Si Si3 0.750000 0.000000 0.214032
Si Si4 0.437386 0.096731 0.725059
Si Si5 0.064325 0.602246 0.187788
Si Si6 0.680638 0.345151 0.780396
O O1 0.688692 0.250000 0.115647
O O2 0.707781 0.066452 0.139809
O O3 0.610205 0.132751 0.090232
O O4 0.691889 0.146069 0.927306
O O5 0.083740 0.250000 0.499829
O O6 0.075623 0.086043 0.421886
O O7 0.087184 0.132352 0.676843
O O8 0.000000 0.148850 0.555936
O O9 0.790059 0.070348 0.282243
O O10 0.500000 0.135057 0.732981
O O11 0.385671 0.151663 0.771916
O O12 0.437596 0.004136 0.798050
O O13 0.000000 0.632739 0.166694
O O14 0.700816 0.250000 0.733672
#
# Coordination Sequence:
#
# PCOD9502978 Si02
#       6
#    16  16   8  16  16  16
#     4  11  23  38  60  87 114 150 192 236 288 340
#     4   9  17  31  53  81 114 151 190 230 273 332
#     4  12  23  42  62  81 112 149 196 248 283 330
#     4  10  20  35  57  86 119 153 189 230 282 343
#     4  10  20  35  57  86 119 153 189 230 282 343
#     4  11  23  38  60  87 114 150 192 236 288 340
#
# _framework density 22.636585
#
# number of rings (size 3 to 8) (size 9 to 14) (size 15 to 20)
#    0.000    1.636    1.818    3.818    0.000    6.545 
#    0.000    3.636    0.000    2.182    0.000    3.818 
#    0.000    0.000    0.000    0.000    0.000    0.000 
#
# Total GULP energy -245439.981675 kJ/mol
# GULP energy per Si atom -5578.181402 kJ/mol
# Density = 2.258506 g / cm^3
# Si number density = 22.636585 Si / 1000 Ang^3
#
#
#
# Elastic Constant Matrix: (Units=GPa)
#
#
# Indices 1 2 3 4 5 6 
#
# 1 117.3477 44.3563 7.7626 0.0000 0.0000 0.0000
# 2 44.3563 135.3796 1.9994 0.0000 0.0000 0.0000
# 3 7.7626 1.9994 10.7913 0.0000 0.0000 0.0000
# 4 0.0000 0.0000 0.0000 18.1307 0.0000 0.0000
# 5 0.0000 0.0000 0.0000 0.0000 -10.0831 0.0000
# 6 0.0000 0.0000 0.0000 0.0000 0.0000 21.4199
#
#
#
# Elastic Compliance Matrix: (Units=1/GPa)
#
#
# Indices 1 2 3 4 5 6 
#
# 1 0.010192 -0.003240 -0.006731 0.000000 0.000000 0.000000
# 2 -0.003240 0.008437 0.000767 0.000000 0.000000 0.000000
# 3 -0.006731 0.000767 0.097366 0.000000 0.000000 0.000000
# 4 0.000000 0.000000 0.000000 0.055155 0.000000 0.000000
# 5 0.000000 0.000000 0.000000 0.000000 -0.099176 0.000000
# 6 0.000000 0.000000 0.000000 0.000000 0.000000 0.046686
#
#
# Mechanical properties :
#
#
# Convention : Reuss Voigt Hill
#
# Bulk Modulus (GPa) = 10.24715 41.30614 25.77664
# Shear Modulus (GPa) = 29.48196 19.85352 24.66774
#
# Velocity S-wave (km/s) = 3.61280 2.96472 3.30469
# Velocity P-wave (km/s) = 4.68398 5.47783 5.09639
#
# Compressibility (1/GPa) = 0.09758813
#
# Stress axis : x y z
#
# Youngs Moduli (GPa) = 98.12054 118.52828 10.27048
#
# Poissons Ratio (x) = 0.38401 0.06913
# Poissons Ratio (y) = 0.31789 -0.00788
# Poissons Ratio (z) = 0.66044 -0.09095
#
# Static dielectric constant tensor:
#      x y z
#    x 1.865810 0.000000 0.000000 
#    y 0.000000 1.907800 0.000000 
#    z 0.000000 0.000000 1.858020 
# 
# From -- ./inp_files/22830.got.cif
#   From: 2010.05.17/outbox.cif.g08.bks.cpg/sg67_12_cif.got.tgz:22830.got - 2010.06.03 18:28:57.
