data_PCOD9502443
_publ_section_title
;
Structure prediction by ZEFSAII (Michael W. Deem and Ramdas Pophale) SiO2 
 PCOD9502443
Probable space group: C M M A
;
_chemical_formula_sum "Si O2"
_cell_formula_units_Z 116
_cell_length_a 14.440864
_cell_length_b 30.876719
_cell_length_c 10.838201
_cell_angle_alpha 90.000000
_cell_angle_beta 90.000000
_cell_angle_gamma 90.000000
_cell_volume 4832.607509
_symmetry_space_group_name_H-M "C M M A"
_symmetry_group_IT_number 67
_symmetry_cell_setting 'orthorhombic'
loop_
_space_group_symop_operation_xyz
x,y,z
-x,1/2-y,z
x,-y,-z
-x,1/2+y,-z
-x,-y,-z
x,1/2+y,-z
-x,y,z
x,1/2-y,z
1/2+x,1/2+y,z
1/2-x,-y,z
1/2+x,1/2-y,-z
1/2-x,y,-z
1/2-x,1/2-y,-z
1/2+x,y,-z
1/2-x,1/2+y,z
1/2+x,-y,z
loop_
_atom_site_type_symbol
_atom_site_label
_atom_site_fract_x
_atom_site_fract_y
_atom_site_fract_z
Si Si1 0.612644 0.463756 0.898403
Si Si2 0.836325 0.703257 0.657978
Si Si3 0.000000 0.250000 0.779624
Si Si4 0.860486 0.330089 0.716612
Si Si5 0.605662 0.473383 0.617593
Si Si6 0.604004 0.117132 0.058955
Si Si7 0.644808 0.795374 0.051495
Si Si8 0.861680 0.120683 0.484031
O O1 0.500000 0.461571 0.888740
O O2 0.646373 0.473100 0.757999
O O3 0.635956 0.500000 0.000000
O O4 0.641070 0.419090 0.965917
O O5 0.859462 0.750000 0.600663
O O6 0.727290 0.692739 0.652966
O O7 0.855042 0.706108 0.802322
O O8 0.883368 0.661260 0.603297
O O9 0.921112 0.289972 0.764413
O O10 0.837113 0.364439 0.825954
O O11 0.899480 0.362611 0.614070
O O12 0.645813 0.500000 0.500000
O O13 0.500000 0.490056 0.631679
O O14 0.604229 0.423860 0.572374
O O15 0.500000 0.103920 0.102209
O O16 0.595665 0.161310 0.984255
O O17 0.602188 0.750000 0.005280
O O18 0.750000 0.796463 0.000000
O O19 0.750000 0.115221 0.500000
#
# Coordination Sequence:
#
# PCOD9502443 Si02
#       8
#    16  16   4  16  16  16  16  16
#     4   9  20  39  63  91 123 157 198 249 317 380
#     4  10  20  39  59  82 119 166 216 250 305 376
#     4  12  24  36  54  94 138 168 208 276 324 356
#     4  11  23  35  58  89 125 166 208 263 310 370
#     4  10  22  41  68  95 122 159 207 265 323 388
#     4  11  22  35  58  89 123 159 201 264 317 366
#     4  10  20  33  56  81 113 158 202 246 299 372
#     4  10  24  40  60  89 121 166 209 254 317 382
#
# _framework density 24.003606000000001
#
# number of rings (size 3 to 8) (size 9 to 14) (size 15 to 20)
#    0.000    1.793    2.759    0.828    4.828    1.379 
#    0.000    0.000    0.000    1.241    0.000    0.000 
#    0.000    0.000    0.000    0.000    0.000    0.000 
#
# Total GULP energy -323101.321081 kJ/mol
# GULP energy per Si atom -5570.712432 kJ/mol
# Density = 2.394897 g / cm^3
# Si number density = 24.003606 Si / 1000 Ang^3
#
#
#
# Elastic Constant Matrix: (Units=GPa)
#
#
# Indices 1 2 3 4 5 6 
#
# 1 58.9514 10.0281 -4.7373 0.0000 0.0000 0.0000
# 2 10.0281 182.4601 97.5676 0.0000 0.0000 0.0000
# 3 -4.7373 97.5676 173.8905 0.0000 0.0000 0.0000
# 4 0.0000 0.0000 0.0000 49.5997 0.0000 0.0000
# 5 0.0000 0.0000 0.0000 0.0000 -9.9704 0.0000
# 6 0.0000 0.0000 0.0000 0.0000 0.0000 21.5329
#
#
#
# Elastic Compliance Matrix: (Units=1/GPa)
#
#
# Indices 1 2 3 4 5 6 
#
# 1 0.017372 -0.001726 0.001441 0.000000 0.000000 0.000000
# 2 -0.001726 0.008001 -0.004536 0.000000 0.000000 0.000000
# 3 0.001441 -0.004536 0.008335 0.000000 0.000000 0.000000
# 4 0.000000 0.000000 0.000000 0.020161 0.000000 0.000000
# 5 0.000000 0.000000 0.000000 0.000000 -0.100297 0.000000
# 6 0.000000 0.000000 0.000000 0.000000 0.000000 0.046441
#
#
# Mechanical properties :
#
#
# Convention : Reuss Voigt Hill
#
# Bulk Modulus (GPa) = 41.54890 69.00209 55.27550
# Shear Modulus (GPa) = 282.84496 33.06203 157.95349
#
# Velocity S-wave (km/s) = 10.86693 3.71533 8.12077
# Velocity P-wave (km/s) = 13.22122 6.87123 10.53600
#
# Compressibility (1/GPa) = 0.02406803
#
# Stress axis : x y z
#
# Youngs Moduli (GPa) = 57.56227 124.98031 119.97123
#
# Poissons Ratio (x) = 0.21567 -0.17294
# Poissons Ratio (y) = 0.09933 0.54424
# Poissons Ratio (z) = -0.08298 0.56696
#
# Static dielectric constant tensor:
#      x y z
#    x 2.188620 0.000000 0.000000 
#    y 0.000000 1.878450 0.000000 
#    z 0.000000 0.000000 1.997850 
# 
# From -- ./inp_files/20101.got.cif
#   From: 2010.05.17/outbox.cif.g08.bks.cpg/sg67_11_cif.got.tgz:20101.got - 2010.06.03 18:28:57.
