data_PCOD9502364
_publ_section_title
;
Structure prediction by ZEFSAII (Michael W. Deem and Ramdas Pophale) SiO2 
 PCOD9502364
Probable space group: C M M A
;
_chemical_formula_sum "Si O2"
_cell_formula_units_Z 120
_cell_length_a 26.780334
_cell_length_b 8.626939
_cell_length_c 27.917279
_cell_angle_alpha 90.000000
_cell_angle_beta 90.000000
_cell_angle_gamma 90.000000
_cell_volume 6449.793395
_symmetry_space_group_name_H-M "C M M A"
_symmetry_group_IT_number 67
_symmetry_cell_setting 'orthorhombic'
loop_
_space_group_symop_operation_xyz
x,y,z
-x,1/2-y,z
x,-y,-z
-x,1/2+y,-z
-x,-y,-z
x,1/2+y,-z
-x,y,z
x,1/2-y,z
1/2+x,1/2+y,z
1/2-x,-y,z
1/2+x,1/2-y,-z
1/2-x,y,-z
1/2-x,1/2-y,-z
1/2+x,y,-z
1/2-x,1/2+y,z
1/2+x,-y,z
loop_
_atom_site_type_symbol
_atom_site_label
_atom_site_fract_x
_atom_site_fract_y
_atom_site_fract_z
Si Si1 0.444435 0.064729 0.086685
Si Si2 0.410078 0.437408 0.812980
Si Si3 0.000000 0.562456 0.446165
Si Si4 0.158358 0.565100 0.949854
Si Si5 0.556680 0.063070 0.706938
Si Si6 0.196285 0.936566 0.446278
Si Si7 0.698041 0.064411 0.848181
Si Si8 0.401338 0.436765 0.387629
O O1 0.500000 0.018338 0.070587
O O2 0.439793 0.250000 0.082684
O O3 0.437648 0.015045 0.142201
O O4 0.398973 0.986374 0.058551
O O5 0.415342 0.250000 0.817971
O O6 0.429748 0.483643 0.761024
O O7 0.351526 0.476727 0.818723
O O8 0.000000 0.500000 0.500000
O O9 0.050066 0.511823 0.418161
O O10 0.000000 0.750000 0.447513
O O11 0.160308 0.750000 0.950757
O O12 0.187925 0.508937 0.902764
O O13 0.177081 0.500000 0.000000
O O14 0.500000 0.012401 0.696178
O O15 0.558303 0.250000 0.705599
O O16 0.592303 0.997999 0.666025
O O17 0.198144 0.750000 0.448038
O O18 0.149882 0.985364 0.413265
O O19 0.188375 0.000000 0.500000
O O20 0.250000 0.000000 0.429663
O O21 0.700818 0.250000 0.849273
O O22 0.750000 0.000000 0.829744
O O23 0.402018 0.250000 0.386737
#
# Coordination Sequence:
#
# PCOD9502364 Si02
#       8
#    16  16   8  16  16  16  16  16
#     4  10  20  33  51  77 105 135 174 215 258 311
#     4   9  19  36  55  77 104 136 175 216 261 312
#     4  10  20  34  52  76 108 144 178 220 267 320
#     4  10  21  36  53  75 104 138 174 213 260 313
#     4  10  20  34  55  81 108 142 180 217 262 317
#     4  10  20  35  56  80 105 140 183 226 272 319
#     4   9  19  35  55  77 102 133 169 214 263 310
#     4  10  21  36  53  77 111 145 178 220 273 324
#
# _framework density 18.605246000000001
#
# number of rings (size 3 to 8) (size 9 to 14) (size 15 to 20)
#    0.000    2.267    0.667    3.200    0.000    6.933 
#    0.000    2.000    0.000    3.200    0.000    0.000 
#    0.000    0.000    0.000    0.000    0.000    0.000 
#
# Total GULP energy -334937.910806 kJ/mol
# GULP energy per Si atom -5582.298513 kJ/mol
# Density = 1.856290 g / cm^3
# Si number density = 18.605246 Si / 1000 Ang^3
#
#
#
# Elastic Constant Matrix: (Units=GPa)
#
#
# Indices 1 2 3 4 5 6 
#
# 1 94.6521 12.9024 15.0949 0.0000 0.0000 0.0000
# 2 12.9024 17.1962 6.8398 0.0000 0.0000 0.0000
# 3 15.0949 6.8398 73.3451 0.0000 0.0000 0.0000
# 4 0.0000 0.0000 0.0000 28.5098 0.0000 0.0000
# 5 0.0000 0.0000 0.0000 0.0000 3.7915 0.0000
# 6 0.0000 0.0000 0.0000 0.0000 0.0000 25.2306
#
#
#
# Elastic Compliance Matrix: (Units=1/GPa)
#
#
# Indices 1 2 3 4 5 6 
#
# 1 0.011967 -0.008307 -0.001688 0.000000 0.000000 0.000000
# 2 -0.008307 0.066159 -0.004460 0.000000 0.000000 0.000000
# 3 -0.001688 -0.004460 0.014398 0.000000 0.000000 0.000000
# 4 0.000000 0.000000 0.000000 0.035076 0.000000 0.000000
# 5 0.000000 0.000000 0.000000 0.000000 0.263748 0.000000
# 6 0.000000 0.000000 0.000000 0.000000 0.000000 0.039634
#
#
# Mechanical properties :
#
#
# Convention : Reuss Voigt Hill
#
# Bulk Modulus (GPa) = 15.72013 28.31861 22.01937
# Shear Modulus (GPa) = 10.39294 21.53013 15.96154
#
# Velocity S-wave (km/s) = 2.36604 3.40547 2.93218
# Velocity P-wave (km/s) = 3.99147 5.54227 4.82952
#
# Compressibility (1/GPa) = 0.06361272
#
# Stress axis : x y z
#
# Youngs Moduli (GPa) = 83.56595 15.11509 69.45642
#
# Poissons Ratio (x) = 0.12556 0.11725
# Poissons Ratio (y) = 0.69419 0.30977
# Poissons Ratio (z) = 0.14107 0.06741
#
# Static dielectric constant tensor:
#      x y z
#    x 1.647730 0.000000 0.000000 
#    y 0.000000 1.632700 0.000000 
#    z 0.000000 0.000000 1.621140 
# 
# From -- ./inp_files/45050.got.cif
#   From: 2010.05.17/outbox.cif.g08.bks.cpg/sg67_23_cif.got.tgz:45050.got - 2010.06.03 18:28:57.
