data_PCOD9502157
_publ_section_title
;
Structure prediction by ZEFSAII (Michael W. Deem and Ramdas Pophale) SiO2 
 PCOD9502157
Probable space group: C M M A
;
_chemical_formula_sum "Si O2"
_cell_formula_units_Z 52
_cell_length_a 9.319218
_cell_length_b 19.164333
_cell_length_c 15.874391
_cell_angle_alpha 90.000000
_cell_angle_beta 90.000000
_cell_angle_gamma 90.000000
_cell_volume 2835.112213
_symmetry_space_group_name_H-M "C M M A"
_symmetry_group_IT_number 67
_symmetry_cell_setting 'orthorhombic'
loop_
_space_group_symop_operation_xyz
x,y,z
-x,1/2-y,z
x,-y,-z
-x,1/2+y,-z
-x,-y,-z
x,1/2+y,-z
-x,y,z
x,1/2-y,z
1/2+x,1/2+y,z
1/2-x,-y,z
1/2+x,1/2-y,-z
1/2-x,y,-z
1/2-x,1/2-y,-z
1/2+x,y,-z
1/2-x,1/2+y,z
1/2+x,-y,z
loop_
_atom_site_type_symbol
_atom_site_label
_atom_site_fract_x
_atom_site_fract_y
_atom_site_fract_z
Si Si1 0.250000 0.500000 0.500000
Si Si2 0.666079 0.164853 0.084225
Si Si3 0.335471 0.165787 0.749140
Si Si4 0.837540 0.364148 0.579863
O O1 0.161568 0.553316 0.442413
O O2 0.500000 0.142634 0.084173
O O3 0.665615 0.250000 0.084662
O O4 0.750514 0.141765 0.167766
O O5 0.750000 0.143186 0.000000
O O6 0.500000 0.140469 0.746913
O O7 0.340496 0.250000 0.753238
O O8 0.249727 0.147088 0.664932
O O9 0.750000 0.333558 0.500000
O O10 0.000000 0.338122 0.585576
#
# Coordination Sequence:
#
# PCOD9502157 Si02
#       4
#     4  16  16  16
#     4   8  22  36  56  72  92 120 162 206 246 292
#     4   9  16  27  44  66  95 130 165 199 236 281
#     4  10  20  32  47  71 102 133 165 199 240 289
#     4  10  20  34  53  72  95 125 161 203 245 289
#
# _framework density 18.341425999999998
#
# number of rings (size 3 to 8) (size 9 to 14) (size 15 to 20)
#    0.923    1.538    0.000    3.231    0.000    6.154 
#    0.000    0.000    0.000    0.000    0.000    1.077 
#    0.000    7.385    0.000    0.000    0.000    0.000 
#
# Total GULP energy -144809.309455 kJ/mol
# GULP energy per Si atom -5569.588825 kJ/mol
# Density = 1.829968 g / cm^3
# Si number density = 18.341426 Si / 1000 Ang^3
#
#
#
# Elastic Constant Matrix: (Units=GPa)
#
#
# Indices 1 2 3 4 5 6 
#
# 1 231.3981 8.6554 134.1900 0.0000 0.0000 0.0000
# 2 8.6554 22.3260 4.0791 0.0000 0.0000 0.0000
# 3 134.1900 4.0791 215.1601 0.0000 0.0000 0.0000
# 4 0.0000 0.0000 0.0000 -87.0793 0.0000 0.0000
# 5 0.0000 0.0000 0.0000 0.0000 -33.5983 0.0000
# 6 0.0000 0.0000 0.0000 0.0000 0.0000 1.9800
#
#
#
# Elastic Compliance Matrix: (Units=1/GPa)
#
#
# Indices 1 2 3 4 5 6 
#
# 1 0.006848 -0.001881 -0.004235 0.000000 0.000000 0.000000
# 2 -0.001881 0.045463 0.000311 0.000000 0.000000 0.000000
# 3 -0.004235 0.000311 0.007283 0.000000 0.000000 0.000000
# 4 0.000000 0.000000 0.000000 -0.011484 0.000000 0.000000
# 5 0.000000 0.000000 0.000000 0.000000 -0.029763 0.000000
# 6 0.000000 0.000000 0.000000 0.000000 0.000000 0.505047
#
#
# Mechanical properties :
#
#
# Convention : Reuss Voigt Hill
#
# Bulk Modulus (GPa) = 20.84017 84.74814 52.79415
# Shear Modulus (GPa) = 9.07443 -2.27556 3.39943
#
# Velocity S-wave (km/s) = 2.22671 -1.11506 1.36288
# Velocity P-wave (km/s) = 4.24241 6.68194 5.59671
#
# Compressibility (1/GPa) = 0.04798426
#
# Stress axis : x y z
#
# Youngs Moduli (GPa) = 146.02836 21.99584 137.30175
#
# Poissons Ratio (x) = 0.04137 0.58151
# Poissons Ratio (y) = 0.27468 -0.04273
# Poissons Ratio (z) = 0.61847 -0.00685
#
# Static dielectric constant tensor:
#      x y z
#    x 1.639750 0.000000 0.000000 
#    y 0.000000 1.645360 0.000000 
#    z 0.000000 0.000000 1.605660 
# 
# From -- ./inp_files/22517.got.cif
#   From: 2010.05.17/outbox.cif.g08.bks.cpg/sg67_12_cif.got.tgz:22517.got - 2010.06.03 18:28:57.
