data_PCOD9502222
_publ_section_title
;
Structure prediction by ZEFSAII (Michael W. Deem and Ramdas Pophale) SiO2 
 PCOD9502222
Probable space group: C M M A
;
_chemical_formula_sum "Si O2"
_cell_formula_units_Z 76
_cell_length_a 25.395544
_cell_length_b 8.906621
_cell_length_c 18.357912
_cell_angle_alpha 90.000000
_cell_angle_beta 90.000000
_cell_angle_gamma 90.000000
_cell_volume 4152.348312
_symmetry_space_group_name_H-M "C M M A"
_symmetry_group_IT_number 67
_symmetry_cell_setting 'orthorhombic'
loop_
_space_group_symop_operation_xyz
x,y,z
-x,1/2-y,z
x,-y,-z
-x,1/2+y,-z
-x,-y,-z
x,1/2+y,-z
-x,y,z
x,1/2-y,z
1/2+x,1/2+y,z
1/2-x,-y,z
1/2+x,1/2-y,-z
1/2-x,y,-z
1/2-x,1/2-y,-z
1/2+x,y,-z
1/2-x,1/2+y,z
1/2+x,-y,z
loop_
_atom_site_type_symbol
_atom_site_label
_atom_site_fract_x
_atom_site_fract_y
_atom_site_fract_z
Si Si1 0.334003 0.428465 0.074639
Si Si2 0.304698 0.930687 0.229892
Si Si3 0.500000 0.250000 0.524941
Si Si4 0.559563 0.427675 0.885772
Si Si5 0.588387 0.575226 0.736391
Si Si6 0.000000 0.958881 0.383440
O O1 0.325442 0.250000 0.077479
O O2 0.311889 0.509861 0.146697
O O3 0.396238 0.469195 0.077673
O O4 0.313143 0.500000 0.000000
O O5 0.304835 0.750000 0.231252
O O6 0.250000 0.000000 0.257123
O O7 0.354401 0.000010 0.272809
O O8 0.500000 0.371089 0.458262
O O9 0.500000 0.375145 0.588748
O O10 0.500000 0.448840 0.912246
O O11 0.573199 0.250000 0.891948
O O12 0.562195 0.479573 0.801457
O O13 0.594785 0.750000 0.759368
O O14 0.550961 0.572424 0.666649
#
# Coordination Sequence:
#
# PCOD9502222 Si02
#       6
#    16  16   4  16  16   8
#     4  11  22  37  55  76 108 148 190 243 302 357
#     4  11  23  40  60  87 114 147 198 251 295 347
#     4  10  24  38  56  94 134 166 194 230 268 348
#     4  10  20  32  50  78 107 147 197 241 287 348
#     4  11  20  34  58  86 119 159 194 239 287 337
#     4  11  22  38  60  92 133 164 198 226 283 336
#
# _framework density 18.302896
#
# number of rings (size 3 to 8) (size 9 to 14) (size 15 to 20)
#    0.000    1.263    2.105    7.579    2.947    2.105 
#    0.000    2.105    0.000    0.000    0.000    4.421 
#    0.000    0.000    0.000    0.000    0.000    0.000 
#
# Total GULP energy -211574.803315 kJ/mol
# GULP energy per Si atom -5567.757982 kJ/mol
# Density = 1.826124 g / cm^3
# Si number density = 18.302896 Si / 1000 Ang^3
#
#
#
# Elastic Constant Matrix: (Units=GPa)
#
#
# Indices 1 2 3 4 5 6 
#
# 1 123.0317 35.7881 18.5839 0.0000 0.0000 0.0000
# 2 35.7881 172.7767 17.9241 0.0000 0.0000 0.0000
# 3 18.5839 17.9241 59.8539 0.0000 0.0000 0.0000
# 4 0.0000 0.0000 0.0000 28.2836 0.0000 0.0000
# 5 0.0000 0.0000 0.0000 0.0000 31.1039 0.0000
# 6 0.0000 0.0000 0.0000 0.0000 0.0000 27.9416
#
#
#
# Elastic Compliance Matrix: (Units=1/GPa)
#
#
# Indices 1 2 3 4 5 6 
#
# 1 0.008944 -0.001615 -0.002293 0.000000 0.000000 0.000000
# 2 -0.001615 0.006265 -0.001375 0.000000 0.000000 0.000000
# 3 -0.002293 -0.001375 0.017831 0.000000 0.000000 0.000000
# 4 0.000000 0.000000 0.000000 0.035356 0.000000 0.000000
# 5 0.000000 0.000000 0.000000 0.000000 0.032150 0.000000
# 6 0.000000 0.000000 0.000000 0.000000 0.000000 0.035789
#
#
# Mechanical properties :
#
#
# Convention : Reuss Voigt Hill
#
# Bulk Modulus (GPa) = 44.49540 55.58384 50.03962
# Shear Modulus (GPa) = 32.38490 36.35690 34.37090
#
# Velocity S-wave (km/s) = 4.21097 4.46174 4.33817
# Velocity P-wave (km/s) = 6.92866 7.54835 7.24514
#
# Compressibility (1/GPa) = 0.02247423
#
# Stress axis : x y z
#
# Youngs Moduli (GPa) = 111.80537 159.61949 56.08160
#
# Poissons Ratio (x) = 0.25774 0.12862
# Poissons Ratio (y) = 0.18053 0.07710
# Poissons Ratio (z) = 0.25642 0.21944
#
# Static dielectric constant tensor:
#      x y z
#    x 1.691110 0.000000 0.000000 
#    y 0.000000 1.635200 0.000000 
#    z 0.000000 0.000000 1.605800 
# 
# From -- ./inp_files/35801.got.cif
#   From: 2010.05.17/outbox.cif.g08.bks.cpg/sg67_18_cif.got.tgz:35801.got - 2010.06.03 18:28:57.
