data_PCOD9502440
_publ_section_title
;
Structure prediction by ZEFSAII (Michael W. Deem and Ramdas Pophale) SiO2 
 PCOD9502440
Probable space group: C M M A
;
_chemical_formula_sum "Si O2"
_cell_formula_units_Z 64
_cell_length_a 22.876979
_cell_length_b 10.232601
_cell_length_c 14.407545
_cell_angle_alpha 90.000000
_cell_angle_beta 90.000000
_cell_angle_gamma 90.000000
_cell_volume 3372.676591
_symmetry_space_group_name_H-M "C M M A"
_symmetry_group_IT_number 67
_symmetry_cell_setting 'orthorhombic'
loop_
_space_group_symop_operation_xyz
x,y,z
-x,1/2-y,z
x,-y,-z
-x,1/2+y,-z
-x,-y,-z
x,1/2+y,-z
-x,y,z
x,1/2-y,z
1/2+x,1/2+y,z
1/2-x,-y,z
1/2+x,1/2-y,-z
1/2-x,y,-z
1/2-x,1/2-y,-z
1/2+x,y,-z
1/2-x,1/2+y,z
1/2+x,-y,z
loop_
_atom_site_type_symbol
_atom_site_label
_atom_site_fract_x
_atom_site_fract_y
_atom_site_fract_z
Si Si1 0.311560 0.250000 0.878889
Si Si2 0.630101 0.600446 0.588354
Si Si3 0.327592 0.750000 0.905608
Si Si4 0.500000 0.100316 0.779717
Si Si5 0.500000 0.959450 0.603971
Si Si6 0.369273 0.997231 0.791706
O O1 0.241771 0.250000 0.886733
O O2 0.334308 0.376867 0.825893
O O3 0.335973 0.250000 0.983930
O O4 0.637500 0.500000 0.500000
O O5 0.651486 0.750000 0.570658
O O6 0.561139 0.611975 0.613823
O O7 0.650810 0.538298 0.686185
O O8 0.354655 0.876352 0.857340
O O9 0.500000 0.250000 0.810856
O O10 0.500000 0.087373 0.668003
O O11 0.438605 0.030714 0.802923
O O12 0.500000 0.000000 0.500000
#
# Coordination Sequence:
#
# PCOD9502440 Si02
#       6
#     8  16   8   8   8  16
#     4  11  24  43  72  90 119 161 211 271 319 371
#     4  10  20  33  55  87 125 165 208 248 298 366
#     4  11  24  45  66  98 117 153 219 273 319 359
#     4  10  20  36  58  90 129 171 202 237 311 389
#     4   8  17  27  49  80 118 159 208 248 291 340
#     4  11  22  40  65  94 131 164 205 259 312 372
#
# _framework density 18.976026000000001
#
# number of rings (size 3 to 8) (size 9 to 14) (size 15 to 20)
#    0.000    1.750    2.500    1.875    1.750    8.500 
#    0.000    3.750    0.000    4.500    0.000    0.000 
#    0.000    0.000    0.000    0.000    0.000    0.000 
#
# Total GULP energy -178174.894903 kJ/mol
# GULP energy per Si atom -5567.965466 kJ/mol
# Density = 1.893284 g / cm^3
# Si number density = 18.976026 Si / 1000 Ang^3
#
#
#
# Elastic Constant Matrix: (Units=GPa)
#
#
# Indices 1 2 3 4 5 6 
#
# 1 47.0458 40.2862 40.8044 0.0000 0.0000 0.0000
# 2 40.2862 195.0411 93.9576 0.0000 0.0000 0.0000
# 3 40.8044 93.9576 147.6860 0.0000 0.0000 0.0000
# 4 0.0000 0.0000 0.0000 30.7506 0.0000 0.0000
# 5 0.0000 0.0000 0.0000 0.0000 35.9861 0.0000
# 6 0.0000 0.0000 0.0000 0.0000 0.0000 -85.7347
#
#
#
# Elastic Compliance Matrix: (Units=1/GPa)
#
#
# Indices 1 2 3 4 5 6 
#
# 1 0.029193 -0.003092 -0.006099 0.000000 0.000000 0.000000
# 2 -0.003092 0.007720 -0.004057 0.000000 0.000000 0.000000
# 3 -0.006099 -0.004057 0.011037 0.000000 0.000000 0.000000
# 4 0.000000 0.000000 0.000000 0.032520 0.000000 0.000000
# 5 0.000000 0.000000 0.000000 0.000000 0.027789 0.000000
# 6 0.000000 0.000000 0.000000 0.000000 0.000000 -0.011664
#
#
# Mechanical properties :
#
#
# Convention : Reuss Voigt Hill
#
# Bulk Modulus (GPa) = 46.60952 82.20770 64.40861
# Shear Modulus (GPa) = 38.38970 10.51536 24.45253
#
# Velocity S-wave (km/s) = 4.50273 2.35657 3.59360
# Velocity P-wave (km/s) = 7.18668 7.12885 7.15782
#
# Compressibility (1/GPa) = 0.02145484
#
# Stress axis : x y z
#
# Youngs Moduli (GPa) = 34.25451 129.52769 90.60046
#
# Poissons Ratio (x) = 0.40049 0.55255
# Poissons Ratio (y) = 0.10591 0.36760
# Poissons Ratio (z) = 0.20891 0.52555
#
# Static dielectric constant tensor:
#      x y z
#    x 1.771700 0.000000 0.000000 
#    y 0.000000 1.640290 0.000000 
#    z 0.000000 0.000000 1.638990 
# 
# From -- ./inp_files/29797.got.cif
#   From: 2010.05.17/outbox.cif.g08.bks.cpg/sg67_15_cif.got.tgz:29797.got - 2010.06.03 18:28:57.
