data_PCOD9502253
_publ_section_title
;
Structure prediction by ZEFSAII (Michael W. Deem and Ramdas Pophale) SiO2 
 PCOD9502253
Probable space group: C M M A
;
_chemical_formula_sum "Si O2"
_cell_formula_units_Z 100
_cell_length_a 13.932014
_cell_length_b 22.192197
_cell_length_c 18.905311
_cell_angle_alpha 90.000000
_cell_angle_beta 90.000000
_cell_angle_gamma 90.000000
_cell_volume 5845.181852
_symmetry_space_group_name_H-M "C M M A"
_symmetry_group_IT_number 67
_symmetry_cell_setting 'orthorhombic'
loop_
_space_group_symop_operation_xyz
x,y,z
-x,1/2-y,z
x,-y,-z
-x,1/2+y,-z
-x,-y,-z
x,1/2+y,-z
-x,y,z
x,1/2-y,z
1/2+x,1/2+y,z
1/2-x,-y,z
1/2+x,1/2-y,-z
1/2-x,y,-z
1/2-x,1/2-y,-z
1/2+x,y,-z
1/2-x,1/2+y,z
1/2+x,-y,z
loop_
_atom_site_type_symbol
_atom_site_label
_atom_site_fract_x
_atom_site_fract_y
_atom_site_fract_z
Si Si1 0.308247 0.822124 0.242229
Si Si2 0.384809 0.318992 0.908007
Si Si3 0.892867 0.179088 0.816228
Si Si4 0.394123 0.676740 0.545272
Si Si5 0.113084 0.899559 0.043216
Si Si6 0.810644 0.676546 0.604445
Si Si7 0.750000 0.500000 0.000000
O O1 0.326772 0.750000 0.241087
O O2 0.351163 0.843929 0.167934
O O3 0.193839 0.831683 0.237191
O O4 0.343396 0.844859 0.318191
O O5 0.500000 0.315844 0.907028
O O6 0.348197 0.250000 0.916965
O O7 0.358871 0.360720 0.973959
O O8 0.889202 0.250000 0.834812
O O9 0.000000 0.166509 0.788538
O O10 0.877294 0.141288 0.887322
O O11 0.500000 0.656237 0.568141
O O12 0.394470 0.750000 0.547986
O O13 0.299544 0.657960 0.588428
O O14 0.373883 0.659672 0.463377
O O15 0.180259 0.957538 0.045433
O O16 0.000000 0.915424 0.036593
O O17 0.810933 0.750000 0.606211
#
# Coordination Sequence:
#
# PCOD9502253 Si02
#       7
#    16  16  16  16  16  16   4
#     4   9  16  24  35  55  80 101 126 164 209 252
#     4   9  17  29  45  63  82 106 135 170 213 253
#     4   9  17  29  45  63  82 106 135 170 213 253
#     4   8  13  21  32  43  59  92 133 165 194 225
#     4  10  20  33  47  63  83 106 139 176 206 246
#     4   8  14  22  30  45  69  93 124 166 200 231
#     4  12  22  32  46  62  80 108 138 172 216 246
#
# _framework density 17.108108000000001
#
# number of rings (size 3 to 8) (size 9 to 14) (size 15 to 20)
#    0.000    3.040    0.000    2.640    0.000    3.200 
#    0.000    9.600    0.000    0.000    0.000    0.000 
#    0.000    0.000    0.000    0.000    0.000   51.200 
#
# Total GULP energy -278379.101519 kJ/mol
# GULP energy per Si atom -5567.582030 kJ/mol
# Density = 1.706917 g / cm^3
# Si number density = 17.108108 Si / 1000 Ang^3
#
#
#
# Elastic Constant Matrix: (Units=GPa)
#
#
# Indices 1 2 3 4 5 6 
#
# 1 37.3921 10.4170 -2.8775 0.0000 0.0000 0.0000
# 2 10.4170 22.7261 11.6273 0.0000 0.0000 0.0000
# 3 -2.8775 11.6273 48.6688 0.0000 0.0000 0.0000
# 4 0.0000 0.0000 0.0000 -0.4140 0.0000 0.0000
# 5 0.0000 0.0000 0.0000 0.0000 4.8281 0.0000
# 6 0.0000 0.0000 0.0000 0.0000 0.0000 20.1550
#
#
#
# Elastic Compliance Matrix: (Units=1/GPa)
#
#
# Indices 1 2 3 4 5 6 
#
# 1 0.032216 -0.017933 0.006189 0.000000 0.000000 0.000000
# 2 -0.017933 0.060112 -0.015422 0.000000 0.000000 0.000000
# 3 0.006189 -0.015422 0.024597 0.000000 0.000000 0.000000
# 4 0.000000 0.000000 0.000000 -2.415526 0.000000 0.000000
# 5 0.000000 0.000000 0.000000 0.000000 0.207121 0.000000
# 6 0.000000 0.000000 0.000000 0.000000 0.000000 0.049615
#
#
# Mechanical properties :
#
#
# Convention : Reuss Voigt Hill
#
# Bulk Modulus (GPa) = 15.97594 16.34672 16.16133
# Shear Modulus (GPa) = -2.54237 10.88851 4.17307
#
# Velocity S-wave (km/s) = -1.22036 2.52554 1.56350
# Velocity P-wave (km/s) = 2.71529 4.25208 3.56742
#
# Compressibility (1/GPa) = 0.06259411
#
# Stress axis : x y z
#
# Youngs Moduli (GPa) = 31.04055 16.63548 40.65489
#
# Poissons Ratio (x) = 0.29833 -0.25162
# Poissons Ratio (y) = 0.55666 0.62696
# Poissons Ratio (z) = -0.19211 0.25654
#
# Static dielectric constant tensor:
#      x y z
#    x 1.639370 0.000000 0.000000 
#    y 0.000000 1.552970 0.000000 
#    z 0.000000 0.000000 1.598360 
# 
# From -- ./inp_files/33714.got.cif
#   From: 2010.05.17/outbox.cif.g08.bks.cpg/sg67_17_cif.got.tgz:33714.got - 2010.06.03 18:28:57.
