data_PCOD9502194
_publ_section_title
;
Structure prediction by ZEFSAII (Michael W. Deem and Ramdas Pophale) SiO2 
 PCOD9502194
Probable space group: C M M A
;
_chemical_formula_sum "Si O2"
_cell_formula_units_Z 96
_cell_length_a 8.680655
_cell_length_b 28.002557
_cell_length_c 24.360305
_cell_angle_alpha 90.000000
_cell_angle_beta 90.000000
_cell_angle_gamma 90.000000
_cell_volume 5921.516007
_symmetry_space_group_name_H-M "C M M A"
_symmetry_group_IT_number 67
_symmetry_cell_setting 'orthorhombic'
loop_
_space_group_symop_operation_xyz
x,y,z
-x,1/2-y,z
x,-y,-z
-x,1/2+y,-z
-x,-y,-z
x,1/2+y,-z
-x,y,z
x,1/2-y,z
1/2+x,1/2+y,z
1/2-x,-y,z
1/2+x,1/2-y,-z
1/2-x,y,-z
1/2-x,1/2-y,-z
1/2+x,y,-z
1/2-x,1/2+y,z
1/2+x,-y,z
loop_
_atom_site_type_symbol
_atom_site_label
_atom_site_fract_x
_atom_site_fract_y
_atom_site_fract_z
Si Si1 0.815941 0.643081 0.665820
Si Si2 0.685025 0.105497 0.829997
Si Si3 0.815219 0.194834 0.771862
Si Si4 0.815695 0.052467 0.724329
Si Si5 0.315463 0.053188 0.941516
Si Si6 0.815661 0.806143 0.439951
O O1 0.753371 0.678250 0.713469
O O2 0.747433 0.591408 0.681308
O O3 0.759001 0.662399 0.607613
O O4 0.000000 0.641416 0.668303
O O5 0.500000 0.104724 0.824125
O O6 0.747204 0.158072 0.816097
O O7 0.756660 0.071063 0.783594
O O8 0.725987 0.086505 0.890219
O O9 0.778238 0.250000 0.782681
O O10 0.000000 0.189475 0.769611
O O11 0.000000 0.052172 0.723838
O O12 0.750000 0.000000 0.713930
O O13 0.500000 0.050226 0.944924
O O14 0.250000 0.000000 0.931958
O O15 0.250000 0.069920 0.000000
O O16 0.780389 0.750000 0.429662
O O17 0.750000 0.818001 0.500000
O O18 0.000000 0.811589 0.439447
#
# Coordination Sequence:
#
# PCOD9502194 Si02
#       6
#    16  16  16  16  16  16
#     4  11  21  33  51  75 102 133 167 203 246 293
#     4  10  20  33  50  74 100 129 164 201 245 293
#     4  10  20  33  50  73 100 131 165 202 246 293
#     4  11  21  34  52  74 101 132 165 203 246 292
#     4  10  20  32  49  72  98 128 161 198 241 290
#     4  10  20  34  52  75 103 134 168 206 248 293
#
# _framework density 16.212064999999999
#
# number of rings (size 3 to 8) (size 9 to 14) (size 15 to 20)
#    0.000    1.667    0.000    8.500    0.000    8.333 
#    0.000    0.000    0.000    1.000    0.000    3.500 
#    0.000    0.000    0.000    0.000    0.000    0.000 
#
# Total GULP energy -268106.008775 kJ/mol
# GULP energy per Si atom -5585.541849 kJ/mol
# Density = 1.617517 g / cm^3
# Si number density = 16.212065 Si / 1000 Ang^3
#
#
#
# Elastic Constant Matrix: (Units=GPa)
#
#
# Indices 1 2 3 4 5 6 
#
# 1 109.5223 65.9450 67.6335 0.0000 0.0000 0.0000
# 2 65.9450 129.1768 94.5923 0.0000 0.0000 0.0000
# 3 67.6335 94.5923 150.2431 0.0000 0.0000 0.0000
# 4 0.0000 0.0000 0.0000 18.9119 0.0000 0.0000
# 5 0.0000 0.0000 0.0000 0.0000 27.2918 0.0000
# 6 0.0000 0.0000 0.0000 0.0000 0.0000 26.2680
#
#
#
# Elastic Compliance Matrix: (Units=1/GPa)
#
#
# Indices 1 2 3 4 5 6 
#
# 1 0.014038 -0.004711 -0.003353 0.000000 0.000000 0.000000
# 2 -0.004711 0.015944 -0.007918 0.000000 0.000000 0.000000
# 3 -0.003353 -0.007918 0.013150 0.000000 0.000000 0.000000
# 4 0.000000 0.000000 0.000000 0.052877 0.000000 0.000000
# 5 0.000000 0.000000 0.000000 0.000000 0.036641 0.000000
# 6 0.000000 0.000000 0.000000 0.000000 0.000000 0.038069
#
#
# Mechanical properties :
#
#
# Convention : Reuss Voigt Hill
#
# Bulk Modulus (GPa) = 89.53705 93.92044 91.72874
# Shear Modulus (GPa) = 24.22414 25.21244 24.71829
#
# Velocity S-wave (km/s) = 3.86969 3.94784 3.90896
# Velocity P-wave (km/s) = 8.67839 8.87912 8.77933
#
# Compressibility (1/GPa) = 0.01116856
#
# Stress axis : x y z
#
# Youngs Moduli (GPa) = 71.23622 62.71927 76.04323
#
# Poissons Ratio (x) = 0.29545 0.25501
# Poissons Ratio (y) = 0.33557 0.60209
# Poissons Ratio (z) = 0.23889 0.49659
#
# Static dielectric constant tensor:
#      x y z
#    x 1.541350 0.000000 0.000000 
#    y 0.000000 1.529420 0.000000 
#    z 0.000000 0.000000 1.525280 
# 
# From -- ./inp_files/40935.got.cif
#   From: 2010.05.17/outbox.cif.g08.bks.cpg/sg67_21_cif.got.tgz:40935.got - 2010.06.03 18:28:57.
