data_PCOD9502362
_publ_section_title
;
Structure prediction by ZEFSAII (Michael W. Deem and Ramdas Pophale) SiO2 
 PCOD9502362
Probable space group: C M M A
;
_chemical_formula_sum "Si O2"
_cell_formula_units_Z 96
_cell_length_a 22.708749
_cell_length_b 17.951879
_cell_length_c 12.182844
_cell_angle_alpha 90.000000
_cell_angle_beta 90.000000
_cell_angle_gamma 90.000000
_cell_volume 4966.515618
_symmetry_space_group_name_H-M "C M M A"
_symmetry_group_IT_number 67
_symmetry_cell_setting 'orthorhombic'
loop_
_space_group_symop_operation_xyz
x,y,z
-x,1/2-y,z
x,-y,-z
-x,1/2+y,-z
-x,-y,-z
x,1/2+y,-z
-x,y,z
x,1/2-y,z
1/2+x,1/2+y,z
1/2-x,-y,z
1/2+x,1/2-y,-z
1/2-x,y,-z
1/2-x,1/2-y,-z
1/2+x,y,-z
1/2-x,1/2+y,z
1/2+x,-y,z
loop_
_atom_site_type_symbol
_atom_site_label
_atom_site_fract_x
_atom_site_fract_y
_atom_site_fract_z
Si Si1 0.565381 0.019766 0.679341
Si Si2 0.070077 0.867885 0.422214
Si Si3 0.932917 0.063139 0.911177
Si Si4 0.867052 0.833441 0.646273
Si Si5 0.245422 0.911680 0.366128
Si Si6 0.857708 0.833846 0.223328
O O1 0.500000 0.038669 0.641513
O O2 0.598550 0.096351 0.694249
O O3 0.586650 0.955126 0.596855
O O4 0.563317 0.979579 0.795566
O O5 0.109861 0.836276 0.519844
O O6 0.087151 0.830960 0.307473
O O7 0.000000 0.860559 0.441334
O O8 0.883037 0.124563 0.884679
O O9 0.000000 0.091193 0.936016
O O10 0.917591 0.000000 0.000000
O O11 0.878072 0.750000 0.687552
O O12 0.800018 0.858011 0.662034
O O13 0.250000 0.909314 0.500000
O O14 0.190722 0.878707 0.296209
O O15 0.250000 0.000000 0.338215
O O16 0.837366 0.750000 0.200448
#
# Coordination Sequence:
#
# PCOD9502362 Si02
#       6
#    16  16  16  16  16  16
#     4   9  19  35  55  78 107 147 193 235 286 357
#     4  10  20  33  51  76 112 156 194 229 278 349
#     4   9  19  38  63  88 114 149 195 246 299 358
#     4  12  23  33  50  78 114 148 185 236 289 344
#     4  11  23  37  56  78 111 159 205 241 288 359
#     4  11  21  35  57  86 121 154 196 252 305 353
#
# _framework density 19.329447999999999
#
# number of rings (size 3 to 8) (size 9 to 14) (size 15 to 20)
#    0.000    1.667    1.667    5.500    2.333    5.333 
#    0.000    0.833    0.000    7.500    0.000    5.833 
#    0.000    0.000    0.000    0.000    0.000    0.000 
#
# Total GULP energy -267232.256999 kJ/mol
# GULP energy per Si atom -5567.338687 kJ/mol
# Density = 1.928545 g / cm^3
# Si number density = 19.329448 Si / 1000 Ang^3
#
#
#
# Elastic Constant Matrix: (Units=GPa)
#
#
# Indices 1 2 3 4 5 6 
#
# 1 96.4505 59.0482 13.2244 0.0000 0.0000 0.0000
# 2 59.0482 155.3550 17.0865 0.0000 0.0000 0.0000
# 3 13.2244 17.0865 37.6775 0.0000 0.0000 0.0000
# 4 0.0000 0.0000 0.0000 46.1526 0.0000 0.0000
# 5 0.0000 0.0000 0.0000 0.0000 18.1832 0.0000
# 6 0.0000 0.0000 0.0000 0.0000 0.0000 19.2132
#
#
#
# Elastic Compliance Matrix: (Units=1/GPa)
#
#
# Indices 1 2 3 4 5 6 
#
# 1 0.013747 -0.004941 -0.002584 0.000000 0.000000 0.000000
# 2 -0.004941 0.008551 -0.002143 0.000000 0.000000 0.000000
# 3 -0.002584 -0.002143 0.028420 0.000000 0.000000 0.000000
# 4 0.000000 0.000000 0.000000 0.021667 0.000000 0.000000
# 5 0.000000 0.000000 0.000000 0.000000 0.054996 0.000000
# 6 0.000000 0.000000 0.000000 0.000000 0.000000 0.052047
#
#
# Mechanical properties :
#
#
# Convention : Reuss Voigt Hill
#
# Bulk Modulus (GPa) = 31.86697 52.02235 41.94466
# Shear Modulus (GPa) = 23.89758 30.05139 26.97448
#
# Velocity S-wave (km/s) = 3.51996 3.94724 3.73971
# Velocity P-wave (km/s) = 5.74824 6.90986 6.35564
#
# Compressibility (1/GPa) = 0.03138045
#
# Stress axis : x y z
#
# Youngs Moduli (GPa) = 72.74189 116.95122 35.18620
#
# Poissons Ratio (x) = 0.57784 0.09094
# Poissons Ratio (y) = 0.35941 0.07542
# Poissons Ratio (z) = 0.18800 0.25068
#
# Static dielectric constant tensor:
#      x y z
#    x 1.828450 0.000000 0.000000 
#    y 0.000000 1.745850 0.000000 
#    z 0.000000 0.000000 1.686390 
# 
# From -- ./inp_files/21950.got.cif
#   From: 2010.05.17/outbox.cif.g08.bks.cpg/sg67_11_cif.got.tgz:21950.got - 2010.06.03 18:28:57.
