data_PCOD9502168
_publ_section_title
;
Structure prediction by ZEFSAII (Michael W. Deem and Ramdas Pophale) SiO2 
 PCOD9502168
Probable space group: C M M A
;
_chemical_formula_sum "Si O2"
_cell_formula_units_Z 96
_cell_length_a 28.022424
_cell_length_b 8.719377
_cell_length_c 24.321355
_cell_angle_alpha 90.000000
_cell_angle_beta 90.000000
_cell_angle_gamma 90.000000
_cell_volume 5942.633167
_symmetry_space_group_name_H-M "C M M A"
_symmetry_group_IT_number 67
_symmetry_cell_setting 'orthorhombic'
loop_
_space_group_symop_operation_xyz
x,y,z
-x,1/2-y,z
x,-y,-z
-x,1/2+y,-z
-x,-y,-z
x,1/2+y,-z
-x,y,z
x,1/2-y,z
1/2+x,1/2+y,z
1/2-x,-y,z
1/2+x,1/2-y,-z
1/2-x,y,-z
1/2-x,1/2-y,-z
1/2+x,y,-z
1/2-x,1/2+y,z
1/2+x,-y,z
loop_
_atom_site_type_symbol
_atom_site_label
_atom_site_fract_x
_atom_site_fract_y
_atom_site_fract_z
Si Si1 0.104584 0.433442 0.164569
Si Si2 0.055172 0.933029 0.058867
Si Si3 0.697176 0.566260 0.440309
Si Si4 0.198244 0.565792 0.769823
Si Si5 0.055081 0.934672 0.721299
Si Si6 0.645494 0.567170 0.663738
O O1 0.101965 0.250000 0.157492
O O2 0.087231 0.511535 0.109190
O O3 0.157962 0.472425 0.184828
O O4 0.070556 0.474232 0.216246
O O5 0.055806 0.750000 0.055905
O O6 0.000000 0.983426 0.068327
O O7 0.070299 0.000000 0.000000
O O8 0.683556 0.500000 0.500000
O O9 0.699313 0.750000 0.442235
O O10 0.750000 0.500000 0.428082
O O11 0.662140 0.509065 0.392837
O O12 0.199823 0.750000 0.764338
O O13 0.250000 0.500000 0.783078
O O14 0.179530 0.495280 0.712535
O O15 0.061021 0.750000 0.715961
O O16 0.000000 0.973200 0.711644
O O17 0.092387 0.016510 0.681311
O O18 0.649289 0.750000 0.660373
#
# Coordination Sequence:
#
# PCOD9502168 Si02
#       6
#    16  16  16  16  16  16
#     4   9  18  32  50  72  99 129 160 197 243 292
#     4  10  20  32  48  71  98 128 162 199 240 287
#     4  11  21  35  53  75 102 131 165 203 247 295
#     4  10  20  34  51  73 100 131 165 202 246 292
#     4   9  18  33  52  74 101 133 166 202 246 293
#     4  11  21  33  50  74 103 134 167 203 244 290
#
# _framework density 16.154454999999999
#
# number of rings (size 3 to 8) (size 9 to 14) (size 15 to 20)
#    0.000    2.000    0.000    6.500    0.000    5.333 
#    0.000    0.000    0.000    1.000    0.000    3.500 
#    0.000    0.000    0.000    0.000    0.000    0.000 
#
# Total GULP energy -267979.763536 kJ/mol
# GULP energy per Si atom -5582.911740 kJ/mol
# Density = 1.611769 g / cm^3
# Si number density = 16.154455 Si / 1000 Ang^3
#
#
#
# Elastic Constant Matrix: (Units=GPa)
#
#
# Indices 1 2 3 4 5 6 
#
# 1 110.2978 58.0579 78.7665 0.0000 0.0000 0.0000
# 2 58.0579 98.6909 65.3441 0.0000 0.0000 0.0000
# 3 78.7665 65.3441 135.9633 0.0000 0.0000 0.0000
# 4 0.0000 0.0000 0.0000 29.8840 0.0000 0.0000
# 5 0.0000 0.0000 0.0000 0.0000 18.0660 0.0000
# 6 0.0000 0.0000 0.0000 0.0000 0.0000 28.4203
#
#
#
# Elastic Compliance Matrix: (Units=1/GPa)
#
#
# Indices 1 2 3 4 5 6 
#
# 1 0.017065 -0.005124 -0.007423 0.000000 0.000000 0.000000
# 2 -0.005124 0.016400 -0.004914 0.000000 0.000000 0.000000
# 3 -0.007423 -0.004914 0.014017 0.000000 0.000000 0.000000
# 4 0.000000 0.000000 0.000000 0.033463 0.000000 0.000000
# 5 0.000000 0.000000 0.000000 0.000000 0.055353 0.000000
# 6 0.000000 0.000000 0.000000 0.000000 0.000000 0.035186
#
#
# Mechanical properties :
#
#
# Convention : Reuss Voigt Hill
#
# Bulk Modulus (GPa) = 79.61657 83.25433 81.43545
# Shear Modulus (GPa) = 23.74261 24.79295 24.26778
#
# Velocity S-wave (km/s) = 3.83786 3.92183 3.88007
# Velocity P-wave (km/s) = 8.30846 8.49447 8.40198
#
# Compressibility (1/GPa) = 0.01256020
#
# Stress axis : x y z
#
# Youngs Moduli (GPa) = 58.60078 60.97487 71.34168
#
# Poissons Ratio (x) = 0.31241 0.52960
# Poissons Ratio (y) = 0.30025 0.35055
# Poissons Ratio (z) = 0.43502 0.29961
#
# Static dielectric constant tensor:
#      x y z
#    x 1.534180 0.000000 0.000000 
#    y 0.000000 1.541200 0.000000 
#    z 0.000000 0.000000 1.515790 
# 
# From -- ./inp_files/37188.got.cif
#   From: 2010.05.17/outbox.cif.g08.bks.cpg/sg67_19_cif.got.tgz:37188.got - 2010.06.03 18:28:57.
