data_PCOD9502974
_publ_section_title
;
Structure prediction by ZEFSAII (Michael W. Deem and Ramdas Pophale) SiO2 
 PCOD9502974
Probable space group: C M M A
;
_chemical_formula_sum "Si O2"
_cell_formula_units_Z 112
_cell_length_a 13.835085
_cell_length_b 28.891439
_cell_length_c 10.873047
_cell_angle_alpha 90.000000
_cell_angle_beta 90.000000
_cell_angle_gamma 90.000000
_cell_volume 4346.125574
_symmetry_space_group_name_H-M "C M M A"
_symmetry_group_IT_number 67
_symmetry_cell_setting 'orthorhombic'
loop_
_space_group_symop_operation_xyz
x,y,z
-x,1/2-y,z
x,-y,-z
-x,1/2+y,-z
-x,-y,-z
x,1/2+y,-z
-x,y,z
x,1/2-y,z
1/2+x,1/2+y,z
1/2-x,-y,z
1/2+x,1/2-y,-z
1/2-x,y,-z
1/2-x,1/2-y,-z
1/2+x,y,-z
1/2-x,1/2+y,z
1/2+x,-y,z
loop_
_atom_site_type_symbol
_atom_site_label
_atom_site_fract_x
_atom_site_fract_y
_atom_site_fract_z
Si Si1 0.886898 0.960805 0.281825
Si Si2 0.180145 0.563980 0.770672
Si Si3 0.861805 0.628193 0.968549
Si Si4 0.172347 0.800907 0.765527
Si Si5 0.607850 0.597225 0.476351
Si Si6 0.395627 0.696369 0.815319
Si Si7 0.364725 0.800522 0.505930
O O1 0.796351 0.939486 0.205431
O O2 0.872441 0.941329 0.420275
O O3 0.000000 0.951199 0.248244
O O4 0.863957 0.015141 0.272173
O O5 0.123641 0.580520 0.893248
O O6 0.171314 0.595596 0.647280
O O7 0.874220 0.663883 0.857741
O O8 0.902062 0.654828 0.086335
O O9 0.750000 0.627178 0.000000
O O10 0.167361 0.750000 0.820916
O O11 0.113919 0.800572 0.639435
O O12 0.289589 0.809613 0.752415
O O13 0.500000 0.588895 0.430334
O O14 0.609667 0.647269 0.542597
O O15 0.500000 0.693685 0.747682
O O16 0.392039 0.750000 0.863686
O O17 0.394941 0.750000 0.558296
O O18 0.250000 0.798518 0.500000
#
# Coordination Sequence:
#
# PCOD9502974 Si02
#       7
#    16  16  16  16  16  16  16
#     4  10  23  41  63  91 119 155 203 258 315 382
#     4  11  21  39  65  90 122 158 200 255 322 381
#     4  10  20  35  58  86 117 159 208 253 308 370
#     4   9  17  33  55  80 115 162 207 245 292 359
#     4  11  22  37  61  91 123 160 207 257 311 374
#     4   9  18  33  55  87 125 166 216 268 313 362
#     4  10  20  35  57  85 122 168 210 246 300 370
#
# _framework density 25.770078000000002
#
# number of rings (size 3 to 8) (size 9 to 14) (size 15 to 20)
#    0.000    2.000    1.429    2.571    0.000    5.429 
#    0.000    5.000    0.000    3.429    0.000    0.000 
#    0.000    0.000    0.000    0.000    0.000    0.000 
#
# Total GULP energy -312172.832319 kJ/mol
# GULP energy per Si atom -5574.514863 kJ/mol
# Density = 2.571142 g / cm^3
# Si number density = 25.770078 Si / 1000 Ang^3
#
#
#
# Elastic Constant Matrix: (Units=GPa)
#
#
# Indices 1 2 3 4 5 6 
#
# 1 145.9782 19.7828 15.0801 0.0000 0.0000 0.0000
# 2 19.7828 142.6885 49.0002 0.0000 0.0000 0.0000
# 3 15.0801 49.0002 79.0541 0.0000 0.0000 0.0000
# 4 0.0000 0.0000 0.0000 43.8244 0.0000 0.0000
# 5 0.0000 0.0000 0.0000 0.0000 -12.3980 0.0000
# 6 0.0000 0.0000 0.0000 0.0000 0.0000 -3.9066
#
#
#
# Elastic Compliance Matrix: (Units=1/GPa)
#
#
# Indices 1 2 3 4 5 6 
#
# 1 0.007036 -0.000654 -0.000937 0.000000 0.000000 0.000000
# 2 -0.000654 0.008964 -0.005432 0.000000 0.000000 0.000000
# 3 -0.000937 -0.005432 0.016195 0.000000 0.000000 0.000000
# 4 0.000000 0.000000 0.000000 0.022818 0.000000 0.000000
# 5 0.000000 0.000000 0.000000 0.000000 -0.080658 0.000000
# 6 0.000000 0.000000 0.000000 0.000000 0.000000 -0.255980
#
#
# Mechanical properties :
#
#
# Convention : Reuss Voigt Hill
#
# Bulk Modulus (GPa) = 55.09514 59.49411 57.29462
# Shear Modulus (GPa) = -19.11826 24.42782 2.65478
#
# Velocity S-wave (km/s) = -2.72670 3.08216 1.01608
# Velocity P-wave (km/s) = 3.39304 5.98355 4.86393
#
# Compressibility (1/GPa) = 0.01815042
#
# Stress axis : x y z
#
# Youngs Moduli (GPa) = 142.13201 111.55560 61.74774
#
# Poissons Ratio (x) = 0.07293 0.05785
# Poissons Ratio (y) = 0.09291 0.33539
# Poissons Ratio (z) = 0.13317 0.60592
#
# Static dielectric constant tensor:
#      x y z
#    x 1.816140 0.000000 0.000000 
#    y 0.000000 2.065110 0.000000 
#    z 0.000000 0.000000 2.096210 
# 
# From -- ./inp_files/18571.got.cif
#   From: 2010.05.17/outbox.cif.g08.bks.cpg/sg67_10_cif.got.tgz:18571.got - 2010.06.03 18:28:57.
