data_PCOD9502742
_publ_section_title
;
Structure prediction by ZEFSAII (Michael W. Deem and Ramdas Pophale) SiO2 
 PCOD9502742
Probable space group: C M M A
;
_chemical_formula_sum "Si O2"
_cell_formula_units_Z 128
_cell_length_a 17.947734
_cell_length_b 17.209450
_cell_length_c 22.763868
_cell_angle_alpha 90.000000
_cell_angle_beta 90.000000
_cell_angle_gamma 90.000000
_cell_volume 7031.090271
_symmetry_space_group_name_H-M "C M M A"
_symmetry_group_IT_number 67
_symmetry_cell_setting 'orthorhombic'
loop_
_space_group_symop_operation_xyz
x,y,z
-x,1/2-y,z
x,-y,-z
-x,1/2+y,-z
-x,-y,-z
x,1/2+y,-z
-x,y,z
x,1/2-y,z
1/2+x,1/2+y,z
1/2-x,-y,z
1/2+x,1/2-y,-z
1/2-x,y,-z
1/2-x,1/2-y,-z
1/2+x,y,-z
1/2-x,1/2+y,z
1/2+x,-y,z
loop_
_atom_site_type_symbol
_atom_site_label
_atom_site_fract_x
_atom_site_fract_y
_atom_site_fract_z
Si Si1 0.264794 0.407942 0.747677
Si Si2 0.585589 0.576348 0.536478
Si Si3 0.864219 0.340644 0.425856
Si Si4 0.823598 0.086760 0.028970
Si Si5 0.279797 0.587722 0.619744
Si Si6 0.917381 0.657091 0.061945
Si Si7 0.735842 0.656914 0.872881
Si Si8 0.415575 0.655875 0.298342
O O1 0.250000 0.500000 0.755810
O O2 0.226118 0.381863 0.686326
O O3 0.237539 0.361464 0.804169
O O4 0.351831 0.388093 0.737480
O O5 0.609896 0.500000 0.500000
O O6 0.500000 0.567351 0.554072
O O7 0.595330 0.640143 0.486100
O O8 0.639806 0.589966 0.590635
O O9 0.861671 0.250000 0.419131
O O10 0.779890 0.370843 0.422241
O O11 0.904959 0.369951 0.366604
O O12 0.800223 0.103230 0.096001
O O13 0.750000 0.125754 0.000000
O O14 0.895544 0.128881 0.003467
O O15 0.826759 0.000000 0.000000
O O16 0.250000 0.500000 0.623275
O O17 0.919175 0.750000 0.063207
O O18 0.846260 0.634005 0.101912
O O19 0.000000 0.628126 0.078667
O O20 0.747877 0.750000 0.883544
O O21 0.500000 0.639445 0.279918
O O22 0.404523 0.750000 0.294388
#
# Coordination Sequence:
#
# PCOD9502742 Si02
#       8
#    16  16  16  16  16  16  16  16
#     4  10  22  36  56  81 113 152 195 235 278 335
#     4  11  22  34  54  80 110 145 183 231 291 349
#     4  10  20  34  57  84 107 140 183 231 290 354
#     4   9  18  31  55  82 109 139 172 226 282 323
#     4  10  20  38  54  77 107 146 185 231 279 343
#     4   9  18  33  53  79 111 146 184 223 267 325
#     4  10  20  36  59  82 109 153 198 231 269 334
#     4   9  18  36  60  84 113 146 186 244 307 354
#
# _framework density 18.204857000000001
#
# number of rings (size 3 to 8) (size 9 to 14) (size 15 to 20)
#    0.000    2.250    1.250    1.500    3.500    4.000 
#    0.000    1.875    0.000    2.250    0.000    0.000 
#    0.000    0.000    0.000    0.000    0.000    0.000 
#
# Total GULP energy -356351.614264 kJ/mol
# GULP energy per Si atom -5567.993973 kJ/mol
# Density = 1.816342 g / cm^3
# Si number density = 18.204857 Si / 1000 Ang^3
#
#
#
# Elastic Constant Matrix: (Units=GPa)
#
#
# Indices 1 2 3 4 5 6 
#
# 1 111.7040 29.1841 53.7023 0.0000 0.0000 0.0000
# 2 29.1841 41.5097 16.0173 0.0000 0.0000 0.0000
# 3 53.7023 16.0173 82.8289 0.0000 0.0000 0.0000
# 4 0.0000 0.0000 0.0000 21.0170 0.0000 0.0000
# 5 0.0000 0.0000 0.0000 0.0000 17.0699 0.0000
# 6 0.0000 0.0000 0.0000 0.0000 0.0000 18.1787
#
#
#
# Elastic Compliance Matrix: (Units=1/GPa)
#
#
# Indices 1 2 3 4 5 6 
#
# 1 0.014774 -0.007231 -0.008181 0.000000 0.000000 0.000000
# 2 -0.007231 0.029572 -0.001031 0.000000 0.000000 0.000000
# 3 -0.008181 -0.001031 0.017576 0.000000 0.000000 0.000000
# 4 0.000000 0.000000 0.000000 0.047581 0.000000 0.000000
# 5 0.000000 0.000000 0.000000 0.000000 0.058583 0.000000
# 6 0.000000 0.000000 0.000000 0.000000 0.000000 0.055010
#
#
# Mechanical properties :
#
#
# Convention : Reuss Voigt Hill
#
# Bulk Modulus (GPa) = 34.43667 48.20558 41.32112
# Shear Modulus (GPa) = 18.82113 20.39569 19.60841
#
# Velocity S-wave (km/s) = 3.21885 3.35078 3.28548
# Velocity P-wave (km/s) = 5.72467 6.44262 6.09423
#
# Compressibility (1/GPa) = 0.02903882
#
# Stress axis : x y z
#
# Youngs Moduli (GPa) = 67.68552 33.81577 56.89471
#
# Poissons Ratio (x) = 0.24451 0.46544
# Poissons Ratio (y) = 0.48941 0.05864
# Poissons Ratio (z) = 0.55371 0.03485
#
# Static dielectric constant tensor:
#      x y z
#    x 1.631330 0.000000 0.000000 
#    y 0.000000 1.593880 0.000000 
#    z 0.000000 0.000000 1.613840 
# 
# From -- ./inp_files/42260.got.cif
#   From: 2010.05.17/outbox.cif.g08.bks.cpg/sg67_22_cif.got.tgz:42260.got - 2010.06.03 18:28:57.
