data_PCOD9502660
_publ_section_title
;
Structure prediction by ZEFSAII (Michael W. Deem and Ramdas Pophale) SiO2 
 PCOD9502660
Probable space group: C M M A
;
_chemical_formula_sum "Si O2"
_cell_formula_units_Z 80
_cell_length_a 18.944777
_cell_length_b 8.844647
_cell_length_c 26.561144
_cell_angle_alpha 90.000000
_cell_angle_beta 90.000000
_cell_angle_gamma 90.000000
_cell_volume 4450.581704
_symmetry_space_group_name_H-M "C M M A"
_symmetry_group_IT_number 67
_symmetry_cell_setting 'orthorhombic'
loop_
_space_group_symop_operation_xyz
x,y,z
-x,1/2-y,z
x,-y,-z
-x,1/2+y,-z
-x,-y,-z
x,1/2+y,-z
-x,y,z
x,1/2-y,z
1/2+x,1/2+y,z
1/2-x,-y,z
1/2+x,1/2-y,-z
1/2-x,y,-z
1/2-x,1/2-y,-z
1/2+x,y,-z
1/2-x,1/2+y,z
1/2+x,-y,z
loop_
_atom_site_type_symbol
_atom_site_label
_atom_site_fract_x
_atom_site_fract_y
_atom_site_fract_z
Si Si1 0.327694 0.070215 0.447381
Si Si2 0.414240 0.075252 0.255126
Si Si3 0.415260 0.573637 0.358854
Si Si4 0.916101 0.431537 0.857360
Si Si5 0.328136 0.930598 0.052465
O O1 0.322360 0.250000 0.452043
O O2 0.354525 0.000000 0.500000
O O3 0.250000 0.000000 0.439216
O O4 0.377091 0.023520 0.401293
O O5 0.500000 0.073785 0.253931
O O6 0.392870 0.250000 0.262500
O O7 0.392024 0.024927 0.199260
O O8 0.392280 0.977384 0.302922
O O9 0.500000 0.553272 0.361918
O O10 0.399432 0.750000 0.366703
O O11 0.905767 0.250000 0.862116
O O12 0.875107 0.517897 0.900720
O O13 0.000000 0.459723 0.861319
O O14 0.324062 0.750000 0.048640
O O15 0.250000 0.000000 0.058997
O O16 0.356265 0.000000 0.000000
#
# Coordination Sequence:
#
# PCOD9502660 Si02
#       5
#    16  16  16  16  16
#     4  11  22  38  58  78 105 139 176 217 264 317
#     4   8  15  30  52  77 106 140 174 211 259 309
#     4  10  20  34  54  81 111 141 176 217 259 307
#     4   9  18  34  56  81 109 139 173 214 259 309
#     4  11  22  37  56  76 103 138 176 217 263 315
#
# _framework density 17.975178
#
# number of rings (size 3 to 8) (size 9 to 14) (size 15 to 20)
#    0.000    2.200    0.000    6.600    0.000    3.200 
#    0.000    3.000    0.000    4.800    0.000    0.000 
#    0.000    0.000    0.000    0.000    0.000    0.000 
#
# Total GULP energy -223223.206763 kJ/mol
# GULP energy per Si atom -5580.580169 kJ/mol
# Density = 1.793427 g / cm^3
# Si number density = 17.975178 Si / 1000 Ang^3
#
#
#
# Elastic Constant Matrix: (Units=GPa)
#
#
# Indices 1 2 3 4 5 6 
#
# 1 21.4888 39.8609 43.0985 0.0000 0.0000 0.0000
# 2 39.8609 136.1440 85.8673 0.0000 0.0000 0.0000
# 3 43.0985 85.8673 155.2079 0.0000 0.0000 0.0000
# 4 0.0000 0.0000 0.0000 34.9338 0.0000 0.0000
# 5 0.0000 0.0000 0.0000 0.0000 174.1505 0.0000
# 6 0.0000 0.0000 0.0000 0.0000 0.0000 23.7934
#
#
#
# Elastic Compliance Matrix: (Units=1/GPa)
#
#
# Indices 1 2 3 4 5 6 
#
# 1 0.150901 -0.027268 -0.026817 0.000000 0.000000 0.000000
# 2 -0.027268 0.016209 -0.001396 0.000000 0.000000 0.000000
# 3 -0.026817 -0.001396 0.014662 0.000000 0.000000 0.000000
# 4 0.000000 0.000000 0.000000 0.028626 0.000000 0.000000
# 5 0.000000 0.000000 0.000000 0.000000 0.005742 0.000000
# 6 0.000000 0.000000 0.000000 0.000000 0.000000 0.042028
#
#
# Mechanical properties :
#
#
# Convention : Reuss Voigt Hill
#
# Bulk Modulus (GPa) = 14.12210 72.27714 43.19962
# Shear Modulus (GPa) = 12.73130 56.17648 34.45389
#
# Velocity S-wave (km/s) = 2.66422 5.59644 4.38282
# Velocity P-wave (km/s) = 4.16385 9.05852 7.04963
#
# Compressibility (1/GPa) = 0.07081102
#
# Stress axis : x y z
#
# Youngs Moduli (GPa) = 6.62685 61.69369 68.20503
#
# Poissons Ratio (x) = 1.68227 1.82904
# Poissons Ratio (y) = 0.18070 0.09519
# Poissons Ratio (z) = 0.17771 0.08611
#
# Static dielectric constant tensor:
#      x y z
#    x 1.596800 0.000000 0.000000 
#    y 0.000000 1.601870 0.000000 
#    z 0.000000 0.000000 1.621050 
# 
# From -- ./inp_files/44444.got.cif
#   From: 2010.05.17/outbox.cif.g08.bks.cpg/sg67_23_cif.got.tgz:44444.got - 2010.06.03 18:28:57.
