data_PCOD9502555
_publ_section_title
;
Structure prediction by ZEFSAII (Michael W. Deem and Ramdas Pophale) SiO2 
 PCOD9502555
Probable space group: C M M A
;
_chemical_formula_sum "Si O2"
_cell_formula_units_Z 96
_cell_length_a 31.623949
_cell_length_b 8.887607
_cell_length_c 19.832727
_cell_angle_alpha 90.000000
_cell_angle_beta 90.000000
_cell_angle_gamma 90.000000
_cell_volume 5574.210655
_symmetry_space_group_name_H-M "C M M A"
_symmetry_group_IT_number 67
_symmetry_cell_setting 'orthorhombic'
loop_
_space_group_symop_operation_xyz
x,y,z
-x,1/2-y,z
x,-y,-z
-x,1/2+y,-z
-x,-y,-z
x,1/2+y,-z
-x,y,z
x,1/2-y,z
1/2+x,1/2+y,z
1/2-x,-y,z
1/2+x,1/2-y,-z
1/2-x,y,-z
1/2-x,1/2-y,-z
1/2+x,y,-z
1/2-x,1/2+y,z
1/2+x,-y,z
loop_
_atom_site_type_symbol
_atom_site_label
_atom_site_fract_x
_atom_site_fract_y
_atom_site_fract_z
Si Si1 0.114754 0.432195 0.677127
Si Si2 0.792708 0.422097 0.666761
Si Si3 0.549912 0.428892 0.573055
Si Si4 0.793654 0.575828 0.169027
Si Si5 0.950905 0.570299 0.074133
Si Si6 0.617561 0.430098 0.826113
O O1 0.115049 0.250000 0.681802
O O2 0.160888 0.482802 0.648948
O O3 0.078166 0.490825 0.628991
O O4 0.110431 0.500735 0.751725
O O5 0.790881 0.250000 0.645165
O O6 0.750000 0.500000 0.642853
O O7 0.792330 0.426024 0.748841
O O8 0.559004 0.500000 0.500000
O O9 0.500000 0.451909 0.586655
O O10 0.557921 0.250000 0.572153
O O11 0.796210 0.750000 0.148284
O O12 0.750000 0.500000 0.145594
O O13 0.836136 0.487291 0.150181
O O14 0.943951 0.750000 0.072100
O O15 0.918506 0.493039 0.124995
O O16 0.000000 0.544370 0.094026
O O17 0.945317 0.500000 0.000000
O O18 0.616953 0.250000 0.823136
#
# Coordination Sequence:
#
# PCOD9502555 Si02
#       6
#    16  16  16  16  16  16
#     4  10  20  34  52  77 107 137 172 215 260 304
#     4   8  15  26  43  68  98 131 165 202 246 296
#     4  10  21  37  56  77 101 133 172 211 256 313
#     4   9  16  28  46  71 103 137 173 212 256 305
#     4  10  21  38  58  78 102 135 174 215 261 314
#     4  11  21  33  52  79 109 140 175 216 261 307
#
# _framework density 17.222169999999998
#
# number of rings (size 3 to 8) (size 9 to 14) (size 15 to 20)
#    0.000    2.333    0.000    4.500    0.000    7.333 
#    0.000    0.000    0.000    1.000    0.000    7.000 
#    0.000    0.000    0.000    0.000    0.000    0.000 
#
# Total GULP energy -267668.080875 kJ/mol
# GULP energy per Si atom -5576.418352 kJ/mol
# Density = 1.718297 g / cm^3
# Si number density = 17.222170 Si / 1000 Ang^3
#
#
#
# Elastic Constant Matrix: (Units=GPa)
#
#
# Indices 1 2 3 4 5 6 
#
# 1 149.5108 92.2018 78.5905 0.0000 0.0000 0.0000
# 2 92.2018 130.5582 50.9741 0.0000 0.0000 0.0000
# 3 78.5905 50.9741 59.2350 0.0000 0.0000 0.0000
# 4 0.0000 0.0000 0.0000 24.5131 0.0000 0.0000
# 5 0.0000 0.0000 0.0000 0.0000 -15.2878 0.0000
# 6 0.0000 0.0000 0.0000 0.0000 0.0000 34.0192
#
#
#
# Elastic Compliance Matrix: (Units=1/GPa)
#
#
# Indices 1 2 3 4 5 6 
#
# 1 0.026126 -0.007405 -0.028291 0.000000 0.000000 0.000000
# 2 -0.007405 0.013634 -0.001908 0.000000 0.000000 0.000000
# 3 -0.028291 -0.001908 0.056059 0.000000 0.000000 0.000000
# 4 0.000000 0.000000 0.000000 0.040794 0.000000 0.000000
# 5 0.000000 0.000000 0.000000 0.000000 -0.065412 0.000000
# 6 0.000000 0.000000 0.000000 0.000000 0.000000 0.029395
#
#
# Mechanical properties :
#
#
# Convention : Reuss Voigt Hill
#
# Bulk Modulus (GPa) = 48.51667 86.98187 67.74927
# Shear Modulus (GPa) = 27.37113 16.48473 21.92793
#
# Velocity S-wave (km/s) = 3.99092 3.09719 3.57212
# Velocity P-wave (km/s) = 7.03341 7.96276 7.51247
#
# Compressibility (1/GPa) = 0.02061147
#
# Stress axis : x y z
#
# Youngs Moduli (GPa) = 38.27584 73.34722 17.83845
#
# Poissons Ratio (x) = 0.54314 0.50466
# Poissons Ratio (y) = 0.28343 0.03403
# Poissons Ratio (z) = 1.08285 0.13993
#
# Static dielectric constant tensor:
#      x y z
#    x 1.598190 0.000000 0.000000 
#    y 0.000000 1.578960 0.000000 
#    z 0.000000 0.000000 1.550080 
# 
# From -- ./inp_files/39852.got.cif
#   From: 2010.05.17/outbox.cif.g08.bks.cpg/sg67_20_cif.got.tgz:39852.got - 2010.06.03 18:28:57.
