data_PCOD9502845
_publ_section_title
;
Structure prediction by ZEFSAII (Michael W. Deem and Ramdas Pophale) SiO2 
 PCOD9502845
Probable space group: C M M A
;
_chemical_formula_sum "Si O2"
_cell_formula_units_Z 96
_cell_length_a 20.363095
_cell_length_b 8.709492
_cell_length_c 30.838831
_cell_angle_alpha 90.000000
_cell_angle_beta 90.000000
_cell_angle_gamma 90.000000
_cell_volume 5469.334924
_symmetry_space_group_name_H-M "C M M A"
_symmetry_group_IT_number 67
_symmetry_cell_setting 'orthorhombic'
loop_
_space_group_symop_operation_xyz
x,y,z
-x,1/2-y,z
x,-y,-z
-x,1/2+y,-z
-x,-y,-z
x,1/2+y,-z
-x,y,z
x,1/2-y,z
1/2+x,1/2+y,z
1/2-x,-y,z
1/2+x,1/2-y,-z
1/2-x,y,-z
1/2-x,1/2-y,-z
1/2+x,y,-z
1/2-x,1/2+y,z
1/2+x,-y,z
loop_
_atom_site_type_symbol
_atom_site_label
_atom_site_fract_x
_atom_site_fract_y
_atom_site_fract_z
Si Si1 0.576338 0.933865 0.047398
Si Si2 0.321633 0.435013 0.216021
Si Si3 0.923956 0.064890 0.710761
Si Si4 0.321493 0.433373 0.452296
Si Si5 0.423130 0.066566 0.616211
Si Si6 0.822169 0.434357 0.883627
O O1 0.500000 0.974662 0.056149
O O2 0.581641 0.750000 0.046437
O O3 0.624137 0.001263 0.083564
O O4 0.593113 0.000000 0.000000
O O5 0.318674 0.250000 0.217041
O O6 0.250000 0.500000 0.226888
O O7 0.375880 0.484724 0.250724
O O8 0.337174 0.479706 0.166335
O O9 0.919230 0.250000 0.706210
O O10 0.000000 0.027936 0.720689
O O11 0.906998 0.988894 0.664837
O O12 0.336693 0.500000 0.500000
O O13 0.317849 0.250000 0.454529
O O14 0.250000 0.500000 0.439903
O O15 0.375959 0.486542 0.418231
O O16 0.500000 0.027808 0.608511
O O17 0.416031 0.250000 0.613186
O O18 0.820532 0.250000 0.886076
O O19 0.750000 0.500000 0.893962
#
# Coordination Sequence:
#
# PCOD9502845 Si02
#       6
#    16  16  16  16  16  16
#     4  10  21  37  56  79 107 138 174 217 264 315
#     4   9  19  34  53  77 105 138 174 216 263 313
#     4   9  18  34  54  76 104 139 179 220 263 312
#     4  11  22  38  59  82 110 142 178 220 267 318
#     4  10  21  37  56  80 110 143 181 223 266 314
#     4  10  20  35  55  79 108 141 178 219 264 314
#
# _framework density 17.552408
#
# number of rings (size 3 to 8) (size 9 to 14) (size 15 to 20)
#    0.000    2.167    0.000    3.500    0.000    5.333 
#    0.000    5.000    0.000    2.000    0.000    0.000 
#    0.000    0.000    0.000    0.000    0.000    0.000 
#
# Total GULP energy -267986.910309 kJ/mol
# GULP energy per Si atom -5583.060631 kJ/mol
# Density = 1.751246 g / cm^3
# Si number density = 17.552408 Si / 1000 Ang^3
#
#
#
# Elastic Constant Matrix: (Units=GPa)
#
#
# Indices 1 2 3 4 5 6 
#
# 1 127.9930 59.4740 125.0511 0.0000 0.0000 0.0000
# 2 59.4740 72.9280 61.5752 0.0000 0.0000 0.0000
# 3 125.0511 61.5752 143.6881 0.0000 0.0000 0.0000
# 4 0.0000 0.0000 0.0000 27.7519 0.0000 0.0000
# 5 0.0000 0.0000 0.0000 0.0000 45.0236 0.0000
# 6 0.0000 0.0000 0.0000 0.0000 0.0000 30.5225
#
#
#
# Elastic Compliance Matrix: (Units=1/GPa)
#
#
# Indices 1 2 3 4 5 6 
#
# 1 0.054297 -0.006866 -0.044312 0.000000 0.000000 0.000000
# 2 -0.006866 0.022355 -0.003604 0.000000 0.000000 0.000000
# 3 -0.044312 -0.003604 0.047068 0.000000 0.000000 0.000000
# 4 0.000000 0.000000 0.000000 0.036034 0.000000 0.000000
# 5 0.000000 0.000000 0.000000 0.000000 0.022211 0.000000
# 6 0.000000 0.000000 0.000000 0.000000 0.000000 0.032763
#
#
# Mechanical properties :
#
#
# Convention : Reuss Voigt Hill
#
# Bulk Modulus (GPa) = 70.64357 92.97886 81.81122
# Shear Modulus (GPa) = 15.19716 27.22685 21.21200
#
# Velocity S-wave (km/s) = 2.94567 3.94277 3.48011
# Velocity P-wave (km/s) = 7.20443 8.59153 7.92837
#
# Compressibility (1/GPa) = 0.01415557
#
# Stress axis : x y z
#
# Youngs Moduli (GPa) = 18.41738 44.73326 21.24574
#
# Poissons Ratio (x) = 0.30714 0.94143
# Poissons Ratio (y) = 0.12646 0.07657
# Poissons Ratio (z) = 0.81610 0.16123
#
# Static dielectric constant tensor:
#      x y z
#    x 1.574530 0.000000 0.000000 
#    y 0.000000 1.590120 0.000000 
#    z 0.000000 0.000000 1.573120 
# 
# From -- ./inp_files/43448.got.cif
#   From: 2010.05.17/outbox.cif.g08.bks.cpg/sg67_22_cif.got.tgz:43448.got - 2010.06.03 18:28:57.
