data_PCOD9502959
_publ_section_title
;
Structure prediction by ZEFSAII (Michael W. Deem and Ramdas Pophale) SiO2 
 PCOD9502959
Probable space group: C M M A
;
_chemical_formula_sum "Si O2"
_cell_formula_units_Z 80
_cell_length_a 14.925300
_cell_length_b 10.432034
_cell_length_c 28.513901
_cell_angle_alpha 90.000000
_cell_angle_beta 90.000000
_cell_angle_gamma 90.000000
_cell_volume 4439.649659
_symmetry_space_group_name_H-M "C M M A"
_symmetry_group_IT_number 67
_symmetry_cell_setting 'orthorhombic'
loop_
_space_group_symop_operation_xyz
x,y,z
-x,1/2-y,z
x,-y,-z
-x,1/2+y,-z
-x,-y,-z
x,1/2+y,-z
-x,y,z
x,1/2-y,z
1/2+x,1/2+y,z
1/2-x,-y,z
1/2+x,1/2-y,-z
1/2-x,y,-z
1/2-x,1/2-y,-z
1/2+x,y,-z
1/2-x,1/2+y,z
1/2+x,-y,z
loop_
_atom_site_type_symbol
_atom_site_label
_atom_site_fract_x
_atom_site_fract_y
_atom_site_fract_z
Si Si1 0.000000 0.095671 0.794420
Si Si2 0.828483 0.901570 0.144031
Si Si3 0.141904 0.493284 0.612587
Si Si4 0.856715 0.250000 0.549330
Si Si5 0.391617 0.605792 0.962837
Si Si6 0.360332 0.250000 0.557476
Si Si7 0.000000 0.906428 0.313875
O O1 0.912517 0.060419 0.823823
O O2 0.000000 0.250000 0.793305
O O3 0.000000 0.054246 0.740524
O O4 0.807747 0.750000 0.152077
O O5 0.854329 0.913972 0.089239
O O6 0.750000 0.000000 0.154494
O O7 0.250000 0.500000 0.620180
O O8 0.118342 0.377366 0.577362
O O9 0.115262 0.624585 0.586896
O O10 0.086588 0.462642 0.659298
O O11 0.747956 0.250000 0.551190
O O12 0.891688 0.250000 0.496311
O O13 0.500000 0.599272 0.959513
O O14 0.368111 0.750000 0.978460
O O15 0.361679 0.500000 0.000000
O O16 0.000000 0.750000 0.317227
#
# Coordination Sequence:
#
# PCOD9502959 Si02
#       7
#     8  16  16   8  16   8   8
#     4   9  20  40  63  80 105 149 192 236 289 348
#     4  10  20  37  61  86 114 148 193 238 283 339
#     4  10  20  35  57  84 114 148 187 229 273 332
#     4   9  16  33  55  83 116 153 187 218 263 339
#     4   9  17  31  53  82 116 156 192 226 272 332
#     4   9  18  31  55  83 118 153 179 220 283 323
#     4  11  22  39  62  84 108 145 193 235 286 345
#
# _framework density 18.019439999999999
#
# number of rings (size 3 to 8) (size 9 to 14) (size 15 to 20)
#    0.000    2.400    2.000    0.600    0.000    4.800 
#    0.000    5.500    4.400    0.000    0.000    0.000 
#    0.000    0.000    0.000    0.000    0.000    0.000 
#
# Total GULP energy -223178.017683 kJ/mol
# GULP energy per Si atom -5579.450442 kJ/mol
# Density = 1.797843 g / cm^3
# Si number density = 18.019440 Si / 1000 Ang^3
#
#
#
# Elastic Constant Matrix: (Units=GPa)
#
#
# Indices 1 2 3 4 5 6 
#
# 1 102.7318 63.1550 67.1000 0.0000 0.0000 0.0000
# 2 63.1550 137.9455 85.4949 0.0000 0.0000 0.0000
# 3 67.1000 85.4949 144.6216 0.0000 0.0000 0.0000
# 4 0.0000 0.0000 0.0000 15.4048 0.0000 0.0000
# 5 0.0000 0.0000 0.0000 0.0000 -17.5606 0.0000
# 6 0.0000 0.0000 0.0000 0.0000 0.0000 17.8375
#
#
#
# Elastic Compliance Matrix: (Units=1/GPa)
#
#
# Indices 1 2 3 4 5 6 
#
# 1 0.015317 -0.004116 -0.004673 0.000000 0.000000 0.000000
# 2 -0.004116 0.012547 -0.005508 0.000000 0.000000 0.000000
# 3 -0.004673 -0.005508 0.012339 0.000000 0.000000 0.000000
# 4 0.000000 0.000000 0.000000 0.064915 0.000000 0.000000
# 5 0.000000 0.000000 0.000000 0.000000 -0.056946 0.000000
# 6 0.000000 0.000000 0.000000 0.000000 0.000000 0.056062
#
#
# Mechanical properties :
#
#
# Convention : Reuss Voigt Hill
#
# Bulk Modulus (GPa) = 86.14197 90.75540 88.44869
# Shear Modulus (GPa) = 36.57709 14.43960 25.50834
#
# Velocity S-wave (km/s) = 4.51029 2.83386 3.76653
# Velocity P-wave (km/s) = 8.66213 7.82191 8.25272
#
# Compressibility (1/GPa) = 0.01160874
#
# Stress axis : x y z
#
# Youngs Moduli (GPa) = 65.28757 79.69893 81.04506
#
# Poissons Ratio (x) = 0.32805 0.37875
# Poissons Ratio (y) = 0.26873 0.44637
# Poissons Ratio (z) = 0.30511 0.43896
#
# Static dielectric constant tensor:
#      x y z
#    x 1.647810 0.000000 0.000000 
#    y 0.000000 1.601920 0.000000 
#    z 0.000000 0.000000 1.591110 
# 
# From -- ./inp_files/41806.got.cif
#   From: 2010.05.17/outbox.cif.g08.bks.cpg/sg67_21_cif.got.tgz:41806.got - 2010.06.03 18:28:57.
