data_PCOD9502132
_publ_section_title
;
Structure prediction by ZEFSAII (Michael W. Deem and Ramdas Pophale) SiO2 
 PCOD9502132
Probable space group: C M M A
;
_chemical_formula_sum "Si O2"
_cell_formula_units_Z 120
_cell_length_a 32.298757
_cell_length_b 7.425696
_cell_length_c 24.382439
_cell_angle_alpha 90.000000
_cell_angle_beta 90.000000
_cell_angle_gamma 90.000000
_cell_volume 5847.902473
_symmetry_space_group_name_H-M "C M M A"
_symmetry_group_IT_number 67
_symmetry_cell_setting 'orthorhombic'
loop_
_space_group_symop_operation_xyz
x,y,z
-x,1/2-y,z
x,-y,-z
-x,1/2+y,-z
-x,-y,-z
x,1/2+y,-z
-x,y,z
x,1/2-y,z
1/2+x,1/2+y,z
1/2-x,-y,z
1/2+x,1/2-y,-z
1/2-x,y,-z
1/2-x,1/2-y,-z
1/2+x,y,-z
1/2-x,1/2+y,z
1/2+x,-y,z
loop_
_atom_site_type_symbol
_atom_site_label
_atom_site_fract_x
_atom_site_fract_y
_atom_site_fract_z
Si Si1 0.376764 0.034436 0.064330
Si Si2 0.203127 0.034739 0.746475
Si Si3 0.371871 0.470299 0.328066
Si Si4 0.046108 0.469435 0.864023
Si Si5 0.296807 0.965491 0.871544
Si Si6 0.090740 0.034431 0.564172
Si Si7 0.500000 0.464573 0.434732
Si Si8 0.453920 0.469099 0.263529
O O1 0.376736 0.250000 0.071384
O O2 0.416552 0.966536 0.098008
O O3 0.333730 0.966046 0.090245
O O4 0.379707 0.000000 0.000000
O O5 0.197976 0.250000 0.749682
O O6 0.167894 0.966343 0.705672
O O7 0.199099 0.965167 0.808979
O O8 0.250000 0.000000 0.727904
O O9 0.370814 0.250000 0.327010
O O10 0.375923 0.527358 0.391389
O O11 0.414284 0.526472 0.297957
O O12 0.046430 0.250000 0.864742
O O13 0.051399 0.520759 0.800273
O O14 0.000000 0.525941 0.881868
O O15 0.300869 0.750000 0.868866
O O16 0.250000 0.000000 0.890962
O O17 0.088336 0.250000 0.568619
O O18 0.045027 0.965209 0.582096
O O19 0.098283 0.000000 0.500000
O O20 0.500000 0.250000 0.423316
O O21 0.500000 0.500000 0.500000
O O22 0.500000 0.526901 0.282078
O O23 0.454237 0.250000 0.265478
#
# Coordination Sequence:
#
# PCOD9502132 Si02
#       8
#    16  16  16  16  16  16   8  16
#     4  10  20  32  46  66  92 120 151 185 220 260
#     4   9  17  31  50  71  92 114 144 183 229 273
#     4   9  16  25  42  66  92 119 146 184 227 265
#     4   8  14  26  43  63  89 119 148 182 224 266
#     4   9  18  32  50  69  91 118 145 179 224 274
#     4   9  17  28  42  62  90 123 154 183 216 257
#     4   8  14  24  38  56  82 116 150 178 205 242
#     4   8  13  21  38  66  94 116 142 180 226 270
#
# _framework density 20.520178000000001
#
# number of rings (size 3 to 8) (size 9 to 14) (size 15 to 20)
#    0.000    3.200    0.000    1.600    0.933    4.267 
#    0.000    2.000    0.000    0.400    0.000    3.733 
#    0.000    2.133    0.000    0.000    0.000    0.000 
#
# Total GULP energy -334633.386715 kJ/mol
# GULP energy per Si atom -5577.223112 kJ/mol
# Density = 2.047347 g / cm^3
# Si number density = 20.520178 Si / 1000 Ang^3
#
#
#
# Elastic Constant Matrix: (Units=GPa)
#
#
# Indices 1 2 3 4 5 6 
#
# 1 158.9043 1.1365 100.7060 0.0000 0.0000 0.0000
# 2 1.1365 64.9763 -1.2137 0.0000 0.0000 0.0000
# 3 100.7060 -1.2137 109.3102 0.0000 0.0000 0.0000
# 4 0.0000 0.0000 0.0000 7.3407 0.0000 0.0000
# 5 0.0000 0.0000 0.0000 0.0000 23.3175 0.0000
# 6 0.0000 0.0000 0.0000 0.0000 0.0000 -4.3916
#
#
#
# Elastic Compliance Matrix: (Units=1/GPa)
#
#
# Indices 1 2 3 4 5 6 
#
# 1 0.015141 -0.000526 -0.013955 0.000000 0.000000 0.000000
# 2 -0.000526 0.015412 0.000655 0.000000 0.000000 0.000000
# 3 -0.013955 0.000655 0.022012 0.000000 0.000000 0.000000
# 4 0.000000 0.000000 0.000000 0.136227 0.000000 0.000000
# 5 0.000000 0.000000 0.000000 0.000000 0.042886 0.000000
# 6 0.000000 0.000000 0.000000 0.000000 0.000000 -0.227709
#
#
# Mechanical properties :
#
#
# Convention : Reuss Voigt Hill
#
# Bulk Modulus (GPa) = 40.13767 59.38315 49.76041
# Shear Modulus (GPa) = 125.24073 20.75747 72.99910
#
# Velocity S-wave (km/s) = 7.82084 3.18396 5.97089
# Velocity P-wave (km/s) = 10.05766 6.52062 8.47570
#
# Compressibility (1/GPa) = 0.02491425
#
# Stress axis : x y z
#
# Youngs Moduli (GPa) = 66.04701 64.88592 45.42997
#
# Poissons Ratio (x) = 0.03410 0.63397
# Poissons Ratio (y) = 0.03471 -0.02977
# Poissons Ratio (z) = 0.92167 -0.04252
#
# Static dielectric constant tensor:
#      x y z
#    x 1.724540 0.000000 0.000000 
#    y 0.000000 1.794870 0.000000 
#    z 0.000000 0.000000 1.716120 
# 
# From -- ./inp_files/38112.got.cif
#   From: 2010.05.17/outbox.cif.g08.bks.cpg/sg67_20_cif.got.tgz:38112.got - 2010.06.03 18:28:57.
