data_PCOD9502130
_publ_section_title
;
Structure prediction by ZEFSAII (Michael W. Deem and Ramdas Pophale) SiO2 
 PCOD9502130
Probable space group: C M M A
;
_chemical_formula_sum "Si O2"
_cell_formula_units_Z 96
_cell_length_a 28.016899
_cell_length_b 8.682714
_cell_length_c 25.028164
_cell_angle_alpha 90.000000
_cell_angle_beta 90.000000
_cell_angle_gamma 90.000000
_cell_volume 6088.419281
_symmetry_space_group_name_H-M "C M M A"
_symmetry_group_IT_number 67
_symmetry_cell_setting 'orthorhombic'
loop_
_space_group_symop_operation_xyz
x,y,z
-x,1/2-y,z
x,-y,-z
-x,1/2+y,-z
-x,-y,-z
x,1/2+y,-z
-x,y,z
x,1/2-y,z
1/2+x,1/2+y,z
1/2-x,-y,z
1/2+x,1/2-y,-z
1/2-x,y,-z
1/2-x,1/2-y,-z
1/2+x,y,-z
1/2-x,1/2+y,z
1/2+x,-y,z
loop_
_atom_site_type_symbol
_atom_site_label
_atom_site_fract_x
_atom_site_fract_y
_atom_site_fract_z
Si Si1 0.198964 0.565858 0.885031
Si Si2 0.696372 0.435855 0.328385
Si Si3 0.850508 0.563670 0.218745
Si Si4 0.695994 0.934388 0.554213
Si Si5 0.101244 0.934279 0.941951
Si Si6 0.553314 0.064106 0.162172
O O1 0.201344 0.750000 0.882810
O O2 0.250000 0.500000 0.901510
O O3 0.184464 0.502177 0.826676
O O4 0.155231 0.521577 0.923955
O O5 0.699290 0.250000 0.327239
O O6 0.750000 0.500000 0.323244
O O7 0.665513 0.486373 0.277598
O O8 0.676326 0.477938 0.387206
O O9 0.848048 0.750000 0.216517
O O10 0.904034 0.516236 0.201893
O O11 0.697751 0.750000 0.550154
O O12 0.673100 0.000000 0.500000
O O13 0.750000 0.000000 0.555312
O O14 0.098225 0.750000 0.942438
O O15 0.067113 0.999838 0.895927
O O16 0.090357 0.000000 0.000000
O O17 0.500000 0.015241 0.177644
O O18 0.554128 0.250000 0.159659
#
# Coordination Sequence:
#
# PCOD9502130 Si02
#       6
#    16  16  16  16  16  16
#     4  10  20  32  46  65  88 115 144 173 207 245
#     4   9  17  26  38  58  84 114 144 174 206 241
#     4   9  17  30  46  64  87 112 140 175 212 252
#     4   9  15  23  34  50  75 108 144 176 205 236
#     4  10  21  35  50  68  89 112 140 173 207 248
#     4   9  18  33  52  70  87 109 136 169 213 260
#
# _framework density 15.76764
#
# number of rings (size 3 to 8) (size 9 to 14) (size 15 to 20)
#    0.000    2.667    0.000    2.500    0.000    5.667 
#    0.000    1.667    0.000    0.000    0.000    0.000 
#    0.000    0.667    0.000    0.500    0.000    1.333 
#
# Total GULP energy -267449.249282 kJ/mol
# GULP energy per Si atom -5571.859360 kJ/mol
# Density = 1.573175 g / cm^3
# Si number density = 15.767640 Si / 1000 Ang^3
#
#
#
# Elastic Constant Matrix: (Units=GPa)
#
#
# Indices 1 2 3 4 5 6 
#
# 1 62.7032 9.5876 23.4686 0.0000 0.0000 0.0000
# 2 9.5876 15.0907 15.8107 0.0000 0.0000 0.0000
# 3 23.4686 15.8107 121.7939 0.0000 0.0000 0.0000
# 4 0.0000 0.0000 0.0000 2.2753 0.0000 0.0000
# 5 0.0000 0.0000 0.0000 0.0000 9.9293 0.0000
# 6 0.0000 0.0000 0.0000 0.0000 0.0000 12.7876
#
#
#
# Elastic Compliance Matrix: (Units=1/GPa)
#
#
# Indices 1 2 3 4 5 6 
#
# 1 0.018215 -0.009138 -0.002324 0.000000 0.000000 0.000000
# 2 -0.009138 0.081282 -0.008791 0.000000 0.000000 0.000000
# 3 -0.002324 -0.008791 0.009800 0.000000 0.000000 0.000000
# 4 0.000000 0.000000 0.000000 0.439498 0.000000 0.000000
# 5 0.000000 0.000000 0.000000 0.000000 0.100712 0.000000
# 6 0.000000 0.000000 0.000000 0.000000 0.000000 0.078201
#
#
# Mechanical properties :
#
#
# Convention : Reuss Voigt Hill
#
# Bulk Modulus (GPa) = 14.53666 33.03572 23.78619
# Shear Modulus (GPa) = 6.31997 15.04651 10.68324
#
# Velocity S-wave (km/s) = 2.00422 3.09247 2.60579
# Velocity P-wave (km/s) = 3.82036 5.80932 4.91647
#
# Compressibility (1/GPa) = 0.06879160
#
# Stress axis : x y z
#
# Youngs Moduli (GPa) = 54.89954 12.30283 102.04584
#
# Poissons Ratio (x) = 0.11242 0.23712
# Poissons Ratio (y) = 0.50168 0.89707
# Poissons Ratio (z) = 0.12757 0.10815
#
# Static dielectric constant tensor:
#      x y z
#    x 1.515400 0.000000 0.000000 
#    y 0.000000 1.528590 0.000000 
#    z 0.000000 0.000000 1.551830 
# 
# From -- ./inp_files/40909.got.cif
#   From: 2010.05.17/outbox.cif.g08.bks.cpg/sg67_21_cif.got.tgz:40909.got - 2010.06.03 18:28:57.
