data_PCOD9502863
_publ_section_title
;
Structure prediction by ZEFSAII (Michael W. Deem and Ramdas Pophale) SiO2 
 PCOD9502863
Probable space group: C M M A
;
_chemical_formula_sum "Si O2"
_cell_formula_units_Z 80
_cell_length_a 8.760687
_cell_length_b 32.343398
_cell_length_c 15.486315
_cell_angle_alpha 90.000000
_cell_angle_beta 90.000000
_cell_angle_gamma 90.000000
_cell_volume 4388.053339
_symmetry_space_group_name_H-M "C M M A"
_symmetry_group_IT_number 67
_symmetry_cell_setting 'orthorhombic'
loop_
_space_group_symop_operation_xyz
x,y,z
-x,1/2-y,z
x,-y,-z
-x,1/2+y,-z
-x,-y,-z
x,1/2+y,-z
-x,y,z
x,1/2-y,z
1/2+x,1/2+y,z
1/2-x,-y,z
1/2+x,1/2-y,-z
1/2-x,y,-z
1/2-x,1/2-y,-z
1/2+x,y,-z
1/2-x,1/2+y,z
1/2+x,-y,z
loop_
_atom_site_type_symbol
_atom_site_label
_atom_site_fract_x
_atom_site_fract_y
_atom_site_fract_z
Si Si1 0.179793 0.871116 0.589948
Si Si2 0.317716 0.798052 0.095360
Si Si3 0.327511 0.542248 0.609800
Si Si4 0.671095 0.042867 0.182440
Si Si5 0.684056 0.633392 0.779821
O O1 0.250000 0.853900 0.500000
O O2 0.218307 0.919891 0.588429
O O3 0.254559 0.859330 0.682238
O O4 0.000000 0.863474 0.591915
O O5 0.500000 0.804523 0.094495
O O6 0.288996 0.750000 0.118608
O O7 0.238761 0.829262 0.161059
O O8 0.250000 0.804628 0.000000
O O9 0.500000 0.548498 0.576677
O O10 0.250000 0.500000 0.584250
O O11 0.339744 0.539774 0.713598
O O12 0.500000 0.043623 0.145536
O O13 0.739608 0.089497 0.177194
O O14 0.750000 0.000000 0.152935
O O15 0.500000 0.630433 0.775132
#
# Coordination Sequence:
#
# PCOD9502863 Si02
#       5
#    16  16  16  16  16
#     4  11  21  33  48  69 100 140 185 230 274 322
#     4  10  21  38  62  92 120 144 173 214 269 331
#     4   9  16  27  41  61  90 128 176 229 281 327
#     4   8  15  26  43  68 100 138 180 223 265 313
#     4  10  20  35  55  81 112 147 186 227 275 329
#
# _framework density 18.231318999999999
#
# number of rings (size 3 to 8) (size 9 to 14) (size 15 to 20)
#    0.000    2.400    0.000    4.800    0.000    7.200 
#    0.000    2.000    0.000    1.200    0.000    4.200 
#    0.000    0.000    0.000    0.000    0.000    0.000 
#
# Total GULP energy -222788.664732 kJ/mol
# GULP energy per Si atom -5569.716618 kJ/mol
# Density = 1.818982 g / cm^3
# Si number density = 18.231319 Si / 1000 Ang^3
#
#
#
# Elastic Constant Matrix: (Units=GPa)
#
#
# Indices 1 2 3 4 5 6 
#
# 1 95.6976 48.8357 35.4777 0.0000 0.0000 0.0000
# 2 48.8357 98.5748 70.7742 0.0000 0.0000 0.0000
# 3 35.4777 70.7742 69.9867 0.0000 0.0000 0.0000
# 4 0.0000 0.0000 0.0000 -30.7123 0.0000 0.0000
# 5 0.0000 0.0000 0.0000 0.0000 25.5753 0.0000
# 6 0.0000 0.0000 0.0000 0.0000 0.0000 24.1738
#
#
#
# Elastic Compliance Matrix: (Units=1/GPa)
#
#
# Indices 1 2 3 4 5 6 
#
# 1 0.013987 -0.006712 -0.000303 0.000000 0.000000 0.000000
# 2 -0.006712 0.040252 -0.037303 0.000000 0.000000 0.000000
# 3 -0.000303 -0.037303 0.052164 0.000000 0.000000 0.000000
# 4 0.000000 0.000000 0.000000 -0.032560 0.000000 0.000000
# 5 0.000000 0.000000 0.000000 0.000000 0.039100 0.000000
# 6 0.000000 0.000000 0.000000 0.000000 0.000000 0.041367
#
#
# Mechanical properties :
#
#
# Convention : Reuss Voigt Hill
#
# Bulk Modulus (GPa) = 56.27893 63.82602 60.05248
# Shear Modulus (GPa) = 20.09093 11.08544 15.58819
#
# Velocity S-wave (km/s) = 3.32324 2.46853 2.92725
# Velocity P-wave (km/s) = 6.75734 6.57342 6.66601
#
# Compressibility (1/GPa) = 0.01776864
#
# Stress axis : x y z
#
# Youngs Moduli (GPa) = 71.49454 24.84335 19.17022
#
# Poissons Ratio (x) = 0.16675 0.00580
# Poissons Ratio (y) = 0.47988 0.71510
# Poissons Ratio (z) = 0.02164 0.92672
#
# Static dielectric constant tensor:
#      x y z
#    x 1.635500 0.000000 0.000000 
#    y 0.000000 1.628440 0.000000 
#    z 0.000000 0.000000 1.653090 
# 
# From -- ./inp_files/32298.got.cif
#   From: 2010.05.17/outbox.cif.g08.bks.cpg/sg67_17_cif.got.tgz:32298.got - 2010.06.03 18:28:57.
