data_PCOD9502964
_publ_section_title
;
Structure prediction by ZEFSAII (Michael W. Deem and Ramdas Pophale) SiO2 
 PCOD9502964
Probable space group: C M M A
;
_chemical_formula_sum "Si O2"
_cell_formula_units_Z 72
_cell_length_a 9.596572
_cell_length_b 14.557373
_cell_length_c 24.050359
_cell_angle_alpha 90.000000
_cell_angle_beta 90.000000
_cell_angle_gamma 90.000000
_cell_volume 3359.856272
_symmetry_space_group_name_H-M "C M M A"
_symmetry_group_IT_number 67
_symmetry_cell_setting 'orthorhombic'
loop_
_space_group_symop_operation_xyz
x,y,z
-x,1/2-y,z
x,-y,-z
-x,1/2+y,-z
-x,-y,-z
x,1/2+y,-z
-x,y,z
x,1/2-y,z
1/2+x,1/2+y,z
1/2-x,-y,z
1/2+x,1/2-y,-z
1/2-x,y,-z
1/2-x,1/2-y,-z
1/2+x,y,-z
1/2-x,1/2+y,z
1/2+x,-y,z
loop_
_atom_site_type_symbol
_atom_site_label
_atom_site_fract_x
_atom_site_fract_y
_atom_site_fract_z
Si Si1 0.152394 0.349880 0.273473
Si Si2 0.159240 0.855554 0.446824
Si Si3 0.835525 0.405187 0.825266
Si Si4 0.831961 0.901895 0.051431
Si Si5 0.750000 0.000000 0.356789
O O1 0.160700 0.250000 0.301931
O O2 0.271200 0.353787 0.227107
O O3 0.164193 0.433786 0.315893
O O4 0.000000 0.355558 0.245813
O O5 0.196426 0.750000 0.430785
O O6 0.250000 0.882105 0.500000
O O7 0.000000 0.854944 0.465097
O O8 0.174490 0.927631 0.397075
O O9 0.750000 0.500000 0.825216
O O10 0.817195 0.361418 0.886579
O O11 0.000000 0.420953 0.818048
O O12 0.000000 0.911013 0.041018
O O13 0.750000 0.000000 0.055661
O O14 0.750000 0.856114 0.000000
#
# Coordination Sequence:
#
# PCOD9502964 Si02
#       5
#    16  16  16  16   8
#     4  11  25  42  61  89 125 165 211 263 318 375
#     4  10  23  43  67  97 132 169 209 252 303 362
#     4  10  20  35  57  84 118 160 206 256 313 378
#     4   9  16  26  45  77 112 149 194 247 306 369
#     4  12  23  40  68  96 125 166 210 260 306 370
#
# _framework density 21.429487999999999
#
# number of rings (size 3 to 8) (size 9 to 14) (size 15 to 20)
#    0.000    1.778    1.111    3.667    0.000    6.667 
#    0.000    2.222    0.000    0.667    0.000    0.000 
#    0.000    0.000    0.000    0.000    0.000    0.000 
#
# Total GULP energy -200704.269646 kJ/mol
# GULP energy per Si atom -5575.118601 kJ/mol
# Density = 2.138071 g / cm^3
# Si number density = 21.429488 Si / 1000 Ang^3
#
#
#
# Elastic Constant Matrix: (Units=GPa)
#
#
# Indices 1 2 3 4 5 6 
#
# 1 151.8965 37.3091 72.1495 0.0000 0.0000 0.0000
# 2 37.3091 125.0604 48.4628 0.0000 0.0000 0.0000
# 3 72.1495 48.4628 127.2412 0.0000 0.0000 0.0000
# 4 0.0000 0.0000 0.0000 -32.3440 0.0000 0.0000
# 5 0.0000 0.0000 0.0000 0.0000 25.8823 0.0000
# 6 0.0000 0.0000 0.0000 0.0000 0.0000 58.0585
#
#
#
# Elastic Compliance Matrix: (Units=1/GPa)
#
#
# Indices 1 2 3 4 5 6 
#
# 1 0.009084 -0.000838 -0.004832 0.000000 0.000000 0.000000
# 2 -0.000838 0.009458 -0.003127 0.000000 0.000000 0.000000
# 3 -0.004832 -0.003127 0.011790 0.000000 0.000000 0.000000
# 4 0.000000 0.000000 0.000000 -0.030918 0.000000 0.000000
# 5 0.000000 0.000000 0.000000 0.000000 0.038636 0.000000
# 6 0.000000 0.000000 0.000000 0.000000 0.000000 0.017224
#
#
# Mechanical properties :
#
#
# Convention : Reuss Voigt Hill
#
# Bulk Modulus (GPa) = 78.50288 80.00453 79.25371
# Shear Modulus (GPa) = 64.83792 26.73781 45.78787
#
# Velocity S-wave (km/s) = 5.50655 3.53613 4.62743
# Velocity P-wave (km/s) = 8.78306 7.35440 8.10029
#
# Compressibility (1/GPa) = 0.01273839
#
# Stress axis : x y z
#
# Youngs Moduli (GPa) = 110.07932 105.73166 84.81677
#
# Poissons Ratio (x) = 0.08856 0.40984
# Poissons Ratio (y) = 0.09220 0.26525
# Poissons Ratio (z) = 0.53191 0.33066
#
# Static dielectric constant tensor:
#      x y z
#    x 1.738230 0.000000 0.000000 
#    y 0.000000 1.819920 0.000000 
#    z 0.000000 0.000000 1.795580 
# 
# From -- ./inp_files/43090.got.cif
#   From: 2010.05.17/outbox.cif.g08.bks.cpg/sg67_22_cif.got.tgz:43090.got - 2010.06.03 18:28:57.
