data_PCOD9502394
_publ_section_title
;
Structure prediction by ZEFSAII (Michael W. Deem and Ramdas Pophale) SiO2 
 PCOD9502394
Probable space group: C M M A
;
_chemical_formula_sum "Si O2"
_cell_formula_units_Z 72
_cell_length_a 8.488098
_cell_length_b 32.171175
_cell_length_c 14.760177
_cell_angle_alpha 90.000000
_cell_angle_beta 90.000000
_cell_angle_gamma 90.000000
_cell_volume 4030.592326
_symmetry_space_group_name_H-M "C M M A"
_symmetry_group_IT_number 67
_symmetry_cell_setting 'orthorhombic'
loop_
_space_group_symop_operation_xyz
x,y,z
-x,1/2-y,z
x,-y,-z
-x,1/2+y,-z
-x,-y,-z
x,1/2+y,-z
-x,y,z
x,1/2-y,z
1/2+x,1/2+y,z
1/2-x,-y,z
1/2+x,1/2-y,-z
1/2-x,y,-z
1/2-x,1/2-y,-z
1/2+x,y,-z
1/2-x,1/2+y,z
1/2+x,-y,z
loop_
_atom_site_type_symbol
_atom_site_label
_atom_site_fract_x
_atom_site_fract_y
_atom_site_fract_z
Si Si1 0.687211 0.045397 0.898576
Si Si2 0.309516 0.703588 0.897045
Si Si3 0.309850 0.658641 0.601998
Si Si4 0.310196 0.750000 0.603022
Si Si5 0.809105 0.122340 0.784600
O O1 0.500000 0.044084 0.901859
O O2 0.743948 0.081850 0.833250
O O3 0.750000 0.000000 0.871014
O O4 0.750000 0.053709 0.000000
O O5 0.500000 0.703275 0.897119
O O6 0.260702 0.750000 0.864622
O O7 0.258028 0.664206 0.837849
O O8 0.250000 0.698998 0.000000
O O9 0.500000 0.658673 0.597810
O O10 0.250000 0.651981 0.500000
O O11 0.259506 0.704791 0.637078
O O12 0.260379 0.626744 0.679638
O O13 0.500000 0.750000 0.607219
O O14 0.250000 0.750000 0.500000
O O15 0.000000 0.121179 0.787848
#
# Coordination Sequence:
#
# PCOD9502394 Si02
#       5
#    16  16  16   8  16
#     4  11  22  38  60  84 110 137 169 213 264 319
#     4   9  18  31  47  68  99 138 176 212 252 303
#     4   9  18  31  49  72 103 140 181 225 267 311
#     4   8  14  26  44  66  93 132 177 220 263 302
#     4  10  20  33  52  78 106 140 179 219 264 316
#
# _framework density 17.863378000000001
#
# number of rings (size 3 to 8) (size 9 to 14) (size 15 to 20)
#    0.000    2.444    0.000    3.333    1.556    3.556 
#    0.000    0.000    0.000    0.667    0.000    4.667 
#    0.000    0.000    0.000    0.000    0.000    0.000 
#
# Total GULP energy -200719.863504 kJ/mol
# GULP energy per Si atom -5575.551764 kJ/mol
# Density = 1.782272 g / cm^3
# Si number density = 17.863378 Si / 1000 Ang^3
#
#
#
# Elastic Constant Matrix: (Units=GPa)
#
#
# Indices 1 2 3 4 5 6 
#
# 1 41.5057 41.3111 32.9510 0.0000 0.0000 0.0000
# 2 41.3111 148.7978 105.7333 0.0000 0.0000 0.0000
# 3 32.9510 105.7333 115.5952 0.0000 0.0000 0.0000
# 4 0.0000 0.0000 0.0000 27.8272 0.0000 0.0000
# 5 0.0000 0.0000 0.0000 0.0000 18.4375 0.0000
# 6 0.0000 0.0000 0.0000 0.0000 0.0000 20.5674
#
#
#
# Elastic Compliance Matrix: (Units=1/GPa)
#
#
# Indices 1 2 3 4 5 6 
#
# 1 0.033651 -0.007218 -0.002991 0.000000 0.000000 0.000000
# 2 -0.007218 0.020747 -0.016920 0.000000 0.000000 0.000000
# 3 -0.002991 -0.016920 0.024980 0.000000 0.000000 0.000000
# 4 0.000000 0.000000 0.000000 0.035936 0.000000 0.000000
# 5 0.000000 0.000000 0.000000 0.000000 0.054237 0.000000
# 6 0.000000 0.000000 0.000000 0.000000 0.000000 0.048621
#
#
# Mechanical properties :
#
#
# Convention : Reuss Voigt Hill
#
# Bulk Modulus (GPa) = 39.80571 73.98772 56.89672
# Shear Modulus (GPa) = 17.80611 21.75996 19.78303
#
# Velocity S-wave (km/s) = 3.16063 3.49396 3.33147
# Velocity P-wave (km/s) = 5.97086 7.60168 6.83509
#
# Compressibility (1/GPa) = 0.02512203
#
# Stress axis : x y z
#
# Youngs Moduli (GPa) = 29.71677 48.19873 40.03230
#
# Poissons Ratio (x) = 0.34788 0.11972
# Poissons Ratio (y) = 0.21448 0.67735
# Poissons Ratio (z) = 0.08887 0.81552
#
# Static dielectric constant tensor:
#      x y z
#    x 1.626590 0.000000 0.000000 
#    y 0.000000 1.620010 0.000000 
#    z 0.000000 0.000000 1.602950 
# 
# From -- ./inp_files/25076.got.cif
#   From: 2010.05.17/outbox.cif.g08.bks.cpg/sg67_13_cif.got.tgz:25076.got - 2010.06.03 18:28:57.
