data_PCOD9502395
_publ_section_title
;
Structure prediction by ZEFSAII (Michael W. Deem and Ramdas Pophale) SiO2 
 PCOD9502395
Probable space group: C M M A
;
_chemical_formula_sum "Si O2"
_cell_formula_units_Z 88
_cell_length_a 25.442376
_cell_length_b 8.639855
_cell_length_c 22.558383
_cell_angle_alpha 90.000000
_cell_angle_beta 90.000000
_cell_angle_gamma 90.000000
_cell_volume 4958.748549
_symmetry_space_group_name_H-M "C M M A"
_symmetry_group_IT_number 67
_symmetry_cell_setting 'orthorhombic'
loop_
_space_group_symop_operation_xyz
x,y,z
-x,1/2-y,z
x,-y,-z
-x,1/2+y,-z
-x,-y,-z
x,1/2+y,-z
-x,y,z
x,1/2-y,z
1/2+x,1/2+y,z
1/2-x,-y,z
1/2+x,1/2-y,-z
1/2-x,y,-z
1/2-x,1/2-y,-z
1/2+x,y,-z
1/2-x,1/2+y,z
1/2+x,-y,z
loop_
_atom_site_type_symbol
_atom_site_label
_atom_site_fract_x
_atom_site_fract_y
_atom_site_fract_z
Si Si1 0.807258 0.064263 0.159907
Si Si2 0.000000 0.436545 0.565955
Si Si3 0.914017 0.936819 0.338842
Si Si4 0.193114 0.065224 0.297578
Si Si5 0.000000 0.061430 0.892327
Si Si6 0.500000 0.938286 0.756196
Si Si7 0.113271 0.564358 0.063323
O O1 0.807364 0.250000 0.156629
O O2 0.816058 0.017900 0.228637
O O3 0.750000 0.000000 0.142928
O O4 0.850631 0.995871 0.116447
O O5 0.000000 0.500000 0.500000
O O6 0.051206 0.483589 0.604293
O O7 0.000000 0.250000 0.564337
O O8 0.911090 0.750000 0.338224
O O9 0.948714 0.985266 0.281434
O O10 0.856001 0.004248 0.334876
O O11 0.194962 0.250000 0.299769
O O12 0.250000 0.000000 0.315477
O O13 0.946621 0.011838 0.924183
O O14 0.000000 0.250000 0.891540
O O15 0.000000 0.008637 0.823808
O O16 0.500000 0.750000 0.756751
O O17 0.114624 0.750000 0.062500
O O18 0.131022 0.500000 0.000000
#
# Coordination Sequence:
#
# PCOD9502395 Si02
#       7
#    16   8  16  16   8   8  16
#     4  10  21  37  55  77 102 129 165 208 256 310
#     4   9  19  34  54  81 112 149 185 219 256 295
#     4   9  17  31  52  78 108 140 176 212 250 299
#     4  10  20  33  52  78 107 137 168 207 257 308
#     4   9  18  31  50  74  98 127 162 200 250 307
#     4   8  14  27  49  75 100 128 162 203 251 304
#     4  11  22  36  53  72  96 129 168 210 256 308
#
# _framework density 17.746413
#
# number of rings (size 3 to 8) (size 9 to 14) (size 15 to 20)
#    0.000    2.364    0.000    4.091    0.000    4.727 
#    0.000    4.545    0.000    7.091    0.000    3.818 
#    0.000    0.000    0.000    0.000    0.000    0.000 
#
# Total GULP energy -245581.872065 kJ/mol
# GULP energy per Si atom -5581.406183 kJ/mol
# Density = 1.770602 g / cm^3
# Si number density = 17.746413 Si / 1000 Ang^3
#
#
#
# Elastic Constant Matrix: (Units=GPa)
#
#
# Indices 1 2 3 4 5 6 
#
# 1 153.2360 34.6396 54.5965 0.0000 0.0000 0.0000
# 2 34.6396 32.9188 21.6986 0.0000 0.0000 0.0000
# 3 54.5965 21.6986 82.7802 0.0000 0.0000 0.0000
# 4 0.0000 0.0000 0.0000 23.7087 0.0000 0.0000
# 5 0.0000 0.0000 0.0000 0.0000 36.6541 0.0000
# 6 0.0000 0.0000 0.0000 0.0000 0.0000 25.1593
#
#
#
# Elastic Compliance Matrix: (Units=1/GPa)
#
#
# Indices 1 2 3 4 5 6 
#
# 1 0.009799 -0.007315 -0.004545 0.000000 0.000000 0.000000
# 2 -0.007315 0.042184 -0.006233 0.000000 0.000000 0.000000
# 3 -0.004545 -0.006233 0.016712 0.000000 0.000000 0.000000
# 4 0.000000 0.000000 0.000000 0.042179 0.000000 0.000000
# 5 0.000000 0.000000 0.000000 0.000000 0.027282 0.000000
# 6 0.000000 0.000000 0.000000 0.000000 0.000000 0.039747
#
#
# Mechanical properties :
#
#
# Convention : Reuss Voigt Hill
#
# Bulk Modulus (GPa) = 30.76168 54.53381 42.64775
# Shear Modulus (GPa) = 22.22976 27.63777 24.93376
#
# Velocity S-wave (km/s) = 3.54310 3.95064 3.75240
# Velocity P-wave (km/s) = 5.84035 7.18375 6.54660
#
# Compressibility (1/GPa) = 0.03250797
#
# Stress axis : x y z
#
# Youngs Moduli (GPa) = 102.05198 23.70595 59.83835
#
# Poissons Ratio (x) = 0.17341 0.27198
# Poissons Ratio (y) = 0.74652 0.37295
# Poissons Ratio (z) = 0.46386 0.14775
#
# Static dielectric constant tensor:
#      x y z
#    x 1.597200 0.000000 0.000000 
#    y 0.000000 1.594670 0.000000 
#    z 0.000000 0.000000 1.586010 
# 
# From -- ./inp_files/39636.got.cif
#   From: 2010.05.17/outbox.cif.g08.bks.cpg/sg67_20_cif.got.tgz:39636.got - 2010.06.03 18:28:57.
