data_PCOD9502488
_publ_section_title
;
Structure prediction by ZEFSAII (Michael W. Deem and Ramdas Pophale) SiO2 
 PCOD9502488
Probable space group: C M M A
;
_chemical_formula_sum "Si O2"
_cell_formula_units_Z 88
_cell_length_a 9.708887
_cell_length_b 29.951916
_cell_length_c 15.853296
_cell_angle_alpha 90.000000
_cell_angle_beta 90.000000
_cell_angle_gamma 90.000000
_cell_volume 4610.134797
_symmetry_space_group_name_H-M "C M M A"
_symmetry_group_IT_number 67
_symmetry_cell_setting 'orthorhombic'
loop_
_space_group_symop_operation_xyz
x,y,z
-x,1/2-y,z
x,-y,-z
-x,1/2+y,-z
-x,-y,-z
x,1/2+y,-z
-x,y,z
x,1/2-y,z
1/2+x,1/2+y,z
1/2-x,-y,z
1/2+x,1/2-y,-z
1/2-x,y,-z
1/2-x,1/2-y,-z
1/2+x,y,-z
1/2-x,1/2+y,z
1/2+x,-y,z
loop_
_atom_site_type_symbol
_atom_site_label
_atom_site_fract_x
_atom_site_fract_y
_atom_site_fract_z
Si Si1 0.330646 0.250000 0.590013
Si Si2 0.731892 0.402240 0.180937
Si Si3 0.344977 0.037871 0.328923
Si Si4 0.845754 0.831014 0.712500
Si Si5 0.500000 0.543465 0.123584
Si Si6 0.000000 0.440608 0.923677
Si Si7 0.844297 0.096287 0.432304
O O1 0.500000 0.250000 0.576161
O O2 0.250000 0.250000 0.500000
O O3 0.294270 0.292159 0.650224
O O4 0.651998 0.422873 0.261035
O O5 0.765999 0.351425 0.207403
O O6 0.869422 0.431467 0.164609
O O7 0.633100 0.412443 0.103086
O O8 0.500000 0.023603 0.349751
O O9 0.252685 0.054990 0.406666
O O10 0.250000 0.000000 0.289253
O O11 0.857071 0.873611 0.650361
O O12 0.000000 0.817891 0.739414
O O13 0.500000 0.488910 0.126359
O O14 0.500000 0.551369 0.023094
O O15 0.750000 0.121738 0.500000
O O16 0.000000 0.086085 0.461077
#
# Coordination Sequence:
#
# PCOD9502488 Si02
#       7
#     8  16  16  16   8   8  16
#     4  10  20  38  62  94 123 147 188 238 297 353
#     4  11  21  36  55  81 115 152 192 234 286 350
#     4  11  22  34  51  72  99 141 187 230 274 323
#     4   9  19  36  58  82 112 153 187 226 286 354
#     4  11  22  36  58  79 125 150 202 237 301 338
#     4  11  22  36  54  91 111 160 192 253 287 340
#     4  10  20  34  51  73 103 138 179 224 274 329
#
# _framework density 19.088379
#
# number of rings (size 3 to 8) (size 9 to 14) (size 15 to 20)
#    0.000    1.636    1.818    3.818    2.545    1.818 
#    1.636    1.818    0.000    0.000    0.000    3.818 
#    0.000    0.000    0.000    0.000    0.000    0.000 
#
# Total GULP energy -245027.781044 kJ/mol
# GULP energy per Si atom -5568.813206 kJ/mol
# Density = 1.904493 g / cm^3
# Si number density = 19.088379 Si / 1000 Ang^3
#
#
#
# Elastic Constant Matrix: (Units=GPa)
#
#
# Indices 1 2 3 4 5 6 
#
# 1 148.8160 35.5979 31.7992 0.0000 0.0000 0.0000
# 2 35.5979 84.2231 27.9067 0.0000 0.0000 0.0000
# 3 31.7992 27.9067 68.2915 0.0000 0.0000 0.0000
# 4 0.0000 0.0000 0.0000 31.9291 0.0000 0.0000
# 5 0.0000 0.0000 0.0000 0.0000 17.6846 0.0000
# 6 0.0000 0.0000 0.0000 0.0000 0.0000 8.8117
#
#
#
# Elastic Compliance Matrix: (Units=1/GPa)
#
#
# Indices 1 2 3 4 5 6 
#
# 1 0.007874 -0.002444 -0.002668 0.000000 0.000000 0.000000
# 2 -0.002444 0.014491 -0.004784 0.000000 0.000000 0.000000
# 3 -0.002668 -0.004784 0.017840 0.000000 0.000000 0.000000
# 4 0.000000 0.000000 0.000000 0.031319 0.000000 0.000000
# 5 0.000000 0.000000 0.000000 0.000000 0.056546 0.000000
# 6 0.000000 0.000000 0.000000 0.000000 0.000000 0.113486
#
#
# Mechanical properties :
#
#
# Convention : Reuss Voigt Hill
#
# Bulk Modulus (GPa) = 48.98472 54.65979 51.82226
# Shear Modulus (GPa) = 18.64604 25.42020 22.03312
#
# Velocity S-wave (km/s) = 3.12881 3.65322 3.40114
# Velocity P-wave (km/s) = 6.22659 6.81850 6.52926
#
# Compressibility (1/GPa) = 0.02041453
#
# Stress axis : x y z
#
# Youngs Moduli (GPa) = 126.99285 69.00668 56.05333
#
# Poissons Ratio (x) = 0.16867 0.14954
# Poissons Ratio (y) = 0.31040 0.26814
# Poissons Ratio (z) = 0.33880 0.33010
#
# Static dielectric constant tensor:
#      x y z
#    x 1.710000 0.000000 0.000000 
#    y 0.000000 1.726670 0.000000 
#    z 0.000000 0.000000 1.731320 
# 
# From -- ./inp_files/32483.got.cif
#   From: 2010.05.17/outbox.cif.g08.bks.cpg/sg67_17_cif.got.tgz:32483.got - 2010.06.03 18:28:57.
