data_PCOD9502212
_publ_section_title
;
Structure prediction by ZEFSAII (Michael W. Deem and Ramdas Pophale) SiO2 
 PCOD9502212
Probable space group: C M M A
;
_chemical_formula_sum "Si O2"
_cell_formula_units_Z 112
_cell_length_a 18.140944
_cell_length_b 27.793883
_cell_length_c 10.812726
_cell_angle_alpha 90.000000
_cell_angle_beta 90.000000
_cell_angle_gamma 90.000000
_cell_volume 5451.855112
_symmetry_space_group_name_H-M "C M M A"
_symmetry_group_IT_number 67
_symmetry_cell_setting 'orthorhombic'
loop_
_space_group_symop_operation_xyz
x,y,z
-x,1/2-y,z
x,-y,-z
-x,1/2+y,-z
-x,-y,-z
x,1/2+y,-z
-x,y,z
x,1/2-y,z
1/2+x,1/2+y,z
1/2-x,-y,z
1/2+x,1/2-y,-z
1/2-x,y,-z
1/2-x,1/2-y,-z
1/2+x,y,-z
1/2-x,1/2+y,z
1/2+x,-y,z
loop_
_atom_site_type_symbol
_atom_site_label
_atom_site_fract_x
_atom_site_fract_y
_atom_site_fract_z
Si Si1 0.639272 0.697036 0.681626
Si Si2 0.622003 0.095822 0.216283
Si Si3 0.720641 0.095314 0.867932
Si Si4 0.911402 0.844785 0.574529
Si Si5 0.585717 0.447345 0.474368
Si Si6 0.696032 0.804383 0.223988
Si Si7 0.917562 0.445859 0.047225
O O1 0.615055 0.750000 0.722326
O O2 0.609008 0.652076 0.758543
O O3 0.613608 0.686808 0.542837
O O4 0.728145 0.695590 0.696186
O O5 0.710632 0.087154 0.221522
O O6 0.588723 0.065323 0.328316
O O7 0.593566 0.083908 0.079776
O O8 0.706335 0.152533 0.873207
O O9 0.750000 0.077658 0.000000
O O10 0.643414 0.068723 0.852620
O O11 0.884849 0.899578 0.544230
O O12 0.871170 0.821988 0.691559
O O13 0.000000 0.844393 0.584577
O O14 0.619143 0.500000 0.500000
O O15 0.500000 0.449974 0.512096
O O16 0.685834 0.750000 0.176945
O O17 0.000000 0.439444 0.095619
O O18 0.907843 0.500000 0.000000
#
# Coordination Sequence:
#
# PCOD9502212 Si02
#       7
#    16  16  16  16  16  16  16
#     4   9  18  34  55  76 101 137 176 212 254 307
#     4   9  18  34  56  81 106 133 173 221 260 303
#     4   9  20  37  56  78 102 131 175 227 265 297
#     4  10  20  32  49  77 110 140 174 213 252 306
#     4   9  18  33  53  79 112 146 175 209 259 315
#     4  10  20  34  53  75 104 142 176 209 257 315
#     4  10  21  37  57  78 102 137 176 214 262 316
#
# _framework density 20.543465999999999
#
# number of rings (size 3 to 8) (size 9 to 14) (size 15 to 20)
#    0.000    2.571    0.000    1.286    0.000    7.429 
#    0.000    6.429    0.000   11.143    0.000    0.000 
#    0.000    0.571    0.000    0.000    0.000    0.000 
#
# Total GULP energy -312227.007611 kJ/mol
# GULP energy per Si atom -5575.482279 kJ/mol
# Density = 2.049671 g / cm^3
# Si number density = 20.543466 Si / 1000 Ang^3
#
#
#
# Elastic Constant Matrix: (Units=GPa)
#
#
# Indices 1 2 3 4 5 6 
#
# 1 52.9275 34.5119 0.2202 0.0000 0.0000 0.0000
# 2 34.5119 91.8044 -7.2430 0.0000 0.0000 0.0000
# 3 0.2202 -7.2430 10.4136 0.0000 0.0000 0.0000
# 4 0.0000 0.0000 0.0000 13.2294 0.0000 0.0000
# 5 0.0000 0.0000 0.0000 0.0000 16.6980 0.0000
# 6 0.0000 0.0000 0.0000 0.0000 0.0000 -52.8605
#
#
#
# Elastic Compliance Matrix: (Units=1/GPa)
#
#
# Indices 1 2 3 4 5 6 
#
# 1 0.025593 -0.010225 -0.007653 0.000000 0.000000 0.000000
# 2 -0.010225 0.015610 0.011073 0.000000 0.000000 0.000000
# 3 -0.007653 0.011073 0.103892 0.000000 0.000000 0.000000
# 4 0.000000 0.000000 0.000000 0.075589 0.000000 0.000000
# 5 0.000000 0.000000 0.000000 0.000000 0.059887 0.000000
# 6 0.000000 0.000000 0.000000 0.000000 0.000000 -0.018918
#
#
# Mechanical properties :
#
#
# Convention : Reuss Voigt Hill
#
# Bulk Modulus (GPa) = 7.60535 23.34709 15.47622
# Shear Modulus (GPa) = 15.66954 3.92382 9.79668
#
# Velocity S-wave (km/s) = 2.76479 1.38353 2.18612
# Velocity P-wave (km/s) = 3.72857 3.73385 3.73121
#
# Compressibility (1/GPa) = 0.13148647
#
# Stress axis : x y z
#
# Youngs Moduli (GPa) = 39.07350 64.06081 9.62541
#
# Poissons Ratio (x) = 0.65501 0.07366
# Poissons Ratio (y) = 0.39952 -0.10659
# Poissons Ratio (z) = 0.29902 -0.70937
#
# Static dielectric constant tensor:
#      x y z
#    x 1.780500 0.000000 0.000000 
#    y 0.000000 1.755950 0.000000 
#    z 0.000000 0.000000 1.703440 
# 
# From -- ./inp_files/21127.got.cif
#   From: 2010.05.17/outbox.cif.g08.bks.cpg/sg67_11_cif.got.tgz:21127.got - 2010.06.03 18:28:57.
