data_PCOD9502775
_publ_section_title
;
Structure prediction by ZEFSAII (Michael W. Deem and Ramdas Pophale) SiO2 
 PCOD9502775
Probable space group: C M M A
;
_chemical_formula_sum "Si O2"
_cell_formula_units_Z 104
_cell_length_a 8.766264
_cell_length_b 31.373499
_cell_length_c 23.964352
_cell_angle_alpha 90.000000
_cell_angle_beta 90.000000
_cell_angle_gamma 90.000000
_cell_volume 6590.876785
_symmetry_space_group_name_H-M "C M M A"
_symmetry_group_IT_number 67
_symmetry_cell_setting 'orthorhombic'
loop_
_space_group_symop_operation_xyz
x,y,z
-x,1/2-y,z
x,-y,-z
-x,1/2+y,-z
-x,-y,-z
x,1/2+y,-z
-x,y,z
x,1/2-y,z
1/2+x,1/2+y,z
1/2-x,-y,z
1/2+x,1/2-y,-z
1/2-x,y,-z
1/2-x,1/2-y,-z
1/2+x,y,-z
1/2-x,1/2+y,z
1/2+x,-y,z
loop_
_atom_site_type_symbol
_atom_site_label
_atom_site_fract_x
_atom_site_fract_y
_atom_site_fract_z
Si Si1 0.817711 0.044690 0.819394
Si Si2 0.825809 0.801766 0.442840
Si Si3 0.816710 0.577499 0.058221
Si Si4 0.317893 0.750000 0.938570
Si Si5 0.815332 0.364075 0.778632
Si Si6 0.686154 0.299258 0.319617
Si Si7 0.318578 0.162855 0.895828
O O1 0.768870 0.054374 0.883853
O O2 0.779817 0.085341 0.780430
O O3 0.000000 0.041544 0.820714
O O4 0.750000 0.000000 0.800844
O O5 0.826505 0.750000 0.444511
O O6 0.750000 0.816806 0.500000
O O7 0.758041 0.811539 0.381839
O O8 0.000000 0.816497 0.443246
O O9 0.755162 0.625508 0.066856
O O10 0.000000 0.577502 0.055603
O O11 0.750000 0.560215 0.000000
O O12 0.500000 0.750000 0.939009
O O13 0.254463 0.792172 0.910077
O O14 0.250000 0.750000 0.000000
O O15 0.773123 0.334781 0.725955
O O16 0.728413 0.346881 0.832546
O O17 0.000000 0.360289 0.786658
O O18 0.500000 0.298255 0.322102
O O19 0.732787 0.250000 0.306715
O O20 0.500000 0.163088 0.903514
#
# Coordination Sequence:
#
# PCOD9502775 Si02
#       7
#    16  16  16   8  16  16  16
#     4   9  19  33  49  68  91 116 147 185 228 282
#     4   8  13  22  37  59  88 122 158 189 218 257
#     4  10  20  35  52  71  91 114 143 178 224 281
#     4  12  24  38  52  66  86 116 153 192 229 270
#     4   9  18  33  50  70  92 119 156 192 228 272
#     4   8  14  25  44  68  92 123 161 192 221 264
#     4  11  22  35  49  68  92 118 148 187 231 275
#
# _framework density 15.779388000000001
#
# number of rings (size 3 to 8) (size 9 to 14) (size 15 to 20)
#    0.000    2.615    0.000    4.846    1.077    3.385 
#    0.000    2.308    0.000    0.923    0.000    0.000 
#    0.000    0.615    0.000    7.692    0.000    0.308 
#
# Total GULP energy -289664.135897 kJ/mol
# GULP energy per Si atom -5570.464152 kJ/mol
# Density = 1.574347 g / cm^3
# Si number density = 15.779388 Si / 1000 Ang^3
#
#
#
# Elastic Constant Matrix: (Units=GPa)
#
#
# Indices 1 2 3 4 5 6 
#
# 1 40.0502 20.7402 21.7877 0.0000 0.0000 0.0000
# 2 20.7402 100.7167 45.5390 0.0000 0.0000 0.0000
# 3 21.7877 45.5390 100.7904 0.0000 0.0000 0.0000
# 4 0.0000 0.0000 0.0000 9.0846 0.0000 0.0000
# 5 0.0000 0.0000 0.0000 0.0000 19.6748 0.0000
# 6 0.0000 0.0000 0.0000 0.0000 0.0000 20.6630
#
#
#
# Elastic Compliance Matrix: (Units=1/GPa)
#
#
# Indices 1 2 3 4 5 6 
#
# 1 0.029534 -0.004016 -0.004570 0.000000 0.000000 0.000000
# 2 -0.004016 0.013024 -0.005016 0.000000 0.000000 0.000000
# 3 -0.004570 -0.005016 0.013176 0.000000 0.000000 0.000000
# 4 0.000000 0.000000 0.000000 0.110077 0.000000 0.000000
# 5 0.000000 0.000000 0.000000 0.000000 0.050826 0.000000
# 6 0.000000 0.000000 0.000000 0.000000 0.000000 0.048396
#
#
# Mechanical properties :
#
#
# Convention : Reuss Voigt Hill
#
# Bulk Modulus (GPa) = 35.05062 46.41012 40.73037
# Shear Modulus (GPa) = 16.57015 20.11716 18.34365
#
# Velocity S-wave (km/s) = 3.24406 3.57445 3.41326
# Velocity P-wave (km/s) = 6.02437 6.81992 6.43445
#
# Compressibility (1/GPa) = 0.02853016
#
# Stress axis : x y z
#
# Youngs Moduli (GPa) = 33.85890 76.78184 75.89559
#
# Poissons Ratio (x) = 0.30832 0.34685
# Poissons Ratio (y) = 0.13596 0.38072
# Poissons Ratio (z) = 0.15474 0.38517
#
# Static dielectric constant tensor:
#      x y z
#    x 1.533130 0.000000 0.000000 
#    y 0.000000 1.528160 0.000000 
#    z 0.000000 0.000000 1.541510 
# 
# From -- ./inp_files/41166.got.cif
#   From: 2010.05.17/outbox.cif.g08.bks.cpg/sg67_21_cif.got.tgz:41166.got - 2010.06.03 18:28:57.
