data_PCOD9502914
_publ_section_title
;
Structure prediction by ZEFSAII (Michael W. Deem and Ramdas Pophale) SiO2 
 PCOD9502914
Probable space group: C M M A
;
_chemical_formula_sum "Si O2"
_cell_formula_units_Z 64
_cell_length_a 17.370683
_cell_length_b 8.997757
_cell_length_c 21.273431
_cell_angle_alpha 90.000000
_cell_angle_beta 90.000000
_cell_angle_gamma 90.000000
_cell_volume 3324.977371
_symmetry_space_group_name_H-M "C M M A"
_symmetry_group_IT_number 67
_symmetry_cell_setting 'orthorhombic'
loop_
_space_group_symop_operation_xyz
x,y,z
-x,1/2-y,z
x,-y,-z
-x,1/2+y,-z
-x,-y,-z
x,1/2+y,-z
-x,y,z
x,1/2-y,z
1/2+x,1/2+y,z
1/2-x,-y,z
1/2+x,1/2-y,-z
1/2-x,y,-z
1/2-x,1/2-y,-z
1/2+x,y,-z
1/2-x,1/2+y,z
1/2+x,-y,z
loop_
_atom_site_type_symbol
_atom_site_label
_atom_site_fract_x
_atom_site_fract_y
_atom_site_fract_z
Si Si1 0.407017 0.922190 0.935193
Si Si2 0.406983 0.421443 0.306806
Si Si3 0.906012 0.578377 0.564384
Si Si4 0.166085 0.072569 0.186293
O O1 0.500000 0.923886 0.934008
O O2 0.381950 0.750000 0.932971
O O3 0.376721 0.010468 0.875201
O O4 0.381919 0.000000 0.000000
O O5 0.500000 0.423093 0.305964
O O6 0.381873 0.250000 0.300726
O O7 0.381585 0.490313 0.373340
O O8 0.376951 0.516953 0.248785
O O9 0.880753 0.500000 0.500000
O O10 0.881880 0.750000 0.566676
O O11 0.000000 0.576814 0.564036
O O12 0.170031 0.250000 0.184674
O O13 0.250000 0.000000 0.187015
#
# Coordination Sequence:
#
# PCOD9502914 Si02
#       4
#    16  16  16  16
#     4  10  21  39  63  90 118 147 182 225 273 326
#     4  10  20  35  56  82 112 146 185 230 279 331
#     4   9  16  27  46  75 109 143 181 227 278 328
#     4  12  25  40  58  81 112 149 189 231 277 329
#
# _framework density 19.248252000000001
#
# number of rings (size 3 to 8) (size 9 to 14) (size 15 to 20)
#    0.000    1.750    0.000    5.250    0.000    9.500 
#    0.000    2.500    0.000    0.750    0.000    5.250 
#    0.000    0.000    0.000    0.000    0.000    0.000 
#
# Total GULP energy -178839.180899 kJ/mol
# GULP energy per Si atom -5588.724403 kJ/mol
# Density = 1.920444 g / cm^3
# Si number density = 19.248252 Si / 1000 Ang^3
#
#
#
# Elastic Constant Matrix: (Units=GPa)
#
#
# Indices 1 2 3 4 5 6 
#
# 1 10.9270 31.2475 28.2090 0.0000 0.0000 0.0000
# 2 31.2475 226.9431 112.1732 0.0000 0.0000 0.0000
# 3 28.2090 112.1732 204.3912 0.0000 0.0000 0.0000
# 4 0.0000 0.0000 0.0000 42.3970 0.0000 0.0000
# 5 0.0000 0.0000 0.0000 0.0000 -25.6766 0.0000
# 6 0.0000 0.0000 0.0000 0.0000 0.0000 23.7260
#
#
#
# Elastic Compliance Matrix: (Units=1/GPa)
#
#
# Indices 1 2 3 4 5 6 
#
# 1 0.180806 -0.017236 -0.015494 0.000000 0.000000 0.000000
# 2 -0.017236 0.007690 -0.001841 0.000000 0.000000 0.000000
# 3 -0.015494 -0.001841 0.008042 0.000000 0.000000 0.000000
# 4 0.000000 0.000000 0.000000 0.023587 0.000000 0.000000
# 5 0.000000 0.000000 0.000000 0.000000 -0.038946 0.000000
# 6 0.000000 0.000000 0.000000 0.000000 0.000000 0.042148
#
#
# Mechanical properties :
#
#
# Convention : Reuss Voigt Hill
#
# Bulk Modulus (GPa) = 7.84970 87.28007 47.56489
# Shear Modulus (GPa) = 14.92828 26.13138 20.52983
#
# Velocity S-wave (km/s) = 2.78792 3.68856 3.26940
# Velocity P-wave (km/s) = 3.80136 7.97392 6.24635
#
# Compressibility (1/GPa) = 0.12739334
#
# Stress axis : x y z
#
# Youngs Moduli (GPa) = 5.53079 130.04199 124.35315
#
# Poissons Ratio (x) = 2.24146 1.92676
# Poissons Ratio (y) = 0.09533 0.22899
# Poissons Ratio (z) = 0.08570 0.23946
#
# Static dielectric constant tensor:
#      x y z
#    x 1.674920 0.000000 0.000000 
#    y 0.000000 1.647380 0.000000 
#    z 0.000000 0.000000 1.639420 
# 
# From -- ./inp_files/31747.got.cif
#   From: 2010.05.17/outbox.cif.g08.bks.cpg/sg67_16_cif.got.tgz:31747.got - 2010.06.03 18:28:57.
