data_PCOD9502425
_publ_section_title
;
Structure prediction by ZEFSAII (Michael W. Deem and Ramdas Pophale) SiO2 
 PCOD9502425
Probable space group: C M M A
;
_chemical_formula_sum "Si O2"
_cell_formula_units_Z 96
_cell_length_a 22.226954
_cell_length_b 19.235015
_cell_length_c 12.326413
_cell_angle_alpha 90.000000
_cell_angle_beta 90.000000
_cell_angle_gamma 90.000000
_cell_volume 5269.982764
_symmetry_space_group_name_H-M "C M M A"
_symmetry_group_IT_number 67
_symmetry_cell_setting 'orthorhombic'
loop_
_space_group_symop_operation_xyz
x,y,z
-x,1/2-y,z
x,-y,-z
-x,1/2+y,-z
-x,-y,-z
x,1/2+y,-z
-x,y,z
x,1/2-y,z
1/2+x,1/2+y,z
1/2-x,-y,z
1/2+x,1/2-y,-z
1/2-x,y,-z
1/2-x,1/2-y,-z
1/2+x,y,-z
1/2-x,1/2+y,z
1/2+x,-y,z
loop_
_atom_site_type_symbol
_atom_site_label
_atom_site_fract_x
_atom_site_fract_y
_atom_site_fract_z
Si Si1 0.859836 0.667583 0.897604
Si Si2 0.928671 0.959802 0.784365
Si Si3 0.184726 0.325868 0.559178
Si Si4 0.251269 0.614718 0.243317
Si Si5 0.156284 0.440599 0.915889
Si Si6 0.846222 0.056318 0.411546
O O1 0.875482 0.750000 0.901975
O O2 0.904582 0.613919 0.834360
O O3 0.797020 0.659798 0.830383
O O4 0.854373 0.630267 0.015633
O O5 0.902550 0.963891 0.662402
O O6 0.000000 0.962208 0.788940
O O7 0.899475 0.023835 0.852114
O O8 0.157931 0.250000 0.557164
O O9 0.250000 0.325101 0.500000
O O10 0.203044 0.346339 0.680495
O O11 0.144837 0.376527 0.486905
O O12 0.210772 0.569851 0.164996
O O13 0.293549 0.572013 0.325549
O O14 0.173698 0.500000 0.000000
O O15 0.827694 0.000000 0.500000
#
# Coordination Sequence:
#
# PCOD9502425 Si02
#       6
#    16  16  16  16  16  16
#     4  10  22  37  56  85 116 146 184 228 277 335
#     4  10  23  41  58  77 106 146 193 242 284 322
#     4   9  18  31  48  73 107 142 172 208 259 322
#     4  10  20  33  53  82 118 150 177 214 273 338
#     4  10  22  36  55  81 113 149 186 227 275 328
#     4  10  21  34  54  81 108 139 181 227 274 328
#
# _framework density 18.216377999999999
#
# number of rings (size 3 to 8) (size 9 to 14) (size 15 to 20)
#    0.000    2.167    0.000    2.000    0.000   28.667 
#    0.000    0.000    0.000    0.000    0.000    0.000 
#    0.000    0.000    0.000    0.000    0.000    0.000 
#
# Total GULP energy -267592.383926 kJ/mol
# GULP energy per Si atom -5574.841332 kJ/mol
# Density = 1.817492 g / cm^3
# Si number density = 18.216378 Si / 1000 Ang^3
#
#
#
# Elastic Constant Matrix: (Units=GPa)
#
#
# Indices 1 2 3 4 5 6 
#
# 1 74.7055 29.9561 44.6212 0.0000 0.0000 0.0000
# 2 29.9561 90.7347 60.4192 0.0000 0.0000 0.0000
# 3 44.6212 60.4192 100.4446 0.0000 0.0000 0.0000
# 4 0.0000 0.0000 0.0000 15.0823 0.0000 0.0000
# 5 0.0000 0.0000 0.0000 0.0000 10.0731 0.0000
# 6 0.0000 0.0000 0.0000 0.0000 0.0000 9.9796
#
#
#
# Elastic Compliance Matrix: (Units=1/GPa)
#
#
# Indices 1 2 3 4 5 6 
#
# 1 0.018280 -0.001047 -0.007491 0.000000 0.000000 0.000000
# 2 -0.001047 0.018445 -0.010630 0.000000 0.000000 0.000000
# 3 -0.007491 -0.010630 0.019677 0.000000 0.000000 0.000000
# 4 0.000000 0.000000 0.000000 0.066303 0.000000 0.000000
# 5 0.000000 0.000000 0.000000 0.000000 0.099275 0.000000
# 6 0.000000 0.000000 0.000000 0.000000 0.000000 0.100205
#
#
# Mechanical properties :
#
#
# Convention : Reuss Voigt Hill
#
# Bulk Modulus (GPa) = 55.34950 59.54197 57.44573
# Shear Modulus (GPa) = 13.64097 15.75288 14.69693
#
# Velocity S-wave (km/s) = 2.73944 2.94388 2.84350
# Velocity P-wave (km/s) = 6.36054 6.65674 6.51032
#
# Compressibility (1/GPa) = 0.01806701
#
# Stress axis : x y z
#
# Youngs Moduli (GPa) = 54.70463 54.21465 50.81949
#
# Poissons Ratio (x) = 0.05677 0.38068
# Poissons Ratio (y) = 0.05728 0.54021
# Poissons Ratio (z) = 0.40978 0.57630
#
# Static dielectric constant tensor:
#      x y z
#    x 1.597710 0.000000 0.000000 
#    y 0.000000 1.686690 0.000000 
#    z 0.000000 0.000000 1.784360 
# 
# From -- ./inp_files/19619.got.cif
#   From: 2010.05.17/outbox.cif.g08.bks.cpg/sg67_10_cif.got.tgz:19619.got - 2010.06.03 18:28:57.
