data_PCOD9502448
_publ_section_title
;
Structure prediction by ZEFSAII (Michael W. Deem and Ramdas Pophale) SiO2 
 PCOD9502448
Probable space group: C M M A
;
_chemical_formula_sum "Si O2"
_cell_formula_units_Z 48
_cell_length_a 16.517035
_cell_length_b 16.637227
_cell_length_c 8.361648
_cell_angle_alpha 90.000000
_cell_angle_beta 90.000000
_cell_angle_gamma 90.000000
_cell_volume 2297.761310
_symmetry_space_group_name_H-M "C M M A"
_symmetry_group_IT_number 67
_symmetry_cell_setting 'orthorhombic'
loop_
_space_group_symop_operation_xyz
x,y,z
-x,1/2-y,z
x,-y,-z
-x,1/2+y,-z
-x,-y,-z
x,1/2+y,-z
-x,y,z
x,1/2-y,z
1/2+x,1/2+y,z
1/2-x,-y,z
1/2+x,1/2-y,-z
1/2-x,y,-z
1/2-x,1/2-y,-z
1/2+x,y,-z
1/2-x,1/2+y,z
1/2+x,-y,z
loop_
_atom_site_type_symbol
_atom_site_label
_atom_site_fract_x
_atom_site_fract_y
_atom_site_fract_z
Si Si1 0.657766 0.415839 0.441382
Si Si2 0.905777 0.250000 0.589676
Si Si3 0.095033 0.916611 0.090819
Si Si4 0.842982 0.250000 0.950514
O O1 0.620829 0.500000 0.500000
O O2 0.750000 0.412860 0.500000
O O3 0.616013 0.333125 0.496437
O O4 0.648805 0.418537 0.250279
O O5 0.856866 0.250000 0.757608
O O6 0.000000 0.250000 0.630254
O O7 0.117227 0.834616 0.997129
O O8 0.000000 0.911583 0.135849
O O9 0.107751 0.000000 0.000000
O O10 0.750000 0.250000 0.000000
#
# Coordination Sequence:
#
# PCOD9502448 Si02
#       4
#    16   8  16   8
#     4  10  21  37  60  89 119 151 193 243 293 345
#     4  10  21  39  60  81 115 158 196 236 288 350
#     4  10  22  41  63  86 117 157 198 240 290 349
#     4  10  20  33  58  87 116 152 191 240 292 344
#
# _framework density 20.889897999999999
#
# number of rings (size 3 to 8) (size 9 to 14) (size 15 to 20)
#    0.000    2.000    0.000    5.000    0.000   14.000 
#    0.000    1.667    0.000    0.000    0.000    0.000 
#    0.000    0.000    0.000    0.000    0.000    0.000 
#
# Total GULP energy -133864.093087 kJ/mol
# GULP energy per Si atom -5577.670545 kJ/mol
# Density = 2.084235 g / cm^3
# Si number density = 20.889898 Si / 1000 Ang^3
#
#
#
# Elastic Constant Matrix: (Units=GPa)
#
#
# Indices 1 2 3 4 5 6 
#
# 1 120.4168 53.4744 52.7154 0.0000 0.0000 0.0000
# 2 53.4744 257.6979 38.0513 0.0000 0.0000 0.0000
# 3 52.7154 38.0513 30.5549 0.0000 0.0000 0.0000
# 4 0.0000 0.0000 0.0000 28.0743 0.0000 0.0000
# 5 0.0000 0.0000 0.0000 0.0000 42.8009 0.0000
# 6 0.0000 0.0000 0.0000 0.0000 0.0000 168.3677
#
#
#
# Elastic Compliance Matrix: (Units=1/GPa)
#
#
# Indices 1 2 3 4 5 6 
#
# 1 0.034766 0.002013 -0.062487 0.000000 0.000000 0.000000
# 2 0.002013 0.004871 -0.009539 0.000000 0.000000 0.000000
# 3 -0.062487 -0.009539 0.152414 0.000000 0.000000 0.000000
# 4 0.000000 0.000000 0.000000 0.035620 0.000000 0.000000
# 5 0.000000 0.000000 0.000000 0.000000 0.023364 0.000000
# 6 0.000000 0.000000 0.000000 0.000000 0.000000 0.005939
#
#
# Mechanical properties :
#
#
# Convention : Reuss Voigt Hill
#
# Bulk Modulus (GPa) = 19.22151 77.46130 48.34141
# Shear Modulus (GPa) = 12.06728 65.47714 38.77221
#
# Velocity S-wave (km/s) = 2.40607 5.60464 4.31284
# Velocity P-wave (km/s) = 4.11585 8.89066 6.92763
#
# Compressibility (1/GPa) = 0.05202505
#
# Stress axis : x y z
#
# Youngs Moduli (GPa) = 28.76364 205.28115 6.56106
#
# Poissons Ratio (x) = -0.41314 0.40998
# Poissons Ratio (y) = -0.05789 0.06258
# Poissons Ratio (z) = 1.79736 1.95812
#
# Static dielectric constant tensor:
#      x y z
#    x 1.717130 0.000000 0.000000 
#    y 0.000000 1.861290 0.000000 
#    z 0.000000 0.000000 1.755080 
# 
# From -- ./inp_files/7398.got.cif
#   From: 2010.05.17/outbox.cif.g08.bks.cpg/sg67_4_cif.got.tgz:7398.got - 2010.06.03 18:28:57.
