data_PCOD9502577
_publ_section_title
;
Structure prediction by ZEFSAII (Michael W. Deem and Ramdas Pophale) SiO2 
 PCOD9502577
Probable space group: C M M A
;
_chemical_formula_sum "Si O2"
_cell_formula_units_Z 96
_cell_length_a 20.271683
_cell_length_b 8.850166
_cell_length_c 30.782097
_cell_angle_alpha 90.000000
_cell_angle_beta 90.000000
_cell_angle_gamma 90.000000
_cell_volume 5522.547060
_symmetry_space_group_name_H-M "C M M A"
_symmetry_group_IT_number 67
_symmetry_cell_setting 'orthorhombic'
loop_
_space_group_symop_operation_xyz
x,y,z
-x,1/2-y,z
x,-y,-z
-x,1/2+y,-z
-x,-y,-z
x,1/2+y,-z
-x,y,z
x,1/2-y,z
1/2+x,1/2+y,z
1/2-x,-y,z
1/2+x,1/2-y,-z
1/2-x,y,-z
1/2-x,1/2-y,-z
1/2+x,y,-z
1/2-x,1/2+y,z
1/2+x,-y,z
loop_
_atom_site_type_symbol
_atom_site_label
_atom_site_fract_x
_atom_site_fract_y
_atom_site_fract_z
Si Si1 0.077243 0.069418 0.547061
Si Si2 0.821667 0.069161 0.384873
Si Si3 0.923070 0.069429 0.783969
Si Si4 0.178504 0.069505 0.283660
Si Si5 0.821838 0.568038 0.953174
Si Si6 0.923630 0.568669 0.877273
O O1 0.085090 0.250000 0.545654
O O2 0.000000 0.035525 0.555705
O O3 0.093587 0.000000 0.500000
O O4 0.123663 0.999418 0.583635
O O5 0.819318 0.250000 0.389420
O O6 0.835893 0.033064 0.334243
O O7 0.750000 0.000000 0.395184
O O8 0.917253 0.250000 0.782649
O O9 0.000000 0.028805 0.776528
O O10 0.876357 0.996616 0.748076
O O11 0.905498 0.010053 0.832005
O O12 0.181510 0.250000 0.279413
O O13 0.250000 0.000000 0.273251
O O14 0.817347 0.750000 0.956306
O O15 0.750000 0.500000 0.942448
O O16 0.874785 0.528139 0.916302
O O17 0.840692 0.500000 0.000000
O O18 0.920117 0.750000 0.871294
O O19 0.000000 0.530066 0.887310
#
# Coordination Sequence:
#
# PCOD9502577 Si02
#       6
#    16  16  16  16  16  16
#     4  10  21  37  57  81 110 143 179 221 267 315
#     4  10  21  37  57  81 109 141 179 221 266 317
#     4  10  21  36  55  80 109 141 178 220 264 313
#     4  10  21  37  57  80 108 142 178 220 267 316
#     4  10  20  34  53  76 103 135 170 211 258 309
#     4   9  19  36  55  75 102 137 176 216 260 310
#
# _framework density 17.383282999999999
#
# number of rings (size 3 to 8) (size 9 to 14) (size 15 to 20)
#    0.000    2.167    0.000    3.000    0.000    7.333 
#    0.000    6.667    0.000    0.000    0.000    0.000 
#    0.000    0.000    0.000    0.000    0.000    0.000 
#
# Total GULP energy -268007.076463 kJ/mol
# GULP energy per Si atom -5583.480760 kJ/mol
# Density = 1.734372 g / cm^3
# Si number density = 17.383283 Si / 1000 Ang^3
#
#
#
# Elastic Constant Matrix: (Units=GPa)
#
#
# Indices 1 2 3 4 5 6 
#
# 1 122.4887 65.4485 124.2315 0.0000 0.0000 0.0000
# 2 65.4485 65.4825 71.6004 0.0000 0.0000 0.0000
# 3 124.2315 71.6004 148.6250 0.0000 0.0000 0.0000
# 4 0.0000 0.0000 0.0000 29.1691 0.0000 0.0000
# 5 0.0000 0.0000 0.0000 0.0000 45.2034 0.0000
# 6 0.0000 0.0000 0.0000 0.0000 0.0000 31.7897
#
#
#
# Elastic Compliance Matrix: (Units=1/GPa)
#
#
# Indices 1 2 3 4 5 6 
#
# 1 0.056705 -0.010247 -0.042461 0.000000 0.000000 0.000000
# 2 -0.010247 0.034121 -0.007873 0.000000 0.000000 0.000000
# 3 -0.042461 -0.007873 0.046014 0.000000 0.000000 0.000000
# 4 0.000000 0.000000 0.000000 0.034283 0.000000 0.000000
# 5 0.000000 0.000000 0.000000 0.000000 0.022122 0.000000
# 6 0.000000 0.000000 0.000000 0.000000 0.000000 0.031457
#
#
# Mechanical properties :
#
#
# Convention : Reuss Voigt Hill
#
# Bulk Modulus (GPa) = 63.78760 95.46191 79.62475
# Shear Modulus (GPa) = 14.24139 26.25350 20.24745
#
# Velocity S-wave (km/s) = 2.86537 3.89044 3.41657
# Velocity P-wave (km/s) = 6.90808 8.67271 7.84020
#
# Compressibility (1/GPa) = 0.01567703
#
# Stress axis : x y z
#
# Youngs Moduli (GPa) = 17.63526 29.30729 21.73271
#
# Poissons Ratio (x) = 0.30030 0.92280
# Poissons Ratio (y) = 0.18070 0.17110
# Poissons Ratio (z) = 0.74882 0.23074
#
# Static dielectric constant tensor:
#      x y z
#    x 1.567840 0.000000 0.000000 
#    y 0.000000 1.579420 0.000000 
#    z 0.000000 0.000000 1.562230 
# 
# From -- ./inp_files/43432.got.cif
#   From: 2010.05.17/outbox.cif.g08.bks.cpg/sg67_22_cif.got.tgz:43432.got - 2010.06.03 18:28:57.
