data_PCOD9502310
_publ_section_title
;
Structure prediction by ZEFSAII (Michael W. Deem and Ramdas Pophale) SiO2 
 PCOD9502310
Probable space group: C M M A
;
_chemical_formula_sum "Si O2"
_cell_formula_units_Z 80
_cell_length_a 8.876204
_cell_length_b 15.027196
_cell_length_c 27.745189
_cell_angle_alpha 90.000000
_cell_angle_beta 90.000000
_cell_angle_gamma 90.000000
_cell_volume 3700.776976
_symmetry_space_group_name_H-M "C M M A"
_symmetry_group_IT_number 67
_symmetry_cell_setting 'orthorhombic'
loop_
_space_group_symop_operation_xyz
x,y,z
-x,1/2-y,z
x,-y,-z
-x,1/2+y,-z
-x,-y,-z
x,1/2+y,-z
-x,y,z
x,1/2-y,z
1/2+x,1/2+y,z
1/2-x,-y,z
1/2+x,1/2-y,-z
1/2-x,y,-z
1/2-x,1/2-y,-z
1/2+x,y,-z
1/2-x,1/2+y,z
1/2+x,-y,z
loop_
_atom_site_type_symbol
_atom_site_label
_atom_site_fract_x
_atom_site_fract_y
_atom_site_fract_z
Si Si1 0.819467 0.599850 0.048065
Si Si2 0.166235 0.145257 0.546705
Si Si3 0.180921 0.899943 0.750013
Si Si4 0.679827 0.098045 0.644944
Si Si5 0.680573 0.900146 0.846273
O O1 0.750000 0.500000 0.049618
O O2 0.786258 0.640020 0.100894
O O3 0.000000 0.594539 0.043126
O O4 0.750000 0.642385 0.000000
O O5 0.148709 0.250000 0.537179
O O6 0.250000 0.106914 0.500000
O O7 0.256085 0.139260 0.596400
O O8 0.000000 0.104852 0.552617
O O9 0.217301 0.859961 0.697334
O O10 0.249712 0.857648 0.798240
O O11 0.000000 0.904643 0.754571
O O12 0.250000 0.000000 0.748550
O O13 0.500000 0.094239 0.642103
O O14 0.750000 0.000000 0.645766
O O15 0.500000 0.905420 0.841275
O O16 0.750000 0.000000 0.847851
#
# Coordination Sequence:
#
# PCOD9502310 Si02
#       5
#    16  16  16  16  16
#     4   9  15  20  26  37  54  80 117 161 206 249
#     4  10  21  37  56  76  98 125 156 189 227 273
#     4   9  16  25  38  56  78 105 136 172 215 260
#     4  10  20  33  50  73  99 125 156 194 233 274
#     4   9  15  21  30  44  63  90 125 165 209 256
#
# _framework density 21.617083000000001
#
# number of rings (size 3 to 8) (size 9 to 14) (size 15 to 20)
#    0.000    2.600    0.000    4.800    0.000    6.400 
#    0.000    2.000    0.000    0.000    0.000    0.000 
#    0.000    0.000    0.000    0.000    0.000    1.000 
#
# Total GULP energy -222927.497362 kJ/mol
# GULP energy per Si atom -5573.187434 kJ/mol
# Density = 2.156788 g / cm^3
# Si number density = 21.617083 Si / 1000 Ang^3
#
#
#
# Elastic Constant Matrix: (Units=GPa)
#
#
# Indices 1 2 3 4 5 6 
#
# 1 123.0877 6.2120 104.1374 0.0000 0.0000 0.0000
# 2 6.2120 42.8582 14.7784 0.0000 0.0000 0.0000
# 3 104.1374 14.7784 269.4835 0.0000 0.0000 0.0000
# 4 0.0000 0.0000 0.0000 27.4659 0.0000 0.0000
# 5 0.0000 0.0000 0.0000 0.0000 -8.0954 0.0000
# 6 0.0000 0.0000 0.0000 0.0000 0.0000 2.0316
#
#
#
# Elastic Compliance Matrix: (Units=1/GPa)
#
#
# Indices 1 2 3 4 5 6 
#
# 1 0.012072 -0.000144 -0.004657 0.000000 0.000000 0.000000
# 2 -0.000144 0.023784 -0.001249 0.000000 0.000000 0.000000
# 3 -0.004657 -0.001249 0.005579 0.000000 0.000000 0.000000
# 4 0.000000 0.000000 0.000000 0.036409 0.000000 0.000000
# 5 0.000000 0.000000 0.000000 0.000000 -0.123527 0.000000
# 6 0.000000 0.000000 0.000000 0.000000 0.000000 0.492219
#
#
# Mechanical properties :
#
#
# Convention : Reuss Voigt Hill
#
# Bulk Modulus (GPa) = 34.08837 76.18720 55.13779
# Shear Modulus (GPa) = 10.67433 24.96720 17.82076
#
# Velocity S-wave (km/s) = 2.22455 3.40218 2.87432
# Velocity P-wave (km/s) = 4.73303 7.12416 6.04794
#
# Compressibility (1/GPa) = 0.02933551
#
# Stress axis : x y z
#
# Youngs Moduli (GPa) = 82.83953 42.04477 179.24732
#
# Poissons Ratio (x) = 0.00605 0.83475
# Poissons Ratio (y) = 0.01192 0.22383
# Poissons Ratio (z) = 0.38578 0.05250
#
# Static dielectric constant tensor:
#      x y z
#    x 1.745810 0.000000 0.000000 
#    y 0.000000 1.775130 0.000000 
#    z 0.000000 0.000000 1.876840 
# 
# From -- ./inp_files/43199.got.cif
#   From: 2010.05.17/outbox.cif.g08.bks.cpg/sg67_22_cif.got.tgz:43199.got - 2010.06.03 18:28:57.
