data_PCOD9502616
_publ_section_title
;
Structure prediction by ZEFSAII (Michael W. Deem and Ramdas Pophale) SiO2 
 PCOD9502616
Probable space group: C M M A
;
_chemical_formula_sum "Si O2"
_cell_formula_units_Z 96
_cell_length_a 13.813254
_cell_length_b 21.073276
_cell_length_c 14.152688
_cell_angle_alpha 90.000000
_cell_angle_beta 90.000000
_cell_angle_gamma 90.000000
_cell_volume 4119.713224
_symmetry_space_group_name_H-M "C M M A"
_symmetry_group_IT_number 67
_symmetry_cell_setting 'orthorhombic'
loop_
_space_group_symop_operation_xyz
x,y,z
-x,1/2-y,z
x,-y,-z
-x,1/2+y,-z
-x,-y,-z
x,1/2+y,-z
-x,y,z
x,1/2-y,z
1/2+x,1/2+y,z
1/2-x,-y,z
1/2+x,1/2-y,-z
1/2-x,y,-z
1/2-x,1/2-y,-z
1/2+x,y,-z
1/2-x,1/2+y,z
1/2+x,-y,z
loop_
_atom_site_type_symbol
_atom_site_label
_atom_site_fract_x
_atom_site_fract_y
_atom_site_fract_z
Si Si1 0.697096 0.322624 0.149778
Si Si2 0.150525 0.540059 0.086090
Si Si3 0.105423 0.506804 0.716732
Si Si4 0.110110 0.176940 0.459719
Si Si5 0.116336 0.850706 0.752183
Si Si6 0.381107 0.121195 0.346607
O O1 0.669539 0.250000 0.122375
O O2 0.668017 0.383507 0.083423
O O3 0.813132 0.324303 0.167701
O O4 0.653459 0.339990 0.254158
O O5 0.250000 0.500000 0.098464
O O6 0.096648 0.527921 0.182880
O O7 0.105439 0.500000 0.000000
O O8 0.143338 0.575396 0.741705
O O9 0.154440 0.451856 0.657564
O O10 0.000000 0.518916 0.673335
O O11 0.106249 0.250000 0.486458
O O12 0.143427 0.174996 0.351505
O O13 0.154311 0.145589 0.552238
O O14 0.000000 0.151151 0.452696
O O15 0.000000 0.842673 0.768933
O O16 0.500000 0.122332 0.344480
#
# Coordination Sequence:
#
# PCOD9502616 Si02
#       6
#    16  16  16  16  16  16
#     4  11  22  36  60  88 113 149 189 228 283 339
#     4  10  20  38  61  82 112 141 175 231 286 340
#     4   9  18  34  57  82 107 147 189 229 281 334
#     4   9  17  30  48  72 110 156 191 230 283 325
#     4  10  20  34  53  80 115 152 194 237 276 327
#     4   9  19  34  54  82 115 150 193 237 278 329
#
# _framework density 23.302593999999999
#
# number of rings (size 3 to 8) (size 9 to 14) (size 15 to 20)
#    0.000    2.333    1.667    1.000    0.000    3.667 
#    0.000    6.667    0.000    2.500    0.000    0.000 
#    0.000    0.000    0.000    0.000    0.000    0.000 
#
# Total GULP energy -267262.518967 kJ/mol
# GULP energy per Si atom -5567.969145 kJ/mol
# Density = 2.324956 g / cm^3
# Si number density = 23.302594 Si / 1000 Ang^3
#
#
#
# Elastic Constant Matrix: (Units=GPa)
#
#
# Indices 1 2 3 4 5 6 
#
# 1 82.6902 4.9522 -2.6351 0.0000 0.0000 0.0000
# 2 4.9522 196.6107 40.0663 0.0000 0.0000 0.0000
# 3 -2.6351 40.0663 72.0118 0.0000 0.0000 0.0000
# 4 0.0000 0.0000 0.0000 -8.0435 0.0000 0.0000
# 5 0.0000 0.0000 0.0000 0.0000 37.6189 0.0000
# 6 0.0000 0.0000 0.0000 0.0000 0.0000 33.5311
#
#
#
# Elastic Compliance Matrix: (Units=1/GPa)
#
#
# Indices 1 2 3 4 5 6 
#
# 1 0.012142 -0.000447 0.000693 0.000000 0.000000 0.000000
# 2 -0.000447 0.005753 -0.003217 0.000000 0.000000 0.000000
# 3 0.000693 -0.003217 0.015702 0.000000 0.000000 0.000000
# 4 0.000000 0.000000 0.000000 -0.124324 0.000000 0.000000
# 5 0.000000 0.000000 0.000000 0.000000 0.026582 0.000000
# 6 0.000000 0.000000 0.000000 0.000000 0.000000 0.029823
#
#
# Mechanical properties :
#
#
# Convention : Reuss Voigt Hill
#
# Bulk Modulus (GPa) = 36.16022 48.45327 42.30674
# Shear Modulus (GPa) = -260.95329 33.21660 -113.86834
#
# Velocity S-wave (km/s) = -10.59376 3.77960 -6.99794
# Velocity P-wave (km/s) = 11.57954 6.31549 6.86295
#
# Compressibility (1/GPa) = 0.02765470
#
# Stress axis : x y z
#
# Youngs Moduli (GPa) = 82.35741 173.81959 63.68606
#
# Poissons Ratio (x) = 0.07771 -0.04414
# Poissons Ratio (y) = 0.03682 0.20490
# Poissons Ratio (z) = -0.05708 0.55923
#
# Static dielectric constant tensor:
#      x y z
#    x 2.020340 0.000000 0.000000 
#    y 0.000000 1.910840 0.000000 
#    z 0.000000 0.000000 1.948880 
# 
# From -- ./inp_files/27242.got.cif
#   From: 2010.05.17/outbox.cif.g08.bks.cpg/sg67_14_cif.got.tgz:27242.got - 2010.06.03 18:28:57.
