data_PCOD9502952
_publ_section_title
;
Structure prediction by ZEFSAII (Michael W. Deem and Ramdas Pophale) SiO2 
 PCOD9502952
Probable space group: C M M A
;
_chemical_formula_sum "Si O2"
_cell_formula_units_Z 48
_cell_length_a 16.459040
_cell_length_b 12.234803
_cell_length_c 10.175681
_cell_angle_alpha 90.000000
_cell_angle_beta 90.000000
_cell_angle_gamma 90.000000
_cell_volume 2049.108549
_symmetry_space_group_name_H-M "C M M A"
_symmetry_group_IT_number 67
_symmetry_cell_setting 'orthorhombic'
loop_
_space_group_symop_operation_xyz
x,y,z
-x,1/2-y,z
x,-y,-z
-x,1/2+y,-z
-x,-y,-z
x,1/2+y,-z
-x,y,z
x,1/2-y,z
1/2+x,1/2+y,z
1/2-x,-y,z
1/2+x,1/2-y,-z
1/2-x,y,-z
1/2-x,1/2-y,-z
1/2+x,y,-z
1/2-x,1/2+y,z
1/2+x,-y,z
loop_
_atom_site_type_symbol
_atom_site_label
_atom_site_fract_x
_atom_site_fract_y
_atom_site_fract_z
Si Si1 0.336139 0.559072 0.308120
Si Si2 0.598082 0.627321 0.042496
Si Si3 0.591471 0.366379 0.429368
O O1 0.250000 0.500000 0.295450
O O2 0.361412 0.630422 0.186365
O O3 0.347691 0.616850 0.449174
O O4 0.399164 0.459250 0.322792
O O5 0.500000 0.625605 0.047456
O O6 0.618948 0.750000 0.981365
O O7 0.621903 0.500000 0.000000
O O8 0.500000 0.369462 0.483999
O O9 0.605946 0.250000 0.366935
#
# Coordination Sequence:
#
# PCOD9502952 Si02
#       3
#    16  16  16
#     4  11  22  35  55  85 119 154 190 238 300 360
#     4  10  22  42  66  88 114 154 204 253 299 353
#     4  10  20  35  57  83 114 155 201 245 288 344
#
# _framework density 23.42482
#
# number of rings (size 3 to 8) (size 9 to 14) (size 15 to 20)
#    0.000    1.667    0.000    7.000    0.000    8.667 
#    0.000    5.000    0.000    0.000    0.000    0.000 
#    0.000    0.000    0.000    0.000    0.000    0.000 
#
# Total GULP energy -133616.219355 kJ/mol
# GULP energy per Si atom -5567.342473 kJ/mol
# Density = 2.337150 g / cm^3
# Si number density = 23.424820 Si / 1000 Ang^3
#
#
#
# Elastic Constant Matrix: (Units=GPa)
#
#
# Indices 1 2 3 4 5 6 
#
# 1 48.0236 20.7772 7.3401 0.0000 0.0000 0.0000
# 2 20.7772 213.2218 32.9957 0.0000 0.0000 0.0000
# 3 7.3401 32.9957 51.0601 0.0000 0.0000 0.0000
# 4 0.0000 0.0000 0.0000 6.5588 0.0000 0.0000
# 5 0.0000 0.0000 0.0000 0.0000 -76.4254 0.0000
# 6 0.0000 0.0000 0.0000 0.0000 0.0000 -9.2436
#
#
#
# Elastic Compliance Matrix: (Units=1/GPa)
#
#
# Indices 1 2 3 4 5 6 
#
# 1 0.021916 -0.001831 -0.001967 0.000000 0.000000 0.000000
# 2 -0.001831 0.005364 -0.003203 0.000000 0.000000 0.000000
# 3 -0.001967 -0.003203 0.021937 0.000000 0.000000 0.000000
# 4 0.000000 0.000000 0.000000 0.152468 0.000000 0.000000
# 5 0.000000 0.000000 0.000000 0.000000 -0.013085 0.000000
# 6 0.000000 0.000000 0.000000 0.000000 0.000000 -0.108183
#
#
# Mechanical properties :
#
#
# Convention : Reuss Voigt Hill
#
# Bulk Modulus (GPa) = 28.39729 48.28126 38.33927
# Shear Modulus (GPa) = 47.09928 0.92414 24.01171
#
# Velocity S-wave (km/s) = 4.48890 0.62878 3.20512
# Velocity P-wave (km/s) = 6.24628 4.60251 5.48630
#
# Compressibility (1/GPa) = 0.03521463
#
# Stress axis : x y z
#
# Youngs Moduli (GPa) = 45.62878 186.42600 45.58416
#
# Poissons Ratio (x) = 0.34138 0.08967
# Poissons Ratio (y) = 0.08355 0.14601
# Poissons Ratio (z) = 0.08976 0.59714
#
# Static dielectric constant tensor:
#      x y z
#    x 1.869870 0.000000 0.000000 
#    y 0.000000 2.064130 0.000000 
#    z 0.000000 0.000000 1.842790 
# 
# From -- ./inp_files/17086.got.cif
#   From: 2010.05.17/outbox.cif.g08.bks.cpg/sg67_9_cif.got.tgz:17086.got - 2010.06.03 18:28:57.
