data_PCOD9502749
_publ_section_title
;
Structure prediction by ZEFSAII (Michael W. Deem and Ramdas Pophale) SiO2 
 PCOD9502749
Probable space group: C M M A
;
_chemical_formula_sum "Si O2"
_cell_formula_units_Z 80
_cell_length_a 21.706816
_cell_length_b 16.273006
_cell_length_c 11.678462
_cell_angle_alpha 90.000000
_cell_angle_beta 90.000000
_cell_angle_gamma 90.000000
_cell_volume 4125.243241
_symmetry_space_group_name_H-M "C M M A"
_symmetry_group_IT_number 67
_symmetry_cell_setting 'orthorhombic'
loop_
_space_group_symop_operation_xyz
x,y,z
-x,1/2-y,z
x,-y,-z
-x,1/2+y,-z
-x,-y,-z
x,1/2+y,-z
-x,y,z
x,1/2-y,z
1/2+x,1/2+y,z
1/2-x,-y,z
1/2+x,1/2-y,-z
1/2-x,y,-z
1/2-x,1/2-y,-z
1/2+x,y,-z
1/2-x,1/2+y,z
1/2+x,-y,z
loop_
_atom_site_type_symbol
_atom_site_label
_atom_site_fract_x
_atom_site_fract_y
_atom_site_fract_z
Si Si1 0.573062 0.842639 0.201586
Si Si2 0.641523 0.750000 0.514458
Si Si3 0.748269 0.250000 0.674962
Si Si4 0.925350 0.585687 0.561493
Si Si5 0.257422 0.412253 0.183374
Si Si6 0.853457 0.411644 0.003368
O O1 0.500000 0.851784 0.188027
O O2 0.585272 0.750000 0.244541
O O3 0.592812 0.904772 0.303458
O O4 0.604197 0.852468 0.077787
O O5 0.696187 0.750000 0.421132
O O6 0.681704 0.750000 0.629520
O O7 0.602538 0.666468 0.499504
O O8 0.740361 0.167106 0.745774
O O9 0.906919 0.500000 0.500000
O O10 0.000000 0.590379 0.557521
O O11 0.250000 0.500000 0.246734
O O12 0.205826 0.421543 0.085416
O O13 0.323069 0.395414 0.120274
O O14 0.885986 0.500000 0.000000
#
# Coordination Sequence:
#
# PCOD9502749 Si02
#       6
#    16   8   8  16  16  16
#     4  10  20  34  57  87 114 145 188 239 289 344
#     4  11  23  38  54  87 119 147 194 250 291 356
#     4  11  24  35  56  83 116 161 192 228 309 341
#     4  10  21  39  64  86 110 151 198 244 298 348
#     4   9  20  37  54  81 114 149 195 235 272 345
#     4   9  19  34  56  81 110 148 187 231 280 330
#
# _framework density 19.392795
#
# number of rings (size 3 to 8) (size 9 to 14) (size 15 to 20)
#    0.000    2.200    1.000    2.700    2.800    6.000 
#    0.000    2.000    0.000    2.400    0.000    0.000 
#    0.000    0.000    0.000    0.000    0.000    0.000 
#
# Total GULP energy -222757.839794 kJ/mol
# GULP energy per Si atom -5568.945995 kJ/mol
# Density = 1.934866 g / cm^3
# Si number density = 19.392795 Si / 1000 Ang^3
#
#
#
# Elastic Constant Matrix: (Units=GPa)
#
#
# Indices 1 2 3 4 5 6 
#
# 1 44.4008 30.6799 13.3429 0.0000 0.0000 0.0000
# 2 30.6799 151.8094 50.4313 0.0000 0.0000 0.0000
# 3 13.3429 50.4313 50.3064 0.0000 0.0000 0.0000
# 4 0.0000 0.0000 0.0000 53.7601 0.0000 0.0000
# 5 0.0000 0.0000 0.0000 0.0000 28.3233 0.0000
# 6 0.0000 0.0000 0.0000 0.0000 0.0000 28.5778
#
#
#
# Elastic Compliance Matrix: (Units=1/GPa)
#
#
# Indices 1 2 3 4 5 6 
#
# 1 0.026382 -0.004509 -0.002478 0.000000 0.000000 0.000000
# 2 -0.004509 0.010647 -0.009477 0.000000 0.000000 0.000000
# 3 -0.002478 -0.009477 0.030036 0.000000 0.000000 0.000000
# 4 0.000000 0.000000 0.000000 0.018601 0.000000 0.000000
# 5 0.000000 0.000000 0.000000 0.000000 0.035307 0.000000
# 6 0.000000 0.000000 0.000000 0.000000 0.000000 0.034992
#
#
# Mechanical properties :
#
#
# Convention : Reuss Voigt Hill
#
# Bulk Modulus (GPa) = 29.29299 48.38054 38.83677
# Shear Modulus (GPa) = 24.96612 32.26973 28.61793
#
# Velocity S-wave (km/s) = 3.59192 4.08365 3.84565
# Velocity P-wave (km/s) = 5.68686 6.87290 6.30782
#
# Compressibility (1/GPa) = 0.03413786
#
# Stress axis : x y z
#
# Youngs Moduli (GPa) = 37.90462 93.92526 33.29315
#
# Poissons Ratio (x) = 0.42347 0.08249
# Poissons Ratio (y) = 0.17090 0.31553
# Poissons Ratio (z) = 0.09391 0.89016
#
# Static dielectric constant tensor:
#      x y z
#    x 1.701210 0.000000 0.000000 
#    y 0.000000 2.344630 0.000000 
#    z 0.000000 0.000000 1.713910 
# 
# From -- ./inp_files/21670.got.cif
#   From: 2010.05.17/outbox.cif.g08.bks.cpg/sg67_11_cif.got.tgz:21670.got - 2010.06.03 18:28:57.
