data_PCOD9502645
_publ_section_title
;
Structure prediction by ZEFSAII (Michael W. Deem and Ramdas Pophale) SiO2 
 PCOD9502645
Probable space group: C M M A
;
_chemical_formula_sum "Si O2"
_cell_formula_units_Z 72
_cell_length_a 8.692813
_cell_length_b 22.303924
_cell_length_c 19.087908
_cell_angle_alpha 90.000000
_cell_angle_beta 90.000000
_cell_angle_gamma 90.000000
_cell_volume 3700.836910
_symmetry_space_group_name_H-M "C M M A"
_symmetry_group_IT_number 67
_symmetry_cell_setting 'orthorhombic'
loop_
_space_group_symop_operation_xyz
x,y,z
-x,1/2-y,z
x,-y,-z
-x,1/2+y,-z
-x,-y,-z
x,1/2+y,-z
-x,y,z
x,1/2-y,z
1/2+x,1/2+y,z
1/2-x,-y,z
1/2+x,1/2-y,-z
1/2-x,y,-z
1/2-x,1/2-y,-z
1/2+x,y,-z
1/2-x,1/2+y,z
1/2+x,-y,z
loop_
_atom_site_type_symbol
_atom_site_label
_atom_site_fract_x
_atom_site_fract_y
_atom_site_fract_z
Si Si1 0.185010 0.564070 0.420960
Si Si2 0.815549 0.355254 0.181023
Si Si3 0.683308 0.250000 0.923578
Si Si4 0.181604 0.565973 0.070839
Si Si5 0.186032 0.680482 0.659875
O O1 0.250000 0.500000 0.391743
O O2 0.250000 0.567562 0.500000
O O3 0.240357 0.625105 0.382678
O O4 0.000000 0.561301 0.421266
O O5 0.771942 0.305796 0.123862
O O6 0.729963 0.410955 0.147433
O O7 0.777623 0.332891 0.258540
O O8 0.000000 0.364489 0.179151
O O9 0.500000 0.250000 0.929197
O O10 0.750000 0.250000 0.000000
O O11 0.250000 0.500000 0.068738
O O12 0.000000 0.566824 0.063329
O O13 0.250000 0.597235 0.000000
O O14 0.231704 0.750000 0.642713
O O15 0.000000 0.677763 0.651664
#
# Coordination Sequence:
#
# PCOD9502645 Si02
#       5
#    16  16   8  16  16
#     4  11  23  42  68  97 129 165 208 257 307 369
#     4  10  20  37  58  82 114 152 194 240 295 355
#     4  10  20  34  54  80 109 148 193 238 291 344
#     4  11  22  37  56  79 108 146 192 247 304 362
#     4  10  21  40  65  92 127 169 208 254 310 369
#
# _framework density 19.455058999999999
#
# number of rings (size 3 to 8) (size 9 to 14) (size 15 to 20)
#    0.000    1.556    1.111    6.000    0.000    5.333 
#    0.000    0.000    0.000    0.000    0.000    0.000 
#    0.000    0.000    0.000    0.000    0.000    0.000 
#
# Total GULP energy -200713.945450 kJ/mol
# GULP energy per Si atom -5575.387374 kJ/mol
# Density = 1.941078 g / cm^3
# Si number density = 19.455059 Si / 1000 Ang^3
#
#
#
# Elastic Constant Matrix: (Units=GPa)
#
#
# Indices 1 2 3 4 5 6 
#
# 1 71.7705 63.5056 44.4870 0.0000 0.0000 0.0000
# 2 63.5056 148.8008 68.6508 0.0000 0.0000 0.0000
# 3 44.4870 68.6508 94.9089 0.0000 0.0000 0.0000
# 4 0.0000 0.0000 0.0000 23.2138 0.0000 0.0000
# 5 0.0000 0.0000 0.0000 0.0000 62.7143 0.0000
# 6 0.0000 0.0000 0.0000 0.0000 0.0000 19.2259
#
#
#
# Elastic Compliance Matrix: (Units=1/GPa)
#
#
# Indices 1 2 3 4 5 6 
#
# 1 0.024379 -0.007703 -0.005855 0.000000 0.000000 0.000000
# 2 -0.007703 0.012520 -0.005446 0.000000 0.000000 0.000000
# 3 -0.005855 -0.005446 0.017220 0.000000 0.000000 0.000000
# 4 0.000000 0.000000 0.000000 0.043078 0.000000 0.000000
# 5 0.000000 0.000000 0.000000 0.000000 0.015945 0.000000
# 6 0.000000 0.000000 0.000000 0.000000 0.000000 0.052013
#
#
# Mechanical properties :
#
#
# Convention : Reuss Voigt Hill
#
# Bulk Modulus (GPa) = 62.06912 74.30747 68.18829
# Shear Modulus (GPa) = 23.97692 30.28657 27.13175
#
# Velocity S-wave (km/s) = 3.51440 3.94984 3.73847
# Velocity P-wave (km/s) = 6.95997 7.68629 7.33213
#
# Compressibility (1/GPa) = 0.01611107
#
# Stress axis : x y z
#
# Youngs Moduli (GPa) = 41.01947 79.86995 58.07179
#
# Poissons Ratio (x) = 0.61524 0.34003
# Poissons Ratio (y) = 0.31597 0.31624
# Poissons Ratio (z) = 0.24018 0.43495
#
# Static dielectric constant tensor:
#      x y z
#    x 1.629450 0.000000 0.000000 
#    y 0.000000 1.858600 0.000000 
#    z 0.000000 0.000000 1.668250 
# 
# From -- ./inp_files/31977.got.cif
#   From: 2010.05.17/outbox.cif.g08.bks.cpg/sg67_16_cif.got.tgz:31977.got - 2010.06.03 18:28:57.
