data_PCOD9502437
_publ_section_title
;
Structure prediction by ZEFSAII (Michael W. Deem and Ramdas Pophale) SiO2 
 PCOD9502437
Probable space group: C M M A
;
_chemical_formula_sum "Si O2"
_cell_formula_units_Z 64
_cell_length_a 17.529314
_cell_length_b 13.870013
_cell_length_c 11.885946
_cell_angle_alpha 90.000000
_cell_angle_beta 90.000000
_cell_angle_gamma 90.000000
_cell_volume 2889.851601
_symmetry_space_group_name_H-M "C M M A"
_symmetry_group_IT_number 67
_symmetry_cell_setting 'orthorhombic'
loop_
_space_group_symop_operation_xyz
x,y,z
-x,1/2-y,z
x,-y,-z
-x,1/2+y,-z
-x,-y,-z
x,1/2+y,-z
-x,y,z
x,1/2-y,z
1/2+x,1/2+y,z
1/2-x,-y,z
1/2+x,1/2-y,-z
1/2-x,y,-z
1/2-x,1/2-y,-z
1/2+x,y,-z
1/2-x,1/2+y,z
1/2+x,-y,z
loop_
_atom_site_type_symbol
_atom_site_label
_atom_site_fract_x
_atom_site_fract_y
_atom_site_fract_z
Si Si1 0.619247 0.145938 0.768663
Si Si2 0.412614 0.083123 0.250577
Si Si3 0.734328 0.386234 0.375019
Si Si4 0.837082 0.114344 0.986921
O O1 0.586031 0.250000 0.728733
O O2 0.705570 0.147193 0.719112
O O3 0.590850 0.035979 0.742526
O O4 0.618146 0.148685 0.903748
O O5 0.500000 0.110971 0.264979
O O6 0.353157 0.124796 0.340390
O O7 0.379356 0.123351 0.131921
O O8 0.750000 0.500000 0.377698
O O9 0.750000 0.349990 0.500000
O O10 0.750000 0.149371 0.000000
O O11 0.831790 0.000000 0.000000
#
# Coordination Sequence:
#
# PCOD9502437 Si02
#       4
#    16  16  16  16
#     4  10  20  33  55  84 115 149 184 225 279 338
#     4  10  20  36  59  84 111 144 186 236 280 323
#     4   9  18  36  58  81 106 148 198 232 262 326
#     4   9  16  31  54  80 107 146 187 220 263 329
#
# _framework density 22.146466
#
# number of rings (size 3 to 8) (size 9 to 14) (size 15 to 20)
#    0.000    2.500    2.500    0.000    0.000    6.000 
#    0.000   10.000    0.000    2.250    0.000    0.000 
#    0.000    0.000    0.000    0.000    0.000    0.000 
#
# Total GULP energy -178177.185910 kJ/mol
# GULP energy per Si atom -5568.037060 kJ/mol
# Density = 2.209606 g / cm^3
# Si number density = 22.146466 Si / 1000 Ang^3
#
#
#
# Elastic Constant Matrix: (Units=GPa)
#
#
# Indices 1 2 3 4 5 6 
#
# 1 190.7406 5.3669 75.3552 0.0000 0.0000 0.0000
# 2 5.3669 122.8321 17.1074 0.0000 0.0000 0.0000
# 3 75.3552 17.1074 130.4001 0.0000 0.0000 0.0000
# 4 0.0000 0.0000 0.0000 62.8519 0.0000 0.0000
# 5 0.0000 0.0000 0.0000 0.0000 14.1398 0.0000
# 6 0.0000 0.0000 0.0000 0.0000 0.0000 41.1973
#
#
#
# Elastic Compliance Matrix: (Units=1/GPa)
#
#
# Indices 1 2 3 4 5 6 
#
# 1 0.006802 0.000255 -0.003964 0.000000 0.000000 0.000000
# 2 0.000255 0.008302 -0.001236 0.000000 0.000000 0.000000
# 3 -0.003964 -0.001236 0.010122 0.000000 0.000000 0.000000
# 4 0.000000 0.000000 0.000000 0.015910 0.000000 0.000000
# 5 0.000000 0.000000 0.000000 0.000000 0.070722 0.000000
# 6 0.000000 0.000000 0.000000 0.000000 0.000000 0.024273
#
#
# Mechanical properties :
#
#
# Convention : Reuss Voigt Hill
#
# Bulk Modulus (GPa) = 65.21282 71.07019 68.14151
# Shear Modulus (GPa) = 33.08322 46.71403 39.89862
#
# Velocity S-wave (km/s) = 3.86921 4.59772 4.24911
# Velocity P-wave (km/s) = 7.03357 7.76827 7.41003
#
# Compressibility (1/GPa) = 0.01533441
#
# Stress axis : x y z
#
# Youngs Moduli (GPa) = 147.02513 120.44903 98.79885
#
# Poissons Ratio (x) = -0.03070 0.39163
# Poissons Ratio (y) = -0.03748 0.12216
# Poissons Ratio (z) = 0.58279 0.14893
#
# Static dielectric constant tensor:
#      x y z
#    x 1.783750 0.000000 0.000000 
#    y 0.000000 2.099820 0.000000 
#    z 0.000000 0.000000 1.801880 
# 
# From -- ./inp_files/17490.got.cif
#   From: 2010.05.17/outbox.cif.g08.bks.cpg/sg67_9_cif.got.tgz:17490.got - 2010.06.03 18:28:57.
