data_PCOD9502647
_publ_section_title
;
Structure prediction by ZEFSAII (Michael W. Deem and Ramdas Pophale) SiO2 
 PCOD9502647
Probable space group: C M M A
;
_chemical_formula_sum "Si O2"
_cell_formula_units_Z 80
_cell_length_a 18.547712
_cell_length_b 8.764363
_cell_length_c 26.786141
_cell_angle_alpha 90.000000
_cell_angle_beta 90.000000
_cell_angle_gamma 90.000000
_cell_volume 4354.325102
_symmetry_space_group_name_H-M "C M M A"
_symmetry_group_IT_number 67
_symmetry_cell_setting 'orthorhombic'
loop_
_space_group_symop_operation_xyz
x,y,z
-x,1/2-y,z
x,-y,-z
-x,1/2+y,-z
-x,-y,-z
x,1/2+y,-z
-x,y,z
x,1/2-y,z
1/2+x,1/2+y,z
1/2-x,-y,z
1/2+x,1/2-y,-z
1/2-x,y,-z
1/2-x,1/2-y,-z
1/2+x,y,-z
1/2-x,1/2+y,z
1/2+x,-y,z
loop_
_atom_site_type_symbol
_atom_site_label
_atom_site_fract_x
_atom_site_fract_y
_atom_site_fract_z
Si Si1 0.830970 0.433120 0.160861
Si Si2 0.416354 0.066352 0.553031
Si Si3 0.830006 0.066433 0.348265
Si Si4 0.084809 0.067539 0.745684
Si Si5 0.831020 0.067911 0.049978
O O1 0.827076 0.250000 0.165680
O O2 0.750000 0.500000 0.164854
O O3 0.879279 0.502688 0.204229
O O4 0.860721 0.468479 0.105068
O O5 0.500000 0.019366 0.560646
O O6 0.414828 0.250000 0.550256
O O7 0.368419 0.018966 0.600005
O O8 0.391861 0.000000 0.500000
O O9 0.827657 0.250000 0.346536
O O10 0.750000 0.000000 0.345691
O O11 0.875813 0.005650 0.301762
O O12 0.093898 0.250000 0.744256
O O13 0.000000 0.032002 0.744391
O O14 0.827030 0.250000 0.044994
O O15 0.750000 0.000000 0.051269
O O16 0.866487 0.000000 0.000000
#
# Coordination Sequence:
#
# PCOD9502647 Si02
#       5
#    16  16  16  16  16
#     4  10  20  34  54  80 110 143 179 221 269 320
#     4   9  19  36  58  83 111 146 185 223 266 316
#     4  11  23  39  59  83 113 146 182 225 272 322
#     4  11  24  40  58  80 106 139 180 225 274 327
#     4   9  16  26  44  72 104 138 174 214 261 312
#
# _framework density 18.372537000000001
#
# number of rings (size 3 to 8) (size 9 to 14) (size 15 to 20)
#    0.000    2.000    0.000    4.200    0.000    6.800 
#    0.000    4.000    0.000    0.600    0.000    0.000 
#    0.000    0.000    0.000    0.000    0.000    0.000 
#
# Total GULP energy -223289.374978 kJ/mol
# GULP energy per Si atom -5582.234374 kJ/mol
# Density = 1.833072 g / cm^3
# Si number density = 18.372537 Si / 1000 Ang^3
#
#
#
# Elastic Constant Matrix: (Units=GPa)
#
#
# Indices 1 2 3 4 5 6 
#
# 1 98.2814 51.9920 99.4883 0.0000 0.0000 0.0000
# 2 51.9920 64.3413 73.8770 0.0000 0.0000 0.0000
# 3 99.4883 73.8770 224.4442 0.0000 0.0000 0.0000
# 4 0.0000 0.0000 0.0000 36.6895 0.0000 0.0000
# 5 0.0000 0.0000 0.0000 0.0000 -40.2420 0.0000
# 6 0.0000 0.0000 0.0000 0.0000 0.0000 19.4927
#
#
#
# Elastic Compliance Matrix: (Units=1/GPa)
#
#
# Indices 1 2 3 4 5 6 
#
# 1 0.022258 -0.010702 -0.006343 0.000000 0.000000 0.000000
# 2 -0.010702 0.030131 -0.005174 0.000000 0.000000 0.000000
# 3 -0.006343 -0.005174 0.008970 0.000000 0.000000 0.000000
# 4 0.000000 0.000000 0.000000 0.027256 0.000000 0.000000
# 5 0.000000 0.000000 0.000000 0.000000 -0.024850 0.000000
# 6 0.000000 0.000000 0.000000 0.000000 0.000000 0.051301
#
#
# Mechanical properties :
#
#
# Convention : Reuss Voigt Hill
#
# Bulk Modulus (GPa) = 59.10173 93.08684 76.09429
# Shear Modulus (GPa) = 30.27644 13.96867 22.12256
#
# Velocity S-wave (km/s) = 4.06386 2.76035 3.47379
# Velocity P-wave (km/s) = 7.36602 7.80613 7.58927
#
# Compressibility (1/GPa) = 0.01691998
#
# Stress axis : x y z
#
# Youngs Moduli (GPa) = 44.92818 33.18873 111.47973
#
# Poissons Ratio (x) = 0.35519 0.70716
# Poissons Ratio (y) = 0.48083 0.57677
# Poissons Ratio (z) = 0.28500 0.17171
#
# Static dielectric constant tensor:
#      x y z
#    x 1.600500 0.000000 0.000000 
#    y 0.000000 1.615540 0.000000 
#    z 0.000000 0.000000 1.649080 
# 
# From -- ./inp_files/43215.got.cif
#   From: 2010.05.17/outbox.cif.g08.bks.cpg/sg67_22_cif.got.tgz:43215.got - 2010.06.03 18:28:57.
