data_PCOD9502968
_publ_section_title
;
Structure prediction by ZEFSAII (Michael W. Deem and Ramdas Pophale) SiO2 
 PCOD9502968
Probable space group: C M M A
;
_chemical_formula_sum "Si O2"
_cell_formula_units_Z 88
_cell_length_a 23.043947
_cell_length_b 15.000068
_cell_length_c 12.869145
_cell_angle_alpha 90.000000
_cell_angle_beta 90.000000
_cell_angle_gamma 90.000000
_cell_volume 4448.358596
_symmetry_space_group_name_H-M "C M M A"
_symmetry_group_IT_number 67
_symmetry_cell_setting 'orthorhombic'
loop_
_space_group_symop_operation_xyz
x,y,z
-x,1/2-y,z
x,-y,-z
-x,1/2+y,-z
-x,-y,-z
x,1/2+y,-z
-x,y,z
x,1/2-y,z
1/2+x,1/2+y,z
1/2-x,-y,z
1/2+x,1/2-y,-z
1/2-x,y,-z
1/2-x,1/2-y,-z
1/2+x,y,-z
1/2-x,1/2+y,z
1/2+x,-y,z
loop_
_atom_site_type_symbol
_atom_site_label
_atom_site_fract_x
_atom_site_fract_y
_atom_site_fract_z
Si Si1 0.935574 0.602021 0.035514
Si Si2 0.345466 0.942103 0.793414
Si Si3 0.435458 0.750000 0.521100
Si Si4 0.066602 0.553339 0.393019
Si Si5 0.728574 0.587597 0.275485
Si Si6 0.932647 0.750000 0.862074
Si Si7 0.652722 0.250000 0.665978
O O1 0.885132 0.602054 0.120034
O O2 0.000000 0.626689 0.077617
O O3 0.938268 0.500000 0.000000
O O4 0.924622 0.665024 0.937264
O O5 0.387406 0.964766 0.696760
O O6 0.290261 0.879607 0.767785
O O7 0.311885 0.037110 0.810758
O O8 0.500000 0.750000 0.472591
O O9 0.430927 0.659048 0.585444
O O10 0.387338 0.750000 0.433739
O O11 0.078854 0.500000 0.500000
O O12 0.000000 0.529929 0.362764
O O13 0.750000 0.500000 0.340601
O O14 0.692773 0.662824 0.330531
O O15 0.888457 0.750000 0.767271
O O16 0.000000 0.750000 0.826112
#
# Coordination Sequence:
#
# PCOD9502968 Si02
#       7
#    16  16   8  16  16   8   8
#     4  10  20  35  57  85 113 146 190 232 287 347
#     4   9  19  40  54  76 121 150 178 247 276 321
#     4  10  23  36  58  92 112 141 194 235 284 359
#     4  10  20  35  57  85 113 146 190 232 287 347
#     4   8  22  37  58  84 111 147 207 225 268 353
#     4  10  23  36  58  92 112 141 194 235 284 359
#     4  12  19  42  64  76 117 158 176 244 298 306
#
# _framework density 19.782577
#
# number of rings (size 3 to 8) (size 9 to 14) (size 15 to 20)
#    1.091    1.091    0.000    3.000    0.000    2.182 
#    0.000   24.545    0.000    0.000    0.000    0.000 
#    0.000    0.000    0.000    0.000    0.000    0.000 
#
# Total GULP energy -244962.071975 kJ/mol
# GULP energy per Si atom -5567.319818 kJ/mol
# Density = 1.973755 g / cm^3
# Si number density = 19.782577 Si / 1000 Ang^3
#
#
#
# Elastic Constant Matrix: (Units=GPa)
#
#
# Indices 1 2 3 4 5 6 
#
# 1 156.3856 13.5657 54.5295 0.0000 0.0000 0.0000
# 2 13.5657 76.3452 -4.2579 0.0000 0.0000 0.0000
# 3 54.5295 -4.2579 38.5199 0.0000 0.0000 0.0000
# 4 0.0000 0.0000 0.0000 8.7490 0.0000 0.0000
# 5 0.0000 0.0000 0.0000 0.0000 -201.6275 0.0000
# 6 0.0000 0.0000 0.0000 0.0000 0.0000 -8.2120
#
#
#
# Elastic Compliance Matrix: (Units=1/GPa)
#
#
# Indices 1 2 3 4 5 6 
#
# 1 0.013489 -0.003483 -0.019481 0.000000 0.000000 0.000000
# 2 -0.003483 0.014079 0.006487 0.000000 0.000000 0.000000
# 3 -0.019481 0.006487 0.054255 0.000000 0.000000 0.000000
# 4 0.000000 0.000000 0.000000 0.114299 0.000000 0.000000
# 5 0.000000 0.000000 0.000000 0.000000 -0.004960 0.000000
# 6 0.000000 0.000000 0.000000 0.000000 0.000000 -0.121773
#
#
# Mechanical properties :
#
#
# Convention : Reuss Voigt Hill
#
# Bulk Modulus (GPa) = 20.46244 44.32502 32.39373
# Shear Modulus (GPa) = 42.14651 -26.39055 7.87798
#
# Velocity S-wave (km/s) = 4.62073 -3.65640 1.99773
# Velocity P-wave (km/s) = 6.23172 2.15152 4.66172
#
# Compressibility (1/GPa) = 0.04887002
#
# Stress axis : x y z
#
# Youngs Moduli (GPa) = 74.13307 71.02694 18.43153
#
# Poissons Ratio (x) = 0.24741 0.35906
# Poissons Ratio (y) = 0.25823 -0.11957
# Poissons Ratio (z) = 1.44416 -0.46078
#
# Static dielectric constant tensor:
#      x y z
#    x 1.749520 0.000000 0.000000 
#    y 0.000000 1.712400 0.000000 
#    z 0.000000 0.000000 1.672150 
# 
# From -- ./inp_files/29179.got.cif
#   From: 2010.05.17/outbox.cif.g08.bks.cpg/sg67_15_cif.got.tgz:29179.got - 2010.06.03 18:28:57.
