data_PCOD9502173
_publ_section_title
;
Structure prediction by ZEFSAII (Michael W. Deem and Ramdas Pophale) SiO2 
 PCOD9502173
Probable space group: C M M A
;
_chemical_formula_sum "Si O2"
_cell_formula_units_Z 96
_cell_length_a 8.632741
_cell_length_b 19.440896
_cell_length_c 32.185293
_cell_angle_alpha 90.000000
_cell_angle_beta 90.000000
_cell_angle_gamma 90.000000
_cell_volume 5401.600434
_symmetry_space_group_name_H-M "C M M A"
_symmetry_group_IT_number 67
_symmetry_cell_setting 'orthorhombic'
loop_
_space_group_symop_operation_xyz
x,y,z
-x,1/2-y,z
x,-y,-z
-x,1/2+y,-z
-x,-y,-z
x,1/2+y,-z
-x,y,z
x,1/2-y,z
1/2+x,1/2+y,z
1/2-x,-y,z
1/2+x,1/2-y,-z
1/2-x,y,-z
1/2-x,1/2-y,-z
1/2+x,y,-z
1/2-x,1/2+y,z
1/2+x,-y,z
loop_
_atom_site_type_symbol
_atom_site_label
_atom_site_fract_x
_atom_site_fract_y
_atom_site_fract_z
Si Si1 0.688748 0.170813 0.800784
Si Si2 0.813143 0.670731 0.954716
Si Si3 0.185287 0.078056 0.542257
Si Si4 0.185141 0.077265 0.633587
Si Si5 0.687757 0.922946 0.122536
Si Si6 0.813509 0.169887 0.293007
O O1 0.500000 0.171193 0.801102
O O2 0.736468 0.250000 0.808806
O O3 0.739689 0.119043 0.836586
O O4 0.736559 0.151016 0.753993
O O5 0.765666 0.750000 0.946149
O O6 0.762750 0.619803 0.918219
O O7 0.000000 0.669727 0.956014
O O8 0.750000 0.651435 0.000000
O O9 0.250000 0.111188 0.500000
O O10 0.229576 0.106339 0.587735
O O11 0.000000 0.075786 0.539299
O O12 0.250000 0.000000 0.542925
O O13 0.244410 0.123143 0.671203
O O14 0.000000 0.073611 0.634664
O O15 0.250000 0.000000 0.637184
O O16 0.500000 0.924567 0.122782
O O17 0.750000 0.000000 0.122180
O O18 0.772679 0.250000 0.299237
O O19 0.000000 0.164663 0.294364
#
# Coordination Sequence:
#
# PCOD9502173 Si02
#       6
#    16  16  16  16  16  16
#     4   8  15  31  54  74  92 121 163 203 236 280
#     4   9  18  33  53  74  95 125 165 203 238 279
#     4   9  16  26  42  65  92 123 158 197 240 285
#     4  10  20  32  48  72 101 131 163 201 245 292
#     4  10  20  33  50  73 101 130 159 195 241 289
#     4   9  18  33  53  75  98 127 163 202 246 295
#
# _framework density 17.77251
#
# number of rings (size 3 to 8) (size 9 to 14) (size 15 to 20)
#    0.000    2.833    0.000    3.000    0.000    6.000 
#    0.000    4.167    0.000    3.000    0.000    0.000 
#    0.000    0.000    0.000    0.000    0.000    0.000 
#
# Total GULP energy -267485.547698 kJ/mol
# GULP energy per Si atom -5572.615577 kJ/mol
# Density = 1.773206 g / cm^3
# Si number density = 17.772510 Si / 1000 Ang^3
#
#
#
# Elastic Constant Matrix: (Units=GPa)
#
#
# Indices 1 2 3 4 5 6 
#
# 1 17.2234 25.3620 39.7397 0.0000 0.0000 0.0000
# 2 25.3620 92.1576 117.0565 0.0000 0.0000 0.0000
# 3 39.7397 117.0565 217.8561 0.0000 0.0000 0.0000
# 4 0.0000 0.0000 0.0000 43.6890 0.0000 0.0000
# 5 0.0000 0.0000 0.0000 0.0000 44.6608 0.0000
# 6 0.0000 0.0000 0.0000 0.0000 0.0000 24.8283
#
#
#
# Elastic Compliance Matrix: (Units=1/GPa)
#
#
# Indices 1 2 3 4 5 6 
#
# 1 0.106101 -0.014538 -0.011543 0.000000 0.000000 0.000000
# 2 -0.014538 0.036166 -0.016781 0.000000 0.000000 0.000000
# 3 -0.011543 -0.016781 0.015712 0.000000 0.000000 0.000000
# 4 0.000000 0.000000 0.000000 0.022889 0.000000 0.000000
# 5 0.000000 0.000000 0.000000 0.000000 0.022391 0.000000
# 6 0.000000 0.000000 0.000000 0.000000 0.000000 0.040277
#
#
# Mechanical properties :
#
#
# Convention : Reuss Voigt Hill
#
# Bulk Modulus (GPa) = 13.83952 76.83926 45.33939
# Shear Modulus (GPa) = 14.15050 32.30753 23.22902
#
# Velocity S-wave (km/s) = 2.82477 4.26824 3.61919
# Velocity P-wave (km/s) = 4.29453 8.22309 6.55981
#
# Compressibility (1/GPa) = 0.07225684
#
# Stress axis : x y z
#
# Youngs Moduli (GPa) = 9.42497 27.65016 63.64512
#
# Poissons Ratio (x) = 0.40198 0.73464
# Poissons Ratio (y) = 0.13702 1.06800
# Poissons Ratio (z) = 0.10879 0.46399
#
# Static dielectric constant tensor:
#      x y z
#    x 1.607570 0.000000 0.000000 
#    y 0.000000 1.576250 0.000000 
#    z 0.000000 0.000000 1.636300 
# 
# From -- ./inp_files/43498.got.cif
#   From: 2010.05.17/outbox.cif.g08.bks.cpg/sg67_22_cif.got.tgz:43498.got - 2010.06.03 18:28:57.
