data_PCOD9502537
_publ_section_title
;
Structure prediction by ZEFSAII (Michael W. Deem and Ramdas Pophale) SiO2 
 PCOD9502537
Probable space group: C M M A
;
_chemical_formula_sum "Si O2"
_cell_formula_units_Z 104
_cell_length_a 8.277975
_cell_length_b 25.420839
_cell_length_c 28.709004
_cell_angle_alpha 90.000000
_cell_angle_beta 90.000000
_cell_angle_gamma 90.000000
_cell_volume 6041.323840
_symmetry_space_group_name_H-M "C M M A"
_symmetry_group_IT_number 67
_symmetry_cell_setting 'orthorhombic'
loop_
_space_group_symop_operation_xyz
x,y,z
-x,1/2-y,z
x,-y,-z
-x,1/2+y,-z
-x,-y,-z
x,1/2+y,-z
-x,y,z
x,1/2-y,z
1/2+x,1/2+y,z
1/2-x,-y,z
1/2+x,1/2-y,-z
1/2-x,y,-z
1/2-x,1/2-y,-z
1/2+x,y,-z
1/2-x,1/2+y,z
1/2+x,-y,z
loop_
_atom_site_type_symbol
_atom_site_label
_atom_site_fract_x
_atom_site_fract_y
_atom_site_fract_z
Si Si1 0.695011 0.189185 0.448329
Si Si2 0.807914 0.643580 0.353771
Si Si3 0.692395 0.059121 0.720552
Si Si4 0.304795 0.250000 0.947026
Si Si5 0.695153 0.250000 0.694576
Si Si6 0.303141 0.663159 0.125913
Si Si7 0.304559 0.440556 0.826426
Si Si8 0.303909 0.750000 0.199351
O O1 0.500000 0.189968 0.447393
O O2 0.749421 0.250000 0.439843
O O3 0.750000 0.174237 0.500000
O O4 0.751976 0.150756 0.407042
O O5 0.744239 0.597831 0.320475
O O6 0.760860 0.698357 0.329938
O O7 0.000000 0.638113 0.355542
O O8 0.500000 0.060018 0.722535
O O9 0.749894 0.073123 0.773299
O O10 0.750000 0.000000 0.711293
O O11 0.500000 0.250000 0.945515
O O12 0.250279 0.302392 0.918695
O O13 0.250000 0.250000 0.000000
O O14 0.500000 0.250000 0.693217
O O15 0.750929 0.250000 0.748035
O O16 0.500000 0.662048 0.124032
O O17 0.248623 0.603933 0.137014
O O18 0.255964 0.698817 0.170228
O O19 0.500000 0.439902 0.826434
O O20 0.250000 0.500000 0.836555
O O21 0.500000 0.750000 0.200073
#
# Coordination Sequence:
#
# PCOD9502537 Si02
#       8
#    16  16  16   8   8  16  16   8
#     4   9  18  33  50  69  94 124 158 198 245 294
#     4  11  21  34  49  70 102 132 159 198 246 295
#     4  10  20  34  52  75 100 132 169 203 239 284
#     4   9  17  30  50  72  94 123 158 197 245 289
#     4  11  20  29  46  73 100 129 162 197 240 294
#     4   8  14  27  47  68  91 123 158 194 237 284
#     4   9  17  30  48  70  97 126 162 200 233 277
#     4   8  14  25  42  65  91 118 155 196 230 275
#
# _framework density 17.214769
#
# number of rings (size 3 to 8) (size 9 to 14) (size 15 to 20)
#    0.000    2.615    0.769    3.000    0.000    4.308 
#    0.000    0.769    0.000    6.462    0.000    6.462 
#    0.000    0.000    0.000    0.000    0.000    0.000 
#
# Total GULP energy -289740.034643 kJ/mol
# GULP energy per Si atom -5571.923743 kJ/mol
# Density = 1.717559 g / cm^3
# Si number density = 17.214769 Si / 1000 Ang^3
#
#
#
# Elastic Constant Matrix: (Units=GPa)
#
#
# Indices 1 2 3 4 5 6 
#
# 1 10.1836 13.9802 12.2341 0.0000 0.0000 0.0000
# 2 13.9802 125.0557 83.4916 0.0000 0.0000 0.0000
# 3 12.2341 83.4916 143.8344 0.0000 0.0000 0.0000
# 4 0.0000 0.0000 0.0000 14.6752 0.0000 0.0000
# 5 0.0000 0.0000 0.0000 0.0000 20.7960 0.0000
# 6 0.0000 0.0000 0.0000 0.0000 0.0000 24.4655
#
#
#
# Elastic Compliance Matrix: (Units=1/GPa)
#
#
# Indices 1 2 3 4 5 6 
#
# 1 0.117299 -0.010535 -0.003862 0.000000 0.000000 0.000000
# 2 -0.010535 0.014002 -0.007232 0.000000 0.000000 0.000000
# 3 -0.003862 -0.007232 0.011479 0.000000 0.000000 0.000000
# 4 0.000000 0.000000 0.000000 0.068142 0.000000 0.000000
# 5 0.000000 0.000000 0.000000 0.000000 0.048086 0.000000
# 6 0.000000 0.000000 0.000000 0.000000 0.000000 0.040874
#
#
# Mechanical properties :
#
#
# Convention : Reuss Voigt Hill
#
# Bulk Modulus (GPa) = 10.04792 55.38727 32.71760
# Shear Modulus (GPa) = 13.28677 23.27852 18.28265
#
# Velocity S-wave (km/s) = 2.78119 3.68127 3.26242
# Velocity P-wave (km/s) = 4.02030 7.09318 5.76524
#
# Compressibility (1/GPa) = 0.09952304
#
# Stress axis : x y z
#
# Youngs Moduli (GPa) = 8.52523 71.41614 87.11666
#
# Poissons Ratio (x) = 0.75235 0.33644
# Poissons Ratio (y) = 0.08981 0.63002
# Poissons Ratio (z) = 0.03292 0.51648
#
# Static dielectric constant tensor:
#      x y z
#    x 1.605550 0.000000 0.000000 
#    y 0.000000 1.563010 0.000000 
#    z 0.000000 0.000000 1.594300 
# 
# From -- ./inp_files/43762.got.cif
#   From: 2010.05.17/outbox.cif.g08.bks.cpg/sg67_22_cif.got.tgz:43762.got - 2010.06.03 18:28:57.
