data_PCOD9502124
_publ_section_title
;
Structure prediction by ZEFSAII (Michael W. Deem and Ramdas Pophale) SiO2 
 PCOD9502124
Probable space group: C M M A
;
_chemical_formula_sum "Si O2"
_cell_formula_units_Z 80
_cell_length_a 27.798707
_cell_length_b 8.661763
_cell_length_c 20.349903
_cell_angle_alpha 90.000000
_cell_angle_beta 90.000000
_cell_angle_gamma 90.000000
_cell_volume 4899.967913
_symmetry_space_group_name_H-M "C M M A"
_symmetry_group_IT_number 67
_symmetry_cell_setting 'orthorhombic'
loop_
_space_group_symop_operation_xyz
x,y,z
-x,1/2-y,z
x,-y,-z
-x,1/2+y,-z
-x,-y,-z
x,1/2+y,-z
-x,y,z
x,1/2-y,z
1/2+x,1/2+y,z
1/2-x,-y,z
1/2+x,1/2-y,-z
1/2-x,y,-z
1/2-x,1/2-y,-z
1/2+x,y,-z
1/2-x,1/2+y,z
1/2+x,-y,z
loop_
_atom_site_type_symbol
_atom_site_label
_atom_site_fract_x
_atom_site_fract_y
_atom_site_fract_z
Si Si1 0.441737 0.574253 0.432022
Si Si2 0.196555 0.565571 0.927888
Si Si3 0.944419 0.064436 0.708883
Si Si4 0.442731 0.925618 0.068168
Si Si5 0.380822 0.069234 0.172123
O O1 0.424082 0.500000 0.500000
O O2 0.500000 0.577197 0.436396
O O3 0.424937 0.750000 0.426121
O O4 0.431575 0.482261 0.365390
O O5 0.197962 0.750000 0.932076
O O6 0.250000 0.500000 0.916096
O O7 0.161886 0.513253 0.868256
O O8 0.181714 0.500000 0.000000
O O9 0.945900 0.250000 0.714406
O O10 0.902669 0.009620 0.758782
O O11 0.000000 0.009023 0.722528
O O12 0.500000 0.916653 0.067614
O O13 0.424029 0.750000 0.076562
O O14 0.425893 0.039647 0.124458
O O15 0.426910 0.000000 0.000000
O O16 0.369041 0.250000 0.178031
#
# Coordination Sequence:
#
# PCOD9502124 Si02
#       5
#    16  16  16  16  16
#     4   9  16  26  42  63  89 123 162 200 234 270
#     4  11  22  38  57  75  94 117 151 195 243 292
#     4   9  18  31  46  66  95 130 164 196 231 273
#     4  10  20  32  45  62  86 118 156 194 229 269
#     4  11  21  33  49  69  94 123 154 190 236 285
#
# _framework density 16.326637999999999
#
# number of rings (size 3 to 8) (size 9 to 14) (size 15 to 20)
#    0.000    2.000    0.000    5.400    0.000    6.000 
#    0.000    2.000    0.000    0.000    0.000    0.000 
#    0.000    0.800    0.000    8.400    0.000    4.000 
#
# Total GULP energy -222874.582616 kJ/mol
# GULP energy per Si atom -5571.864565 kJ/mol
# Density = 1.628948 g / cm^3
# Si number density = 16.326638 Si / 1000 Ang^3
#
#
#
# Elastic Constant Matrix: (Units=GPa)
#
#
# Indices 1 2 3 4 5 6 
#
# 1 78.8022 30.8374 46.3428 0.0000 0.0000 0.0000
# 2 30.8374 59.9416 21.2169 0.0000 0.0000 0.0000
# 3 46.3428 21.2169 119.2676 0.0000 0.0000 0.0000
# 4 0.0000 0.0000 0.0000 23.5354 0.0000 0.0000
# 5 0.0000 0.0000 0.0000 0.0000 13.4243 0.0000
# 6 0.0000 0.0000 0.0000 0.0000 0.0000 14.8735
#
#
#
# Elastic Compliance Matrix: (Units=1/GPa)
#
#
# Indices 1 2 3 4 5 6 
#
# 1 0.019340 -0.007779 -0.006131 0.000000 0.000000 0.000000
# 2 -0.007779 0.020933 -0.000701 0.000000 0.000000 0.000000
# 3 -0.006131 -0.000701 0.010891 0.000000 0.000000 0.000000
# 4 0.000000 0.000000 0.000000 0.042489 0.000000 0.000000
# 5 0.000000 0.000000 0.000000 0.000000 0.074492 0.000000
# 6 0.000000 0.000000 0.000000 0.000000 0.000000 0.067234
#
#
# Mechanical properties :
#
#
# Convention : Reuss Voigt Hill
#
# Bulk Modulus (GPa) = 45.57510 50.53397 48.05453
# Shear Modulus (GPa) = 18.38807 21.00760 19.69784
#
# Velocity S-wave (km/s) = 3.35962 3.59096 3.47722
# Velocity P-wave (km/s) = 6.55931 6.94351 6.75415
#
# Compressibility (1/GPa) = 0.02194181
#
# Stress axis : x y z
#
# Youngs Moduli (GPa) = 51.70700 47.77089 91.81549
#
# Poissons Ratio (x) = 0.37163 0.56290
# Poissons Ratio (y) = 0.40225 0.06437
# Poissons Ratio (z) = 0.31700 0.03349
#
# Static dielectric constant tensor:
#      x y z
#    x 1.561560 0.000000 0.000000 
#    y 0.000000 1.577420 0.000000 
#    z 0.000000 0.000000 1.469690 
# 
# From -- ./inp_files/32139.got.cif
#   From: 2010.05.17/outbox.cif.g08.bks.cpg/sg67_17_cif.got.tgz:32139.got - 2010.06.03 18:28:57.
