data_PCOD9502897
_publ_section_title
;
Structure prediction by ZEFSAII (Michael W. Deem and Ramdas Pophale) SiO2 
 PCOD9502897
Probable space group: C M M A
;
_chemical_formula_sum "Si O2"
_cell_formula_units_Z 80
_cell_length_a 15.402107
_cell_length_b 31.259668
_cell_length_c 7.408720
_cell_angle_alpha 90.000000
_cell_angle_beta 90.000000
_cell_angle_gamma 90.000000
_cell_volume 3567.037532
_symmetry_space_group_name_H-M "C M M A"
_symmetry_group_IT_number 67
_symmetry_cell_setting 'orthorhombic'
loop_
_space_group_symop_operation_xyz
x,y,z
-x,1/2-y,z
x,-y,-z
-x,1/2+y,-z
-x,-y,-z
x,1/2+y,-z
-x,y,z
x,1/2-y,z
1/2+x,1/2+y,z
1/2-x,-y,z
1/2+x,1/2-y,-z
1/2-x,y,-z
1/2-x,1/2-y,-z
1/2+x,y,-z
1/2-x,1/2+y,z
1/2+x,-y,z
loop_
_atom_site_type_symbol
_atom_site_label
_atom_site_fract_x
_atom_site_fract_y
_atom_site_fract_z
Si Si1 0.000000 0.550573 0.468722
Si Si2 0.395650 0.796414 0.535108
Si Si3 0.353184 0.795430 0.962577
Si Si4 0.847004 0.610812 0.468169
Si Si5 0.500000 0.549894 0.963399
Si Si6 0.852210 0.611971 0.036157
O O1 0.000000 0.500000 0.500000
O O2 0.083343 0.576833 0.537553
O O3 0.000000 0.554460 0.252467
O O4 0.500000 0.799011 0.522245
O O5 0.366531 0.750000 0.459660
O O6 0.371079 0.795324 0.747721
O O7 0.357295 0.840574 0.458912
O O8 0.389123 0.750000 0.032337
O O9 0.383919 0.841437 0.032490
O O10 0.250000 0.795487 0.000000
O O11 0.750000 0.595722 0.500000
O O12 0.860459 0.614032 0.253007
O O13 0.585762 0.574429 0.030751
O O14 0.500000 0.500000 0.000000
O O15 0.750000 0.605889 0.000000
#
# Coordination Sequence:
#
# PCOD9502897 Si02
#       6
#     8  16  16  16   8  16
#     4  10  22  40  57  77 107 139 176 226 273 318
#     4   9  16  28  50  78 107 143 182 216 258 318
#     4   8  14  25  45  75 106 135 169 209 253 302
#     4  10  20  35  56  81 109 140 178 219 267 316
#     4  10  22  38  57  77 101 137 176 220 267 318
#     4   9  19  35  54  78 109 138 171 216 260 312
#
# _framework density 22.427572999999999
#
# number of rings (size 3 to 8) (size 9 to 14) (size 15 to 20)
#    0.000    2.800    1.000    0.000    4.200    2.800 
#    0.000    4.000    0.000    0.000    0.000    0.000 
#    0.000    0.000    0.000    0.000    0.000    0.000 
#
# Total GULP energy -223168.146599 kJ/mol
# GULP energy per Si atom -5579.203665 kJ/mol
# Density = 2.237653 g / cm^3
# Si number density = 22.427573 Si / 1000 Ang^3
#
#
#
# Elastic Constant Matrix: (Units=GPa)
#
#
# Indices 1 2 3 4 5 6 
#
# 1 134.0440 103.5884 -7.7275 0.0000 0.0000 0.0000
# 2 103.5884 250.7103 4.0134 0.0000 0.0000 0.0000
# 3 -7.7275 4.0134 70.4280 0.0000 0.0000 0.0000
# 4 0.0000 0.0000 0.0000 9.9988 0.0000 0.0000
# 5 0.0000 0.0000 0.0000 0.0000 14.2142 0.0000
# 6 0.0000 0.0000 0.0000 0.0000 0.0000 11.8388
#
#
#
# Elastic Compliance Matrix: (Units=1/GPa)
#
#
# Indices 1 2 3 4 5 6 
#
# 1 0.011112 -0.004615 0.001482 0.000000 0.000000 0.000000
# 2 -0.004615 0.005909 -0.000843 0.000000 0.000000 0.000000
# 3 0.001482 -0.000843 0.014410 0.000000 0.000000 0.000000
# 4 0.000000 0.000000 0.000000 0.100012 0.000000 0.000000
# 5 0.000000 0.000000 0.000000 0.000000 0.070352 0.000000
# 6 0.000000 0.000000 0.000000 0.000000 0.000000 0.084468
#
#
# Mechanical properties :
#
#
# Convention : Reuss Voigt Hill
#
# Bulk Modulus (GPa) = 42.59137 72.77009 57.68073
# Shear Modulus (GPa) = 16.55405 30.89757 23.72581
#
# Velocity S-wave (km/s) = 2.71977 3.71571 3.25604
# Velocity P-wave (km/s) = 5.37538 7.13623 6.31746
#
# Compressibility (1/GPa) = 0.02347894
#
# Stress axis : x y z
#
# Youngs Moduli (GPa) = 89.99143 169.23311 69.39831
#
# Poissons Ratio (x) = 0.78102 -0.10287
# Poissons Ratio (y) = 0.41532 0.05851
# Poissons Ratio (z) = -0.13339 0.14268
#
# Static dielectric constant tensor:
#      x y z
#    x 1.830480 0.000000 0.000000 
#    y 0.000000 1.864210 0.000000 
#    z 0.000000 0.000000 1.949140 
# 
# From -- ./inp_files/16830.got.cif
#   From: 2010.05.17/outbox.cif.g08.bks.cpg/sg67_9_cif.got.tgz:16830.got - 2010.06.03 18:28:57.
