data_PCOD9502750
_publ_section_title
;
Structure prediction by ZEFSAII (Michael W. Deem and Ramdas Pophale) SiO2 
 PCOD9502750
Probable space group: C M M A
;
_chemical_formula_sum "Si O2"
_cell_formula_units_Z 96
_cell_length_a 26.870775
_cell_length_b 17.285219
_cell_length_c 10.188671
_cell_angle_alpha 90.000000
_cell_angle_beta 90.000000
_cell_angle_gamma 90.000000
_cell_volume 4732.303803
_symmetry_space_group_name_H-M "C M M A"
_symmetry_group_IT_number 67
_symmetry_cell_setting 'orthorhombic'
loop_
_space_group_symop_operation_xyz
x,y,z
-x,1/2-y,z
x,-y,-z
-x,1/2+y,-z
-x,-y,-z
x,1/2+y,-z
-x,y,z
x,1/2-y,z
1/2+x,1/2+y,z
1/2-x,-y,z
1/2+x,1/2-y,-z
1/2-x,y,-z
1/2-x,1/2-y,-z
1/2+x,y,-z
1/2-x,1/2+y,z
1/2+x,-y,z
loop_
_atom_site_type_symbol
_atom_site_label
_atom_site_fract_x
_atom_site_fract_y
_atom_site_fract_z
Si Si1 0.657460 0.839431 0.048673
Si Si2 0.056457 0.427483 0.095425
Si Si3 0.552603 0.570695 0.397069
Si Si4 0.697788 0.543693 0.830823
Si Si5 0.763157 0.163553 0.292988
Si Si6 0.341509 0.435768 0.609745
O O1 0.657378 0.750000 0.996364
O O2 0.674742 0.909057 0.951850
O O3 0.601008 0.864651 0.086541
O O4 0.698629 0.836821 0.165910
O O5 0.053268 0.456502 0.245872
O O6 0.000000 0.398104 0.063934
O O7 0.066556 0.500000 0.000000
O O8 0.552956 0.500000 0.500000
O O9 0.500000 0.613516 0.416710
O O10 0.606472 0.608887 0.407605
O O11 0.750000 0.500000 0.860123
O O12 0.715707 0.612117 0.736107
O O13 0.664219 0.483771 0.747889
O O14 0.749670 0.250000 0.322090
O O15 0.796405 0.122268 0.400314
O O16 0.338075 0.500000 0.500000
#
# Coordination Sequence:
#
# PCOD9502750 Si02
#       6
#    16  16  16  16  16  16
#     4  11  22  36  55  81 114 147 184 231 290 347
#     4  10  20  34  57  87 115 145 185 233 286 343
#     4   9  17  32  55  81 108 139 179 225 272 328
#     4  10  22  35  55  80 107 150 194 236 277 337
#     4  10  21  36  53  77 109 144 182 231 281 331
#     4  10  20  36  57  82 108 142 187 234 281 333
#
# _framework density 20.286102
#
# number of rings (size 3 to 8) (size 9 to 14) (size 15 to 20)
#    0.000    2.000    1.667    2.000    2.333    6.667 
#    0.000    2.500    0.000    0.500    0.000    0.000 
#    0.000    9.333    0.000    0.000    0.000    0.000 
#
# Total GULP energy -267326.513147 kJ/mol
# GULP energy per Si atom -5569.302357 kJ/mol
# Density = 2.023993 g / cm^3
# Si number density = 20.286102 Si / 1000 Ang^3
#
#
#
# Elastic Constant Matrix: (Units=GPa)
#
#
# Indices 1 2 3 4 5 6 
#
# 1 109.9645 21.2884 -3.6368 0.0000 0.0000 0.0000
# 2 21.2884 94.7845 8.8369 0.0000 0.0000 0.0000
# 3 -3.6368 8.8369 60.3129 0.0000 0.0000 0.0000
# 4 0.0000 0.0000 0.0000 12.7358 0.0000 0.0000
# 5 0.0000 0.0000 0.0000 0.0000 17.3998 0.0000
# 6 0.0000 0.0000 0.0000 0.0000 0.0000 5.2929
#
#
#
# Elastic Compliance Matrix: (Units=1/GPa)
#
#
# Indices 1 2 3 4 5 6 
#
# 1 0.009555 -0.002230 0.000903 0.000000 0.000000 0.000000
# 2 -0.002230 0.011217 -0.001778 0.000000 0.000000 0.000000
# 3 0.000903 -0.001778 0.016895 0.000000 0.000000 0.000000
# 4 0.000000 0.000000 0.000000 0.078519 0.000000 0.000000
# 5 0.000000 0.000000 0.000000 0.000000 0.057472 0.000000
# 6 0.000000 0.000000 0.000000 0.000000 0.000000 0.188933
#
#
# Mechanical properties :
#
#
# Convention : Reuss Voigt Hill
#
# Bulk Modulus (GPa) = 31.78952 35.33767 33.56359
# Shear Modulus (GPa) = 13.18261 22.99060 18.08661
#
# Velocity S-wave (km/s) = 2.55195 3.37013 2.98917
# Velocity P-wave (km/s) = 4.93841 5.70974 5.33803
#
# Compressibility (1/GPa) = 0.03145691
#
# Stress axis : x y z
#
# Youngs Moduli (GPa) = 104.65198 89.15088 59.18860
#
# Poissons Ratio (x) = 0.19884 -0.05345
# Poissons Ratio (y) = 0.23341 0.10524
# Poissons Ratio (z) = -0.09450 0.15851
#
# Static dielectric constant tensor:
#      x y z
#    x 1.787850 0.000000 0.000000 
#    y 0.000000 1.693680 0.000000 
#    z 0.000000 0.000000 1.823100 
# 
# From -- ./inp_files/22924.got.cif
#   From: 2010.05.17/outbox.cif.g08.bks.cpg/sg67_12_cif.got.tgz:22924.got - 2010.06.03 18:28:57.
