data_PCOD9502544
_publ_section_title
;
Structure prediction by ZEFSAII (Michael W. Deem and Ramdas Pophale) SiO2 
 PCOD9502544
Probable space group: C M M A
;
_chemical_formula_sum "Si O2"
_cell_formula_units_Z 96
_cell_length_a 15.486995
_cell_length_b 8.984621
_cell_length_c 32.534142
_cell_angle_alpha 90.000000
_cell_angle_beta 90.000000
_cell_angle_gamma 90.000000
_cell_volume 4526.956047
_symmetry_space_group_name_H-M "C M M A"
_symmetry_group_IT_number 67
_symmetry_cell_setting 'orthorhombic'
loop_
_space_group_symop_operation_xyz
x,y,z
-x,1/2-y,z
x,-y,-z
-x,1/2+y,-z
-x,-y,-z
x,1/2+y,-z
-x,y,z
x,1/2-y,z
1/2+x,1/2+y,z
1/2-x,-y,z
1/2+x,1/2-y,-z
1/2-x,y,-z
1/2-x,1/2-y,-z
1/2+x,y,-z
1/2-x,1/2+y,z
1/2+x,-y,z
loop_
_atom_site_type_symbol
_atom_site_label
_atom_site_fract_x
_atom_site_fract_y
_atom_site_fract_z
Si Si1 0.154816 0.427704 0.293337
Si Si2 0.394137 0.921302 0.457803
Si Si3 0.397512 0.416723 0.375765
Si Si4 0.344574 0.427541 0.121855
Si Si5 0.602166 0.584365 0.039734
Si Si6 0.653599 0.571147 0.787973
O O1 0.157913 0.250000 0.290341
O O2 0.250000 0.500000 0.294379
O O3 0.114599 0.481517 0.335935
O O4 0.112057 0.497081 0.252237
O O5 0.500000 0.922014 0.457407
O O6 0.366717 0.750000 0.456708
O O7 0.367386 0.000000 0.500000
O O8 0.363405 0.008351 0.417355
O O9 0.500000 0.402618 0.381745
O O10 0.361550 0.250000 0.369004
O O11 0.338589 0.250000 0.118346
O O12 0.250000 0.500000 0.122165
O O13 0.388447 0.494475 0.081803
O O14 0.385360 0.459343 0.166862
O O15 0.500000 0.599661 0.032474
O O16 0.639936 0.750000 0.044039
O O17 0.639075 0.500000 0.000000
O O18 0.659095 0.750000 0.782637
O O19 0.750000 0.500000 0.789888
#
# Coordination Sequence:
#
# PCOD9502544 Si02
#       6
#    16  16  16  16  16  16
#     4  11  21  34  54  77 103 136 174 212 252 305
#     4   9  16  27  45  70  99 131 168 208 252 302
#     4  10  20  34  52  75 104 135 169 213 261 304
#     4  10  20  34  55  81 107 134 168 212 257 301
#     4  10  21  37  56  77 104 138 174 211 253 304
#     4   9  17  31  51  75 102 133 169 209 253 300
#
# _framework density 21.206302000000001
#
# number of rings (size 3 to 8) (size 9 to 14) (size 15 to 20)
#    0.000    2.167    0.000    5.000    0.000    6.333 
#    0.000    2.500    0.000    1.500    0.000    3.500 
#    0.000    0.000    0.000    0.000    0.000    0.000 
#
# Total GULP energy -267882.386150 kJ/mol
# GULP energy per Si atom -5580.883045 kJ/mol
# Density = 2.115804 g / cm^3
# Si number density = 21.206302 Si / 1000 Ang^3
#
#
#
# Elastic Constant Matrix: (Units=GPa)
#
#
# Indices 1 2 3 4 5 6 
#
# 1 18.3204 7.9434 8.2688 0.0000 0.0000 0.0000
# 2 7.9434 186.8469 110.6362 0.0000 0.0000 0.0000
# 3 8.2688 110.6362 221.0676 0.0000 0.0000 0.0000
# 4 0.0000 0.0000 0.0000 86.5640 0.0000 0.0000
# 5 0.0000 0.0000 0.0000 0.0000 13.3697 0.0000
# 6 0.0000 0.0000 0.0000 0.0000 0.0000 15.9534
#
#
#
# Elastic Compliance Matrix: (Units=1/GPa)
#
#
# Indices 1 2 3 4 5 6 
#
# 1 0.055863 -0.001617 -0.001280 0.000000 0.000000 0.000000
# 2 -0.001617 0.007653 -0.003769 0.000000 0.000000 0.000000
# 3 -0.001280 -0.003769 0.006458 0.000000 0.000000 0.000000
# 4 0.000000 0.000000 0.000000 0.011552 0.000000 0.000000
# 5 0.000000 0.000000 0.000000 0.000000 0.074796 0.000000
# 6 0.000000 0.000000 0.000000 0.000000 0.000000 0.062683
#
#
# Mechanical properties :
#
#
# Convention : Reuss Voigt Hill
#
# Bulk Modulus (GPa) = 17.65531 75.54798 46.60164
# Shear Modulus (GPa) = 19.90311 43.13652 31.51982
#
# Velocity S-wave (km/s) = 3.06690 4.51503 3.85949
# Velocity P-wave (km/s) = 4.56998 7.92990 6.47178
#
# Compressibility (1/GPa) = 0.05664019
#
# Stress axis : x y z
#
# Youngs Moduli (GPa) = 17.90102 130.67367 154.85058
#
# Poissons Ratio (x) = 0.21127 0.19827
# Poissons Ratio (y) = 0.02894 0.58369
# Poissons Ratio (z) = 0.02292 0.49256
#
# Static dielectric constant tensor:
#      x y z
#    x 1.814230 0.000000 0.000000 
#    y 0.000000 1.736230 0.000000 
#    z 0.000000 0.000000 1.796900 
# 
# From -- ./inp_files/43463.got.cif
#   From: 2010.05.17/outbox.cif.g08.bks.cpg/sg67_22_cif.got.tgz:43463.got - 2010.06.03 18:28:57.
