data_PCOD9502466
_publ_section_title
;
Structure prediction by ZEFSAII (Michael W. Deem and Ramdas Pophale) SiO2 
 PCOD9502466
Probable space group: C M M A
;
_chemical_formula_sum "Si O2"
_cell_formula_units_Z 80
_cell_length_a 18.485633
_cell_length_b 14.856462
_cell_length_c 16.796501
_cell_angle_alpha 90.000000
_cell_angle_beta 90.000000
_cell_angle_gamma 90.000000
_cell_volume 4612.841617
_symmetry_space_group_name_H-M "C M M A"
_symmetry_group_IT_number 67
_symmetry_cell_setting 'orthorhombic'
loop_
_space_group_symop_operation_xyz
x,y,z
-x,1/2-y,z
x,-y,-z
-x,1/2+y,-z
-x,-y,-z
x,1/2+y,-z
-x,y,z
x,1/2-y,z
1/2+x,1/2+y,z
1/2-x,-y,z
1/2+x,1/2-y,-z
1/2-x,y,-z
1/2-x,1/2-y,-z
1/2+x,y,-z
1/2-x,1/2+y,z
1/2+x,-y,z
loop_
_atom_site_type_symbol
_atom_site_label
_atom_site_fract_x
_atom_site_fract_y
_atom_site_fract_z
Si Si1 0.162021 0.146781 0.991691
Si Si2 0.822974 0.355613 0.452503
Si Si3 0.337958 0.993215 0.126504
Si Si4 0.585598 0.647036 0.606575
Si Si5 0.164279 0.486572 0.306440
O O1 0.137056 0.250000 0.990480
O O2 0.140574 0.088443 0.913900
O O3 0.250000 0.148973 0.000000
O O4 0.138919 0.086737 0.067293
O O5 0.811852 0.250000 0.434311
O O6 0.750000 0.386663 0.500000
O O7 0.886771 0.365491 0.516451
O O8 0.842464 0.409229 0.372994
O O9 0.250000 0.000000 0.126180
O O10 0.362284 0.973179 0.216163
O O11 0.500000 0.635182 0.611799
O O12 0.604103 0.750000 0.628877
O O13 0.626975 0.575723 0.659969
O O14 0.250000 0.500000 0.300817
#
# Coordination Sequence:
#
# PCOD9502466 Si02
#       5
#    16  16  16  16  16
#     4   8  13  25  42  59  92 133 162 199 253 306
#     4  10  20  34  50  71 102 138 176 216 260 311
#     4   8  16  26  38  67  98 124 164 206 250 310
#     4  10  22  38  54  74 103 141 182 220 260 311
#     4  11  20  30  51  77 104 135 171 218 267 310
#
# _framework density 17.342889
#
# number of rings (size 3 to 8) (size 9 to 14) (size 15 to 20)
#    0.000    2.600    2.000    1.800    0.000    3.200 
#    0.000    4.000    0.000    0.000    0.000    2.800 
#    0.000    1.600    0.000    0.000    0.000    0.000 
#
# Total GULP energy -222766.258889 kJ/mol
# GULP energy per Si atom -5569.156472 kJ/mol
# Density = 1.730342 g / cm^3
# Si number density = 17.342889 Si / 1000 Ang^3
#
#
#
# Elastic Constant Matrix: (Units=GPa)
#
#
# Indices 1 2 3 4 5 6 
#
# 1 28.1322 28.9062 20.5241 0.0000 0.0000 0.0000
# 2 28.9062 140.0900 91.1670 0.0000 0.0000 0.0000
# 3 20.5241 91.1670 148.0016 0.0000 0.0000 0.0000
# 4 0.0000 0.0000 0.0000 -176.7243 0.0000 0.0000
# 5 0.0000 0.0000 0.0000 0.0000 -53.6562 0.0000
# 6 0.0000 0.0000 0.0000 0.0000 0.0000 17.8413
#
#
#
# Elastic Compliance Matrix: (Units=1/GPa)
#
#
# Indices 1 2 3 4 5 6 
#
# 1 0.045178 -0.008754 -0.000873 0.000000 0.000000 0.000000
# 2 -0.008754 0.013611 -0.007170 0.000000 0.000000 0.000000
# 3 -0.000873 -0.007170 0.011294 0.000000 0.000000 0.000000
# 4 0.000000 0.000000 0.000000 -0.005659 0.000000 0.000000
# 5 0.000000 0.000000 0.000000 0.000000 -0.018637 0.000000
# 6 0.000000 0.000000 0.000000 0.000000 0.000000 0.056050
#
#
# Mechanical properties :
#
#
# Convention : Reuss Voigt Hill
#
# Bulk Modulus (GPa) = 27.40516 66.37982 46.89249
# Shear Modulus (GPa) = 33.87673 -30.79940 1.53866
#
# Velocity S-wave (km/s) = 4.42447 -4.21873 0.94293
# Velocity P-wave (km/s) = 6.47591 3.82464 5.31814
#
# Compressibility (1/GPa) = 0.03648948
#
# Stress axis : x y z
#
# Youngs Moduli (GPa) = 22.13463 73.47178 88.54021
#
# Poissons Ratio (x) = 0.64319 0.07726
# Poissons Ratio (y) = 0.19377 0.63483
# Poissons Ratio (z) = 0.01931 0.52679
#
# Static dielectric constant tensor:
#      x y z
#    x 1.580470 0.000000 0.000000 
#    y 0.000000 1.600510 0.000000 
#    z 0.000000 0.000000 1.600270 
# 
# From -- ./inp_files/33550.got.cif
#   From: 2010.05.17/outbox.cif.g08.bks.cpg/sg67_17_cif.got.tgz:33550.got - 2010.06.03 18:28:57.
