data_PCOD9502680
_publ_section_title
;
Structure prediction by ZEFSAII (Michael W. Deem and Ramdas Pophale) SiO2 
 PCOD9502680
Probable space group: C M M A
;
_chemical_formula_sum "Si O2"
_cell_formula_units_Z 84
_cell_length_a 26.482337
_cell_length_b 19.488667
_cell_length_c 7.919045
_cell_angle_alpha 90.000000
_cell_angle_beta 90.000000
_cell_angle_gamma 90.000000
_cell_volume 4087.062261
_symmetry_space_group_name_H-M "C M M A"
_symmetry_group_IT_number 67
_symmetry_cell_setting 'orthorhombic'
loop_
_space_group_symop_operation_xyz
x,y,z
-x,1/2-y,z
x,-y,-z
-x,1/2+y,-z
-x,-y,-z
x,1/2+y,-z
-x,y,z
x,1/2-y,z
1/2+x,1/2+y,z
1/2-x,-y,z
1/2+x,1/2-y,-z
1/2-x,y,-z
1/2-x,1/2-y,-z
1/2+x,y,-z
1/2-x,1/2+y,z
1/2+x,-y,z
loop_
_atom_site_type_symbol
_atom_site_label
_atom_site_fract_x
_atom_site_fract_y
_atom_site_fract_z
Si Si1 0.000000 0.903190 0.875960
Si Si2 0.500000 0.250000 0.848185
Si Si3 0.586310 0.105321 0.155323
Si Si4 0.608410 0.750000 0.961553
Si Si5 0.261919 0.102652 0.798826
Si Si6 0.000000 0.956894 0.333698
Si Si7 0.331202 0.514735 0.692550
Si Si8 0.212404 0.250000 0.161344
O O1 0.000000 0.978608 0.795658
O O2 0.000000 0.829303 0.774490
O O3 0.050159 0.901268 0.992642
O O4 0.552208 0.250000 0.955926
O O5 0.611327 0.180039 0.145391
O O6 0.547737 0.092083 0.308340
O O7 0.627452 0.047490 0.186212
O O8 0.654763 0.750000 0.093638
O O9 0.215876 0.067933 0.698182
O O10 0.274482 0.179687 0.746185
O O11 0.310197 0.055425 0.768147
O O12 0.250000 0.100342 0.000000
O O13 0.000000 0.000000 0.500000
O O14 0.347702 0.500000 0.500000
O O15 0.250000 0.250000 0.000000
#
# Coordination Sequence:
#
# PCOD9502680 Si02
#       8
#     8   4  16   8  16   8  16   8
#     4   9  20  36  60  86 111 150 195 241 293 346
#     4   8  18  36  56  86 116 150 198 250 300 354
#     4  10  20  37  59  82 112 152 195 241 291 354
#     4  10  20  36  60  88 116 150 200 258 306 350
#     4  10  21  36  56  82 109 148 195 238 290 351
#     4  11  23  37  56  90 122 153 193 237 290 350
#     4  11  22  37  56  83 116 151 189 240 296 354
#     4  10  20  34  54  86 116 144 196 258 298 350
#
# _framework density 20.552658000000001
#
# number of rings (size 3 to 8) (size 9 to 14) (size 15 to 20)
#    0.000    1.905    0.000    6.857    0.000    7.619 
#    0.000    3.810    0.000    0.000    0.000    0.000 
#    0.000    0.000    0.000    0.000    0.000    0.000 
#
# Total GULP energy -234186.273895 kJ/mol
# GULP energy per Si atom -5575.863664 kJ/mol
# Density = 2.050588 g / cm^3
# Si number density = 20.552658 Si / 1000 Ang^3
#
#
#
# Elastic Constant Matrix: (Units=GPa)
#
#
# Indices 1 2 3 4 5 6 
#
# 1 72.3638 21.9106 -5.7640 0.0000 0.0000 0.0000
# 2 21.9106 160.7859 20.9359 0.0000 0.0000 0.0000
# 3 -5.7640 20.9359 45.6034 0.0000 0.0000 0.0000
# 4 0.0000 0.0000 0.0000 6.7674 0.0000 0.0000
# 5 0.0000 0.0000 0.0000 0.0000 -17.8091 0.0000
# 6 0.0000 0.0000 0.0000 0.0000 0.0000 20.7957
#
#
#
# Elastic Compliance Matrix: (Units=1/GPa)
#
#
# Indices 1 2 3 4 5 6 
#
# 1 0.014783 -0.002401 0.002971 0.000000 0.000000 0.000000
# 2 -0.002401 0.007005 -0.003519 0.000000 0.000000 0.000000
# 3 0.002971 -0.003519 0.023919 0.000000 0.000000 0.000000
# 4 0.000000 0.000000 0.000000 0.147767 0.000000 0.000000
# 5 0.000000 0.000000 0.000000 0.000000 -0.056151 0.000000
# 6 0.000000 0.000000 0.000000 0.000000 0.000000 0.048087
#
#
# Mechanical properties :
#
#
# Convention : Reuss Voigt Hill
#
# Bulk Modulus (GPa) = 25.12092 39.21311 32.16701
# Shear Modulus (GPa) = 24.44043 18.06217 21.25130
#
# Velocity S-wave (km/s) = 3.45216 2.96771 3.21906
# Velocity P-wave (km/s) = 5.30463 5.55552 5.43153
#
# Compressibility (1/GPa) = 0.03980746
#
# Stress axis : x y z
#
# Youngs Moduli (GPa) = 67.64625 142.75636 41.80707
#
# Poissons Ratio (x) = 0.34280 -0.12420
# Poissons Ratio (y) = 0.16244 0.14714
# Poissons Ratio (z) = -0.20097 0.50241
#
# Static dielectric constant tensor:
#      x y z
#    x 1.826780 0.000000 0.000000 
#    y 0.000000 1.754470 0.000000 
#    z 0.000000 0.000000 1.809800 
# 
# From -- ./inp_files/13684.got.cif
#   From: 2010.05.17/outbox.cif.g08.bks.cpg/sg67_7_cif.got.tgz:13684.got - 2010.06.03 18:28:57.
