data_PCOD9502960
_publ_section_title
;
Structure prediction by ZEFSAII (Michael W. Deem and Ramdas Pophale) SiO2 
 PCOD9502960
Probable space group: C M M A
;
_chemical_formula_sum "Si O2"
_cell_formula_units_Z 96
_cell_length_a 19.715603
_cell_length_b 13.835317
_cell_length_c 15.324514
_cell_angle_alpha 90.000000
_cell_angle_beta 90.000000
_cell_angle_gamma 90.000000
_cell_volume 4180.092469
_symmetry_space_group_name_H-M "C M M A"
_symmetry_group_IT_number 67
_symmetry_cell_setting 'orthorhombic'
loop_
_space_group_symop_operation_xyz
x,y,z
-x,1/2-y,z
x,-y,-z
-x,1/2+y,-z
-x,-y,-z
x,1/2+y,-z
-x,y,z
x,1/2-y,z
1/2+x,1/2+y,z
1/2-x,-y,z
1/2+x,1/2-y,-z
1/2-x,y,-z
1/2-x,1/2-y,-z
1/2+x,y,-z
1/2-x,1/2+y,z
1/2+x,-y,z
loop_
_atom_site_type_symbol
_atom_site_label
_atom_site_fract_x
_atom_site_fract_y
_atom_site_fract_z
Si Si1 0.576448 0.131817 0.554478
Si Si2 0.295904 0.364895 0.665973
Si Si3 0.873640 0.642548 0.828494
Si Si4 0.421872 0.929543 0.799619
Si Si5 0.078307 0.385511 0.988513
Si Si6 0.648083 0.366523 0.376453
O O1 0.500000 0.098100 0.573328
O O2 0.574454 0.250000 0.557315
O O3 0.634872 0.099326 0.621324
O O4 0.602478 0.103348 0.458387
O O5 0.294684 0.250000 0.649198
O O6 0.306206 0.375779 0.770433
O O7 0.226108 0.400789 0.624817
O O8 0.899085 0.750000 0.799235
O O9 0.916928 0.546121 0.810499
O O10 0.873339 0.647939 0.933423
O O11 0.500000 0.903507 0.788879
O O12 0.398500 0.875865 0.888628
O O13 0.381748 0.897260 0.715639
O O14 0.000000 0.351079 0.999524
O O15 0.074158 0.500000 0.000000
O O16 0.648998 0.250000 0.380301
#
# Coordination Sequence:
#
# PCOD9502960 Si02
#       6
#    16  16  16  16  16  16
#     4   9  17  31  55  86 117 151 193 242 295 348
#     4   9  19  35  56  84 116 152 195 239 286 347
#     4  10  20  35  57  84 114 151 193 238 294 351
#     4  10  21  36  56  86 119 150 194 247 290 340
#     4   8  16  32  52  76 108 143 181 231 288 339
#     4  10  20  36  57  81 117 163 200 234 285 346
#
# _framework density 22.965999
#
# number of rings (size 3 to 8) (size 9 to 14) (size 15 to 20)
#    0.000    2.667    0.000    2.500    0.000    7.000 
#    0.000    6.667    0.000   10.000    0.000    0.000 
#    0.000    0.000    0.000    0.000    0.000    0.000 
#
# Total GULP energy -267818.807077 kJ/mol
# GULP energy per Si atom -5579.558481 kJ/mol
# Density = 2.291373 g / cm^3
# Si number density = 22.965999 Si / 1000 Ang^3
#
#
#
# Elastic Constant Matrix: (Units=GPa)
#
#
# Indices 1 2 3 4 5 6 
#
# 1 117.0028 4.2371 57.7485 0.0000 0.0000 0.0000
# 2 4.2371 75.5836 3.4180 0.0000 0.0000 0.0000
# 3 57.7485 3.4180 132.1351 0.0000 0.0000 0.0000
# 4 0.0000 0.0000 0.0000 27.6638 0.0000 0.0000
# 5 0.0000 0.0000 0.0000 0.0000 71.1408 0.0000
# 6 0.0000 0.0000 0.0000 0.0000 0.0000 23.2475
#
#
#
# Elastic Compliance Matrix: (Units=1/GPa)
#
#
# Indices 1 2 3 4 5 6 
#
# 1 0.010909 -0.000396 -0.004758 0.000000 0.000000 0.000000
# 2 -0.000396 0.013260 -0.000170 0.000000 0.000000 0.000000
# 3 -0.004758 -0.000170 0.009652 0.000000 0.000000 0.000000
# 4 0.000000 0.000000 0.000000 0.036148 0.000000 0.000000
# 5 0.000000 0.000000 0.000000 0.000000 0.014057 0.000000
# 6 0.000000 0.000000 0.000000 0.000000 0.000000 0.043015
#
#
# Mechanical properties :
#
#
# Convention : Reuss Voigt Hill
#
# Bulk Modulus (GPa) = 43.15224 50.61431 46.88327
# Shear Modulus (GPa) = 34.38465 41.69827 38.04146
#
# Velocity S-wave (km/s) = 3.87356 4.26567 4.07434
# Velocity P-wave (km/s) = 6.23188 6.80793 6.52627
#
# Compressibility (1/GPa) = 0.02317377
#
# Stress axis : x y z
#
# Youngs Moduli (GPa) = 91.66457 75.41318 103.60904
#
# Poissons Ratio (x) = 0.02989 0.49293
# Poissons Ratio (y) = 0.03634 0.01759
# Poissons Ratio (z) = 0.43610 0.01280
#
# Static dielectric constant tensor:
#      x y z
#    x 1.810430 0.000000 0.000000 
#    y 0.000000 1.922860 0.000000 
#    z 0.000000 0.000000 1.876590 
# 
# From -- ./inp_files/29268.got.cif
#   From: 2010.05.17/outbox.cif.g08.bks.cpg/sg67_15_cif.got.tgz:29268.got - 2010.06.03 18:28:57.
