data_PCOD9502580
_publ_section_title
;
Structure prediction by ZEFSAII (Michael W. Deem and Ramdas Pophale) SiO2 
 PCOD9502580
Probable space group: C M M A
;
_chemical_formula_sum "Si O2"
_cell_formula_units_Z 96
_cell_length_a 18.560137
_cell_length_b 8.865499
_cell_length_c 31.990326
_cell_angle_alpha 90.000000
_cell_angle_beta 90.000000
_cell_angle_gamma 90.000000
_cell_volume 5263.844225
_symmetry_space_group_name_H-M "C M M A"
_symmetry_group_IT_number 67
_symmetry_cell_setting 'orthorhombic'
loop_
_space_group_symop_operation_xyz
x,y,z
-x,1/2-y,z
x,-y,-z
-x,1/2+y,-z
-x,-y,-z
x,1/2+y,-z
-x,y,z
x,1/2-y,z
1/2+x,1/2+y,z
1/2-x,-y,z
1/2+x,1/2-y,-z
1/2-x,y,-z
1/2-x,1/2-y,-z
1/2+x,y,-z
1/2-x,1/2+y,z
1/2+x,-y,z
loop_
_atom_site_type_symbol
_atom_site_label
_atom_site_fract_x
_atom_site_fract_y
_atom_site_fract_z
Si Si1 0.170623 0.067279 0.287522
Si Si2 0.670461 0.068337 0.877411
Si Si3 0.587739 0.575744 0.542997
Si Si4 0.583845 0.068464 0.630048
Si Si5 0.914427 0.929509 0.044988
Si Si6 0.417472 0.433527 0.794637
O O1 0.174416 0.250000 0.287209
O O2 0.130773 0.020878 0.330269
O O3 0.124075 0.019484 0.247247
O O4 0.250000 0.000000 0.285280
O O5 0.673917 0.250000 0.878760
O O6 0.625490 0.022191 0.836211
O O7 0.750000 0.000000 0.875150
O O8 0.630126 0.006907 0.918266
O O9 0.613037 0.500000 0.500000
O O10 0.500000 0.567004 0.542577
O O11 0.608231 0.750000 0.543664
O O12 0.610404 0.495963 0.585858
O O13 0.500000 0.023126 0.636016
O O14 0.585108 0.250000 0.627829
O O15 0.901873 0.750000 0.044525
O O16 0.000000 0.955405 0.051741
O O17 0.895756 0.000000 0.000000
O O18 0.500000 0.486432 0.795268
O O19 0.419220 0.250000 0.794202
#
# Coordination Sequence:
#
# PCOD9502580 Si02
#       6
#    16  16  16  16  16  16
#     4  10  20  34  53  76 104 137 172 212 258 309
#     4  11  22  36  56  82 114 149 185 225 271 323
#     4   9  16  26  43  69 100 131 164 206 255 304
#     4   9  17  30  49  72  98 131 172 213 252 299
#     4  10  21  38  60  85 113 145 184 229 275 324
#     4   9  18  34  57  82 106 137 179 222 263 312
#
# _framework density 18.237622000000002
#
# number of rings (size 3 to 8) (size 9 to 14) (size 15 to 20)
#    0.000    2.333    0.000    3.000    0.000    6.667 
#    0.000    2.500    0.000    4.000    0.000    3.500 
#    0.000    0.000    0.000    0.000    0.000    0.000 
#
# Total GULP energy -267921.138116 kJ/mol
# GULP energy per Si atom -5581.690377 kJ/mol
# Density = 1.819611 g / cm^3
# Si number density = 18.237622 Si / 1000 Ang^3
#
#
#
# Elastic Constant Matrix: (Units=GPa)
#
#
# Indices 1 2 3 4 5 6 
#
# 1 119.9013 45.7994 113.4518 0.0000 0.0000 0.0000
# 2 45.7994 43.4793 59.7159 0.0000 0.0000 0.0000
# 3 113.4518 59.7159 220.2106 0.0000 0.0000 0.0000
# 4 0.0000 0.0000 0.0000 22.5370 0.0000 0.0000
# 5 0.0000 0.0000 0.0000 0.0000 -10.0140 0.0000
# 6 0.0000 0.0000 0.0000 0.0000 0.0000 24.8888
#
#
#
# Elastic Compliance Matrix: (Units=1/GPa)
#
#
# Indices 1 2 3 4 5 6 
#
# 1 0.018808 -0.010363 -0.006880 0.000000 0.000000 0.000000
# 2 -0.010363 0.042359 -0.006148 0.000000 0.000000 0.000000
# 3 -0.006880 -0.006148 0.009753 0.000000 0.000000 0.000000
# 4 0.000000 0.000000 0.000000 0.044371 0.000000 0.000000
# 5 0.000000 0.000000 0.000000 0.000000 -0.099860 0.000000
# 6 0.000000 0.000000 0.000000 0.000000 0.000000 0.040179
#
#
# Mechanical properties :
#
#
# Convention : Reuss Voigt Hill
#
# Bulk Modulus (GPa) = 41.42703 91.28060 66.35382
# Shear Modulus (GPa) = 45.27456 18.45732 31.86594
#
# Velocity S-wave (km/s) = 4.98786 3.18472 4.18456
# Velocity P-wave (km/s) = 7.47904 7.98014 7.73365
#
# Compressibility (1/GPa) = 0.02413883
#
# Stress axis : x y z
#
# Youngs Moduli (GPa) = 53.16781 23.60777 102.53602
#
# Poissons Ratio (x) = 0.24465 0.70543
# Poissons Ratio (y) = 0.55098 0.63036
# Poissons Ratio (z) = 0.36578 0.14513
#
# Static dielectric constant tensor:
#      x y z
#    x 1.602410 0.000000 0.000000 
#    y 0.000000 1.615670 0.000000 
#    z 0.000000 0.000000 1.608190 
# 
# From -- ./inp_files/44575.got.cif
#   From: 2010.05.17/outbox.cif.g08.bks.cpg/sg67_23_cif.got.tgz:44575.got - 2010.06.03 18:28:57.
