data_PCOD9502694
_publ_section_title
;
Structure prediction by ZEFSAII (Michael W. Deem and Ramdas Pophale) SiO2 
 PCOD9502694
Probable space group: C M M A
;
_chemical_formula_sum "Si O2"
_cell_formula_units_Z 96
_cell_length_a 8.708866
_cell_length_b 29.504127
_cell_length_c 21.026469
_cell_angle_alpha 90.000000
_cell_angle_beta 90.000000
_cell_angle_gamma 90.000000
_cell_volume 5402.698401
_symmetry_space_group_name_H-M "C M M A"
_symmetry_group_IT_number 67
_symmetry_cell_setting 'orthorhombic'
loop_
_space_group_symop_operation_xyz
x,y,z
-x,1/2-y,z
x,-y,-z
-x,1/2+y,-z
-x,-y,-z
x,1/2+y,-z
-x,y,z
x,1/2-y,z
1/2+x,1/2+y,z
1/2-x,-y,z
1/2+x,1/2-y,-z
1/2-x,y,-z
1/2-x,1/2-y,-z
1/2+x,y,-z
1/2-x,1/2+y,z
1/2+x,-y,z
loop_
_atom_site_type_symbol
_atom_site_label
_atom_site_fract_x
_atom_site_fract_y
_atom_site_fract_z
Si Si1 0.184033 0.641763 0.566611
Si Si2 0.687004 0.698020 0.309571
Si Si3 0.815582 0.640866 0.814208
Si Si4 0.683304 0.548645 0.765081
Si Si5 0.183954 0.802516 0.069866
Si Si6 0.183446 0.048642 0.614469
O O1 0.250000 0.658832 0.500000
O O2 0.235297 0.672142 0.626496
O O3 0.243306 0.590838 0.578368
O O4 0.000000 0.641667 0.564578
O O5 0.500000 0.698323 0.309545
O O6 0.739216 0.750000 0.307908
O O7 0.735271 0.670436 0.247126
O O8 0.754768 0.590269 0.803226
O O9 0.751693 0.664548 0.877091
O O10 0.000000 0.640592 0.815883
O O11 0.500000 0.548634 0.771249
O O12 0.750000 0.500000 0.784660
O O13 0.720530 0.554382 0.689789
O O14 0.225472 0.750000 0.084917
O O15 0.000000 0.805828 0.068602
O O16 0.250000 0.812547 0.000000
O O17 0.000000 0.048854 0.607102
O O18 0.250000 0.000000 0.594392
#
# Coordination Sequence:
#
# PCOD9502694 Si02
#       6
#    16  16  16  16  16  16
#     4  11  22  37  55  76 106 142 184 229 281 337
#     4   9  19  35  55  79 107 141 183 229 276 329
#     4  11  20  34  59  87 116 150 189 230 280 333
#     4  10  20  34  55  83 115 146 184 229 279 333
#     4  10  21  37  57  85 121 158 195 235 280 330
#     4  10  20  35  56  80 108 139 177 224 279 335
#
# _framework density 17.768899999999999
#
# number of rings (size 3 to 8) (size 9 to 14) (size 15 to 20)
#    0.000    1.833    1.667    3.000    0.000    3.667 
#    0.000    1.667    0.000    5.000    0.000    3.500 
#    0.000    0.000    0.000    0.000    0.000    0.000 
#
# Total GULP energy -268169.744761 kJ/mol
# GULP energy per Si atom -5586.869683 kJ/mol
# Density = 1.772846 g / cm^3
# Si number density = 17.768900 Si / 1000 Ang^3
#
#
#
# Elastic Constant Matrix: (Units=GPa)
#
#
# Indices 1 2 3 4 5 6 
#
# 1 47.6804 35.3225 39.9462 0.0000 0.0000 0.0000
# 2 35.3225 137.4363 79.1369 0.0000 0.0000 0.0000
# 3 39.9462 79.1369 118.3514 0.0000 0.0000 0.0000
# 4 0.0000 0.0000 0.0000 0.8243 0.0000 0.0000
# 5 0.0000 0.0000 0.0000 0.0000 28.4125 0.0000
# 6 0.0000 0.0000 0.0000 0.0000 0.0000 20.9025
#
#
#
# Elastic Compliance Matrix: (Units=1/GPa)
#
#
# Indices 1 2 3 4 5 6 
#
# 1 0.030012 -0.003058 -0.008085 0.000000 0.000000 0.000000
# 2 -0.003058 0.012143 -0.007087 0.000000 0.000000 0.000000
# 3 -0.008085 -0.007087 0.015917 0.000000 0.000000 0.000000
# 4 0.000000 0.000000 0.000000 1.213172 0.000000 0.000000
# 5 0.000000 0.000000 0.000000 0.000000 0.035196 0.000000
# 6 0.000000 0.000000 0.000000 0.000000 0.000000 0.047841
#
#
# Mechanical properties :
#
#
# Convention : Reuss Voigt Hill
#
# Bulk Modulus (GPa) = 46.27153 68.03102 57.15128
# Shear Modulus (GPa) = 3.57668 19.96536 11.77102
#
# Velocity S-wave (km/s) = 1.42030 3.35567 2.57660
# Velocity P-wave (km/s) = 5.36535 7.30642 6.40978
#
# Compressibility (1/GPa) = 0.02161156
#
# Stress axis : x y z
#
# Youngs Moduli (GPa) = 33.32019 82.35178 62.82465
#
# Poissons Ratio (x) = 0.25183 0.50793
# Poissons Ratio (y) = 0.10189 0.44526
# Poissons Ratio (z) = 0.26939 0.58366
#
# Static dielectric constant tensor:
#      x y z
#    x 1.588870 0.000000 0.000000 
#    y 0.000000 1.584610 0.000000 
#    z 0.000000 0.000000 1.592250 
# 
# From -- ./inp_files/37130.got.cif
#   From: 2010.05.17/outbox.cif.g08.bks.cpg/sg67_19_cif.got.tgz:37130.got - 2010.06.03 18:28:57.
