data_PCOD9502707
_publ_section_title
;
Structure prediction by ZEFSAII (Michael W. Deem and Ramdas Pophale) SiO2 
 PCOD9502707
Probable space group: C M M A
;
_chemical_formula_sum "Si O2"
_cell_formula_units_Z 72
_cell_length_a 9.355297
_cell_length_b 32.063044
_cell_length_c 13.213296
_cell_angle_alpha 90.000000
_cell_angle_beta 90.000000
_cell_angle_gamma 90.000000
_cell_volume 3963.451010
_symmetry_space_group_name_H-M "C M M A"
_symmetry_group_IT_number 67
_symmetry_cell_setting 'orthorhombic'
loop_
_space_group_symop_operation_xyz
x,y,z
-x,1/2-y,z
x,-y,-z
-x,1/2+y,-z
-x,-y,-z
x,1/2+y,-z
-x,y,z
x,1/2-y,z
1/2+x,1/2+y,z
1/2-x,-y,z
1/2+x,1/2-y,-z
1/2-x,y,-z
1/2-x,1/2-y,-z
1/2+x,y,-z
1/2-x,1/2+y,z
1/2+x,-y,z
loop_
_atom_site_type_symbol
_atom_site_label
_atom_site_fract_x
_atom_site_fract_y
_atom_site_fract_z
Si Si1 0.156554 0.558463 0.593572
Si Si2 0.750000 0.500000 0.765006
Si Si3 0.167182 0.420972 0.894632
Si Si4 0.832150 0.300011 0.605067
Si Si5 0.173054 0.635036 0.732740
O O1 0.250000 0.545341 0.500000
O O2 0.154913 0.526305 0.686556
O O3 0.203582 0.601967 0.642650
O O4 0.000000 0.564151 0.551557
O O5 0.822831 0.464907 0.834098
O O6 0.250759 0.385926 0.829413
O O7 0.000000 0.410576 0.908253
O O8 0.250000 0.425894 0.000000
O O9 0.827298 0.250000 0.617527
O O10 0.750000 0.309826 0.500000
O O11 0.748258 0.322876 0.695518
O O12 0.000000 0.312486 0.600415
O O13 0.000000 0.638040 0.744766
#
# Coordination Sequence:
#
# PCOD9502707 Si02
#       5
#    16   8  16  16  16
#     4  10  21  34  49  73 105 141 180 220 263 314
#     4  10  22  36  54  76 104 140 182 226 272 322
#     4  11  23  39  59  80 105 138 180 231 283 332
#     4  10  20  34  55  85 119 152 185 221 264 317
#     4  10  21  37  56  79 109 144 184 227 273 326
#
# _framework density 18.165987000000001
#
# number of rings (size 3 to 8) (size 9 to 14) (size 15 to 20)
#    0.000    1.778    0.000    4.000    0.000   12.889 
#    0.000    0.000    0.000    0.667    0.000    0.000 
#    0.000    0.000    0.000    0.000    0.000    0.000 
#
# Total GULP energy -200812.730552 kJ/mol
# GULP energy per Si atom -5578.131404 kJ/mol
# Density = 1.812464 g / cm^3
# Si number density = 18.165987 Si / 1000 Ang^3
#
#
#
# Elastic Constant Matrix: (Units=GPa)
#
#
# Indices 1 2 3 4 5 6 
#
# 1 112.0853 33.7932 65.4987 0.0000 0.0000 0.0000
# 2 33.7932 57.4673 34.1032 0.0000 0.0000 0.0000
# 3 65.4987 34.1032 117.4766 0.0000 0.0000 0.0000
# 4 0.0000 0.0000 0.0000 22.8536 0.0000 0.0000
# 5 0.0000 0.0000 0.0000 0.0000 24.8066 0.0000
# 6 0.0000 0.0000 0.0000 0.0000 0.0000 11.2371
#
#
#
# Elastic Compliance Matrix: (Units=1/GPa)
#
#
# Indices 1 2 3 4 5 6 
#
# 1 0.014090 -0.004378 -0.006585 0.000000 0.000000 0.000000
# 2 -0.004378 0.022383 -0.004057 0.000000 0.000000 0.000000
# 3 -0.006585 -0.004057 0.013361 0.000000 0.000000 0.000000
# 4 0.000000 0.000000 0.000000 0.043757 0.000000 0.000000
# 5 0.000000 0.000000 0.000000 0.000000 0.040312 0.000000
# 6 0.000000 0.000000 0.000000 0.000000 0.000000 0.088991
#
#
# Mechanical properties :
#
#
# Convention : Reuss Voigt Hill
#
# Bulk Modulus (GPa) = 50.51742 61.53549 56.02646
# Shear Modulus (GPa) = 19.26556 22.02173 20.64364
#
# Velocity S-wave (km/s) = 3.26011 3.48552 3.37470
# Velocity P-wave (km/s) = 6.48385 7.08138 6.78919
#
# Compressibility (1/GPa) = 0.01979515
#
# Stress axis : x y z
#
# Youngs Moduli (GPa) = 70.97484 44.67676 74.84245
#
# Poissons Ratio (x) = 0.19558 0.49282
# Poissons Ratio (y) = 0.31070 0.30364
# Poissons Ratio (z) = 0.46735 0.18126
#
# Static dielectric constant tensor:
#      x y z
#    x 1.630250 0.000000 0.000000 
#    y 0.000000 1.645140 0.000000 
#    z 0.000000 0.000000 1.578570 
# 
# From -- ./inp_files/25322.got.cif
#   From: 2010.05.17/outbox.cif.g08.bks.cpg/sg67_13_cif.got.tgz:25322.got - 2010.06.03 18:28:57.
