data_PCOD9502909
_publ_section_title
;
Structure prediction by ZEFSAII (Michael W. Deem and Ramdas Pophale) SiO2 
 PCOD9502909
Probable space group: C M M A
;
_chemical_formula_sum "Si O2"
_cell_formula_units_Z 72
_cell_length_a 15.477529
_cell_length_b 7.441207
_cell_length_c 26.876135
_cell_angle_alpha 90.000000
_cell_angle_beta 90.000000
_cell_angle_gamma 90.000000
_cell_volume 3095.364705
_symmetry_space_group_name_H-M "C M M A"
_symmetry_group_IT_number 67
_symmetry_cell_setting 'orthorhombic'
loop_
_space_group_symop_operation_xyz
x,y,z
-x,1/2-y,z
x,-y,-z
-x,1/2+y,-z
-x,-y,-z
x,1/2+y,-z
-x,y,z
x,1/2-y,z
1/2+x,1/2+y,z
1/2-x,-y,z
1/2+x,1/2-y,-z
1/2-x,y,-z
1/2-x,1/2-y,-z
1/2+x,y,-z
1/2-x,1/2+y,z
1/2+x,-y,z
loop_
_atom_site_type_symbol
_atom_site_label
_atom_site_fract_x
_atom_site_fract_y
_atom_site_fract_z
Si Si1 0.500000 0.965462 0.058358
Si Si2 0.845025 0.535682 0.874174
Si Si3 0.894662 0.536631 0.659845
Si Si4 0.602150 0.968391 0.232911
Si Si5 0.900315 0.964996 0.553755
O O1 0.500000 0.750000 0.063111
O O2 0.416843 0.034288 0.088211
O O3 0.500000 0.000000 0.000000
O O4 0.857297 0.750000 0.870365
O O5 0.750000 0.500000 0.893315
O O6 0.854528 0.465258 0.817667
O O7 0.876789 0.750000 0.660669
O O8 0.865108 0.463856 0.713359
O O9 0.863008 0.465838 0.606297
O O10 0.000000 0.518133 0.659316
O O11 0.500000 0.009555 0.229050
O O12 0.608514 0.750000 0.234228
O O13 0.904575 0.750000 0.558286
O O14 0.000000 0.032958 0.551041
O O15 0.859063 0.000000 0.500000
#
# Coordination Sequence:
#
# PCOD9502909 Si02
#       5
#     8  16  16  16  16
#     4  10  22  40  60  82 110 144 179 212 250 298
#     4  10  20  35  56  82 109 138 174 214 257 304
#     4   7  10  16  30  53  76 103 146 195 237 279
#     4   8  12  23  45  68  91 122 162 207 248 291
#     4   8  12  17  25  41  68 102 140 182 229 281
#
# _framework density 23.260587999999998
#
# number of rings (size 3 to 8) (size 9 to 14) (size 15 to 20)
#    0.000    3.556    1.111    2.667    0.000    1.333 
#    0.000    2.222    0.000    1.333    0.000    3.111 
#    0.000    0.889    0.000   11.111    0.000    9.333 
#
# Total GULP energy -200674.733632 kJ/mol
# GULP energy per Si atom -5574.298156 kJ/mol
# Density = 2.320765 g / cm^3
# Si number density = 23.260588 Si / 1000 Ang^3
#
#
#
# Elastic Constant Matrix: (Units=GPa)
#
#
# Indices 1 2 3 4 5 6 
#
# 1 88.0270 -2.2781 80.0247 0.0000 0.0000 0.0000
# 2 -2.2781 73.8996 11.8904 0.0000 0.0000 0.0000
# 3 80.0247 11.8904 248.6386 0.0000 0.0000 0.0000
# 4 0.0000 0.0000 0.0000 13.0611 0.0000 0.0000
# 5 0.0000 0.0000 0.0000 0.0000 -25.5340 0.0000
# 6 0.0000 0.0000 0.0000 0.0000 0.0000 2.1419
#
#
#
# Elastic Compliance Matrix: (Units=1/GPa)
#
#
# Indices 1 2 3 4 5 6 
#
# 1 0.016191 0.001348 -0.005276 0.000000 0.000000 0.000000
# 2 0.001348 0.013749 -0.001091 0.000000 0.000000 0.000000
# 3 -0.005276 -0.001091 0.005772 0.000000 0.000000 0.000000
# 4 0.000000 0.000000 0.000000 0.076563 0.000000 0.000000
# 5 0.000000 0.000000 0.000000 0.000000 -0.039164 0.000000
# 6 0.000000 0.000000 0.000000 0.000000 0.000000 0.466880
#
#
# Mechanical properties :
#
#
# Convention : Reuss Voigt Hill
#
# Bulk Modulus (GPa) = 38.94966 65.53771 52.24369
# Shear Modulus (GPa) = 8.95114 19.32902 14.14008
#
# Velocity S-wave (km/s) = 1.96381 2.88579 2.46823
# Velocity P-wave (km/s) = 4.68224 6.27219 5.53460
#
# Compressibility (1/GPa) = 0.02567416
#
# Stress axis : x y z
#
# Youngs Moduli (GPa) = 61.76266 72.73246 173.24895
#
# Poissons Ratio (x) = -0.09804 0.91399
# Poissons Ratio (y) = -0.08325 0.18908
# Poissons Ratio (z) = 0.32583 0.07938
#
# Static dielectric constant tensor:
#      x y z
#    x 1.867220 0.000000 0.000000 
#    y 0.000000 1.946800 0.000000 
#    z 0.000000 0.000000 1.929220 
# 
# From -- ./inp_files/41456.got.cif
#   From: 2010.05.17/outbox.cif.g08.bks.cpg/sg67_21_cif.got.tgz:41456.got - 2010.06.03 18:28:57.
