data_PCOD9502040
_publ_section_title
;
Structure prediction by ZEFSAII (Michael W. Deem and Ramdas Pophale) SiO2 
 PCOD9502040
Probable space group: C M M A
;
_chemical_formula_sum "Si O2"
_cell_formula_units_Z 100
_cell_length_a 24.518931
_cell_length_b 26.655999
_cell_length_c 7.969089
_cell_angle_alpha 90.000000
_cell_angle_beta 90.000000
_cell_angle_gamma 90.000000
_cell_volume 5208.410095
_symmetry_space_group_name_H-M "C M M A"
_symmetry_group_IT_number 67
_symmetry_cell_setting 'orthorhombic'
loop_
_space_group_symop_operation_xyz
x,y,z
-x,1/2-y,z
x,-y,-z
-x,1/2+y,-z
-x,-y,-z
x,1/2+y,-z
-x,y,z
x,1/2-y,z
1/2+x,1/2+y,z
1/2-x,-y,z
1/2+x,1/2-y,-z
1/2-x,y,-z
1/2-x,1/2-y,-z
1/2+x,y,-z
1/2-x,1/2+y,z
1/2+x,-y,z
loop_
_atom_site_type_symbol
_atom_site_label
_atom_site_fract_x
_atom_site_fract_y
_atom_site_fract_z
Si Si1 0.755047 0.442046 0.200624
Si Si2 0.092870 0.302749 0.802338
Si Si3 0.000000 0.250000 0.630481
Si Si4 0.373840 0.903034 0.298245
Si Si5 0.062801 0.498115 0.704960
Si Si6 0.438032 0.306882 0.815744
Si Si7 0.639078 0.906114 0.694514
O O1 0.750000 0.500000 0.256150
O O2 0.812486 0.417279 0.246535
O O3 0.702680 0.415870 0.279993
O O4 0.750000 0.440823 0.000000
O O5 0.126071 0.250000 0.805803
O O6 0.048016 0.292985 0.658615
O O7 0.124050 0.353811 0.778996
O O8 0.062817 0.304798 0.981851
O O9 0.396455 0.849882 0.236501
O O10 0.374510 0.902147 0.498951
O O11 0.412702 0.948623 0.237778
O O12 0.063597 0.500000 0.500000
O O13 0.102647 0.452899 0.760004
O O14 0.000000 0.490788 0.756801
O O15 0.500000 0.317719 0.758282
O O16 0.425119 0.250000 0.755685
#
# Coordination Sequence:
#
# PCOD9502040 Si02
#       7
#    16  16   4  16  16  16  16
#     4  11  23  41  62  83 112 153 203 242 288 351
#     4   9  18  36  58  84 115 154 199 233 284 342
#     4   8  16  36  60  82 116 164 194 236 282 350
#     4  11  22  37  58  86 119 152 194 244 290 347
#     4   9  19  33  50  80 119 152 179 221 288 349
#     4  10  19  38  60  86 120 161 195 237 290 347
#     4  11  22  36  60  86 116 155 193 243 293 343
#
# _framework density 19.199717
#
# number of rings (size 3 to 8) (size 9 to 14) (size 15 to 20)
#    0.480    1.440    2.400    1.920    1.120    1.920 
#    0.000    0.800    0.000    7.680    0.000    0.000 
#    0.000    0.000    0.000    0.000    0.000    0.000 
#
# Total GULP energy -278374.679586 kJ/mol
# GULP energy per Si atom -5567.493592 kJ/mol
# Density = 1.915602 g / cm^3
# Si number density = 19.199717 Si / 1000 Ang^3
#
#
#
# Elastic Constant Matrix: (Units=GPa)
#
#
# Indices 1 2 3 4 5 6 
#
# 1 134.6864 90.5978 6.3182 0.0000 0.0000 0.0000
# 2 90.5978 169.2579 20.5247 0.0000 0.0000 0.0000
# 3 6.3182 20.5247 27.9100 0.0000 0.0000 0.0000
# 4 0.0000 0.0000 0.0000 15.6403 0.0000 0.0000
# 5 0.0000 0.0000 0.0000 0.0000 0.0580 0.0000
# 6 0.0000 0.0000 0.0000 0.0000 0.0000 40.5659
#
#
#
# Elastic Compliance Matrix: (Units=1/GPa)
#
#
# Indices 1 2 3 4 5 6 
#
# 1 0.011718 -0.006533 0.002152 0.000000 0.000000 0.000000
# 2 -0.006533 0.010129 -0.005970 0.000000 0.000000 0.000000
# 3 0.002152 -0.005970 0.039733 0.000000 0.000000 0.000000
# 4 0.000000 0.000000 0.000000 0.063937 0.000000 0.000000
# 5 0.000000 0.000000 0.000000 0.000000 17.245419 0.000000
# 6 0.000000 0.000000 0.000000 0.000000 0.000000 0.024651
#
#
# Mechanical properties :
#
#
# Convention : Reuss Voigt Hill
#
# Bulk Modulus (GPa) = 24.46348 62.97061 43.71704
# Shear Modulus (GPa) = 0.28686 25.54707 12.91697
#
# Velocity S-wave (km/s) = 0.38696 3.65169 2.59659
# Velocity P-wave (km/s) = 3.60123 7.11679 5.63993
#
# Compressibility (1/GPa) = 0.04087725
#
# Stress axis : x y z
#
# Youngs Moduli (GPa) = 85.33542 98.72472 25.16828
#
# Poissons Ratio (x) = 0.64501 -0.05416
# Poissons Ratio (y) = 0.55753 0.15025
# Poissons Ratio (z) = -0.18363 0.58937
#
# Static dielectric constant tensor:
#      x y z
#    x 1.568390 0.000000 0.000000 
#    y 0.000000 1.679270 0.000000 
#    z 0.000000 0.000000 1.728060 
# 
# From -- ./inp_files/11554.got.cif
#   From: 2010.05.17/outbox.cif.g08.bks.cpg/sg67_6_cif.got.tgz:11554.got - 2010.06.03 18:28:57.
