data_PCOD9502174
_publ_section_title
;
Structure prediction by ZEFSAII (Michael W. Deem and Ramdas Pophale) SiO2 
 PCOD9502174
Probable space group: C M M A
;
_chemical_formula_sum "Si O2"
_cell_formula_units_Z 88
_cell_length_a 15.949494
_cell_length_b 8.914210
_cell_length_c 31.398885
_cell_angle_alpha 90.000000
_cell_angle_beta 90.000000
_cell_angle_gamma 90.000000
_cell_volume 4464.203634
_symmetry_space_group_name_H-M "C M M A"
_symmetry_group_IT_number 67
_symmetry_cell_setting 'orthorhombic'
loop_
_space_group_symop_operation_xyz
x,y,z
-x,1/2-y,z
x,-y,-z
-x,1/2+y,-z
-x,-y,-z
x,1/2+y,-z
-x,y,z
x,1/2-y,z
1/2+x,1/2+y,z
1/2-x,-y,z
1/2+x,1/2-y,-z
1/2-x,y,-z
1/2-x,1/2-y,-z
1/2+x,y,-z
1/2-x,1/2+y,z
1/2+x,-y,z
loop_
_atom_site_type_symbol
_atom_site_label
_atom_site_fract_x
_atom_site_fract_y
_atom_site_fract_z
Si Si1 0.341890 0.571658 0.364897
Si Si2 0.500000 0.069335 0.953336
Si Si3 0.099802 0.418864 0.719651
Si Si4 0.844181 0.569758 0.542378
Si Si5 0.663432 0.070237 0.898828
Si Si6 0.599429 0.068782 0.187131
O O1 0.335261 0.750000 0.363675
O O2 0.250000 0.500000 0.364566
O O3 0.384644 0.514164 0.322215
O O4 0.382055 0.533324 0.411086
O O5 0.500000 0.250000 0.956376
O O6 0.583311 0.025304 0.927251
O O7 0.500000 0.000000 0.000000
O O8 0.133697 0.250000 0.712926
O O9 0.130097 0.477560 0.765568
O O10 0.000000 0.406854 0.725131
O O11 0.884633 0.500000 0.500000
O O12 0.839243 0.750000 0.538025
O O13 0.750000 0.500000 0.543846
O O14 0.669047 0.250000 0.898241
O O15 0.750000 0.000000 0.915034
O O16 0.646896 0.009260 0.851314
O O17 0.500000 0.033377 0.182845
O O18 0.607525 0.250000 0.184784
#
# Coordination Sequence:
#
# PCOD9502174 Si02
#       6
#    16   8  16  16  16  16
#     4  10  20  32  48  72 101 133 170 216 268 323
#     4  10  24  44  66  92 126 164 206 252 301 354
#     4   9  19  35  54  77 106 141 181 222 269 328
#     4   9  16  26  42  65  91 121 161 208 261 320
#     4  11  23  40  62  93 126 160 204 251 298 353
#     4   9  18  35  59  84 111 148 191 235 287 344
#
# _framework density 19.712361999999999
#
# number of rings (size 3 to 8) (size 9 to 14) (size 15 to 20)
#    0.000    2.364    0.909    3.273    0.000    5.818 
#    0.000    3.636    0.000    0.545    0.000    0.000 
#    0.000    0.000    0.000    0.000    0.000    0.000 
#
# Total GULP energy -245385.783768 kJ/mol
# GULP energy per Si atom -5576.949631 kJ/mol
# Density = 1.966750 g / cm^3
# Si number density = 19.712362 Si / 1000 Ang^3
#
#
#
# Elastic Constant Matrix: (Units=GPa)
#
#
# Indices 1 2 3 4 5 6 
#
# 1 75.1146 24.6718 54.1232 0.0000 0.0000 0.0000
# 2 24.6718 51.1242 54.0293 0.0000 0.0000 0.0000
# 3 54.1232 54.0293 182.8967 0.0000 0.0000 0.0000
# 4 0.0000 0.0000 0.0000 50.8076 0.0000 0.0000
# 5 0.0000 0.0000 0.0000 0.0000 -2.7361 0.0000
# 6 0.0000 0.0000 0.0000 0.0000 0.0000 21.9187
#
#
#
# Elastic Compliance Matrix: (Units=1/GPa)
#
#
# Indices 1 2 3 4 5 6 
#
# 1 0.017558 -0.004336 -0.003915 0.000000 0.000000 0.000000
# 2 -0.004336 0.029509 -0.007434 0.000000 0.000000 0.000000
# 3 -0.003915 -0.007434 0.008822 0.000000 0.000000 0.000000
# 4 0.000000 0.000000 0.000000 0.019682 0.000000 0.000000
# 5 0.000000 0.000000 0.000000 0.000000 -0.365485 0.000000
# 6 0.000000 0.000000 0.000000 0.000000 0.000000 0.045623
#
#
# Mechanical properties :
#
#
# Convention : Reuss Voigt Hill
#
# Bulk Modulus (GPa) = 40.78384 63.86490 52.32437
# Shear Modulus (GPa) = -24.42041 25.75213 0.66586
#
# Velocity S-wave (km/s) = -3.52353 3.61833 0.58182
# Velocity P-wave (km/s) = 2.04468 7.06577 5.20124
#
# Compressibility (1/GPa) = 0.02451951
#
# Stress axis : x y z
#
# Youngs Moduli (GPa) = 56.95412 33.88760 113.34987
#
# Poissons Ratio (x) = 0.14693 0.44376
# Poissons Ratio (y) = 0.24694 0.84267
# Poissons Ratio (z) = 0.22297 0.25193
#
# Static dielectric constant tensor:
#      x y z
#    x 1.722400 0.000000 0.000000 
#    y 0.000000 1.650070 0.000000 
#    z 0.000000 0.000000 1.732150 
# 
# From -- ./inp_files/45763.got.cif
#   From: 2010.05.17/outbox.cif.g08.bks.cpg/sg67_23_cif.got.tgz:45763.got - 2010.06.03 18:28:57.
