data_PCOD9502937
_publ_section_title
;
Structure prediction by ZEFSAII (Michael W. Deem and Ramdas Pophale) SiO2 
 PCOD9502937
Probable space group: C M M A
;
_chemical_formula_sum "Si O2"
_cell_formula_units_Z 80
_cell_length_a 17.514475
_cell_length_b 20.064884
_cell_length_c 11.283904
_cell_angle_alpha 90.000000
_cell_angle_beta 90.000000
_cell_angle_gamma 90.000000
_cell_volume 3965.456222
_symmetry_space_group_name_H-M "C M M A"
_symmetry_group_IT_number 67
_symmetry_cell_setting 'orthorhombic'
loop_
_space_group_symop_operation_xyz
x,y,z
-x,1/2-y,z
x,-y,-z
-x,1/2+y,-z
-x,-y,-z
x,1/2+y,-z
-x,y,z
x,1/2-y,z
1/2+x,1/2+y,z
1/2-x,-y,z
1/2+x,1/2-y,-z
1/2-x,y,-z
1/2-x,1/2-y,-z
1/2+x,y,-z
1/2-x,1/2+y,z
1/2+x,-y,z
loop_
_atom_site_type_symbol
_atom_site_label
_atom_site_fract_x
_atom_site_fract_y
_atom_site_fract_z
Si Si1 0.839292 0.888288 0.963696
Si Si2 0.410730 0.750000 0.771066
Si Si3 0.411818 0.537453 0.247787
Si Si4 0.364151 0.891555 0.767388
Si Si5 0.906610 0.250000 0.045217
Si Si6 0.275108 0.077647 0.625716
O O1 0.866699 0.945969 0.874506
O O2 0.869015 0.818317 0.908038
O O3 0.750000 0.889329 0.000000
O O4 0.879810 0.893491 0.092057
O O5 0.500000 0.750000 0.784570
O O6 0.389662 0.820750 0.716158
O O7 0.380343 0.750000 0.906461
O O8 0.500000 0.555120 0.236744
O O9 0.402756 0.459146 0.278563
O O10 0.364260 0.578058 0.346106
O O11 0.274877 0.894290 0.733419
O O12 0.000000 0.250000 0.055030
O O13 0.250000 0.107004 0.500000
O O14 0.250000 0.000000 0.623484
#
# Coordination Sequence:
#
# PCOD9502937 Si02
#       6
#    16   8  16  16   8  16
#     4  11  20  33  55  84 118 157 190 224 283 348
#     4   9  18  33  52  79 111 145 189 237 278 330
#     4  11  22  35  57  88 118 148 187 238 289 335
#     4  10  20  35  57  81 115 153 189 227 287 343
#     4   9  19  33  49  75 119 159 192 232 271 331
#     4   9  19  38  58  79 109 150 192 235 282 340
#
# _framework density 20.174222
#
# number of rings (size 3 to 8) (size 9 to 14) (size 15 to 20)
#    0.000    2.000    2.000    2.100    0.000    4.000 
#    0.000    9.500    0.000    0.000    0.000    1.400 
#    0.000    0.000    0.000    0.000    0.000    0.000 
#
# Total GULP energy -222759.047600 kJ/mol
# GULP energy per Si atom -5568.976190 kJ/mol
# Density = 2.012830 g / cm^3
# Si number density = 20.174222 Si / 1000 Ang^3
#
#
#
# Elastic Constant Matrix: (Units=GPa)
#
#
# Indices 1 2 3 4 5 6 
#
# 1 113.6335 23.1268 21.1445 0.0000 0.0000 0.0000
# 2 23.1268 98.8391 12.4483 0.0000 0.0000 0.0000
# 3 21.1445 12.4483 61.8437 0.0000 0.0000 0.0000
# 4 0.0000 0.0000 0.0000 2.3560 0.0000 0.0000
# 5 0.0000 0.0000 0.0000 0.0000 9.8954 0.0000
# 6 0.0000 0.0000 0.0000 0.0000 0.0000 22.5328
#
#
#
# Elastic Compliance Matrix: (Units=1/GPa)
#
#
# Indices 1 2 3 4 5 6 
#
# 1 0.009736 -0.001907 -0.002945 0.000000 0.000000 0.000000
# 2 -0.001907 0.010754 -0.001513 0.000000 0.000000 0.000000
# 3 -0.002945 -0.001513 0.017481 0.000000 0.000000 0.000000
# 4 0.000000 0.000000 0.000000 0.424450 0.000000 0.000000
# 5 0.000000 0.000000 0.000000 0.000000 0.101057 0.000000
# 6 0.000000 0.000000 0.000000 0.000000 0.000000 0.044380
#
#
# Mechanical properties :
#
#
# Convention : Reuss Voigt Hill
#
# Bulk Modulus (GPa) = 39.61632 43.08393 41.35012
# Shear Modulus (GPa) = 7.94909 21.46328 14.70619
#
# Velocity S-wave (km/s) = 1.98715 3.26528 2.70285
# Velocity P-wave (km/s) = 4.99447 5.96811 5.50287
#
# Compressibility (1/GPa) = 0.02524212
#
# Stress axis : x y z
#
# Youngs Moduli (GPa) = 102.70758 92.98669 57.20444
#
# Poissons Ratio (x) = 0.17735 0.16847
# Poissons Ratio (y) = 0.19589 0.08653
# Poissons Ratio (z) = 0.30247 0.14065
#
# Static dielectric constant tensor:
#      x y z
#    x 1.736680 0.000000 0.000000 
#    y 0.000000 1.813480 0.000000 
#    z 0.000000 0.000000 1.789000 
# 
# From -- ./inp_files/19379.got.cif
#   From: 2010.05.17/outbox.cif.g08.bks.cpg/sg67_10_cif.got.tgz:19379.got - 2010.06.03 18:28:57.
