data_PCOD9502165
_publ_section_title
;
Structure prediction by ZEFSAII (Michael W. Deem and Ramdas Pophale) SiO2 
 PCOD9502165
Probable space group: C M M A
;
_chemical_formula_sum "Si O2"
_cell_formula_units_Z 96
_cell_length_a 28.200169
_cell_length_b 8.736196
_cell_length_c 24.329046
_cell_angle_alpha 90.000000
_cell_angle_beta 90.000000
_cell_angle_gamma 90.000000
_cell_volume 5993.757384
_symmetry_space_group_name_H-M "C M M A"
_symmetry_group_IT_number 67
_symmetry_cell_setting 'orthorhombic'
loop_
_space_group_symop_operation_xyz
x,y,z
-x,1/2-y,z
x,-y,-z
-x,1/2+y,-z
-x,-y,-z
x,1/2+y,-z
-x,y,z
x,1/2-y,z
1/2+x,1/2+y,z
1/2-x,-y,z
1/2+x,1/2-y,-z
1/2-x,y,-z
1/2-x,1/2-y,-z
1/2+x,y,-z
1/2-x,1/2+y,z
1/2+x,-y,z
loop_
_atom_site_type_symbol
_atom_site_label
_atom_site_fract_x
_atom_site_fract_y
_atom_site_fract_z
Si Si1 0.555065 0.065279 0.559038
Si Si2 0.445301 0.934397 0.221065
Si Si3 0.197863 0.932867 0.940324
Si Si4 0.802111 0.932805 0.272610
Si Si5 0.357211 0.933004 0.839028
Si Si6 0.109584 0.065653 0.332376
O O1 0.500000 0.020510 0.568573
O O2 0.556421 0.250000 0.557007
O O3 0.587472 0.014690 0.609871
O O4 0.569681 0.000000 0.500000
O O5 0.500000 0.979147 0.214673
O O6 0.442024 0.750000 0.215175
O O7 0.426139 0.972413 0.282211
O O8 0.409432 0.012862 0.178713
O O9 0.200647 0.750000 0.943102
O O10 0.250000 0.000000 0.926976
O O11 0.161986 0.986614 0.893420
O O12 0.184816 0.000000 0.000000
O O13 0.800409 0.750000 0.275351
O O14 0.823249 0.975666 0.212572
O O15 0.750000 0.000000 0.279830
O O16 0.839972 0.994892 0.316550
O O17 0.355767 0.750000 0.845524
O O18 0.113976 0.250000 0.333474
#
# Coordination Sequence:
#
# PCOD9502165 Si02
#       6
#    16  16  16  16  16  16
#     4   9  17  29  46  69  96 126 158 192 232 278
#     4   9  17  30  49  72  97 127 162 198 237 282
#     4  11  21  34  52  74 100 129 161 197 238 283
#     4  10  20  32  48  70  96 125 157 194 236 282
#     4  10  20  33  49  72 100 129 161 196 236 282
#     4   9  17  30  48  69  95 126 159 195 235 280
#
# _framework density 16.016663999999999
#
# number of rings (size 3 to 8) (size 9 to 14) (size 15 to 20)
#    0.000    2.333    0.000    4.000    0.000    6.333 
#    0.000    0.000    0.000    4.000    0.000    3.500 
#    0.000    0.000    0.000    0.000    0.000    0.000 
#
# Total GULP energy -267821.287513 kJ/mol
# GULP energy per Si atom -5579.610157 kJ/mol
# Density = 1.598021 g / cm^3
# Si number density = 16.016664 Si / 1000 Ang^3
#
#
#
# Elastic Constant Matrix: (Units=GPa)
#
#
# Indices 1 2 3 4 5 6 
#
# 1 139.7832 48.2997 86.2211 0.0000 0.0000 0.0000
# 2 48.2997 54.5740 48.6704 0.0000 0.0000 0.0000
# 3 86.2211 48.6704 122.3558 0.0000 0.0000 0.0000
# 4 0.0000 0.0000 0.0000 25.6067 0.0000 0.0000
# 5 0.0000 0.0000 0.0000 0.0000 24.0196 0.0000
# 6 0.0000 0.0000 0.0000 0.0000 0.0000 25.8879
#
#
#
# Elastic Compliance Matrix: (Units=1/GPa)
#
#
# Indices 1 2 3 4 5 6 
#
# 1 0.013613 -0.005413 -0.007440 0.000000 0.000000 0.000000
# 2 -0.005413 0.030550 -0.008338 0.000000 0.000000 0.000000
# 3 -0.007440 -0.008338 0.016732 0.000000 0.000000 0.000000
# 4 0.000000 0.000000 0.000000 0.039052 0.000000 0.000000
# 5 0.000000 0.000000 0.000000 0.000000 0.041633 0.000000
# 6 0.000000 0.000000 0.000000 0.000000 0.000000 0.038628
#
#
# Mechanical properties :
#
#
# Convention : Reuss Voigt Hill
#
# Bulk Modulus (GPa) = 54.01196 75.89950 64.95573
# Shear Modulus (GPa) = 21.85681 24.00429 22.93055
#
# Velocity S-wave (km/s) = 3.69810 3.87551 3.78784
# Velocity P-wave (km/s) = 7.21319 8.21686 7.73133
#
# Compressibility (1/GPa) = 0.01851442
#
# Stress axis : x y z
#
# Youngs Moduli (GPa) = 73.45704 32.73281 59.76584
#
# Poissons Ratio (x) = 0.17719 0.44464
# Poissons Ratio (y) = 0.39765 0.49830
# Poissons Ratio (z) = 0.54650 0.27291
#
# Static dielectric constant tensor:
#      x y z
#    x 1.514360 0.000000 0.000000 
#    y 0.000000 1.537910 0.000000 
#    z 0.000000 0.000000 1.522150 
# 
# From -- ./inp_files/37155.got.cif
#   From: 2010.05.17/outbox.cif.g08.bks.cpg/sg67_19_cif.got.tgz:37155.got - 2010.06.03 18:28:57.
