data_PCOD9502032
_publ_section_title
;
Structure prediction by ZEFSAII (Michael W. Deem and Ramdas Pophale) SiO2 
 PCOD9502032
Probable space group: C M M A
;
_chemical_formula_sum "Si O2"
_cell_formula_units_Z 84
_cell_length_a 15.545836
_cell_length_b 24.554680
_cell_length_c 11.076844
_cell_angle_alpha 90.000000
_cell_angle_beta 90.000000
_cell_angle_gamma 90.000000
_cell_volume 4228.286436
_symmetry_space_group_name_H-M "C M M A"
_symmetry_group_IT_number 67
_symmetry_cell_setting 'orthorhombic'
loop_
_space_group_symop_operation_xyz
x,y,z
-x,1/2-y,z
x,-y,-z
-x,1/2+y,-z
-x,-y,-z
x,1/2+y,-z
-x,y,z
x,1/2-y,z
1/2+x,1/2+y,z
1/2-x,-y,z
1/2+x,1/2-y,-z
1/2-x,y,-z
1/2-x,1/2-y,-z
1/2+x,y,-z
1/2-x,1/2+y,z
1/2+x,-y,z
loop_
_atom_site_type_symbol
_atom_site_label
_atom_site_fract_x
_atom_site_fract_y
_atom_site_fract_z
Si Si1 0.895887 0.688140 0.814820
Si Si2 0.345595 0.480301 0.187102
Si Si3 0.000000 0.250000 0.526001
Si Si4 0.101208 0.943615 0.443466
Si Si5 0.599853 0.418194 0.957864
Si Si6 0.155891 0.170502 0.459488
O O1 0.875850 0.750000 0.854345
O O2 0.871768 0.639821 0.905578
O O3 0.855116 0.677750 0.684178
O O4 0.000000 0.685255 0.798695
O O5 0.250000 0.500000 0.215702
O O6 0.385596 0.449834 0.300519
O O7 0.394573 0.535192 0.145121
O O8 0.347122 0.440840 0.070921
O O9 0.076563 0.203217 0.517735
O O10 0.146689 0.891973 0.500829
O O11 0.000000 0.938807 0.471098
O O12 0.133306 0.000000 0.500000
O O13 0.500000 0.414119 0.995855
O O14 0.250000 0.189271 0.500000
#
# Coordination Sequence:
#
# PCOD9502032 Si02
#       6
#    16  16   4  16  16  16
#     4  10  19  37  63  92 126 162 216 273 316 387
#     4  11  23  38  59  89 127 164 207 268 324 392
#     4  12  22  48  62  90 134 176 226 274 318 414
#     4  11  24  41  63  95 137 172 214 270 332 398
#     4  10  20  37  63  86 116 166 222 260 321 383
#     4  12  24  39  66  96 132 175 219 273 337 393
#
# _framework density 19.866202999999999
#
# number of rings (size 3 to 8) (size 9 to 14) (size 15 to 20)
#    0.000    1.143    2.857    4.857    5.333    3.048 
#    0.000    0.000    2.095    2.286    0.000    0.000 
#    0.000    0.000    0.000    0.000    0.000    0.000 
#
# Total GULP energy -234199.553837 kJ/mol
# GULP energy per Si atom -5576.179853 kJ/mol
# Density = 1.982099 g / cm^3
# Si number density = 19.866203 Si / 1000 Ang^3
#
#
#
# Elastic Constant Matrix: (Units=GPa)
#
#
# Indices 1 2 3 4 5 6 
#
# 1 99.5871 33.3176 1.1236 0.0000 0.0000 0.0000
# 2 33.3176 186.9823 47.4322 0.0000 0.0000 0.0000
# 3 1.1236 47.4322 41.2950 0.0000 0.0000 0.0000
# 4 0.0000 0.0000 0.0000 343.1108 0.0000 0.0000
# 5 0.0000 0.0000 0.0000 0.0000 -27.5527 0.0000
# 6 0.0000 0.0000 0.0000 0.0000 0.0000 -72.1382
#
#
#
# Elastic Compliance Matrix: (Units=1/GPa)
#
#
# Indices 1 2 3 4 5 6 
#
# 1 0.010891 -0.002633 0.002727 0.000000 0.000000 0.000000
# 2 -0.002633 0.008183 -0.009328 0.000000 0.000000 0.000000
# 3 0.002727 -0.009328 0.034856 0.000000 0.000000 0.000000
# 4 0.000000 0.000000 0.000000 0.002915 0.000000 0.000000
# 5 0.000000 0.000000 0.000000 0.000000 -0.036294 0.000000
# 6 0.000000 0.000000 0.000000 0.000000 0.000000 -0.013862
#
#
# Mechanical properties :
#
#
# Convention : Reuss Voigt Hill
#
# Bulk Modulus (GPa) = 28.19699 54.62349 41.41024
# Shear Modulus (GPa) = 135.21848 65.08337 100.15093
#
# Velocity S-wave (km/s) = 8.25908 5.72992 7.10789
# Velocity P-wave (km/s) = 10.25544 8.44579 9.39429
#
# Compressibility (1/GPa) = 0.03546478
#
# Stress axis : x y z
#
# Youngs Moduli (GPa) = 91.81520 122.19768 28.68931
#
# Poissons Ratio (x) = 0.32170 -0.07825
# Poissons Ratio (y) = 0.24171 0.26762
# Poissons Ratio (z) = -0.25043 1.13987
#
# Static dielectric constant tensor:
#      x y z
#    x 1.710290 0.000000 0.000000 
#    y 0.000000 1.696960 0.000000 
#    z 0.000000 0.000000 1.685470 
# 
# From -- ./inp_files/18114.got.cif
#   From: 2010.05.17/outbox.cif.g08.bks.cpg/sg67_10_cif.got.tgz:18114.got - 2010.06.03 18:28:57.
