data_PCOD9502545
_publ_section_title
;
Structure prediction by ZEFSAII (Michael W. Deem and Ramdas Pophale) SiO2 
 PCOD9502545
Probable space group: C M M A
;
_chemical_formula_sum "Si O2"
_cell_formula_units_Z 100
_cell_length_a 25.508330
_cell_length_b 9.179161
_cell_length_c 19.976208
_cell_angle_alpha 90.000000
_cell_angle_beta 90.000000
_cell_angle_gamma 90.000000
_cell_volume 4677.330579
_symmetry_space_group_name_H-M "C M M A"
_symmetry_group_IT_number 67
_symmetry_cell_setting 'orthorhombic'
loop_
_space_group_symop_operation_xyz
x,y,z
-x,1/2-y,z
x,-y,-z
-x,1/2+y,-z
-x,-y,-z
x,1/2+y,-z
-x,y,z
x,1/2-y,z
1/2+x,1/2+y,z
1/2-x,-y,z
1/2+x,1/2-y,-z
1/2-x,y,-z
1/2-x,1/2-y,-z
1/2+x,y,-z
1/2-x,1/2+y,z
1/2+x,-y,z
loop_
_atom_site_type_symbol
_atom_site_label
_atom_site_fract_x
_atom_site_fract_y
_atom_site_fract_z
Si Si1 0.698187 0.575656 0.382705
Si Si2 0.696621 0.580491 0.899818
Si Si3 0.912592 0.910834 0.560771
Si Si4 0.000000 0.250000 0.368716
Si Si5 0.663670 0.582024 0.745901
Si Si6 0.559567 0.921454 0.216119
Si Si7 0.089517 0.078620 0.063453
O O1 0.702329 0.750000 0.385727
O O2 0.750000 0.500000 0.411320
O O3 0.643130 0.528334 0.415827
O O4 0.691945 0.522461 0.306331
O O5 0.696532 0.750000 0.920270
O O6 0.750000 0.500000 0.918529
O O7 0.689697 0.575519 0.819173
O O8 0.646294 0.495607 0.927245
O O9 0.901224 0.750000 0.532215
O O10 0.953490 0.875391 0.619704
O O11 0.936251 0.000000 0.500000
O O12 0.665021 0.750000 0.723109
O O13 0.604249 0.524149 0.754639
O O14 0.500000 0.946906 0.238495
O O15 0.571146 0.750000 0.230653
O O16 0.561901 0.938447 0.135369
O O17 0.094311 0.250000 0.050328
O O18 0.063867 0.000000 0.000000
#
# Coordination Sequence:
#
# PCOD9502545 Si02
#       7
#    16  16  16   4  16  16  16
#     4  11  23  39  58  87 124 162 199 244 295 356
#     4  10  20  34  53  76 101 135 175 221 273 330
#     4   9  20  37  63  90 117 156 201 247 297 347
#     4   8  18  40  66  86 122 152 210 246 296 348
#     4  10  21  37  57  82 112 147 190 234 288 345
#     4   9  19  37  58  79 107 144 185 233 285 345
#     4  10  20  34  52  75 104 136 175 220 273 338
#
# _framework density 21.379715999999998
#
# number of rings (size 3 to 8) (size 9 to 14) (size 15 to 20)
#    0.480    1.760    0.000    2.640    0.000    6.400 
#    1.440    3.200    0.000    0.000    0.000    0.000 
#    0.000    0.000    0.000    0.000    0.000    0.000 
#
# Total GULP energy -278653.038865 kJ/mol
# GULP energy per Si atom -5573.060777 kJ/mol
# Density = 2.133106 g / cm^3
# Si number density = 21.379716 Si / 1000 Ang^3
#
#
#
# Elastic Constant Matrix: (Units=GPa)
#
#
# Indices 1 2 3 4 5 6 
#
# 1 123.6475 33.3392 5.5130 0.0000 0.0000 0.0000
# 2 33.3392 80.8766 16.7473 0.0000 0.0000 0.0000
# 3 5.5130 16.7473 54.6830 0.0000 0.0000 0.0000
# 4 0.0000 0.0000 0.0000 14.2677 0.0000 0.0000
# 5 0.0000 0.0000 0.0000 0.0000 -10.9561 0.0000
# 6 0.0000 0.0000 0.0000 0.0000 0.0000 29.5408
#
#
#
# Elastic Compliance Matrix: (Units=1/GPa)
#
#
# Indices 1 2 3 4 5 6 
#
# 1 0.009102 -0.003803 0.000247 0.000000 0.000000 0.000000
# 2 -0.003803 0.014791 -0.004146 0.000000 0.000000 0.000000
# 3 0.000247 -0.004146 0.019532 0.000000 0.000000 0.000000
# 4 0.000000 0.000000 0.000000 0.070088 0.000000 0.000000
# 5 0.000000 0.000000 0.000000 0.000000 -0.091273 0.000000
# 6 0.000000 0.000000 0.000000 0.000000 0.000000 0.033851
#
#
# Mechanical properties :
#
#
# Convention : Reuss Voigt Hill
#
# Bulk Modulus (GPa) = 35.68879 41.15623 38.42251
# Shear Modulus (GPa) = 61.85310 20.14432 40.99871
#
# Velocity S-wave (km/s) = 5.38457 3.07288 4.38384
# Velocity P-wave (km/s) = 7.44225 5.64642 6.60565
#
# Compressibility (1/GPa) = 0.02802000
#
# Stress axis : x y z
#
# Youngs Moduli (GPa) = 109.86661 67.60919 51.19756
#
# Poissons Ratio (x) = 0.25713 -0.01265
# Poissons Ratio (y) = 0.41784 0.21229
# Poissons Ratio (z) = -0.02715 0.28034
#
# Static dielectric constant tensor:
#      x y z
#    x 1.778390 0.000000 0.000000 
#    y 0.000000 1.802380 0.000000 
#    z 0.000000 0.000000 1.859110 
# 
# From -- ./inp_files/39953.got.cif
#   From: 2010.05.17/outbox.cif.g08.bks.cpg/sg67_20_cif.got.tgz:39953.got - 2010.06.03 18:28:57.
