data_PCOD9502649
_publ_section_title
;
Structure prediction by ZEFSAII (Michael W. Deem and Ramdas Pophale) SiO2 
 PCOD9502649
Probable space group: C M M A
;
_chemical_formula_sum "Si O2"
_cell_formula_units_Z 72
_cell_length_a 29.958132
_cell_length_b 9.297247
_cell_length_c 13.964645
_cell_angle_alpha 90.000000
_cell_angle_beta 90.000000
_cell_angle_gamma 90.000000
_cell_volume 3889.546777
_symmetry_space_group_name_H-M "C M M A"
_symmetry_group_IT_number 67
_symmetry_cell_setting 'orthorhombic'
loop_
_space_group_symop_operation_xyz
x,y,z
-x,1/2-y,z
x,-y,-z
-x,1/2+y,-z
-x,-y,-z
x,1/2+y,-z
-x,y,z
x,1/2-y,z
1/2+x,1/2+y,z
1/2-x,-y,z
1/2+x,1/2-y,-z
1/2-x,y,-z
1/2-x,1/2-y,-z
1/2+x,y,-z
1/2-x,1/2+y,z
1/2+x,-y,z
loop_
_atom_site_type_symbol
_atom_site_label
_atom_site_fract_x
_atom_site_fract_y
_atom_site_fract_z
Si Si1 0.000000 0.076693 0.396197
Si Si2 0.447433 0.250000 0.082220
Si Si3 0.086734 0.417676 0.598835
Si Si4 0.206046 0.925190 0.103994
Si Si5 0.946088 0.750000 0.850703
Si Si6 0.111037 0.475311 0.801786
O O1 0.000000 0.250000 0.397988
O O2 0.000000 0.000000 0.500000
O O3 0.044336 0.003910 0.357858
O O4 0.500000 0.250000 0.106873
O O5 0.421048 0.378596 0.131724
O O6 0.444441 0.250000 0.967021
O O7 0.099680 0.500000 0.500000
O O8 0.076568 0.250000 0.576214
O O9 0.117583 0.423991 0.691845
O O10 0.209809 0.750000 0.098559
O O11 0.160257 0.968937 0.154656
O O12 0.250000 0.000000 0.149354
O O13 0.203174 0.000000 0.000000
O O14 0.916402 0.621155 0.810603
O O15 0.000000 0.750000 0.825152
#
# Coordination Sequence:
#
# PCOD9502649 Si02
#       6
#     8   8  16  16   8  16
#     4  10  20  34  54  80 111 152 203 259 307 356
#     4  11  22  42  60  88 126 171 206 250 304 370
#     4  11  23  39  58  84 118 159 207 262 310 365
#     4  11  23  41  65  96 125 161 205 260 319 373
#     4  11  26  40  60  92 130 167 216 254 300 380
#     4  12  25  39  65  90 125 168 210 257 311 376
#
# _framework density 18.511154999999999
#
# number of rings (size 3 to 8) (size 9 to 14) (size 15 to 20)
#    0.000    0.889    2.222    7.000    9.333    1.778 
#    0.000    0.000    0.000    0.667    0.000    3.111 
#    0.000    0.000    0.000    0.000    0.000    0.000 
#
# Total GULP energy -200453.943953 kJ/mol
# GULP energy per Si atom -5568.165110 kJ/mol
# Density = 1.846902 g / cm^3
# Si number density = 18.511155 Si / 1000 Ang^3
#
#
#
# Elastic Constant Matrix: (Units=GPa)
#
#
# Indices 1 2 3 4 5 6 
#
# 1 155.0318 58.3947 56.2748 0.0000 0.0000 0.0000
# 2 58.3947 188.0067 39.3877 0.0000 0.0000 0.0000
# 3 56.2748 39.3877 112.2349 0.0000 0.0000 0.0000
# 4 0.0000 0.0000 0.0000 10.5207 0.0000 0.0000
# 5 0.0000 0.0000 0.0000 0.0000 18.5158 0.0000
# 6 0.0000 0.0000 0.0000 0.0000 0.0000 440.7033
#
#
#
# Elastic Compliance Matrix: (Units=1/GPa)
#
#
# Indices 1 2 3 4 5 6 
#
# 1 0.008457 -0.001876 -0.003582 0.000000 0.000000 0.000000
# 2 -0.001876 0.006157 -0.001220 0.000000 0.000000 0.000000
# 3 -0.003582 -0.001220 0.011134 0.000000 0.000000 0.000000
# 4 0.000000 0.000000 0.000000 0.095051 0.000000 0.000000
# 5 0.000000 0.000000 0.000000 0.000000 0.054008 0.000000
# 6 0.000000 0.000000 0.000000 0.000000 0.000000 0.002269
#
#
# Mechanical properties :
#
#
# Convention : Reuss Voigt Hill
#
# Bulk Modulus (GPa) = 80.69814 84.82086 82.75950
# Shear Modulus (GPa) = 25.69846 114.02904 69.86375
#
# Velocity S-wave (km/s) = 3.72999 7.85709 6.15007
# Velocity P-wave (km/s) = 7.88920 11.32399 9.75890
#
# Compressibility (1/GPa) = 0.01239186
#
# Stress axis : x y z
#
# Youngs Moduli (GPa) = 118.24134 162.40713 89.81444
#
# Poissons Ratio (x) = 0.30474 0.32172
# Poissons Ratio (y) = 0.22187 0.10958
# Poissons Ratio (z) = 0.42354 0.19814
#
# Static dielectric constant tensor:
#      x y z
#    x 1.724780 0.000000 0.000000 
#    y 0.000000 1.435630 0.000000 
#    z 0.000000 0.000000 1.698590 
# 
# From -- ./inp_files/30570.got.cif
#   From: 2010.05.17/outbox.cif.g08.bks.cpg/sg67_16_cif.got.tgz:30570.got - 2010.06.03 18:28:57.
