data_PCOD9502743
_publ_section_title
;
Structure prediction by ZEFSAII (Michael W. Deem and Ramdas Pophale) SiO2 
 PCOD9502743
Probable space group: C M M A
;
_chemical_formula_sum "Si O2"
_cell_formula_units_Z 80
_cell_length_a 9.617931
_cell_length_b 18.171691
_cell_length_c 24.794615
_cell_angle_alpha 90.000000
_cell_angle_beta 90.000000
_cell_angle_gamma 90.000000
_cell_volume 4333.455782
_symmetry_space_group_name_H-M "C M M A"
_symmetry_group_IT_number 67
_symmetry_cell_setting 'orthorhombic'
loop_
_space_group_symop_operation_xyz
x,y,z
-x,1/2-y,z
x,-y,-z
-x,1/2+y,-z
-x,-y,-z
x,1/2+y,-z
-x,y,z
x,1/2-y,z
1/2+x,1/2+y,z
1/2-x,-y,z
1/2+x,1/2-y,-z
1/2-x,y,-z
1/2-x,1/2-y,-z
1/2+x,y,-z
1/2-x,1/2+y,z
1/2+x,-y,z
loop_
_atom_site_type_symbol
_atom_site_label
_atom_site_fract_x
_atom_site_fract_y
_atom_site_fract_z
Si Si1 0.662971 0.076259 0.739153
Si Si2 0.775128 0.912351 0.618768
Si Si3 0.000000 0.161105 0.456440
Si Si4 0.331337 0.421987 0.162137
Si Si5 0.500000 0.663032 0.584258
Si Si6 0.836244 0.836604 0.051172
O O1 0.500000 0.067064 0.754128
O O2 0.666297 0.105618 0.678225
O O3 0.752330 0.114830 0.786496
O O4 0.750000 0.000000 0.733905
O O5 0.870931 0.877979 0.572509
O O6 0.630417 0.872670 0.612397
O O7 0.750000 0.000000 0.612596
O O8 0.000000 0.250000 0.448294
O O9 0.000000 0.147087 0.520232
O O10 0.500000 0.428858 0.170331
O O11 0.250000 0.500000 0.156076
O O12 0.309016 0.377745 0.107083
O O13 0.500000 0.750000 0.590104
O O14 0.804038 0.750000 0.057967
O O15 0.000000 0.843462 0.039336
O O16 0.750000 0.864856 0.000000
#
# Coordination Sequence:
#
# PCOD9502743 Si02
#       6
#    16  16   8  16   8  16
#     4  10  20  35  58  85 115 148 185 236 291 338
#     4  11  23  38  63  91 115 149 199 248 288 346
#     4  11  23  43  61  83 121 159 188 237 300 355
#     4  10  20  34  57  84 115 149 188 233 280 341
#     4  11  25  41  61  85 119 159 192 231 300 363
#     4   9  19  36  56  79 110 150 191 234 283 331
#
# _framework density 18.461016000000001
#
# number of rings (size 3 to 8) (size 9 to 14) (size 15 to 20)
#    0.000    1.800    1.000    4.200    5.600    6.000 
#    0.000    4.000    0.000    0.000    0.000    0.000 
#    0.000    0.000    0.000    0.000    0.000    0.000 
#
# Total GULP energy -222914.761363 kJ/mol
# GULP energy per Si atom -5572.869034 kJ/mol
# Density = 1.841900 g / cm^3
# Si number density = 18.461016 Si / 1000 Ang^3
#
#
#
# Elastic Constant Matrix: (Units=GPa)
#
#
# Indices 1 2 3 4 5 6 
#
# 1 138.7423 30.3572 48.1620 0.0000 0.0000 0.0000
# 2 30.3572 45.0794 49.0610 0.0000 0.0000 0.0000
# 3 48.1620 49.0610 118.5915 0.0000 0.0000 0.0000
# 4 0.0000 0.0000 0.0000 204.5998 0.0000 0.0000
# 5 0.0000 0.0000 0.0000 0.0000 43.8750 0.0000
# 6 0.0000 0.0000 0.0000 0.0000 0.0000 27.0238
#
#
#
# Elastic Compliance Matrix: (Units=1/GPa)
#
#
# Indices 1 2 3 4 5 6 
#
# 1 0.008711 -0.003667 -0.002021 0.000000 0.000000 0.000000
# 2 -0.003667 0.041894 -0.015842 0.000000 0.000000 0.000000
# 3 -0.002021 -0.015842 0.015807 0.000000 0.000000 0.000000
# 4 0.000000 0.000000 0.000000 0.004888 0.000000 0.000000
# 5 0.000000 0.000000 0.000000 0.000000 0.022792 0.000000
# 6 0.000000 0.000000 0.000000 0.000000 0.000000 0.037004
#
#
# Mechanical properties :
#
#
# Convention : Reuss Voigt Hill
#
# Bulk Modulus (GPa) = 42.82268 61.95260 52.38764
# Shear Modulus (GPa) = 27.48153 66.75527 47.11840
#
# Velocity S-wave (km/s) = 3.86246 6.01985 5.05753
# Velocity P-wave (km/s) = 6.56796 9.05260 7.90847
#
# Compressibility (1/GPa) = 0.02335211
#
# Stress axis : x y z
#
# Youngs Moduli (GPa) = 114.79110 23.86980 63.26390
#
# Poissons Ratio (x) = 0.08754 0.12784
# Poissons Ratio (y) = 0.42096 1.00223
# Poissons Ratio (z) = 0.23197 0.37815
#
# Static dielectric constant tensor:
#      x y z
#    x 0.646720 0.000000 0.000000 
#    y 0.000000 2.517660 0.000000 
#    z 0.000000 0.000000 1.667530 
# 
# From -- ./inp_files/43359.got.cif
#   From: 2010.05.17/outbox.cif.g08.bks.cpg/sg67_22_cif.got.tgz:43359.got - 2010.06.03 18:28:57.
