data_PCOD9502477
_publ_section_title
;
Structure prediction by ZEFSAII (Michael W. Deem and Ramdas Pophale) SiO2 
 PCOD9502477
Probable space group: C M M A
;
_chemical_formula_sum "Si O2"
_cell_formula_units_Z 104
_cell_length_a 9.095369
_cell_length_b 30.723423
_cell_length_c 23.938585
_cell_angle_alpha 90.000000
_cell_angle_beta 90.000000
_cell_angle_gamma 90.000000
_cell_volume 6689.418998
_symmetry_space_group_name_H-M "C M M A"
_symmetry_group_IT_number 67
_symmetry_cell_setting 'orthorhombic'
loop_
_space_group_symop_operation_xyz
x,y,z
-x,1/2-y,z
x,-y,-z
-x,1/2+y,-z
-x,-y,-z
x,1/2+y,-z
-x,y,z
x,1/2-y,z
1/2+x,1/2+y,z
1/2-x,-y,z
1/2+x,1/2-y,-z
1/2-x,y,-z
1/2-x,1/2-y,-z
1/2+x,y,-z
1/2-x,1/2+y,z
1/2+x,-y,z
loop_
_atom_site_type_symbol
_atom_site_label
_atom_site_fract_x
_atom_site_fract_y
_atom_site_fract_z
Si Si1 0.670668 0.167829 0.392082
Si Si2 0.821158 0.699817 0.820916
Si Si3 0.173617 0.073409 0.558550
Si Si4 0.672830 0.250000 0.559153
Si Si5 0.331816 0.197120 0.944510
Si Si6 0.175238 0.362975 0.280986
Si Si7 0.174157 0.043517 0.326170
O O1 0.500000 0.180799 0.392477
O O2 0.686160 0.125584 0.431716
O O3 0.772533 0.207029 0.410317
O O4 0.724776 0.154263 0.331067
O O5 0.774852 0.750000 0.807911
O O6 0.768405 0.687012 0.883128
O O7 0.784678 0.663959 0.774450
O O8 0.000000 0.701230 0.824029
O O9 0.250000 0.061354 0.500000
O O10 0.252462 0.053643 0.613293
O O11 0.000000 0.062306 0.558098
O O12 0.500000 0.250000 0.553056
O O13 0.750000 0.250000 0.500000
O O14 0.500000 0.182070 0.946783
O O15 0.333444 0.250000 0.946052
O O16 0.250000 0.181838 0.000000
O O17 0.194943 0.415109 0.285180
O O18 0.000000 0.355056 0.291770
O O19 0.000000 0.037499 0.334144
O O20 0.250000 0.000000 0.304263
#
# Coordination Sequence:
#
# PCOD9502477 Si02
#       7
#    16  16  16   8  16  16  16
#     4  10  21  35  49  67  92 119 148 187 232 275
#     4   8  14  25  43  67  94 124 159 191 223 264
#     4  10  20  34  52  71  92 115 140 177 226 279
#     4  12  24  36  50  66  86 116 155 194 229 270
#     4   8  13  22  37  58  87 123 158 190 219 256
#     4   9  18  32  50  71  92 119 155 191 227 273
#     4  10  20  34  51  70  92 116 147 184 227 279
#
# _framework density 15.546939999999999
#
# number of rings (size 3 to 8) (size 9 to 14) (size 15 to 20)
#    0.000    2.615    0.000    3.462    1.077    4.000 
#    0.000    2.308    0.000    0.923    0.000    0.000 
#    0.000    0.615    0.000    7.692    0.000    0.308 
#
# Total GULP energy -289707.921985 kJ/mol
# GULP energy per Si atom -5571.306192 kJ/mol
# Density = 1.551155 g / cm^3
# Si number density = 15.546940 Si / 1000 Ang^3
#
#
#
# Elastic Constant Matrix: (Units=GPa)
#
#
# Indices 1 2 3 4 5 6 
#
# 1 77.0324 42.9793 32.3669 0.0000 0.0000 0.0000
# 2 42.9793 75.0639 40.0991 0.0000 0.0000 0.0000
# 3 32.3669 40.0991 97.0031 0.0000 0.0000 0.0000
# 4 0.0000 0.0000 0.0000 4.0665 0.0000 0.0000
# 5 0.0000 0.0000 0.0000 0.0000 20.0784 0.0000
# 6 0.0000 0.0000 0.0000 0.0000 0.0000 21.3153
#
#
#
# Elastic Compliance Matrix: (Units=1/GPa)
#
#
# Indices 1 2 3 4 5 6 
#
# 1 0.019511 -0.009874 -0.002428 0.000000 0.000000 0.000000
# 2 -0.009874 0.022095 -0.005839 0.000000 0.000000 0.000000
# 3 -0.002428 -0.005839 0.013533 0.000000 0.000000 0.000000
# 4 0.000000 0.000000 0.000000 0.245912 0.000000 0.000000
# 5 0.000000 0.000000 0.000000 0.000000 0.049805 0.000000
# 6 0.000000 0.000000 0.000000 0.000000 0.000000 0.046915
#
#
# Mechanical properties :
#
#
# Convention : Reuss Voigt Hill
#
# Bulk Modulus (GPa) = 53.03400 53.33224 53.18312
# Shear Modulus (GPa) = 11.35491 18.00233 14.67862
#
# Velocity S-wave (km/s) = 2.70545 3.40653 3.07603
# Velocity P-wave (km/s) = 6.62914 7.06053 6.84824
#
# Compressibility (1/GPa) = 0.01885583
#
# Stress axis : x y z
#
# Youngs Moduli (GPa) = 51.25284 45.25961 73.89406
#
# Poissons Ratio (x) = 0.44690 0.17945
# Poissons Ratio (y) = 0.50608 0.43145
# Poissons Ratio (z) = 0.12446 0.26426
#
# Static dielectric constant tensor:
#      x y z
#    x 1.521510 0.000000 0.000000 
#    y 0.000000 1.521320 0.000000 
#    z 0.000000 0.000000 1.391800 
# 
# From -- ./inp_files/41146.got.cif
#   From: 2010.05.17/outbox.cif.g08.bks.cpg/sg67_21_cif.got.tgz:41146.got - 2010.06.03 18:28:57.
