data_PCOD9502776
_publ_section_title
;
Structure prediction by ZEFSAII (Michael W. Deem and Ramdas Pophale) SiO2 
 PCOD9502776
Probable space group: C M M A
;
_chemical_formula_sum "Si O2"
_cell_formula_units_Z 104
_cell_length_a 8.858651
_cell_length_b 31.283224
_cell_length_c 23.712815
_cell_angle_alpha 90.000000
_cell_angle_beta 90.000000
_cell_angle_gamma 90.000000
_cell_volume 6571.465161
_symmetry_space_group_name_H-M "C M M A"
_symmetry_group_IT_number 67
_symmetry_cell_setting 'orthorhombic'
loop_
_space_group_symop_operation_xyz
x,y,z
-x,1/2-y,z
x,-y,-z
-x,1/2+y,-z
-x,-y,-z
x,1/2+y,-z
-x,y,z
x,1/2-y,z
1/2+x,1/2+y,z
1/2-x,-y,z
1/2+x,1/2-y,-z
1/2-x,y,-z
1/2-x,1/2-y,-z
1/2+x,y,-z
1/2-x,1/2+y,z
1/2+x,-y,z
loop_
_atom_site_type_symbol
_atom_site_label
_atom_site_fract_x
_atom_site_fract_y
_atom_site_fract_z
Si Si1 0.817462 0.136352 0.222575
Si Si2 0.181401 0.200605 0.323131
Si Si3 0.681797 0.421976 0.941653
Si Si4 0.179885 0.163172 0.894958
Si Si5 0.680565 0.750000 0.061783
Si Si6 0.827648 0.198109 0.557587
Si Si7 0.179938 0.455534 0.182235
O O1 0.777197 0.165541 0.276115
O O2 0.726681 0.153176 0.168924
O O3 0.784205 0.085511 0.221335
O O4 0.000000 0.140544 0.213187
O O5 0.231132 0.250000 0.310454
O O6 0.243461 0.187833 0.384384
O O7 0.000000 0.201611 0.325649
O O8 0.500000 0.420984 0.944933
O O9 0.747489 0.374341 0.932721
O O10 0.725986 0.445526 0.883041
O O11 0.750000 0.439680 0.000000
O O12 0.255892 0.207844 0.909241
O O13 0.000000 0.164109 0.902676
O O14 0.500000 0.750000 0.060897
O O15 0.750000 0.750000 0.000000
O O16 0.827695 0.250000 0.554956
O O17 0.750000 0.182843 0.500000
O O18 0.000000 0.183631 0.559883
O O19 0.250000 0.500000 0.200834
O O20 0.000000 0.459562 0.181385
#
# Coordination Sequence:
#
# PCOD9502776 Si02
#       7
#    16  16  16  16   8  16  16
#     4   9  19  35  51  71  97 127 160 196 239 286
#     4   9  17  29  47  70  96 130 167 198 234 279
#     4  10  20  35  52  71  93 118 146 184 234 293
#     4  11  22  35  50  70  92 119 154 194 237 282
#     4  12  24  38  52  66  88 118 155 196 237 282
#     4   9  16  26  41  63  94 131 168 204 237 269
#     4   9  19  34  51  70  94 121 154 193 238 290
#
# _framework density 15.825998
#
# number of rings (size 3 to 8) (size 9 to 14) (size 15 to 20)
#    0.000    2.308    0.000    4.385    1.077    5.846 
#    0.000    1.538    0.000    0.000    0.000    0.000 
#    0.000    0.615    0.000    7.077    0.000    2.462 
#
# Total GULP energy -289886.163236 kJ/mol
# GULP energy per Si atom -5574.733908 kJ/mol
# Density = 1.578998 g / cm^3
# Si number density = 15.825998 Si / 1000 Ang^3
#
#
#
# Elastic Constant Matrix: (Units=GPa)
#
#
# Indices 1 2 3 4 5 6 
#
# 1 50.9107 29.8540 30.9932 0.0000 0.0000 0.0000
# 2 29.8540 98.7713 44.2759 0.0000 0.0000 0.0000
# 3 30.9932 44.2759 99.9513 0.0000 0.0000 0.0000
# 4 0.0000 0.0000 0.0000 9.3229 0.0000 0.0000
# 5 0.0000 0.0000 0.0000 0.0000 26.1082 0.0000
# 6 0.0000 0.0000 0.0000 0.0000 0.0000 21.6277
#
#
#
# Elastic Compliance Matrix: (Units=1/GPa)
#
#
# Indices 1 2 3 4 5 6 
#
# 1 0.026305 -0.005358 -0.005783 0.000000 0.000000 0.000000
# 2 -0.005358 0.013724 -0.004418 0.000000 0.000000 0.000000
# 3 -0.005783 -0.004418 0.013755 0.000000 0.000000 0.000000
# 4 0.000000 0.000000 0.000000 0.107263 0.000000 0.000000
# 5 0.000000 0.000000 0.000000 0.000000 0.038302 0.000000
# 6 0.000000 0.000000 0.000000 0.000000 0.000000 0.046237
#
#
# Mechanical properties :
#
#
# Convention : Reuss Voigt Hill
#
# Bulk Modulus (GPa) = 44.11981 51.09774 47.60877
# Shear Modulus (GPa) = 17.58945 21.04576 19.31761
#
# Velocity S-wave (km/s) = 3.33742 3.65063 3.49753
# Velocity P-wave (km/s) = 6.54139 7.08003 6.81603
#
# Compressibility (1/GPa) = 0.02266556
#
# Stress axis : x y z
#
# Youngs Moduli (GPa) = 38.01560 72.86266 72.69981
#
# Poissons Ratio (x) = 0.39043 0.42043
# Poissons Ratio (y) = 0.20370 0.32119
# Poissons Ratio (z) = 0.21985 0.32191
#
# Static dielectric constant tensor:
#      x y z
#    x 1.528970 0.000000 0.000000 
#    y 0.000000 1.535870 0.000000 
#    z 0.000000 0.000000 1.518860 
# 
# From -- ./inp_files/41150.got.cif
#   From: 2010.05.17/outbox.cif.g08.bks.cpg/sg67_21_cif.got.tgz:41150.got - 2010.06.03 18:28:57.
