data_PCOD9502777
_publ_section_title
;
Structure prediction by ZEFSAII (Michael W. Deem and Ramdas Pophale) SiO2 
 PCOD9502777
Probable space group: C M M A
;
_chemical_formula_sum "Si O2"
_cell_formula_units_Z 88
_cell_length_a 8.678995
_cell_length_b 31.528385
_cell_length_c 18.147805
_cell_angle_alpha 90.000000
_cell_angle_beta 90.000000
_cell_angle_gamma 90.000000
_cell_volume 4965.869100
_symmetry_space_group_name_H-M "C M M A"
_symmetry_group_IT_number 67
_symmetry_cell_setting 'orthorhombic'
loop_
_space_group_symop_operation_xyz
x,y,z
-x,1/2-y,z
x,-y,-z
-x,1/2+y,-z
-x,-y,-z
x,1/2+y,-z
-x,y,z
x,1/2-y,z
1/2+x,1/2+y,z
1/2-x,-y,z
1/2+x,1/2-y,-z
1/2-x,y,-z
1/2-x,1/2-y,-z
1/2+x,y,-z
1/2-x,1/2+y,z
1/2+x,-y,z
loop_
_atom_site_type_symbol
_atom_site_label
_atom_site_fract_x
_atom_site_fract_y
_atom_site_fract_z
Si Si1 0.184572 0.955143 0.238496
Si Si2 0.684716 0.077444 0.077404
Si Si3 0.683768 0.750000 0.918412
Si Si4 0.183151 0.162704 0.138255
Si Si5 0.186817 0.364979 0.706013
Si Si6 0.314325 0.201976 0.418029
O O1 0.235433 0.945503 0.153609
O O2 0.225524 0.915121 0.290466
O O3 0.000000 0.957402 0.236636
O O4 0.250000 0.000000 0.262765
O O5 0.500000 0.076678 0.074735
O O6 0.742957 0.125589 0.088662
O O7 0.750000 0.060540 0.000000
O O8 0.500000 0.750000 0.918355
O O9 0.747193 0.707873 0.881023
O O10 0.750000 0.750000 0.000000
O O11 0.231986 0.152946 0.221602
O O12 0.000000 0.162233 0.128884
O O13 0.232514 0.335835 0.636942
O O14 0.000000 0.361799 0.714337
O O15 0.500000 0.201495 0.421177
O O16 0.268344 0.250000 0.393418
O O17 0.250000 0.195769 0.500000
#
# Coordination Sequence:
#
# PCOD9502777 Si02
#       6
#    16  16   8  16  16  16
#     4   9  19  34  52  74 102 134 176 223 268 320
#     4  10  20  35  52  72  99 134 172 218 272 326
#     4  12  24  38  52  68  97 136 177 222 268 314
#     4  11  22  35  51  75 101 132 176 222 264 312
#     4   9  19  36  55  78 107 142 177 212 261 316
#     4   9  18  33  55  83 113 144 174 207 254 309
#
# _framework density 17.720966000000001
#
# number of rings (size 3 to 8) (size 9 to 14) (size 15 to 20)
#    0.000    2.182    0.000    4.636    1.273    4.727 
#    0.000    1.818    0.000    0.545    0.000    3.818 
#    0.000    0.000    0.000    0.000    0.000    0.000 
#
# Total GULP energy -245459.536318 kJ/mol
# GULP energy per Si atom -5578.625825 kJ/mol
# Density = 1.768063 g / cm^3
# Si number density = 17.720966 Si / 1000 Ang^3
#
#
#
# Elastic Constant Matrix: (Units=GPa)
#
#
# Indices 1 2 3 4 5 6 
#
# 1 40.2773 27.4944 19.6978 0.0000 0.0000 0.0000
# 2 27.4944 147.9104 59.9288 0.0000 0.0000 0.0000
# 3 19.6978 59.9288 83.3887 0.0000 0.0000 0.0000
# 4 0.0000 0.0000 0.0000 11.4898 0.0000 0.0000
# 5 0.0000 0.0000 0.0000 0.0000 27.2339 0.0000
# 6 0.0000 0.0000 0.0000 0.0000 0.0000 26.5431
#
#
#
# Elastic Compliance Matrix: (Units=1/GPa)
#
#
# Indices 1 2 3 4 5 6 
#
# 1 0.029475 -0.003750 -0.004268 0.000000 0.000000 0.000000
# 2 -0.003750 0.010015 -0.006312 0.000000 0.000000 0.000000
# 3 -0.004268 -0.006312 0.017536 0.000000 0.000000 0.000000
# 4 0.000000 0.000000 0.000000 0.087033 0.000000 0.000000
# 5 0.000000 0.000000 0.000000 0.000000 0.036719 0.000000
# 6 0.000000 0.000000 0.000000 0.000000 0.000000 0.037675
#
#
# Mechanical properties :
#
#
# Convention : Reuss Voigt Hill
#
# Bulk Modulus (GPa) = 35.25133 53.97981 44.61557
# Shear Modulus (GPa) = 19.48804 24.01705 21.75255
#
# Velocity S-wave (km/s) = 3.31980 3.68542 3.50738
# Velocity P-wave (km/s) = 5.88476 6.97401 6.45241
#
# Compressibility (1/GPa) = 0.02836772
#
# Stress axis : x y z
#
# Youngs Moduli (GPa) = 33.92739 99.84750 57.02477
#
# Poissons Ratio (x) = 0.37441 0.24335
# Poissons Ratio (y) = 0.12722 0.35993
# Poissons Ratio (z) = 0.14479 0.63023
#
# Static dielectric constant tensor:
#      x y z
#    x 1.591940 0.000000 0.000000 
#    y 0.000000 1.641790 0.000000 
#    z 0.000000 0.000000 1.589500 
# 
# From -- ./inp_files/32409.got.cif
#   From: 2010.05.17/outbox.cif.g08.bks.cpg/sg67_17_cif.got.tgz:32409.got - 2010.06.03 18:28:57.
