data_PCOD9502528
_publ_section_title
;
Structure prediction by ZEFSAII (Michael W. Deem and Ramdas Pophale) SiO2 
 PCOD9502528
Probable space group: C M M A
;
_chemical_formula_sum "Si O2"
_cell_formula_units_Z 116
_cell_length_a 8.803387
_cell_length_b 24.533407
_cell_length_c 26.860116
_cell_angle_alpha 90.000000
_cell_angle_beta 90.000000
_cell_angle_gamma 90.000000
_cell_volume 5801.169321
_symmetry_space_group_name_H-M "C M M A"
_symmetry_group_IT_number 67
_symmetry_cell_setting 'orthorhombic'
loop_
_space_group_symop_operation_xyz
x,y,z
-x,1/2-y,z
x,-y,-z
-x,1/2+y,-z
-x,-y,-z
x,1/2+y,-z
-x,y,z
x,1/2-y,z
1/2+x,1/2+y,z
1/2-x,-y,z
1/2+x,1/2-y,-z
1/2-x,y,-z
1/2-x,1/2-y,-z
1/2+x,y,-z
1/2-x,1/2+y,z
1/2+x,-y,z
loop_
_atom_site_type_symbol
_atom_site_label
_atom_site_fract_x
_atom_site_fract_y
_atom_site_fract_z
Si Si1 0.177383 0.443613 0.791863
Si Si2 0.320346 0.189719 0.336910
Si Si3 0.000000 0.250000 0.135645
Si Si4 0.177359 0.943840 0.576748
Si Si5 0.831809 0.865264 0.865220
Si Si6 0.817865 0.058735 0.944929
Si Si7 0.326364 0.918114 0.306766
Si Si8 0.321305 0.831324 0.550366
O O1 0.250000 0.500000 0.810782
O O2 0.256555 0.390674 0.815862
O O3 0.210180 0.441947 0.732893
O O4 0.000000 0.442862 0.802641
O O5 0.500000 0.173795 0.334491
O O6 0.305019 0.250000 0.315625
O O7 0.215028 0.145569 0.311341
O O8 0.277644 0.191511 0.395501
O O9 0.131511 0.300297 0.135167
O O10 0.188976 0.940084 0.637063
O O11 0.271181 0.893953 0.555044
O O12 0.000000 0.939040 0.563735
O O13 0.250000 0.000000 0.560361
O O14 0.733668 0.891416 0.909722
O O15 0.000000 0.890780 0.869916
O O16 0.000000 0.055053 0.946610
O O17 0.750000 0.000000 0.928265
O O18 0.750000 0.067891 0.000000
O O19 0.500000 0.926814 0.290070
O O20 0.500000 0.825323 0.546138
O O21 0.250000 0.809063 0.500000
#
# Coordination Sequence:
#
# PCOD9502528 Si02
#       8
#    16  16   4  16  16  16  16  16
#     4  12  24  39  63  96 128 162 204 257 315 376
#     4   9  19  37  57  78 106 142 186 231 280 341
#     4   8  24  44  72  82 130 176 218 274 316 378
#     4  10  20  34  53  75 103 137 173 213 267 333
#     4  10  21  43  65  90 125 171 218 264 321 373
#     4  11  21  36  63 101 138 175 218 276 336 391
#     4  10  21  37  56  84 116 148 186 233 288 349
#     4  10  20  34  52  74 102 133 170 221 274 329
#
# _framework density 19.995968000000001
#
# number of rings (size 3 to 8) (size 9 to 14) (size 15 to 20)
#    0.414    1.379    0.000    5.379    0.000    4.138 
#    1.241    3.103    0.000    0.000    0.000    0.000 
#    0.000    0.000    0.000    0.000    0.000    0.000 
#
# Total GULP energy -323159.535341 kJ/mol
# GULP energy per Si atom -5571.716127 kJ/mol
# Density = 1.995046 g / cm^3
# Si number density = 19.995968 Si / 1000 Ang^3
#
#
#
# Elastic Constant Matrix: (Units=GPa)
#
#
# Indices 1 2 3 4 5 6 
#
# 1 91.3261 31.8927 19.3483 0.0000 0.0000 0.0000
# 2 31.8927 136.6551 13.1306 0.0000 0.0000 0.0000
# 3 19.3483 13.1306 57.1282 0.0000 0.0000 0.0000
# 4 0.0000 0.0000 0.0000 42.1368 0.0000 0.0000
# 5 0.0000 0.0000 0.0000 0.0000 28.7542 0.0000
# 6 0.0000 0.0000 0.0000 0.0000 0.0000 20.7027
#
#
#
# Elastic Compliance Matrix: (Units=1/GPa)
#
#
# Indices 1 2 3 4 5 6 
#
# 1 0.012636 -0.002595 -0.003683 0.000000 0.000000 0.000000
# 2 -0.002595 0.008016 -0.000963 0.000000 0.000000 0.000000
# 3 -0.003683 -0.000963 0.018973 0.000000 0.000000 0.000000
# 4 0.000000 0.000000 0.000000 0.023732 0.000000 0.000000
# 5 0.000000 0.000000 0.000000 0.000000 0.034778 0.000000
# 6 0.000000 0.000000 0.000000 0.000000 0.000000 0.048303
#
#
# Mechanical properties :
#
#
# Convention : Reuss Voigt Hill
#
# Bulk Modulus (GPa) = 39.77419 45.98361 42.87890
# Shear Modulus (GPa) = 29.53290 33.03460 31.28375
#
# Velocity S-wave (km/s) = 3.84727 4.06897 3.95967
# Velocity P-wave (km/s) = 6.29838 6.71727 6.51119
#
# Compressibility (1/GPa) = 0.02514193
#
# Stress axis : x y z
#
# Youngs Moduli (GPa) = 79.13659 124.75148 52.70542
#
# Poissons Ratio (x) = 0.32375 0.19413
# Poissons Ratio (y) = 0.20537 0.05078
# Poissons Ratio (z) = 0.29148 0.12020
#
# Static dielectric constant tensor:
#      x y z
#    x 1.679270 0.000000 0.000000 
#    y 0.000000 1.696550 0.000000 
#    z 0.000000 0.000000 1.755360 
# 
# From -- ./inp_files/43803.got.cif
#   From: 2010.05.17/outbox.cif.g08.bks.cpg/sg67_22_cif.got.tgz:43803.got - 2010.06.03 18:28:57.
