data_PCOD9502870
_publ_section_title
;
Structure prediction by ZEFSAII (Michael W. Deem and Ramdas Pophale) SiO2 
 PCOD9502870
Probable space group: C M M A
;
_chemical_formula_sum "Si O2"
_cell_formula_units_Z 100
_cell_length_a 9.370868
_cell_length_b 25.102587
_cell_length_c 20.226821
_cell_angle_alpha 90.000000
_cell_angle_beta 90.000000
_cell_angle_gamma 90.000000
_cell_volume 4758.016376
_symmetry_space_group_name_H-M "C M M A"
_symmetry_group_IT_number 67
_symmetry_cell_setting 'orthorhombic'
loop_
_space_group_symop_operation_xyz
x,y,z
-x,1/2-y,z
x,-y,-z
-x,1/2+y,-z
-x,-y,-z
x,1/2+y,-z
-x,y,z
x,1/2-y,z
1/2+x,1/2+y,z
1/2-x,-y,z
1/2+x,1/2-y,-z
1/2-x,y,-z
1/2-x,1/2-y,-z
1/2+x,y,-z
1/2-x,1/2+y,z
1/2+x,-y,z
loop_
_atom_site_type_symbol
_atom_site_label
_atom_site_fract_x
_atom_site_fract_y
_atom_site_fract_z
Si Si1 0.670675 0.190846 0.429605
Si Si2 0.250000 0.000000 0.500000
Si Si3 0.668527 0.340311 0.061457
Si Si4 0.165047 0.089075 0.247406
Si Si5 0.830417 0.052383 0.101115
Si Si6 0.832375 0.692855 0.211689
Si Si7 0.837526 0.413945 0.392118
O O1 0.500000 0.185535 0.436875
O O2 0.696266 0.250000 0.398349
O O3 0.750000 0.192552 0.500000
O O4 0.733326 0.136764 0.398589
O O5 0.176443 0.041602 0.449098
O O6 0.500000 0.347362 0.047599
O O7 0.750658 0.396072 0.072911
O O8 0.680316 0.311395 0.132019
O O9 0.750000 0.314053 0.000000
O O10 0.189337 0.055974 0.180850
O O11 0.257690 0.142134 0.242267
O O12 0.187140 0.062561 0.318639
O O13 0.000000 0.105476 0.244111
O O14 0.000000 0.052325 0.086851
O O15 0.750000 0.000000 0.077370
O O16 0.773982 0.750000 0.233059
O O17 0.000000 0.690721 0.227591
O O18 0.000000 0.393513 0.395258
#
# Coordination Sequence:
#
# PCOD9502870 Si02
#       7
#    16   4  16  16  16  16  16
#     4  10  21  38  61  87 115 148 188 236 291 351
#     4  12  26  40  66  90 122 164 204 250 302 372
#     4  10  20  35  55  82 118 156 196 239 289 345
#     4   9  21  39  58  83 115 151 191 240 293 350
#     4  10  20  36  57  80 110 147 193 245 297 349
#     4   9  19  37  60  87 120 155 194 242 290 343
#     4  11  24  42  62  89 124 159 200 248 304 367
#
# _framework density 21.017161000000002
#
# number of rings (size 3 to 8) (size 9 to 14) (size 15 to 20)
#    0.000    2.080    0.800    1.680    1.120    5.120 
#    0.000    4.800    0.000    0.000    0.000    0.000 
#    0.000    0.000    0.000    0.000    0.000    0.000 
#
# Total GULP energy -278908.158827 kJ/mol
# GULP energy per Si atom -5578.163177 kJ/mol
# Density = 2.096932 g / cm^3
# Si number density = 21.017161 Si / 1000 Ang^3
#
#
#
# Elastic Constant Matrix: (Units=GPa)
#
#
# Indices 1 2 3 4 5 6 
#
# 1 96.6306 66.5503 44.7058 0.0000 0.0000 0.0000
# 2 66.5503 102.8139 6.3653 0.0000 0.0000 0.0000
# 3 44.7058 6.3653 106.0910 0.0000 0.0000 0.0000
# 4 0.0000 0.0000 0.0000 26.7810 0.0000 0.0000
# 5 0.0000 0.0000 0.0000 0.0000 23.6685 0.0000
# 6 0.0000 0.0000 0.0000 0.0000 0.0000 10.5150
#
#
#
# Elastic Compliance Matrix: (Units=1/GPa)
#
#
# Indices 1 2 3 4 5 6 
#
# 1 0.026337 -0.016422 -0.010113 0.000000 0.000000 0.000000
# 2 -0.016422 0.020002 0.005720 0.000000 0.000000 0.000000
# 3 -0.010113 0.005720 0.013344 0.000000 0.000000 0.000000
# 4 0.000000 0.000000 0.000000 0.037340 0.000000 0.000000
# 5 0.000000 0.000000 0.000000 0.000000 0.042250 0.000000
# 6 0.000000 0.000000 0.000000 0.000000 0.000000 0.095102
#
#
# Mechanical properties :
#
#
# Convention : Reuss Voigt Hill
#
# Bulk Modulus (GPa) = 55.39068 60.08649 57.73858
# Shear Modulus (GPa) = 17.72907 24.72051 21.22479
#
# Velocity S-wave (km/s) = 2.90755 3.43331 3.18131
# Velocity P-wave (km/s) = 6.13873 6.66094 6.40516
#
# Compressibility (1/GPa) = 0.01805358
#
# Stress axis : x y z
#
# Youngs Moduli (GPa) = 37.96921 49.99570 74.93898
#
# Poissons Ratio (x) = 0.82101 0.75785
# Poissons Ratio (y) = 0.62352 -0.42864
# Poissons Ratio (z) = 0.38398 -0.28597
#
# Static dielectric constant tensor:
#      x y z
#    x 1.706470 0.000000 0.000000 
#    y 0.000000 1.770440 0.000000 
#    z 0.000000 0.000000 1.810300 
# 
# From -- ./inp_files/37351.got.cif
#   From: 2010.05.17/outbox.cif.g08.bks.cpg/sg67_19_cif.got.tgz:37351.got - 2010.06.03 18:28:57.
