data_PCOD9502643
_publ_section_title
;
Structure prediction by ZEFSAII (Michael W. Deem and Ramdas Pophale) SiO2 
 PCOD9502643
Probable space group: C M M A
;
_chemical_formula_sum "Si O2"
_cell_formula_units_Z 56
_cell_length_a 8.783379
_cell_length_b 26.111861
_cell_length_c 14.632447
_cell_angle_alpha 90.000000
_cell_angle_beta 90.000000
_cell_angle_gamma 90.000000
_cell_volume 3355.957156
_symmetry_space_group_name_H-M "C M M A"
_symmetry_group_IT_number 67
_symmetry_cell_setting 'orthorhombic'
loop_
_space_group_symop_operation_xyz
x,y,z
-x,1/2-y,z
x,-y,-z
-x,1/2+y,-z
-x,-y,-z
x,1/2+y,-z
-x,y,z
x,1/2-y,z
1/2+x,1/2+y,z
1/2-x,-y,z
1/2+x,1/2-y,-z
1/2-x,y,-z
1/2-x,1/2-y,-z
1/2+x,y,-z
1/2-x,1/2+y,z
1/2+x,-y,z
loop_
_atom_site_type_symbol
_atom_site_label
_atom_site_fract_x
_atom_site_fract_y
_atom_site_fract_z
Si Si1 0.317738 0.844793 0.214725
Si Si2 0.682151 0.054683 0.899772
Si Si3 0.818544 0.189066 0.598154
Si Si4 0.317682 0.750000 0.898241
O O1 0.500000 0.837767 0.212847
O O2 0.281272 0.899210 0.168629
O O3 0.257562 0.839990 0.317646
O O4 0.240803 0.799803 0.155833
O O5 0.500000 0.050461 0.907509
O O6 0.750000 0.000000 0.870736
O O7 0.750000 0.066189 0.000000
O O8 0.788181 0.250000 0.611109
O O9 0.750000 0.174540 0.500000
O O10 0.000000 0.181952 0.598548
O O11 0.500000 0.750000 0.901489
O O12 0.250000 0.750000 0.000000
#
# Coordination Sequence:
#
# PCOD9502643 Si02
#       4
#    16  16  16   8
#     4  11  22  36  55  80 110 143 179 222 270 322
#     4  10  21  36  56  80 106 142 183 225 269 314
#     4  10  20  34  54  80 109 144 181 220 268 320
#     4  12  24  36  51  76 109 146 180 216 268 322
#
# _framework density 16.686745999999999
#
# number of rings (size 3 to 8) (size 9 to 14) (size 15 to 20)
#    0.000    1.429    1.429    5.571    0.000    8.000 
#    0.000    0.000    0.000    0.857    0.000    6.000 
#    0.000    0.000    0.000    0.000    0.000    0.000 
#
# Total GULP energy -156478.019534 kJ/mol
# GULP energy per Si atom -5588.500698 kJ/mol
# Density = 1.664877 g / cm^3
# Si number density = 16.686746 Si / 1000 Ang^3
#
#
#
# Elastic Constant Matrix: (Units=GPa)
#
#
# Indices 1 2 3 4 5 6 
#
# 1 96.7229 77.0259 76.7023 0.0000 0.0000 0.0000
# 2 77.0259 127.3889 102.0091 0.0000 0.0000 0.0000
# 3 76.7023 102.0091 163.2648 0.0000 0.0000 0.0000
# 4 0.0000 0.0000 0.0000 13.0242 0.0000 0.0000
# 5 0.0000 0.0000 0.0000 0.0000 34.0861 0.0000
# 6 0.0000 0.0000 0.0000 0.0000 0.0000 23.7491
#
#
#
# Elastic Compliance Matrix: (Units=1/GPa)
#
#
# Indices 1 2 3 4 5 6 
#
# 1 0.021105 -0.009649 -0.003886 0.000000 0.000000 0.000000
# 2 -0.009649 0.020122 -0.008039 0.000000 0.000000 0.000000
# 3 -0.003886 -0.008039 0.012974 0.000000 0.000000 0.000000
# 4 0.000000 0.000000 0.000000 0.076780 0.000000 0.000000
# 5 0.000000 0.000000 0.000000 0.000000 0.029337 0.000000
# 6 0.000000 0.000000 0.000000 0.000000 0.000000 0.042107
#
#
# Mechanical properties :
#
#
# Convention : Reuss Voigt Hill
#
# Bulk Modulus (GPa) = 90.48627 99.87235 95.17931
# Shear Modulus (GPa) = 20.05963 22.94784 21.50374
#
# Velocity S-wave (km/s) = 3.47094 3.71241 3.59370
# Velocity P-wave (km/s) = 8.39091 8.85196 8.62452
#
# Compressibility (1/GPa) = 0.01105140
#
# Stress axis : x y z
#
# Youngs Moduli (GPa) = 47.38277 49.69762 77.07904
#
# Poissons Ratio (x) = 0.47953 0.29955
# Poissons Ratio (y) = 0.45719 0.61964
# Poissons Ratio (z) = 0.18414 0.39952
#
# Static dielectric constant tensor:
#      x y z
#    x 1.556330 0.000000 0.000000 
#    y 0.000000 1.543670 0.000000 
#    z 0.000000 0.000000 1.541630 
# 
# From -- ./inp_files/15546.got.cif
#   From: 2010.05.17/outbox.cif.g08.bks.cpg/sg67_8_cif.got.tgz:15546.got - 2010.06.03 18:28:57.
