data_PCOD9502876
_publ_section_title
;
Structure prediction by ZEFSAII (Michael W. Deem and Ramdas Pophale) SiO2 
 PCOD9502876
Probable space group: C M M A
;
_chemical_formula_sum "Si O2"
_cell_formula_units_Z 96
_cell_length_a 32.537319
_cell_length_b 14.795806
_cell_length_c 11.398467
_cell_angle_alpha 90.000000
_cell_angle_beta 90.000000
_cell_angle_gamma 90.000000
_cell_volume 5487.402790
_symmetry_space_group_name_H-M "C M M A"
_symmetry_group_IT_number 67
_symmetry_cell_setting 'orthorhombic'
loop_
_space_group_symop_operation_xyz
x,y,z
-x,1/2-y,z
x,-y,-z
-x,1/2+y,-z
-x,-y,-z
x,1/2+y,-z
-x,y,z
x,1/2-y,z
1/2+x,1/2+y,z
1/2-x,-y,z
1/2+x,1/2-y,-z
1/2-x,y,-z
1/2-x,1/2-y,-z
1/2+x,y,-z
1/2-x,1/2+y,z
1/2+x,-y,z
loop_
_atom_site_type_symbol
_atom_site_label
_atom_site_fract_x
_atom_site_fract_y
_atom_site_fract_z
Si Si1 0.500000 0.492751 0.145888
Si Si2 0.638993 0.146138 0.273165
Si Si3 0.908494 0.512092 0.862327
Si Si4 0.137653 0.852600 0.715921
Si Si5 0.000000 0.143977 0.636863
Si Si6 0.202346 0.001616 0.641322
Si Si7 0.585557 0.107177 0.493333
O O1 0.544676 0.531527 0.177894
O O2 0.500000 0.405210 0.235070
O O3 0.500000 0.500000 0.000000
O O4 0.644310 0.250000 0.231293
O O5 0.680130 0.089040 0.301595
O O6 0.615395 0.148921 0.396624
O O7 0.610314 0.079290 0.195046
O O8 0.880841 0.596196 0.826951
O O9 0.908845 0.500000 0.000000
O O10 0.149371 0.750000 0.735955
O O11 0.101466 0.856856 0.617685
O O12 0.175971 0.914004 0.677251
O O13 0.039818 0.121764 0.556642
O O14 0.000000 0.250000 0.660541
O O15 0.200302 0.000000 0.500000
O O16 0.250000 0.000000 0.675957
O O17 0.592609 0.000000 0.500000
#
# Coordination Sequence:
#
# PCOD9502876 Si02
#       7
#     8  16  16  16   8  16  16
#     4  10  20  37  56  75 114 156 194 236 285 322
#     4  11  20  35  59  83 112 147 188 232 279 338
#     4  10  22  39  57  81 112 152 197 240 282 325
#     4  11  21  37  58  82 115 151 185 230 285 343
#     4  12  23  33  54  87 115 150 199 245 280 336
#     4  10  20  35  55  85 120 149 178 221 284 351
#     4  12  20  36  54  80 116 152 186 228 285 340
#
# _framework density 17.494615
#
# number of rings (size 3 to 8) (size 9 to 14) (size 15 to 20)
#    0.000    1.167    6.667    1.750    0.000    2.000 
#    0.000    5.417    0.000    8.000    0.000    9.333 
#    0.000    0.000    0.000    0.000    0.000    0.000 
#
# Total GULP energy -267299.645540 kJ/mol
# GULP energy per Si atom -5568.742615 kJ/mol
# Density = 1.745480 g / cm^3
# Si number density = 17.494615 Si / 1000 Ang^3
#
#
#
# Elastic Constant Matrix: (Units=GPa)
#
#
# Indices 1 2 3 4 5 6 
#
# 1 145.1501 48.6335 22.7641 0.0000 0.0000 0.0000
# 2 48.6335 139.4424 16.5480 0.0000 0.0000 0.0000
# 3 22.7641 16.5480 52.0645 0.0000 0.0000 0.0000
# 4 0.0000 0.0000 0.0000 10.3154 0.0000 0.0000
# 5 0.0000 0.0000 0.0000 0.0000 20.5543 0.0000
# 6 0.0000 0.0000 0.0000 0.0000 0.0000 -28.1265
#
#
#
# Elastic Compliance Matrix: (Units=1/GPa)
#
#
# Indices 1 2 3 4 5 6 
#
# 1 0.008168 -0.002520 -0.002770 0.000000 0.000000 0.000000
# 2 -0.002520 0.008230 -0.001514 0.000000 0.000000 0.000000
# 3 -0.002770 -0.001514 0.020899 0.000000 0.000000 0.000000
# 4 0.000000 0.000000 0.000000 0.096943 0.000000 0.000000
# 5 0.000000 0.000000 0.000000 0.000000 0.048652 0.000000
# 6 0.000000 0.000000 0.000000 0.000000 0.000000 -0.035554
#
#
# Mechanical properties :
#
#
# Convention : Reuss Voigt Hill
#
# Bulk Modulus (GPa) = 42.21399 56.94977 49.58188
# Shear Modulus (GPa) = 29.61322 17.12940 23.37131
#
# Velocity S-wave (km/s) = 4.11871 3.13249 3.65898
# Velocity P-wave (km/s) = 6.84109 6.76068 6.80100
#
# Compressibility (1/GPa) = 0.02368883
#
# Stress axis : x y z
#
# Youngs Moduli (GPa) = 122.42473 121.50641 47.84815
#
# Poissons Ratio (x) = 0.30621 0.13256
# Poissons Ratio (y) = 0.30852 0.07244
# Poissons Ratio (z) = 0.33917 0.18395
#
# Static dielectric constant tensor:
#      x y z
#    x 1.613070 0.000000 0.000000 
#    y 0.000000 1.611700 0.000000 
#    z 0.000000 0.000000 1.601900 
# 
# From -- ./inp_files/23751.got.cif
#   From: 2010.05.17/outbox.cif.g08.bks.cpg/sg67_12_cif.got.tgz:23751.got - 2010.06.03 18:28:57.
