data_PCOD9502605
_publ_section_title
;
Structure prediction by ZEFSAII (Michael W. Deem and Ramdas Pophale) SiO2 
 PCOD9502605
Probable space group: C M M A
;
_chemical_formula_sum "Si O2"
_cell_formula_units_Z 56
_cell_length_a 15.994865
_cell_length_b 8.751006
_cell_length_c 19.751237
_cell_angle_alpha 90.000000
_cell_angle_beta 90.000000
_cell_angle_gamma 90.000000
_cell_volume 2764.603546
_symmetry_space_group_name_H-M "C M M A"
_symmetry_group_IT_number 67
_symmetry_cell_setting 'orthorhombic'
loop_
_space_group_symop_operation_xyz
x,y,z
-x,1/2-y,z
x,-y,-z
-x,1/2+y,-z
-x,-y,-z
x,1/2+y,-z
-x,y,z
x,1/2-y,z
1/2+x,1/2+y,z
1/2-x,-y,z
1/2+x,1/2-y,-z
1/2-x,y,-z
1/2-x,1/2-y,-z
1/2+x,y,-z
1/2-x,1/2+y,z
1/2+x,-y,z
loop_
_atom_site_type_symbol
_atom_site_label
_atom_site_fract_x
_atom_site_fract_y
_atom_site_fract_z
Si Si1 0.661582 0.569449 0.650364
Si Si2 0.500000 0.066972 0.575370
Si Si3 0.902023 0.929258 0.782297
Si Si4 0.843441 0.567307 0.931121
O O1 0.660175 0.750000 0.639571
O O2 0.750000 0.500000 0.627756
O O3 0.583147 0.492458 0.612939
O O4 0.649188 0.530082 0.729755
O O5 0.500000 0.250000 0.574951
O O6 0.500000 0.000000 0.500000
O O7 0.878565 0.750000 0.773679
O O8 0.888086 0.970331 0.860630
O O9 0.000000 0.943518 0.766361
O O10 0.839822 0.750000 0.937369
O O11 0.750000 0.500000 0.926367
O O12 0.881920 0.500000 0.000000
#
# Coordination Sequence:
#
# PCOD9502605 Si02
#       4
#    16   8  16  16
#     4  12  25  43  69 102 135 177 224 269 325 388
#     4  12  26  48  74 104 141 176 215 268 320 384
#     4  10  21  38  60  87 123 165 211 268 329 386
#     4  10  20  34  53  78 111 156 207 264 325 387
#
# _framework density 20.256070000000001
#
# number of rings (size 3 to 8) (size 9 to 14) (size 15 to 20)
#    0.000    1.143    1.429    6.429    0.000    5.714 
#    0.000    2.857    0.000    0.000    0.000    0.000 
#    0.000    0.000    0.000    0.000    0.000    0.000 
#
# Total GULP energy -156609.626639 kJ/mol
# GULP energy per Si atom -5593.200951 kJ/mol
# Density = 2.020997 g / cm^3
# Si number density = 20.256070 Si / 1000 Ang^3
#
#
#
# Elastic Constant Matrix: (Units=GPa)
#
#
# Indices 1 2 3 4 5 6 
#
# 1 123.2350 71.0227 53.6679 0.0000 0.0000 0.0000
# 2 71.0227 150.8778 62.9035 0.0000 0.0000 0.0000
# 3 53.6679 62.9035 119.8762 0.0000 0.0000 0.0000
# 4 0.0000 0.0000 0.0000 39.5380 0.0000 0.0000
# 5 0.0000 0.0000 0.0000 0.0000 17.9539 0.0000
# 6 0.0000 0.0000 0.0000 0.0000 0.0000 25.0472
#
#
#
# Elastic Compliance Matrix: (Units=1/GPa)
#
#
# Indices 1 2 3 4 5 6 
#
# 1 0.011958 -0.004348 -0.003072 0.000000 0.000000 0.000000
# 2 -0.004348 0.010065 -0.003335 0.000000 0.000000 0.000000
# 3 -0.003072 -0.003335 0.011467 0.000000 0.000000 0.000000
# 4 0.000000 0.000000 0.000000 0.025292 0.000000 0.000000
# 5 0.000000 0.000000 0.000000 0.000000 0.055698 0.000000
# 6 0.000000 0.000000 0.000000 0.000000 0.000000 0.039925
#
#
# Mechanical properties :
#
#
# Convention : Reuss Voigt Hill
#
# Bulk Modulus (GPa) = 83.46984 85.46414 84.46699
# Shear Modulus (GPa) = 27.79172 30.26748 29.02960
#
# Velocity S-wave (km/s) = 3.70810 3.86974 3.78978
# Velocity P-wave (km/s) = 7.72205 7.88986 7.80641
#
# Compressibility (1/GPa) = 0.01198038
#
# Stress axis : x y z
#
# Youngs Moduli (GPa) = 83.62257 99.35252 87.20592
#
# Poissons Ratio (x) = 0.43203 0.26789
# Poissons Ratio (y) = 0.36363 0.29081
# Poissons Ratio (z) = 0.25688 0.33132
#
# Static dielectric constant tensor:
#      x y z
#    x 1.702100 0.000000 0.000000 
#    y 0.000000 1.679830 0.000000 
#    z 0.000000 0.000000 1.743210 
# 
# From -- ./inp_files/31631.got.cif
#   From: 2010.05.17/outbox.cif.g08.bks.cpg/sg67_16_cif.got.tgz:31631.got - 2010.06.03 18:28:57.
