data_PCOD9502675
_publ_section_title
;
Structure prediction by ZEFSAII (Michael W. Deem and Ramdas Pophale) SiO2 
 PCOD9502675
Probable space group: C M M A
;
_chemical_formula_sum "Si O2"
_cell_formula_units_Z 112
_cell_length_a 20.466800
_cell_length_b 25.040347
_cell_length_c 11.637501
_cell_angle_alpha 90.000000
_cell_angle_beta 90.000000
_cell_angle_gamma 90.000000
_cell_volume 5964.170082
_symmetry_space_group_name_H-M "C M M A"
_symmetry_group_IT_number 67
_symmetry_cell_setting 'orthorhombic'
loop_
_space_group_symop_operation_xyz
x,y,z
-x,1/2-y,z
x,-y,-z
-x,1/2+y,-z
-x,-y,-z
x,1/2+y,-z
-x,y,z
x,1/2-y,z
1/2+x,1/2+y,z
1/2-x,-y,z
1/2+x,1/2-y,-z
1/2-x,y,-z
1/2-x,1/2-y,-z
1/2+x,y,-z
1/2-x,1/2+y,z
1/2+x,-y,z
loop_
_atom_site_type_symbol
_atom_site_label
_atom_site_fract_x
_atom_site_fract_y
_atom_site_fract_z
Si Si1 0.574004 0.043855 0.599675
Si Si2 0.809432 0.616204 0.170613
Si Si3 0.076421 0.808160 0.795117
Si Si4 0.701624 0.189105 0.396597
Si Si5 0.926156 0.665920 0.529950
Si Si6 0.161146 0.394723 0.080579
Si Si7 0.171112 0.503023 0.792036
O O1 0.500000 0.043399 0.651617
O O2 0.583039 0.102265 0.545488
O O3 0.575508 0.000000 0.500000
O O4 0.631014 0.029857 0.688737
O O5 0.804253 0.654275 0.280948
O O6 0.734326 0.610823 0.129864
O O7 0.843298 0.559812 0.202186
O O8 0.843438 0.628364 0.048276
O O9 0.101915 0.750000 0.833991
O O10 0.080615 0.810675 0.657533
O O11 0.113901 0.858721 0.843787
O O12 0.000000 0.811648 0.825247
O O13 0.722514 0.250000 0.369644
O O14 0.750000 0.169291 0.500000
O O15 0.629642 0.188521 0.450214
O O16 0.000000 0.676038 0.489178
O O17 0.152510 0.458572 0.100170
O O18 0.250000 0.500000 0.777084
#
# Coordination Sequence:
#
# PCOD9502675 Si02
#       7
#    16  16  16  16  16  16  16
#     4  10  20  34  54  83 119 153 189 239 292 347
#     4  10  22  38  58  84 115 156 200 240 300 365
#     4  10  20  35  59  88 113 146 197 250 299 352
#     4  11  24  39  58  86 121 156 198 252 307 363
#     4  10  20  37  60  83 113 154 194 234 293 360
#     4  10  20  38  60  82 115 154 195 249 299 351
#     4  10  20  35  57  88 115 153 196 245 295 356
#
# _framework density 18.778808000000001
#
# number of rings (size 3 to 8) (size 9 to 14) (size 15 to 20)
#    0.000    1.857    1.429    2.571    2.000    5.143 
#    0.000    2.857    0.000    1.714    0.000    0.000 
#    0.000    0.000    0.000    0.000    0.000    0.000 
#
# Total GULP energy -311946.562454 kJ/mol
# GULP energy per Si atom -5570.474330 kJ/mol
# Density = 1.873607 g / cm^3
# Si number density = 18.778808 Si / 1000 Ang^3
#
#
#
# Elastic Constant Matrix: (Units=GPa)
#
#
# Indices 1 2 3 4 5 6 
#
# 1 43.5588 25.1864 29.7271 0.0000 0.0000 0.0000
# 2 25.1864 113.3875 41.1642 0.0000 0.0000 0.0000
# 3 29.7271 41.1642 91.2602 0.0000 0.0000 0.0000
# 4 0.0000 0.0000 0.0000 25.8531 0.0000 0.0000
# 5 0.0000 0.0000 0.0000 0.0000 19.4746 0.0000
# 6 0.0000 0.0000 0.0000 0.0000 0.0000 23.3603
#
#
#
# Elastic Compliance Matrix: (Units=1/GPa)
#
#
# Indices 1 2 3 4 5 6 
#
# 1 0.030852 -0.003832 -0.008321 0.000000 0.000000 0.000000
# 2 -0.003832 0.011022 -0.003723 0.000000 0.000000 0.000000
# 3 -0.008321 -0.003723 0.015348 0.000000 0.000000 0.000000
# 4 0.000000 0.000000 0.000000 0.038680 0.000000 0.000000
# 5 0.000000 0.000000 0.000000 0.000000 0.051349 0.000000
# 6 0.000000 0.000000 0.000000 0.000000 0.000000 0.042808
#
#
# Mechanical properties :
#
#
# Convention : Reuss Voigt Hill
#
# Bulk Modulus (GPa) = 39.26417 48.92910 44.09664
# Shear Modulus (GPa) = 21.71061 23.87952 22.79507
#
# Velocity S-wave (km/s) = 3.40387 3.56985 3.48785
# Velocity P-wave (km/s) = 6.03346 6.56535 6.30501
#
# Compressibility (1/GPa) = 0.02546851
#
# Stress axis : x y z
#
# Youngs Moduli (GPa) = 32.41264 90.72510 65.15607
#
# Poissons Ratio (x) = 0.34767 0.54218
# Poissons Ratio (y) = 0.12421 0.24261
# Poissons Ratio (z) = 0.26971 0.33781
#
# Static dielectric constant tensor:
#      x y z
#    x 1.648490 0.000000 0.000000 
#    y 0.000000 1.707310 0.000000 
#    z 0.000000 0.000000 1.655120 
# 
# From -- ./inp_files/21076.got.cif
#   From: 2010.05.17/outbox.cif.g08.bks.cpg/sg67_11_cif.got.tgz:21076.got - 2010.06.03 18:28:57.
