data_PCOD9502736
_publ_section_title
;
Structure prediction by ZEFSAII (Michael W. Deem and Ramdas Pophale) SiO2 
 PCOD9502736
Probable space group: C M M A
;
_chemical_formula_sum "Si O2"
_cell_formula_units_Z 72
_cell_length_a 25.643431
_cell_length_b 9.104089
_cell_length_c 17.088755
_cell_angle_alpha 90.000000
_cell_angle_beta 90.000000
_cell_angle_gamma 90.000000
_cell_volume 3989.542077
_symmetry_space_group_name_H-M "C M M A"
_symmetry_group_IT_number 67
_symmetry_cell_setting 'orthorhombic'
loop_
_space_group_symop_operation_xyz
x,y,z
-x,1/2-y,z
x,-y,-z
-x,1/2+y,-z
-x,-y,-z
x,1/2+y,-z
-x,y,z
x,1/2-y,z
1/2+x,1/2+y,z
1/2-x,-y,z
1/2+x,1/2-y,-z
1/2-x,y,-z
1/2-x,1/2-y,-z
1/2+x,y,-z
1/2-x,1/2+y,z
1/2+x,-y,z
loop_
_atom_site_type_symbol
_atom_site_label
_atom_site_fract_x
_atom_site_fract_y
_atom_site_fract_z
Si Si1 0.940885 0.921871 0.120896
Si Si2 0.303126 0.574357 0.252049
Si Si3 0.092730 0.077480 0.699824
Si Si4 0.336480 0.576013 0.077145
Si Si5 0.500000 0.927568 0.584558
O O1 0.931253 0.750000 0.100836
O O2 0.934512 0.934089 0.214955
O O3 0.000000 0.959819 0.098992
O O4 0.896435 0.023456 0.085235
O O5 0.300356 0.750000 0.257136
O O6 0.250000 0.500000 0.280180
O O7 0.354225 0.514411 0.295869
O O8 0.310932 0.533297 0.160049
O O9 0.105205 0.250000 0.688637
O O10 0.051313 0.030896 0.634435
O O11 0.333445 0.750000 0.068959
O O12 0.314116 0.500000 0.000000
O O13 0.500000 0.750000 0.578788
O O14 0.500000 0.000000 0.500000
#
# Coordination Sequence:
#
# PCOD9502736 Si02
#       5
#    16  16  16  16   8
#     4   9  16  29  50  71  94 131 175 216 260 310
#     4  10  21  36  55  79 103 135 180 225 270 316
#     4   9  17  33  55  79 109 142 177 215 256 308
#     4  10  21  34  47  68  98 132 173 220 270 319
#     4  10  20  34  56  88 121 150 175 204 253 310
#
# _framework density 18.047184000000001
#
# number of rings (size 3 to 8) (size 9 to 14) (size 15 to 20)
#    0.000    2.444    1.111    1.333    0.000    4.889 
#    0.000    2.222    0.000    0.667    0.000    4.667 
#    0.000    0.000    0.000    0.000    0.000    0.000 
#
# Total GULP energy -200937.915163 kJ/mol
# GULP energy per Si atom -5581.608755 kJ/mol
# Density = 1.800611 g / cm^3
# Si number density = 18.047184 Si / 1000 Ang^3
#
#
#
# Elastic Constant Matrix: (Units=GPa)
#
#
# Indices 1 2 3 4 5 6 
#
# 1 131.2561 43.6124 36.6898 0.0000 0.0000 0.0000
# 2 43.6124 34.1380 29.7638 0.0000 0.0000 0.0000
# 3 36.6898 29.7638 89.9715 0.0000 0.0000 0.0000
# 4 0.0000 0.0000 0.0000 27.3667 0.0000 0.0000
# 5 0.0000 0.0000 0.0000 0.0000 -3.8607 0.0000
# 6 0.0000 0.0000 0.0000 0.0000 0.0000 21.8313
#
#
#
# Elastic Compliance Matrix: (Units=1/GPa)
#
#
# Indices 1 2 3 4 5 6 
#
# 1 0.013243 -0.017159 0.000276 0.000000 0.000000 0.000000
# 2 -0.017159 0.063399 -0.013976 0.000000 0.000000 0.000000
# 3 0.000276 -0.013976 0.015626 0.000000 0.000000 0.000000
# 4 0.000000 0.000000 0.000000 0.036541 0.000000 0.000000
# 5 0.000000 0.000000 0.000000 0.000000 -0.259018 0.000000
# 6 0.000000 0.000000 0.000000 0.000000 0.000000 0.045806
#
#
# Mechanical properties :
#
#
# Convention : Reuss Voigt Hill
#
# Bulk Modulus (GPa) = 32.73343 52.83306 42.78325
# Shear Modulus (GPa) = -399.90647 18.75409 -190.57619
#
# Velocity S-wave (km/s) = -14.90203 3.22711 -10.28728
# Velocity P-wave (km/s) = 16.67084 6.57451 10.83265
#
# Compressibility (1/GPa) = 0.03054981
#
# Stress axis : x y z
#
# Youngs Moduli (GPa) = 75.51217 15.77309 63.99781
#
# Poissons Ratio (x) = 0.27065 -0.01766
# Poissons Ratio (y) = 1.29570 0.89443
# Poissons Ratio (z) = -0.02084 0.22044
#
# Static dielectric constant tensor:
#      x y z
#    x 1.611960 0.000000 0.000000 
#    y 0.000000 1.600720 0.000000 
#    z 0.000000 0.000000 1.616260 
# 
# From -- ./inp_files/25064.got.cif
#   From: 2010.05.17/outbox.cif.g08.bks.cpg/sg67_13_cif.got.tgz:25064.got - 2010.06.03 18:28:57.
