data_PCOD9502266
_publ_section_title
;
Structure prediction by ZEFSAII (Michael W. Deem and Ramdas Pophale) SiO2 
 PCOD9502266
Probable space group: C M M A
;
_chemical_formula_sum "Si O2"
_cell_formula_units_Z 88
_cell_length_a 7.792782
_cell_length_b 32.038159
_cell_length_c 17.880607
_cell_angle_alpha 90.000000
_cell_angle_beta 90.000000
_cell_angle_gamma 90.000000
_cell_volume 4464.186579
_symmetry_space_group_name_H-M "C M M A"
_symmetry_group_IT_number 67
_symmetry_cell_setting 'orthorhombic'
loop_
_space_group_symop_operation_xyz
x,y,z
-x,1/2-y,z
x,-y,-z
-x,1/2+y,-z
-x,-y,-z
x,1/2+y,-z
-x,y,z
x,1/2-y,z
1/2+x,1/2+y,z
1/2-x,-y,z
1/2+x,1/2-y,-z
1/2-x,y,-z
1/2-x,1/2-y,-z
1/2+x,y,-z
1/2-x,1/2+y,z
1/2+x,-y,z
loop_
_atom_site_type_symbol
_atom_site_label
_atom_site_fract_x
_atom_site_fract_y
_atom_site_fract_z
Si Si1 0.793782 0.250000 0.413405
Si Si2 0.793452 0.046597 0.741626
Si Si3 0.292914 0.796360 0.912647
Si Si4 0.795561 0.920744 0.418076
Si Si5 0.797131 0.336781 0.347204
Si Si6 0.697749 0.870472 0.810742
O O1 0.750000 0.250000 0.500000
O O2 0.731166 0.292539 0.375934
O O3 0.000000 0.250000 0.406704
O O4 0.731668 0.054826 0.655992
O O5 0.726180 0.083457 0.795740
O O6 0.000000 0.050708 0.740215
O O7 0.750000 0.000000 0.764942
O O8 0.500000 0.795960 0.904418
O O9 0.231069 0.750000 0.888202
O O10 0.224698 0.835862 0.866009
O O11 0.250000 0.800723 0.000000
O O12 0.750000 0.937512 0.500000
O O13 0.727953 0.873586 0.407326
O O14 0.000000 0.919340 0.413794
O O15 0.703500 0.350638 0.271916
O O16 0.000000 0.333808 0.330849
O O17 0.500000 0.876404 0.834655
#
# Coordination Sequence:
#
# PCOD9502266 Si02
#       6
#     8  16  16  16  16  16
#     4  10  22  34  44  64  93 126 167 212 253 292
#     4   9  19  34  51  72  99 129 167 213 257 305
#     4   9  18  33  54  81 111 140 169 201 244 296
#     4  10  20  34  50  70  96 127 165 213 263 310
#     4  10  20  33  48  69  96 129 170 212 253 300
#     4   9  19  35  53  76 104 134 168 206 250 299
#
# _framework density 19.712437999999999
#
# number of rings (size 3 to 8) (size 9 to 14) (size 15 to 20)
#    0.000    2.545    0.000    2.727    1.273    7.636 
#    0.000    1.818    0.000    0.545    0.000    3.818 
#    0.000    0.000    0.000    0.000    0.000    0.000 
#
# Total GULP energy -245348.005433 kJ/mol
# GULP energy per Si atom -5576.091033 kJ/mol
# Density = 1.966757 g / cm^3
# Si number density = 19.712438 Si / 1000 Ang^3
#
#
#
# Elastic Constant Matrix: (Units=GPa)
#
#
# Indices 1 2 3 4 5 6 
#
# 1 34.7419 2.9400 -5.2696 0.0000 0.0000 0.0000
# 2 2.9400 182.9770 62.4804 0.0000 0.0000 0.0000
# 3 -5.2696 62.4804 63.5151 0.0000 0.0000 0.0000
# 4 0.0000 0.0000 0.0000 18.4986 0.0000 0.0000
# 5 0.0000 0.0000 0.0000 0.0000 19.5834 0.0000
# 6 0.0000 0.0000 0.0000 0.0000 0.0000 12.2963
#
#
#
# Elastic Compliance Matrix: (Units=1/GPa)
#
#
# Indices 1 2 3 4 5 6 
#
# 1 0.029619 -0.001980 0.004405 0.000000 0.000000 0.000000
# 2 -0.001980 0.008362 -0.008390 0.000000 0.000000 0.000000
# 3 0.004405 -0.008390 0.024363 0.000000 0.000000 0.000000
# 4 0.000000 0.000000 0.000000 0.054058 0.000000 0.000000
# 5 0.000000 0.000000 0.000000 0.000000 0.051064 0.000000
# 6 0.000000 0.000000 0.000000 0.000000 0.000000 0.081325
#
#
# Mechanical properties :
#
#
# Convention : Reuss Voigt Hill
#
# Bulk Modulus (GPa) = 19.83546 44.61505 32.22526
# Shear Modulus (GPa) = 18.01637 24.81457 21.41547
#
# Velocity S-wave (km/s) = 3.02646 3.55185 3.29962
# Velocity P-wave (km/s) = 4.72195 6.28513 5.55876
#
# Compressibility (1/GPa) = 0.05041475
#
# Stress axis : x y z
#
# Youngs Moduli (GPa) = 33.76164 119.59064 41.04579
#
# Poissons Ratio (x) = 0.23681 -0.18082
# Poissons Ratio (y) = 0.06685 0.34437
# Poissons Ratio (z) = -0.14873 1.00336
#
# Static dielectric constant tensor:
#      x y z
#    x 1.724740 0.000000 0.000000 
#    y 0.000000 1.730530 0.000000 
#    z 0.000000 0.000000 1.670710 
# 
# From -- ./inp_files/32437.got.cif
#   From: 2010.05.17/outbox.cif.g08.bks.cpg/sg67_17_cif.got.tgz:32437.got - 2010.06.03 18:28:57.
