data_PCOD9502452
_publ_section_title
;
Structure prediction by ZEFSAII (Michael W. Deem and Ramdas Pophale) SiO2 
 PCOD9502452
Probable space group: C M M A
;
_chemical_formula_sum "Si O2"
_cell_formula_units_Z 116
_cell_length_a 25.476570
_cell_length_b 14.763346
_cell_length_c 16.531214
_cell_angle_alpha 90.000000
_cell_angle_beta 90.000000
_cell_angle_gamma 90.000000
_cell_volume 6217.710585
_symmetry_space_group_name_H-M "C M M A"
_symmetry_group_IT_number 67
_symmetry_cell_setting 'orthorhombic'
loop_
_space_group_symop_operation_xyz
x,y,z
-x,1/2-y,z
x,-y,-z
-x,1/2+y,-z
-x,-y,-z
x,1/2+y,-z
-x,y,z
x,1/2-y,z
1/2+x,1/2+y,z
1/2-x,-y,z
1/2+x,1/2-y,-z
1/2-x,y,-z
1/2-x,1/2-y,-z
1/2+x,y,-z
1/2-x,1/2+y,z
1/2+x,-y,z
loop_
_atom_site_type_symbol
_atom_site_label
_atom_site_fract_x
_atom_site_fract_y
_atom_site_fract_z
Si Si1 0.250000 0.000000 0.000000
Si Si2 0.559039 0.859911 0.962883
Si Si3 0.327227 0.855236 0.012250
Si Si4 0.850314 0.539711 0.301897
Si Si5 0.285093 0.851734 0.827076
Si Si6 0.938428 0.644650 0.223978
Si Si7 0.812150 0.849559 0.722732
Si Si8 0.276865 0.645334 0.584235
O O1 0.209855 0.065999 0.046777
O O2 0.500000 0.889627 0.987907
O O3 0.557837 0.750000 0.962041
O O4 0.611422 0.882077 0.013319
O O5 0.568499 0.886939 0.869407
O O6 0.320344 0.750000 0.039874
O O7 0.306326 0.854795 0.918613
O O8 0.815032 0.576069 0.227132
O O9 0.905720 0.585705 0.285968
O O10 0.850454 0.432256 0.293343
O O11 0.821227 0.578306 0.381433
O O12 0.299141 0.750000 0.797703
O O13 0.223944 0.859309 0.802627
O O14 0.921816 0.750000 0.227395
O O15 0.000000 0.641227 0.240224
O O16 0.836736 0.750000 0.723787
O O17 0.769133 0.854011 0.651070
O O18 0.296124 0.750000 0.577044
O O19 0.250000 0.618962 0.500000
#
# Coordination Sequence:
#
# PCOD9502452 Si02
#       8
#     4  16  16  16  16  16  16  16
#     4  12  26  32  46  66  96 132 164 182 220 286
#     4   8  14  27  49  72  92 116 147 189 240 284
#     4  10  20  34  48  66  95 124 156 194 234 282
#     4  11  17  25  46  67  92 123 154 180 227 277
#     4   9  16  27  45  67  90 115 144 183 230 275
#     4   9  16  26  43  72  99 111 135 188 246 289
#     4   9  19  29  39  62  91 121 161 195 218 259
#     4   9  17  28  42  65  97 125 151 184 225 274
#
# _framework density 18.656383999999999
#
# number of rings (size 3 to 8) (size 9 to 14) (size 15 to 20)
#    0.000    2.621    1.379    4.759    1.931    1.103 
#    0.000    0.345    0.000    0.414    0.000    1.931 
#    0.000    3.310    0.000    0.000    0.000    0.000 
#
# Total GULP energy -323262.027779 kJ/mol
# GULP energy per Si atom -5573.483238 kJ/mol
# Density = 1.861392 g / cm^3
# Si number density = 18.656384 Si / 1000 Ang^3
#
#
#
# Elastic Constant Matrix: (Units=GPa)
#
#
# Indices 1 2 3 4 5 6 
#
# 1 106.2110 48.0783 6.7221 0.0000 0.0000 0.0000
# 2 48.0783 104.5410 24.4363 0.0000 0.0000 0.0000
# 3 6.7221 24.4363 53.5475 0.0000 0.0000 0.0000
# 4 0.0000 0.0000 0.0000 5.7357 0.0000 0.0000
# 5 0.0000 0.0000 0.0000 0.0000 13.4156 0.0000
# 6 0.0000 0.0000 0.0000 0.0000 0.0000 19.3609
#
#
#
# Elastic Compliance Matrix: (Units=1/GPa)
#
#
# Indices 1 2 3 4 5 6 
#
# 1 0.011951 -0.005760 0.001128 0.000000 0.000000 0.000000
# 2 -0.005760 0.013484 -0.005430 0.000000 0.000000 0.000000
# 3 0.001128 -0.005430 0.021011 0.000000 0.000000 0.000000
# 4 0.000000 0.000000 0.000000 0.174345 0.000000 0.000000
# 5 0.000000 0.000000 0.000000 0.000000 0.074540 0.000000
# 6 0.000000 0.000000 0.000000 0.000000 0.000000 0.051651
#
#
# Mechanical properties :
#
#
# Convention : Reuss Voigt Hill
#
# Bulk Modulus (GPa) = 37.99028 46.97476 42.48252
# Shear Modulus (GPa) = 13.30209 20.03997 16.67103
#
# Velocity S-wave (km/s) = 2.67311 3.28100 2.99253
# Velocity P-wave (km/s) = 5.47126 6.29181 5.89583
#
# Compressibility (1/GPa) = 0.02632252
#
# Stress axis : x y z
#
# Youngs Moduli (GPa) = 83.67345 74.16185 47.59304
#
# Poissons Ratio (x) = 0.42718 -0.05370
# Poissons Ratio (y) = 0.48197 0.25845
# Poissons Ratio (z) = -0.09441 0.40272
#
# Static dielectric constant tensor:
#      x y z
#    x 1.670760 0.000000 0.000000 
#    y 0.000000 1.730660 0.000000 
#    z 0.000000 0.000000 1.672800 
# 
# From -- ./inp_files/35545.got.cif
#   From: 2010.05.17/outbox.cif.g08.bks.cpg/sg67_18_cif.got.tgz:35545.got - 2010.06.03 18:28:57.
