data_PCOD9502480
_publ_section_title
;
Structure prediction by ZEFSAII (Michael W. Deem and Ramdas Pophale) SiO2 
 PCOD9502480
Probable space group: C M M A
;
_chemical_formula_sum "Si O2"
_cell_formula_units_Z 104
_cell_length_a 8.679756
_cell_length_b 21.182152
_cell_length_c 30.549643
_cell_angle_alpha 90.000000
_cell_angle_beta 90.000000
_cell_angle_gamma 90.000000
_cell_volume 5616.732442
_symmetry_space_group_name_H-M "C M M A"
_symmetry_group_IT_number 67
_symmetry_cell_setting 'orthorhombic'
loop_
_space_group_symop_operation_xyz
x,y,z
-x,1/2-y,z
x,-y,-z
-x,1/2+y,-z
-x,-y,-z
x,1/2+y,-z
-x,y,z
x,1/2-y,z
1/2+x,1/2+y,z
1/2-x,-y,z
1/2+x,1/2-y,-z
1/2-x,y,-z
1/2-x,1/2-y,-z
1/2+x,y,-z
1/2-x,1/2+y,z
1/2+x,-y,z
loop_
_atom_site_type_symbol
_atom_site_label
_atom_site_fract_x
_atom_site_fract_y
_atom_site_fract_z
Si Si1 0.314371 0.110775 0.950757
Si Si2 0.186142 0.068186 0.548950
Si Si3 0.312922 0.823393 0.194426
Si Si4 0.675565 0.673625 0.292322
Si Si5 0.182961 0.935414 0.136181
Si Si6 0.684687 0.677581 0.615466
Si Si7 0.315741 0.250000 0.951398
O O1 0.500000 0.105134 0.951841
O O2 0.241386 0.067839 0.913886
O O3 0.270557 0.181813 0.934133
O O4 0.250000 0.101864 0.000000
O O5 0.250000 0.078114 0.500000
O O6 0.236276 0.125844 0.580157
O O7 0.000000 0.065677 0.547787
O O8 0.250000 0.000000 0.563967
O O9 0.500000 0.824680 0.192923
O O10 0.268045 0.750000 0.185860
O O11 0.264773 0.842438 0.243946
O O12 0.246737 0.874281 0.161297
O O13 0.500000 0.650572 0.296509
O O14 0.670553 0.750000 0.291697
O O15 0.768241 0.656625 0.335662
O O16 0.000000 0.936272 0.137321
O O17 0.250000 0.000000 0.155988
O O18 0.500000 0.680063 0.613190
O O19 0.741935 0.750000 0.608117
O O20 0.500000 0.250000 0.952429
O O21 0.250000 0.250000 0.000000
#
# Coordination Sequence:
#
# PCOD9502480 Si02
#       7
#    16  16  16  16  16  16   8
#     4  10  20  37  59  85 114 148 184 224 273 323
#     4  10  20  34  51  71 100 140 183 225 271 321
#     4   9  19  38  63  88 115 147 183 225 274 329
#     4   8  15  30  54  83 111 140 175 216 266 323
#     4  12  26  42  59  83 114 150 189 230 276 328
#     4   9  18  32  51  77 108 139 174 221 272 319
#     4   8  16  30  52  80 110 140 170 210 260 306
#
# _framework density 18.516103999999999
#
# number of rings (size 3 to 8) (size 9 to 14) (size 15 to 20)
#    0.000    2.462    0.000    3.692    1.077    3.385 
#    0.000    3.846    0.000    1.846    0.000    0.000 
#    0.000    0.000    0.000    0.000    0.000    0.000 
#
# Total GULP energy -289810.636236 kJ/mol
# GULP energy per Si atom -5573.281466 kJ/mol
# Density = 1.847396 g / cm^3
# Si number density = 18.516104 Si / 1000 Ang^3
#
#
#
# Elastic Constant Matrix: (Units=GPa)
#
#
# Indices 1 2 3 4 5 6 
#
# 1 44.7948 38.7296 35.3675 0.0000 0.0000 0.0000
# 2 38.7296 128.1428 80.1471 0.0000 0.0000 0.0000
# 3 35.3675 80.1471 119.9476 0.0000 0.0000 0.0000
# 4 0.0000 0.0000 0.0000 9.1684 0.0000 0.0000
# 5 0.0000 0.0000 0.0000 0.0000 30.7689 0.0000
# 6 0.0000 0.0000 0.0000 0.0000 0.0000 18.9720
#
#
#
# Elastic Compliance Matrix: (Units=1/GPa)
#
#
# Indices 1 2 3 4 5 6 
#
# 1 0.031938 -0.006465 -0.005098 0.000000 0.000000 0.000000
# 2 -0.006465 0.014715 -0.007926 0.000000 0.000000 0.000000
# 3 -0.005098 -0.007926 0.015136 0.000000 0.000000 0.000000
# 4 0.000000 0.000000 0.000000 0.109071 0.000000 0.000000
# 5 0.000000 0.000000 0.000000 0.000000 0.032500 0.000000
# 6 0.000000 0.000000 0.000000 0.000000 0.000000 0.052709
#
#
# Mechanical properties :
#
#
# Convention : Reuss Voigt Hill
#
# Bulk Modulus (GPa) = 43.83563 66.81929 55.32746
# Shear Modulus (GPa) = 16.52067 21.02458 18.77263
#
# Velocity S-wave (km/s) = 2.99027 3.37334 3.18756
# Velocity P-wave (km/s) = 5.97059 7.16505 6.59492
#
# Compressibility (1/GPa) = 0.02281249
#
# Stress axis : x y z
#
# Youngs Moduli (GPa) = 31.31049 67.95719 66.06628
#
# Poissons Ratio (x) = 0.43931 0.33679
# Poissons Ratio (y) = 0.20241 0.52366
# Poissons Ratio (z) = 0.15961 0.53865
#
# Static dielectric constant tensor:
#      x y z
#    x 1.646670 0.000000 0.000000 
#    y 0.000000 1.671480 0.000000 
#    z 0.000000 0.000000 1.636780 
# 
# From -- ./inp_files/45354.got.cif
#   From: 2010.05.17/outbox.cif.g08.bks.cpg/sg67_23_cif.got.tgz:45354.got - 2010.06.03 18:28:57.
