data_PCOD9502493
_publ_section_title
;
Structure prediction by ZEFSAII (Michael W. Deem and Ramdas Pophale) SiO2 
 PCOD9502493
Probable space group: C M M A
;
_chemical_formula_sum "Si O2"
_cell_formula_units_Z 72
_cell_length_a 8.713423
_cell_length_b 32.781573
_cell_length_c 13.761524
_cell_angle_alpha 90.000000
_cell_angle_beta 90.000000
_cell_angle_gamma 90.000000
_cell_volume 3930.837754
_symmetry_space_group_name_H-M "C M M A"
_symmetry_group_IT_number 67
_symmetry_cell_setting 'orthorhombic'
loop_
_space_group_symop_operation_xyz
x,y,z
-x,1/2-y,z
x,-y,-z
-x,1/2+y,-z
-x,-y,-z
x,1/2+y,-z
-x,y,z
x,1/2-y,z
1/2+x,1/2+y,z
1/2-x,-y,z
1/2+x,1/2-y,-z
1/2-x,y,-z
1/2-x,1/2-y,-z
1/2+x,y,-z
1/2-x,1/2+y,z
1/2+x,-y,z
loop_
_atom_site_type_symbol
_atom_site_label
_atom_site_fract_x
_atom_site_fract_y
_atom_site_fract_z
Si Si1 0.315129 0.250000 0.108014
Si Si2 0.315508 0.871329 0.395673
Si Si3 0.815668 0.083822 0.103753
Si Si4 0.684686 0.664109 0.799477
Si Si5 0.316131 0.043277 0.695392
O O1 0.500000 0.250000 0.103185
O O2 0.268643 0.208590 0.162613
O O3 0.250000 0.250000 0.000000
O O4 0.500000 0.869037 0.394418
O O5 0.250000 0.859742 0.500000
O O6 0.248185 0.844708 0.307942
O O7 0.269726 0.918160 0.370288
O O8 0.752328 0.128549 0.131951
O O9 0.769805 0.054811 0.193898
O O10 0.000000 0.085386 0.100213
O O11 0.750000 0.070959 0.000000
O O12 0.500000 0.661151 0.799769
O O13 0.500000 0.041128 0.693403
O O14 0.250000 0.000000 0.665378
#
# Coordination Sequence:
#
# PCOD9502493 Si02
#       5
#     8  16  16  16  16
#     4  10  22  36  55  84 115 144 177 214 258 308
#     4  10  21  38  58  81 106 138 177 219 265 316
#     4  10  20  34  51  75 105 141 181 220 263 316
#     4  10  20  36  56  80 109 141 176 219 264 313
#     4   9  20  35  51  74 105 136 174 220 265 313
#
# _framework density 18.316707999999998
#
# number of rings (size 3 to 8) (size 9 to 14) (size 15 to 20)
#    0.000    2.222    0.000    4.000    0.000    9.778 
#    0.000    5.000    0.000    0.000    0.000    0.000 
#    0.000    0.000    0.000    0.000    0.000    0.000 
#
# Total GULP energy -201012.430798 kJ/mol
# GULP energy per Si atom -5583.678633 kJ/mol
# Density = 1.827502 g / cm^3
# Si number density = 18.316708 Si / 1000 Ang^3
#
#
#
# Elastic Constant Matrix: (Units=GPa)
#
#
# Indices 1 2 3 4 5 6 
#
# 1 40.8587 16.0794 19.6898 0.0000 0.0000 0.0000
# 2 16.0794 95.4452 20.2428 0.0000 0.0000 0.0000
# 3 19.6898 20.2428 96.5452 0.0000 0.0000 0.0000
# 4 0.0000 0.0000 0.0000 4.6039 0.0000 0.0000
# 5 0.0000 0.0000 0.0000 0.0000 29.1444 0.0000
# 6 0.0000 0.0000 0.0000 0.0000 0.0000 26.6577
#
#
#
# Elastic Compliance Matrix: (Units=1/GPa)
#
#
# Indices 1 2 3 4 5 6 
#
# 1 0.028347 -0.003715 -0.005002 0.000000 0.000000 0.000000
# 2 -0.003715 0.011452 -0.001644 0.000000 0.000000 0.000000
# 3 -0.005002 -0.001644 0.011723 0.000000 0.000000 0.000000
# 4 0.000000 0.000000 0.000000 0.217207 0.000000 0.000000
# 5 0.000000 0.000000 0.000000 0.000000 0.034312 0.000000
# 6 0.000000 0.000000 0.000000 0.000000 0.000000 0.037513
#
#
# Mechanical properties :
#
#
# Convention : Reuss Voigt Hill
#
# Bulk Modulus (GPa) = 32.46719 38.31924 35.39322
# Shear Modulus (GPa) = 13.45747 23.87033 18.66390
#
# Velocity S-wave (km/s) = 2.71349 3.61390 3.19557
# Velocity P-wave (km/s) = 5.25179 6.19512 5.74286
#
# Compressibility (1/GPa) = 0.03080032
#
# Stress axis : x y z
#
# Youngs Moduli (GPa) = 35.27705 87.32424 85.30499
#
# Poissons Ratio (x) = 0.32437 0.42673
# Poissons Ratio (y) = 0.13104 0.14020
# Poissons Ratio (z) = 0.17647 0.14352
#
# Static dielectric constant tensor:
#      x y z
#    x 1.627830 0.000000 0.000000 
#    y 0.000000 1.617960 0.000000 
#    z 0.000000 0.000000 1.613330 
# 
# From -- ./inp_files/25279.got.cif
#   From: 2010.05.17/outbox.cif.g08.bks.cpg/sg67_13_cif.got.tgz:25279.got - 2010.06.03 18:28:57.
