data_PCOD9502082
_publ_section_title
;
Structure prediction by ZEFSAII (Michael W. Deem and Ramdas Pophale) SiO2 
 PCOD9502082
Probable space group: C M M A
;
_chemical_formula_sum "Si O2"
_cell_formula_units_Z 96
_cell_length_a 19.596761
_cell_length_b 15.392068
_cell_length_c 16.635962
_cell_angle_alpha 90.000000
_cell_angle_beta 90.000000
_cell_angle_gamma 90.000000
_cell_volume 5017.983039
_symmetry_space_group_name_H-M "C M M A"
_symmetry_group_IT_number 67
_symmetry_cell_setting 'orthorhombic'
loop_
_space_group_symop_operation_xyz
x,y,z
-x,1/2-y,z
x,-y,-z
-x,1/2+y,-z
-x,-y,-z
x,1/2+y,-z
-x,y,z
x,1/2-y,z
1/2+x,1/2+y,z
1/2-x,-y,z
1/2+x,1/2-y,-z
1/2-x,y,-z
1/2-x,1/2-y,-z
1/2+x,y,-z
1/2-x,1/2+y,z
1/2+x,-y,z
loop_
_atom_site_type_symbol
_atom_site_label
_atom_site_fract_x
_atom_site_fract_y
_atom_site_fract_z
Si Si1 0.075036 0.646271 0.194048
Si Si2 0.082224 0.750000 0.629579
Si Si3 0.790455 0.410170 0.114804
Si Si4 0.330470 0.403212 0.702514
Si Si5 0.829170 0.250000 0.530705
Si Si6 0.654816 0.151091 0.045788
Si Si7 0.825692 0.896609 0.339220
O O1 0.071389 0.750000 0.183787
O O2 0.102572 0.611257 0.109564
O O3 0.128117 0.630850 0.264480
O O4 0.000000 0.612561 0.214302
O O5 0.113378 0.664618 0.673032
O O6 0.118072 0.750000 0.542444
O O7 0.000000 0.750000 0.627374
O O8 0.750000 0.500000 0.115673
O O9 0.827562 0.404053 0.200149
O O10 0.727370 0.346122 0.093651
O O11 0.837264 0.400471 0.036768
O O12 0.253501 0.376137 0.678810
O O13 0.336479 0.498778 0.661349
O O14 0.750000 0.250000 0.500000
O O15 0.841775 0.163268 0.584135
O O16 0.636139 0.250000 0.025107
#
# Coordination Sequence:
#
# PCOD9502082 Si02
#       7
#    16   8  16  16   8  16  16
#     4  10  20  35  58  90 132 173 219 278 338 394
#     4  12  30  50  68 100 146 183 212 269 355 428
#     4  11  19  33  58  90 124 163 217 279 320 377
#     4  11  23  41  70 100 133 174 228 276 328 396
#     4  12  24  44  74 103 133 171 215 281 344 413
#     4  10  20  30  51  88 125 169 219 271 331 372
#     4  11  21  41  70 106 125 170 228 284 330 397
#
# _framework density 19.131193
#
# number of rings (size 3 to 8) (size 9 to 14) (size 15 to 20)
#    0.000    1.167    5.833    2.000    2.333    2.000 
#    0.000    1.667    0.000    5.000    0.000    0.000 
#    0.000    0.000    0.000    0.000    0.000    0.000 
#
# Total GULP energy -267687.205122 kJ/mol
# GULP energy per Si atom -5576.816773 kJ/mol
# Density = 1.908765 g / cm^3
# Si number density = 19.131193 Si / 1000 Ang^3
#
#
#
# Elastic Constant Matrix: (Units=GPa)
#
#
# Indices 1 2 3 4 5 6 
#
# 1 118.1879 54.3995 60.4257 0.0000 0.0000 0.0000
# 2 54.3995 89.8958 74.5110 0.0000 0.0000 0.0000
# 3 60.4257 74.5110 159.1591 0.0000 0.0000 0.0000
# 4 0.0000 0.0000 0.0000 22.0803 0.0000 0.0000
# 5 0.0000 0.0000 0.0000 0.0000 20.0026 0.0000
# 6 0.0000 0.0000 0.0000 0.0000 0.0000 13.0607
#
#
#
# Elastic Compliance Matrix: (Units=1/GPa)
#
#
# Indices 1 2 3 4 5 6 
#
# 1 0.012069 -0.005729 -0.001900 0.000000 0.000000 0.000000
# 2 -0.005729 0.020896 -0.007608 0.000000 0.000000 0.000000
# 3 -0.001900 -0.007608 0.010566 0.000000 0.000000 0.000000
# 4 0.000000 0.000000 0.000000 0.045289 0.000000 0.000000
# 5 0.000000 0.000000 0.000000 0.000000 0.049993 0.000000
# 6 0.000000 0.000000 0.000000 0.000000 0.000000 0.076565
#
#
# Mechanical properties :
#
#
# Convention : Reuss Voigt Hill
#
# Bulk Modulus (GPa) = 76.57894 82.87947 79.72921
# Shear Modulus (GPa) = 19.98349 22.88917 21.43633
#
# Velocity S-wave (km/s) = 3.23546 3.46270 3.35101
# Velocity P-wave (km/s) = 7.35342 7.70732 7.53245
#
# Compressibility (1/GPa) = 0.01305842
#
# Stress axis : x y z
#
# Youngs Moduli (GPa) = 82.85376 47.85515 94.64171
#
# Poissons Ratio (x) = 0.27414 0.17986
# Poissons Ratio (y) = 0.47463 0.72002
# Poissons Ratio (z) = 0.15746 0.36407
#
# Static dielectric constant tensor:
#      x y z
#    x 1.678770 0.000000 0.000000 
#    y 0.000000 1.748990 0.000000 
#    z 0.000000 0.000000 1.670820 
# 
# From -- ./inp_files/29365.got.cif
#   From: 2010.05.17/outbox.cif.g08.bks.cpg/sg67_15_cif.got.tgz:29365.got - 2010.06.03 18:28:57.
