data_PCOD9502889
_publ_section_title
;
Structure prediction by ZEFSAII (Michael W. Deem and Ramdas Pophale) SiO2 
 PCOD9502889
Probable space group: C M M A
;
_chemical_formula_sum "Si O2"
_cell_formula_units_Z 120
_cell_length_a 26.695602
_cell_length_b 8.761361
_cell_length_c 27.967370
_cell_angle_alpha 90.000000
_cell_angle_beta 90.000000
_cell_angle_gamma 90.000000
_cell_volume 6541.282750
_symmetry_space_group_name_H-M "C M M A"
_symmetry_group_IT_number 67
_symmetry_cell_setting 'orthorhombic'
loop_
_space_group_symop_operation_xyz
x,y,z
-x,1/2-y,z
x,-y,-z
-x,1/2+y,-z
-x,-y,-z
x,1/2+y,-z
-x,y,z
x,1/2-y,z
1/2+x,1/2+y,z
1/2-x,-y,z
1/2+x,1/2-y,-z
1/2-x,y,-z
1/2-x,1/2-y,-z
1/2+x,y,-z
1/2-x,1/2+y,z
1/2+x,-y,z
loop_
_atom_site_type_symbol
_atom_site_label
_atom_site_fract_x
_atom_site_fract_y
_atom_site_fract_z
Si Si1 0.443641 0.066191 0.085760
Si Si2 0.407249 0.567619 0.809231
Si Si3 0.000000 0.932813 0.446627
Si Si4 0.158436 0.431322 0.050083
Si Si5 0.442873 0.066690 0.709645
Si Si6 0.196802 0.566494 0.553208
Si Si7 0.801620 0.067545 0.852264
Si Si8 0.404121 0.565306 0.391082
O O1 0.500000 0.029366 0.070200
O O2 0.436049 0.250000 0.081435
O O3 0.437036 0.027534 0.142130
O O4 0.399432 0.981786 0.058105
O O5 0.410798 0.750000 0.804406
O O6 0.426484 0.494016 0.760948
O O7 0.349670 0.526399 0.820332
O O8 0.000000 0.750000 0.448155
O O9 0.000000 0.000000 0.500000
O O10 0.049636 0.992347 0.419645
O O11 0.162557 0.250000 0.049930
O O12 0.187723 0.500524 0.095139
O O13 0.176088 0.500000 0.000000
O O14 0.500000 0.017698 0.699789
O O15 0.442127 0.250000 0.711530
O O16 0.409272 0.019464 0.664484
O O17 0.188823 0.500000 0.500000
O O18 0.200205 0.750000 0.550525
O O19 0.250000 0.500000 0.570533
O O20 0.149181 0.525049 0.585704
O O21 0.799236 0.250000 0.855577
O O22 0.750000 0.000000 0.833576
O O23 0.409441 0.750000 0.393889
#
# Coordination Sequence:
#
# PCOD9502889 Si02
#       8
#    16  16   8  16  16  16  16  16
#     4   9  18  34  54  76 106 143 181 226 274 320
#     4   9  19  35  55  80 109 139 176 223 271 321
#     4  12  24  36  56  84 114 152 190 234 285 342
#     4  11  22  36  54  78 109 143 180 222 269 329
#     4  10  20  35  56  80 112 150 184 223 272 325
#     4  10  20  35  58  81 107 144 185 233 280 329
#     4  10  21  39  60  82 108 139 177 226 278 327
#     4  10  21  39  57  79 115 153 189 234 285 335
#
# _framework density 18.345025
#
# number of rings (size 3 to 8) (size 9 to 14) (size 15 to 20)
#    0.000    2.000    0.667    4.600    0.000    6.933 
#    0.000    2.000    0.000    3.200    0.000    0.000 
#    0.000    0.000    0.000    0.000    0.000    0.000 
#
# Total GULP energy -335085.549435 kJ/mol
# GULP energy per Si atom -5584.759157 kJ/mol
# Density = 1.830327 g / cm^3
# Si number density = 18.345025 Si / 1000 Ang^3
#
#
#
# Elastic Constant Matrix: (Units=GPa)
#
#
# Indices 1 2 3 4 5 6 
#
# 1 97.8060 28.9747 20.8843 0.0000 0.0000 0.0000
# 2 28.9747 42.2821 16.3642 0.0000 0.0000 0.0000
# 3 20.8843 16.3642 82.3893 0.0000 0.0000 0.0000
# 4 0.0000 0.0000 0.0000 28.2847 0.0000 0.0000
# 5 0.0000 0.0000 0.0000 0.0000 0.2156 0.0000
# 6 0.0000 0.0000 0.0000 0.0000 0.0000 27.3290
#
#
#
# Elastic Compliance Matrix: (Units=1/GPa)
#
#
# Indices 1 2 3 4 5 6 
#
# 1 0.013034 -0.008291 -0.001657 0.000000 0.000000 0.000000
# 2 -0.008291 0.030893 -0.004035 0.000000 0.000000 0.000000
# 3 -0.001657 -0.004035 0.013359 0.000000 0.000000 0.000000
# 4 0.000000 0.000000 0.000000 0.035355 0.000000 0.000000
# 5 0.000000 0.000000 0.000000 0.000000 4.637710 0.000000
# 6 0.000000 0.000000 0.000000 0.000000 0.000000 0.036591
#
#
# Mechanical properties :
#
#
# Convention : Reuss Voigt Hill
#
# Bulk Modulus (GPa) = 34.10433 39.43597 36.77015
# Shear Modulus (GPa) = 1.04065 21.58280 11.31172
#
# Velocity S-wave (km/s) = 0.75399 3.43373 2.48586
# Velocity P-wave (km/s) = 4.40328 6.10443 5.32226
#
# Compressibility (1/GPa) = 0.02932179
#
# Stress axis : x y z
#
# Youngs Moduli (GPa) = 76.72093 32.36935 74.85628
#
# Poissons Ratio (x) = 0.26836 0.12406
# Poissons Ratio (y) = 0.63606 0.30201
# Poissons Ratio (z) = 0.12715 0.13060
#
# Static dielectric constant tensor:
#      x y z
#    x 1.636790 0.000000 0.000000 
#    y 0.000000 1.616820 0.000000 
#    z 0.000000 0.000000 1.610460 
# 
# From -- ./inp_files/45046.got.cif
#   From: 2010.05.17/outbox.cif.g08.bks.cpg/sg67_23_cif.got.tgz:45046.got - 2010.06.03 18:28:57.
