data_PCOD9502279
_publ_section_title
;
Structure prediction by ZEFSAII (Michael W. Deem and Ramdas Pophale) SiO2 
 PCOD9502279
Probable space group: C M M A
;
_chemical_formula_sum "Si O2"
_cell_formula_units_Z 112
_cell_length_a 7.676938
_cell_length_b 18.961945
_cell_length_c 38.040504
_cell_angle_alpha 90.000000
_cell_angle_beta 90.000000
_cell_angle_gamma 90.000000
_cell_volume 5537.543847
_symmetry_space_group_name_H-M "C M M A"
_symmetry_group_IT_number 67
_symmetry_cell_setting 'orthorhombic'
loop_
_space_group_symop_operation_xyz
x,y,z
-x,1/2-y,z
x,-y,-z
-x,1/2+y,-z
-x,-y,-z
x,1/2+y,-z
-x,y,z
x,1/2-y,z
1/2+x,1/2+y,z
1/2-x,-y,z
1/2+x,1/2-y,-z
1/2-x,y,-z
1/2-x,1/2-y,-z
1/2+x,y,-z
1/2-x,1/2+y,z
1/2+x,-y,z
loop_
_atom_site_type_symbol
_atom_site_label
_atom_site_fract_x
_atom_site_fract_y
_atom_site_fract_z
Si Si1 0.290738 0.169315 0.039243
Si Si2 0.290736 0.168196 0.250628
Si Si3 0.287235 0.332474 0.173891
Si Si4 0.707817 0.330675 0.672927
Si Si5 0.790765 0.830678 0.539286
Si Si6 0.209581 0.417734 0.893888
Si Si7 0.209736 0.917755 0.606143
O O1 0.500000 0.172238 0.042066
O O2 0.225001 0.250000 0.042333
O O3 0.224934 0.120839 0.070857
O O4 0.250000 0.143324 0.000000
O O5 0.500000 0.168198 0.249991
O O6 0.231205 0.250000 0.251470
O O7 0.231374 0.140480 0.212590
O O8 0.238470 0.137654 0.288233
O O9 0.500000 0.333446 0.173603
O O10 0.237757 0.250000 0.170168
O O11 0.225321 0.378461 0.141179
O O12 0.500000 0.325648 0.668762
O O13 0.777585 0.250000 0.671696
O O14 0.775853 0.377603 0.640940
O O15 0.725024 0.750000 0.542529
O O16 0.750000 0.856368 0.500000
O O17 0.725063 0.879445 0.570792
O O18 0.000000 0.827729 0.542132
O O19 0.250000 0.500000 0.893731
O O20 0.000000 0.410441 0.893778
O O21 0.000000 0.911156 0.606144
O O22 0.250000 0.000000 0.606638
#
# Coordination Sequence:
#
# PCOD9502279 Si02
#       7
#    16  16  16  16  16  16  16
#     4   9  18  33  53  74  94 120 157 198 237 278
#     4   8  14  26  47  74  97 118 152 199 243 279
#     4   8  14  28  51  73  92 120 160 200 235 276
#     4   9  17  31  51  72  95 125 160 197 238 283
#     4   9  18  34  55  76  97 123 158 198 238 281
#     4  10  20  33  49  70  97 128 160 193 232 281
#     4  10  21  35  50  70  98 131 163 195 234 281
#
# _framework density 20.225574000000002
#
# number of rings (size 3 to 8) (size 9 to 14) (size 15 to 20)
#    0.000    3.000    0.000    1.714    0.000    5.714 
#    0.000    4.286    0.000    9.857    0.000    0.000 
#    0.000    0.000    0.000    0.000    0.000    0.000 
#
# Total GULP energy -312217.010174 kJ/mol
# GULP energy per Si atom -5575.303753 kJ/mol
# Density = 2.017954 g / cm^3
# Si number density = 20.225574 Si / 1000 Ang^3
#
#
#
# Elastic Constant Matrix: (Units=GPa)
#
#
# Indices 1 2 3 4 5 6 
#
# 1 33.3642 1.4934 8.5560 0.0000 0.0000 0.0000
# 2 1.4934 96.4533 117.2266 0.0000 0.0000 0.0000
# 3 8.5560 117.2266 260.0076 0.0000 0.0000 0.0000
# 4 0.0000 0.0000 0.0000 -5.5126 0.0000 0.0000
# 5 0.0000 0.0000 0.0000 0.0000 19.4869 0.0000
# 6 0.0000 0.0000 0.0000 0.0000 0.0000 19.5818
#
#
#
# Elastic Compliance Matrix: (Units=1/GPa)
#
#
# Indices 1 2 3 4 5 6 
#
# 1 0.030345 0.001645 -0.001740 0.000000 0.000000 0.000000
# 2 0.001645 0.023025 -0.010435 0.000000 0.000000 0.000000
# 3 -0.001740 -0.010435 0.008608 0.000000 0.000000 0.000000
# 4 0.000000 0.000000 0.000000 -0.181403 0.000000 0.000000
# 5 0.000000 0.000000 0.000000 0.000000 0.051316 0.000000
# 6 0.000000 0.000000 0.000000 0.000000 0.000000 0.051068
#
#
# Mechanical properties :
#
#
# Convention : Reuss Voigt Hill
#
# Bulk Modulus (GPa) = 24.43938 71.59745 48.01841
# Shear Modulus (GPa) = 283.15851 24.21451 153.68651
#
# Velocity S-wave (km/s) = 11.84501 3.46384 8.72646
# Velocity P-wave (km/s) = 14.11318 7.17453 11.19499
#
# Compressibility (1/GPa) = 0.04091757
#
# Stress axis : x y z
#
# Youngs Moduli (GPa) = 32.95445 43.43176 116.17081
#
# Poissons Ratio (x) = -0.07146 0.20218
# Poissons Ratio (y) = -0.05422 1.21224
# Poissons Ratio (z) = 0.05735 0.45321
#
# Static dielectric constant tensor:
#      x y z
#    x 1.764100 0.000000 0.000000 
#    y 0.000000 1.672700 0.000000 
#    z 0.000000 0.000000 1.743880 
# 
# From -- ./inp_files/45588.got.cif
#   From: 2010.05.17/outbox.cif.g08.bks.cpg/sg67_23_cif.got.tgz:45588.got - 2010.06.03 18:28:57.
