data_PCOD9502609
_publ_section_title
;
Structure prediction by ZEFSAII (Michael W. Deem and Ramdas Pophale) SiO2 
 PCOD9502609
Probable space group: C M M A
;
_chemical_formula_sum "Si O2"
_cell_formula_units_Z 80
_cell_length_a 16.082417
_cell_length_b 8.904960
_cell_length_c 26.860626
_cell_angle_alpha 90.000000
_cell_angle_beta 90.000000
_cell_angle_gamma 90.000000
_cell_volume 3846.798355
_symmetry_space_group_name_H-M "C M M A"
_symmetry_group_IT_number 67
_symmetry_cell_setting 'orthorhombic'
loop_
_space_group_symop_operation_xyz
x,y,z
-x,1/2-y,z
x,-y,-z
-x,1/2+y,-z
-x,-y,-z
x,1/2+y,-z
-x,y,z
x,1/2-y,z
1/2+x,1/2+y,z
1/2-x,-y,z
1/2+x,1/2-y,-z
1/2-x,y,-z
1/2-x,1/2-y,-z
1/2+x,y,-z
1/2-x,1/2+y,z
1/2+x,-y,z
loop_
_atom_site_type_symbol
_atom_site_label
_atom_site_fract_x
_atom_site_fract_y
_atom_site_fract_z
Si Si1 0.898168 0.576844 0.448568
Si Si2 0.158084 0.928837 0.249178
Si Si3 0.157762 0.929385 0.850575
Si Si4 0.599346 0.418802 0.652055
Si Si5 0.099367 0.419850 0.950292
O O1 0.871640 0.500000 0.500000
O O2 0.872599 0.750000 0.446754
O O3 0.868953 0.489312 0.399474
O O4 0.000000 0.574324 0.448277
O O5 0.161467 0.750000 0.243983
O O6 0.250000 0.000000 0.251782
O O7 0.118033 0.001515 0.199635
O O8 0.116361 0.978070 0.300481
O O9 0.160805 0.750000 0.847038
O O10 0.250000 0.000000 0.852761
O O11 0.115632 0.983510 0.901214
O O12 0.500000 0.408158 0.646860
O O13 0.632626 0.250000 0.660205
O O14 0.132788 0.250000 0.944702
O O15 0.000000 0.408487 0.956083
O O16 0.132781 0.500000 0.000000
#
# Coordination Sequence:
#
# PCOD9502609 Si02
#       5
#    16  16  16  16  16
#     4   9  16  27  45  71 103 138 175 217 266 316
#     4  11  22  38  58  79 107 142 180 221 269 322
#     4  11  22  38  59  82 109 141 181 224 267 316
#     4  10  20  34  53  79 109 140 178 223 268 316
#     4  10  21  38  59  84 114 146 180 219 266 318
#
# _framework density 20.796513999999998
#
# number of rings (size 3 to 8) (size 9 to 14) (size 15 to 20)
#    0.000    1.800    0.000    6.600    0.000    6.000 
#    0.000    2.000    0.000    0.600    0.000    4.200 
#    0.000    0.000    0.000    0.000    0.000    0.000 
#
# Total GULP energy -223455.294740 kJ/mol
# GULP energy per Si atom -5586.382368 kJ/mol
# Density = 2.074918 g / cm^3
# Si number density = 20.796514 Si / 1000 Ang^3
#
#
#
# Elastic Constant Matrix: (Units=GPa)
#
#
# Indices 1 2 3 4 5 6 
#
# 1 6.1791 10.4007 8.6235 0.0000 0.0000 0.0000
# 2 10.4007 229.0373 100.1746 0.0000 0.0000 0.0000
# 3 8.6235 100.1746 199.6208 0.0000 0.0000 0.0000
# 4 0.0000 0.0000 0.0000 60.7574 0.0000 0.0000
# 5 0.0000 0.0000 0.0000 0.0000 19.3940 0.0000
# 6 0.0000 0.0000 0.0000 0.0000 0.0000 19.4333
#
#
#
# Elastic Compliance Matrix: (Units=1/GPa)
#
#
# Indices 1 2 3 4 5 6 
#
# 1 0.178565 -0.006066 -0.004670 0.000000 0.000000 0.000000
# 2 -0.006066 0.005800 -0.002648 0.000000 0.000000 0.000000
# 3 -0.004670 -0.002648 0.006540 0.000000 0.000000 0.000000
# 4 0.000000 0.000000 0.000000 0.016459 0.000000 0.000000
# 5 0.000000 0.000000 0.000000 0.000000 0.051562 0.000000
# 6 0.000000 0.000000 0.000000 0.000000 0.000000 0.051458
#
#
# Mechanical properties :
#
#
# Convention : Reuss Voigt Hill
#
# Bulk Modulus (GPa) = 6.09251 74.80388 40.44820
# Shear Modulus (GPa) = 12.75949 40.95949 26.85949
#
# Velocity S-wave (km/s) = 2.47966 4.44276 3.59770
# Velocity P-wave (km/s) = 3.33680 7.89715 6.06215
#
# Compressibility (1/GPa) = 0.16413585
#
# Stress axis : x y z
#
# Youngs Moduli (GPa) = 5.60021 172.41511 152.89803
#
# Poissons Ratio (x) = 1.04593 0.71398
# Poissons Ratio (y) = 0.03397 0.40495
# Poissons Ratio (z) = 0.02615 0.45664
#
# Static dielectric constant tensor:
#      x y z
#    x 1.777870 0.000000 0.000000 
#    y 0.000000 1.722770 0.000000 
#    z 0.000000 0.000000 1.752480 
# 
# From -- ./inp_files/44419.got.cif
#   From: 2010.05.17/outbox.cif.g08.bks.cpg/sg67_23_cif.got.tgz:44419.got - 2010.06.03 18:28:57.
