data_PCOD9502376
_publ_section_title
;
Structure prediction by ZEFSAII (Michael W. Deem and Ramdas Pophale) SiO2 
 PCOD9502376
Probable space group: C M M A
;
_chemical_formula_sum "Si O2"
_cell_formula_units_Z 116
_cell_length_a 25.533310
_cell_length_b 9.418511
_cell_length_c 25.188770
_cell_angle_alpha 90.000000
_cell_angle_beta 90.000000
_cell_angle_gamma 90.000000
_cell_volume 6057.540525
_symmetry_space_group_name_H-M "C M M A"
_symmetry_group_IT_number 67
_symmetry_cell_setting 'orthorhombic'
loop_
_space_group_symop_operation_xyz
x,y,z
-x,1/2-y,z
x,-y,-z
-x,1/2+y,-z
-x,-y,-z
x,1/2+y,-z
-x,y,z
x,1/2-y,z
1/2+x,1/2+y,z
1/2-x,-y,z
1/2+x,1/2-y,-z
1/2-x,y,-z
1/2-x,1/2-y,-z
1/2+x,y,-z
1/2-x,1/2+y,z
1/2+x,-y,z
loop_
_atom_site_type_symbol
_atom_site_label
_atom_site_fract_x
_atom_site_fract_y
_atom_site_fract_z
Si Si1 0.943015 0.919161 0.944379
Si Si2 0.412123 0.085761 0.656835
Si Si3 0.169814 0.417554 0.805118
Si Si4 0.936999 0.087705 0.551065
Si Si5 0.557563 0.415972 0.238933
Si Si6 0.203463 0.413762 0.299554
Si Si7 0.750000 0.000000 0.000000
Si Si8 0.326091 0.912463 0.093493
O O1 0.942515 0.750000 0.953353
O O2 0.886928 0.949992 0.918329
O O3 0.000000 0.952721 0.918194
O O4 0.942877 0.000000 0.000000
O O5 0.428860 0.250000 0.651708
O O6 0.349976 0.082828 0.667550
O O7 0.424892 0.996130 0.604879
O O8 0.436559 0.013136 0.709112
O O9 0.180313 0.250000 0.800725
O O10 0.106812 0.440209 0.799362
O O11 0.192467 0.504627 0.755613
O O12 0.189975 0.479991 0.860262
O O13 0.917361 0.250000 0.552155
O O14 0.000000 0.094752 0.546835
O O15 0.917527 0.000000 0.500000
O O16 0.500000 0.439134 0.215141
O O17 0.560907 0.250000 0.255500
O O18 0.217437 0.250000 0.289886
O O19 0.250000 0.500000 0.326734
O O20 0.789889 0.922965 0.958972
O O21 0.324118 0.750000 0.112977
#
# Coordination Sequence:
#
# PCOD9502376 Si02
#       8
#    16  16  16  16  16  16   4  16
#     4   9  18  35  58  81 104 133 170 214 262 315
#     4  10  20  33  52  81 114 149 190 236 285 336
#     4  10  22  38  58  83 112 145 180 221 272 328
#     4  10  20  33  51  78 114 156 198 238 281 332
#     4   9  18  34  55  81 114 150 187 225 270 330
#     4  10  21  38  59  82 109 142 184 232 282 335
#     4  12  26  44  62  82 106 152 184 228 272 332
#     4  11  24  41  60  84 112 141 180 226 275 332
#
# _framework density 19.149687
#
# number of rings (size 3 to 8) (size 9 to 14) (size 15 to 20)
#    0.000    2.069    0.690    2.276    0.966    7.172 
#    0.000    0.000    0.000    0.414    0.000    2.897 
#    0.000    0.000    0.000    0.000    0.000    0.000 
#
# Total GULP energy -323530.354347 kJ/mol
# GULP energy per Si atom -5578.109558 kJ/mol
# Density = 1.910610 g / cm^3
# Si number density = 19.149687 Si / 1000 Ang^3
#
#
#
# Elastic Constant Matrix: (Units=GPa)
#
#
# Indices 1 2 3 4 5 6 
#
# 1 97.3714 32.6861 5.5359 0.0000 0.0000 0.0000
# 2 32.6861 111.0897 54.2929 0.0000 0.0000 0.0000
# 3 5.5359 54.2929 81.7373 0.0000 0.0000 0.0000
# 4 0.0000 0.0000 0.0000 24.5804 0.0000 0.0000
# 5 0.0000 0.0000 0.0000 0.0000 0.1230 0.0000
# 6 0.0000 0.0000 0.0000 0.0000 0.0000 23.9210
#
#
#
# Elastic Compliance Matrix: (Units=1/GPa)
#
#
# Indices 1 2 3 4 5 6 
#
# 1 0.011658 -0.004507 0.002204 0.000000 0.000000 0.000000
# 2 -0.004507 0.015071 -0.009706 0.000000 0.000000 0.000000
# 3 0.002204 -0.009706 0.018532 0.000000 0.000000 0.000000
# 4 0.000000 0.000000 0.000000 0.040683 0.000000 0.000000
# 5 0.000000 0.000000 0.000000 0.000000 8.128705 0.000000
# 6 0.000000 0.000000 0.000000 0.000000 0.000000 0.041804
#
#
# Mechanical properties :
#
#
# Convention : Reuss Voigt Hill
#
# Bulk Modulus (GPa) = 47.07294 52.80314 49.93804
# Shear Modulus (GPa) = 0.60331 22.90380 11.75355
#
# Velocity S-wave (km/s) = 0.56190 3.46213 2.48013
# Velocity P-wave (km/s) = 5.00559 6.60421 5.85967
#
# Compressibility (1/GPa) = 0.02124363
#
# Stress axis : x y z
#
# Youngs Moduli (GPa) = 85.78015 66.35064 53.96104
#
# Poissons Ratio (x) = 0.29907 -0.11895
# Poissons Ratio (y) = 0.38665 0.52373
# Poissons Ratio (z) = -0.18910 0.64398
#
# Static dielectric constant tensor:
#      x y z
#    x 1.743430 0.000000 0.000000 
#    y 0.000000 1.658060 0.000000 
#    z 0.000000 0.000000 1.617780 
# 
# From -- ./inp_files/42856.got.cif
#   From: 2010.05.17/outbox.cif.g08.bks.cpg/sg67_22_cif.got.tgz:42856.got - 2010.06.03 18:28:57.
