data_PCOD9502485
_publ_section_title
;
Structure prediction by ZEFSAII (Michael W. Deem and Ramdas Pophale) SiO2 
 PCOD9502485
Probable space group: C M M A
;
_chemical_formula_sum "Si O2"
_cell_formula_units_Z 96
_cell_length_a 8.743859
_cell_length_b 27.864226
_cell_length_c 24.733520
_cell_angle_alpha 90.000000
_cell_angle_beta 90.000000
_cell_angle_gamma 90.000000
_cell_volume 6026.096165
_symmetry_space_group_name_H-M "C M M A"
_symmetry_group_IT_number 67
_symmetry_cell_setting 'orthorhombic'
loop_
_space_group_symop_operation_xyz
x,y,z
-x,1/2-y,z
x,-y,-z
-x,1/2+y,-z
-x,-y,-z
x,1/2+y,-z
-x,y,z
x,1/2-y,z
1/2+x,1/2+y,z
1/2-x,-y,z
1/2+x,1/2-y,-z
1/2-x,y,-z
1/2-x,1/2-y,-z
1/2+x,y,-z
1/2-x,1/2+y,z
1/2+x,-y,z
loop_
_atom_site_type_symbol
_atom_site_label
_atom_site_fract_x
_atom_site_fract_y
_atom_site_fract_z
Si Si1 0.182561 0.551302 0.834913
Si Si2 0.184277 0.597664 0.057950
Si Si3 0.685185 0.303350 0.110584
Si Si4 0.178645 0.808105 0.556216
Si Si5 0.814934 0.643598 0.220362
Si Si6 0.815803 0.305659 0.669399
O O1 0.250000 0.500000 0.818936
O O2 0.249895 0.565572 0.893677
O O3 0.239013 0.593385 0.795186
O O4 0.000000 0.549841 0.837229
O O5 0.232424 0.652689 0.072194
O O6 0.000000 0.595117 0.058503
O O7 0.250000 0.583867 0.000000
O O8 0.500000 0.301749 0.108011
O O9 0.743400 0.250000 0.097889
O O10 0.723936 0.319432 0.171785
O O11 0.197405 0.750000 0.555974
O O12 0.250000 0.825912 0.500000
O O13 0.255451 0.824422 0.611985
O O14 0.000000 0.818785 0.557126
O O15 0.767919 0.664266 0.278273
O O16 0.000000 0.638214 0.219492
O O17 0.766413 0.250000 0.675893
O O18 0.000000 0.305693 0.667844
#
# Coordination Sequence:
#
# PCOD9502485 Si02
#       6
#    16  16  16  16  16  16
#     4  11  22  37  55  72  91 115 145 183 231 280
#     4  10  20  34  51  72  96 120 150 185 222 267
#     4   8  14  26  45  67  92 123 154 183 216 256
#     4   9  16  25  37  55  84 123 165 204 237 269
#     4   9  17  30  48  70  95 121 152 188 226 271
#     4   9  16  26  43  67  95 128 162 193 227 268
#
# _framework density 15.930712
#
# number of rings (size 3 to 8) (size 9 to 14) (size 15 to 20)
#    0.000    2.667    0.000    4.000    0.000    5.333 
#    0.000    1.667    0.000   16.000    0.000    0.000 
#    0.000    0.667    0.000    7.000    0.000    3.333 
#
# Total GULP energy -267558.902288 kJ/mol
# GULP energy per Si atom -5574.143798 kJ/mol
# Density = 1.589445 g / cm^3
# Si number density = 15.930712 Si / 1000 Ang^3
#
#
#
# Elastic Constant Matrix: (Units=GPa)
#
#
# Indices 1 2 3 4 5 6 
#
# 1 35.6168 11.2484 32.2596 0.0000 0.0000 0.0000
# 2 11.2484 53.2060 18.3642 0.0000 0.0000 0.0000
# 3 32.2596 18.3642 118.4862 0.0000 0.0000 0.0000
# 4 0.0000 0.0000 0.0000 9.6089 0.0000 0.0000
# 5 0.0000 0.0000 0.0000 0.0000 25.1451 0.0000
# 6 0.0000 0.0000 0.0000 0.0000 0.0000 16.5639
#
#
#
# Elastic Compliance Matrix: (Units=1/GPa)
#
#
# Indices 1 2 3 4 5 6 
#
# 1 0.038375 -0.004762 -0.009710 0.000000 0.000000 0.000000
# 2 -0.004762 0.020448 -0.001873 0.000000 0.000000 0.000000
# 3 -0.009710 -0.001873 0.011374 0.000000 0.000000 0.000000
# 4 0.000000 0.000000 0.000000 0.104070 0.000000 0.000000
# 5 0.000000 0.000000 0.000000 0.000000 0.039769 0.000000
# 6 0.000000 0.000000 0.000000 0.000000 0.000000 0.060372
#
#
# Mechanical properties :
#
#
# Convention : Reuss Voigt Hill
#
# Bulk Modulus (GPa) = 26.66107 36.78375 31.72241
# Shear Modulus (GPa) = 15.64454 19.95938 17.80196
#
# Velocity S-wave (km/s) = 3.13715 3.54345 3.34647
# Velocity P-wave (km/s) = 5.46756 6.31517 5.90659
#
# Compressibility (1/GPa) = 0.03750788
#
# Stress axis : x y z
#
# Youngs Moduli (GPa) = 26.05836 48.90471 87.92100
#
# Poissons Ratio (x) = 0.23286 0.85374
# Poissons Ratio (y) = 0.12408 0.16466
# Poissons Ratio (z) = 0.25303 0.09159
#
# Static dielectric constant tensor:
#      x y z
#    x 1.534440 0.000000 0.000000 
#    y 0.000000 1.527120 0.000000 
#    z 0.000000 0.000000 1.528180 
# 
# From -- ./inp_files/40897.got.cif
#   From: 2010.05.17/outbox.cif.g08.bks.cpg/sg67_21_cif.got.tgz:40897.got - 2010.06.03 18:28:57.
