data_PCOD9502023
_publ_section_title
;
Structure prediction by ZEFSAII (Michael W. Deem and Ramdas Pophale) SiO2 
 PCOD9502023
Probable space group: C M M A
;
_chemical_formula_sum "Si O2"
_cell_formula_units_Z 68
_cell_length_a 21.418511
_cell_length_b 9.940939
_cell_length_c 15.516203
_cell_angle_alpha 90.000000
_cell_angle_beta 90.000000
_cell_angle_gamma 90.000000
_cell_volume 3303.711670
_symmetry_space_group_name_H-M "C M M A"
_symmetry_group_IT_number 67
_symmetry_cell_setting 'orthorhombic'
loop_
_space_group_symop_operation_xyz
x,y,z
-x,1/2-y,z
x,-y,-z
-x,1/2+y,-z
-x,-y,-z
x,1/2+y,-z
-x,y,z
x,1/2-y,z
1/2+x,1/2+y,z
1/2-x,-y,z
1/2+x,1/2-y,-z
1/2-x,y,-z
1/2-x,1/2-y,-z
1/2+x,y,-z
1/2-x,1/2+y,z
1/2+x,-y,z
loop_
_atom_site_type_symbol
_atom_site_label
_atom_site_fract_x
_atom_site_fract_y
_atom_site_fract_z
Si Si1 0.882142 0.595569 0.918966
Si Si2 0.191196 0.406025 0.249986
Si Si3 0.638012 0.401452 0.381284
Si Si4 0.500000 0.589489 0.202318
Si Si5 0.000000 0.402621 0.630333
Si Si6 0.750000 0.500000 0.500000
O O1 0.889503 0.750000 0.948000
O O2 0.826339 0.589168 0.850285
O O3 0.941126 0.560679 0.858984
O O4 0.875456 0.500000 0.000000
O O5 0.198766 0.250000 0.274559
O O6 0.250000 0.500000 0.263533
O O7 0.141597 0.479488 0.311366
O O8 0.642665 0.250000 0.343976
O O9 0.567071 0.412541 0.418085
O O10 0.699004 0.418841 0.442452
O O11 0.500000 0.750000 0.222030
O O12 0.500000 0.504512 0.289443
O O13 0.000000 0.250000 0.666128
#
# Coordination Sequence:
#
# PCOD9502023 Si02
#       6
#    16  16  16   8   8   4
#     4  10  22  37  58  89 126 168 214 266 320 376
#     4  11  23  40  64  92 126 169 216 267 325 386
#     4  11  24  43  67  98 133 169 215 266 325 393
#     4  10  19  37  60  89 125 163 213 265 318 381
#     4  10  22  40  66  97 130 172 217 266 323 386
#     4  12  26  42  72 102 132 170 218 260 330 390
#
# _framework density 20.582909999999998
#
# number of rings (size 3 to 8) (size 9 to 14) (size 15 to 20)
#    0.000    1.412    3.529    1.412    0.000    4.706 
#    0.000    2.353    0.000    0.000    0.000    0.000 
#    0.000    0.000    0.000    0.000    0.000    0.000 
#
# Total GULP energy -189442.522784 kJ/mol
# GULP energy per Si atom -5571.838905 kJ/mol
# Density = 2.053606 g / cm^3
# Si number density = 20.582910 Si / 1000 Ang^3
#
#
#
# Elastic Constant Matrix: (Units=GPa)
#
#
# Indices 1 2 3 4 5 6 
#
# 1 142.8579 40.9186 20.1774 0.0000 0.0000 0.0000
# 2 40.9186 147.6159 60.8864 0.0000 0.0000 0.0000
# 3 20.1774 60.8864 70.3879 0.0000 0.0000 0.0000
# 4 0.0000 0.0000 0.0000 23.8597 0.0000 0.0000
# 5 0.0000 0.0000 0.0000 0.0000 147.4694 0.0000
# 6 0.0000 0.0000 0.0000 0.0000 0.0000 16.4183
#
#
#
# Elastic Compliance Matrix: (Units=1/GPa)
#
#
# Indices 1 2 3 4 5 6 
#
# 1 0.007618 -0.001883 -0.000555 0.000000 0.000000 0.000000
# 2 -0.001883 0.010997 -0.008973 0.000000 0.000000 0.000000
# 3 -0.000555 -0.008973 0.022128 0.000000 0.000000 0.000000
# 4 0.000000 0.000000 0.000000 0.041912 0.000000 0.000000
# 5 0.000000 0.000000 0.000000 0.000000 0.006781 0.000000
# 6 0.000000 0.000000 0.000000 0.000000 0.000000 0.060908
#
#
# Mechanical properties :
#
#
# Convention : Reuss Voigt Hill
#
# Bulk Modulus (GPa) = 55.80025 67.20295 61.50160
# Shear Modulus (GPa) = 27.91133 53.47477 40.69305
#
# Velocity S-wave (km/s) = 3.68645 5.10261 4.45121
# Velocity P-wave (km/s) = 6.72969 8.21195 7.50749
#
# Compressibility (1/GPa) = 0.01792107
#
# Stress axis : x y z
#
# Youngs Moduli (GPa) = 131.27489 90.93159 45.19159
#
# Poissons Ratio (x) = 0.17118 0.02509
# Poissons Ratio (y) = 0.24713 0.40551
# Poissons Ratio (z) = 0.07289 0.81594
#
# Static dielectric constant tensor:
#      x y z
#    x 1.890700 0.000000 0.000000 
#    y 0.000000 1.707220 0.000000 
#    z 0.000000 0.000000 1.703650 
# 
# From -- ./inp_files/34739.got.cif
#   From: 2010.05.17/outbox.cif.g08.bks.cpg/sg67_18_cif.got.tgz:34739.got - 2010.06.03 18:28:57.
