data_PCOD9502385
_publ_section_title
;
Structure prediction by ZEFSAII (Michael W. Deem and Ramdas Pophale) SiO2 
 PCOD9502385
Probable space group: C M M A
;
_chemical_formula_sum "Si O2"
_cell_formula_units_Z 104
_cell_length_a 8.611497
_cell_length_b 26.834370
_cell_length_c 22.780713
_cell_angle_alpha 90.000000
_cell_angle_beta 90.000000
_cell_angle_gamma 90.000000
_cell_volume 5264.260487
_symmetry_space_group_name_H-M "C M M A"
_symmetry_group_IT_number 67
_symmetry_cell_setting 'orthorhombic'
loop_
_space_group_symop_operation_xyz
x,y,z
-x,1/2-y,z
x,-y,-z
-x,1/2+y,-z
-x,-y,-z
x,1/2+y,-z
-x,y,z
x,1/2-y,z
1/2+x,1/2+y,z
1/2-x,-y,z
1/2+x,1/2-y,-z
1/2-x,y,-z
1/2-x,1/2-y,-z
1/2+x,y,-z
1/2-x,1/2+y,z
1/2+x,-y,z
loop_
_atom_site_type_symbol
_atom_site_label
_atom_site_fract_x
_atom_site_fract_y
_atom_site_fract_z
Si Si1 0.812798 0.695729 0.815058
Si Si2 0.185043 0.552091 0.102181
Si Si3 0.814021 0.946522 0.646296
Si Si4 0.813225 0.141555 0.566460
Si Si5 0.813956 0.339011 0.938353
Si Si6 0.187774 0.412032 0.225135
Si Si7 0.813143 0.250000 0.566404
O O1 0.761064 0.750000 0.792612
O O2 0.752986 0.688429 0.881418
O O3 0.763909 0.646195 0.779992
O O4 0.000000 0.695356 0.815946
O O5 0.250000 0.500000 0.078941
O O6 0.234117 0.602683 0.069125
O O7 0.242727 0.560112 0.168960
O O8 0.000000 0.549920 0.101476
O O9 0.753126 0.902674 0.605170
O O10 0.763201 0.935244 0.713231
O O11 0.000000 0.947099 0.644970
O O12 0.750000 0.000000 0.627645
O O13 0.750000 0.137998 0.500000
O O14 0.765317 0.196302 0.591474
O O15 0.000000 0.138974 0.565091
O O16 0.000000 0.336147 0.937356
O O17 0.750000 0.319928 0.000000
O O18 0.000000 0.414450 0.221173
O O19 0.750000 0.250000 0.500000
O O20 0.000000 0.250000 0.564537
#
# Coordination Sequence:
#
# PCOD9502385 Si02
#       7
#    16  16  16  16  16  16   8
#     4   9  18  35  58  80 105 138 175 218 268 321
#     4  10  20  33  52  76 101 134 174 218 267 320
#     4  11  23  38  56  83 115 151 191 233 280 332
#     4  10  20  37  60  86 117 152 190 233 279 333
#     4  10  21  35  51  74 104 137 175 217 264 319
#     4   9  19  36  56  79 107 139 178 222 269 324
#     4   8  16  32  56  82 110 144 182 222 269 320
#
# _framework density 19.755862
#
# number of rings (size 3 to 8) (size 9 to 14) (size 15 to 20)
#    0.000    2.308    0.000    2.308    0.000    6.154 
#    1.385    3.077    0.000    0.000    0.000    0.000 
#    0.000    0.000    0.000    0.000    0.000    0.000 
#
# Total GULP energy -290269.793533 kJ/mol
# GULP energy per Si atom -5582.111414 kJ/mol
# Density = 1.971090 g / cm^3
# Si number density = 19.755862 Si / 1000 Ang^3
#
#
#
# Elastic Constant Matrix: (Units=GPa)
#
#
# Indices 1 2 3 4 5 6 
#
# 1 22.2090 21.5958 8.0334 0.0000 0.0000 0.0000
# 2 21.5958 142.9633 22.2291 0.0000 0.0000 0.0000
# 3 8.0334 22.2291 50.3287 0.0000 0.0000 0.0000
# 4 0.0000 0.0000 0.0000 7.3686 0.0000 0.0000
# 5 0.0000 0.0000 0.0000 0.0000 19.8809 0.0000
# 6 0.0000 0.0000 0.0000 0.0000 0.0000 -8.4503
#
#
#
# Elastic Compliance Matrix: (Units=1/GPa)
#
#
# Indices 1 2 3 4 5 6 
#
# 1 0.054111 -0.007335 -0.005398 0.000000 0.000000 0.000000
# 2 -0.007335 0.008505 -0.002586 0.000000 0.000000 0.000000
# 3 -0.005398 -0.002586 0.021873 0.000000 0.000000 0.000000
# 4 0.000000 0.000000 0.000000 0.135711 0.000000 0.000000
# 5 0.000000 0.000000 0.000000 0.000000 0.050300 0.000000
# 6 0.000000 0.000000 0.000000 0.000000 0.000000 -0.118339
#
#
# Mechanical properties :
#
#
# Convention : Reuss Voigt Hill
#
# Bulk Modulus (GPa) = 18.56898 35.46861 27.01880
# Shear Modulus (GPa) = 24.90679 14.66934 19.78806
#
# Velocity S-wave (km/s) = 3.55453 2.72790 3.16829
# Velocity P-wave (km/s) = 5.12502 5.28340 5.20481
#
# Compressibility (1/GPa) = 0.05385326
#
# Stress axis : x y z
#
# Youngs Moduli (GPa) = 18.48044 117.58058 45.71855
#
# Poissons Ratio (x) = 0.86242 0.24677
# Poissons Ratio (y) = 0.13555 0.11821
# Poissons Ratio (z) = 0.09975 0.30402
#
# Static dielectric constant tensor:
#      x y z
#    x 1.657060 0.000000 0.000000 
#    y 0.000000 1.737570 0.000000 
#    z 0.000000 0.000000 1.655720 
# 
# From -- ./inp_files/37296.got.cif
#   From: 2010.05.17/outbox.cif.g08.bks.cpg/sg67_19_cif.got.tgz:37296.got - 2010.06.03 18:28:57.
