data_PCOD9502679
_publ_section_title
;
Structure prediction by ZEFSAII (Michael W. Deem and Ramdas Pophale) SiO2 
 PCOD9502679
Probable space group: C M M A
;
_chemical_formula_sum "Si O2"
_cell_formula_units_Z 88
_cell_length_a 20.742188
_cell_length_b 15.305818
_cell_length_c 14.258561
_cell_angle_alpha 90.000000
_cell_angle_beta 90.000000
_cell_angle_gamma 90.000000
_cell_volume 4526.753114
_symmetry_space_group_name_H-M "C M M A"
_symmetry_group_IT_number 67
_symmetry_cell_setting 'orthorhombic'
loop_
_space_group_symop_operation_xyz
x,y,z
-x,1/2-y,z
x,-y,-z
-x,1/2+y,-z
-x,-y,-z
x,1/2+y,-z
-x,y,z
x,1/2-y,z
1/2+x,1/2+y,z
1/2-x,-y,z
1/2+x,1/2-y,-z
1/2-x,y,-z
1/2-x,1/2-y,-z
1/2+x,y,-z
1/2-x,1/2+y,z
1/2+x,-y,z
loop_
_atom_site_type_symbol
_atom_site_label
_atom_site_fract_x
_atom_site_fract_y
_atom_site_fract_z
Si Si1 0.794986 0.250000 0.261007
Si Si2 0.824119 0.250000 0.041264
Si Si3 0.077966 0.910696 0.939677
Si Si4 0.861968 0.562592 0.407659
Si Si5 0.125928 0.421966 0.274479
Si Si6 0.500000 0.088041 0.438513
Si Si7 0.699351 0.250000 0.416765
Si Si8 0.000000 0.652529 0.632751
O O1 0.805335 0.250000 0.150553
O O2 0.829914 0.161831 0.292268
O O3 0.726630 0.250000 0.310780
O O4 0.872240 0.334167 0.024667
O O5 0.750000 0.250000 0.000000
O O6 0.102370 0.928380 0.832916
O O7 0.000000 0.886853 0.938622
O O8 0.083786 0.000000 0.000000
O O9 0.857586 0.500000 0.500000
O O10 0.839253 0.505946 0.319060
O O11 0.935403 0.586835 0.381832
O O12 0.833584 0.656435 0.428686
O O13 0.062264 0.399492 0.334094
O O14 0.500000 0.158337 0.520862
O O15 0.500000 0.000000 0.500000
O O16 0.750000 0.250000 0.500000
O O17 0.000000 0.750000 0.674835
#
# Coordination Sequence:
#
# PCOD9502679 Si02
#       8
#     8   8  16  16  16   8   8   8
#     4  10  24  40  59  89 112 155 212 250 293 355
#     4  10  23  43  68  89 126 167 213 260 308 374
#     4  10  22  39  65 101 128 158 202 262 325 381
#     4  11  23  39  60  85 119 160 203 253 306 366
#     4  11  20  37  63  91 121 151 195 253 312 363
#     4  10  20  34  54  86 113 143 195 239 300 353
#     4  12  28  41  54  80 125 170 214 247 296 361
#     4  12  20  30  63  93 121 150 191 252 300 364
#
# _framework density 19.439983000000002
#
# number of rings (size 3 to 8) (size 9 to 14) (size 15 to 20)
#    0.000    1.273    5.455    1.364    1.273    4.364 
#    0.000    3.636    0.000    0.000    0.000    0.000 
#    0.000    0.000    0.000    0.000    0.000    0.000 
#
# Total GULP energy -244939.781212 kJ/mol
# GULP energy per Si atom -5566.813209 kJ/mol
# Density = 1.939574 g / cm^3
# Si number density = 19.439983 Si / 1000 Ang^3
#
#
#
# Elastic Constant Matrix: (Units=GPa)
#
#
# Indices 1 2 3 4 5 6 
#
# 1 85.0995 70.6697 15.5744 0.0000 0.0000 0.0000
# 2 70.6697 174.0990 44.8182 0.0000 0.0000 0.0000
# 3 15.5744 44.8182 43.5726 0.0000 0.0000 0.0000
# 4 0.0000 0.0000 0.0000 30.8212 0.0000 0.0000
# 5 0.0000 0.0000 0.0000 0.0000 -469.4746 0.0000
# 6 0.0000 0.0000 0.0000 0.0000 0.0000 27.3410
#
#
#
# Elastic Compliance Matrix: (Units=1/GPa)
#
#
# Indices 1 2 3 4 5 6 
#
# 1 0.017794 -0.007597 0.001454 0.000000 0.000000 0.000000
# 2 -0.007597 0.011056 -0.008657 0.000000 0.000000 0.000000
# 3 0.001454 -0.008657 0.031335 0.000000 0.000000 0.000000
# 4 0.000000 0.000000 0.000000 0.032445 0.000000 0.000000
# 5 0.000000 0.000000 0.000000 0.000000 -0.002130 0.000000
# 6 0.000000 0.000000 0.000000 0.000000 0.000000 0.036575
#
#
# Mechanical properties :
#
#
# Convention : Reuss Voigt Hill
#
# Bulk Modulus (GPa) = 32.69558 62.76620 47.73089
# Shear Modulus (GPa) = 29.96361 -70.81521 -20.42580
#
# Velocity S-wave (km/s) = 3.93025 -6.04208 -3.24498
# Velocity P-wave (km/s) = 6.11973 4.03959 3.25059
#
# Compressibility (1/GPa) = 0.03058517
#
# Stress axis : x y z
#
# Youngs Moduli (GPa) = 56.19954 90.44730 31.91362
#
# Poissons Ratio (x) = 0.68714 -0.04641
# Poissons Ratio (y) = 0.42696 0.27627
# Poissons Ratio (z) = -0.08173 0.78298
#
# Static dielectric constant tensor:
#      x y z
#    x 1.724330 0.000000 0.000000 
#    y 0.000000 2.511290 0.000000 
#    z 0.000000 0.000000 1.687450 
# 
# From -- ./inp_files/29218.got.cif
#   From: 2010.05.17/outbox.cif.g08.bks.cpg/sg67_15_cif.got.tgz:29218.got - 2010.06.03 18:28:57.
