data_PCOD9502042
_publ_section_title
;
Structure prediction by ZEFSAII (Michael W. Deem and Ramdas Pophale) SiO2 
 PCOD9502042
Probable space group: C M M A
;
_chemical_formula_sum "Si O2"
_cell_formula_units_Z 92
_cell_length_a 25.181253
_cell_length_b 8.793785
_cell_length_c 24.155619
_cell_angle_alpha 90.000000
_cell_angle_beta 90.000000
_cell_angle_gamma 90.000000
_cell_volume 5348.984640
_symmetry_space_group_name_H-M "C M M A"
_symmetry_group_IT_number 67
_symmetry_cell_setting 'orthorhombic'
loop_
_space_group_symop_operation_xyz
x,y,z
-x,1/2-y,z
x,-y,-z
-x,1/2+y,-z
-x,-y,-z
x,1/2+y,-z
-x,y,z
x,1/2-y,z
1/2+x,1/2+y,z
1/2-x,-y,z
1/2+x,1/2-y,-z
1/2-x,y,-z
1/2-x,1/2-y,-z
1/2+x,y,-z
1/2-x,1/2+y,z
1/2+x,-y,z
loop_
_atom_site_type_symbol
_atom_site_label
_atom_site_fract_x
_atom_site_fract_y
_atom_site_fract_z
Si Si1 0.000000 0.567216 0.938859
Si Si2 0.808441 0.932152 0.941985
Si Si3 0.901776 0.567058 0.860777
Si Si4 0.103466 0.081585 0.366016
Si Si5 0.062228 0.931874 0.254127
Si Si6 0.693738 0.431666 0.438583
Si Si7 0.000000 0.250000 0.401440
O O1 0.051305 0.522375 0.903044
O O2 0.000000 0.750000 0.943524
O O3 0.000000 0.500000 0.000000
O O4 0.805607 0.750000 0.947225
O O5 0.846992 0.970322 0.891422
O O6 0.750000 0.000000 0.933953
O O7 0.829407 0.000000 0.000000
O O8 0.904677 0.750000 0.853252
O O9 0.910854 0.488542 0.802218
O O10 0.127525 0.250000 0.356359
O O11 0.047695 0.119359 0.396765
O O12 0.088901 0.005956 0.307736
O O13 0.144642 0.983342 0.400917
O O14 0.064643 0.750000 0.257699
O O15 0.000000 0.978603 0.252675
O O16 0.685700 0.500000 0.500000
O O17 0.697354 0.250000 0.441701
O O18 0.750000 0.500000 0.418247
#
# Coordination Sequence:
#
# PCOD9502042 Si02
#       7
#     8  16  16  16  16  16   4
#     4  10  20  33  50  74 106 137 172 221 274 335
#     4  10  20  35  55  76  99 134 174 218 271 333
#     4  10  21  35  53  76 104 141 180 221 276 336
#     4  10  19  38  61  86 118 159 202 243 296 352
#     4  11  21  34  55  83 113 148 190 234 286 345
#     4  11  22  39  64  94 125 164 206 252 299 356
#     4   8  20  34  64  82 118 162 198 242 298 344
#
# _framework density 17.199525000000001
#
# number of rings (size 3 to 8) (size 9 to 14) (size 15 to 20)
#    0.522    1.217    1.739    4.696    0.000    2.783 
#    0.000    1.304    0.000    2.087    0.000    0.000 
#    0.000    0.000    0.000    0.000    0.000    0.000 
#
# Total GULP energy -256079.302860 kJ/mol
# GULP energy per Si atom -5566.941367 kJ/mol
# Density = 1.716038 g / cm^3
# Si number density = 17.199525 Si / 1000 Ang^3
#
#
#
# Elastic Constant Matrix: (Units=GPa)
#
#
# Indices 1 2 3 4 5 6 
#
# 1 105.7545 54.4586 63.3916 0.0000 0.0000 0.0000
# 2 54.4586 96.0632 48.4614 0.0000 0.0000 0.0000
# 3 63.3916 48.4614 78.8184 0.0000 0.0000 0.0000
# 4 0.0000 0.0000 0.0000 33.1105 0.0000 0.0000
# 5 0.0000 0.0000 0.0000 0.0000 22.1144 0.0000
# 6 0.0000 0.0000 0.0000 0.0000 0.0000 30.4859
#
#
#
# Elastic Compliance Matrix: (Units=1/GPa)
#
#
# Indices 1 2 3 4 5 6 
#
# 1 0.019549 -0.004567 -0.012915 0.000000 0.000000 0.000000
# 2 -0.004567 0.016158 -0.006261 0.000000 0.000000 0.000000
# 3 -0.012915 -0.006261 0.026924 0.000000 0.000000 0.000000
# 4 0.000000 0.000000 0.000000 0.030202 0.000000 0.000000
# 5 0.000000 0.000000 0.000000 0.000000 0.045219 0.000000
# 6 0.000000 0.000000 0.000000 0.000000 0.000000 0.032802
#
#
# Mechanical properties :
#
#
# Convention : Reuss Voigt Hill
#
# Bulk Modulus (GPa) = 66.03048 68.13992 67.08520
# Shear Modulus (GPa) = 22.38254 24.76380 23.57317
#
# Velocity S-wave (km/s) = 3.61133 3.79858 3.70614
# Velocity P-wave (km/s) = 7.47417 7.67739 7.57646
#
# Compressibility (1/GPa) = 0.01514452
#
# Stress axis : x y z
#
# Youngs Moduli (GPa) = 51.15304 61.89027 37.14171
#
# Poissons Ratio (x) = 0.28268 0.47967
# Poissons Ratio (y) = 0.23364 0.23255
# Poissons Ratio (z) = 0.66062 0.38750
#
# Static dielectric constant tensor:
#      x y z
#    x 1.579600 0.000000 0.000000 
#    y 0.000000 1.586340 0.000000 
#    z 0.000000 0.000000 1.554980 
# 
# From -- ./inp_files/39912.got.cif
#   From: 2010.05.17/outbox.cif.g08.bks.cpg/sg67_20_cif.got.tgz:39912.got - 2010.06.03 18:28:57.
