data_PCOD9502094
_publ_section_title
;
Structure prediction by ZEFSAII (Michael W. Deem and Ramdas Pophale) SiO2 
 PCOD9502094
Probable space group: C M M A
;
_chemical_formula_sum "Si O2"
_cell_formula_units_Z 104
_cell_length_a 31.414108
_cell_length_b 8.844588
_cell_length_c 23.176906
_cell_angle_alpha 90.000000
_cell_angle_beta 90.000000
_cell_angle_gamma 90.000000
_cell_volume 6439.583801
_symmetry_space_group_name_H-M "C M M A"
_symmetry_group_IT_number 67
_symmetry_cell_setting 'orthorhombic'
loop_
_space_group_symop_operation_xyz
x,y,z
-x,1/2-y,z
x,-y,-z
-x,1/2+y,-z
-x,-y,-z
x,1/2+y,-z
-x,y,z
x,1/2-y,z
1/2+x,1/2+y,z
1/2-x,-y,z
1/2+x,1/2-y,-z
1/2-x,y,-z
1/2-x,1/2-y,-z
1/2+x,y,-z
1/2-x,1/2+y,z
1/2+x,-y,z
loop_
_atom_site_type_symbol
_atom_site_label
_atom_site_fract_x
_atom_site_fract_y
_atom_site_fract_z
Si Si1 0.323482 0.929577 0.939225
Si Si2 0.592138 0.574046 0.100514
Si Si3 0.551594 0.422358 0.558887
Si Si4 0.382364 0.424607 0.765860
Si Si5 0.549116 0.430523 0.318621
Si Si6 0.705278 0.432733 0.817064
Si Si7 0.000000 0.067969 0.062904
O O1 0.316979 0.750000 0.938828
O O2 0.373408 0.972123 0.931860
O O3 0.303123 0.004218 0.881901
O O4 0.308503 0.000000 0.000000
O O5 0.597142 0.750000 0.081055
O O6 0.601316 0.572015 0.168331
O O7 0.544069 0.521611 0.091795
O O8 0.566989 0.500000 0.500000
O O9 0.500000 0.419239 0.555351
O O10 0.566577 0.250000 0.562711
O O11 0.561000 0.510918 0.617582
O O12 0.381513 0.250000 0.746365
O O13 0.415561 0.511978 0.726064
O O14 0.333644 0.478691 0.774770
O O15 0.500000 0.482864 0.305919
O O16 0.548428 0.250000 0.318517
O O17 0.705572 0.250000 0.820000
O O18 0.750000 0.500000 0.797405
O O19 0.000000 0.250000 0.061656
O O20 0.000000 0.000000 0.000000
#
# Coordination Sequence:
#
# PCOD9502094 Si02
#       7
#    16  16  16  16  16  16   8
#     4  11  21  34  52  72  95 121 150 189 238 294
#     4   9  19  34  49  66  89 120 158 199 244 291
#     4   9  16  27  44  66  95 133 173 210 248 287
#     4   9  19  34  52  71  95 126 161 200 242 291
#     4  10  20  31  45  70 103 137 174 212 243 280
#     4  10  21  38  57  77  98 122 155 195 245 301
#     4  10  20  32  46  64  86 116 155 198 241 288
#
# _framework density 16.150112
#
# number of rings (size 3 to 8) (size 9 to 14) (size 15 to 20)
#    0.000    2.308    0.000    4.154    1.077    8.000 
#    0.000    1.538    0.000    0.000    0.000    0.000 
#    0.000    0.615    0.000    6.462    0.000    3.846 
#
# Total GULP energy -289916.045961 kJ/mol
# GULP energy per Si atom -5575.308576 kJ/mol
# Density = 1.611335 g / cm^3
# Si number density = 16.150112 Si / 1000 Ang^3
#
#
#
# Elastic Constant Matrix: (Units=GPa)
#
#
# Indices 1 2 3 4 5 6 
#
# 1 107.0230 30.8765 37.2077 0.0000 0.0000 0.0000
# 2 30.8765 72.2512 35.0061 0.0000 0.0000 0.0000
# 3 37.2077 35.0061 71.1452 0.0000 0.0000 0.0000
# 4 0.0000 0.0000 0.0000 29.4672 0.0000 0.0000
# 5 0.0000 0.0000 0.0000 0.0000 8.8109 0.0000
# 6 0.0000 0.0000 0.0000 0.0000 0.0000 23.8447
#
#
#
# Elastic Compliance Matrix: (Units=1/GPa)
#
#
# Indices 1 2 3 4 5 6 
#
# 1 0.011807 -0.002697 -0.004848 0.000000 0.000000 0.000000
# 2 -0.002697 0.018789 -0.007834 0.000000 0.000000 0.000000
# 3 -0.004848 -0.007834 0.020446 0.000000 0.000000 0.000000
# 4 0.000000 0.000000 0.000000 0.033936 0.000000 0.000000
# 5 0.000000 0.000000 0.000000 0.000000 0.113496 0.000000
# 6 0.000000 0.000000 0.000000 0.000000 0.000000 0.041938
#
#
# Mechanical properties :
#
#
# Convention : Reuss Voigt Hill
#
# Bulk Modulus (GPa) = 49.30113 50.73337 50.01725
# Shear Modulus (GPa) = 17.99001 22.24650 20.11825
#
# Velocity S-wave (km/s) = 3.34117 3.71547 3.53328
# Velocity P-wave (km/s) = 6.74371 7.06315 6.90528
#
# Compressibility (1/GPa) = 0.02028351
#
# Stress axis : x y z
#
# Youngs Moduli (GPa) = 84.69306 53.22279 48.90931
#
# Poissons Ratio (x) = 0.14354 0.23711
# Poissons Ratio (y) = 0.22841 0.38317
# Poissons Ratio (z) = 0.41059 0.41697
#
# Static dielectric constant tensor:
#      x y z
#    x 1.545860 0.000000 0.000000 
#    y 0.000000 1.550810 0.000000 
#    z 0.000000 0.000000 1.517160 
# 
# From -- ./inp_files/42936.got.cif
#   From: 2010.05.17/outbox.cif.g08.bks.cpg/sg67_22_cif.got.tgz:42936.got - 2010.06.03 18:28:57.
