data_PCOD9502109
_publ_section_title
;
Structure prediction by ZEFSAII (Michael W. Deem and Ramdas Pophale) SiO2 
 PCOD9502109
Probable space group: C M M A
;
_chemical_formula_sum "Si O2"
_cell_formula_units_Z 56
_cell_length_a 28.189158
_cell_length_b 18.559808
_cell_length_c 5.111003
_cell_angle_alpha 90.000000
_cell_angle_beta 90.000000
_cell_angle_gamma 90.000000
_cell_volume 2674.001945
_symmetry_space_group_name_H-M "C M M A"
_symmetry_group_IT_number 67
_symmetry_cell_setting 'orthorhombic'
loop_
_space_group_symop_operation_xyz
x,y,z
-x,1/2-y,z
x,-y,-z
-x,1/2+y,-z
-x,-y,-z
x,1/2+y,-z
-x,y,z
x,1/2-y,z
1/2+x,1/2+y,z
1/2-x,-y,z
1/2+x,1/2-y,-z
1/2-x,y,-z
1/2-x,1/2-y,-z
1/2+x,y,-z
1/2-x,1/2+y,z
1/2+x,-y,z
loop_
_atom_site_type_symbol
_atom_site_label
_atom_site_fract_x
_atom_site_fract_y
_atom_site_fract_z
Si Si1 0.750000 0.750000 0.500000
Si Si2 0.111427 0.836688 0.914947
Si Si3 0.750000 0.000000 0.500000
Si Si4 0.446625 0.162865 0.424171
Si Si5 0.206908 0.127423 0.807818
O O1 0.789040 0.687044 0.418605
O O2 0.119276 0.750000 0.905773
O O3 0.091753 0.862500 0.636821
O O4 0.071211 0.851219 0.132330
O O5 0.159510 0.870240 0.024716
O O6 0.781643 0.050955 0.682127
O O7 0.500000 0.136145 0.471018
O O8 0.448053 0.250000 0.453343
O O9 0.250000 0.149745 0.000000
#
# Coordination Sequence:
#
# PCOD9502109 Si02
#       5
#     4  16   4  16  16
#     4  10  22  34  60  84 122 150 190 254 306 342
#     4  10  20  31  56  85 115 154 194 238 298 357
#     4  10  26  42  56  76 122 162 210 242 302 346
#     4   9  18  32  50  81 121 153 186 236 298 359
#     4  11  23  38  58  85 120 159 203 250 296 362
#
# _framework density 20.942394
#
# number of rings (size 3 to 8) (size 9 to 14) (size 15 to 20)
#    0.000    2.000    1.429    1.714    8.000    3.429 
#    0.000    0.000    0.000    0.000    0.000    6.000 
#    0.000    0.000    0.000    0.000    0.000    0.000 
#
# Total GULP energy -155955.434498 kJ/mol
# GULP energy per Si atom -5569.836946 kJ/mol
# Density = 2.089473 g / cm^3
# Si number density = 20.942394 Si / 1000 Ang^3
#
#
#
# Elastic Constant Matrix: (Units=GPa)
#
#
# Indices 1 2 3 4 5 6 
#
# 1 75.9594 2.1088 -18.0611 0.0000 0.0000 0.0000
# 2 2.1088 63.0853 4.5804 0.0000 0.0000 0.0000
# 3 -18.0611 4.5804 42.7271 0.0000 0.0000 0.0000
# 4 0.0000 0.0000 0.0000 -7.1931 0.0000 0.0000
# 5 0.0000 0.0000 0.0000 0.0000 28.9396 0.0000
# 6 0.0000 0.0000 0.0000 0.0000 0.0000 8.4833
#
#
#
# Elastic Compliance Matrix: (Units=1/GPa)
#
#
# Indices 1 2 3 4 5 6 
#
# 1 0.014692 -0.000949 0.006312 0.000000 0.000000 0.000000
# 2 -0.000949 0.016037 -0.002121 0.000000 0.000000 0.000000
# 3 0.006312 -0.002121 0.026300 0.000000 0.000000 0.000000
# 4 0.000000 0.000000 0.000000 -0.139023 0.000000 0.000000
# 5 0.000000 0.000000 0.000000 0.000000 0.034555 0.000000
# 6 0.000000 0.000000 0.000000 0.000000 0.000000 0.117878
#
#
# Mechanical properties :
#
#
# Convention : Reuss Voigt Hill
#
# Bulk Modulus (GPa) = 15.74457 17.66978 16.70717
# Shear Modulus (GPa) = 58.73617 18.92222 38.82919
#
# Velocity S-wave (km/s) = 5.30164 3.00915 4.31059
# Velocity P-wave (km/s) = 6.70902 4.53089 5.72450
#
# Compressibility (1/GPa) = 0.06351397
#
# Stress axis : x y z
#
# Youngs Moduli (GPa) = 68.06345 62.35482 38.02291
#
# Poissons Ratio (x) = 0.05920 -0.24001
# Poissons Ratio (y) = 0.06462 0.08063
# Poissons Ratio (z) = -0.42964 0.13223
#
# Static dielectric constant tensor:
#      x y z
#    x 1.753440 0.000000 0.000000 
#    y 0.000000 1.720510 0.000000 
#    z 0.000000 0.000000 1.846070 
# 
# From -- ./inp_files/4545.got.cif
#   From: 2010.05.17/outbox.cif.g08.bks.cpg/sg67_3_cif.got.tgz:4545.got - 2010.06.03 18:28:57.
