data_PCOD9502141
_publ_section_title
;
Structure prediction by ZEFSAII (Michael W. Deem and Ramdas Pophale) SiO2 
 PCOD9502141
Probable space group: C M M A
;
_chemical_formula_sum "Si O2"
_cell_formula_units_Z 96
_cell_length_a 18.194042
_cell_length_b 16.909402
_cell_length_c 14.003079
_cell_angle_alpha 90.000000
_cell_angle_beta 90.000000
_cell_angle_gamma 90.000000
_cell_volume 4308.052438
_symmetry_space_group_name_H-M "C M M A"
_symmetry_group_IT_number 67
_symmetry_cell_setting 'orthorhombic'
loop_
_space_group_symop_operation_xyz
x,y,z
-x,1/2-y,z
x,-y,-z
-x,1/2+y,-z
-x,-y,-z
x,1/2+y,-z
-x,y,z
x,1/2-y,z
1/2+x,1/2+y,z
1/2-x,-y,z
1/2+x,1/2-y,-z
1/2-x,y,-z
1/2-x,1/2-y,-z
1/2+x,y,-z
1/2-x,1/2+y,z
1/2+x,-y,z
loop_
_atom_site_type_symbol
_atom_site_label
_atom_site_fract_x
_atom_site_fract_y
_atom_site_fract_z
Si Si1 0.623595 0.654663 0.165914
Si Si2 0.581902 0.154081 0.419949
Si Si3 0.736597 0.911621 0.614027
Si Si4 0.721739 0.339830 0.109749
Si Si5 0.419047 0.589287 0.965057
Si Si6 0.110487 0.841615 0.634409
O O1 0.628598 0.750000 0.172883
O O2 0.707591 0.623391 0.160455
O O3 0.587058 0.637095 0.064683
O O4 0.585788 0.624916 0.263038
O O5 0.500000 0.134736 0.383593
O O6 0.589680 0.250000 0.419356
O O7 0.653628 0.117769 0.369571
O O8 0.586043 0.126020 0.531771
O O9 0.750000 0.916603 0.500000
O O10 0.801167 0.850887 0.640758
O O11 0.750000 0.000000 0.652600
O O12 0.708512 0.250000 0.143059
O O13 0.750000 0.335235 0.000000
O O14 0.646035 0.386251 0.105238
O O15 0.500000 0.600322 0.923415
O O16 0.409546 0.500000 0.000000
O O17 0.088938 0.750000 0.631560
#
# Coordination Sequence:
#
# PCOD9502141 Si02
#       6
#    16  16  16  16  16  16
#     4   9  18  32  51  75  98 123 161 209 255 294
#     4   9  17  30  52  80 106 136 175 218 260 302
#     4   9  17  31  48  71 104 138 177 210 246 301
#     4   8  15  29  47  67  89 116 157 197 232 285
#     4  10  20  32  46  68  98 127 159 197 243 302
#     4   9  17  31  50  74 102 132 168 213 257 298
#
# _framework density 22.283852
#
# number of rings (size 3 to 8) (size 9 to 14) (size 15 to 20)
#    0.000    3.000    0.000    2.000    0.000    7.000 
#    3.000    8.333    0.000    1.000    0.000    2.333 
#    0.000    0.000    0.000    0.000    0.000    0.000 
#
# Total GULP energy -267446.711455 kJ/mol
# GULP energy per Si atom -5571.806489 kJ/mol
# Density = 2.223313 g / cm^3
# Si number density = 22.283852 Si / 1000 Ang^3
#
#
#
# Elastic Constant Matrix: (Units=GPa)
#
#
# Indices 1 2 3 4 5 6 
#
# 1 185.1563 44.0008 -9.1497 0.0000 0.0000 0.0000
# 2 44.0008 33.3722 -0.9272 0.0000 0.0000 0.0000
# 3 -9.1497 -0.9272 29.8795 0.0000 0.0000 0.0000
# 4 0.0000 0.0000 0.0000 5.5604 0.0000 0.0000
# 5 0.0000 0.0000 0.0000 0.0000 -4.1332 0.0000
# 6 0.0000 0.0000 0.0000 0.0000 0.0000 43.3163
#
#
#
# Elastic Compliance Matrix: (Units=1/GPa)
#
#
# Indices 1 2 3 4 5 6 
#
# 1 0.007998 -0.010486 0.002124 0.000000 0.000000 0.000000
# 2 -0.010486 0.043739 -0.001854 0.000000 0.000000 0.000000
# 3 0.002124 -0.001854 0.034061 0.000000 0.000000 0.000000
# 4 0.000000 0.000000 0.000000 0.179845 0.000000 0.000000
# 5 0.000000 0.000000 0.000000 0.000000 -0.241943 0.000000
# 6 0.000000 0.000000 0.000000 0.000000 0.000000 0.023086
#
#
# Mechanical properties :
#
#
# Convention : Reuss Voigt Hill
#
# Bulk Modulus (GPa) = 15.29862 35.13957 25.21909
# Shear Modulus (GPa) = 56.17683 23.24762 39.71222
#
# Velocity S-wave (km/s) = 5.02637 3.23344 4.22608
# Velocity P-wave (km/s) = 6.36915 5.45376 5.92915
#
# Compressibility (1/GPa) = 0.06536538
#
# Stress axis : x y z
#
# Youngs Moduli (GPa) = 125.03681 22.86292 29.35949
#
# Poissons Ratio (x) = 0.23974 -0.06235
# Poissons Ratio (y) = 1.31111 0.05442
# Poissons Ratio (z) = -0.26553 0.04238
#
# Static dielectric constant tensor:
#      x y z
#    x 1.839370 0.000000 0.000000 
#    y 0.000000 1.834880 0.000000 
#    z 0.000000 0.000000 1.893350 
# 
# From -- ./inp_files/34233.got.cif
#   From: 2010.05.17/outbox.cif.g08.bks.cpg/sg67_18_cif.got.tgz:34233.got - 2010.06.03 18:28:57.
