data_PCOD9502453
_publ_section_title
;
Structure prediction by ZEFSAII (Michael W. Deem and Ramdas Pophale) SiO2 
 PCOD9502453
Probable space group: C M M A
;
_chemical_formula_sum "Si O2"
_cell_formula_units_Z 104
_cell_length_a 22.309756
_cell_length_b 9.915287
_cell_length_c 29.382475
_cell_angle_alpha 90.000000
_cell_angle_beta 90.000000
_cell_angle_gamma 90.000000
_cell_volume 6499.627765
_symmetry_space_group_name_H-M "C M M A"
_symmetry_group_IT_number 67
_symmetry_cell_setting 'orthorhombic'
loop_
_space_group_symop_operation_xyz
x,y,z
-x,1/2-y,z
x,-y,-z
-x,1/2+y,-z
-x,-y,-z
x,1/2+y,-z
-x,y,z
x,1/2-y,z
1/2+x,1/2+y,z
1/2-x,-y,z
1/2+x,1/2-y,-z
1/2-x,y,-z
1/2-x,1/2-y,-z
1/2+x,y,-z
1/2-x,1/2+y,z
1/2+x,-y,z
loop_
_atom_site_type_symbol
_atom_site_label
_atom_site_fract_x
_atom_site_fract_y
_atom_site_fract_z
Si Si1 0.927096 0.094533 0.540716
Si Si2 0.500000 0.598685 0.042594
Si Si3 0.381695 0.505556 0.092251
Si Si4 0.427056 0.594297 0.273640
Si Si5 0.927040 0.905941 0.356328
Si Si6 0.695367 0.750000 0.065926
Si Si7 0.665955 0.750000 0.959959
Si Si8 0.072078 0.907017 0.188351
O O1 0.910395 0.250000 0.532840
O O2 0.908558 0.057283 0.592144
O O3 0.000000 0.089190 0.540546
O O4 0.905520 0.000000 0.500000
O O5 0.500000 0.750000 0.024748
O O6 0.441806 0.574227 0.073337
O O7 0.500000 0.500000 0.000000
O O8 0.329517 0.616720 0.090237
O O9 0.365943 0.382863 0.058734
O O10 0.394719 0.447837 0.142136
O O11 0.500000 0.596920 0.274827
O O12 0.406906 0.750000 0.272422
O O13 0.406907 0.511257 0.318177
O O14 0.410934 0.507658 0.229101
O O15 0.909400 0.750000 0.347045
O O16 0.000000 0.906431 0.355657
O O17 0.766511 0.750000 0.059702
O O18 0.669242 0.750000 0.014416
O O19 0.083681 0.750000 0.199830
O O20 0.000000 0.919094 0.181090
#
# Coordination Sequence:
#
# PCOD9502453 Si02
#       8
#    16   8  16  16  16   8   8  16
#     4   8  13  19  27  40  60  88 124 170 222 270
#     4  12  26  38  56  82 110 136 158 192 243 292
#     4  12  23  38  58  81 106 132 163 198 241 290
#     4   9  17  26  40  58  79 106 141 182 224 276
#     4   8  13  22  33  46  66  97 134 172 220 277
#     4  11  24  41  61  81 103 134 165 205 236 273
#     4  11  24  43  61  79 103 134 171 197 234 285
#     4  10  20  34  48  68  96 127 153 183 233 293
#
# _framework density 16.000917000000001
#
# number of rings (size 3 to 8) (size 9 to 14) (size 15 to 20)
#    0.000    2.154    2.308    3.231    2.154    3.692 
#    0.000    3.077    0.000    0.000    0.000    0.000 
#    0.000    0.000    0.000    0.000    0.000    0.000 
#
# Total GULP energy -289958.870899 kJ/mol
# GULP energy per Si atom -5576.132133 kJ/mol
# Density = 1.596450 g / cm^3
# Si number density = 16.000917 Si / 1000 Ang^3
#
#
#
# Elastic Constant Matrix: (Units=GPa)
#
#
# Indices 1 2 3 4 5 6 
#
# 1 26.1657 15.0065 10.2535 0.0000 0.0000 0.0000
# 2 15.0065 126.0585 66.7092 0.0000 0.0000 0.0000
# 3 10.2535 66.7092 109.1445 0.0000 0.0000 0.0000
# 4 0.0000 0.0000 0.0000 33.0287 0.0000 0.0000
# 5 0.0000 0.0000 0.0000 0.0000 3.3839 0.0000
# 6 0.0000 0.0000 0.0000 0.0000 0.0000 1.2123
#
#
#
# Elastic Compliance Matrix: (Units=1/GPa)
#
#
# Indices 1 2 3 4 5 6 
#
# 1 0.041141 -0.004216 -0.001288 0.000000 0.000000 0.000000
# 2 -0.004216 0.012157 -0.007034 0.000000 0.000000 0.000000
# 3 -0.001288 -0.007034 0.013583 0.000000 0.000000 0.000000
# 4 0.000000 0.000000 0.000000 0.030277 0.000000 0.000000
# 5 0.000000 0.000000 0.000000 0.000000 0.295516 0.000000
# 6 0.000000 0.000000 0.000000 0.000000 0.000000 0.824867
#
#
# Mechanical properties :
#
#
# Convention : Reuss Voigt Hill
#
# Bulk Modulus (GPa) = 23.92142 49.47857 36.69999
# Shear Modulus (GPa) = 3.97914 18.81829 11.39872
#
# Velocity S-wave (km/s) = 1.57868 3.43312 2.67194
# Velocity P-wave (km/s) = 4.27849 6.83407 5.70131
#
# Compressibility (1/GPa) = 0.04180354
#
# Stress axis : x y z
#
# Youngs Moduli (GPa) = 24.30686 82.25518 73.62317
#
# Poissons Ratio (x) = 0.34677 0.09484
# Poissons Ratio (y) = 0.10247 0.51790
# Poissons Ratio (z) = 0.03131 0.57862
#
# Static dielectric constant tensor:
#      x y z
#    x 1.510360 0.000000 0.000000 
#    y 0.000000 1.543040 0.000000 
#    z 0.000000 0.000000 1.533370 
# 
# From -- ./inp_files/45996.got.cif
#   From: 2010.05.17/outbox.cif.g08.bks.cpg/sg67_23_cif.got.tgz:45996.got - 2010.06.03 18:28:57.
