data_PCOD9502229
_publ_section_title
;
Structure prediction by ZEFSAII (Michael W. Deem and Ramdas Pophale) SiO2 
 PCOD9502229
Probable space group: C M M A
;
_chemical_formula_sum "Si O2"
_cell_formula_units_Z 112
_cell_length_a 14.807349
_cell_length_b 14.114629
_cell_length_c 26.386252
_cell_angle_alpha 90.000000
_cell_angle_beta 90.000000
_cell_angle_gamma 90.000000
_cell_volume 5514.732938
_symmetry_space_group_name_H-M "C M M A"
_symmetry_group_IT_number 67
_symmetry_cell_setting 'orthorhombic'
loop_
_space_group_symop_operation_xyz
x,y,z
-x,1/2-y,z
x,-y,-z
-x,1/2+y,-z
-x,-y,-z
x,1/2+y,-z
-x,y,z
x,1/2-y,z
1/2+x,1/2+y,z
1/2-x,-y,z
1/2+x,1/2-y,-z
1/2-x,y,-z
1/2-x,1/2-y,-z
1/2+x,y,-z
1/2-x,1/2+y,z
1/2+x,-y,z
loop_
_atom_site_type_symbol
_atom_site_label
_atom_site_fract_x
_atom_site_fract_y
_atom_site_fract_z
Si Si1 0.610629 0.555246 0.425095
Si Si2 0.642513 0.014033 0.775014
Si Si3 0.855340 0.362101 0.851945
Si Si4 0.000000 0.135073 0.049140
Si Si5 0.354865 0.137532 0.869027
Si Si6 0.389620 0.856517 0.532813
Si Si7 0.000000 0.635355 0.066319
Si Si8 0.892802 0.356760 0.320380
O O1 0.500000 0.554580 0.424259
O O2 0.636061 0.613778 0.475447
O O3 0.639145 0.445562 0.432537
O O4 0.643567 0.604730 0.373949
O O5 0.611675 0.087335 0.818319
O O6 0.618361 0.062661 0.722270
O O7 0.750000 0.000000 0.772756
O O8 0.614070 0.914621 0.800529
O O9 0.863604 0.250000 0.844661
O O10 0.752048 0.382955 0.867918
O O11 0.915179 0.392132 0.899535
O O12 0.088148 0.108048 0.081875
O O13 0.000000 0.250000 0.047189
O O14 0.000000 0.102191 0.991278
O O15 0.365872 0.250000 0.864172
O O16 0.500000 0.855150 0.534181
O O17 0.358688 0.750000 0.545297
O O18 0.000000 0.750000 0.064221
O O19 0.857826 0.250000 0.307441
O O20 0.000000 0.346904 0.326831
#
# Coordination Sequence:
#
# PCOD9502229 Si02
#       8
#    16  16  16   8  16  16   8  16
#     4   8  14  24  38  65 103 137 172 215 267 323
#     4  10  21  36  53  73  98 133 176 213 256 316
#     4   9  19  35  53  71  99 139 180 218 260 317
#     4   9  18  31  53  83 108 131 167 214 271 330
#     4   9  18  33  52  76 104 133 168 218 272 321
#     4   8  12  20  38  61  94 142 181 210 255 320
#     4   9  18  33  53  77 102 137 179 212 257 323
#     4  10  20  32  51  80 108 132 166 221 279 321
#
# _framework density 20.309234
#
# number of rings (size 3 to 8) (size 9 to 14) (size 15 to 20)
#    0.000    3.000    0.000    1.714    2.000    2.857 
#    0.000    5.000    0.000    3.429    0.000    2.000 
#    0.000    5.714    0.000    0.000    0.000    0.000 
#
# Total GULP energy -312024.419100 kJ/mol
# GULP energy per Si atom -5571.864627 kJ/mol
# Density = 2.026301 g / cm^3
# Si number density = 20.309234 Si / 1000 Ang^3
#
#
#
# Elastic Constant Matrix: (Units=GPa)
#
#
# Indices 1 2 3 4 5 6 
#
# 1 46.1531 24.2418 24.2426 0.0000 0.0000 0.0000
# 2 24.2418 140.7038 49.8354 0.0000 0.0000 0.0000
# 3 24.2426 49.8354 124.0393 0.0000 0.0000 0.0000
# 4 0.0000 0.0000 0.0000 23.5220 0.0000 0.0000
# 5 0.0000 0.0000 0.0000 0.0000 -50.6333 0.0000
# 6 0.0000 0.0000 0.0000 0.0000 0.0000 6.1973
#
#
#
# Elastic Compliance Matrix: (Units=1/GPa)
#
#
# Indices 1 2 3 4 5 6 
#
# 1 0.025206 -0.003029 -0.003709 0.000000 0.000000 0.000000
# 2 -0.003029 0.008650 -0.002883 0.000000 0.000000 0.000000
# 3 -0.003709 -0.002883 0.009945 0.000000 0.000000 0.000000
# 4 0.000000 0.000000 0.000000 0.042513 0.000000 0.000000
# 5 0.000000 0.000000 0.000000 0.000000 -0.019750 0.000000
# 6 0.000000 0.000000 0.000000 0.000000 0.000000 0.161361
#
#
# Mechanical properties :
#
#
# Convention : Reuss Voigt Hill
#
# Bulk Modulus (GPa) = 40.71928 56.39286 48.55607
# Shear Modulus (GPa) = 19.58047 9.98896 14.78472
#
# Velocity S-wave (km/s) = 3.10839 2.22016 2.70104
# Velocity P-wave (km/s) = 5.74247 5.86511 5.80411
#
# Compressibility (1/GPa) = 0.02455839
#
# Stress axis : x y z
#
# Youngs Moduli (GPa) = 39.67246 115.60345 100.54874
#
# Poissons Ratio (x) = 0.35016 0.37298
# Poissons Ratio (y) = 0.12017 0.28993
# Poissons Ratio (z) = 0.14716 0.33334
#
# Static dielectric constant tensor:
#      x y z
#    x 1.757360 0.000000 0.000000 
#    y 0.000000 1.772260 0.000000 
#    z 0.000000 0.000000 1.698230 
# 
# From -- ./inp_files/44393.got.cif
#   From: 2010.05.17/outbox.cif.g08.bks.cpg/sg67_23_cif.got.tgz:44393.got - 2010.06.03 18:28:57.
