data_PCOD9502746
_publ_section_title
;
Structure prediction by ZEFSAII (Michael W. Deem and Ramdas Pophale) SiO2 
 PCOD9502746
Probable space group: C M M A
;
_chemical_formula_sum "Si O2"
_cell_formula_units_Z 88
_cell_length_a 15.059624
_cell_length_b 21.088122
_cell_length_c 13.185130
_cell_angle_alpha 90.000000
_cell_angle_beta 90.000000
_cell_angle_gamma 90.000000
_cell_volume 4187.322882
_symmetry_space_group_name_H-M "C M M A"
_symmetry_group_IT_number 67
_symmetry_cell_setting 'orthorhombic'
loop_
_space_group_symop_operation_xyz
x,y,z
-x,1/2-y,z
x,-y,-z
-x,1/2+y,-z
-x,-y,-z
x,1/2+y,-z
-x,y,z
x,1/2-y,z
1/2+x,1/2+y,z
1/2-x,-y,z
1/2+x,1/2-y,-z
1/2-x,y,-z
1/2-x,1/2-y,-z
1/2+x,y,-z
1/2-x,1/2+y,z
1/2+x,-y,z
loop_
_atom_site_type_symbol
_atom_site_label
_atom_site_fract_x
_atom_site_fract_y
_atom_site_fract_z
Si Si1 0.629988 0.322566 0.589195
Si Si2 0.391513 0.322670 0.948101
Si Si3 0.606715 0.323378 0.175604
Si Si4 0.250000 0.500000 0.673003
Si Si5 0.899959 0.583494 0.770405
Si Si6 0.676067 0.371051 0.383421
O O1 0.601967 0.250000 0.598899
O O2 0.593552 0.368758 0.674974
O O3 0.614238 0.349098 0.475810
O O4 0.736055 0.328038 0.607044
O O5 0.500000 0.321314 0.947317
O O6 0.362673 0.250000 0.926233
O O7 0.366307 0.373418 0.863679
O O8 0.362376 0.340406 0.062071
O O9 0.500000 0.326086 0.173978
O O10 0.632285 0.250000 0.192641
O O11 0.639410 0.362868 0.270749
O O12 0.171723 0.531025 0.739975
O O13 0.292414 0.556578 0.607750
O O14 0.000000 0.559168 0.791927
#
# Coordination Sequence:
#
# PCOD9502746 Si02
#       6
#    16  16  16   8  16  16
#     4  10  20  34  57  85 110 142 181 231 299 352
#     4   8  15  31  56  84 113 143 176 225 293 354
#     4   9  17  31  55  84 111 143 183 231 291 350
#     4  10  24  41  57  80 112 156 207 235 266 332
#     4  10  21  38  59  83 114 150 189 235 283 334
#     4  10  20  36  53  75 113 154 191 236 280 330
#
# _framework density 21.015813000000001
#
# number of rings (size 3 to 8) (size 9 to 14) (size 15 to 20)
#    0.000    2.545    0.000    3.818    0.000    8.364 
#    0.000    6.364    0.000   13.091    0.000    0.000 
#    0.000    0.000    0.000    0.000    0.000    0.000 
#
# Total GULP energy -245634.523215 kJ/mol
# GULP energy per Si atom -5582.602800 kJ/mol
# Density = 2.096798 g / cm^3
# Si number density = 21.015813 Si / 1000 Ang^3
#
#
#
# Elastic Constant Matrix: (Units=GPa)
#
#
# Indices 1 2 3 4 5 6 
#
# 1 50.1500 39.5395 33.4338 0.0000 0.0000 0.0000
# 2 39.5395 118.3480 56.9042 0.0000 0.0000 0.0000
# 3 33.4338 56.9042 128.0933 0.0000 0.0000 0.0000
# 4 0.0000 0.0000 0.0000 382.4983 0.0000 0.0000
# 5 0.0000 0.0000 0.0000 0.0000 26.4948 0.0000
# 6 0.0000 0.0000 0.0000 0.0000 0.0000 1.0440
#
#
#
# Elastic Compliance Matrix: (Units=1/GPa)
#
#
# Indices 1 2 3 4 5 6 
#
# 1 0.028674 -0.007606 -0.004105 0.000000 0.000000 0.000000
# 2 -0.007606 0.012762 -0.003684 0.000000 0.000000 0.000000
# 3 -0.004105 -0.003684 0.010515 0.000000 0.000000 0.000000
# 4 0.000000 0.000000 0.000000 0.002614 0.000000 0.000000
# 5 0.000000 0.000000 0.000000 0.000000 0.037743 0.000000
# 6 0.000000 0.000000 0.000000 0.000000 0.000000 0.957878
#
#
# Mechanical properties :
#
#
# Convention : Reuss Voigt Hill
#
# Bulk Modulus (GPa) = 47.25880 61.81626 54.53753
# Shear Modulus (GPa) = 4.59546 93.12168 48.85857
#
# Velocity S-wave (km/s) = 1.48034 6.66382 4.82690
# Velocity P-wave (km/s) = 5.04559 9.41736 7.55462
#
# Compressibility (1/GPa) = 0.02116008
#
# Stress axis : x y z
#
# Youngs Moduli (GPa) = 34.87515 78.35647 95.10163
#
# Poissons Ratio (x) = 0.59596 0.39043
# Poissons Ratio (y) = 0.26525 0.35038
# Poissons Ratio (z) = 0.14318 0.28869
#
# Static dielectric constant tensor:
#      x y z
#    x 1.843210 0.000000 0.000000 
#    y 0.000000 1.727780 0.000000 
#    z 0.000000 0.000000 1.768900 
# 
# From -- ./inp_files/19456.got.cif
#   From: 2010.05.17/outbox.cif.g08.bks.cpg/sg67_10_cif.got.tgz:19456.got - 2010.06.03 18:28:57.
