data_PCOD9502823
_publ_section_title
;
Structure prediction by ZEFSAII (Michael W. Deem and Ramdas Pophale) SiO2 
 PCOD9502823
Probable space group: C M M A
;
_chemical_formula_sum "Si O2"
_cell_formula_units_Z 88
_cell_length_a 14.422868
_cell_length_b 20.129957
_cell_length_c 12.474122
_cell_angle_alpha 90.000000
_cell_angle_beta 90.000000
_cell_angle_gamma 90.000000
_cell_volume 3621.633204
_symmetry_space_group_name_H-M "C M M A"
_symmetry_group_IT_number 67
_symmetry_cell_setting 'orthorhombic'
loop_
_space_group_symop_operation_xyz
x,y,z
-x,1/2-y,z
x,-y,-z
-x,1/2+y,-z
-x,-y,-z
x,1/2+y,-z
-x,y,z
x,1/2-y,z
1/2+x,1/2+y,z
1/2-x,-y,z
1/2+x,1/2-y,-z
1/2-x,y,-z
1/2-x,1/2-y,-z
1/2+x,y,-z
1/2-x,1/2+y,z
1/2+x,-y,z
loop_
_atom_site_type_symbol
_atom_site_label
_atom_site_fract_x
_atom_site_fract_y
_atom_site_fract_z
Si Si1 0.403476 0.750000 0.356893
Si Si2 0.111092 0.390188 0.631190
Si Si3 0.106707 0.544302 0.144728
Si Si4 0.710632 0.250000 0.375411
Si Si5 0.250000 0.875775 0.000000
Si Si6 0.109337 0.110263 0.162123
Si Si7 0.603173 0.397916 0.595418
O O1 0.500000 0.750000 0.293001
O O2 0.303894 0.750000 0.303685
O O3 0.406322 0.818089 0.422553
O O4 0.125998 0.438700 0.730824
O O5 0.156611 0.317915 0.647201
O O6 0.144251 0.420127 0.517217
O O7 0.000000 0.382046 0.621693
O O8 0.111842 0.466144 0.123334
O O9 0.000000 0.565805 0.122027
O O10 0.182900 0.582813 0.077899
O O11 0.750000 0.250000 0.500000
O O12 0.174904 0.846491 0.915173
O O13 0.144103 0.102874 0.285522
O O14 0.000000 0.129388 0.163175
O O15 0.500000 0.428278 0.607538
#
# Coordination Sequence:
#
# PCOD9502823 Si02
#       7
#     8  16  16   8   8  16  16
#     4  10  20  35  54  83 117 152 192 230 271 328
#     4  10  21  37  57  86 121 150 185 232 282 341
#     4  10  22  38  58  85 115 149 189 235 288 341
#     4  12  21  31  58  85 112 156 191 227 271 334
#     4  12  23  38  60  81 110 149 196 246 281 332
#     4  10  21  37  59  85 112 149 191 235 288 339
#     4   9  18  34  57  84 117 150 185 230 279 337
#
# _framework density 24.298428999999999
#
# number of rings (size 3 to 8) (size 9 to 14) (size 15 to 20)
#    0.000    1.818    1.818    2.455    2.545    2.182 
#    0.000    3.636    0.000    4.364    0.000    5.091 
#    0.000    0.000    0.000    0.000    0.000    0.000 
#
# Total GULP energy -245391.310889 kJ/mol
# GULP energy per Si atom -5577.075247 kJ/mol
# Density = 2.424312 g / cm^3
# Si number density = 24.298429 Si / 1000 Ang^3
#
#
#
# Elastic Constant Matrix: (Units=GPa)
#
#
# Indices 1 2 3 4 5 6 
#
# 1 140.2681 7.3682 48.1436 0.0000 0.0000 0.0000
# 2 7.3682 47.7348 -4.1073 0.0000 0.0000 0.0000
# 3 48.1436 -4.1073 152.4603 0.0000 0.0000 0.0000
# 4 0.0000 0.0000 0.0000 25.0647 0.0000 0.0000
# 5 0.0000 0.0000 0.0000 0.0000 13.6219 0.0000
# 6 0.0000 0.0000 0.0000 0.0000 0.0000 9.1697
#
#
#
# Elastic Compliance Matrix: (Units=1/GPa)
#
#
# Indices 1 2 3 4 5 6 
#
# 1 0.008098 -0.001473 -0.002597 0.000000 0.000000 0.000000
# 2 -0.001473 0.021266 0.001038 0.000000 0.000000 0.000000
# 3 -0.002597 0.001038 0.007407 0.000000 0.000000 0.000000
# 4 0.000000 0.000000 0.000000 0.039897 0.000000 0.000000
# 5 0.000000 0.000000 0.000000 0.000000 0.073411 0.000000
# 6 0.000000 0.000000 0.000000 0.000000 0.000000 0.109055
#
#
# Mechanical properties :
#
#
# Convention : Reuss Voigt Hill
#
# Bulk Modulus (GPa) = 32.56618 49.25245 40.90932
# Shear Modulus (GPa) = 18.15321 28.84183 23.49752
#
# Velocity S-wave (km/s) = 2.73627 3.44900 3.11310
# Velocity P-wave (km/s) = 4.83886 6.01453 5.45844
#
# Compressibility (1/GPa) = 0.03070670
#
# Stress axis : x y z
#
# Youngs Moduli (GPa) = 123.48880 47.02375 135.00604
#
# Poissons Ratio (x) = 0.06928 0.35059
# Poissons Ratio (y) = 0.18195 -0.14016
# Poissons Ratio (z) = 0.32068 -0.04882
#
# Static dielectric constant tensor:
#      x y z
#    x 2.024320 0.000000 0.000000 
#    y 0.000000 1.905920 0.000000 
#    z 0.000000 0.000000 2.045850 
# 
# From -- ./inp_files/18178.got.cif
#   From: 2010.05.17/outbox.cif.g08.bks.cpg/sg67_10_cif.got.tgz:18178.got - 2010.06.03 18:28:57.
