data_PCOD9502953
_publ_section_title
;
Structure prediction by ZEFSAII (Michael W. Deem and Ramdas Pophale) SiO2 
 PCOD9502953
Probable space group: C M M A
;
_chemical_formula_sum "Si O2"
_cell_formula_units_Z 88
_cell_length_a 10.347413
_cell_length_b 26.453614
_cell_length_c 17.758010
_cell_angle_alpha 90.000000
_cell_angle_beta 90.000000
_cell_angle_gamma 90.000000
_cell_volume 4860.837381
_symmetry_space_group_name_H-M "C M M A"
_symmetry_group_IT_number 67
_symmetry_cell_setting 'orthorhombic'
loop_
_space_group_symop_operation_xyz
x,y,z
-x,1/2-y,z
x,-y,-z
-x,1/2+y,-z
-x,-y,-z
x,1/2+y,-z
-x,y,z
x,1/2-y,z
1/2+x,1/2+y,z
1/2-x,-y,z
1/2+x,1/2-y,-z
1/2-x,y,-z
1/2-x,1/2-y,-z
1/2+x,y,-z
1/2-x,1/2+y,z
1/2+x,-y,z
loop_
_atom_site_type_symbol
_atom_site_label
_atom_site_fract_x
_atom_site_fract_y
_atom_site_fract_z
Si Si1 0.847761 0.637008 0.071087
Si Si2 0.500000 0.147279 0.421058
Si Si3 0.000000 0.947661 0.319618
Si Si4 0.500000 0.061992 0.705811
Si Si5 0.262670 0.192606 0.329016
Si Si6 0.000000 0.840613 0.599374
Si Si7 0.263257 0.595909 0.774720
Si Si8 0.355460 0.750000 0.935615
O O1 0.800625 0.601258 0.138291
O O2 0.842046 0.695250 0.102035
O O3 0.000000 0.627832 0.052193
O O4 0.750000 0.633403 0.000000
O O5 0.500000 0.089255 0.391779
O O6 0.375878 0.174371 0.384626
O O7 0.500000 0.151745 0.510305
O O8 0.124984 0.932990 0.270495
O O9 0.000000 0.007227 0.332397
O O10 0.500000 0.105546 0.642522
O O11 0.626942 0.070031 0.756685
O O12 0.284915 0.250000 0.303971
O O13 0.127671 0.188007 0.372978
O O14 0.258214 0.152069 0.261727
O O15 0.500000 0.750000 0.969193
O O16 0.250000 0.750000 0.000000
#
# Coordination Sequence:
#
# PCOD9502953 Si02
#       8
#    16   8   8   8  16   8  16   8
#     4  10  20  35  57  83 116 150 186 231 278 327
#     4  10  21  35  56  86 111 141 193 236 274 336
#     4  10  20  40  60  82 106 140 191 240 289 336
#     4  10  22  38  60  80 108 148 185 236 295 332
#     4  10  21  35  54  81 116 156 189 221 270 330
#     4  10  21  37  54  82 117 145 187 234 276 336
#     4  10  21  37  57  84 110 146 192 231 275 338
#     4   8  16  30  48  76 108 144 177 211 262 318
#
# _framework density 18.103876
#
# number of rings (size 3 to 8) (size 9 to 14) (size 15 to 20)
#    0.000    2.182    0.909    1.636    2.545    2.545 
#    0.000    0.000    0.000    9.818    0.000    0.000 
#    0.000    0.000    0.000    0.000    0.000    0.000 
#
# Total GULP energy -245354.104640 kJ/mol
# GULP energy per Si atom -5576.229651 kJ/mol
# Density = 1.806267 g / cm^3
# Si number density = 18.103876 Si / 1000 Ang^3
#
#
#
# Elastic Constant Matrix: (Units=GPa)
#
#
# Indices 1 2 3 4 5 6 
#
# 1 137.7534 12.9583 27.6421 0.0000 0.0000 0.0000
# 2 12.9583 87.6545 -4.1322 0.0000 0.0000 0.0000
# 3 27.6421 -4.1322 63.6093 0.0000 0.0000 0.0000
# 4 0.0000 0.0000 0.0000 10.2366 0.0000 0.0000
# 5 0.0000 0.0000 0.0000 0.0000 -131.5574 0.0000
# 6 0.0000 0.0000 0.0000 0.0000 0.0000 -12.4477
#
#
#
# Elastic Compliance Matrix: (Units=1/GPa)
#
#
# Indices 1 2 3 4 5 6 
#
# 1 0.008114 -0.001370 -0.003615 0.000000 0.000000 0.000000
# 2 -0.001370 0.011675 0.001354 0.000000 0.000000 0.000000
# 3 -0.003615 0.001354 0.017380 0.000000 0.000000 0.000000
# 4 0.000000 0.000000 0.000000 0.097689 0.000000 0.000000
# 5 0.000000 0.000000 0.000000 0.000000 -0.007601 0.000000
# 6 0.000000 0.000000 0.000000 0.000000 0.000000 -0.080336
#
#
# Mechanical properties :
#
#
# Convention : Reuss Voigt Hill
#
# Bulk Modulus (GPa) = 33.43795 40.21707 36.82751
# Shear Modulus (GPa) = 77.94250 -9.91709 34.01270
#
# Velocity S-wave (km/s) = 6.56859 -2.34303 4.33916
# Velocity P-wave (km/s) = 8.72002 3.86564 6.74469
#
# Compressibility (1/GPa) = 0.02990614
#
# Stress axis : x y z
#
# Youngs Moduli (GPa) = 123.25020 85.65489 57.53809
#
# Poissons Ratio (x) = 0.11734 0.20799
# Poissons Ratio (y) = 0.16884 -0.07789
# Poissons Ratio (z) = 0.44553 -0.11595
#
# Static dielectric constant tensor:
#      x y z
#    x 1.614230 0.000000 0.000000 
#    y 0.000000 1.630850 0.000000 
#    z 0.000000 0.000000 1.574420 
# 
# From -- ./inp_files/26325.got.cif
#   From: 2010.05.17/outbox.cif.g08.bks.cpg/sg67_14_cif.got.tgz:26325.got - 2010.06.03 18:28:57.
