data_PCOD9502797
_publ_section_title
;
Structure prediction by ZEFSAII (Michael W. Deem and Ramdas Pophale) SiO2 
 PCOD9502797
Probable space group: C M M A
;
_chemical_formula_sum "Si O2"
_cell_formula_units_Z 100
_cell_length_a 7.664843
_cell_length_b 32.461345
_cell_length_c 17.808236
_cell_angle_alpha 90.000000
_cell_angle_beta 90.000000
_cell_angle_gamma 90.000000
_cell_volume 4430.887020
_symmetry_space_group_name_H-M "C M M A"
_symmetry_group_IT_number 67
_symmetry_cell_setting 'orthorhombic'
loop_
_space_group_symop_operation_xyz
x,y,z
-x,1/2-y,z
x,-y,-z
-x,1/2+y,-z
-x,-y,-z
x,1/2+y,-z
-x,y,z
x,1/2-y,z
1/2+x,1/2+y,z
1/2-x,-y,z
1/2+x,1/2-y,-z
1/2-x,y,-z
1/2-x,1/2-y,-z
1/2+x,y,-z
1/2-x,1/2+y,z
1/2+x,-y,z
loop_
_atom_site_type_symbol
_atom_site_label
_atom_site_fract_x
_atom_site_fract_y
_atom_site_fract_z
Si Si1 0.500000 0.250000 0.227717
Si Si2 0.791418 0.865156 0.416099
Si Si3 0.708775 0.454141 0.798017
Si Si4 0.209824 0.115461 0.087984
Si Si5 0.802043 0.453531 0.624295
Si Si6 0.789755 0.294124 0.088922
Si Si7 0.807766 0.205799 0.303395
O O1 0.653497 0.213999 0.245500
O O2 0.750000 0.851080 0.500000
O O3 0.716872 0.911656 0.406343
O O4 0.718124 0.833217 0.355691
O O5 0.000000 0.865578 0.405173
O O6 0.500000 0.450324 0.789287
O O7 0.750000 0.500000 0.826251
O O8 0.773154 0.419974 0.856286
O O9 0.787462 0.450536 0.714780
O O10 0.272975 0.160787 0.112674
O O11 0.000000 0.116133 0.093412
O O12 0.250000 0.108421 0.000000
O O13 0.750000 0.500000 0.603432
O O14 0.000000 0.450916 0.599488
O O15 0.707904 0.250000 0.114151
O O16 0.000000 0.292241 0.097822
O O17 0.750000 0.294679 0.000000
O O18 0.805459 0.250000 0.347490
O O19 0.000000 0.202765 0.267280
#
# Coordination Sequence:
#
# PCOD9502797 Si02
#       7
#     4  16  16  16  16  16  16
#     4   8  14  32  50  74 118 142 188 220 266 320
#     4  11  22  36  54  81 110 138 174 223 272 323
#     4  10  20  35  54  73  98 131 172 211 255 310
#     4   9  18  30  47  75 104 132 164 208 254 299
#     4  10  22  39  59  78 102 135 176 218 265 318
#     4   8  13  23  40  63  93 126 160 194 238 287
#     4   9  17  31  52  78 110 149 182 221 273 325
#
# _framework density 22.568845
#
# number of rings (size 3 to 8) (size 9 to 14) (size 15 to 20)
#    0.480    2.080    0.800    2.400    0.000    4.800 
#    0.000    3.200    0.000    0.960    0.000    2.240 
#    0.000    0.000    0.000    0.000    0.000    0.000 
#
# Total GULP energy -278381.514707 kJ/mol
# GULP energy per Si atom -5567.630294 kJ/mol
# Density = 2.251748 g / cm^3
# Si number density = 22.568845 Si / 1000 Ang^3
#
#
#
# Elastic Constant Matrix: (Units=GPa)
#
#
# Indices 1 2 3 4 5 6 
#
# 1 68.1341 0.3959 -8.8024 0.0000 0.0000 0.0000
# 2 0.3959 134.9948 44.9056 0.0000 0.0000 0.0000
# 3 -8.8024 44.9056 69.2278 0.0000 0.0000 0.0000
# 4 0.0000 0.0000 0.0000 7.8035 0.0000 0.0000
# 5 0.0000 0.0000 0.0000 0.0000 80.4885 0.0000
# 6 0.0000 0.0000 0.0000 0.0000 0.0000 -10.0752
#
#
#
# Elastic Compliance Matrix: (Units=1/GPa)
#
#
# Indices 1 2 3 4 5 6 
#
# 1 0.015001 -0.000865 0.002469 0.000000 0.000000 0.000000
# 2 -0.000865 0.009496 -0.006270 0.000000 0.000000 0.000000
# 3 0.002469 -0.006270 0.018826 0.000000 0.000000 0.000000
# 4 0.000000 0.000000 0.000000 0.128148 0.000000 0.000000
# 5 0.000000 0.000000 0.000000 0.000000 0.012424 0.000000
# 6 0.000000 0.000000 0.000000 0.000000 0.000000 -0.099253
#
#
# Mechanical properties :
#
#
# Convention : Reuss Voigt Hill
#
# Bulk Modulus (GPa) = 29.42027 38.37277 33.89652
# Shear Modulus (GPa) = 47.48190 31.36719 39.42454
#
# Velocity S-wave (km/s) = 4.59177 3.73211 4.18408
# Velocity P-wave (km/s) = 6.41690 5.96749 6.19627
#
# Compressibility (1/GPa) = 0.03399017
#
# Stress axis : x y z
#
# Youngs Moduli (GPa) = 66.66270 105.30984 53.11853
#
# Poissons Ratio (x) = 0.09111 -0.13113
# Poissons Ratio (y) = 0.05767 0.33303
# Poissons Ratio (z) = -0.16456 0.66025
#
# Static dielectric constant tensor:
#      x y z
#    x 1.811920 0.000000 0.000000 
#    y 0.000000 1.881010 0.000000 
#    z 0.000000 0.000000 1.819410 
# 
# From -- ./inp_files/37316.got.cif
#   From: 2010.05.17/outbox.cif.g08.bks.cpg/sg67_19_cif.got.tgz:37316.got - 2010.06.03 18:28:57.
