data_PCOD9502263
_publ_section_title
;
Structure prediction by ZEFSAII (Michael W. Deem and Ramdas Pophale) SiO2 
 PCOD9502263
Probable space group: C M M A
;
_chemical_formula_sum "Si O2"
_cell_formula_units_Z 112
_cell_length_a 14.480335
_cell_length_b 27.293802
_cell_length_c 14.751707
_cell_angle_alpha 90.000000
_cell_angle_beta 90.000000
_cell_angle_gamma 90.000000
_cell_volume 5830.219743
_symmetry_space_group_name_H-M "C M M A"
_symmetry_group_IT_number 67
_symmetry_cell_setting 'orthorhombic'
loop_
_space_group_symop_operation_xyz
x,y,z
-x,1/2-y,z
x,-y,-z
-x,1/2+y,-z
-x,-y,-z
x,1/2+y,-z
-x,y,z
x,1/2-y,z
1/2+x,1/2+y,z
1/2-x,-y,z
1/2+x,1/2-y,-z
1/2-x,y,-z
1/2-x,1/2-y,-z
1/2+x,y,-z
1/2-x,1/2+y,z
1/2+x,-y,z
loop_
_atom_site_type_symbol
_atom_site_label
_atom_site_fract_x
_atom_site_fract_y
_atom_site_fract_z
Si Si1 0.111932 0.542622 0.217909
Si Si2 0.606283 0.049219 0.883658
Si Si3 0.150882 0.147186 0.031308
Si Si4 0.198317 0.806281 0.786194
Si Si5 0.103506 0.154114 0.831852
Si Si6 0.112898 0.486791 0.399024
Si Si7 0.106449 0.108640 0.306845
O O1 0.143085 0.504705 0.139466
O O2 0.133499 0.598663 0.196056
O O3 0.143233 0.522522 0.316383
O O4 0.000000 0.539201 0.217304
O O5 0.500000 0.045055 0.915067
O O6 0.652595 0.089187 0.947487
O O7 0.606049 0.076420 0.785919
O O8 0.137986 0.175618 0.125789
O O9 0.250000 0.164551 0.000000
O O10 0.094045 0.155816 0.940849
O O11 0.178840 0.750000 0.767646
O O12 0.308154 0.813487 0.804354
O O13 0.167570 0.843882 0.708580
O O14 0.000000 0.164334 0.794173
O O15 0.141339 0.500000 0.500000
O O16 0.140588 0.430993 0.378714
O O17 0.000000 0.487631 0.395740
O O18 0.000000 0.122245 0.325083
#
# Coordination Sequence:
#
# PCOD9502263 Si02
#       7
#    16  16  16  16  16  16  16
#     4   8  15  27  44  68  97 128 159 193 239 297
#     4   8  13  25  43  61  89 125 155 187 233 293
#     4   9  18  30  43  63  89 120 162 211 256 302
#     4  10  21  36  51  68  94 129 170 217 261 294
#     4  10  20  33  48  67  94 129 171 216 257 300
#     4   8  13  25  50  82 111 135 158 190 238 299
#     4   8  15  29  49  75 104 130 158 195 243 299
#
# _framework density 19.210253000000002
#
# number of rings (size 3 to 8) (size 9 to 14) (size 15 to 20)
#    0.000    3.286    0.000    2.143    0.000    4.286 
#    0.000   15.714    0.000    1.714    0.000    2.000 
#    0.000    5.714    0.000    0.000    0.000    0.000 
#
# Total GULP energy -311811.466837 kJ/mol
# GULP energy per Si atom -5568.061908 kJ/mol
# Density = 1.916653 g / cm^3
# Si number density = 19.210253 Si / 1000 Ang^3
#
#
#
# Elastic Constant Matrix: (Units=GPa)
#
#
# Indices 1 2 3 4 5 6 
#
# 1 55.0625 26.0064 20.7600 0.0000 0.0000 0.0000
# 2 26.0064 97.1008 32.1601 0.0000 0.0000 0.0000
# 3 20.7600 32.1601 42.7237 0.0000 0.0000 0.0000
# 4 0.0000 0.0000 0.0000 12.7009 0.0000 0.0000
# 5 0.0000 0.0000 0.0000 0.0000 3.9546 0.0000
# 6 0.0000 0.0000 0.0000 0.0000 0.0000 25.4202
#
#
#
# Elastic Compliance Matrix: (Units=1/GPa)
#
#
# Indices 1 2 3 4 5 6 
#
# 1 0.022990 -0.003274 -0.008707 0.000000 0.000000 0.000000
# 2 -0.003274 0.014185 -0.009087 0.000000 0.000000 0.000000
# 3 -0.008707 -0.009087 0.034477 0.000000 0.000000 0.000000
# 4 0.000000 0.000000 0.000000 0.078734 0.000000 0.000000
# 5 0.000000 0.000000 0.000000 0.000000 0.252870 0.000000
# 6 0.000000 0.000000 0.000000 0.000000 0.000000 0.039339
#
#
# Mechanical properties :
#
#
# Convention : Reuss Voigt Hill
#
# Bulk Modulus (GPa) = 33.87864 39.19333 36.53599
# Shear Modulus (GPa) = 10.10981 16.14585 13.12783
#
# Velocity S-wave (km/s) = 2.29655 2.90225 2.61698
# Velocity P-wave (km/s) = 4.97053 5.62826 5.30959
#
# Compressibility (1/GPa) = 0.02951712
#
# Stress axis : x y z
#
# Youngs Moduli (GPa) = 43.49704 70.49707 29.00472
#
# Poissons Ratio (x) = 0.23078 0.25254
# Poissons Ratio (y) = 0.14239 0.26356
# Poissons Ratio (z) = 0.37873 0.64060
#
# Static dielectric constant tensor:
#      x y z
#    x 1.786360 0.000000 0.000000 
#    y 0.000000 1.667740 0.000000 
#    z 0.000000 0.000000 1.684750 
# 
# From -- ./inp_files/27673.got.cif
#   From: 2010.05.17/outbox.cif.g08.bks.cpg/sg67_14_cif.got.tgz:27673.got - 2010.06.03 18:28:57.
