data_PCOD9502272
_publ_section_title
;
Structure prediction by ZEFSAII (Michael W. Deem and Ramdas Pophale) SiO2 
 PCOD9502272
Probable space group: C M M A
;
_chemical_formula_sum "Si O2"
_cell_formula_units_Z 96
_cell_length_a 7.694242
_cell_length_b 24.414087
_cell_length_c 27.100437
_cell_angle_alpha 90.000000
_cell_angle_beta 90.000000
_cell_angle_gamma 90.000000
_cell_volume 5090.760006
_symmetry_space_group_name_H-M "C M M A"
_symmetry_group_IT_number 67
_symmetry_cell_setting 'orthorhombic'
loop_
_space_group_symop_operation_xyz
x,y,z
-x,1/2-y,z
x,-y,-z
-x,1/2+y,-z
-x,-y,-z
x,1/2+y,-z
-x,y,z
x,1/2-y,z
1/2+x,1/2+y,z
1/2-x,-y,z
1/2+x,1/2-y,-z
1/2-x,y,-z
1/2-x,1/2-y,-z
1/2+x,y,-z
1/2-x,1/2+y,z
1/2+x,-y,z
loop_
_atom_site_type_symbol
_atom_site_label
_atom_site_fract_x
_atom_site_fract_y
_atom_site_fract_z
Si Si1 0.291287 0.436265 0.147956
Si Si2 0.211945 0.750000 0.210351
Si Si3 0.295132 0.564514 0.553507
Si Si4 0.213108 0.631061 0.243860
Si Si5 0.290346 0.935469 0.661024
Si Si6 0.787522 0.250000 0.904813
Si Si7 0.291332 0.866666 0.944230
O O1 0.500000 0.430894 0.147913
O O2 0.250000 0.500000 0.150593
O O3 0.229376 0.403555 0.196124
O O4 0.225707 0.408005 0.097776
O O5 0.267627 0.693906 0.236471
O O6 0.264229 0.750000 0.152728
O O7 0.000000 0.750000 0.210148
O O8 0.500000 0.569293 0.556860
O O9 0.250000 0.500000 0.551463
O O10 0.250000 0.588962 0.500000
O O11 0.223173 0.582856 0.606760
O O12 0.273128 0.601224 0.293651
O O13 0.000000 0.630664 0.244222
O O14 0.500000 0.931179 0.660806
O O15 0.250000 0.000000 0.667945
O O16 0.727957 0.305352 0.931502
O O17 0.000000 0.250000 0.905361
O O18 0.500000 0.865187 0.940151
O O19 0.250000 0.882393 0.000000
#
# Coordination Sequence:
#
# PCOD9502272 Si02
#       7
#    16   8  16  16  16   8  16
#     4  10  20  33  49  68  91 119 149 179 215 264
#     4   9  14  25  49  72  89 111 141 182 227 264
#     4   9  15  23  36  56  85 118 150 182 214 252
#     4   9  16  28  46  69  92 114 144 183 225 265
#     4   9  17  27  41  65  94 120 148 182 219 261
#     4   9  15  29  50  72  92 111 141 182 225 266
#     4  10  20  33  50  71  92 115 146 182 220 264
#
# _framework density 18.857693999999999
#
# number of rings (size 3 to 8) (size 9 to 14) (size 15 to 20)
#    0.000    2.667    1.667    1.750    0.000    1.667 
#    0.000    1.667    0.000    0.000    0.000    2.917 
#    0.000    0.000    0.000    0.000    0.000    0.000 
#
# Total GULP energy -267601.132936 kJ/mol
# GULP energy per Si atom -5575.023603 kJ/mol
# Density = 1.881477 g / cm^3
# Si number density = 18.857694 Si / 1000 Ang^3
#
#
#
# Elastic Constant Matrix: (Units=GPa)
#
#
# Indices 1 2 3 4 5 6 
#
# 1 29.8199 2.3419 10.8272 0.0000 0.0000 0.0000
# 2 2.3419 127.0733 94.5542 0.0000 0.0000 0.0000
# 3 10.8272 94.5542 220.1096 0.0000 0.0000 0.0000
# 4 0.0000 0.0000 0.0000 10.1341 0.0000 0.0000
# 5 0.0000 0.0000 0.0000 0.0000 20.4906 0.0000
# 6 0.0000 0.0000 0.0000 0.0000 0.0000 11.6164
#
#
#
# Elastic Compliance Matrix: (Units=1/GPa)
#
#
# Indices 1 2 3 4 5 6 
#
# 1 0.034217 0.000914 -0.002076 0.000000 0.000000 0.000000
# 2 0.000914 0.011591 -0.005024 0.000000 0.000000 0.000000
# 3 -0.002076 -0.005024 0.006804 0.000000 0.000000 0.000000
# 4 0.000000 0.000000 0.000000 0.098676 0.000000 0.000000
# 5 0.000000 0.000000 0.000000 0.000000 0.048803 0.000000
# 6 0.000000 0.000000 0.000000 0.000000 0.000000 0.086085
#
#
# Mechanical properties :
#
#
# Convention : Reuss Voigt Hill
#
# Bulk Modulus (GPa) = 24.85138 65.82769 45.33954
# Shear Modulus (GPa) = 16.02765 26.40019 21.21392
#
# Velocity S-wave (km/s) = 2.91851 3.74568 3.35766
# Velocity P-wave (km/s) = 4.95620 7.32736 6.25516
#
# Compressibility (1/GPa) = 0.04023922
#
# Stress axis : x y z
#
# Youngs Moduli (GPa) = 29.22563 86.27280 146.98091
#
# Poissons Ratio (x) = -0.07885 0.30509
# Poissons Ratio (y) = -0.02671 0.73847
# Poissons Ratio (z) = 0.06066 0.43346
#
# Static dielectric constant tensor:
#      x y z
#    x 1.811010 0.000000 0.000000 
#    y 0.000000 1.617970 0.000000 
#    z 0.000000 0.000000 1.697790 
# 
# From -- ./inp_files/43699.got.cif
#   From: 2010.05.17/outbox.cif.g08.bks.cpg/sg67_22_cif.got.tgz:43699.got - 2010.06.03 18:28:57.
