data_PCOD9502103
_publ_section_title
;
Structure prediction by ZEFSAII (Michael W. Deem and Ramdas Pophale) SiO2 
 PCOD9502103
Probable space group: C M M A
;
_chemical_formula_sum "Si O2"
_cell_formula_units_Z 80
_cell_length_a 20.110057
_cell_length_b 15.342854
_cell_length_c 12.749281
_cell_angle_alpha 90.000000
_cell_angle_beta 90.000000
_cell_angle_gamma 90.000000
_cell_volume 3933.735429
_symmetry_space_group_name_H-M "C M M A"
_symmetry_group_IT_number 67
_symmetry_cell_setting 'orthorhombic'
loop_
_space_group_symop_operation_xyz
x,y,z
-x,1/2-y,z
x,-y,-z
-x,1/2+y,-z
-x,-y,-z
x,1/2+y,-z
-x,y,z
x,1/2-y,z
1/2+x,1/2+y,z
1/2-x,-y,z
1/2+x,1/2-y,-z
1/2-x,y,-z
1/2-x,1/2-y,-z
1/2+x,y,-z
1/2-x,1/2+y,z
1/2+x,-y,z
loop_
_atom_site_type_symbol
_atom_site_label
_atom_site_fract_x
_atom_site_fract_y
_atom_site_fract_z
Si Si1 0.500000 0.857357 0.572619
Si Si2 0.073335 0.396979 0.005228
Si Si3 0.000000 0.851467 0.191747
Si Si4 0.644502 0.856211 0.513184
Si Si5 0.757104 0.143365 0.329853
Si Si6 0.288908 0.852052 0.098883
O O1 0.500000 0.750000 0.571639
O O2 0.500000 0.890846 0.693115
O O3 0.568652 0.885176 0.519396
O O4 0.063248 0.370121 0.883421
O O5 0.000000 0.376307 0.051775
O O6 0.081703 0.500000 0.000000
O O7 0.133609 0.357533 0.068912
O O8 0.000000 0.750000 0.209901
O O9 0.644631 0.750000 0.512210
O O10 0.687647 0.881821 0.615473
O O11 0.685044 0.884428 0.410507
O O12 0.758458 0.250000 0.328251
O O13 0.770256 0.111165 0.212468
O O14 0.270035 0.750000 0.104159
O O15 0.250000 0.891672 0.000000
#
# Coordination Sequence:
#
# PCOD9502103 Si02
#       6
#     8  16   8  16  16  16
#     4   9  16  23  42  71  95 121 163 205 240 290
#     4   9  20  36  50  69 102 138 172 201 249 311
#     4   9  17  29  50  75  99 127 163 213 256 282
#     4   8  14  26  41  63  97 132 160 193 247 299
#     4   8  15  27  42  63  99 134 156 195 253 300
#     4  10  20  31  50  79 105 131 168 211 254 300
#
# _framework density 20.336904000000001
#
# number of rings (size 3 to 8) (size 9 to 14) (size 15 to 20)
#    0.600    2.600    0.000    1.800    2.800    0.400 
#    1.800    0.000    0.000    0.000    0.000    2.800 
#    0.000    0.000    0.000    0.000    0.000    0.000 
#
# Total GULP energy -222726.567413 kJ/mol
# GULP energy per Si atom -5568.164185 kJ/mol
# Density = 2.029062 g / cm^3
# Si number density = 20.336904 Si / 1000 Ang^3
#
#
#
# Elastic Constant Matrix: (Units=GPa)
#
#
# Indices 1 2 3 4 5 6 
#
# 1 147.8285 -1.1884 79.4576 0.0000 0.0000 0.0000
# 2 -1.1884 20.4811 3.6216 0.0000 0.0000 0.0000
# 3 79.4576 3.6216 138.3583 0.0000 0.0000 0.0000
# 4 0.0000 0.0000 0.0000 -17.8783 0.0000 0.0000
# 5 0.0000 0.0000 0.0000 0.0000 19.7994 0.0000
# 6 0.0000 0.0000 0.0000 0.0000 0.0000 12.9594
#
#
#
# Elastic Compliance Matrix: (Units=1/GPa)
#
#
# Indices 1 2 3 4 5 6 
#
# 1 0.009835 0.001577 -0.005690 0.000000 0.000000 0.000000
# 2 0.001577 0.049305 -0.002196 0.000000 0.000000 0.000000
# 3 -0.005690 -0.002196 0.010553 0.000000 0.000000 0.000000
# 4 0.000000 0.000000 0.000000 -0.055934 0.000000 0.000000
# 5 0.000000 0.000000 0.000000 0.000000 0.050507 0.000000
# 6 0.000000 0.000000 0.000000 0.000000 0.000000 0.077164
#
#
# Mechanical properties :
#
#
# Convention : Reuss Voigt Hill
#
# Bulk Modulus (GPa) = 17.52072 52.27218 34.89645
# Shear Modulus (GPa) = 28.88946 17.96124 23.42535
#
# Velocity S-wave (km/s) = 3.77310 2.97507 3.39759
# Velocity P-wave (km/s) = 5.25506 6.12864 5.70859
#
# Compressibility (1/GPa) = 0.05707528
#
# Stress axis : x y z
#
# Youngs Moduli (GPa) = 101.67297 20.28182 94.76332
#
# Poissons Ratio (x) = -0.03198 0.53917
# Poissons Ratio (y) = -0.16032 0.20811
# Poissons Ratio (z) = 0.57849 0.04454
#
# Static dielectric constant tensor:
#      x y z
#    x 1.691520 0.000000 0.000000 
#    y 0.000000 1.724970 0.000000 
#    z 0.000000 0.000000 1.750140 
# 
# From -- ./inp_files/20580.got.cif
#   From: 2010.05.17/outbox.cif.g08.bks.cpg/sg67_11_cif.got.tgz:20580.got - 2010.06.03 18:28:57.
