data_PCOD9502709
_publ_section_title
;
Structure prediction by ZEFSAII (Michael W. Deem and Ramdas Pophale) SiO2 
 PCOD9502709
Probable space group: C M M A
;
_chemical_formula_sum "Si O2"
_cell_formula_units_Z 52
_cell_length_a 13.839768
_cell_length_b 15.312400
_cell_length_c 11.542764
_cell_angle_alpha 90.000000
_cell_angle_beta 90.000000
_cell_angle_gamma 90.000000
_cell_volume 2446.143280
_symmetry_space_group_name_H-M "C M M A"
_symmetry_group_IT_number 67
_symmetry_cell_setting 'orthorhombic'
loop_
_space_group_symop_operation_xyz
x,y,z
-x,1/2-y,z
x,-y,-z
-x,1/2+y,-z
-x,-y,-z
x,1/2+y,-z
-x,y,z
x,1/2-y,z
1/2+x,1/2+y,z
1/2-x,-y,z
1/2+x,1/2-y,-z
1/2-x,y,-z
1/2-x,1/2-y,-z
1/2+x,y,-z
1/2-x,1/2+y,z
1/2+x,-y,z
loop_
_atom_site_type_symbol
_atom_site_label
_atom_site_fract_x
_atom_site_fract_y
_atom_site_fract_z
Si Si1 0.250000 0.000000 0.000000
Si Si2 0.114894 0.847278 0.912082
Si Si3 0.778262 0.095759 0.311002
Si Si4 0.389204 0.148089 0.470465
O O1 0.167382 0.924074 0.979238
O O2 0.129725 0.750000 0.961830
O O3 0.165015 0.852128 0.785756
O O4 0.000000 0.861112 0.901065
O O5 0.679812 0.136561 0.360179
O O6 0.846485 0.091066 0.424402
O O7 0.750000 0.000000 0.263572
O O8 0.500000 0.126975 0.446362
O O9 0.382659 0.250000 0.507039
#
# Coordination Sequence:
#
# PCOD9502709 Si02
#       4
#     4  16  16  16
#     4  12  24  48  68 102 124 156 208 280 320 378
#     4  11  24  44  70  96 127 168 209 257 322 385
#     4  11  21  36  57  87 125 165 210 256 303 371
#     4  10  20  34  55  85 123 167 212 256 303 362
#
# _framework density 21.257954999999999
#
# number of rings (size 3 to 8) (size 9 to 14) (size 15 to 20)
#    0.000    1.231    1.538    7.385    0.000    6.154 
#    0.000    0.000    0.000    5.538    0.000    0.000 
#    0.000    0.000    0.000    0.000    0.000    0.000 
#
# Total GULP energy -144887.821558 kJ/mol
# GULP energy per Si atom -5572.608521 kJ/mol
# Density = 2.120957 g / cm^3
# Si number density = 21.257955 Si / 1000 Ang^3
#
#
#
# Elastic Constant Matrix: (Units=GPa)
#
#
# Indices 1 2 3 4 5 6 
#
# 1 259.9686 72.0363 193.8004 0.0000 0.0000 0.0000
# 2 72.0363 151.9352 42.4980 0.0000 0.0000 0.0000
# 3 193.8004 42.4980 470.1348 0.0000 0.0000 0.0000
# 4 0.0000 0.0000 0.0000 17.4079 0.0000 0.0000
# 5 0.0000 0.0000 0.0000 0.0000 24.6782 0.0000
# 6 0.0000 0.0000 0.0000 0.0000 0.0000 42.4904
#
#
#
# Elastic Compliance Matrix: (Units=1/GPa)
#
#
# Indices 1 2 3 4 5 6 
#
# 1 0.006250 -0.002301 -0.002368 0.000000 0.000000 0.000000
# 2 -0.002301 0.007599 0.000261 0.000000 0.000000 0.000000
# 3 -0.002368 0.000261 0.003080 0.000000 0.000000 0.000000
# 4 0.000000 0.000000 0.000000 0.057445 0.000000 0.000000
# 5 0.000000 0.000000 0.000000 0.000000 0.040522 0.000000
# 6 0.000000 0.000000 0.000000 0.000000 0.000000 0.023535
#
#
# Mechanical properties :
#
#
# Convention : Reuss Voigt Hill
#
# Bulk Modulus (GPa) = 123.24806 166.52311 144.88558
# Shear Modulus (GPa) = 33.34452 55.16223 44.25337
#
# Velocity S-wave (km/s) = 3.96481 5.09954 4.56755
# Velocity P-wave (km/s) = 8.89173 10.63853 9.80411
#
# Compressibility (1/GPa) = 0.00811372
#
# Stress axis : x y z
#
# Youngs Moduli (GPa) = 160.01005 131.58884 324.71014
#
# Poissons Ratio (x) = 0.30274 0.76900
# Poissons Ratio (y) = 0.36813 -0.08489
# Poissons Ratio (z) = 0.37895 -0.03440
#
# Static dielectric constant tensor:
#      x y z
#    x 1.722810 0.000000 0.000000 
#    y 0.000000 1.798480 0.000000 
#    z 0.000000 0.000000 1.830110 
# 
# From -- ./inp_files/17223.got.cif
#   From: 2010.05.17/outbox.cif.g08.bks.cpg/sg67_9_cif.got.tgz:17223.got - 2010.06.03 18:28:57.
