data_PCOD9502491
_publ_section_title
;
Structure prediction by ZEFSAII (Michael W. Deem and Ramdas Pophale) SiO2 
 PCOD9502491
Probable space group: C M M A
;
_chemical_formula_sum "Si O2"
_cell_formula_units_Z 104
_cell_length_a 8.146697
_cell_length_b 26.928468
_cell_length_c 22.978367
_cell_angle_alpha 90.000000
_cell_angle_beta 90.000000
_cell_angle_gamma 90.000000
_cell_volume 5040.949792
_symmetry_space_group_name_H-M "C M M A"
_symmetry_group_IT_number 67
_symmetry_cell_setting 'orthorhombic'
loop_
_space_group_symop_operation_xyz
x,y,z
-x,1/2-y,z
x,-y,-z
-x,1/2+y,-z
-x,-y,-z
x,1/2+y,-z
-x,y,z
x,1/2-y,z
1/2+x,1/2+y,z
1/2-x,-y,z
1/2+x,1/2-y,-z
1/2-x,y,-z
1/2-x,1/2-y,-z
1/2+x,y,-z
1/2-x,1/2+y,z
1/2+x,-y,z
loop_
_atom_site_type_symbol
_atom_site_label
_atom_site_fract_x
_atom_site_fract_y
_atom_site_fract_z
Si Si1 0.308454 0.161017 0.062586
Si Si2 0.200532 0.304438 0.812603
Si Si3 0.197872 0.554172 0.350910
Si Si4 0.697835 0.250000 0.432381
Si Si5 0.307962 0.445425 0.901657
Si Si6 0.301243 0.142416 0.432784
Si Si7 0.300668 0.412662 0.224297
O O1 0.500000 0.170236 0.064909
O O2 0.239182 0.186208 0.121054
O O3 0.278241 0.101861 0.068914
O O4 0.250000 0.178590 0.000000
O O5 0.254208 0.250000 0.791965
O O6 0.245572 0.354213 0.777899
O O7 0.000000 0.304025 0.812839
O O8 0.250000 0.500000 0.371016
O O9 0.258945 0.597508 0.393201
O O10 0.253944 0.563484 0.284696
O O11 0.000000 0.556642 0.350005
O O12 0.500000 0.250000 0.428745
O O13 0.750000 0.250000 0.500000
O O14 0.754964 0.303419 0.409529
O O15 0.500000 0.440749 0.912710
O O16 0.250000 0.500000 0.920095
O O17 0.271842 0.438677 0.832751
O O18 0.500000 0.142196 0.431331
O O19 0.250000 0.137160 0.500000
O O20 0.500000 0.415770 0.219731
#
# Coordination Sequence:
#
# PCOD9502491 Si02
#       7
#    16  16  16   8  16  16  16
#     4  10  20  34  51  74 105 136 171 210 251 304
#     4   8  15  30  52  76 102 132 165 206 255 304
#     4  10  21  35  51  75 106 139 176 218 261 314
#     4   8  14  28  50  72  98 130 166 210 255 302
#     4  11  21  34  53  75  99 131 170 211 259 308
#     4   9  18  33  52  76 105 137 176 217 263 314
#     4   9  18  34  53  75 103 133 170 212 256 309
#
# _framework density 20.631034
#
# number of rings (size 3 to 8) (size 9 to 14) (size 15 to 20)
#    0.000    2.615    0.000    3.231    0.000    3.385 
#    1.385    3.077    0.000   11.077    0.000    0.000 
#    0.000    0.000    0.000    0.000    0.000    0.000 
#
# Total GULP energy -290101.587371 kJ/mol
# GULP energy per Si atom -5578.876680 kJ/mol
# Density = 2.058408 g / cm^3
# Si number density = 20.631034 Si / 1000 Ang^3
#
#
#
# Elastic Constant Matrix: (Units=GPa)
#
#
# Indices 1 2 3 4 5 6 
#
# 1 6.9169 -9.4856 -1.8830 0.0000 0.0000 0.0000
# 2 -9.4856 126.0572 19.0253 0.0000 0.0000 0.0000
# 3 -1.8830 19.0253 48.0810 0.0000 0.0000 0.0000
# 4 0.0000 0.0000 0.0000 11.9254 0.0000 0.0000
# 5 0.0000 0.0000 0.0000 0.0000 19.0957 0.0000
# 6 0.0000 0.0000 0.0000 0.0000 0.0000 7.7538
#
#
#
# Elastic Compliance Matrix: (Units=1/GPa)
#
#
# Indices 1 2 3 4 5 6 
#
# 1 0.161325 0.011896 0.001611 0.000000 0.000000 0.000000
# 2 0.011896 0.009314 -0.003220 0.000000 0.000000 0.000000
# 3 0.001611 -0.003220 0.022135 0.000000 0.000000 0.000000
# 4 0.000000 0.000000 0.000000 0.083855 0.000000 0.000000
# 5 0.000000 0.000000 0.000000 0.000000 0.052368 0.000000
# 6 0.000000 0.000000 0.000000 0.000000 0.000000 0.128968
#
#
# Mechanical properties :
#
#
# Convention : Reuss Voigt Hill
#
# Bulk Modulus (GPa) = 4.68714 21.81874 13.25294
# Shear Modulus (GPa) = 9.83271 19.31488 14.57379
#
# Velocity S-wave (km/s) = 2.18548 3.06307 2.66071
# Velocity P-wave (km/s) = 2.94028 4.80713 3.98458
#
# Compressibility (1/GPa) = 0.21334960
#
# Stress axis : x y z
#
# Youngs Moduli (GPa) = 6.19865 107.36525 45.17675
#
# Poissons Ratio (x) = -1.27725 -0.07277
# Poissons Ratio (y) = -0.07374 0.14545
# Poissons Ratio (z) = -0.00998 0.34567
#
# Static dielectric constant tensor:
#      x y z
#    x 1.749300 0.000000 0.000000 
#    y 0.000000 1.700310 0.000000 
#    z 0.000000 0.000000 1.723630 
# 
# From -- ./inp_files/41040.got.cif
#   From: 2010.05.17/outbox.cif.g08.bks.cpg/sg67_21_cif.got.tgz:41040.got - 2010.06.03 18:28:57.
