data_PCOD9502941
_publ_section_title
;
Structure prediction by ZEFSAII (Michael W. Deem and Ramdas Pophale) SiO2 
 PCOD9502941
Probable space group: C M M A
;
_chemical_formula_sum "Si O2"
_cell_formula_units_Z 80
_cell_length_a 8.712680
_cell_length_b 19.336784
_cell_length_c 26.033135
_cell_angle_alpha 90.000000
_cell_angle_beta 90.000000
_cell_angle_gamma 90.000000
_cell_volume 4385.937918
_symmetry_space_group_name_H-M "C M M A"
_symmetry_group_IT_number 67
_symmetry_cell_setting 'orthorhombic'
loop_
_space_group_symop_operation_xyz
x,y,z
-x,1/2-y,z
x,-y,-z
-x,1/2+y,-z
-x,-y,-z
x,1/2+y,-z
-x,y,z
x,1/2-y,z
1/2+x,1/2+y,z
1/2-x,-y,z
1/2+x,1/2-y,-z
1/2-x,y,-z
1/2-x,1/2-y,-z
1/2+x,y,-z
1/2-x,1/2+y,z
1/2+x,-y,z
loop_
_atom_site_type_symbol
_atom_site_label
_atom_site_fract_x
_atom_site_fract_y
_atom_site_fract_z
Si Si1 0.183245 0.423650 0.853998
Si Si2 0.684005 0.575787 0.555813
Si Si3 0.314981 0.169359 0.347275
Si Si4 0.816778 0.923493 0.743048
Si Si5 0.682149 0.332355 0.944605
O O1 0.250000 0.500000 0.864473
O O2 0.250845 0.402310 0.798650
O O3 0.236842 0.372953 0.898831
O O4 0.000000 0.426876 0.850890
O O5 0.500000 0.571058 0.552501
O O6 0.750000 0.500000 0.569022
O O7 0.750000 0.594725 0.500000
O O8 0.725221 0.630379 0.599809
O O9 0.500000 0.164626 0.341314
O O10 0.272958 0.250000 0.348627
O O11 0.236802 0.129235 0.300500
O O12 0.000000 0.927721 0.745520
O O13 0.750000 0.000000 0.731791
O O14 0.500000 0.345476 0.943591
O O15 0.706921 0.250000 0.938718
O O16 0.750000 0.352748 0.000000
#
# Coordination Sequence:
#
# PCOD9502941 Si02
#       5
#    16  16  16  16  16
#     4  11  22  38  60  85 114 147 186 232 282 332
#     4  10  20  35  57  82 109 144 185 229 275 327
#     4  10  22  39  57  81 114 149 185 228 279 331
#     4  11  22  38  60  84 111 145 186 230 278 332
#     4  10  21  38  59  84 115 150 189 231 277 332
#
# _framework density 18.240113000000001
#
# number of rings (size 3 to 8) (size 9 to 14) (size 15 to 20)
#    0.000    1.600    0.000    7.200    0.000    6.400 
#    0.000    2.000    0.000    0.000    0.000    0.000 
#    0.000    0.000    0.000    0.000    0.000    0.000 
#
# Total GULP energy -223588.696880 kJ/mol
# GULP energy per Si atom -5589.717422 kJ/mol
# Density = 1.819860 g / cm^3
# Si number density = 18.240113 Si / 1000 Ang^3
#
#
#
# Elastic Constant Matrix: (Units=GPa)
#
#
# Indices 1 2 3 4 5 6 
#
# 1 126.4584 78.1345 93.5093 0.0000 0.0000 0.0000
# 2 78.1345 107.9541 121.7409 0.0000 0.0000 0.0000
# 3 93.5093 121.7409 170.6186 0.0000 0.0000 0.0000
# 4 0.0000 0.0000 0.0000 99.5819 0.0000 0.0000
# 5 0.0000 0.0000 0.0000 0.0000 27.3646 0.0000
# 6 0.0000 0.0000 0.0000 0.0000 0.0000 25.6328
#
#
#
# Elastic Compliance Matrix: (Units=1/GPa)
#
#
# Indices 1 2 3 4 5 6 
#
# 1 0.014486 -0.007840 -0.002345 0.000000 0.000000 0.000000
# 2 -0.007840 0.051661 -0.032565 0.000000 0.000000 0.000000
# 3 -0.002345 -0.032565 0.030383 0.000000 0.000000 0.000000
# 4 0.000000 0.000000 0.000000 0.010042 0.000000 0.000000
# 5 0.000000 0.000000 0.000000 0.000000 0.036544 0.000000
# 6 0.000000 0.000000 0.000000 0.000000 0.000000 0.039012
#
#
# Mechanical properties :
#
#
# Convention : Reuss Voigt Hill
#
# Bulk Modulus (GPa) = 90.66615 110.20002 100.43308
# Shear Modulus (GPa) = 18.42947 37.95897 28.19422
#
# Velocity S-wave (km/s) = 3.18210 4.56682 3.93584
# Velocity P-wave (km/s) = 7.95713 9.39975 8.70836
#
# Compressibility (1/GPa) = 0.01102947
#
# Stress axis : x y z
#
# Youngs Moduli (GPa) = 69.03292 19.35680 32.91368
#
# Poissons Ratio (x) = 0.15175 0.07719
# Poissons Ratio (y) = 0.54120 1.07184
# Poissons Ratio (z) = 0.16190 0.63036
#
# Static dielectric constant tensor:
#      x y z
#    x 1.612010 0.000000 0.000000 
#    y 0.000000 1.600660 0.000000 
#    z 0.000000 0.000000 1.603840 
# 
# From -- ./inp_files/43291.got.cif
#   From: 2010.05.17/outbox.cif.g08.bks.cpg/sg67_22_cif.got.tgz:43291.got - 2010.06.03 18:28:57.
