data_PCOD9502718
_publ_section_title
;
Structure prediction by ZEFSAII (Michael W. Deem and Ramdas Pophale) SiO2 
 PCOD9502718
Probable space group: C M M A
;
_chemical_formula_sum "Si O2"
_cell_formula_units_Z 80
_cell_length_a 18.293792
_cell_length_b 18.138218
_cell_length_c 13.769804
_cell_angle_alpha 90.000000
_cell_angle_beta 90.000000
_cell_angle_gamma 90.000000
_cell_volume 4569.052126
_symmetry_space_group_name_H-M "C M M A"
_symmetry_group_IT_number 67
_symmetry_cell_setting 'orthorhombic'
loop_
_space_group_symop_operation_xyz
x,y,z
-x,1/2-y,z
x,-y,-z
-x,1/2+y,-z
-x,-y,-z
x,1/2+y,-z
-x,y,z
x,1/2-y,z
1/2+x,1/2+y,z
1/2-x,-y,z
1/2+x,1/2-y,-z
1/2-x,y,-z
1/2-x,1/2-y,-z
1/2+x,y,-z
1/2-x,1/2+y,z
1/2+x,-y,z
loop_
_atom_site_type_symbol
_atom_site_label
_atom_site_fract_x
_atom_site_fract_y
_atom_site_fract_z
Si Si1 0.585852 0.425832 0.435514
Si Si2 0.840063 0.162981 0.400206
Si Si3 0.919568 0.161024 0.201299
Si Si4 0.285990 0.420797 0.292754
Si Si5 0.730991 0.339148 0.890212
O O1 0.594500 0.500000 0.500000
O O2 0.500000 0.414261 0.417983
O O3 0.621591 0.362442 0.501795
O O4 0.634337 0.430576 0.338836
O O5 0.825186 0.250000 0.399810
O O6 0.895998 0.145695 0.311934
O O7 0.766251 0.119963 0.371860
O O8 0.922602 0.250000 0.192628
O O9 0.851887 0.136881 0.135387
O O10 0.000000 0.131309 0.179315
O O11 0.250000 0.500000 0.275042
O O12 0.281000 0.374475 0.193529
O O13 0.735052 0.250000 0.881579
O O14 0.750000 0.359511 0.000000
#
# Coordination Sequence:
#
# PCOD9502718 Si02
#       5
#    16  16  16  16  16
#     4  11  23  37  53  79 118 155 184 224 282 339
#     4  10  20  34  56  82 108 144 190 235 272 323
#     4   8  14  27  49  78 105 130 169 221 275 326
#     4  11  21  36  57  80 107 147 190 228 274 341
#     4   9  19  36  56  79 108 141 183 240 293 337
#
# _framework density 17.509101000000001
#
# number of rings (size 3 to 8) (size 9 to 14) (size 15 to 20)
#    0.000    2.200    2.000    3.000    0.000    4.000 
#    0.000    1.000    0.000    1.200    0.000    4.200 
#    0.000    0.000    0.000    0.000    0.000    0.000 
#
# Total GULP energy -223124.029015 kJ/mol
# GULP energy per Si atom -5578.100725 kJ/mol
# Density = 1.746925 g / cm^3
# Si number density = 17.509101 Si / 1000 Ang^3
#
#
#
# Elastic Constant Matrix: (Units=GPa)
#
#
# Indices 1 2 3 4 5 6 
#
# 1 110.3587 18.7377 66.5446 0.0000 0.0000 0.0000
# 2 18.7377 47.7709 16.7566 0.0000 0.0000 0.0000
# 3 66.5446 16.7566 108.4784 0.0000 0.0000 0.0000
# 4 0.0000 0.0000 0.0000 20.6269 0.0000 0.0000
# 5 0.0000 0.0000 0.0000 0.0000 12.3969 0.0000
# 6 0.0000 0.0000 0.0000 0.0000 0.0000 15.5864
#
#
#
# Elastic Compliance Matrix: (Units=1/GPa)
#
#
# Indices 1 2 3 4 5 6 
#
# 1 0.014716 -0.002755 -0.008602 0.000000 0.000000 0.000000
# 2 -0.002755 0.022648 -0.001808 0.000000 0.000000 0.000000
# 3 -0.008602 -0.001808 0.014774 0.000000 0.000000 0.000000
# 4 0.000000 0.000000 0.000000 0.048480 0.000000 0.000000
# 5 0.000000 0.000000 0.000000 0.000000 0.080665 0.000000
# 6 0.000000 0.000000 0.000000 0.000000 0.000000 0.064158
#
#
# Mechanical properties :
#
#
# Convention : Reuss Voigt Hill
#
# Bulk Modulus (GPa) = 38.74735 52.29844 45.52289
# Shear Modulus (GPa) = 17.83327 20.69333 19.26330
#
# Velocity S-wave (km/s) = 3.19488 3.44155 3.32051
# Velocity P-wave (km/s) = 5.98227 6.76214 6.38412
#
# Compressibility (1/GPa) = 0.02580822
#
# Stress axis : x y z
#
# Youngs Moduli (GPa) = 67.95434 44.15357 67.68495
#
# Poissons Ratio (x) = 0.12164 0.58220
# Poissons Ratio (y) = 0.18721 0.12241
# Poissons Ratio (z) = 0.58452 0.07985
#
# Static dielectric constant tensor:
#      x y z
#    x 1.606760 0.000000 0.000000 
#    y 0.000000 1.609960 0.000000 
#    z 0.000000 0.000000 1.582430 
# 
# From -- ./inp_files/28380.got.cif
#   From: 2010.05.17/outbox.cif.g08.bks.cpg/sg67_15_cif.got.tgz:28380.got - 2010.06.03 18:28:57.
