data_PCOD9502154
_publ_section_title
;
Structure prediction by ZEFSAII (Michael W. Deem and Ramdas Pophale) SiO2 
 PCOD9502154
Probable space group: C M M A
;
_chemical_formula_sum "Si O2"
_cell_formula_units_Z 112
_cell_length_a 22.839362
_cell_length_b 18.466489
_cell_length_c 16.390668
_cell_angle_alpha 90.000000
_cell_angle_beta 90.000000
_cell_angle_gamma 90.000000
_cell_volume 6912.974474
_symmetry_space_group_name_H-M "C M M A"
_symmetry_group_IT_number 67
_symmetry_cell_setting 'orthorhombic'
loop_
_space_group_symop_operation_xyz
x,y,z
-x,1/2-y,z
x,-y,-z
-x,1/2+y,-z
-x,-y,-z
x,1/2+y,-z
-x,y,z
x,1/2-y,z
1/2+x,1/2+y,z
1/2-x,-y,z
1/2+x,1/2-y,-z
1/2-x,y,-z
1/2-x,1/2-y,-z
1/2+x,y,-z
1/2-x,1/2+y,z
1/2+x,-y,z
loop_
_atom_site_type_symbol
_atom_site_label
_atom_site_fract_x
_atom_site_fract_y
_atom_site_fract_z
Si Si1 0.609419 0.592269 0.844592
Si Si2 0.929226 0.472252 0.586856
Si Si3 0.570908 0.168021 0.319722
Si Si4 0.429688 0.947653 0.245294
Si Si5 0.434837 0.665628 0.001890
Si Si6 0.241466 0.413586 0.904843
Si Si7 0.146272 0.164035 0.156662
O O1 0.594750 0.643364 0.768022
O O2 0.592529 0.511669 0.814996
O O3 0.572879 0.615995 0.923388
O O4 0.676556 0.600428 0.871860
O O5 0.906604 0.500000 0.500000
O O6 0.909938 0.392073 0.614515
O O7 0.916515 0.524775 0.663082
O O8 0.000000 0.469337 0.581099
O O9 0.500000 0.164723 0.314506
O O10 0.587772 0.250000 0.339367
O O11 0.500000 0.939767 0.237249
O O12 0.393922 0.876188 0.222759
O O13 0.500000 0.656378 0.037072
O O14 0.428830 0.750000 0.976813
O O15 0.387092 0.650842 0.070672
O O16 0.250000 0.500000 0.900546
O O17 0.290431 0.372509 0.852385
O O18 0.250000 0.391993 0.000000
O O19 0.150093 0.250000 0.169499
#
# Coordination Sequence:
#
# PCOD9502154 Si02
#       7
#    16  16  16  16  16  16  16
#     4  11  19  32  53  73  99 132 177 219 261 304
#     4   8  15  30  52  77 106 139 169 198 247 318
#     4   9  17  29  48  79 112 134 162 212 263 306
#     4  10  20  34  53  78 105 135 169 213 260 308
#     4  10  20  32  47  70 102 137 172 211 257 307
#     4  11  22  38  53  69  97 135 179 230 265 295
#     4  11  23  37  50  70 101 140 180 216 255 301
#
# _framework density 16.201419999999999
#
# number of rings (size 3 to 8) (size 9 to 14) (size 15 to 20)
#    0.000    2.000    2.857    3.000    0.000    4.000 
#    0.000    2.143    0.000    2.571    0.000    8.000 
#    0.000    5.714    0.000    0.000    0.000    0.000 
#
# Total GULP energy -312315.667310 kJ/mol
# GULP energy per Si atom -5577.065488 kJ/mol
# Density = 1.616454 g / cm^3
# Si number density = 16.201420 Si / 1000 Ang^3
#
#
#
# Elastic Constant Matrix: (Units=GPa)
#
#
# Indices 1 2 3 4 5 6 
#
# 1 80.2971 29.2826 18.4150 0.0000 0.0000 0.0000
# 2 29.2826 94.4585 53.2867 0.0000 0.0000 0.0000
# 3 18.4150 53.2867 68.3923 0.0000 0.0000 0.0000
# 4 0.0000 0.0000 0.0000 14.2351 0.0000 0.0000
# 5 0.0000 0.0000 0.0000 0.0000 3.6920 0.0000
# 6 0.0000 0.0000 0.0000 0.0000 0.0000 22.8177
#
#
#
# Elastic Compliance Matrix: (Units=1/GPa)
#
#
# Indices 1 2 3 4 5 6 
#
# 1 0.014060 -0.003966 -0.000695 0.000000 0.000000 0.000000
# 2 -0.003966 0.020008 -0.014521 0.000000 0.000000 0.000000
# 3 -0.000695 -0.014521 0.026122 0.000000 0.000000 0.000000
# 4 0.000000 0.000000 0.000000 0.070249 0.000000 0.000000
# 5 0.000000 0.000000 0.000000 0.000000 0.270858 0.000000
# 6 0.000000 0.000000 0.000000 0.000000 0.000000 0.043826
#
#
# Mechanical properties :
#
#
# Convention : Reuss Voigt Hill
#
# Bulk Modulus (GPa) = 45.81915 49.45739 47.63827
# Shear Modulus (GPa) = 10.18823 17.62653 13.90738
#
# Velocity S-wave (km/s) = 2.51041 3.30201 2.93303
# Velocity P-wave (km/s) = 6.06178 6.71792 6.39827
#
# Compressibility (1/GPa) = 0.02182494
#
# Stress axis : x y z
#
# Youngs Moduli (GPa) = 71.12559 49.98043 38.28128
#
# Poissons Ratio (x) = 0.19824 0.02662
# Poissons Ratio (y) = 0.28210 0.55588
# Poissons Ratio (z) = 0.04946 0.72576
#
# Static dielectric constant tensor:
#      x y z
#    x 1.536930 0.000000 0.000000 
#    y 0.000000 1.558120 0.000000 
#    z 0.000000 0.000000 1.528200 
# 
# From -- ./inp_files/35107.got.cif
#   From: 2010.05.17/outbox.cif.g08.bks.cpg/sg67_18_cif.got.tgz:35107.got - 2010.06.03 18:28:57.
