data_PCOD9503091
_publ_section_title
;
Structure prediction by ZEFSAII (Michael W. Deem and Ramdas Pophale) SiO2 
 PCOD9503091
Probable space group: C M M A
;
_chemical_formula_sum "Si O2"
_cell_formula_units_Z 88
_cell_length_a 8.509663
_cell_length_b 21.785735
_cell_length_c 24.048245
_cell_angle_alpha 90.000000
_cell_angle_beta 90.000000
_cell_angle_gamma 90.000000
_cell_volume 4458.286418
_symmetry_space_group_name_H-M "C M M A"
_symmetry_group_IT_number 67
_symmetry_cell_setting 'orthorhombic'
loop_
_space_group_symop_operation_xyz
x,y,z
-x,1/2-y,z
x,-y,-z
-x,1/2+y,-z
-x,-y,-z
x,1/2+y,-z
-x,y,z
x,1/2-y,z
1/2+x,1/2+y,z
1/2-x,-y,z
1/2+x,1/2-y,-z
1/2-x,y,-z
1/2-x,1/2-y,-z
1/2+x,y,-z
1/2-x,1/2+y,z
1/2+x,-y,z
loop_
_atom_site_type_symbol
_atom_site_label
_atom_site_fract_x
_atom_site_fract_y
_atom_site_fract_z
Si Si1 0.189492 0.181195 0.868471
Si Si2 0.186768 0.565695 0.937135
Si Si3 0.310971 0.750000 0.436923
Si Si4 0.812405 0.063648 0.671617
Si Si5 0.688815 0.884671 0.437164
Si Si6 0.808948 0.182530 0.737751
O O1 0.238181 0.250000 0.887509
O O2 0.259703 0.124483 0.901934
O O3 0.229572 0.176693 0.803013
O O4 0.000000 0.178354 0.872761
O O5 0.250000 0.500000 0.915297
O O6 0.000000 0.562665 0.938674
O O7 0.250000 0.572231 0.000000
O O8 0.500000 0.750000 0.436135
O O9 0.250000 0.750000 0.500000
O O10 0.258660 0.683586 0.415908
O O11 0.756196 0.069593 0.608082
O O12 0.751547 0.123523 0.704341
O O13 0.000000 0.063531 0.673314
O O14 0.750000 0.000000 0.695794
O O15 0.500000 0.887268 0.438171
O O16 0.750000 0.893541 0.500000
O O17 0.753526 0.250000 0.717971
O O18 0.000000 0.182985 0.733933
#
# Coordination Sequence:
#
# PCOD9503091 Si02
#       6
#    16  16   8  16  16  16
#     4   9  18  36  61  87 117 152 191 236 287 341
#     4  11  22  37  57  83 118 157 200 243 288 340
#     4   8  16  30  50  76 106 134 166 210 257 312
#     4  11  23  38  57  82 113 147 185 228 276 333
#     4  10  20  36  56  81 111 143 180 222 275 332
#     4   8  17  36  61  86 111 145 188 232 280 334
#
# _framework density 19.738526
#
# number of rings (size 3 to 8) (size 9 to 14) (size 15 to 20)
#    0.000    2.364    0.000    4.364    1.273    2.545 
#    0.000    5.455    0.000    2.182    0.000    0.000 
#    0.000    0.000    0.000    0.000    0.000    0.000 
#
# Total GULP energy -245487.948224 kJ/mol
# GULP energy per Si atom -5579.271551 kJ/mol
# Density = 1.969360 g / cm^3
# Si number density = 19.738526 Si / 1000 Ang^3
#
#
#
# Elastic Constant Matrix: (Units=GPa)
#
#
# Indices 1 2 3 4 5 6 
#
# 1 60.7092 46.6749 22.9410 0.0000 0.0000 0.0000
# 2 46.6749 208.6082 81.0907 0.0000 0.0000 0.0000
# 3 22.9410 81.0907 63.1694 0.0000 0.0000 0.0000
# 4 0.0000 0.0000 0.0000 19.6939 0.0000 0.0000
# 5 0.0000 0.0000 0.0000 0.0000 12.6364 0.0000
# 6 0.0000 0.0000 0.0000 0.0000 0.0000 28.7372
#
#
#
# Elastic Compliance Matrix: (Units=1/GPa)
#
#
# Indices 1 2 3 4 5 6 
#
# 1 0.020186 -0.003327 -0.003060 0.000000 0.000000 0.000000
# 2 -0.003327 0.010117 -0.011778 0.000000 0.000000 0.000000
# 3 -0.003060 -0.011778 0.032062 0.000000 0.000000 0.000000
# 4 0.000000 0.000000 0.000000 0.050777 0.000000 0.000000
# 5 0.000000 0.000000 0.000000 0.000000 0.079136 0.000000
# 6 0.000000 0.000000 0.000000 0.000000 0.000000 0.034798
#
#
# Mechanical properties :
#
#
# Convention : Reuss Voigt Hill
#
# Bulk Modulus (GPa) = 38.41190 70.43333 54.42262
# Shear Modulus (GPa) = 18.37660 24.33218 21.35439
#
# Velocity S-wave (km/s) = 3.05454 3.51483 3.29274
# Velocity P-wave (km/s) = 5.65181 7.22722 6.48751
#
# Compressibility (1/GPa) = 0.02603360
#
# Stress axis : x y z
#
# Youngs Moduli (GPa) = 49.53873 98.84695 31.18978
#
# Poissons Ratio (x) = 0.32887 0.09544
# Poissons Ratio (y) = 0.16482 0.36737
# Poissons Ratio (z) = 0.15159 1.16427
#
# Static dielectric constant tensor:
#      x y z
#    x 1.662660 0.000000 0.000000 
#    y 0.000000 1.745470 0.000000 
#    z 0.000000 0.000000 1.664150 
# 
# From -- ./inp_files/40651.got.cif
#   From: 2010.05.17/outbox.cif.g08.bks.cpg/sg67_21_cif.got.tgz:40651.got - 2010.06.03 18:28:57.
