data_PCOD9503363
_publ_section_title
;
Structure prediction by ZEFSAII (Michael W. Deem and Ramdas Pophale) SiO2 
 PCOD9503363
Probable space group: C M M A
;
_chemical_formula_sum "Si O2"
_cell_formula_units_Z 80
_cell_length_a 15.476019
_cell_length_b 10.296371
_cell_length_c 28.025043
_cell_angle_alpha 90.000000
_cell_angle_beta 90.000000
_cell_angle_gamma 90.000000
_cell_volume 4465.701853
_symmetry_space_group_name_H-M "C M M A"
_symmetry_group_IT_number 67
_symmetry_cell_setting 'orthorhombic'
loop_
_space_group_symop_operation_xyz
x,y,z
-x,1/2-y,z
x,-y,-z
-x,1/2+y,-z
-x,-y,-z
x,1/2+y,-z
-x,y,z
x,1/2-y,z
1/2+x,1/2+y,z
1/2-x,-y,z
1/2+x,1/2-y,-z
1/2-x,y,-z
1/2-x,1/2-y,-z
1/2+x,y,-z
1/2-x,1/2+y,z
1/2+x,-y,z
loop_
_atom_site_type_symbol
_atom_site_label
_atom_site_fract_x
_atom_site_fract_y
_atom_site_fract_z
Si Si1 0.000000 0.093220 0.795078
Si Si2 0.828523 0.904590 0.147070
Si Si3 0.152565 0.491130 0.615949
Si Si4 0.894589 0.250000 0.550431
Si Si5 0.395981 0.898057 0.959927
Si Si6 0.603474 0.250000 0.560012
Si Si7 0.000000 0.907751 0.315466
O O1 0.913201 0.055515 0.822872
O O2 0.000000 0.053838 0.739902
O O3 0.000000 0.250000 0.795842
O O4 0.810964 0.750000 0.155586
O O5 0.851943 0.918276 0.091120
O O6 0.750000 0.000000 0.158775
O O7 0.250000 0.500000 0.634443
O O8 0.140795 0.375270 0.577841
O O9 0.133006 0.623233 0.588062
O O10 0.083516 0.462228 0.657141
O O11 0.868246 0.250000 0.495142
O O12 0.000000 0.250000 0.553464
O O13 0.500000 0.910427 0.953170
O O14 0.378996 0.750000 0.975610
O O15 0.368669 0.000000 0.000000
O O16 0.500000 0.250000 0.559006
O O17 0.000000 0.750000 0.319146
#
# Coordination Sequence:
#
# PCOD9503363 Si02
#       7
#     8  16  16   8  16   8   8
#     4   9  20  40  67  82 107 153 196 240 293 352
#     4  10  20  37  61  88 117 151 197 242 289 348
#     4  12  23  38  61  88 118 152 191 235 284 340
#     4  11  21  41  61  84 121 159 198 225 269 346
#     4   9  17  31  53  82 116 158 198 234 281 342
#     4  11  23  37  61  88 121 159 186 233 287 330
#     4  11  22  43  64  86 112 149 197 239 290 353
#
# _framework density 17.914317
#
# number of rings (size 3 to 8) (size 9 to 14) (size 15 to 20)
#    0.000    1.600    4.000    1.200    0.000    6.000 
#    0.000    2.500    4.400    0.000    0.000    0.000 
#    0.000    0.000    0.000    0.000    0.000    0.000 
#
# Total GULP energy -223408.301823 kJ/mol
# GULP energy per Si atom -5585.207546 kJ/mol
# Density = 1.787354 g / cm^3
# Si number density = 17.914317 Si / 1000 Ang^3
#
#
#
# Elastic Constant Matrix: (Units=GPa)
#
#
# Indices 1 2 3 4 5 6 
#
# 1 146.8164 62.8611 73.4813 0.0000 0.0000 0.0000
# 2 62.8611 121.4368 67.9115 0.0000 0.0000 0.0000
# 3 73.4813 67.9115 127.4317 0.0000 0.0000 0.0000
# 4 0.0000 0.0000 0.0000 17.9529 0.0000 0.0000
# 5 0.0000 0.0000 0.0000 0.0000 -11.8392 0.0000
# 6 0.0000 0.0000 0.0000 0.0000 0.0000 41.6558
#
#
#
# Elastic Compliance Matrix: (Units=1/GPa)
#
#
# Indices 1 2 3 4 5 6 
#
# 1 0.010219 -0.002841 -0.004379 0.000000 0.000000 0.000000
# 2 -0.002841 0.012521 -0.005034 0.000000 0.000000 0.000000
# 3 -0.004379 -0.005034 0.013055 0.000000 0.000000 0.000000
# 4 0.000000 0.000000 0.000000 0.055701 0.000000 0.000000
# 5 0.000000 0.000000 0.000000 0.000000 -0.084465 0.000000
# 6 0.000000 0.000000 0.000000 0.000000 0.000000 0.024006
#
#
# Mechanical properties :
#
#
# Convention : Reuss Voigt Hill
#
# Bulk Modulus (GPa) = 88.59850 89.35474 88.97662
# Shear Modulus (GPa) = 84.30579 22.31597 53.31088
#
# Velocity S-wave (km/s) = 6.86751 3.53328 5.46108
# Velocity P-wave (km/s) = 10.60414 8.16289 9.46257
#
# Compressibility (1/GPa) = 0.01128687
#
# Stress axis : x y z
#
# Youngs Moduli (GPa) = 97.85490 79.86669 76.59874
#
# Poissons Ratio (x) = 0.22693 0.33539
# Poissons Ratio (y) = 0.27804 0.38562
# Poissons Ratio (z) = 0.42846 0.40207
#
# Static dielectric constant tensor:
#      x y z
#    x 1.626490 0.000000 0.000000 
#    y 0.000000 1.631560 0.000000 
#    z 0.000000 0.000000 1.587070 
# 
# From -- ./inp_files/41805.got.cif
#   From: 2010.05.17/outbox.cif.g08.bks.cpg/sg67_21_cif.got.tgz:41805.got - 2010.06.03 18:28:57.
