data_PCOD9503353
_publ_section_title
;
Structure prediction by ZEFSAII (Michael W. Deem and Ramdas Pophale) SiO2 
 PCOD9503353
Probable space group: C M M A
;
_chemical_formula_sum "Si O2"
_cell_formula_units_Z 104
_cell_length_a 19.468259
_cell_length_b 9.206625
_cell_length_c 30.332213
_cell_angle_alpha 90.000000
_cell_angle_beta 90.000000
_cell_angle_gamma 90.000000
_cell_volume 5436.653649
_symmetry_space_group_name_H-M "C M M A"
_symmetry_group_IT_number 67
_symmetry_cell_setting 'orthorhombic'
loop_
_space_group_symop_operation_xyz
x,y,z
-x,1/2-y,z
x,-y,-z
-x,1/2+y,-z
-x,-y,-z
x,1/2+y,-z
-x,y,z
x,1/2-y,z
1/2+x,1/2+y,z
1/2-x,-y,z
1/2+x,1/2-y,-z
1/2-x,y,-z
1/2-x,1/2-y,-z
1/2+x,y,-z
1/2-x,1/2+y,z
1/2+x,-y,z
loop_
_atom_site_type_symbol
_atom_site_label
_atom_site_fract_x
_atom_site_fract_y
_atom_site_fract_z
Si Si1 0.151952 0.577353 0.048200
Si Si2 0.000000 0.091767 0.957096
Si Si3 0.081244 0.077924 0.802231
Si Si4 0.583488 0.416514 0.543718
Si Si5 0.816329 0.077768 0.136016
Si Si6 0.676072 0.923533 0.716820
Si Si7 0.919630 0.075205 0.634618
O O1 0.172293 0.750000 0.046486
O O2 0.072577 0.575106 0.064899
O O3 0.183601 0.476546 0.085552
O O4 0.158252 0.500000 0.000000
O O5 0.000000 0.250000 0.976712
O O6 0.000000 0.000000 0.000000
O O7 0.088648 0.250000 0.813311
O O8 0.125590 0.049681 0.758228
O O9 0.000000 0.049991 0.796411
O O10 0.116311 0.980541 0.839547
O O11 0.607617 0.500000 0.500000
O O12 0.500000 0.414471 0.541736
O O13 0.607079 0.250000 0.544355
O O14 0.600263 0.499631 0.588785
O O15 0.810163 0.250000 0.138461
O O16 0.750000 0.000000 0.157478
O O17 0.687444 0.750000 0.714921
O O18 0.632423 0.966783 0.673483
O O19 0.750000 0.000000 0.720125
O O20 0.917172 0.250000 0.629696
O O21 0.000000 0.038537 0.644785
#
# Coordination Sequence:
#
# PCOD9503353 Si02
#       7
#    16   8  16  16  16  16  16
#     4  10  20  37  60  89 121 158 197 239 287 338
#     4   8  16  30  52  80 112 146 182 224 274 324
#     4  10  22  42  67  92 119 152 191 237 290 348
#     4   9  16  26  43  71 107 146 188 235 288 340
#     4  12  26  43  62  88 121 159 199 241 289 344
#     4  10  21  37  59  86 116 152 190 232 285 346
#     4   9  17  31  52  78 109 146 191 239 285 338
#
# _framework density 19.129415000000002
#
# number of rings (size 3 to 8) (size 9 to 14) (size 15 to 20)
#    0.000    2.154    0.000    3.231    1.077    7.385 
#    0.000    1.538    0.000    3.231    0.000    3.231 
#    0.000    0.000    0.000    0.000    0.000    0.000 
#
# Total GULP energy -289839.634594 kJ/mol
# GULP energy per Si atom -5573.839127 kJ/mol
# Density = 1.908588 g / cm^3
# Si number density = 19.129415 Si / 1000 Ang^3
#
#
#
# Elastic Constant Matrix: (Units=GPa)
#
#
# Indices 1 2 3 4 5 6 
#
# 1 112.9692 74.6309 56.8295 0.0000 0.0000 0.0000
# 2 74.6309 106.9099 75.7435 0.0000 0.0000 0.0000
# 3 56.8295 75.7435 128.8581 0.0000 0.0000 0.0000
# 4 0.0000 0.0000 0.0000 26.4340 0.0000 0.0000
# 5 0.0000 0.0000 0.0000 0.0000 10.1834 0.0000
# 6 0.0000 0.0000 0.0000 0.0000 0.0000 21.9969
#
#
#
# Elastic Compliance Matrix: (Units=1/GPa)
#
#
# Indices 1 2 3 4 5 6 
#
# 1 0.016484 -0.010893 -0.000867 0.000000 0.000000 0.000000
# 2 -0.010893 0.023227 -0.008849 0.000000 0.000000 0.000000
# 3 -0.000867 -0.008849 0.013344 0.000000 0.000000 0.000000
# 4 0.000000 0.000000 0.000000 0.037830 0.000000 0.000000
# 5 0.000000 0.000000 0.000000 0.000000 0.098199 0.000000
# 6 0.000000 0.000000 0.000000 0.000000 0.000000 0.045461
#
#
# Mechanical properties :
#
#
# Convention : Reuss Voigt Hill
#
# Bulk Modulus (GPa) = 84.47504 84.79388 84.63446
# Shear Modulus (GPa) = 17.87567 21.15841 19.51704
#
# Velocity S-wave (km/s) = 3.06021 3.32937 3.19762
# Velocity P-wave (km/s) = 7.53274 7.69430 7.61395
#
# Compressibility (1/GPa) = 0.01183782
#
# Stress axis : x y z
#
# Youngs Moduli (GPa) = 60.66338 43.05318 74.93840
#
# Poissons Ratio (x) = 0.46898 0.06497
# Poissons Ratio (y) = 0.66081 0.66312
# Poissons Ratio (z) = 0.05260 0.38097
#
# Static dielectric constant tensor:
#      x y z
#    x 1.713300 0.000000 0.000000 
#    y 0.000000 1.644850 0.000000 
#    z 0.000000 0.000000 1.653890 
# 
# From -- ./inp_files/44671.got.cif
#   From: 2010.05.17/outbox.cif.g08.bks.cpg/sg67_23_cif.got.tgz:44671.got - 2010.06.03 18:28:57.
