data_PCOD9503484
_publ_section_title
;
Structure prediction by ZEFSAII (Michael W. Deem and Ramdas Pophale) SiO2 
 PCOD9503484
Probable space group: C M M A
;
_chemical_formula_sum "Si O2"
_cell_formula_units_Z 88
_cell_length_a 8.813201
_cell_length_b 16.544951
_cell_length_c 30.141245
_cell_angle_alpha 90.000000
_cell_angle_beta 90.000000
_cell_angle_gamma 90.000000
_cell_volume 4395.014856
_symmetry_space_group_name_H-M "C M M A"
_symmetry_group_IT_number 67
_symmetry_cell_setting 'orthorhombic'
loop_
_space_group_symop_operation_xyz
x,y,z
-x,1/2-y,z
x,-y,-z
-x,1/2+y,-z
-x,-y,-z
x,1/2+y,-z
-x,y,z
x,1/2-y,z
1/2+x,1/2+y,z
1/2-x,-y,z
1/2+x,1/2-y,-z
1/2-x,y,-z
1/2-x,1/2-y,-z
1/2+x,y,-z
1/2-x,1/2+y,z
1/2+x,-y,z
loop_
_atom_site_type_symbol
_atom_site_label
_atom_site_fract_x
_atom_site_fract_y
_atom_site_fract_z
Si Si1 0.322898 0.843153 0.693121
Si Si2 0.320477 0.914053 0.222929
Si Si3 0.181158 0.909801 0.954463
Si Si4 0.183776 0.750000 0.450809
Si Si5 0.816765 0.414212 0.600660
Si Si6 0.825496 0.654465 0.134035
O O1 0.500000 0.860924 0.703344
O O2 0.316040 0.750000 0.678173
O O3 0.227333 0.855096 0.737385
O O4 0.272789 0.898115 0.652013
O O5 0.500000 0.918925 0.218670
O O6 0.248961 0.887961 0.176224
O O7 0.250000 0.000000 0.235461
O O8 0.234686 0.863594 0.910787
O O9 0.000000 0.913434 0.957505
O O10 0.250000 0.000000 0.950686
O O11 0.250000 0.874445 0.000000
O O12 0.250000 0.750000 0.500000
O O13 0.230143 0.833602 0.426303
O O14 0.000000 0.750000 0.451651
O O15 0.750000 0.500000 0.585311
O O16 0.000000 0.418114 0.599055
O O17 0.825630 0.750000 0.142333
O O18 0.000000 0.626889 0.128671
#
# Coordination Sequence:
#
# PCOD9503484 Si02
#       6
#    16  16  16   8  16  16
#     4  10  20  38  63  89 122 163 202 248 308 370
#     4  12  25  40  59  86 120 157 200 249 299 359
#     4  11  22  39  63  89 118 151 192 240 292 352
#     4  10  22  42  64  90 126 168 212 262 321 378
#     4  10  21  39  63  91 125 166 211 260 315 377
#     4  11  24  42  62  85 116 154 195 241 297 358
#
# _framework density 20.022686
#
# number of rings (size 3 to 8) (size 9 to 14) (size 15 to 20)
#    0.000    1.273    0.909    6.000    0.000    7.636 
#    0.000    1.818    0.000    0.000    0.000    0.000 
#    0.000    0.000    0.000    0.000    0.000    0.000 
#
# Total GULP energy -245995.183385 kJ/mol
# GULP energy per Si atom -5590.799622 kJ/mol
# Density = 1.997711 g / cm^3
# Si number density = 20.022686 Si / 1000 Ang^3
#
#
#
# Elastic Constant Matrix: (Units=GPa)
#
#
# Indices 1 2 3 4 5 6 
#
# 1 119.6135 26.0253 37.8025 0.0000 0.0000 0.0000
# 2 26.0253 90.0426 30.6254 0.0000 0.0000 0.0000
# 3 37.8025 30.6254 101.6772 0.0000 0.0000 0.0000
# 4 0.0000 0.0000 0.0000 33.1494 0.0000 0.0000
# 5 0.0000 0.0000 0.0000 0.0000 31.9319 0.0000
# 6 0.0000 0.0000 0.0000 0.0000 0.0000 27.7182
#
#
#
# Elastic Compliance Matrix: (Units=1/GPa)
#
#
# Indices 1 2 3 4 5 6 
#
# 1 0.009717 -0.001760 -0.003083 0.000000 0.000000 0.000000
# 2 -0.001760 0.012692 -0.003169 0.000000 0.000000 0.000000
# 3 -0.003083 -0.003169 0.011936 0.000000 0.000000 0.000000
# 4 0.000000 0.000000 0.000000 0.030166 0.000000 0.000000
# 5 0.000000 0.000000 0.000000 0.000000 0.031317 0.000000
# 6 0.000000 0.000000 0.000000 0.000000 0.000000 0.036077
#
#
# Mechanical properties :
#
#
# Convention : Reuss Voigt Hill
#
# Bulk Modulus (GPa) = 54.57771 55.58219 55.07995
# Shear Modulus (GPa) = 32.45993 33.01858 32.73926
#
# Velocity S-wave (km/s) = 4.03073 4.06527 4.04803
# Velocity P-wave (km/s) = 6.99853 7.06081 7.02974
#
# Compressibility (1/GPa) = 0.01832250
#
# Stress axis : x y z
#
# Youngs Moduli (GPa) = 102.90729 78.78802 83.78348
#
# Poissons Ratio (x) = 0.13868 0.25828
# Poissons Ratio (y) = 0.18114 0.26547
# Poissons Ratio (z) = 0.31723 0.24964
#
# Static dielectric constant tensor:
#      x y z
#    x 1.681490 0.000000 0.000000 
#    y 0.000000 1.713570 0.000000 
#    z 0.000000 0.000000 1.684870 
# 
# From -- ./inp_files/45272.got.cif
#   From: 2010.05.17/outbox.cif.g08.bks.cpg/sg67_23_cif.got.tgz:45272.got - 2010.06.03 18:28:57.
