data_PCOD9503274
_publ_section_title
;
Structure prediction by ZEFSAII (Michael W. Deem and Ramdas Pophale) SiO2 
 PCOD9503274
Probable space group: C M M A
;
_chemical_formula_sum "Si O2"
_cell_formula_units_Z 96
_cell_length_a 14.951860
_cell_length_b 17.137972
_cell_length_c 17.964646
_cell_angle_alpha 90.000000
_cell_angle_beta 90.000000
_cell_angle_gamma 90.000000
_cell_volume 4603.342774
_symmetry_space_group_name_H-M "C M M A"
_symmetry_group_IT_number 67
_symmetry_cell_setting 'orthorhombic'
loop_
_space_group_symop_operation_xyz
x,y,z
-x,1/2-y,z
x,-y,-z
-x,1/2+y,-z
-x,-y,-z
x,1/2+y,-z
-x,y,z
x,1/2-y,z
1/2+x,1/2+y,z
1/2-x,-y,z
1/2+x,1/2-y,-z
1/2-x,y,-z
1/2-x,1/2-y,-z
1/2+x,y,-z
1/2-x,1/2+y,z
1/2+x,-y,z
loop_
_atom_site_type_symbol
_atom_site_label
_atom_site_fract_x
_atom_site_fract_y
_atom_site_fract_z
Si Si1 0.665383 0.948069 0.206381
Si Si2 0.402368 0.657181 0.642299
Si Si3 0.799115 0.344049 0.336695
Si Si4 0.500000 0.378039 0.990994
Si Si5 0.310959 0.662007 0.065624
Si Si6 0.103690 0.588541 0.521432
Si Si7 0.500000 0.019821 0.128362
O O1 0.644757 0.890790 0.274893
O O2 0.689500 0.892268 0.137067
O O3 0.585977 0.003822 0.178861
O O4 0.750000 0.000000 0.225463
O O5 0.500000 0.624961 0.668207
O O6 0.406176 0.750000 0.651677
O O7 0.305954 0.634171 0.674932
O O8 0.395510 0.637014 0.554896
O O9 0.808277 0.250000 0.331588
O O10 0.833083 0.373875 0.416707
O O11 0.500000 0.403080 0.077535
O O12 0.410010 0.335180 0.968237
O O13 0.500000 0.452659 0.935346
O O14 0.280439 0.750000 0.083479
O O15 0.250000 0.628253 0.000000
O O16 0.129309 0.500000 0.500000
O O17 0.000000 0.586672 0.548324
#
# Coordination Sequence:
#
# PCOD9503274 Si02
#       7
#    16  16  16   8  16  16   8
#     4  11  24  40  59  89 125 171 206 259 315 374
#     4   9  19  38  61  84 113 156 207 261 319 380
#     4  11  24  40  61  90 125 165 212 262 321 385
#     4   9  17  34  62  88 119 157 200 254 303 367
#     4  10  20  36  62  91 123 161 208 259 307 365
#     4  10  22  38  61  90 121 158 202 261 317 385
#     4   9  20  38  58  88 121 156 207 250 306 368
#
# _framework density 20.854410999999999
#
# number of rings (size 3 to 8) (size 9 to 14) (size 15 to 20)
#    0.000    2.000    0.000    2.750    3.500    4.667 
#    1.500    0.833    0.000    0.000    0.000    0.000 
#    0.000    0.000    0.000    0.000    0.000    0.000 
#
# Total GULP energy -267920.503626 kJ/mol
# GULP energy per Si atom -5581.677159 kJ/mol
# Density = 2.080695 g / cm^3
# Si number density = 20.854411 Si / 1000 Ang^3
#
#
#
# Elastic Constant Matrix: (Units=GPa)
#
#
# Indices 1 2 3 4 5 6 
#
# 1 59.2368 20.7784 3.9027 0.0000 0.0000 0.0000
# 2 20.7784 62.3770 31.1044 0.0000 0.0000 0.0000
# 3 3.9027 31.1044 52.3960 0.0000 0.0000 0.0000
# 4 0.0000 0.0000 0.0000 24.8700 0.0000 0.0000
# 5 0.0000 0.0000 0.0000 0.0000 20.2152 0.0000
# 6 0.0000 0.0000 0.0000 0.0000 0.0000 16.2899
#
#
#
# Elastic Compliance Matrix: (Units=1/GPa)
#
#
# Indices 1 2 3 4 5 6 
#
# 1 0.019537 -0.008214 0.003421 0.000000 0.000000 0.000000
# 2 -0.008214 0.026226 -0.014957 0.000000 0.000000 0.000000
# 3 0.003421 -0.014957 0.027710 0.000000 0.000000 0.000000
# 4 0.000000 0.000000 0.000000 0.040209 0.000000 0.000000
# 5 0.000000 0.000000 0.000000 0.000000 0.049468 0.000000
# 6 0.000000 0.000000 0.000000 0.000000 0.000000 0.061388
#
#
# Mechanical properties :
#
#
# Convention : Reuss Voigt Hill
#
# Bulk Modulus (GPa) = 29.43522 31.73118 30.58320
# Shear Modulus (GPa) = 18.15794 20.15665 19.15729
#
# Velocity S-wave (km/s) = 2.95396 3.11230 3.03416
# Velocity P-wave (km/s) = 5.07738 5.30696 5.19344
#
# Compressibility (1/GPa) = 0.03397290
#
# Stress axis : x y z
#
# Youngs Moduli (GPa) = 51.18445 38.13010 36.08846
#
# Poissons Ratio (x) = 0.31319 -0.12345
# Poissons Ratio (y) = 0.42042 0.53978
# Poissons Ratio (z) = -0.17509 0.57031
#
# Static dielectric constant tensor:
#      x y z
#    x 1.805910 0.000000 0.000000 
#    y 0.000000 1.729170 0.000000 
#    z 0.000000 0.000000 1.440010 
# 
# From -- ./inp_files/27279.got.cif
#   From: 2010.05.17/outbox.cif.g08.bks.cpg/sg67_14_cif.got.tgz:27279.got - 2010.06.03 18:28:57.
