data_PCOD9503252
_publ_section_title
;
Structure prediction by ZEFSAII (Michael W. Deem and Ramdas Pophale) SiO2 
 PCOD9503252
Probable space group: C M M A
;
_chemical_formula_sum "Si O2"
_cell_formula_units_Z 104
_cell_length_a 25.273061
_cell_length_b 9.639741
_cell_length_c 22.569268
_cell_angle_alpha 90.000000
_cell_angle_beta 90.000000
_cell_angle_gamma 90.000000
_cell_volume 5498.455121
_symmetry_space_group_name_H-M "C M M A"
_symmetry_group_IT_number 67
_symmetry_cell_setting 'orthorhombic'
loop_
_space_group_symop_operation_xyz
x,y,z
-x,1/2-y,z
x,-y,-z
-x,1/2+y,-z
-x,-y,-z
x,1/2+y,-z
-x,y,z
x,1/2-y,z
1/2+x,1/2+y,z
1/2-x,-y,z
1/2+x,1/2-y,-z
1/2-x,y,-z
1/2-x,1/2-y,-z
1/2+x,y,-z
1/2-x,1/2+y,z
1/2+x,-y,z
loop_
_atom_site_type_symbol
_atom_site_label
_atom_site_fract_x
_atom_site_fract_y
_atom_site_fract_z
Si Si1 0.596989 0.086960 0.353980
Si Si2 0.500000 0.910706 0.558047
Si Si3 0.805165 0.080215 0.560250
Si Si4 0.562629 0.584543 0.239058
Si Si5 0.675539 0.750000 0.052865
Si Si6 0.201259 0.250000 0.913642
Si Si7 0.558448 0.098393 0.047256
Si Si8 0.362174 0.494464 0.132715
O O1 0.595896 0.250000 0.336890
O O2 0.551579 0.063674 0.402578
O O3 0.652694 0.060119 0.386953
O O4 0.581224 0.994874 0.297990
O O5 0.500000 0.750000 0.541075
O O6 0.500000 0.000000 0.500000
O O7 0.799224 0.250000 0.551499
O O8 0.823680 0.000000 0.500000
O O9 0.750000 0.000000 0.573860
O O10 0.500000 0.546646 0.224390
O O11 0.562165 0.750000 0.247552
O O12 0.609534 0.551446 0.191509
O O13 0.737629 0.750000 0.069028
O O14 0.651253 0.881219 0.087559
O O15 0.672737 0.750000 0.980038
O O16 0.185987 0.385351 0.874621
O O17 0.500000 0.043359 0.059729
O O18 0.554454 0.250000 0.021062
O O19 0.590612 0.097122 0.106087
O O20 0.584298 0.000000 0.000000
#
# Coordination Sequence:
#
# PCOD9503252 Si02
#       8
#    16   8  16  16   8   8  16  16
#     4  10  22  40  64  93 127 172 221 270 316 376
#     4  10  20  36  60  98 134 168 211 268 323 375
#     4  10  20  36  61  95 133 174 217 264 319 375
#     4  11  25  44  65  90 124 167 213 258 315 383
#     4  11  24  44  67  91 129 155 202 271 318 389
#     4  11  24  42  69  97 117 161 208 257 332 383
#     4  10  21  35  54  84 118 152 192 239 297 367
#     4  12  23  41  63  92 122 161 203 252 314 382
#
# _framework density 18.914404000000001
#
# number of rings (size 3 to 8) (size 9 to 14) (size 15 to 20)
#    0.000    1.385    2.308    3.692    2.154    3.077 
#    0.000    1.538    0.000    0.000    0.000    0.000 
#    0.000    0.000    0.000    0.000    0.000    0.000 
#
# Total GULP energy -289481.558515 kJ/mol
# GULP energy per Si atom -5566.953048 kJ/mol
# Density = 1.887135 g / cm^3
# Si number density = 18.914404 Si / 1000 Ang^3
#
#
#
# Elastic Constant Matrix: (Units=GPa)
#
#
# Indices 1 2 3 4 5 6 
#
# 1 103.4970 41.0726 56.4786 0.0000 0.0000 0.0000
# 2 41.0726 119.4467 70.6854 0.0000 0.0000 0.0000
# 3 56.4786 70.6854 109.0985 0.0000 0.0000 0.0000
# 4 0.0000 0.0000 0.0000 34.4664 0.0000 0.0000
# 5 0.0000 0.0000 0.0000 0.0000 26.0436 0.0000
# 6 0.0000 0.0000 0.0000 0.0000 0.0000 33.1451
#
#
#
# Elastic Compliance Matrix: (Units=1/GPa)
#
#
# Indices 1 2 3 4 5 6 
#
# 1 0.013516 -0.000822 -0.006464 0.000000 0.000000 0.000000
# 2 -0.000822 0.013628 -0.008404 0.000000 0.000000 0.000000
# 3 -0.006464 -0.008404 0.017957 0.000000 0.000000 0.000000
# 4 0.000000 0.000000 0.000000 0.029014 0.000000 0.000000
# 5 0.000000 0.000000 0.000000 0.000000 0.038397 0.000000
# 6 0.000000 0.000000 0.000000 0.000000 0.000000 0.030170
#
#
# Mechanical properties :
#
#
# Convention : Reuss Voigt Hill
#
# Bulk Modulus (GPa) = 72.88385 74.27950 73.58167
# Shear Modulus (GPa) = 27.98973 29.65140 28.82056
#
# Velocity S-wave (km/s) = 3.85100 3.96367 3.90774
# Velocity P-wave (km/s) = 7.64139 7.76558 7.70373
#
# Compressibility (1/GPa) = 0.01372046
#
# Stress axis : x y z
#
# Youngs Moduli (GPa) = 73.98638 73.37902 55.68705
#
# Poissons Ratio (x) = 0.06033 0.35998
# Poissons Ratio (y) = 0.06083 0.46799
# Poissons Ratio (z) = 0.47827 0.61667
#
# Static dielectric constant tensor:
#      x y z
#    x 1.731100 0.000000 0.000000 
#    y 0.000000 1.699490 0.000000 
#    z 0.000000 0.000000 1.641720 
# 
# From -- ./inp_files/40006.got.cif
#   From: 2010.05.17/outbox.cif.g08.bks.cpg/sg67_21_cif.got.tgz:40006.got - 2010.06.03 18:28:57.
