data_PCOD9503957
_publ_section_title
;
Structure prediction by ZEFSAII (Michael W. Deem and Ramdas Pophale) SiO2 
 PCOD9503957
Probable space group: C M M A
;
_chemical_formula_sum "Si O2"
_cell_formula_units_Z 100
_cell_length_a 9.369492
_cell_length_b 29.874507
_cell_length_c 19.699845
_cell_angle_alpha 90.000000
_cell_angle_beta 90.000000
_cell_angle_gamma 90.000000
_cell_volume 5514.163015
_symmetry_space_group_name_H-M "C M M A"
_symmetry_group_IT_number 67
_symmetry_cell_setting 'orthorhombic'
loop_
_space_group_symop_operation_xyz
x,y,z
-x,1/2-y,z
x,-y,-z
-x,1/2+y,-z
-x,-y,-z
x,1/2+y,-z
-x,y,z
x,1/2-y,z
1/2+x,1/2+y,z
1/2-x,-y,z
1/2+x,1/2-y,-z
1/2-x,y,-z
1/2-x,1/2-y,-z
1/2+x,y,-z
1/2-x,1/2+y,z
1/2+x,-y,z
loop_
_atom_site_type_symbol
_atom_site_label
_atom_site_fract_x
_atom_site_fract_y
_atom_site_fract_z
Si Si1 0.660895 0.431447 0.612984
Si Si2 0.831147 0.136868 0.821607
Si Si3 0.250000 0.500000 0.500000
Si Si4 0.670553 0.198436 0.927863
Si Si5 0.833014 0.170495 0.432507
Si Si6 0.837361 0.799852 0.305909
Si Si7 0.170897 0.545541 0.251218
O O1 0.500000 0.431935 0.641573
O O2 0.668819 0.467194 0.552002
O O3 0.688898 0.382431 0.582490
O O4 0.769841 0.441999 0.673696
O O5 0.736847 0.161618 0.877697
O O6 0.809640 0.164267 0.751974
O O7 0.798019 0.085761 0.801383
O O8 0.000000 0.140032 0.839321
O O9 0.500000 0.192700 0.935158
O O10 0.695141 0.250000 0.903467
O O11 0.750000 0.194621 0.000000
O O12 0.750000 0.183339 0.500000
O O13 0.769604 0.195125 0.367610
O O14 0.000000 0.178711 0.440430
O O15 0.828817 0.750000 0.276529
O O16 0.000000 0.806752 0.330975
O O17 0.250000 0.500000 0.231336
O O18 0.000000 0.540027 0.254960
#
# Coordination Sequence:
#
# PCOD9503957 Si02
#       7
#    16  16   4  16  16  16  16
#     4  11  23  36  53  78 107 141 182 235 295 354
#     4  10  21  38  61  88 120 159 196 239 292 347
#     4  12  22  36  56  82 108 136 188 244 306 368
#     4  10  21  37  61  95 132 167 201 240 286 342
#     4  11  23  38  55  76 105 141 184 235 292 354
#     4  10  21  38  59  82 109 145 190 238 289 347
#     4  11  23  38  59  84 115 151 193 241 291 346
#
# _framework density 18.135119
#
# number of rings (size 3 to 8) (size 9 to 14) (size 15 to 20)
#    0.000    1.440    3.200    2.160    0.000    5.440 
#    0.000    0.000    0.000    0.480    0.000    3.360 
#    0.000    0.000    0.000    0.000    0.000    0.000 
#
# Total GULP energy -279232.373620 kJ/mol
# GULP energy per Si atom -5584.647472 kJ/mol
# Density = 1.809384 g / cm^3
# Si number density = 18.135119 Si / 1000 Ang^3
#
#
#
# Elastic Constant Matrix: (Units=GPa)
#
#
# Indices 1 2 3 4 5 6 
#
# 1 98.3263 58.1881 62.2902 0.0000 0.0000 0.0000
# 2 58.1881 88.0087 44.7317 0.0000 0.0000 0.0000
# 3 62.2902 44.7317 75.2819 0.0000 0.0000 0.0000
# 4 0.0000 0.0000 0.0000 39.4948 0.0000 0.0000
# 5 0.0000 0.0000 0.0000 0.0000 31.6848 0.0000
# 6 0.0000 0.0000 0.0000 0.0000 0.0000 18.1690
#
#
#
# Elastic Compliance Matrix: (Units=1/GPa)
#
#
# Indices 1 2 3 4 5 6 
#
# 1 0.025325 -0.008730 -0.015768 0.000000 0.000000 0.000000
# 2 -0.008730 0.019288 -0.004237 0.000000 0.000000 0.000000
# 3 -0.015768 -0.004237 0.028848 0.000000 0.000000 0.000000
# 4 0.000000 0.000000 0.000000 0.025320 0.000000 0.000000
# 5 0.000000 0.000000 0.000000 0.000000 0.031561 0.000000
# 6 0.000000 0.000000 0.000000 0.000000 0.000000 0.055039
#
#
# Mechanical properties :
#
#
# Convention : Reuss Voigt Hill
#
# Bulk Modulus (GPa) = 62.53406 65.78188 64.15797
# Shear Modulus (GPa) = 20.14657 24.29685 22.22171
#
# Velocity S-wave (km/s) = 3.33665 3.66425 3.50429
# Velocity P-wave (km/s) = 7.02862 7.36575 7.19916
#
# Compressibility (1/GPa) = 0.01599128
#
# Stress axis : x y z
#
# Youngs Moduli (GPa) = 39.48608 51.84506 34.66488
#
# Poissons Ratio (x) = 0.45261 0.54658
# Poissons Ratio (y) = 0.34472 0.14689
# Poissons Ratio (z) = 0.62260 0.21969
#
# Static dielectric constant tensor:
#      x y z
#    x 1.618330 0.000000 0.000000 
#    y 0.000000 1.641760 0.000000 
#    z 0.000000 0.000000 1.578420 
# 
# From -- ./inp_files/37531.got.cif
#   From: 2010.05.17/outbox.cif.g08.bks.cpg/sg67_19_cif.got.tgz:37531.got - 2010.06.03 18:28:57.
