data_PCOD9503310
_publ_section_title
;
Structure prediction by ZEFSAII (Michael W. Deem and Ramdas Pophale) SiO2 
 PCOD9503310
Probable space group: C M M A
;
_chemical_formula_sum "Si O2"
_cell_formula_units_Z 64
_cell_length_a 8.495715
_cell_length_b 15.892737
_cell_length_c 24.545046
_cell_angle_alpha 90.000000
_cell_angle_beta 90.000000
_cell_angle_gamma 90.000000
_cell_volume 3314.076139
_symmetry_space_group_name_H-M "C M M A"
_symmetry_group_IT_number 67
_symmetry_cell_setting 'orthorhombic'
loop_
_space_group_symop_operation_xyz
x,y,z
-x,1/2-y,z
x,-y,-z
-x,1/2+y,-z
-x,-y,-z
x,1/2+y,-z
-x,y,z
x,1/2-y,z
1/2+x,1/2+y,z
1/2-x,-y,z
1/2+x,1/2-y,-z
1/2-x,y,-z
1/2-x,1/2-y,-z
1/2+x,y,-z
1/2-x,1/2+y,z
1/2+x,-y,z
loop_
_atom_site_type_symbol
_atom_site_label
_atom_site_fract_x
_atom_site_fract_y
_atom_site_fract_z
Si Si1 0.690119 0.089619 0.825415
Si Si2 0.189329 0.651479 0.942293
Si Si3 0.310564 0.750000 0.370504
Si Si4 0.811943 0.091777 0.561562
Si Si5 0.308027 0.750000 0.244716
O O1 0.500000 0.089840 0.825791
O O2 0.744474 0.105391 0.887699
O O3 0.742928 0.166942 0.787830
O O4 0.750000 0.000000 0.805724
O O5 0.236907 0.750000 0.938114
O O6 0.000000 0.649238 0.943044
O O7 0.250000 0.618024 0.000000
O O8 0.500000 0.750000 0.372499
O O9 0.248694 0.667042 0.400873
O O10 0.259264 0.750000 0.307451
O O11 0.750000 0.105208 0.500000
O O12 0.000000 0.090739 0.560624
O O13 0.750000 0.000000 0.579469
O O14 0.500000 0.750000 0.243841
#
# Coordination Sequence:
#
# PCOD9503310 Si02
#       5
#    16  16   8  16   8
#     4  10  20  37  58  80 106 143 185 229 280 335
#     4   9  17  31  53  77 105 139 176 220 274 336
#     4  11  22  38  61  88 117 157 200 241 290 345
#     4  11  22  39  62  91 125 159 195 239 287 342
#     4   9  20  40  61  78 108 151 192 231 280 335
#
# _framework density 19.311565999999999
#
# number of rings (size 3 to 8) (size 9 to 14) (size 15 to 20)
#    0.000    2.000    1.250    3.750    0.000    2.500 
#    0.000    8.125    0.000    0.000    0.000    0.000 
#    0.000    0.000    0.000    0.000    0.000    0.000 
#
# Total GULP energy -178744.854236 kJ/mol
# GULP energy per Si atom -5585.776695 kJ/mol
# Density = 1.926761 g / cm^3
# Si number density = 19.311566 Si / 1000 Ang^3
#
#
#
# Elastic Constant Matrix: (Units=GPa)
#
#
# Indices 1 2 3 4 5 6 
#
# 1 65.4509 37.9893 38.5626 0.0000 0.0000 0.0000
# 2 37.9893 181.7015 112.6471 0.0000 0.0000 0.0000
# 3 38.5626 112.6471 143.3933 0.0000 0.0000 0.0000
# 4 0.0000 0.0000 0.0000 -1.7576 0.0000 0.0000
# 5 0.0000 0.0000 0.0000 0.0000 19.2665 0.0000
# 6 0.0000 0.0000 0.0000 0.0000 0.0000 28.2815
#
#
#
# Elastic Compliance Matrix: (Units=1/GPa)
#
#
# Indices 1 2 3 4 5 6 
#
# 1 0.018367 -0.001516 -0.003748 0.000000 0.000000 0.000000
# 2 -0.001516 0.010854 -0.008119 0.000000 0.000000 0.000000
# 3 -0.003748 -0.008119 0.014360 0.000000 0.000000 0.000000
# 4 0.000000 0.000000 0.000000 -0.568954 0.000000 0.000000
# 5 0.000000 0.000000 0.000000 0.000000 0.051904 0.000000
# 6 0.000000 0.000000 0.000000 0.000000 0.000000 0.035359
#
#
# Mechanical properties :
#
#
# Convention : Reuss Voigt Hill
#
# Bulk Modulus (GPa) = 59.47409 85.43818 72.45614
# Shear Modulus (GPa) = -12.32319 22.58118 5.12900
#
# Velocity S-wave (km/s) = -2.52885 3.42323 1.63147
# Velocity P-wave (km/s) = 4.72622 7.74356 6.41482
#
# Compressibility (1/GPa) = 0.01681405
#
# Stress axis : x y z
#
# Youngs Moduli (GPa) = 54.44494 92.13295 69.63886
#
# Poissons Ratio (x) = 0.13971 0.26102
# Poissons Ratio (y) = 0.08256 0.56538
# Poissons Ratio (z) = 0.20407 0.74801
#
# Static dielectric constant tensor:
#      x y z
#    x 1.663380 0.000000 0.000000 
#    y 0.000000 1.663320 0.000000 
#    z 0.000000 0.000000 1.661990 
# 
# From -- ./inp_files/40435.got.cif
#   From: 2010.05.17/outbox.cif.g08.bks.cpg/sg67_21_cif.got.tgz:40435.got - 2010.06.03 18:28:57.
