data_PCOD9503800
_publ_section_title
;
Structure prediction by ZEFSAII (Michael W. Deem and Ramdas Pophale) SiO2 
 PCOD9503800
Probable space group: C M M A
;
_chemical_formula_sum "Si O2"
_cell_formula_units_Z 112
_cell_length_a 16.002016
_cell_length_b 27.857774
_cell_length_c 12.387872
_cell_angle_alpha 90.000000
_cell_angle_beta 90.000000
_cell_angle_gamma 90.000000
_cell_volume 5522.272335
_symmetry_space_group_name_H-M "C M M A"
_symmetry_group_IT_number 67
_symmetry_cell_setting 'orthorhombic'
loop_
_space_group_symop_operation_xyz
x,y,z
-x,1/2-y,z
x,-y,-z
-x,1/2+y,-z
-x,-y,-z
x,1/2+y,-z
-x,y,z
x,1/2-y,z
1/2+x,1/2+y,z
1/2-x,-y,z
1/2+x,1/2-y,-z
1/2-x,y,-z
1/2-x,1/2-y,-z
1/2+x,y,-z
1/2-x,1/2+y,z
1/2+x,-y,z
loop_
_atom_site_type_symbol
_atom_site_label
_atom_site_fract_x
_atom_site_fract_y
_atom_site_fract_z
Si Si1 0.778870 0.692639 0.740100
Si Si2 0.911019 0.446586 0.953307
Si Si3 0.348735 0.446139 0.473851
Si Si4 0.594366 0.348057 0.564036
Si Si5 0.288388 0.947598 0.754478
Si Si6 0.906894 0.692197 0.321742
Si Si7 0.185808 0.380907 0.101130
O O1 0.781135 0.750000 0.735969
O O2 0.833049 0.672178 0.640478
O O3 0.680305 0.677058 0.735137
O O4 0.820118 0.671637 0.848762
O O5 0.842762 0.448698 0.861543
O O6 0.000000 0.434479 0.904347
O O7 0.912322 0.500000 0.000000
O O8 0.890477 0.409204 0.048081
O O9 0.378938 0.500000 0.500000
O O10 0.250000 0.444451 0.500000
O O11 0.392913 0.404639 0.541120
O O12 0.346817 0.434757 0.346452
O O13 0.500000 0.339315 0.606028
O O14 0.600789 0.323219 0.446656
O O15 0.216132 0.911505 0.793702
O O16 0.250000 0.000000 0.730712
O O17 0.908050 0.750000 0.315797
O O18 0.000000 0.675407 0.283645
O O19 0.250000 0.379767 0.000000
#
# Coordination Sequence:
#
# PCOD9503800 Si02
#       7
#    16  16  16  16  16  16  16
#     4  11  23  40  64  92 121 163 215 269 327 381
#     4  10  21  36  58  87 119 158 210 261 310 372
#     4  11  22  36  57  86 122 164 207 250 311 382
#     4  11  23  37  56  84 124 168 212 257 306 375
#     4  11  19  35  60  86 116 159 202 248 314 383
#     4   9  18  35  61  91 120 152 198 257 317 381
#     4  10  22  38  61  87 117 157 202 260 316 375
#
# _framework density 20.281506
#
# number of rings (size 3 to 8) (size 9 to 14) (size 15 to 20)
#    0.000    1.571    2.857    3.429    0.000    3.714 
#    0.000    5.714    0.000    0.000    0.000    2.000 
#    0.000    0.000    0.000    0.000    0.000    0.000 
#
# Total GULP energy -312318.852119 kJ/mol
# GULP energy per Si atom -5577.122359 kJ/mol
# Density = 2.023534 g / cm^3
# Si number density = 20.281506 Si / 1000 Ang^3
#
#
#
# Elastic Constant Matrix: (Units=GPa)
#
#
# Indices 1 2 3 4 5 6 
#
# 1 83.1815 25.4475 6.9551 0.0000 0.0000 0.0000
# 2 25.4475 76.5989 23.1232 0.0000 0.0000 0.0000
# 3 6.9551 23.1232 64.5721 0.0000 0.0000 0.0000
# 4 0.0000 0.0000 0.0000 33.8674 0.0000 0.0000
# 5 0.0000 0.0000 0.0000 0.0000 108.2814 0.0000
# 6 0.0000 0.0000 0.0000 0.0000 0.0000 -102.0013
#
#
#
# Elastic Compliance Matrix: (Units=1/GPa)
#
#
# Indices 1 2 3 4 5 6 
#
# 1 0.013384 -0.004497 0.000169 0.000000 0.000000 0.000000
# 2 -0.004497 0.016149 -0.005298 0.000000 0.000000 0.000000
# 3 0.000169 -0.005298 0.017366 0.000000 0.000000 0.000000
# 4 0.000000 0.000000 0.000000 0.029527 0.000000 0.000000
# 5 0.000000 0.000000 0.000000 0.000000 0.009235 0.000000
# 6 0.000000 0.000000 0.000000 0.000000 0.000000 -0.009804
#
#
# Mechanical properties :
#
#
# Convention : Reuss Voigt Hill
#
# Bulk Modulus (GPa) = 36.17369 37.26713 36.72041
# Shear Modulus (GPa) = 47.92742 19.28460 33.60601
#
# Velocity S-wave (km/s) = 4.86646 3.08693 4.07502
# Velocity P-wave (km/s) = 7.03214 5.57856 6.34710
#
# Compressibility (1/GPa) = 0.02764440
#
# Stress axis : x y z
#
# Youngs Moduli (GPa) = 74.71826 61.92514 57.58475
#
# Poissons Ratio (x) = 0.27849 -0.00973
# Poissons Ratio (y) = 0.33603 0.30511
# Poissons Ratio (z) = -0.01262 0.32810
#
# Static dielectric constant tensor:
#      x y z
#    x 1.761070 0.000000 0.000000 
#    y 0.000000 1.774100 0.000000 
#    z 0.000000 0.000000 1.713330 
# 
# From -- ./inp_files/18648.got.cif
#   From: 2010.05.17/outbox.cif.g08.bks.cpg/sg67_10_cif.got.tgz:18648.got - 2010.06.03 18:28:57.
