data_PCOD9503576
_publ_section_title
;
Structure prediction by ZEFSAII (Michael W. Deem and Ramdas Pophale) SiO2 
 PCOD9503576
Probable space group: C M M A
;
_chemical_formula_sum "Si O2"
_cell_formula_units_Z 60
_cell_length_a 19.055544
_cell_length_b 26.270443
_cell_length_c 5.285410
_cell_angle_alpha 90.000000
_cell_angle_beta 90.000000
_cell_angle_gamma 90.000000
_cell_volume 2645.863468
_symmetry_space_group_name_H-M "C M M A"
_symmetry_group_IT_number 67
_symmetry_cell_setting 'orthorhombic'
loop_
_space_group_symop_operation_xyz
x,y,z
-x,1/2-y,z
x,-y,-z
-x,1/2+y,-z
-x,-y,-z
x,1/2+y,-z
-x,y,z
x,1/2-y,z
1/2+x,1/2+y,z
1/2-x,-y,z
1/2+x,1/2-y,-z
1/2-x,y,-z
1/2-x,1/2-y,-z
1/2+x,y,-z
1/2-x,1/2+y,z
1/2+x,-y,z
loop_
_atom_site_type_symbol
_atom_site_label
_atom_site_fract_x
_atom_site_fract_y
_atom_site_fract_z
Si Si1 0.334676 0.809490 0.736262
Si Si2 0.364604 0.450143 0.862046
Si Si3 0.250000 0.119178 0.000000
Si Si4 0.750000 0.000000 0.500000
Si Si5 0.080892 0.843654 0.757616
O O1 0.319170 0.750000 0.728022
O O2 0.380441 0.825246 0.494967
O O3 0.262794 0.841516 0.771989
O O4 0.379865 0.822294 0.992140
O O5 0.315120 0.418125 0.049060
O O6 0.305248 0.467503 0.663436
O O7 0.414511 0.405887 0.760513
O O8 0.394695 0.500000 0.000000
O O9 0.000000 0.827996 0.759977
#
# Coordination Sequence:
#
# PCOD9503576 Si02
#       5
#    16  16   8   4  16
#     4  11  24  43  70  97 130 173 218 277 336 386
#     4  11  22  38  64  93 129 173 213 269 332 395
#     4  10  20  42  62 102 132 162 216 276 334 394
#     4  12  18  36  66  94 122 168 214 262 334 396
#     4  11  26  44  64  96 134 175 224 269 317 393
#
# _framework density 22.676905999999999
#
# number of rings (size 3 to 8) (size 9 to 14) (size 15 to 20)
#    0.000    1.067    2.667    3.600    3.733    6.933 
#    0.000    7.333    0.000    0.000    0.000    0.000 
#    0.000    0.000    0.000    0.000    0.000    0.000 
#
# Total GULP energy -167270.623997 kJ/mol
# GULP energy per Si atom -5575.687467 kJ/mol
# Density = 2.262529 g / cm^3
# Si number density = 22.676906 Si / 1000 Ang^3
#
#
#
# Elastic Constant Matrix: (Units=GPa)
#
#
# Indices 1 2 3 4 5 6 
#
# 1 66.1604 -14.1836 22.4194 0.0000 0.0000 0.0000
# 2 -14.1836 149.4632 25.3471 0.0000 0.0000 0.0000
# 3 22.4194 25.3471 140.7126 0.0000 0.0000 0.0000
# 4 0.0000 0.0000 0.0000 27.0066 0.0000 0.0000
# 5 0.0000 0.0000 0.0000 0.0000 25.5518 0.0000
# 6 0.0000 0.0000 0.0000 0.0000 0.0000 -33.2755
#
#
#
# Elastic Compliance Matrix: (Units=1/GPa)
#
#
# Indices 1 2 3 4 5 6 
#
# 1 0.016585 0.002086 -0.003018 0.000000 0.000000 0.000000
# 2 0.002086 0.007164 -0.001623 0.000000 0.000000 0.000000
# 3 -0.003018 -0.001623 0.007880 0.000000 0.000000 0.000000
# 4 0.000000 0.000000 0.000000 0.037028 0.000000 0.000000
# 5 0.000000 0.000000 0.000000 0.000000 0.039136 0.000000
# 6 0.000000 0.000000 0.000000 0.000000 0.000000 -0.030052
#
#
# Mechanical properties :
#
#
# Convention : Reuss Voigt Hill
#
# Bulk Modulus (GPa) = 37.71038 47.05577 42.38308
# Shear Modulus (GPa) = 54.53163 25.37347 39.95255
#
# Velocity S-wave (km/s) = 4.90912 3.34864 4.20195
# Velocity P-wave (km/s) = 6.98556 5.97886 6.50173
#
# Compressibility (1/GPa) = 0.02651790
#
# Stress axis : x y z
#
# Youngs Moduli (GPa) = 60.29680 139.59215 126.90586
#
# Poissons Ratio (x) = -0.29114 0.38301
# Poissons Ratio (y) = -0.12576 0.20593
# Poissons Ratio (z) = 0.18198 0.22652
#
# Static dielectric constant tensor:
#      x y z
#    x 1.906630 0.000000 0.000000 
#    y 0.000000 1.928920 0.000000 
#    z 0.000000 0.000000 1.904010 
# 
# From -- ./inp_files/2768.got.cif
#   From: 2010.05.17/outbox.cif.g08.bks.cpg/sg67_2_cif.got.tgz:2768.got - 2010.06.03 18:28:57.
