data_PCOD9503931
_publ_section_title
;
Structure prediction by ZEFSAII (Michael W. Deem and Ramdas Pophale) SiO2 
 PCOD9503931
Probable space group: C M M A
;
_chemical_formula_sum "Si O2"
_cell_formula_units_Z 64
_cell_length_a 18.858100
_cell_length_b 11.048625
_cell_length_c 13.232026
_cell_angle_alpha 90.000000
_cell_angle_beta 90.000000
_cell_angle_gamma 90.000000
_cell_volume 2756.973003
_symmetry_space_group_name_H-M "C M M A"
_symmetry_group_IT_number 67
_symmetry_cell_setting 'orthorhombic'
loop_
_space_group_symop_operation_xyz
x,y,z
-x,1/2-y,z
x,-y,-z
-x,1/2+y,-z
-x,-y,-z
x,1/2+y,-z
-x,y,z
x,1/2-y,z
1/2+x,1/2+y,z
1/2-x,-y,z
1/2+x,1/2-y,-z
1/2-x,y,-z
1/2-x,1/2-y,-z
1/2+x,y,-z
1/2-x,1/2+y,z
1/2+x,-y,z
loop_
_atom_site_type_symbol
_atom_site_label
_atom_site_fract_x
_atom_site_fract_y
_atom_site_fract_z
Si Si1 0.584329 0.618223 0.445516
Si Si2 0.668830 0.616400 0.071164
Si Si3 0.579315 0.492135 0.771918
Si Si4 0.722425 0.119235 0.261496
O O1 0.614604 0.500000 0.500000
O O2 0.500000 0.622371 0.471849
O O3 0.614305 0.750000 0.471247
O O4 0.587809 0.592230 0.326443
O O5 0.668537 0.750000 0.022312
O O6 0.596612 0.589357 0.131287
O O7 0.677770 0.500000 0.000000
O O8 0.771673 0.620494 0.839853
O O9 0.500000 0.541442 0.772473
O O10 0.640768 0.592884 0.765747
O O11 0.730585 0.250000 0.310206
O O12 0.750000 0.000000 0.318961
#
# Coordination Sequence:
#
# PCOD9503931 Si02
#       4
#    16  16  16  16
#     4   9  18  34  57  85 118 157 198 239 290 354
#     4  10  22  41  63  85 114 157 207 250 291 349
#     4  10  21  37  59  89 124 157 192 242 301 354
#     4   9  20  38  59  83 112 151 197 241 287 344
#
# _framework density 23.213865999999999
#
# number of rings (size 3 to 8) (size 9 to 14) (size 15 to 20)
#    0.000    2.500    0.000    0.750    0.000   13.000 
#    0.000   18.750    0.000    6.750    0.000   24.500 
#    0.000    0.000    0.000    0.000    0.000    0.000 
#
# Total GULP energy -178548.286232 kJ/mol
# GULP energy per Si atom -5579.633945 kJ/mol
# Density = 2.316103 g / cm^3
# Si number density = 23.213866 Si / 1000 Ang^3
#
#
#
# Elastic Constant Matrix: (Units=GPa)
#
#
# Indices 1 2 3 4 5 6 
#
# 1 113.6876 25.8340 6.4798 0.0000 0.0000 0.0000
# 2 25.8340 236.2934 34.8137 0.0000 0.0000 0.0000
# 3 6.4798 34.8137 51.6272 0.0000 0.0000 0.0000
# 4 0.0000 0.0000 0.0000 -7.5705 0.0000 0.0000
# 5 0.0000 0.0000 0.0000 0.0000 25.5112 0.0000
# 6 0.0000 0.0000 0.0000 0.0000 0.0000 0.5336
#
#
#
# Elastic Compliance Matrix: (Units=1/GPa)
#
#
# Indices 1 2 3 4 5 6 
#
# 1 0.009033 -0.000911 -0.000519 0.000000 0.000000 0.000000
# 2 -0.000911 0.004791 -0.003116 0.000000 0.000000 0.000000
# 3 -0.000519 -0.003116 0.021536 0.000000 0.000000 0.000000
# 4 0.000000 0.000000 0.000000 -0.132092 0.000000 0.000000
# 5 0.000000 0.000000 0.000000 0.000000 0.039199 0.000000
# 6 0.000000 0.000000 0.000000 0.000000 0.000000 1.874124
#
#
# Mechanical properties :
#
#
# Convention : Reuss Voigt Hill
#
# Bulk Modulus (GPa) = 38.07147 59.54036 48.80592
# Shear Modulus (GPa) = 2.72563 25.99357 14.35960
#
# Velocity S-wave (km/s) = 1.08475 3.34989 2.48982
# Velocity P-wave (km/s) = 4.24321 6.37704 5.41625
#
# Compressibility (1/GPa) = 0.02626639
#
# Stress axis : x y z
#
# Youngs Moduli (GPa) = 110.70946 208.73582 46.43352
#
# Poissons Ratio (x) = 0.19016 0.02412
# Poissons Ratio (y) = 0.10086 0.14470
# Poissons Ratio (z) = 0.05750 0.65046
#
# Static dielectric constant tensor:
#      x y z
#    x 1.891300 0.000000 0.000000 
#    y 0.000000 1.929070 0.000000 
#    z 0.000000 0.000000 1.894390 
# 
# From -- ./inp_files/21466.got.cif
#   From: 2010.05.17/outbox.cif.g08.bks.cpg/sg67_11_cif.got.tgz:21466.got - 2010.06.03 18:28:57.
