data_PCOD9503913
_publ_section_title
;
Structure prediction by ZEFSAII (Michael W. Deem and Ramdas Pophale) SiO2 
 PCOD9503913
Probable space group: C M M A
;
_chemical_formula_sum "Si O2"
_cell_formula_units_Z 116
_cell_length_a 30.906856
_cell_length_b 21.899554
_cell_length_c 8.159290
_cell_angle_alpha 90.000000
_cell_angle_beta 90.000000
_cell_angle_gamma 90.000000
_cell_volume 5522.585753
_symmetry_space_group_name_H-M "C M M A"
_symmetry_group_IT_number 67
_symmetry_cell_setting 'orthorhombic'
loop_
_space_group_symop_operation_xyz
x,y,z
-x,1/2-y,z
x,-y,-z
-x,1/2+y,-z
-x,-y,-z
x,1/2+y,-z
-x,y,z
x,1/2-y,z
1/2+x,1/2+y,z
1/2-x,-y,z
1/2+x,1/2-y,-z
1/2-x,y,-z
1/2-x,1/2-y,-z
1/2+x,y,-z
1/2-x,1/2+y,z
1/2+x,-y,z
loop_
_atom_site_type_symbol
_atom_site_label
_atom_site_fract_x
_atom_site_fract_y
_atom_site_fract_z
Si Si1 0.396333 0.878286 0.183328
Si Si2 0.240807 0.317399 0.810111
Si Si3 0.551785 0.928412 0.489671
Si Si4 0.331783 0.683568 0.382137
Si Si5 0.837592 0.004291 0.173476
Si Si6 0.000000 0.500000 0.000000
Si Si7 0.704541 0.418766 0.405419
Si Si8 0.077268 0.079830 0.843230
O O1 0.430182 0.900091 0.321765
O O2 0.370950 0.820949 0.254353
O O3 0.358668 0.929598 0.181981
O O4 0.416667 0.876244 0.001609
O O5 0.221226 0.250000 0.781982
O O6 0.285941 0.317950 0.711702
O O7 0.213222 0.373708 0.747881
O O8 0.250000 0.323526 0.000000
O O9 0.500000 0.926677 0.484267
O O10 0.567816 0.897299 0.659040
O O11 0.565493 0.000000 0.500000
O O12 0.334231 0.750000 0.466529
O O13 0.329692 0.622561 0.493285
O O14 0.810847 0.982402 0.329055
O O15 0.878513 0.958648 0.165196
O O16 0.813133 0.000000 0.000000
O O17 0.961961 0.465120 0.892248
O O18 0.750000 0.423258 0.500000
#
# Coordination Sequence:
#
# PCOD9503913 Si02
#       8
#    16  16  16  16  16   4  16  16
#     4  11  23  37  59  86 125 162 195 251 314 375
#     4   9  19  36  60  86 111 149 205 262 303 346
#     4  11  21  32  56  88 121 158 200 239 295 370
#     4  10  22  40  62  87 114 150 206 264 316 369
#     4  10  21  37  58  87 126 167 193 245 316 385
#     4  12  16  36  54  88 126 152 204 240 306 354
#     4  10  21  39  64  85 119 159 207 255 311 370
#     4  11  21  34  55  87 127 158 194 249 296 370
#
# _framework density 21.004653000000001
#
# number of rings (size 3 to 8) (size 9 to 14) (size 15 to 20)
#    0.000    1.655    4.138    1.241    6.759    1.655 
#    0.000    4.828    0.000    0.414    0.000    0.000 
#    0.000    0.000    0.000    0.000    0.000    0.000 
#
# Total GULP energy -323294.765607 kJ/mol
# GULP energy per Si atom -5574.047683 kJ/mol
# Density = 2.095685 g / cm^3
# Si number density = 21.004653 Si / 1000 Ang^3
#
#
#
# Elastic Constant Matrix: (Units=GPa)
#
#
# Indices 1 2 3 4 5 6 
#
# 1 44.1400 6.8160 23.8918 0.0000 0.0000 0.0000
# 2 6.8160 35.7079 26.7352 0.0000 0.0000 0.0000
# 3 23.8918 26.7352 136.0708 0.0000 0.0000 0.0000
# 4 0.0000 0.0000 0.0000 14.9265 0.0000 0.0000
# 5 0.0000 0.0000 0.0000 0.0000 20.0276 0.0000
# 6 0.0000 0.0000 0.0000 0.0000 0.0000 58.4355
#
#
#
# Elastic Compliance Matrix: (Units=1/GPa)
#
#
# Indices 1 2 3 4 5 6 
#
# 1 0.025127 -0.001751 -0.004068 0.000000 0.000000 0.000000
# 2 -0.001751 0.032957 -0.006168 0.000000 0.000000 0.000000
# 3 -0.004068 -0.006168 0.009275 0.000000 0.000000 0.000000
# 4 0.000000 0.000000 0.000000 0.066995 0.000000 0.000000
# 5 0.000000 0.000000 0.000000 0.000000 0.049931 0.000000
# 6 0.000000 0.000000 0.000000 0.000000 0.000000 0.017113
#
#
# Mechanical properties :
#
#
# Convention : Reuss Voigt Hill
#
# Bulk Modulus (GPa) = 23.04850 36.75605 29.90227
# Shear Modulus (GPa) = 20.84772 29.24299 25.04535
#
# Velocity S-wave (km/s) = 3.15386 3.73529 3.45682
# Velocity P-wave (km/s) = 4.92537 6.01167 5.49543
#
# Compressibility (1/GPa) = 0.04338678
#
# Stress axis : x y z
#
# Youngs Moduli (GPa) = 39.79716 30.34224 107.81330
#
# Poissons Ratio (x) = 0.05312 0.43859
# Poissons Ratio (y) = 0.06967 0.66500
# Poissons Ratio (z) = 0.16190 0.18715
#
# Static dielectric constant tensor:
#      x y z
#    x 1.728730 0.000000 0.000000 
#    y 0.000000 1.799200 0.000000 
#    z 0.000000 0.000000 1.820290 
# 
# From -- ./inp_files/14855.got.cif
#   From: 2010.05.17/outbox.cif.g08.bks.cpg/sg67_8_cif.got.tgz:14855.got - 2010.06.03 18:28:57.
