data_PCOD9503164
_publ_section_title
;
Structure prediction by ZEFSAII (Michael W. Deem and Ramdas Pophale) SiO2 
 PCOD9503164
Probable space group: C M M A
;
_chemical_formula_sum "Si O2"
_cell_formula_units_Z 96
_cell_length_a 22.706007
_cell_length_b 15.216448
_cell_length_c 14.341189
_cell_angle_alpha 90.000000
_cell_angle_beta 90.000000
_cell_angle_gamma 90.000000
_cell_volume 4954.949276
_symmetry_space_group_name_H-M "C M M A"
_symmetry_group_IT_number 67
_symmetry_cell_setting 'orthorhombic'
loop_
_space_group_symop_operation_xyz
x,y,z
-x,1/2-y,z
x,-y,-z
-x,1/2+y,-z
-x,-y,-z
x,1/2+y,-z
-x,y,z
x,1/2-y,z
1/2+x,1/2+y,z
1/2-x,-y,z
1/2+x,1/2-y,-z
1/2-x,y,-z
1/2-x,1/2-y,-z
1/2+x,y,-z
1/2-x,1/2+y,z
1/2+x,-y,z
loop_
_atom_site_type_symbol
_atom_site_label
_atom_site_fract_x
_atom_site_fract_y
_atom_site_fract_z
Si Si1 0.140996 0.647876 0.850812
Si Si2 0.685505 0.850799 0.952922
Si Si3 0.930215 0.973476 0.714720
Si Si4 0.069019 0.350862 0.460903
Si Si5 0.766060 0.097515 0.766681
Si Si6 0.127042 0.652119 0.340984
O O1 0.122813 0.750000 0.846622
O O2 0.099011 0.583293 0.795675
O O3 0.205727 0.641783 0.801988
O O4 0.145621 0.622142 0.960066
O O5 0.671474 0.750000 0.925349
O O6 0.692788 0.906625 0.859708
O O7 0.750000 0.849516 0.000000
O O8 0.916808 0.921032 0.618517
O O9 0.000000 0.975804 0.724593
O O10 0.905050 0.071334 0.708844
O O11 0.073539 0.250000 0.425176
O O12 0.110860 0.358527 0.550264
O O13 0.000000 0.363737 0.489429
O O14 0.804554 0.144308 0.687948
O O15 0.750000 0.000000 0.735670
O O16 0.106292 0.750000 0.314076
#
# Coordination Sequence:
#
# PCOD9503164 Si02
#       6
#    16  16  16  16  16  16
#     4  10  20  36  58  87 121 153 191 243 298 350
#     4   8  16  31  54  83 111 145 187 230 282 343
#     4  11  22  38  60  89 117 152 200 248 293 343
#     4   9  19  37  62  88 113 149 198 248 294 346
#     4  11  20  36  58  88 117 155 190 242 288 354
#     4  11  22  37  58  86 119 154 196 241 294 350
#
# _framework density 19.374568
#
# number of rings (size 3 to 8) (size 9 to 14) (size 15 to 20)
#    0.000    2.000    1.667    4.000    0.000    6.333 
#    0.000    0.833    0.000    6.000    0.000    4.667 
#    0.000    0.000    0.000    0.000    0.000    0.000 
#
# Total GULP energy -267827.446719 kJ/mol
# GULP energy per Si atom -5579.738473 kJ/mol
# Density = 1.933047 g / cm^3
# Si number density = 19.374568 Si / 1000 Ang^3
#
#
#
# Elastic Constant Matrix: (Units=GPa)
#
#
# Indices 1 2 3 4 5 6 
#
# 1 43.3742 33.9939 24.3168 0.0000 0.0000 0.0000
# 2 33.9939 120.1888 34.4756 0.0000 0.0000 0.0000
# 3 24.3168 34.4756 48.0866 0.0000 0.0000 0.0000
# 4 0.0000 0.0000 0.0000 18.6764 0.0000 0.0000
# 5 0.0000 0.0000 0.0000 0.0000 -58.6833 0.0000
# 6 0.0000 0.0000 0.0000 0.0000 0.0000 22.3118
#
#
#
# Elastic Compliance Matrix: (Units=1/GPa)
#
#
# Indices 1 2 3 4 5 6 
#
# 1 0.035455 -0.006150 -0.013520 0.000000 0.000000 0.000000
# 2 -0.006150 0.011541 -0.005164 0.000000 0.000000 0.000000
# 3 -0.013520 -0.005164 0.031335 0.000000 0.000000 0.000000
# 4 0.000000 0.000000 0.000000 0.053543 0.000000 0.000000
# 5 0.000000 0.000000 0.000000 0.000000 -0.017041 0.000000
# 6 0.000000 0.000000 0.000000 0.000000 0.000000 0.044819
#
#
# Mechanical properties :
#
#
# Convention : Reuss Voigt Hill
#
# Bulk Modulus (GPa) = 34.88856 44.13580 39.51218
# Shear Modulus (GPa) = 22.84403 4.38520 13.61461
#
# Velocity S-wave (km/s) = 3.43749 1.50608 2.65373
# Velocity P-wave (km/s) = 5.81391 5.08469 5.46149
#
# Compressibility (1/GPa) = 0.02866269
#
# Stress axis : x y z
#
# Youngs Moduli (GPa) = 28.20509 86.64741 31.91287
#
# Poissons Ratio (x) = 0.53286 0.43146
# Poissons Ratio (y) = 0.17345 0.16481
# Poissons Ratio (z) = 0.38133 0.44749
#
# Static dielectric constant tensor:
#      x y z
#    x 1.675640 0.000000 0.000000 
#    y 0.000000 1.694840 0.000000 
#    z 0.000000 0.000000 1.676040 
# 
# From -- ./inp_files/29299.got.cif
#   From: 2010.05.17/outbox.cif.g08.bks.cpg/sg67_15_cif.got.tgz:29299.got - 2010.06.03 18:28:57.
