data_PCOD9503508
_publ_section_title
;
Structure prediction by ZEFSAII (Michael W. Deem and Ramdas Pophale) SiO2 
 PCOD9503508
Probable space group: C M M A
;
_chemical_formula_sum "Si O2"
_cell_formula_units_Z 112
_cell_length_a 27.201067
_cell_length_b 31.264490
_cell_length_c 5.663098
_cell_angle_alpha 90.000000
_cell_angle_beta 90.000000
_cell_angle_gamma 90.000000
_cell_volume 4816.054202
_symmetry_space_group_name_H-M "C M M A"
_symmetry_group_IT_number 67
_symmetry_cell_setting 'orthorhombic'
loop_
_space_group_symop_operation_xyz
x,y,z
-x,1/2-y,z
x,-y,-z
-x,1/2+y,-z
-x,-y,-z
x,1/2+y,-z
-x,y,z
x,1/2-y,z
1/2+x,1/2+y,z
1/2-x,-y,z
1/2+x,1/2-y,-z
1/2-x,y,-z
1/2-x,1/2-y,-z
1/2+x,y,-z
1/2-x,1/2+y,z
1/2+x,-y,z
loop_
_atom_site_type_symbol
_atom_site_label
_atom_site_fract_x
_atom_site_fract_y
_atom_site_fract_z
Si Si1 0.311480 0.978931 0.250751
Si Si2 0.873067 0.852572 0.156382
Si Si3 0.571029 0.975198 0.251810
Si Si4 0.554500 0.384219 0.524305
Si Si5 0.908775 0.201632 0.232670
Si Si6 0.305791 0.811871 0.491199
Si Si7 0.706903 0.612873 0.166221
O O1 0.370241 0.973613 0.250634
O O2 0.283512 0.934578 0.239770
O O3 0.300693 0.000000 0.500000
O O4 0.301055 0.000000 0.000000
O O5 0.901554 0.884045 0.333356
O O6 0.832391 0.819967 0.262746
O O7 0.908685 0.819253 0.026607
O O8 0.844009 0.882011 0.973258
O O9 0.556651 0.924925 0.296247
O O10 0.556619 0.000000 0.500000
O O11 0.556884 0.000000 0.000000
O O12 0.500000 0.385947 0.416678
O O13 0.563725 0.336309 0.627185
O O14 0.928016 0.250000 0.246839
O O15 0.851201 0.204078 0.325111
O O16 0.250000 0.793669 0.500000
O O17 0.298001 0.859086 0.394402
O O18 0.750000 0.629553 0.000000
#
# Coordination Sequence:
#
# PCOD9503508 Si02
#       7
#    16  16  16  16  16  16  16
#     4  10  23  38  60  91 134 184 236 295 360 429
#     4  10  22  41  69  99 139 181 237 298 361 435
#     4  10  23  43  74 108 144 187 238 305 378 445
#     4  11  26  46  73 105 141 186 242 303 375 453
#     4  10  24  44  68 100 142 186 238 301 365 437
#     4  10  20  38  66  98 132 174 234 288 355 430
#     4  11  22  37  64  94 131 187 238 295 359 432
#
# _framework density 23.255551000000001
#
# number of rings (size 3 to 8) (size 9 to 14) (size 15 to 20)
#    0.000    1.714    1.429    2.571   10.000    4.286 
#    0.000    1.429    0.000    0.000    0.000    0.000 
#    0.000    0.000    0.000    0.000    0.000    0.000 
#
# Total GULP energy -311981.738097 kJ/mol
# GULP energy per Si atom -5571.102466 kJ/mol
# Density = 2.320262 g / cm^3
# Si number density = 23.255551 Si / 1000 Ang^3
#
#
#
# Elastic Constant Matrix: (Units=GPa)
#
#
# Indices 1 2 3 4 5 6 
#
# 1 111.1449 3.9479 4.2161 0.0000 0.0000 0.0000
# 2 3.9479 131.6268 40.2250 0.0000 0.0000 0.0000
# 3 4.2161 40.2250 99.5664 0.0000 0.0000 0.0000
# 4 0.0000 0.0000 0.0000 -39.1932 0.0000 0.0000
# 5 0.0000 0.0000 0.0000 0.0000 -1.4989 0.0000
# 6 0.0000 0.0000 0.0000 0.0000 0.0000 -19.6040
#
#
#
# Elastic Compliance Matrix: (Units=1/GPa)
#
#
# Indices 1 2 3 4 5 6 
#
# 1 0.009015 -0.000175 -0.000311 0.000000 0.000000 0.000000
# 2 -0.000175 0.008671 -0.003496 0.000000 0.000000 0.000000
# 3 -0.000311 -0.003496 0.011469 0.000000 0.000000 0.000000
# 4 0.000000 0.000000 0.000000 -0.025515 0.000000 0.000000
# 5 0.000000 0.000000 0.000000 0.000000 -0.667166 0.000000
# 6 0.000000 0.000000 0.000000 0.000000 0.000000 -0.051010
#
#
# Mechanical properties :
#
#
# Convention : Reuss Voigt Hill
#
# Bulk Modulus (GPa) = 47.18926 48.79067 47.98996
# Shear Modulus (GPa) = -7.14788 7.53739 0.19476
#
# Velocity S-wave (km/s) = -1.75508 1.80226 0.28970
# Velocity P-wave (km/s) = 4.02847 5.03554 4.55989
#
# Compressibility (1/GPa) = 0.02119126
#
# Stress axis : x y z
#
# Youngs Moduli (GPa) = 110.92266 115.33045 87.19214
#
# Poissons Ratio (x) = 0.02023 0.02711
# Poissons Ratio (y) = 0.01945 0.30479
# Poissons Ratio (z) = 0.03448 0.40315
#
# Static dielectric constant tensor:
#      x y z
#    x 1.918840 0.000000 0.000000 
#    y 0.000000 1.926440 0.000000 
#    z 0.000000 0.000000 1.835660 
# 
# From -- ./inp_files/4930.got.cif
#   From: 2010.05.17/outbox.cif.g08.bks.cpg/sg67_3_cif.got.tgz:4930.got - 2010.06.03 18:28:57.
