data_PCOD9503852
_publ_section_title
;
Structure prediction by ZEFSAII (Michael W. Deem and Ramdas Pophale) SiO2 
 PCOD9503852
Probable space group: C M M A
;
_chemical_formula_sum "Si O2"
_cell_formula_units_Z 80
_cell_length_a 7.618931
_cell_length_b 32.249619
_cell_length_c 15.035973
_cell_angle_alpha 90.000000
_cell_angle_beta 90.000000
_cell_angle_gamma 90.000000
_cell_volume 3694.453169
_symmetry_space_group_name_H-M "C M M A"
_symmetry_group_IT_number 67
_symmetry_cell_setting 'orthorhombic'
loop_
_space_group_symop_operation_xyz
x,y,z
-x,1/2-y,z
x,-y,-z
-x,1/2+y,-z
-x,-y,-z
x,1/2+y,-z
-x,y,z
x,1/2-y,z
1/2+x,1/2+y,z
1/2-x,-y,z
1/2+x,1/2-y,-z
1/2-x,y,-z
1/2-x,1/2-y,-z
1/2+x,y,-z
1/2-x,1/2+y,z
1/2+x,-y,z
loop_
_atom_site_type_symbol
_atom_site_label
_atom_site_fract_x
_atom_site_fract_y
_atom_site_fract_z
Si Si1 0.285055 0.795995 0.284647
Si Si2 0.289649 0.573655 0.097462
Si Si3 0.289279 0.375059 0.603902
Si Si4 0.710053 0.830951 0.097495
Si Si5 0.289511 0.545623 0.286715
O O1 0.500000 0.796079 0.285527
O O2 0.228165 0.750000 0.311394
O O3 0.225186 0.833272 0.347927
O O4 0.228462 0.806136 0.183611
O O5 0.500000 0.575306 0.103704
O O6 0.223416 0.621408 0.100413
O O7 0.223120 0.550460 0.185077
O O8 0.250000 0.556064 0.000000
O O9 0.500000 0.375009 0.614064
O O10 0.250000 0.375690 0.500000
O O11 0.222774 0.416202 0.654146
O O12 0.500000 0.833142 0.104763
O O13 0.750000 0.813435 0.000000
O O14 0.500000 0.549257 0.283990
O O15 0.250000 0.500000 0.321911
#
# Coordination Sequence:
#
# PCOD9503852 Si02
#       5
#    16  16  16  16  16
#     4   9  17  32  56  81 106 141 179 211 255 317
#     4   9  17  31  51  75 105 141 176 212 254 303
#     4  10  21  39  59  79 105 136 173 220 269 316
#     4   9  16  29  50  76 106 141 177 211 251 302
#     4  10  21  37  56  78 107 140 176 216 261 314
#
# _framework density 21.654086
#
# number of rings (size 3 to 8) (size 9 to 14) (size 15 to 20)
#    0.000    2.600    2.000    0.000    0.000    3.200 
#    0.000    5.000    0.000    1.200    0.000    0.000 
#    0.000    0.000    0.000    0.000    0.000    0.000 
#
# Total GULP energy -223293.012638 kJ/mol
# GULP energy per Si atom -5582.325316 kJ/mol
# Density = 2.160480 g / cm^3
# Si number density = 21.654086 Si / 1000 Ang^3
#
#
#
# Elastic Constant Matrix: (Units=GPa)
#
#
# Indices 1 2 3 4 5 6 
#
# 1 41.7243 5.4330 1.0062 0.0000 0.0000 0.0000
# 2 5.4330 180.6007 104.6451 0.0000 0.0000 0.0000
# 3 1.0062 104.6451 168.0870 0.0000 0.0000 0.0000
# 4 0.0000 0.0000 0.0000 -1.3039 0.0000 0.0000
# 5 0.0000 0.0000 0.0000 0.0000 25.8317 0.0000
# 6 0.0000 0.0000 0.0000 0.0000 0.0000 11.3196
#
#
#
# Elastic Compliance Matrix: (Units=1/GPa)
#
#
# Indices 1 2 3 4 5 6 
#
# 1 0.024086 -0.001003 0.000480 0.000000 0.000000 0.000000
# 2 -0.001003 0.008703 -0.005412 0.000000 0.000000 0.000000
# 3 0.000480 -0.005412 0.009316 0.000000 0.000000 0.000000
# 4 0.000000 0.000000 0.000000 -0.766937 0.000000 0.000000
# 5 0.000000 0.000000 0.000000 0.000000 0.038712 0.000000
# 6 0.000000 0.000000 0.000000 0.000000 0.000000 0.088343
#
#
# Mechanical properties :
#
#
# Convention : Reuss Voigt Hill
#
# Bulk Modulus (GPa) = 33.07414 68.06450 50.56932
# Shear Modulus (GPa) = -8.68314 25.79132 8.55409
#
# Velocity S-wave (km/s) = -2.00465 3.45492 1.98970
# Velocity P-wave (km/s) = 3.15418 6.88594 5.35560
#
# Compressibility (1/GPa) = 0.03023510
#
# Stress axis : x y z
#
# Youngs Moduli (GPa) = 41.51813 114.89848 107.34230
#
# Poissons Ratio (x) = 0.11521 -0.05153
# Poissons Ratio (y) = 0.04163 0.58098
# Poissons Ratio (z) = -0.01993 0.62188
#
# Static dielectric constant tensor:
#      x y z
#    x 1.824720 0.000000 0.000000 
#    y 0.000000 1.789760 0.000000 
#    z 0.000000 0.000000 1.767320 
# 
# From -- ./inp_files/16782.got.cif
#   From: 2010.05.17/outbox.cif.g08.bks.cpg/sg67_9_cif.got.tgz:16782.got - 2010.06.03 18:28:57.
