data_PCOD9503509
_publ_section_title
;
Structure prediction by ZEFSAII (Michael W. Deem and Ramdas Pophale) SiO2 
 PCOD9503509
Probable space group: C M M A
;
_chemical_formula_sum "Si O2"
_cell_formula_units_Z 116
_cell_length_a 18.333324
_cell_length_b 15.880239
_cell_length_c 18.539364
_cell_angle_alpha 90.000000
_cell_angle_beta 90.000000
_cell_angle_gamma 90.000000
_cell_volume 5397.505325
_symmetry_space_group_name_H-M "C M M A"
_symmetry_group_IT_number 67
_symmetry_cell_setting 'orthorhombic'
loop_
_space_group_symop_operation_xyz
x,y,z
-x,1/2-y,z
x,-y,-z
-x,1/2+y,-z
-x,-y,-z
x,1/2+y,-z
-x,y,z
x,1/2-y,z
1/2+x,1/2+y,z
1/2-x,-y,z
1/2+x,1/2-y,-z
1/2-x,y,-z
1/2-x,1/2-y,-z
1/2+x,y,-z
1/2-x,1/2+y,z
1/2+x,-y,z
loop_
_atom_site_type_symbol
_atom_site_label
_atom_site_fract_x
_atom_site_fract_y
_atom_site_fract_z
Si Si1 0.193302 0.845533 0.435799
Si Si2 0.913273 0.933862 0.113660
Si Si3 0.086601 0.024756 0.622045
Si Si4 0.000000 0.750000 0.794607
Si Si5 0.373107 0.117486 0.827316
Si Si6 0.294826 0.913457 0.316632
Si Si7 0.412722 0.658388 0.749700
Si Si8 0.335756 0.156764 0.990041
O O1 0.164379 0.750000 0.442446
O O2 0.250000 0.861591 0.500000
O O3 0.130646 0.917130 0.434955
O O4 0.243519 0.854171 0.364287
O O5 0.884075 0.866462 0.172032
O O6 0.000000 0.926391 0.103601
O O7 0.897812 0.022822 0.151949
O O8 0.875845 0.912899 0.038027
O O9 0.096240 0.083561 0.693159
O O10 0.000000 0.014122 0.607944
O O11 0.130687 0.939579 0.640691
O O12 0.937172 0.676193 0.798745
O O13 0.313911 0.115761 0.763580
O O14 0.349515 0.150951 0.905161
O O15 0.250000 0.000000 0.311642
O O16 0.500000 0.664038 0.757743
O O17 0.386212 0.750000 0.725231
O O18 0.360630 0.250000 0.014338
O O19 0.250000 0.148426 0.000000
#
# Coordination Sequence:
#
# PCOD9503509 Si02
#       8
#    16  16  16   4  16  16  16  16
#     4  10  23  44  68  98 138 179 221 268 330 404
#     4  11  23  39  65  91 124 166 221 280 342 396
#     4  10  20  38  67  97 131 170 216 275 331 392
#     4  12  28  44  68  96 132 182 234 298 338 416
#     4  12  25  44  66  94 130 176 228 281 345 405
#     4  10  24  42  68 100 132 177 220 270 334 407
#     4   9  17  31  54  92 126 155 198 263 328 387
#     4  11  27  44  61  91 130 173 224 286 349 414
#
# _framework density 21.491409999999998
#
# number of rings (size 3 to 8) (size 9 to 14) (size 15 to 20)
#    0.000    1.517    2.759    1.241    4.828    5.241 
#    0.000    2.759    0.000    0.828    0.000    0.000 
#    0.000    0.000    0.000    0.000    0.000    0.000 
#
# Total GULP energy -323368.283078 kJ/mol
# GULP energy per Si atom -5575.315225 kJ/mol
# Density = 2.144249 g / cm^3
# Si number density = 21.491410 Si / 1000 Ang^3
#
#
#
# Elastic Constant Matrix: (Units=GPa)
#
#
# Indices 1 2 3 4 5 6 
#
# 1 81.6785 15.0417 16.6107 0.0000 0.0000 0.0000
# 2 15.0417 60.9201 -2.5871 0.0000 0.0000 0.0000
# 3 16.6107 -2.5871 65.7271 0.0000 0.0000 0.0000
# 4 0.0000 0.0000 0.0000 23.3376 0.0000 0.0000
# 5 0.0000 0.0000 0.0000 0.0000 5.1579 0.0000
# 6 0.0000 0.0000 0.0000 0.0000 0.0000 -21.4106
#
#
#
# Elastic Compliance Matrix: (Units=1/GPa)
#
#
# Indices 1 2 3 4 5 6 
#
# 1 0.013618 -0.003515 -0.003580 0.000000 0.000000 0.000000
# 2 -0.003515 0.017349 0.001571 0.000000 0.000000 0.000000
# 3 -0.003580 0.001571 0.016181 0.000000 0.000000 0.000000
# 4 0.000000 0.000000 0.000000 0.042849 0.000000 0.000000
# 5 0.000000 0.000000 0.000000 0.000000 0.193879 0.000000
# 6 0.000000 0.000000 0.000000 0.000000 0.000000 -0.046706
#
#
# Mechanical properties :
#
#
# Convention : Reuss Voigt Hill
#
# Bulk Modulus (GPa) = 27.69934 29.60625 28.65280
# Shear Modulus (GPa) = 19.21214 13.36767 16.28990
#
# Velocity S-wave (km/s) = 2.99314 2.49670 2.75612
# Velocity P-wave (km/s) = 4.98615 4.70288 4.84659
#
# Compressibility (1/GPa) = 0.03610194
#
# Stress axis : x y z
#
# Youngs Moduli (GPa) = 73.43002 57.63878 61.80087
#
# Poissons Ratio (x) = 0.20257 0.22125
# Poissons Ratio (y) = 0.25807 -0.09709
# Poissons Ratio (z) = 0.26288 -0.09056
#
# Static dielectric constant tensor:
#      x y z
#    x 1.764640 0.000000 0.000000 
#    y 0.000000 1.804170 0.000000 
#    z 0.000000 0.000000 1.800640 
# 
# From -- ./inp_files/34338.got.cif
#   From: 2010.05.17/outbox.cif.g08.bks.cpg/sg67_18_cif.got.tgz:34338.got - 2010.06.03 18:28:57.
