data_PCOD9503555
_publ_section_title
;
Structure prediction by ZEFSAII (Michael W. Deem and Ramdas Pophale) SiO2 
 PCOD9503555
Probable space group: C M M A
;
_chemical_formula_sum "Si O2"
_cell_formula_units_Z 96
_cell_length_a 19.403419
_cell_length_b 15.636037
_cell_length_c 15.168589
_cell_angle_alpha 90.000000
_cell_angle_beta 90.000000
_cell_angle_gamma 90.000000
_cell_volume 4602.037312
_symmetry_space_group_name_H-M "C M M A"
_symmetry_group_IT_number 67
_symmetry_cell_setting 'orthorhombic'
loop_
_space_group_symop_operation_xyz
x,y,z
-x,1/2-y,z
x,-y,-z
-x,1/2+y,-z
-x,-y,-z
x,1/2+y,-z
-x,y,z
x,1/2-y,z
1/2+x,1/2+y,z
1/2-x,-y,z
1/2+x,1/2-y,-z
1/2-x,y,-z
1/2-x,1/2-y,-z
1/2+x,y,-z
1/2-x,1/2+y,z
1/2+x,-y,z
loop_
_atom_site_type_symbol
_atom_site_label
_atom_site_fract_x
_atom_site_fract_y
_atom_site_fract_z
Si Si1 0.921324 0.885918 0.912912
Si Si2 0.843600 0.150742 0.264157
Si Si3 0.420551 0.908888 0.892105
Si Si4 0.918198 0.578205 0.570116
Si Si5 0.316171 0.847282 0.549250
Si Si6 0.683043 0.647258 0.742122
O O1 0.877994 0.851992 0.831746
O O2 0.000000 0.856284 0.904217
O O3 0.921628 0.988876 0.904023
O O4 0.899206 0.868322 0.013626
O O5 0.846298 0.250000 0.295927
O O6 0.881730 0.088679 0.334332
O O7 0.763879 0.126037 0.251364
O O8 0.500000 0.882453 0.872642
O O9 0.366975 0.889076 0.815780
O O10 0.905593 0.500000 0.500000
O O11 0.880830 0.651961 0.514568
O O12 0.000000 0.585175 0.581984
O O13 0.294499 0.750000 0.569245
O O14 0.250000 0.888022 0.500000
O O15 0.335957 0.884084 0.643925
O O16 0.676081 0.750000 0.748851
#
# Coordination Sequence:
#
# PCOD9503555 Si02
#       6
#    16  16  16  16  16  16
#     4   9  20  39  62  88 121 165 206 250 310 367
#     4  11  23  41  63  89 124 163 206 255 306 367
#     4   9  20  40  62  87 126 164 201 255 311 365
#     4  11  25  41  60  90 122 154 199 254 302 356
#     4  10  20  40  62  82 119 162 198 241 297 360
#     4  10  22  38  60  89 120 158 201 250 306 362
#
# _framework density 20.860325
#
# number of rings (size 3 to 8) (size 9 to 14) (size 15 to 20)
#    0.000    2.000    1.667    2.000    2.333    5.667 
#    0.000    6.667    0.000    0.000    0.000    0.000 
#    0.000    0.000    0.000    0.000    0.000    0.000 
#
# Total GULP energy -267672.461342 kJ/mol
# GULP energy per Si atom -5576.509611 kJ/mol
# Density = 2.081285 g / cm^3
# Si number density = 20.860325 Si / 1000 Ang^3
#
#
#
# Elastic Constant Matrix: (Units=GPa)
#
#
# Indices 1 2 3 4 5 6 
#
# 1 109.5666 35.1718 101.8425 0.0000 0.0000 0.0000
# 2 35.1718 50.1390 29.7682 0.0000 0.0000 0.0000
# 3 101.8425 29.7682 197.9797 0.0000 0.0000 0.0000
# 4 0.0000 0.0000 0.0000 26.0858 0.0000 0.0000
# 5 0.0000 0.0000 0.0000 0.0000 50.4748 0.0000
# 6 0.0000 0.0000 0.0000 0.0000 0.0000 20.4701
#
#
#
# Elastic Compliance Matrix: (Units=1/GPa)
#
#
# Indices 1 2 3 4 5 6 
#
# 1 0.020601 -0.008959 -0.009250 0.000000 0.000000 0.000000
# 2 -0.008959 0.025796 0.000730 0.000000 0.000000 0.000000
# 3 -0.009250 0.000730 0.009700 0.000000 0.000000 0.000000
# 4 0.000000 0.000000 0.000000 0.038335 0.000000 0.000000
# 5 0.000000 0.000000 0.000000 0.000000 0.019812 0.000000
# 6 0.000000 0.000000 0.000000 0.000000 0.000000 0.048852
#
#
# Mechanical properties :
#
#
# Convention : Reuss Voigt Hill
#
# Bulk Modulus (GPa) = 47.30894 76.80558 62.05726
# Shear Modulus (GPa) = 24.37835 32.13298 28.25566
#
# Velocity S-wave (km/s) = 3.42226 3.92903 3.68437
# Velocity P-wave (km/s) = 6.19225 7.58169 6.92192
#
# Compressibility (1/GPa) = 0.02113765
#
# Stress axis : x y z
#
# Youngs Moduli (GPa) = 48.54142 38.76581 103.09676
#
# Poissons Ratio (x) = 0.34732 0.95366
# Poissons Ratio (y) = 0.43490 -0.07527
# Poissons Ratio (z) = 0.44902 -0.02830
#
# Static dielectric constant tensor:
#      x y z
#    x 1.713060 0.000000 0.000000 
#    y 0.000000 1.832570 0.000000 
#    z 0.000000 0.000000 1.772230 
# 
# From -- ./inp_files/29240.got.cif
#   From: 2010.05.17/outbox.cif.g08.bks.cpg/sg67_15_cif.got.tgz:29240.got - 2010.06.03 18:28:57.
