data_PCOD9503663
_publ_section_title
;
Structure prediction by ZEFSAII (Michael W. Deem and Ramdas Pophale) SiO2 
 PCOD9503663
Probable space group: C M M A
;
_chemical_formula_sum "Si O2"
_cell_formula_units_Z 112
_cell_length_a 14.282336
_cell_length_b 19.341801
_cell_length_c 18.527993
_cell_angle_alpha 90.000000
_cell_angle_beta 90.000000
_cell_angle_gamma 90.000000
_cell_volume 5118.285821
_symmetry_space_group_name_H-M "C M M A"
_symmetry_group_IT_number 67
_symmetry_cell_setting 'orthorhombic'
loop_
_space_group_symop_operation_xyz
x,y,z
-x,1/2-y,z
x,-y,-z
-x,1/2+y,-z
-x,-y,-z
x,1/2+y,-z
-x,y,z
x,1/2-y,z
1/2+x,1/2+y,z
1/2-x,-y,z
1/2+x,1/2-y,-z
1/2-x,y,-z
1/2-x,1/2-y,-z
1/2+x,y,-z
1/2-x,1/2+y,z
1/2+x,-y,z
loop_
_atom_site_type_symbol
_atom_site_label
_atom_site_fract_x
_atom_site_fract_y
_atom_site_fract_z
Si Si1 0.751822 0.380580 0.921708
Si Si2 0.113484 0.172576 0.490494
Si Si3 0.110987 0.002562 0.886092
Si Si4 0.894587 0.666301 0.347629
Si Si5 0.113608 0.534453 0.573908
Si Si6 0.388189 0.961615 0.270828
Si Si7 0.232130 0.170605 0.236751
O O1 0.843070 0.429755 0.919560
O O2 0.665311 0.434970 0.914612
O O3 0.750067 0.335954 0.849073
O O4 0.750000 0.345435 0.000000
O O5 0.147772 0.250000 0.475837
O O6 0.138186 0.147806 0.571444
O O7 0.140242 0.115068 0.433131
O O8 0.000000 0.175365 0.491449
O O9 0.133855 0.005172 0.800371
O O10 0.000000 0.997897 0.896606
O O11 0.901941 0.750000 0.351247
O O12 0.823939 0.652042 0.283412
O O13 0.000000 0.638257 0.335870
O O14 0.146297 0.500000 0.500000
O O15 0.142815 0.507836 0.652217
O O16 0.000000 0.529666 0.572073
O O17 0.500000 0.954437 0.273218
O O18 0.344327 0.886261 0.258021
O O19 0.206085 0.250000 0.253918
#
# Coordination Sequence:
#
# PCOD9503663 Si02
#       7
#    16  16  16  16  16  16  16
#     4  10  21  35  54  82 108 132 170 216 265 326
#     4   8  14  26  46  71  98 132 174 216 259 309
#     4   9  18  35  58  80 104 136 175 220 266 314
#     4   8  15  30  51  73  98 131 175 223 262 300
#     4   9  17  29  47  74 107 139 173 220 276 321
#     4   9  19  35  54  78 107 141 183 221 256 313
#     4  10  21  36  54  77 107 142 178 217 261 315
#
# _framework density 21.882325999999999
#
# number of rings (size 3 to 8) (size 9 to 14) (size 15 to 20)
#    0.000    3.000    0.000    1.714    0.000    4.000 
#    0.000    5.000    0.000    3.429    0.000    4.000 
#    0.000    0.000    0.000    0.000    0.000    0.000 
#
# Total GULP energy -312826.479863 kJ/mol
# GULP energy per Si atom -5586.187140 kJ/mol
# Density = 2.183252 g / cm^3
# Si number density = 21.882326 Si / 1000 Ang^3
#
#
#
# Elastic Constant Matrix: (Units=GPa)
#
#
# Indices 1 2 3 4 5 6 
#
# 1 84.4440 -1.2486 1.1360 0.0000 0.0000 0.0000
# 2 -1.2486 46.6755 9.3989 0.0000 0.0000 0.0000
# 3 1.1360 9.3989 152.2565 0.0000 0.0000 0.0000
# 4 0.0000 0.0000 0.0000 18.7276 0.0000 0.0000
# 5 0.0000 0.0000 0.0000 0.0000 4.2730 0.0000
# 6 0.0000 0.0000 0.0000 0.0000 0.0000 11.0393
#
#
#
# Elastic Compliance Matrix: (Units=1/GPa)
#
#
# Indices 1 2 3 4 5 6 
#
# 1 0.011849 0.000339 -0.000109 0.000000 0.000000 0.000000
# 2 0.000339 0.021704 -0.001342 0.000000 0.000000 0.000000
# 3 -0.000109 -0.001342 0.006652 0.000000 0.000000 0.000000
# 4 0.000000 0.000000 0.000000 0.053397 0.000000 0.000000
# 5 0.000000 0.000000 0.000000 0.000000 0.234027 0.000000
# 6 0.000000 0.000000 0.000000 0.000000 0.000000 0.090586
#
#
# Mechanical properties :
#
#
# Convention : Reuss Voigt Hill
#
# Bulk Modulus (GPa) = 26.33053 33.54984 29.94019
# Shear Modulus (GPa) = 11.54472 25.08064 18.31268
#
# Velocity S-wave (km/s) = 2.29941 3.38917 2.89601
# Velocity P-wave (km/s) = 4.37134 5.53900 4.98945
#
# Compressibility (1/GPa) = 0.03797872
#
# Stress axis : x y z
#
# Youngs Moduli (GPa) = 84.39782 46.07466 150.34107
#
# Poissons Ratio (x) = -0.01562 0.01644
# Poissons Ratio (y) = -0.02861 0.20181
# Poissons Ratio (z) = 0.00923 0.06185
#
# Static dielectric constant tensor:
#      x y z
#    x 1.785570 0.000000 0.000000 
#    y 0.000000 1.801060 0.000000 
#    z 0.000000 0.000000 1.829590 
# 
# From -- ./inp_files/27523.got.cif
#   From: 2010.05.17/outbox.cif.g08.bks.cpg/sg67_14_cif.got.tgz:27523.got - 2010.06.03 18:28:57.
