data_PCOD9503327
_publ_section_title
;
Structure prediction by ZEFSAII (Michael W. Deem and Ramdas Pophale) SiO2 
 PCOD9503327
Probable space group: C M M A
;
_chemical_formula_sum "Si O2"
_cell_formula_units_Z 72
_cell_length_a 15.417750
_cell_length_b 8.569387
_cell_length_c 29.111644
_cell_angle_alpha 90.000000
_cell_angle_beta 90.000000
_cell_angle_gamma 90.000000
_cell_volume 3846.249806
_symmetry_space_group_name_H-M "C M M A"
_symmetry_group_IT_number 67
_symmetry_cell_setting 'orthorhombic'
loop_
_space_group_symop_operation_xyz
x,y,z
-x,1/2-y,z
x,-y,-z
-x,1/2+y,-z
-x,-y,-z
x,1/2+y,-z
-x,y,z
x,1/2-y,z
1/2+x,1/2+y,z
1/2-x,-y,z
1/2+x,1/2-y,-z
1/2-x,y,-z
1/2-x,1/2-y,-z
1/2+x,y,-z
1/2-x,1/2+y,z
1/2+x,-y,z
loop_
_atom_site_type_symbol
_atom_site_label
_atom_site_fract_x
_atom_site_fract_y
_atom_site_fract_z
Si Si1 0.500000 0.563320 0.283125
Si Si2 0.500000 0.562104 0.051420
Si Si3 0.653664 0.937050 0.449145
Si Si4 0.500000 0.563281 0.613589
Si Si5 0.845883 0.437999 0.118635
Si Si6 0.653191 0.436860 0.219951
O O1 0.500000 0.750000 0.284335
O O2 0.500000 0.496095 0.334352
O O3 0.584081 0.503206 0.255658
O O4 0.500000 0.750000 0.049843
O O5 0.584561 0.514002 0.080463
O O6 0.500000 0.500000 0.000000
O O7 0.654401 0.750000 0.449969
O O8 0.630978 0.000000 0.500000
O O9 0.750000 0.000000 0.438586
O O10 0.583995 0.998888 0.413069
O O11 0.500000 0.750000 0.612321
O O12 0.844176 0.250000 0.121821
O O13 0.750000 0.500000 0.107644
O O14 0.870030 0.505198 0.168611
O O15 0.653491 0.250000 0.220970
O O16 0.750000 0.500000 0.229430
#
# Coordination Sequence:
#
# PCOD9503327 Si02
#       6
#     8   8  16   8  16  16
#     4  12  25  42  61  87 121 158 196 242 293 350
#     4  10  23  38  55  79 113 151 189 232 287 344
#     4  11  22  40  64  92 121 157 200 247 296 348
#     4  12  25  42  61  88 122 159 199 244 295 354
#     4  10  20  37  59  85 113 148 190 238 287 340
#     4  11  22  39  63  91 118 153 195 241 291 346
#
# _framework density 18.719533999999999
#
# number of rings (size 3 to 8) (size 9 to 14) (size 15 to 20)
#    0.000    1.111    0.000    9.667    0.000    4.000 
#    0.000    6.667    0.000    0.000    0.000    0.000 
#    0.000    0.000    0.000    0.000    0.000    0.000 
#
# Total GULP energy -201409.275352 kJ/mol
# GULP energy per Si atom -5594.702093 kJ/mol
# Density = 1.867693 g / cm^3
# Si number density = 18.719534 Si / 1000 Ang^3
#
#
#
# Elastic Constant Matrix: (Units=GPa)
#
#
# Indices 1 2 3 4 5 6 
#
# 1 137.1428 69.7512 143.1140 0.0000 0.0000 0.0000
# 2 69.7512 184.7043 80.4413 0.0000 0.0000 0.0000
# 3 143.1140 80.4413 190.6859 0.0000 0.0000 0.0000
# 4 0.0000 0.0000 0.0000 37.9644 0.0000 0.0000
# 5 0.0000 0.0000 0.0000 0.0000 -66.2875 0.0000
# 6 0.0000 0.0000 0.0000 0.0000 0.0000 34.2227
#
#
#
# Elastic Compliance Matrix: (Units=1/GPa)
#
#
# Indices 1 2 3 4 5 6 
#
# 1 0.034306 -0.002134 -0.024847 0.000000 0.000000 0.000000
# 2 -0.002134 0.006765 -0.001252 0.000000 0.000000 0.000000
# 3 -0.024847 -0.001252 0.024421 0.000000 0.000000 0.000000
# 4 0.000000 0.000000 0.000000 0.026340 0.000000 0.000000
# 5 0.000000 0.000000 0.000000 0.000000 -0.015086 0.000000
# 6 0.000000 0.000000 0.000000 0.000000 0.000000 0.029220
#
#
# Mechanical properties :
#
#
# Convention : Reuss Voigt Hill
#
# Bulk Modulus (GPa) = 110.80086 122.12733 116.46410
# Shear Modulus (GPa) = 30.22171 15.79502 23.00837
#
# Velocity S-wave (km/s) = 4.02238 2.90793 3.50967
# Velocity P-wave (km/s) = 8.99395 8.75539 8.87547
#
# Compressibility (1/GPa) = 0.00902520
#
# Stress axis : x y z
#
# Youngs Moduli (GPa) = 29.14911 147.81190 40.94808
#
# Poissons Ratio (x) = 0.31542 1.01746
# Poissons Ratio (y) = 0.06220 0.05128
# Poissons Ratio (z) = 0.72428 0.18512
#
# Static dielectric constant tensor:
#      x y z
#    x 1.632780 0.000000 0.000000 
#    y 0.000000 1.626630 0.000000 
#    z 0.000000 0.000000 1.610780 
# 
# From -- ./inp_files/44270.got.cif
#   From: 2010.05.17/outbox.cif.g08.bks.cpg/sg67_23_cif.got.tgz:44270.got - 2010.06.03 18:28:57.
