data_PCOD9503429
_publ_section_title
;
Structure prediction by ZEFSAII (Michael W. Deem and Ramdas Pophale) SiO2 
 PCOD9503429
Probable space group: C M M A
;
_chemical_formula_sum "Si O2"
_cell_formula_units_Z 96
_cell_length_a 14.659302
_cell_length_b 15.498823
_cell_length_c 20.655905
_cell_angle_alpha 90.000000
_cell_angle_beta 90.000000
_cell_angle_gamma 90.000000
_cell_volume 4693.061420
_symmetry_space_group_name_H-M "C M M A"
_symmetry_group_IT_number 67
_symmetry_cell_setting 'orthorhombic'
loop_
_space_group_symop_operation_xyz
x,y,z
-x,1/2-y,z
x,-y,-z
-x,1/2+y,-z
-x,-y,-z
x,1/2+y,-z
-x,y,z
x,1/2-y,z
1/2+x,1/2+y,z
1/2-x,-y,z
1/2+x,1/2-y,-z
1/2-x,y,-z
1/2-x,1/2-y,-z
1/2+x,y,-z
1/2-x,1/2+y,z
1/2+x,-y,z
loop_
_atom_site_type_symbol
_atom_site_label
_atom_site_fract_x
_atom_site_fract_y
_atom_site_fract_z
Si Si1 0.363300 0.157123 0.854670
Si Si2 0.861456 0.502013 0.228499
Si Si3 0.893946 0.501567 0.379589
Si Si4 0.750894 0.146593 0.422267
Si Si5 0.148587 0.658042 0.140693
Si Si6 0.107891 0.097502 0.999547
O O1 0.401602 0.250000 0.838885
O O2 0.396338 0.081390 0.809371
O O3 0.255238 0.160142 0.843466
O O4 0.376407 0.138337 0.930638
O O5 0.750000 0.500000 0.230513
O O6 0.893440 0.505174 0.301697
O O7 0.890306 0.581478 0.183279
O O8 0.836711 0.414677 0.399941
O O9 0.836654 0.587207 0.401544
O O10 0.000000 0.500498 0.402238
O O11 0.751748 0.250000 0.400868
O O12 0.750000 0.148797 0.500000
O O13 0.106668 0.750000 0.156102
O O14 0.145450 0.643570 0.063671
O O15 0.000000 0.094443 0.989021
O O16 0.143794 0.000000 0.000000
#
# Coordination Sequence:
#
# PCOD9503429 Si02
#       6
#    16  16  16  16  16  16
#     4  10  21  36  57  80 103 143 198 251 310 379
#     4  10  20  38  57  85 119 160 202 256 314 375
#     4  11  23  41  68 101 139 181 224 270 325 386
#     4  10  23  45  72 103 141 180 219 268 320 376
#     4  10  21  36  57  80 103 143 198 251 310 379
#     4  11  22  35  52  73 105 144 187 250 319 377
#
# _framework density 20.455732000000001
#
# number of rings (size 3 to 8) (size 9 to 14) (size 15 to 20)
#    0.000    1.667    3.333    2.000    0.000    8.000 
#    0.000    1.667    0.000    0.000    0.000    0.000 
#    0.000    0.000    0.000    0.000    0.000    0.000 
#
# Total GULP energy -267760.563665 kJ/mol
# GULP energy per Si atom -5578.345076 kJ/mol
# Density = 2.040917 g / cm^3
# Si number density = 20.455732 Si / 1000 Ang^3
#
#
#
# Elastic Constant Matrix: (Units=GPa)
#
#
# Indices 1 2 3 4 5 6 
#
# 1 136.7237 48.5585 6.9788 0.0000 0.0000 0.0000
# 2 48.5585 198.1680 61.2994 0.0000 0.0000 0.0000
# 3 6.9788 61.2994 111.4015 0.0000 0.0000 0.0000
# 4 0.0000 0.0000 0.0000 3.2186 0.0000 0.0000
# 5 0.0000 0.0000 0.0000 0.0000 157.2642 0.0000
# 6 0.0000 0.0000 0.0000 0.0000 0.0000 -16.5799
#
#
#
# Elastic Compliance Matrix: (Units=1/GPa)
#
#
# Indices 1 2 3 4 5 6 
#
# 1 0.008056 -0.002191 0.000701 0.000000 0.000000 0.000000
# 2 -0.002191 0.006677 -0.003537 0.000000 0.000000 0.000000
# 3 0.000701 -0.003537 0.010879 0.000000 0.000000 0.000000
# 4 0.000000 0.000000 0.000000 0.310691 0.000000 0.000000
# 5 0.000000 0.000000 0.000000 0.000000 0.006359 0.000000
# 6 0.000000 0.000000 0.000000 0.000000 0.000000 -0.060314
#
#
# Mechanical properties :
#
#
# Convention : Reuss Voigt Hill
#
# Bulk Modulus (GPa) = 64.27363 75.55184 69.91273
# Shear Modulus (GPa) = 16.80173 50.74435 33.77304
#
# Velocity S-wave (km/s) = 2.86906 4.98606 4.06770
# Velocity P-wave (km/s) = 6.51647 8.37629 7.50422
#
# Compressibility (1/GPa) = 0.01555848
#
# Stress axis : x y z
#
# Youngs Moduli (GPa) = 124.12540 149.76453 91.92161
#
# Poissons Ratio (x) = 0.32812 -0.06443
# Poissons Ratio (y) = 0.27195 0.32512
# Poissons Ratio (z) = -0.08700 0.52970
#
# Static dielectric constant tensor:
#      x y z
#    x 1.757630 0.000000 0.000000 
#    y 0.000000 1.771510 0.000000 
#    z 0.000000 0.000000 1.686420 
# 
# From -- ./inp_files/38383.got.cif
#   From: 2010.05.17/outbox.cif.g08.bks.cpg/sg67_20_cif.got.tgz:38383.got - 2010.06.03 18:28:57.
