data_PCOD9503947
_publ_section_title
;
Structure prediction by ZEFSAII (Michael W. Deem and Ramdas Pophale) SiO2 
 PCOD9503947
Probable space group: C M M A
;
_chemical_formula_sum "Si O2"
_cell_formula_units_Z 112
_cell_length_a 23.275327
_cell_length_b 19.232095
_cell_length_c 12.265894
_cell_angle_alpha 90.000000
_cell_angle_beta 90.000000
_cell_angle_gamma 90.000000
_cell_volume 5490.622609
_symmetry_space_group_name_H-M "C M M A"
_symmetry_group_IT_number 67
_symmetry_cell_setting 'orthorhombic'
loop_
_space_group_symop_operation_xyz
x,y,z
-x,1/2-y,z
x,-y,-z
-x,1/2+y,-z
-x,-y,-z
x,1/2+y,-z
-x,y,z
x,1/2-y,z
1/2+x,1/2+y,z
1/2-x,-y,z
1/2+x,1/2-y,-z
1/2-x,y,-z
1/2-x,1/2-y,-z
1/2+x,y,-z
1/2-x,1/2+y,z
1/2+x,-y,z
loop_
_atom_site_type_symbol
_atom_site_label
_atom_site_fract_x
_atom_site_fract_y
_atom_site_fract_z
Si Si1 0.250955 0.416985 0.371980
Si Si2 0.135315 0.096485 0.769052
Si Si3 0.186570 0.669704 0.021871
Si Si4 0.564402 0.982566 0.124481
Si Si5 0.410390 0.325722 0.846650
Si Si6 0.434174 0.333869 0.416285
Si Si7 0.357018 0.670920 0.380275
O O1 0.250000 0.500000 0.365079
O O2 0.250000 0.397727 0.500000
O O3 0.307138 0.397700 0.303716
O O4 0.193418 0.378087 0.335685
O O5 0.151350 0.130647 0.884563
O O6 0.087499 0.136313 0.698417
O O7 0.110142 0.019864 0.796193
O O8 0.194030 0.750000 0.057910
O O9 0.250000 0.639837 0.000000
O O10 0.150095 0.670201 0.911118
O O11 0.500000 0.010515 0.146448
O O12 0.561772 0.899493 0.130197
O O13 0.579866 0.000000 0.000000
O O14 0.435069 0.250000 0.880152
O O15 0.402098 0.323981 0.717404
O O16 0.500000 0.355030 0.439022
O O17 0.432473 0.250000 0.413928
O O18 0.389958 0.355720 0.512198
O O19 0.335194 0.750000 0.401296
#
# Coordination Sequence:
#
# PCOD9503947 Si02
#       7
#    16  16  16  16  16  16  16
#     4  11  23  39  60  90 129 168 208 264 321 386
#     4  12  22  40  66  92 128 173 216 266 335 391
#     4  10  21  37  60  93 130 167 211 265 323 391
#     4  11  24  43  64  92 130 168 216 275 327 389
#     4  10  21  41  65  90 124 165 212 265 322 388
#     4  10  22  40  63  95 132 171 220 271 320 386
#     4  10  21  40  66  95 129 169 215 267 324 386
#
# _framework density 20.398415
#
# number of rings (size 3 to 8) (size 9 to 14) (size 15 to 20)
#    0.000    1.429    2.857    2.571    0.000    3.429 
#    0.000    2.143    0.000    2.571    0.000    0.000 
#    0.000    0.000    0.000    0.000    0.000    0.000 
#
# Total GULP energy -312284.907361 kJ/mol
# GULP energy per Si atom -5576.516203 kJ/mol
# Density = 2.035199 g / cm^3
# Si number density = 20.398415 Si / 1000 Ang^3
#
#
#
# Elastic Constant Matrix: (Units=GPa)
#
#
# Indices 1 2 3 4 5 6 
#
# 1 108.9830 33.9230 29.6386 0.0000 0.0000 0.0000
# 2 33.9230 80.4034 27.2932 0.0000 0.0000 0.0000
# 3 29.6386 27.2932 85.4331 0.0000 0.0000 0.0000
# 4 0.0000 0.0000 0.0000 21.7398 0.0000 0.0000
# 5 0.0000 0.0000 0.0000 0.0000 6.9212 0.0000
# 6 0.0000 0.0000 0.0000 0.0000 0.0000 5.7278
#
#
#
# Elastic Compliance Matrix: (Units=1/GPa)
#
#
# Indices 1 2 3 4 5 6 
#
# 1 0.011067 -0.003775 -0.002633 0.000000 0.000000 0.000000
# 2 -0.003775 0.015238 -0.003558 0.000000 0.000000 0.000000
# 3 -0.002633 -0.003558 0.013755 0.000000 0.000000 0.000000
# 4 0.000000 0.000000 0.000000 0.045999 0.000000 0.000000
# 5 0.000000 0.000000 0.000000 0.000000 0.144484 0.000000
# 6 0.000000 0.000000 0.000000 0.000000 0.000000 0.174586
#
#
# Mechanical properties :
#
#
# Convention : Reuss Voigt Hill
#
# Bulk Modulus (GPa) = 49.68582 50.72547 50.20564
# Shear Modulus (GPa) = 11.58019 19.14208 15.36113
#
# Velocity S-wave (km/s) = 2.38523 3.06667 2.74716
# Velocity P-wave (km/s) = 5.65653 6.12051 5.89309
#
# Compressibility (1/GPa) = 0.02012647
#
# Stress axis : x y z
#
# Youngs Moduli (GPa) = 90.35835 65.62518 72.69889
#
# Poissons Ratio (x) = 0.24776 0.19144
# Poissons Ratio (y) = 0.34114 0.25869
# Poissons Ratio (z) = 0.23794 0.23351
#
# Static dielectric constant tensor:
#      x y z
#    x 1.752460 0.000000 0.000000 
#    y 0.000000 1.771050 0.000000 
#    z 0.000000 0.000000 1.701820 
# 
# From -- ./inp_files/22174.got.cif
#   From: 2010.05.17/outbox.cif.g08.bks.cpg/sg67_12_cif.got.tgz:22174.got - 2010.06.03 18:28:57.
