data_PCOD9503153
_publ_section_title
;
Structure prediction by ZEFSAII (Michael W. Deem and Ramdas Pophale) SiO2 
 PCOD9503153
Probable space group: C M M A
;
_chemical_formula_sum "Si O2"
_cell_formula_units_Z 120
_cell_length_a 19.890542
_cell_length_b 13.964130
_cell_length_c 21.666490
_cell_angle_alpha 90.000000
_cell_angle_beta 90.000000
_cell_angle_gamma 90.000000
_cell_volume 6017.956739
_symmetry_space_group_name_H-M "C M M A"
_symmetry_group_IT_number 67
_symmetry_cell_setting 'orthorhombic'
loop_
_space_group_symop_operation_xyz
x,y,z
-x,1/2-y,z
x,-y,-z
-x,1/2+y,-z
-x,-y,-z
x,1/2+y,-z
-x,y,z
x,1/2-y,z
1/2+x,1/2+y,z
1/2-x,-y,z
1/2+x,1/2-y,-z
1/2-x,y,-z
1/2-x,1/2-y,-z
1/2+x,y,-z
1/2-x,1/2+y,z
1/2+x,-y,z
loop_
_atom_site_type_symbol
_atom_site_label
_atom_site_fract_x
_atom_site_fract_y
_atom_site_fract_z
Si Si1 0.575047 0.459034 0.431924
Si Si2 0.750000 0.500000 0.329031
Si Si3 0.209847 0.360223 0.562102
Si Si4 0.336341 0.140923 0.754261
Si Si5 0.923744 0.137949 0.031441
Si Si6 0.077141 0.639914 0.117595
Si Si7 0.420880 0.145400 0.642401
Si Si8 0.172424 0.029840 0.121571
O O1 0.567600 0.500000 0.500000
O O2 0.500000 0.431231 0.409243
O O3 0.629708 0.376575 0.440719
O O4 0.603140 0.548592 0.391233
O O5 0.772317 0.581426 0.377009
O O6 0.703666 0.560061 0.282749
O O7 0.226785 0.250000 0.570094
O O8 0.250000 0.392264 0.500000
O O9 0.309729 0.250000 0.749572
O O10 0.405700 0.141160 0.715303
O O11 0.335972 0.107792 0.824490
O O12 0.916890 0.250000 0.049021
O O13 0.866488 0.074928 0.063060
O O14 0.000000 0.106198 0.048917
O O15 0.919863 0.134740 0.957228
O O16 0.091481 0.750000 0.135035
O O17 0.130801 0.564408 0.141597
O O18 0.000000 0.617947 0.135549
O O19 0.500000 0.146533 0.630329
O O20 0.393243 0.250000 0.620750
O O21 0.250000 0.000000 0.110968
#
# Coordination Sequence:
#
# PCOD9503153 Si02
#       8
#    16   8  16  16  16  16  16  16
#     4  10  20  36  58  85 119 154 189 236 293 354
#     4  12  21  44  62  84 113 164 200 246 294 360
#     4  11  24  39  62  94 122 151 196 251 300 357
#     4  11  24  41  61  85 116 158 206 248 295 354
#     4   9  19  38  64  91 120 157 205 259 313 369
#     4   9  20  40  64  89 120 163 209 253 307 374
#     4   9  19  37  62  88 114 149 193 243 298 353
#     4  12  24  37  55  91 126 164 201 254 310 366
#
# _framework density 19.940322999999999
#
# number of rings (size 3 to 8) (size 9 to 14) (size 15 to 20)
#    0.000    1.733    2.000    3.400    0.000    5.067 
#    0.000    4.000    0.000    0.400    0.000    0.000 
#    0.000    0.000    0.000    0.000    0.000    0.000 
#
# Total GULP energy -334400.341024 kJ/mol
# GULP energy per Si atom -5573.339017 kJ/mol
# Density = 1.989494 g / cm^3
# Si number density = 19.940323 Si / 1000 Ang^3
#
#
#
# Elastic Constant Matrix: (Units=GPa)
#
#
# Indices 1 2 3 4 5 6 
#
# 1 77.8451 41.6799 5.2952 0.0000 0.0000 0.0000
# 2 41.6799 112.0581 10.9777 0.0000 0.0000 0.0000
# 3 5.2952 10.9777 36.8262 0.0000 0.0000 0.0000
# 4 0.0000 0.0000 0.0000 37.5363 0.0000 0.0000
# 5 0.0000 0.0000 0.0000 0.0000 8.8976 0.0000
# 6 0.0000 0.0000 0.0000 0.0000 0.0000 25.8007
#
#
#
# Elastic Compliance Matrix: (Units=1/GPa)
#
#
# Indices 1 2 3 4 5 6 
#
# 1 0.016051 -0.005917 -0.000544 0.000000 0.000000 0.000000
# 2 -0.005917 0.011374 -0.002540 0.000000 0.000000 0.000000
# 3 -0.000544 -0.002540 0.027990 0.000000 0.000000 0.000000
# 4 0.000000 0.000000 0.000000 0.026641 0.000000 0.000000
# 5 0.000000 0.000000 0.000000 0.000000 0.112390 0.000000
# 6 0.000000 0.000000 0.000000 0.000000 0.000000 0.038759
#
#
# Mechanical properties :
#
#
# Convention : Reuss Voigt Hill
#
# Bulk Modulus (GPa) = 26.72855 38.07053 32.39954
# Shear Modulus (GPa) = 18.96267 25.69869 22.33068
#
# Velocity S-wave (km/s) = 3.08713 3.59385 3.35008
# Velocity P-wave (km/s) = 5.11278 6.02949 5.58996
#
# Compressibility (1/GPa) = 0.03741318
#
# Stress axis : x y z
#
# Youngs Moduli (GPa) = 62.30115 87.92361 35.72719
#
# Poissons Ratio (x) = 0.52023 0.01944
# Poissons Ratio (y) = 0.36863 0.09073
# Poissons Ratio (z) = 0.03390 0.22329
#
# Static dielectric constant tensor:
#      x y z
#    x 1.760870 0.000000 0.000000 
#    y 0.000000 1.741800 0.000000 
#    z 0.000000 0.000000 1.701050 
# 
# From -- ./inp_files/39381.got.cif
#   From: 2010.05.17/outbox.cif.g08.bks.cpg/sg67_20_cif.got.tgz:39381.got - 2010.06.03 18:28:57.
