data_PCOD9503909
_publ_section_title
;
Structure prediction by ZEFSAII (Michael W. Deem and Ramdas Pophale) SiO2 
 PCOD9503909
Probable space group: C M M A
;
_chemical_formula_sum "Si O2"
_cell_formula_units_Z 96
_cell_length_a 27.459447
_cell_length_b 19.294398
_cell_length_c 9.620911
_cell_angle_alpha 90.000000
_cell_angle_beta 90.000000
_cell_angle_gamma 90.000000
_cell_volume 5097.288523
_symmetry_space_group_name_H-M "C M M A"
_symmetry_group_IT_number 67
_symmetry_cell_setting 'orthorhombic'
loop_
_space_group_symop_operation_xyz
x,y,z
-x,1/2-y,z
x,-y,-z
-x,1/2+y,-z
-x,-y,-z
x,1/2+y,-z
-x,y,z
x,1/2-y,z
1/2+x,1/2+y,z
1/2-x,-y,z
1/2+x,1/2-y,-z
1/2-x,y,-z
1/2-x,1/2-y,-z
1/2+x,y,-z
1/2-x,1/2+y,z
1/2+x,-y,z
loop_
_atom_site_type_symbol
_atom_site_label
_atom_site_fract_x
_atom_site_fract_y
_atom_site_fract_z
Si Si1 0.873036 0.577719 0.484759
Si Si2 0.232475 0.925783 0.840429
Si Si3 0.311762 0.669008 0.723147
Si Si4 0.901586 0.330201 0.932349
Si Si5 0.443767 0.547289 0.761327
Si Si6 0.117848 0.588330 0.800111
O O1 0.851337 0.500000 0.500000
O O2 0.836991 0.627632 0.402101
O O3 0.920171 0.566126 0.387531
O O4 0.886258 0.605087 0.636869
O O5 0.260395 0.865224 0.760160
O O6 0.174713 0.923794 0.830305
O O7 0.250000 0.000000 0.784728
O O8 0.250000 0.921475 0.000000
O O9 0.307370 0.750000 0.692900
O O10 0.349053 0.661271 0.854550
O O11 0.915707 0.250000 0.916764
O O12 0.936132 0.385062 0.855772
O O13 0.898635 0.353494 0.091925
O O14 0.500000 0.528201 0.751387
O O15 0.412225 0.482993 0.820004
#
# Coordination Sequence:
#
# PCOD9503909 Si02
#       6
#    16  16  16  16  16  16
#     4   9  20  38  60  86 120 158 198 250 295 352
#     4  11  21  33  58  87 120 167 201 242 289 347
#     4  10  21  39  59  85 123 167 204 236 291 362
#     4  10  21  37  58  85 120 154 194 245 295 356
#     4  10  22  41  64  86 113 155 199 245 308 367
#     4  11  22  36  59  90 120 148 201 250 294 340
#
# _framework density 18.833541
#
# number of rings (size 3 to 8) (size 9 to 14) (size 15 to 20)
#    0.000    1.833    1.667    3.500    2.333    7.000 
#    0.000    4.167    0.000    0.000    0.000    4.667 
#    0.000    0.000    0.000    0.000    0.000    0.000 
#
# Total GULP energy -268032.885954 kJ/mol
# GULP energy per Si atom -5584.018457 kJ/mol
# Density = 1.879068 g / cm^3
# Si number density = 18.833541 Si / 1000 Ang^3
#
#
#
# Elastic Constant Matrix: (Units=GPa)
#
#
# Indices 1 2 3 4 5 6 
#
# 1 121.7501 53.6066 23.9094 0.0000 0.0000 0.0000
# 2 53.6066 133.6210 57.7925 0.0000 0.0000 0.0000
# 3 23.9094 57.7925 109.8751 0.0000 0.0000 0.0000
# 4 0.0000 0.0000 0.0000 22.5670 0.0000 0.0000
# 5 0.0000 0.0000 0.0000 0.0000 23.0389 0.0000
# 6 0.0000 0.0000 0.0000 0.0000 0.0000 12.4659
#
#
#
# Elastic Compliance Matrix: (Units=1/GPa)
#
#
# Indices 1 2 3 4 5 6 
#
# 1 0.009976 -0.003966 -0.000085 0.000000 0.000000 0.000000
# 2 -0.003966 0.011264 -0.005062 0.000000 0.000000 0.000000
# 3 -0.000085 -0.005062 0.011782 0.000000 0.000000 0.000000
# 4 0.000000 0.000000 0.000000 0.044313 0.000000 0.000000
# 5 0.000000 0.000000 0.000000 0.000000 0.043405 0.000000
# 6 0.000000 0.000000 0.000000 0.000000 0.000000 0.080219
#
#
# Mechanical properties :
#
#
# Convention : Reuss Voigt Hill
#
# Bulk Modulus (GPa) = 67.57806 70.65146 69.11476
# Shear Modulus (GPa) = 22.30986 26.94354 24.62670
#
# Velocity S-wave (km/s) = 3.44551 3.78645 3.62000
# Velocity P-wave (km/s) = 7.19641 7.53069 7.36545
#
# Compressibility (1/GPa) = 0.01479770
#
# Stress axis : x y z
#
# Youngs Moduli (GPa) = 100.23789 88.77826 84.87403
#
# Poissons Ratio (x) = 0.35205 0.00722
# Poissons Ratio (y) = 0.39749 0.42961
# Poissons Ratio (z) = 0.00853 0.44938
#
# Static dielectric constant tensor:
#      x y z
#    x 1.638380 0.000000 0.000000 
#    y 0.000000 1.637020 0.000000 
#    z 0.000000 0.000000 1.674720 
# 
# From -- ./inp_files/13722.got.cif
#   From: 2010.05.17/outbox.cif.g08.bks.cpg/sg67_7_cif.got.tgz:13722.got - 2010.06.03 18:28:57.
