data_PCOD9503533
_publ_section_title
;
Structure prediction by ZEFSAII (Michael W. Deem and Ramdas Pophale) SiO2 
 PCOD9503533
Probable space group: C M M A
;
_chemical_formula_sum "Si O2"
_cell_formula_units_Z 96
_cell_length_a 14.340024
_cell_length_b 16.842655
_cell_length_c 21.521518
_cell_angle_alpha 90.000000
_cell_angle_beta 90.000000
_cell_angle_gamma 90.000000
_cell_volume 5197.964769
_symmetry_space_group_name_H-M "C M M A"
_symmetry_group_IT_number 67
_symmetry_cell_setting 'orthorhombic'
loop_
_space_group_symop_operation_xyz
x,y,z
-x,1/2-y,z
x,-y,-z
-x,1/2+y,-z
-x,-y,-z
x,1/2+y,-z
-x,y,z
x,1/2-y,z
1/2+x,1/2+y,z
1/2-x,-y,z
1/2+x,1/2-y,-z
1/2-x,y,-z
1/2-x,1/2-y,-z
1/2+x,y,-z
1/2-x,1/2+y,z
1/2+x,-y,z
loop_
_atom_site_type_symbol
_atom_site_label
_atom_site_fract_x
_atom_site_fract_y
_atom_site_fract_z
Si Si1 0.500000 0.051681 0.177660
Si Si2 0.000000 0.942425 0.941023
Si Si3 0.500000 0.157099 0.607316
Si Si4 0.199484 0.419122 0.685348
Si Si5 0.711341 0.591894 0.065943
Si Si6 0.183627 0.342401 0.815440
Si Si7 0.293077 0.843838 0.435435
Si Si8 0.500000 0.504676 0.685682
O O1 0.590691 0.106140 0.176441
O O2 0.500000 0.999418 0.239813
O O3 0.500000 0.996513 0.119187
O O4 0.099813 0.900151 0.939477
O O5 0.000000 0.000000 0.000000
O O6 0.500000 0.250000 0.631389
O O7 0.404856 0.147969 0.568358
O O8 0.500000 0.082926 0.655428
O O9 0.250000 0.500000 0.704694
O O10 0.212025 0.361241 0.744199
O O11 0.248094 0.386041 0.623875
O O12 0.092640 0.443952 0.670882
O O13 0.750000 0.500000 0.069241
O O14 0.746877 0.631776 0.129437
O O15 0.750000 0.623680 0.000000
O O16 0.164030 0.250000 0.821546
O O17 0.271485 0.750000 0.430974
O O18 0.250000 0.873870 0.500000
#
# Coordination Sequence:
#
# PCOD9503533 Si02
#       8
#     8   8   8  16  16  16  16   8
#     4  10  21  36  63  85 117 156 198 252 285 351
#     4  12  20  35  60  89 116 147 202 246 291 351
#     4  10  20  39  62  87 122 159 198 243 297 359
#     4  11  22  39  62  86 122 154 201 249 295 349
#     4  11  21  37  61  89 117 156 200 245 297 353
#     4  11  23  39  59  88 121 159 198 243 303 357
#     4  10  22  40  62  89 120 159 198 241 301 360
#     4  10  22  38  58  93 115 155 202 250 293 344
#
# _framework density 18.468767
#
# number of rings (size 3 to 8) (size 9 to 14) (size 15 to 20)
#    0.000    1.333    5.000    1.250    2.333    1.333 
#    0.000    3.333    0.000    0.000    0.000    0.000 
#    0.000    0.000    0.000    0.000    0.000    0.000 
#
# Total GULP energy -267741.002334 kJ/mol
# GULP energy per Si atom -5577.937549 kJ/mol
# Density = 1.842673 g / cm^3
# Si number density = 18.468767 Si / 1000 Ang^3
#
#
#
# Elastic Constant Matrix: (Units=GPa)
#
#
# Indices 1 2 3 4 5 6 
#
# 1 128.2814 16.8414 59.8495 0.0000 0.0000 0.0000
# 2 16.8414 45.3710 33.2193 0.0000 0.0000 0.0000
# 3 59.8495 33.2193 134.7848 0.0000 0.0000 0.0000
# 4 0.0000 0.0000 0.0000 10.0443 0.0000 0.0000
# 5 0.0000 0.0000 0.0000 0.0000 28.6599 0.0000
# 6 0.0000 0.0000 0.0000 0.0000 0.0000 8.1654
#
#
#
# Elastic Compliance Matrix: (Units=1/GPa)
#
#
# Indices 1 2 3 4 5 6 
#
# 1 0.009844 -0.000553 -0.004235 0.000000 0.000000 0.000000
# 2 -0.000553 0.026925 -0.006390 0.000000 0.000000 0.000000
# 3 -0.004235 -0.006390 0.010874 0.000000 0.000000 0.000000
# 4 0.000000 0.000000 0.000000 0.099559 0.000000 0.000000
# 5 0.000000 0.000000 0.000000 0.000000 0.034892 0.000000
# 6 0.000000 0.000000 0.000000 0.000000 0.000000 0.122468
#
#
# Mechanical properties :
#
#
# Convention : Reuss Voigt Hill
#
# Bulk Modulus (GPa) = 39.54689 58.69526 49.12108
# Shear Modulus (GPa) = 14.90997 22.60905 18.75951
#
# Velocity S-wave (km/s) = 2.84440 3.50262 3.19053
# Velocity P-wave (km/s) = 5.67863 6.94317 6.34249
#
# Compressibility (1/GPa) = 0.02528644
#
# Stress axis : x y z
#
# Youngs Moduli (GPa) = 101.58837 37.14073 91.95871
#
# Poissons Ratio (x) = 0.02056 0.38940
# Poissons Ratio (y) = 0.05623 0.58763
# Poissons Ratio (z) = 0.43018 0.23733
#
# Static dielectric constant tensor:
#      x y z
#    x 1.650540 0.000000 0.000000 
#    y 0.000000 1.612810 0.000000 
#    z 0.000000 0.000000 1.623990 
# 
# From -- ./inp_files/38594.got.cif
#   From: 2010.05.17/outbox.cif.g08.bks.cpg/sg67_20_cif.got.tgz:38594.got - 2010.06.03 18:28:57.
