data_PCOD9503000
_publ_section_title
;
Structure prediction by ZEFSAII (Michael W. Deem and Ramdas Pophale) SiO2 
 PCOD9503000
Probable space group: C M M A
;
_chemical_formula_sum "Si O2"
_cell_formula_units_Z 72
_cell_length_a 8.823934
_cell_length_b 14.896409
_cell_length_c 29.485071
_cell_angle_alpha 90.000000
_cell_angle_beta 90.000000
_cell_angle_gamma 90.000000
_cell_volume 3875.663089
_symmetry_space_group_name_H-M "C M M A"
_symmetry_group_IT_number 67
_symmetry_cell_setting 'orthorhombic'
loop_
_space_group_symop_operation_xyz
x,y,z
-x,1/2-y,z
x,-y,-z
-x,1/2+y,-z
-x,-y,-z
x,1/2+y,-z
-x,y,z
x,1/2-y,z
1/2+x,1/2+y,z
1/2-x,-y,z
1/2+x,1/2-y,-z
1/2-x,y,-z
1/2-x,1/2-y,-z
1/2+x,y,-z
1/2-x,1/2+y,z
1/2+x,-y,z
loop_
_atom_site_type_symbol
_atom_site_label
_atom_site_fract_x
_atom_site_fract_y
_atom_site_fract_z
Si Si1 0.171969 0.141491 0.046442
Si Si2 0.318980 0.250000 0.690760
Si Si3 0.680919 0.906079 0.857978
Si Si4 0.683050 0.750000 0.550424
Si Si5 0.182558 0.250000 0.790304
Si Si6 0.316495 0.399095 0.616832
O O1 0.167618 0.250000 0.044751
O O2 0.260827 0.116171 0.091660
O O3 0.000000 0.107595 0.049247
O O4 0.250000 0.110618 0.000000
O O5 0.500000 0.250000 0.695439
O O6 0.245852 0.250000 0.739953
O O7 0.279212 0.338993 0.661491
O O8 0.500000 0.907970 0.859123
O O9 0.730690 0.834092 0.820812
O O10 0.750000 0.000000 0.844490
O O11 0.500000 0.750000 0.550524
O O12 0.750000 0.750000 0.500000
O O13 0.745949 0.838219 0.576645
O O14 0.000000 0.250000 0.787808
O O15 0.500000 0.402312 0.612405
O O16 0.250000 0.500000 0.618187
#
# Coordination Sequence:
#
# PCOD9503000 Si02
#       6
#    16   8  16   8   8  16
#     4  10  20  35  58  85 112 146 183 224 275 333
#     4   9  21  39  61  86 117 152 194 245 298 354
#     4  11  23  40  59  84 114 147 187 232 281 339
#     4  11  22  38  60  89 126 169 210 255 303 356
#     4  10  23  41  61  83 115 151 188 236 292 348
#     4  10  21  39  61  90 123 160 205 254 303 355
#
# _framework density 18.577466000000001
#
# number of rings (size 3 to 8) (size 9 to 14) (size 15 to 20)
#    0.000    1.778    1.111    3.667    0.000    7.111 
#    0.000    8.889    0.000    0.000    0.000    0.000 
#    0.000    0.000    0.000    0.000    0.000    0.000 
#
# Total GULP energy -201067.482071 kJ/mol
# GULP energy per Si atom -5585.207835 kJ/mol
# Density = 1.853518 g / cm^3
# Si number density = 18.577466 Si / 1000 Ang^3
#
#
#
# Elastic Constant Matrix: (Units=GPa)
#
#
# Indices 1 2 3 4 5 6 
#
# 1 102.4503 64.9965 70.0755 0.0000 0.0000 0.0000
# 2 64.9965 165.4874 99.7188 0.0000 0.0000 0.0000
# 3 70.0755 99.7188 193.8989 0.0000 0.0000 0.0000
# 4 0.0000 0.0000 0.0000 33.8204 0.0000 0.0000
# 5 0.0000 0.0000 0.0000 0.0000 37.8900 0.0000
# 6 0.0000 0.0000 0.0000 0.0000 0.0000 31.7735
#
#
#
# Elastic Compliance Matrix: (Units=1/GPa)
#
#
# Indices 1 2 3 4 5 6 
#
# 1 0.014330 -0.003634 -0.003310 0.000000 0.000000 0.000000
# 2 -0.003634 0.009678 -0.003664 0.000000 0.000000 0.000000
# 3 -0.003310 -0.003664 0.008238 0.000000 0.000000 0.000000
# 4 0.000000 0.000000 0.000000 0.029568 0.000000 0.000000
# 5 0.000000 0.000000 0.000000 0.000000 0.026392 0.000000
# 6 0.000000 0.000000 0.000000 0.000000 0.000000 0.031473
#
#
# Mechanical properties :
#
#
# Convention : Reuss Voigt Hill
#
# Bulk Modulus (GPa) = 90.65909 103.49094 97.07501
# Shear Modulus (GPa) = 34.58507 35.83316 35.20911
#
# Velocity S-wave (km/s) = 4.31939 4.39663 4.35818
# Velocity P-wave (km/s) = 8.58968 9.03341 8.81434
#
# Compressibility (1/GPa) = 0.01103033
#
# Stress axis : x y z
#
# Youngs Moduli (GPa) = 69.78218 103.33101 121.38987
#
# Poissons Ratio (x) = 0.37547 0.40184
# Poissons Ratio (y) = 0.25356 0.44475
# Poissons Ratio (z) = 0.23100 0.37859
#
# Static dielectric constant tensor:
#      x y z
#    x 1.630880 0.000000 0.000000 
#    y 0.000000 1.630610 0.000000 
#    z 0.000000 0.000000 1.610940 
# 
# From -- ./inp_files/43134.got.cif
#   From: 2010.05.17/outbox.cif.g08.bks.cpg/sg67_22_cif.got.tgz:43134.got - 2010.06.03 18:28:57.
