data_PCOD9503119
_publ_section_title
;
Structure prediction by ZEFSAII (Michael W. Deem and Ramdas Pophale) SiO2 
 PCOD9503119
Probable space group: C M M A
;
_chemical_formula_sum "Si O2"
_cell_formula_units_Z 112
_cell_length_a 13.829767
_cell_length_b 30.974531
_cell_length_c 13.701332
_cell_angle_alpha 90.000000
_cell_angle_beta 90.000000
_cell_angle_gamma 90.000000
_cell_volume 5869.247079
_symmetry_space_group_name_H-M "C M M A"
_symmetry_group_IT_number 67
_symmetry_cell_setting 'orthorhombic'
loop_
_space_group_symop_operation_xyz
x,y,z
-x,1/2-y,z
x,-y,-z
-x,1/2+y,-z
-x,-y,-z
x,1/2+y,-z
-x,y,z
x,1/2-y,z
1/2+x,1/2+y,z
1/2-x,-y,z
1/2+x,1/2-y,-z
1/2-x,y,-z
1/2-x,1/2-y,-z
1/2+x,y,-z
1/2-x,1/2+y,z
1/2+x,-y,z
loop_
_atom_site_type_symbol
_atom_site_label
_atom_site_fract_x
_atom_site_fract_y
_atom_site_fract_z
Si Si1 0.388806 0.580603 0.976780
Si Si2 0.108882 0.831250 0.370702
Si Si3 0.714254 0.873934 0.285601
Si Si4 0.890628 0.841446 0.894981
Si Si5 0.608453 0.250000 0.226251
Si Si6 0.224669 0.950551 0.835976
Si Si7 0.304762 0.250000 0.899286
Si Si8 0.616145 0.799128 0.413655
O O1 0.500000 0.570615 0.957463
O O2 0.380242 0.631260 0.006019
O O3 0.353138 0.555826 0.075607
O O4 0.320692 0.569215 0.887029
O O5 0.180411 0.867239 0.330247
O O6 0.108840 0.792344 0.293633
O O7 0.139527 0.810661 0.474105
O O8 0.000000 0.847559 0.382467
O O9 0.693166 0.856915 0.177041
O O10 0.695168 0.924326 0.261856
O O11 0.652896 0.839483 0.349670
O O12 0.873574 0.791162 0.897489
O O13 0.000000 0.851469 0.858861
O O14 0.500000 0.250000 0.175300
O O15 0.712620 0.250000 0.173387
O O16 0.250000 0.000000 0.817226
O O17 0.250000 0.250000 0.000000
O O18 0.500000 0.797579 0.404972
O O19 0.651275 0.750000 0.388601
#
# Coordination Sequence:
#
# PCOD9503119 Si02
#       8
#    16  16  16  16   8  16   8  16
#     4   9  19  37  62  84 107 142 191 248 296 338
#     4  10  20  36  57  83 114 147 191 242 279 326
#     4  11  22  35  56  83 116 147 186 229 293 351
#     4  10  22  37  52  76 114 154 193 234 276 338
#     4  10  20  37  56  81 113 153 201 243 274 318
#     4  10  22  38  59  85 113 143 187 242 296 355
#     4  12  25  35  53  74 117 168 204 224 272 336
#     4  10  21  36  58  87 117 150 191 237 287 342
#
# _framework density 19.082515999999998
#
# number of rings (size 3 to 8) (size 9 to 14) (size 15 to 20)
#    0.000    1.857    2.143    1.929    6.000    3.429 
#    0.000    2.857    0.000    1.714    0.000    2.000 
#    0.000    0.000    0.000    0.000    0.000    0.000 
#
# Total GULP energy -311987.857397 kJ/mol
# GULP energy per Si atom -5571.211739 kJ/mol
# Density = 1.903908 g / cm^3
# Si number density = 19.082516 Si / 1000 Ang^3
#
#
#
# Elastic Constant Matrix: (Units=GPa)
#
#
# Indices 1 2 3 4 5 6 
#
# 1 96.0881 19.8625 29.6380 0.0000 0.0000 0.0000
# 2 19.8625 121.8487 27.6922 0.0000 0.0000 0.0000
# 3 29.6380 27.6922 57.5051 0.0000 0.0000 0.0000
# 4 0.0000 0.0000 0.0000 92.6353 0.0000 0.0000
# 5 0.0000 0.0000 0.0000 0.0000 18.0941 0.0000
# 6 0.0000 0.0000 0.0000 0.0000 0.0000 19.4220
#
#
#
# Elastic Compliance Matrix: (Units=1/GPa)
#
#
# Indices 1 2 3 4 5 6 
#
# 1 0.012419 -0.000640 -0.006092 0.000000 0.000000 0.000000
# 2 -0.000640 0.009248 -0.004124 0.000000 0.000000 0.000000
# 3 -0.006092 -0.004124 0.022516 0.000000 0.000000 0.000000
# 4 0.000000 0.000000 0.000000 0.010795 0.000000 0.000000
# 5 0.000000 0.000000 0.000000 0.000000 0.055267 0.000000
# 6 0.000000 0.000000 0.000000 0.000000 0.000000 0.051488
#
#
# Mechanical properties :
#
#
# Convention : Reuss Voigt Hill
#
# Bulk Modulus (GPa) = 44.50290 47.75860 46.13075
# Shear Modulus (GPa) = 26.18695 39.24689 32.71692
#
# Velocity S-wave (km/s) = 3.70848 4.54000 4.14514
# Velocity P-wave (km/s) = 6.45825 7.25009 6.86560
#
# Compressibility (1/GPa) = 0.02247045
#
# Stress axis : x y z
#
# Youngs Moduli (GPa) = 80.52473 108.12651 44.41345
#
# Poissons Ratio (x) = 0.06917 0.27059
# Poissons Ratio (y) = 0.05151 0.18316
# Poissons Ratio (z) = 0.49059 0.44591
#
# Static dielectric constant tensor:
#      x y z
#    x 1.649580 0.000000 0.000000 
#    y 0.000000 1.716150 0.000000 
#    z 0.000000 0.000000 1.642900 
# 
# From -- ./inp_files/27766.got.cif
#   From: 2010.05.17/outbox.cif.g08.bks.cpg/sg67_14_cif.got.tgz:27766.got - 2010.06.03 18:28:57.
