data_PCOD9503187
_publ_section_title
;
Structure prediction by ZEFSAII (Michael W. Deem and Ramdas Pophale) SiO2 
 PCOD9503187
Probable space group: C M M A
;
_chemical_formula_sum "Si O2"
_cell_formula_units_Z 96
_cell_length_a 7.823874
_cell_length_b 29.326536
_cell_length_c 19.139139
_cell_angle_alpha 90.000000
_cell_angle_beta 90.000000
_cell_angle_gamma 90.000000
_cell_volume 4391.420371
_symmetry_space_group_name_H-M "C M M A"
_symmetry_group_IT_number 67
_symmetry_cell_setting 'orthorhombic'
loop_
_space_group_symop_operation_xyz
x,y,z
-x,1/2-y,z
x,-y,-z
-x,1/2+y,-z
-x,-y,-z
x,1/2+y,-z
-x,y,z
x,1/2-y,z
1/2+x,1/2+y,z
1/2-x,-y,z
1/2+x,1/2-y,-z
1/2-x,y,-z
1/2-x,1/2-y,-z
1/2+x,y,-z
1/2-x,1/2+y,z
1/2+x,-y,z
loop_
_atom_site_type_symbol
_atom_site_label
_atom_site_fract_x
_atom_site_fract_y
_atom_site_fract_z
Si Si1 0.706359 0.802452 0.578077
Si Si2 0.201930 0.050503 0.419055
Si Si3 0.302409 0.051626 0.212811
Si Si4 0.306434 0.124806 0.316056
Si Si5 0.294245 0.701202 0.082418
Si Si6 0.204413 0.398646 0.081354
O O1 0.500000 0.803029 0.582272
O O2 0.765815 0.750000 0.581333
O O3 0.750000 0.820335 0.500000
O O4 0.772837 0.831793 0.643873
O O5 0.250000 0.052525 0.500000
O O6 0.307488 0.087740 0.377855
O O7 0.000000 0.058105 0.409935
O O8 0.250000 0.000000 0.393881
O O9 0.500000 0.053850 0.231525
O O10 0.220315 0.094488 0.254876
O O11 0.277193 0.062916 0.131581
O O12 0.250000 0.000000 0.228240
O O13 0.500000 0.137954 0.294689
O O14 0.500000 0.701020 0.089285
O O15 0.231057 0.750000 0.111772
O O16 0.231478 0.651653 0.106560
O O17 0.250000 0.701762 0.000000
O O18 0.000000 0.399408 0.086911
O O19 0.250000 0.404045 0.000000
#
# Coordination Sequence:
#
# PCOD9503187 Si02
#       6
#    16  16  16  16  16  16
#     4   9  18  34  57  85 117 153 192 232 273 319
#     4  11  21  33  51  76 107 141 179 222 267 317
#     4  11  24  41  59  80 108 143 185 233 289 349
#     4  10  21  37  56  79 109 145 184 227 275 328
#     4   8  14  26  47  76 108 139 169 205 253 310
#     4  10  20  36  59  85 113 145 185 233 285 342
#
# _framework density 21.860811000000002
#
# number of rings (size 3 to 8) (size 9 to 14) (size 15 to 20)
#    0.000    2.167    0.000    4.000    0.000    5.667 
#    0.000    2.500    0.000    1.000    0.000    0.000 
#    0.000    0.000    0.000    0.000    0.000    0.000 
#
# Total GULP energy -267610.571657 kJ/mol
# GULP energy per Si atom -5575.220243 kJ/mol
# Density = 2.181105 g / cm^3
# Si number density = 21.860811 Si / 1000 Ang^3
#
#
#
# Elastic Constant Matrix: (Units=GPa)
#
#
# Indices 1 2 3 4 5 6 
#
# 1 58.4528 1.4678 -2.6920 0.0000 0.0000 0.0000
# 2 1.4678 92.3551 52.4665 0.0000 0.0000 0.0000
# 3 -2.6920 52.4665 83.2908 0.0000 0.0000 0.0000
# 4 0.0000 0.0000 0.0000 44.0695 0.0000 0.0000
# 5 0.0000 0.0000 0.0000 0.0000 13.1311 0.0000
# 6 0.0000 0.0000 0.0000 0.0000 0.0000 13.6009
#
#
#
# Elastic Compliance Matrix: (Units=1/GPa)
#
#
# Indices 1 2 3 4 5 6 
#
# 1 0.017183 -0.000917 0.001133 0.000000 0.000000 0.000000
# 2 -0.000917 0.016911 -0.010682 0.000000 0.000000 0.000000
# 3 0.001133 -0.010682 0.018772 0.000000 0.000000 0.000000
# 4 0.000000 0.000000 0.000000 0.022691 0.000000 0.000000
# 5 0.000000 0.000000 0.000000 0.000000 0.076155 0.000000
# 6 0.000000 0.000000 0.000000 0.000000 0.000000 0.073524
#
#
# Mechanical properties :
#
#
# Convention : Reuss Voigt Hill
#
# Bulk Modulus (GPa) = 31.31503 37.39815 34.35659
# Shear Modulus (GPa) = 19.46945 26.35073 22.91009
#
# Velocity S-wave (km/s) = 2.98755 3.47563 3.24079
# Velocity P-wave (km/s) = 5.12410 5.76639 5.45471
#
# Compressibility (1/GPa) = 0.03193354
#
# Stress axis : x y z
#
# Youngs Moduli (GPa) = 58.19704 59.13393 53.27204
#
# Poissons Ratio (x) = 0.05420 -0.06034
# Poissons Ratio (y) = 0.05334 0.56905
# Poissons Ratio (z) = -0.06592 0.63167
#
# Static dielectric constant tensor:
#      x y z
#    x 1.319020 0.000000 0.000000 
#    y 0.000000 1.857260 0.000000 
#    z 0.000000 0.000000 1.782850 
# 
# From -- ./inp_files/37170.got.cif
#   From: 2010.05.17/outbox.cif.g08.bks.cpg/sg67_19_cif.got.tgz:37170.got - 2010.06.03 18:28:57.
