data_PCOD9503181
_publ_section_title
;
Structure prediction by ZEFSAII (Michael W. Deem and Ramdas Pophale) SiO2 
 PCOD9503181
Probable space group: C M M A
;
_chemical_formula_sum "Si O2"
_cell_formula_units_Z 64
_cell_length_a 14.901942
_cell_length_b 20.065402
_cell_length_c 10.687379
_cell_angle_alpha 90.000000
_cell_angle_beta 90.000000
_cell_angle_gamma 90.000000
_cell_volume 3195.670139
_symmetry_space_group_name_H-M "C M M A"
_symmetry_group_IT_number 67
_symmetry_cell_setting 'orthorhombic'
loop_
_space_group_symop_operation_xyz
x,y,z
-x,1/2-y,z
x,-y,-z
-x,1/2+y,-z
-x,-y,-z
x,1/2+y,-z
-x,y,z
x,1/2-y,z
1/2+x,1/2+y,z
1/2-x,-y,z
1/2+x,1/2-y,-z
1/2-x,y,-z
1/2-x,1/2-y,-z
1/2+x,y,-z
1/2-x,1/2+y,z
1/2+x,-y,z
loop_
_atom_site_type_symbol
_atom_site_label
_atom_site_fract_x
_atom_site_fract_y
_atom_site_fract_z
Si Si1 0.390418 0.327151 0.937466
Si Si2 0.750000 0.000000 0.708706
Si Si3 0.600473 0.446910 0.110421
Si Si4 0.250000 0.888123 0.500000
Si Si5 0.601080 0.170405 0.656153
O O1 0.500000 0.328580 0.936236
O O2 0.363345 0.250000 0.959233
O O3 0.364056 0.349094 0.796012
O O4 0.362816 0.378961 0.045605
O O5 0.835252 0.016435 0.793362
O O6 0.750812 0.063344 0.618152
O O7 0.500000 0.433575 0.161305
O O8 0.591936 0.500000 0.000000
O O9 0.336907 0.845570 0.462621
O O10 0.500000 0.142764 0.640726
O O11 0.594841 0.250000 0.665599
#
# Coordination Sequence:
#
# PCOD9503181 Si02
#       5
#    16   8  16   8  16
#     4   8  15  31  58  90 117 141 177 230 294 358
#     4  11  25  38  52  78 111 151 198 240 274 325
#     4  10  20  36  59  84 112 147 186 235 295 349
#     4  11  23  38  54  76 111 155 198 234 270 321
#     4   9  18  35  60  86 112 145 184 228 282 342
#
# _framework density 20.027097999999999
#
# number of rings (size 3 to 8) (size 9 to 14) (size 15 to 20)
#    0.000    2.500    0.000    3.750    0.000    4.000 
#    0.000    5.000    0.000    9.000    0.000    0.000 
#    0.000    0.000    0.000    0.000    0.000    0.000 
#
# Total GULP energy -178217.630641 kJ/mol
# GULP energy per Si atom -5569.300958 kJ/mol
# Density = 1.998152 g / cm^3
# Si number density = 20.027098 Si / 1000 Ang^3
#
#
#
# Elastic Constant Matrix: (Units=GPa)
#
#
# Indices 1 2 3 4 5 6 
#
# 1 84.1142 21.8757 65.1033 0.0000 0.0000 0.0000
# 2 21.8757 72.8982 40.3523 0.0000 0.0000 0.0000
# 3 65.1033 40.3523 101.9401 0.0000 0.0000 0.0000
# 4 0.0000 0.0000 0.0000 34.6534 0.0000 0.0000
# 5 0.0000 0.0000 0.0000 0.0000 65.2601 0.0000
# 6 0.0000 0.0000 0.0000 0.0000 0.0000 21.4437
#
#
#
# Elastic Compliance Matrix: (Units=1/GPa)
#
#
# Indices 1 2 3 4 5 6 
#
# 1 0.023657 0.001619 -0.015749 0.000000 0.000000 0.000000
# 2 0.001619 0.017678 -0.008031 0.000000 0.000000 0.000000
# 3 -0.015749 -0.008031 0.023047 0.000000 0.000000 0.000000
# 4 0.000000 0.000000 0.000000 0.028857 0.000000 0.000000
# 5 0.000000 0.000000 0.000000 0.000000 0.015323 0.000000
# 6 0.000000 0.000000 0.000000 0.000000 0.000000 0.046634
#
#
# Mechanical properties :
#
#
# Convention : Reuss Voigt Hill
#
# Bulk Modulus (GPa) = 49.85518 57.06836 53.46177
# Shear Modulus (GPa) = 24.24752 33.04619 28.64686
#
# Velocity S-wave (km/s) = 3.48334 4.06652 3.78617
# Velocity P-wave (km/s) = 6.41296 7.11380 6.77245
#
# Compressibility (1/GPa) = 0.02005809
#
# Stress axis : x y z
#
# Youngs Moduli (GPa) = 42.27005 56.56839 43.38947
#
# Poissons Ratio (x) = -0.09157 0.68336
# Poissons Ratio (y) = -0.06842 0.34848
# Poissons Ratio (z) = 0.66573 0.45432
#
# Static dielectric constant tensor:
#      x y z
#    x 1.814400 0.000000 0.000000 
#    y 0.000000 1.801100 0.000000 
#    z 0.000000 0.000000 1.688580 
# 
# From -- ./inp_files/8057.got.cif
#   From: 2010.05.17/outbox.cif.g08.bks.cpg/sg67_5_cif.got.tgz:8057.got - 2010.06.03 18:28:57.
