data_PCOD9503033
_publ_section_title
;
Structure prediction by ZEFSAII (Michael W. Deem and Ramdas Pophale) SiO2 
 PCOD9503033
Probable space group: C M M A
;
_chemical_formula_sum "Si O2"
_cell_formula_units_Z 64
_cell_length_a 9.766680
_cell_length_b 15.772836
_cell_length_c 18.925818
_cell_angle_alpha 90.000000
_cell_angle_beta 90.000000
_cell_angle_gamma 90.000000
_cell_volume 2915.488990
_symmetry_space_group_name_H-M "C M M A"
_symmetry_group_IT_number 67
_symmetry_cell_setting 'orthorhombic'
loop_
_space_group_symop_operation_xyz
x,y,z
-x,1/2-y,z
x,-y,-z
-x,1/2+y,-z
-x,-y,-z
x,1/2+y,-z
-x,y,z
x,1/2-y,z
1/2+x,1/2+y,z
1/2-x,-y,z
1/2+x,1/2-y,-z
1/2-x,y,-z
1/2-x,1/2-y,-z
1/2+x,y,-z
1/2-x,1/2+y,z
1/2+x,-y,z
loop_
_atom_site_type_symbol
_atom_site_label
_atom_site_fract_x
_atom_site_fract_y
_atom_site_fract_z
Si Si1 0.341729 0.916003 0.179659
Si Si2 0.000000 0.646230 0.386288
Si Si3 0.656272 0.349065 0.061931
Si Si4 0.000000 0.646649 0.547815
Si Si5 0.789216 0.147404 0.334021
O O1 0.500000 0.923597 0.155365
O O2 0.250109 0.854205 0.131622
O O3 0.344793 0.887181 0.260927
O O4 0.250000 0.000000 0.175047
O O5 0.134194 0.619129 0.345161
O O6 0.000000 0.750000 0.388182
O O7 0.000000 0.616495 0.467495
O O8 0.500000 0.383393 0.069063
O O9 0.639620 0.250000 0.044799
O O10 0.750000 0.389162 0.000000
O O11 0.871398 0.621665 0.595804
O O12 0.000000 0.750000 0.543794
O O13 0.795577 0.250000 0.331037
#
# Coordination Sequence:
#
# PCOD9503033 Si02
#       5
#    16   8  16   8  16
#     4  12  26  42  61  86 123 167 209 254 301 357
#     4   9  18  30  55  89 120 149 192 253 309 366
#     4  10  22  42  70 101 130 159 196 243 295 354
#     4   9  16  32  55  87 118 149 196 251 311 364
#     4  10  20  35  59  88 118 155 199 252 309 364
#
# _framework density 21.951719000000001
#
# number of rings (size 3 to 8) (size 9 to 14) (size 15 to 20)
#    0.000    1.750    1.250    3.000    3.500    6.000 
#    0.000    2.500    0.000    4.500    0.000    0.000 
#    0.000    0.000    0.000    0.000    0.000    0.000 
#
# Total GULP energy -178638.557409 kJ/mol
# GULP energy per Si atom -5582.454919 kJ/mol
# Density = 2.190176 g / cm^3
# Si number density = 21.951719 Si / 1000 Ang^3
#
#
#
# Elastic Constant Matrix: (Units=GPa)
#
#
# Indices 1 2 3 4 5 6 
#
# 1 227.0966 18.2256 45.8872 0.0000 0.0000 0.0000
# 2 18.2256 21.0408 -3.7929 0.0000 0.0000 0.0000
# 3 45.8872 -3.7929 73.0921 0.0000 0.0000 0.0000
# 4 0.0000 0.0000 0.0000 564.4913 0.0000 0.0000
# 5 0.0000 0.0000 0.0000 0.0000 25.6996 0.0000
# 6 0.0000 0.0000 0.0000 0.0000 0.0000 -5.2823
#
#
#
# Elastic Compliance Matrix: (Units=1/GPa)
#
#
# Indices 1 2 3 4 5 6 
#
# 1 0.005621 -0.005557 -0.003817 0.000000 0.000000 0.000000
# 2 -0.005557 0.053469 0.006263 0.000000 0.000000 0.000000
# 3 -0.003817 0.006263 0.016403 0.000000 0.000000 0.000000
# 4 0.000000 0.000000 0.000000 0.001772 0.000000 0.000000
# 5 0.000000 0.000000 0.000000 0.000000 0.038911 0.000000
# 6 0.000000 0.000000 0.000000 0.000000 0.000000 -0.189313
#
#
# Mechanical properties :
#
#
# Convention : Reuss Voigt Hill
#
# Bulk Modulus (GPa) = 14.43603 49.09659 31.76631
# Shear Modulus (GPa) = -114.08524 134.37571 10.14523
#
# Velocity S-wave (km/s) = -7.21691 7.83244 2.15213
# Velocity P-wave (km/s) = 7.92809 10.20835 4.54730
#
# Compressibility (1/GPa) = 0.06927112
#
# Stress axis : x y z
#
# Youngs Moduli (GPa) = 177.91644 18.70245 60.96571
#
# Poissons Ratio (x) = 0.10392 0.23270
# Poissons Ratio (y) = 0.98862 -0.38183
# Poissons Ratio (z) = 0.67910 -0.11713
#
# Static dielectric constant tensor:
#      x y z
#    x 1.877350 0.000000 0.000000 
#    y 0.000000 1.848160 0.000000 
#    z 0.000000 0.000000 1.759020 
# 
# From -- ./inp_files/31751.got.cif
#   From: 2010.05.17/outbox.cif.g08.bks.cpg/sg67_16_cif.got.tgz:31751.got - 2010.06.03 18:28:57.
