data_PCOD9503639
_publ_section_title
;
Structure prediction by ZEFSAII (Michael W. Deem and Ramdas Pophale) SiO2 
 PCOD9503639
Probable space group: C M M A
;
_chemical_formula_sum "Si O2"
_cell_formula_units_Z 72
_cell_length_a 14.868292
_cell_length_b 16.357596
_cell_length_c 15.938024
_cell_angle_alpha 90.000000
_cell_angle_beta 90.000000
_cell_angle_gamma 90.000000
_cell_volume 3876.279067
_symmetry_space_group_name_H-M "C M M A"
_symmetry_group_IT_number 67
_symmetry_cell_setting 'orthorhombic'
loop_
_space_group_symop_operation_xyz
x,y,z
-x,1/2-y,z
x,-y,-z
-x,1/2+y,-z
-x,-y,-z
x,1/2+y,-z
-x,y,z
x,1/2-y,z
1/2+x,1/2+y,z
1/2-x,-y,z
1/2+x,1/2-y,-z
1/2-x,y,-z
1/2-x,1/2-y,-z
1/2+x,y,-z
1/2-x,1/2+y,z
1/2+x,-y,z
loop_
_atom_site_type_symbol
_atom_site_label
_atom_site_fract_x
_atom_site_fract_y
_atom_site_fract_z
Si Si1 0.000000 0.936068 0.425091
Si Si2 0.688277 0.848698 0.764125
Si Si3 0.500000 0.561802 0.078159
Si Si4 0.189589 0.348626 0.079694
Si Si5 0.500000 0.942259 0.765717
Si Si6 0.689280 0.348333 0.423525
O O1 0.088867 0.881419 0.431896
O O2 0.000000 0.972829 0.330818
O O3 0.000000 0.000000 0.500000
O O4 0.678976 0.750000 0.767994
O O5 0.757707 0.874280 0.836039
O O6 0.590262 0.888319 0.776749
O O7 0.721337 0.870837 0.670325
O O8 0.409345 0.614624 0.074224
O O9 0.500000 0.512009 0.164962
O O10 0.500000 0.500000 0.000000
O O11 0.183593 0.250000 0.079753
O O12 0.250000 0.373374 0.000000
O O13 0.687978 0.250000 0.427452
O O14 0.750000 0.379346 0.500000
#
# Coordination Sequence:
#
# PCOD9503639 Si02
#       6
#     8  16   8  16   8  16
#     4  10  21  35  51  77 111 144 177 216 267 321
#     4   9  18  35  58  81 105 137 179 223 265 312
#     4  12  25  38  55  82 114 143 172 213 264 316
#     4  10  22  40  60  80 105 140 180 219 259 308
#     4  10  21  35  55  81 109 141 176 219 267 317
#     4   9  18  34  56  79 103 137 182 226 265 309
#
# _framework density 18.574513
#
# number of rings (size 3 to 8) (size 9 to 14) (size 15 to 20)
#    0.000    2.222    0.000    2.333    0.000    8.000 
#    0.000    8.889    0.000    6.667    0.000    0.000 
#    0.000    0.000    0.000    0.000    0.000    0.000 
#
# Total GULP energy -200996.136631 kJ/mol
# GULP energy per Si atom -5583.226018 kJ/mol
# Density = 1.853224 g / cm^3
# Si number density = 18.574513 Si / 1000 Ang^3
#
#
#
# Elastic Constant Matrix: (Units=GPa)
#
#
# Indices 1 2 3 4 5 6 
#
# 1 155.8340 34.0378 114.3988 0.0000 0.0000 0.0000
# 2 34.0378 16.7269 44.1647 0.0000 0.0000 0.0000
# 3 114.3988 44.1647 181.4328 0.0000 0.0000 0.0000
# 4 0.0000 0.0000 0.0000 22.6753 0.0000 0.0000
# 5 0.0000 0.0000 0.0000 0.0000 36.4880 0.0000
# 6 0.0000 0.0000 0.0000 0.0000 0.0000 363.4539
#
#
#
# Elastic Compliance Matrix: (Units=1/GPa)
#
#
# Indices 1 2 3 4 5 6 
#
# 1 0.012938 -0.013403 -0.004896 0.000000 0.000000 0.000000
# 2 -0.013403 0.181211 -0.035660 0.000000 0.000000 0.000000
# 3 -0.004896 -0.035660 0.017279 0.000000 0.000000 0.000000
# 4 0.000000 0.000000 0.000000 0.044101 0.000000 0.000000
# 5 0.000000 0.000000 0.000000 0.000000 0.027406 0.000000
# 6 0.000000 0.000000 0.000000 0.000000 0.000000 0.002751
#
#
# Mechanical properties :
#
#
# Convention : Reuss Voigt Hill
#
# Bulk Modulus (GPa) = 9.66068 82.13292 45.89680
# Shear Modulus (GPa) = 11.67930 95.28293 53.48111
#
# Velocity S-wave (km/s) = 2.51027 7.17001 5.37171
# Velocity P-wave (km/s) = 3.68975 10.62353 7.95216
#
# Compressibility (1/GPa) = 0.10351234
#
# Stress axis : x y z
#
# Youngs Moduli (GPa) = 77.28939 5.51842 57.87401
#
# Poissons Ratio (x) = 0.07396 0.28333
# Poissons Ratio (y) = 1.03588 2.06379
# Poissons Ratio (z) = 0.37838 0.19679
#
# Static dielectric constant tensor:
#      x y z
#    x 1.593800 0.000000 0.000000 
#    y 0.000000 1.618550 0.000000 
#    z 0.000000 0.000000 1.659880 
# 
# From -- ./inp_files/26867.got.cif
#   From: 2010.05.17/outbox.cif.g08.bks.cpg/sg67_14_cif.got.tgz:26867.got - 2010.06.03 18:28:57.
