data_PCOD9503770
_publ_section_title
;
Structure prediction by ZEFSAII (Michael W. Deem and Ramdas Pophale) SiO2 
 PCOD9503770
Probable space group: C M M A
;
_chemical_formula_sum "Si O2"
_cell_formula_units_Z 96
_cell_length_a 14.135907
_cell_length_b 15.046469
_cell_length_c 22.085961
_cell_angle_alpha 90.000000
_cell_angle_beta 90.000000
_cell_angle_gamma 90.000000
_cell_volume 4697.584219
_symmetry_space_group_name_H-M "C M M A"
_symmetry_group_IT_number 67
_symmetry_cell_setting 'orthorhombic'
loop_
_space_group_symop_operation_xyz
x,y,z
-x,1/2-y,z
x,-y,-z
-x,1/2+y,-z
-x,-y,-z
x,1/2+y,-z
-x,y,z
x,1/2-y,z
1/2+x,1/2+y,z
1/2-x,-y,z
1/2+x,1/2-y,-z
1/2-x,y,-z
1/2-x,1/2-y,-z
1/2+x,y,-z
1/2-x,1/2+y,z
1/2+x,-y,z
loop_
_atom_site_type_symbol
_atom_site_label
_atom_site_fract_x
_atom_site_fract_y
_atom_site_fract_z
Si Si1 0.106434 0.608152 0.989791
Si Si2 0.606611 0.145417 0.208847
Si Si3 0.112391 0.456393 0.667804
Si Si4 0.232441 0.352437 0.568591
Si Si5 0.760441 0.106231 0.901387
Si Si6 0.113053 0.345477 0.334879
O O1 0.158453 0.634585 0.927422
O O2 0.000000 0.639316 0.991541
O O3 0.105871 0.500000 0.000000
O O4 0.167414 0.639210 0.046846
O O5 0.500000 0.112426 0.189338
O O6 0.599583 0.250000 0.215501
O O7 0.627951 0.104709 0.274082
O O8 0.690496 0.128058 0.161589
O O9 0.168785 0.416929 0.610358
O O10 0.138605 0.556696 0.689143
O O11 0.000000 0.456013 0.653660
O O12 0.194189 0.250000 0.568377
O O13 0.250000 0.381627 0.500000
O O14 0.334199 0.347124 0.601024
O O15 0.750000 0.000000 0.902868
O O16 0.141665 0.250000 0.305422
O O17 0.000000 0.343968 0.339660
#
# Coordination Sequence:
#
# PCOD9503770 Si02
#       6
#    16  16  16  16  16  16
#     4   8  14  27  48  77 112 146 186 234 279 327
#     4  10  21  37  56  79 110 148 190 235 282 336
#     4  10  21  37  58  82 110 148 192 238 287 342
#     4  10  21  36  56  83 114 148 186 232 283 334
#     4   9  17  29  51  80 107 144 189 234 284 332
#     4   9  19  36  56  79 108 142 181 226 280 341
#
# _framework density 20.436036000000001
#
# number of rings (size 3 to 8) (size 9 to 14) (size 15 to 20)
#    0.000    2.667    0.000    2.500    0.000    5.000 
#    0.000    5.000    0.000    2.500    0.000    0.000 
#    0.000    0.000    0.000    8.500    0.000    0.500 
#
# Total GULP energy -267294.394280 kJ/mol
# GULP energy per Si atom -5568.633214 kJ/mol
# Density = 2.038952 g / cm^3
# Si number density = 20.436036 Si / 1000 Ang^3
#
#
#
# Elastic Constant Matrix: (Units=GPa)
#
#
# Indices 1 2 3 4 5 6 
#
# 1 83.4265 36.6270 37.1438 0.0000 0.0000 0.0000
# 2 36.6270 96.7204 31.5065 0.0000 0.0000 0.0000
# 3 37.1438 31.5065 80.3915 0.0000 0.0000 0.0000
# 4 0.0000 0.0000 0.0000 24.0821 0.0000 0.0000
# 5 0.0000 0.0000 0.0000 0.0000 17.1629 0.0000
# 6 0.0000 0.0000 0.0000 0.0000 0.0000 18.4954
#
#
#
# Elastic Compliance Matrix: (Units=1/GPa)
#
#
# Indices 1 2 3 4 5 6 
#
# 1 0.016531 -0.004324 -0.005943 0.000000 0.000000 0.000000
# 2 -0.004324 0.012983 -0.003090 0.000000 0.000000 0.000000
# 3 -0.005943 -0.003090 0.016396 0.000000 0.000000 0.000000
# 4 0.000000 0.000000 0.000000 0.041525 0.000000 0.000000
# 5 0.000000 0.000000 0.000000 0.000000 0.058265 0.000000
# 6 0.000000 0.000000 0.000000 0.000000 0.000000 0.054068
#
#
# Mechanical properties :
#
#
# Convention : Reuss Voigt Hill
#
# Bulk Modulus (GPa) = 52.09680 52.34367 52.22023
# Shear Modulus (GPa) = 21.47008 22.29882 21.88445
#
# Velocity S-wave (km/s) = 3.24481 3.30684 3.27597
# Velocity P-wave (km/s) = 6.29177 6.34423 6.31806
#
# Compressibility (1/GPa) = 0.01919504
#
# Stress axis : x y z
#
# Youngs Moduli (GPa) = 60.49175 77.02205 60.98923
#
# Poissons Ratio (x) = 0.33306 0.36248
# Poissons Ratio (y) = 0.26158 0.18848
# Poissons Ratio (z) = 0.35952 0.23803
#
# Static dielectric constant tensor:
#      x y z
#    x 1.771700 0.000000 0.000000 
#    y 0.000000 1.807700 0.000000 
#    z 0.000000 0.000000 1.679190 
# 
# From -- ./inp_files/38470.got.cif
#   From: 2010.05.17/outbox.cif.g08.bks.cpg/sg67_20_cif.got.tgz:38470.got - 2010.06.03 18:28:57.
