data_PCOD9503418
_publ_section_title
;
Structure prediction by ZEFSAII (Michael W. Deem and Ramdas Pophale) SiO2 
 PCOD9503418
Probable space group: C M M A
;
_chemical_formula_sum "Si O2"
_cell_formula_units_Z 80
_cell_length_a 21.906485
_cell_length_b 14.456127
_cell_length_c 11.950501
_cell_angle_alpha 90.000000
_cell_angle_beta 90.000000
_cell_angle_gamma 90.000000
_cell_volume 3784.519663
_symmetry_space_group_name_H-M "C M M A"
_symmetry_group_IT_number 67
_symmetry_cell_setting 'orthorhombic'
loop_
_space_group_symop_operation_xyz
x,y,z
-x,1/2-y,z
x,-y,-z
-x,1/2+y,-z
-x,-y,-z
x,1/2+y,-z
-x,y,z
x,1/2-y,z
1/2+x,1/2+y,z
1/2-x,-y,z
1/2+x,1/2-y,-z
1/2-x,y,-z
1/2-x,1/2-y,-z
1/2+x,y,-z
1/2-x,1/2+y,z
1/2+x,-y,z
loop_
_atom_site_type_symbol
_atom_site_label
_atom_site_fract_x
_atom_site_fract_y
_atom_site_fract_z
Si Si1 0.000000 0.863469 0.836699
Si Si2 0.867040 0.110845 0.489954
Si Si3 0.208339 0.856387 0.728216
Si Si4 0.849898 0.146113 0.746929
Si Si5 0.500000 0.406531 0.577592
Si Si6 0.381912 0.974843 0.121999
O O1 0.940480 0.908865 0.892459
O O2 0.000000 0.750000 0.832941
O O3 0.000000 0.908496 0.711872
O O4 0.814943 0.136828 0.400499
O O5 0.861272 0.147664 0.614516
O O6 0.934541 0.138511 0.448357
O O7 0.864623 0.000000 0.500000
O O8 0.201025 0.750000 0.761399
O O9 0.278437 0.881712 0.750574
O O10 0.164714 0.918844 0.801588
O O11 0.857519 0.250000 0.792212
O O12 0.890896 0.070727 0.809963
O O13 0.500000 0.500000 0.500000
O O14 0.357338 0.000000 0.000000
#
# Coordination Sequence:
#
# PCOD9503418 Si02
#       6
#     8  16  16  16   8  16
#     4  12  25  47  75 101 131 176 230 281 341 410
#     4  11  20  37  65  98 138 178 224 279 344 406
#     4  11  23  41  67  98 133 180 231 277 334 409
#     4  11  25  42  64  98 140 181 222 276 342 403
#     4  10  20  37  64  99 137 175 215 273 331 404
#     4  12  26  46  69  97 132 174 230 290 338 391
#
# _framework density 21.138746000000001
#
# number of rings (size 3 to 8) (size 9 to 14) (size 15 to 20)
#    0.000    0.800    4.000    3.900    0.000    6.400 
#    0.000    3.500    0.000    0.000    0.000    0.000 
#    0.000    0.000    0.000    0.000    0.000    0.000 
#
# Total GULP energy -223399.993490 kJ/mol
# GULP energy per Si atom -5584.999837 kJ/mol
# Density = 2.109063 g / cm^3
# Si number density = 21.138746 Si / 1000 Ang^3
#
#
#
# Elastic Constant Matrix: (Units=GPa)
#
#
# Indices 1 2 3 4 5 6 
#
# 1 42.7256 32.4227 -19.7997 0.0000 0.0000 0.0000
# 2 32.4227 114.0973 10.7384 0.0000 0.0000 0.0000
# 3 -19.7997 10.7384 77.3565 0.0000 0.0000 0.0000
# 4 0.0000 0.0000 0.0000 -58.6251 0.0000 0.0000
# 5 0.0000 0.0000 0.0000 0.0000 -9.6029 0.0000
# 6 0.0000 0.0000 0.0000 0.0000 0.0000 7.3558
#
#
#
# Elastic Compliance Matrix: (Units=1/GPa)
#
#
# Indices 1 2 3 4 5 6 
#
# 1 0.037492 -0.011710 0.011222 0.000000 0.000000 0.000000
# 2 -0.011710 0.012538 -0.004738 0.000000 0.000000 0.000000
# 3 0.011222 -0.004738 0.016457 0.000000 0.000000 0.000000
# 4 0.000000 0.000000 0.000000 -0.017058 0.000000 0.000000
# 5 0.000000 0.000000 0.000000 0.000000 -0.104135 0.000000
# 6 0.000000 0.000000 0.000000 0.000000 0.000000 0.135947
#
#
# Mechanical properties :
#
#
# Convention : Reuss Voigt Hill
#
# Bulk Modulus (GPa) = 17.84608 31.21137 24.52873
# Shear Modulus (GPa) = 45.30152 1.88008 23.59080
#
# Velocity S-wave (km/s) = 4.63434 0.94410 3.34428
# Velocity P-wave (km/s) = 6.09071 3.99819 5.15181
#
# Compressibility (1/GPa) = 0.05603471
#
# Stress axis : x y z
#
# Youngs Moduli (GPa) = 26.67245 79.75761 60.76411
#
# Poissons Ratio (x) = 0.93397 -0.68188
# Poissons Ratio (y) = 0.31234 0.28788
# Poissons Ratio (z) = -0.29931 0.37787
#
# Static dielectric constant tensor:
#      x y z
#    x 1.803250 0.000000 0.000000 
#    y 0.000000 1.788780 0.000000 
#    z 0.000000 0.000000 1.736750 
# 
# From -- ./inp_files/21674.got.cif
#   From: 2010.05.17/outbox.cif.g08.bks.cpg/sg67_11_cif.got.tgz:21674.got - 2010.06.03 18:28:57.
