data_PCOD9503658
_publ_section_title
;
Structure prediction by ZEFSAII (Michael W. Deem and Ramdas Pophale) SiO2 
 PCOD9503658
Probable space group: C M M A
;
_chemical_formula_sum "Si O2"
_cell_formula_units_Z 96
_cell_length_a 18.420348
_cell_length_b 14.978539
_cell_length_c 18.871181
_cell_angle_alpha 90.000000
_cell_angle_beta 90.000000
_cell_angle_gamma 90.000000
_cell_volume 5206.745680
_symmetry_space_group_name_H-M "C M M A"
_symmetry_group_IT_number 67
_symmetry_cell_setting 'orthorhombic'
loop_
_space_group_symop_operation_xyz
x,y,z
-x,1/2-y,z
x,-y,-z
-x,1/2+y,-z
-x,-y,-z
x,1/2+y,-z
-x,y,z
x,1/2-y,z
1/2+x,1/2+y,z
1/2-x,-y,z
1/2+x,1/2-y,-z
1/2-x,y,-z
1/2-x,1/2-y,-z
1/2+x,y,-z
1/2-x,1/2+y,z
1/2+x,-y,z
loop_
_atom_site_type_symbol
_atom_site_label
_atom_site_fract_x
_atom_site_fract_y
_atom_site_fract_z
Si Si1 0.162213 0.998642 0.917656
Si Si2 0.916096 0.142043 0.176669
Si Si3 0.350028 0.141843 0.199197
Si Si4 0.080250 0.857479 0.349098
Si Si5 0.229912 0.397012 0.576365
Si Si6 0.796102 0.645814 0.723654
O O1 0.128601 0.909604 0.883296
O O2 0.250000 0.000000 0.914891
O O3 0.135482 0.082748 0.870081
O O4 0.140992 0.000000 0.000000
O O5 0.913751 0.250000 0.168118
O O6 0.873392 0.113681 0.248413
O O7 0.000000 0.115545 0.177516
O O8 0.350187 0.250000 0.186336
O O9 0.402166 0.123739 0.266404
O O10 0.271477 0.110655 0.230293
O O11 0.080617 0.750000 0.354512
O O12 0.146503 0.887930 0.398838
O O13 0.000000 0.890849 0.368126
O O14 0.250000 0.500000 0.572642
O O15 0.250000 0.356778 0.500000
O O16 0.277914 0.362606 0.641652
O O17 0.794908 0.750000 0.739571
#
# Coordination Sequence:
#
# PCOD9503658 Si02
#       6
#    16  16  16  16  16  16
#     4  11  23  36  57  88 118 153 193 233 287 350
#     4  10  22  40  59  82 115 153 194 240 287 339
#     4   9  18  34  57  84 113 145 188 241 287 334
#     4   9  19  36  59  85 109 142 191 241 285 326
#     4  10  21  35  53  83 120 154 185 223 280 343
#     4   9  18  34  57  80 104 143 195 234 271 331
#
# _framework density 18.437619999999999
#
# number of rings (size 3 to 8) (size 9 to 14) (size 15 to 20)
#    0.000    2.333    1.667    1.500    4.667    3.000 
#    0.000    4.167    0.000    4.000    0.000    0.000 
#    0.000    0.000    0.000    0.000    0.000    0.000 
#
# Total GULP energy -267370.166826 kJ/mol
# GULP energy per Si atom -5570.211809 kJ/mol
# Density = 1.839566 g / cm^3
# Si number density = 18.437620 Si / 1000 Ang^3
#
#
#
# Elastic Constant Matrix: (Units=GPa)
#
#
# Indices 1 2 3 4 5 6 
#
# 1 140.9336 30.5984 67.9803 0.0000 0.0000 0.0000
# 2 30.5984 42.2761 19.7617 0.0000 0.0000 0.0000
# 3 67.9803 19.7617 144.4464 0.0000 0.0000 0.0000
# 4 0.0000 0.0000 0.0000 3.8564 0.0000 0.0000
# 5 0.0000 0.0000 0.0000 0.0000 13.9913 0.0000
# 6 0.0000 0.0000 0.0000 0.0000 0.0000 19.9248
#
#
#
# Elastic Compliance Matrix: (Units=1/GPa)
#
#
# Indices 1 2 3 4 5 6 
#
# 1 0.010259 -0.005521 -0.004073 0.000000 0.000000 0.000000
# 2 -0.005521 0.028242 -0.001265 0.000000 0.000000 0.000000
# 3 -0.004073 -0.001265 0.009013 0.000000 0.000000 0.000000
# 4 0.000000 0.000000 0.000000 0.259311 0.000000 0.000000
# 5 0.000000 0.000000 0.000000 0.000000 0.071473 0.000000
# 6 0.000000 0.000000 0.000000 0.000000 0.000000 0.050189
#
#
# Mechanical properties :
#
#
# Convention : Reuss Voigt Hill
#
# Bulk Modulus (GPa) = 38.76763 62.70410 50.73586
# Shear Modulus (GPa) = 10.89793 21.50887 16.20340
#
# Velocity S-wave (km/s) = 2.43383 3.41922 2.96771
# Velocity P-wave (km/s) = 5.38238 7.04775 6.27060
#
# Compressibility (1/GPa) = 0.02579472
#
# Stress axis : x y z
#
# Youngs Moduli (GPa) = 97.47768 35.40873 110.95335
#
# Poissons Ratio (x) = 0.19550 0.45188
# Poissons Ratio (y) = 0.53820 0.14039
# Poissons Ratio (z) = 0.39700 0.04480
#
# Static dielectric constant tensor:
#      x y z
#    x 1.666520 0.000000 0.000000 
#    y 0.000000 1.495220 0.000000 
#    z 0.000000 0.000000 1.663490 
# 
# From -- ./inp_files/34218.got.cif
#   From: 2010.05.17/outbox.cif.g08.bks.cpg/sg67_18_cif.got.tgz:34218.got - 2010.06.03 18:28:57.
