data_PCOD9503850
_publ_section_title
;
Structure prediction by ZEFSAII (Michael W. Deem and Ramdas Pophale) SiO2 
 PCOD9503850
Probable space group: C M M A
;
_chemical_formula_sum "Si O2"
_cell_formula_units_Z 80
_cell_length_a 18.717192
_cell_length_b 8.573848
_cell_length_c 26.986777
_cell_angle_alpha 90.000000
_cell_angle_beta 90.000000
_cell_angle_gamma 90.000000
_cell_volume 4330.793693
_symmetry_space_group_name_H-M "C M M A"
_symmetry_group_IT_number 67
_symmetry_cell_setting 'orthorhombic'
loop_
_space_group_symop_operation_xyz
x,y,z
-x,1/2-y,z
x,-y,-z
-x,1/2+y,-z
-x,-y,-z
x,1/2+y,-z
-x,y,z
x,1/2-y,z
1/2+x,1/2+y,z
1/2-x,-y,z
1/2+x,1/2-y,-z
1/2-x,y,-z
1/2-x,1/2-y,-z
1/2+x,y,-z
1/2-x,1/2+y,z
1/2+x,-y,z
loop_
_atom_site_type_symbol
_atom_site_label
_atom_site_fract_x
_atom_site_fract_y
_atom_site_fract_z
Si Si1 0.331370 0.436544 0.050647
Si Si2 0.669184 0.561673 0.840468
Si Si3 0.582612 0.061098 0.256252
Si Si4 0.082671 0.438015 0.446560
Si Si5 0.330160 0.062670 0.649978
O O1 0.329668 0.250000 0.047574
O O2 0.250000 0.500000 0.051301
O O3 0.360173 0.482907 0.104895
O O4 0.365590 0.500000 0.000000
O O5 0.672422 0.750000 0.839621
O O6 0.750000 0.500000 0.835081
O O7 0.620849 0.509987 0.794639
O O8 0.500000 0.012609 0.257630
O O9 0.584916 0.250000 0.257718
O O10 0.625140 0.996515 0.303139
O O11 0.106616 0.500000 0.500000
O O12 0.083529 0.250000 0.447862
O O13 0.131114 0.489852 0.400755
O O14 0.000000 0.487912 0.439117
O O15 0.329102 0.250000 0.650513
O O16 0.250000 0.000000 0.652390
#
# Coordination Sequence:
#
# PCOD9503850 Si02
#       5
#    16  16  16  16  16
#     4   9  15  24  40  64  94 125 159 200 247 297
#     4   9  18  31  48  72 100 130 165 208 255 302
#     4  10  21  37  56  77 102 135 175 215 259 314
#     4   9  19  36  57  80 107 140 176 213 254 302
#     4  11  23  38  56  80 110 140 174 217 263 308
#
# _framework density 18.472365
#
# number of rings (size 3 to 8) (size 9 to 14) (size 15 to 20)
#    0.000    2.400    0.000    3.000    0.000    6.400 
#    0.000    4.000    0.000    0.600    0.000    0.000 
#    0.000    0.000    0.000    0.000    0.000    5.400 
#
# Total GULP energy -223103.606035 kJ/mol
# GULP energy per Si atom -5577.590151 kJ/mol
# Density = 1.843032 g / cm^3
# Si number density = 18.472365 Si / 1000 Ang^3
#
#
#
# Elastic Constant Matrix: (Units=GPa)
#
#
# Indices 1 2 3 4 5 6 
#
# 1 109.5248 23.4960 108.2016 0.0000 0.0000 0.0000
# 2 23.4960 21.8396 39.6891 0.0000 0.0000 0.0000
# 3 108.2016 39.6891 234.0298 0.0000 0.0000 0.0000
# 4 0.0000 0.0000 0.0000 37.5658 0.0000 0.0000
# 5 0.0000 0.0000 0.0000 0.0000 -32.6008 0.0000
# 6 0.0000 0.0000 0.0000 0.0000 0.0000 12.6873
#
#
#
# Elastic Compliance Matrix: (Units=1/GPa)
#
#
# Indices 1 2 3 4 5 6 
#
# 1 0.017317 -0.005898 -0.007006 0.000000 0.000000 0.000000
# 2 -0.005898 0.068196 -0.008838 0.000000 0.000000 0.000000
# 3 -0.007006 -0.008838 0.009011 0.000000 0.000000 0.000000
# 4 0.000000 0.000000 0.000000 0.026620 0.000000 0.000000
# 5 0.000000 0.000000 0.000000 0.000000 -0.030674 0.000000
# 6 0.000000 0.000000 0.000000 0.000000 0.000000 0.078819
#
#
# Mechanical properties :
#
#
# Convention : Reuss Voigt Hill
#
# Bulk Modulus (GPa) = 19.59303 78.68530 49.13917
# Shear Modulus (GPa) = 21.75925 16.46430 19.11178
#
# Velocity S-wave (km/s) = 3.43583 2.98869 3.22003
# Velocity P-wave (km/s) = 5.13513 7.38907 6.36270
#
# Compressibility (1/GPa) = 0.05103856
#
# Stress axis : x y z
#
# Youngs Moduli (GPa) = 57.74596 14.66367 110.97435
#
# Poissons Ratio (x) = 0.08649 0.77751
# Poissons Ratio (y) = 0.34060 0.98082
# Poissons Ratio (z) = 0.40458 0.12960
#
# Static dielectric constant tensor:
#      x y z
#    x 1.603690 0.000000 0.000000 
#    y 0.000000 1.622140 0.000000 
#    z 0.000000 0.000000 1.665500 
# 
# From -- ./inp_files/43268.got.cif
#   From: 2010.05.17/outbox.cif.g08.bks.cpg/sg67_22_cif.got.tgz:43268.got - 2010.06.03 18:28:57.
