data_PCOD9503280
_publ_section_title
;
Structure prediction by ZEFSAII (Michael W. Deem and Ramdas Pophale) SiO2 
 PCOD9503280
Probable space group: C M M A
;
_chemical_formula_sum "Si O2"
_cell_formula_units_Z 96
_cell_length_a 14.670615
_cell_length_b 15.294677
_cell_length_c 19.931675
_cell_angle_alpha 90.000000
_cell_angle_beta 90.000000
_cell_angle_gamma 90.000000
_cell_volume 4472.315434
_symmetry_space_group_name_H-M "C M M A"
_symmetry_group_IT_number 67
_symmetry_cell_setting 'orthorhombic'
loop_
_space_group_symop_operation_xyz
x,y,z
-x,1/2-y,z
x,-y,-z
-x,1/2+y,-z
-x,-y,-z
x,1/2+y,-z
-x,y,z
x,1/2-y,z
1/2+x,1/2+y,z
1/2-x,-y,z
1/2+x,1/2-y,-z
1/2-x,y,-z
1/2-x,1/2-y,-z
1/2+x,y,-z
1/2-x,1/2+y,z
1/2+x,-y,z
loop_
_atom_site_type_symbol
_atom_site_label
_atom_site_fract_x
_atom_site_fract_y
_atom_site_fract_z
Si Si1 0.608045 0.346811 0.097058
Si Si2 0.105419 0.647233 0.484197
Si Si3 0.769123 0.901384 0.606029
Si Si4 0.152105 0.979301 0.827337
Si Si5 0.390389 0.853354 0.054712
Si Si6 0.401353 0.154234 0.718377
O O1 0.500000 0.337182 0.088251
O O2 0.644158 0.250000 0.116877
O O3 0.618652 0.426644 0.147670
O O4 0.640910 0.369159 0.021836
O O5 0.104707 0.750000 0.502029
O O6 0.158444 0.599145 0.544383
O O7 0.173623 0.636874 0.421018
O O8 0.000000 0.619646 0.474066
O O9 0.819324 0.853513 0.666453
O O10 0.750000 0.000000 0.626217
O O11 0.157693 0.916253 0.892355
O O12 0.100500 0.922750 0.772293
O O13 0.250000 0.000000 0.797825
O O14 0.500000 0.871337 0.060113
O O15 0.377346 0.750000 0.067995
O O16 0.500000 0.150108 0.682468
O O17 0.396286 0.250000 0.751959
#
# Coordination Sequence:
#
# PCOD9503280 Si02
#       6
#    16  16  16  16  16  16
#     4   9  19  36  58  83 112 149 192 241 300 363
#     4  10  20  36  62  94 128 166 203 244 296 350
#     4  11  22  37  59  92 129 161 198 248 301 360
#     4  12  24  36  53  83 118 153 193 242 302 370
#     4   9  18  35  59  84 110 145 194 249 300 355
#     4  11  24  43  66  86 110 154 210 265 315 362
#
# _framework density 21.465392000000001
#
# number of rings (size 3 to 8) (size 9 to 14) (size 15 to 20)
#    0.000    1.667    0.000    7.500    0.000    8.667 
#    0.000    1.667    0.000    0.000    0.000    4.667 
#    0.000    0.000    0.000    0.000    0.000    0.000 
#
# Total GULP energy -268019.257106 kJ/mol
# GULP energy per Si atom -5583.734523 kJ/mol
# Density = 2.141654 g / cm^3
# Si number density = 21.465392 Si / 1000 Ang^3
#
#
#
# Elastic Constant Matrix: (Units=GPa)
#
#
# Indices 1 2 3 4 5 6 
#
# 1 127.0219 32.7539 32.5675 0.0000 0.0000 0.0000
# 2 32.7539 103.4769 42.8534 0.0000 0.0000 0.0000
# 3 32.5675 42.8534 74.7598 0.0000 0.0000 0.0000
# 4 0.0000 0.0000 0.0000 329.9209 0.0000 0.0000
# 5 0.0000 0.0000 0.0000 0.0000 -8.8526 0.0000
# 6 0.0000 0.0000 0.0000 0.0000 0.0000 27.4100
#
#
#
# Elastic Compliance Matrix: (Units=1/GPa)
#
#
# Indices 1 2 3 4 5 6 
#
# 1 0.009065 -0.001618 -0.003021 0.000000 0.000000 0.000000
# 2 -0.001618 0.012961 -0.006725 0.000000 0.000000 0.000000
# 3 -0.003021 -0.006725 0.018547 0.000000 0.000000 0.000000
# 4 0.000000 0.000000 0.000000 0.003031 0.000000 0.000000
# 5 0.000000 0.000000 0.000000 0.000000 -0.112961 0.000000
# 6 0.000000 0.000000 0.000000 0.000000 0.000000 0.036483
#
#
# Mechanical properties :
#
#
# Convention : Reuss Voigt Hill
#
# Bulk Modulus (GPa) = 56.03900 57.95648 56.99774
# Shear Modulus (GPa) = -1190.93197 82.83456 -554.04871
#
# Velocity S-wave (km/s) = -23.58006 6.21881 -16.08331
# Velocity P-wave (km/s) = 26.74315 8.86698 17.84058
#
# Compressibility (1/GPa) = 0.01784472
#
# Stress axis : x y z
#
# Youngs Moduli (GPa) = 110.32024 77.15427 53.91710
#
# Poissons Ratio (x) = 0.12484 0.16290
# Poissons Ratio (y) = 0.17850 0.36257
# Poissons Ratio (z) = 0.33331 0.51883
#
# Static dielectric constant tensor:
#      x y z
#    x 1.826530 0.000000 0.000000 
#    y 0.000000 1.954820 0.000000 
#    z 0.000000 0.000000 1.761460 
# 
# From -- ./inp_files/38407.got.cif
#   From: 2010.05.17/outbox.cif.g08.bks.cpg/sg67_20_cif.got.tgz:38407.got - 2010.06.03 18:28:57.
