data_PCOD9503020
_publ_section_title
;
Structure prediction by ZEFSAII (Michael W. Deem and Ramdas Pophale) SiO2 
 PCOD9503020
Probable space group: C M M A
;
_chemical_formula_sum "Si O2"
_cell_formula_units_Z 92
_cell_length_a 8.758494
_cell_length_b 25.064708
_cell_length_c 22.166582
_cell_angle_alpha 90.000000
_cell_angle_beta 90.000000
_cell_angle_gamma 90.000000
_cell_volume 4866.209677
_symmetry_space_group_name_H-M "C M M A"
_symmetry_group_IT_number 67
_symmetry_cell_setting 'orthorhombic'
loop_
_space_group_symop_operation_xyz
x,y,z
-x,1/2-y,z
x,-y,-z
-x,1/2+y,-z
-x,-y,-z
x,1/2+y,-z
-x,y,z
x,1/2-y,z
1/2+x,1/2+y,z
1/2-x,-y,z
1/2+x,1/2-y,-z
1/2-x,y,-z
1/2-x,1/2-y,-z
1/2+x,y,-z
1/2-x,1/2+y,z
1/2+x,-y,z
loop_
_atom_site_type_symbol
_atom_site_label
_atom_site_fract_x
_atom_site_fract_y
_atom_site_fract_z
Si Si1 0.670459 0.557243 0.769359
Si Si2 0.684318 0.250000 0.275860
Si Si3 0.000000 0.250000 0.358237
Si Si4 0.825595 0.314222 0.937912
Si Si5 0.721721 0.436671 0.368030
Si Si6 0.821057 0.662486 0.810597
Si Si7 0.500000 0.437659 0.477249
Si Si8 0.000000 0.868589 0.597800
O O1 0.500000 0.557972 0.795986
O O2 0.750000 0.500000 0.775005
O O3 0.653505 0.569522 0.698046
O O4 0.779522 0.601833 0.796472
O O5 0.500000 0.250000 0.294966
O O6 0.833987 0.250000 0.321931
O O7 0.717296 0.300911 0.233118
O O8 0.000000 0.305050 0.396490
O O9 0.832527 0.250000 0.941857
O O10 0.725271 0.326720 0.879443
O O11 0.000000 0.333615 0.930741
O O12 0.750000 0.333940 0.000000
O O13 0.750000 0.500000 0.371395
O O14 0.637589 0.427317 0.431248
O O15 0.858339 0.395272 0.368692
O O16 0.000000 0.674215 0.800070
O O17 0.500000 0.500000 0.500000
O O18 0.500000 0.396283 0.531900
#
# Coordination Sequence:
#
# PCOD9503020 Si02
#       8
#    16   8   4  16  16  16   8   8
#     4  11  24  40  60  91 130 169 214 273 336 400
#     4  12  24  44  71  95 132 180 232 276 324 397
#     4  12  28  52  62 102 138 186 222 262 338 436
#     4  10  20  35  58  92 133 172 217 275 331 383
#     4  11  22  39  64  96 125 158 211 275 339 390
#     4  12  23  39  65  97 132 177 226 273 332 396
#     4  12  22  42  66 100 126 161 213 283 341 404
#     4  12  26  40  70  92 134 168 210 271 334 415
#
# _framework density 18.905885000000001
#
# number of rings (size 3 to 8) (size 9 to 14) (size 15 to 20)
#    0.000    0.696    4.348    4.174    4.870    0.696 
#    1.565    1.739    0.000    0.522    0.000    3.652 
#    0.000    0.000    0.000    0.000    0.000    0.000 
#
# Total GULP energy -256454.761627 kJ/mol
# GULP energy per Si atom -5575.103514 kJ/mol
# Density = 1.886285 g / cm^3
# Si number density = 18.905885 Si / 1000 Ang^3
#
#
#
# Elastic Constant Matrix: (Units=GPa)
#
#
# Indices 1 2 3 4 5 6 
#
# 1 119.7628 34.6648 18.1162 0.0000 0.0000 0.0000
# 2 34.6648 113.7585 27.6201 0.0000 0.0000 0.0000
# 3 18.1162 27.6201 63.8830 0.0000 0.0000 0.0000
# 4 0.0000 0.0000 0.0000 -9.0550 0.0000 0.0000
# 5 0.0000 0.0000 0.0000 0.0000 37.3366 0.0000
# 6 0.0000 0.0000 0.0000 0.0000 0.0000 12.1056
#
#
#
# Elastic Compliance Matrix: (Units=1/GPa)
#
#
# Indices 1 2 3 4 5 6 
#
# 1 0.009298 -0.002450 -0.001577 0.000000 0.000000 0.000000
# 2 -0.002450 0.010467 -0.003831 0.000000 0.000000 0.000000
# 3 -0.001577 -0.003831 0.017757 0.000000 0.000000 0.000000
# 4 0.000000 0.000000 0.000000 -0.110436 0.000000 0.000000
# 5 0.000000 0.000000 0.000000 0.000000 0.026783 0.000000
# 6 0.000000 0.000000 0.000000 0.000000 0.000000 0.082607
#
#
# Mechanical properties :
#
#
# Convention : Reuss Voigt Hill
#
# Bulk Modulus (GPa) = 45.85989 50.91184 48.38586
# Shear Modulus (GPa) = 84.08943 22.54432 53.31688
#
# Velocity S-wave (km/s) = 6.67641 3.45693 5.31624
# Velocity P-wave (km/s) = 9.15108 6.55144 7.95813
#
# Compressibility (1/GPa) = 0.02180555
#
# Stress axis : x y z
#
# Youngs Moduli (GPa) = 107.55417 95.53578 56.31541
#
# Poissons Ratio (x) = 0.23409 0.08883
# Poissons Ratio (y) = 0.26353 0.21573
# Poissons Ratio (z) = 0.16964 0.36597
#
# Static dielectric constant tensor:
#      x y z
#    x 1.686570 0.000000 0.000000 
#    y 0.000000 1.618410 0.000000 
#    z 0.000000 0.000000 1.652660 
# 
# From -- ./inp_files/37049.got.cif
#   From: 2010.05.17/outbox.cif.g08.bks.cpg/sg67_19_cif.got.tgz:37049.got - 2010.06.03 18:28:57.
