data_PCOD9503879
_publ_section_title
;
Structure prediction by ZEFSAII (Michael W. Deem and Ramdas Pophale) SiO2 
 PCOD9503879
Probable space group: C M M A
;
_chemical_formula_sum "Si O2"
_cell_formula_units_Z 80
_cell_length_a 13.884433
_cell_length_b 19.540293
_cell_length_c 12.434754
_cell_angle_alpha 90.000000
_cell_angle_beta 90.000000
_cell_angle_gamma 90.000000
_cell_volume 3373.621988
_symmetry_space_group_name_H-M "C M M A"
_symmetry_group_IT_number 67
_symmetry_cell_setting 'orthorhombic'
loop_
_space_group_symop_operation_xyz
x,y,z
-x,1/2-y,z
x,-y,-z
-x,1/2+y,-z
-x,-y,-z
x,1/2+y,-z
-x,y,z
x,1/2-y,z
1/2+x,1/2+y,z
1/2-x,-y,z
1/2+x,1/2-y,-z
1/2-x,y,-z
1/2-x,1/2-y,-z
1/2+x,y,-z
1/2-x,1/2+y,z
1/2+x,-y,z
loop_
_atom_site_type_symbol
_atom_site_label
_atom_site_fract_x
_atom_site_fract_y
_atom_site_fract_z
Si Si1 0.823019 0.175513 0.280961
Si Si2 0.638338 0.576145 0.468353
Si Si3 0.883392 0.106652 0.073328
Si Si4 0.606148 0.142914 0.320726
Si Si5 0.885797 0.956972 0.140688
O O1 0.862714 0.250000 0.313250
O O2 0.866134 0.111852 0.351142
O O3 0.843133 0.161615 0.155656
O O4 0.707624 0.178317 0.298741
O O5 0.601829 0.500000 0.500000
O O6 0.750000 0.573355 0.500000
O O7 0.598242 0.629994 0.553579
O O8 0.000000 0.112495 0.078453
O O9 0.848766 0.032670 0.118995
O O10 0.854969 0.099628 0.947711
O O11 0.500000 0.167666 0.281505
O O12 0.624573 0.070519 0.259953
O O13 0.000000 0.964119 0.121273
#
# Coordination Sequence:
#
# PCOD9503879 Si02
#       5
#    16  16  16  16  16
#     4  11  24  39  57  86 123 160 199 244 301 369
#     4   9  19  36  59  86 113 145 193 252 308 363
#     4   9  18  35  60  89 121 153 190 245 306 357
#     4  10  21  37  57  81 114 157 202 248 295 350
#     4   8  16  34  61  91 117 147 195 249 299 353
#
# _framework density 23.713384000000001
#
# number of rings (size 3 to 8) (size 9 to 14) (size 15 to 20)
#    0.000    2.600    0.000    2.400    0.000    8.800 
#    0.000    4.000    0.000    3.600    0.000    0.000 
#    0.000    0.000    0.000    0.000    0.000    0.000 
#
# Total GULP energy -222903.748171 kJ/mol
# GULP energy per Si atom -5572.593704 kJ/mol
# Density = 2.365941 g / cm^3
# Si number density = 23.713384 Si / 1000 Ang^3
#
#
#
# Elastic Constant Matrix: (Units=GPa)
#
#
# Indices 1 2 3 4 5 6 
#
# 1 97.7347 12.3212 9.1619 0.0000 0.0000 0.0000
# 2 12.3212 91.5956 13.6761 0.0000 0.0000 0.0000
# 3 9.1619 13.6761 89.9138 0.0000 0.0000 0.0000
# 4 0.0000 0.0000 0.0000 4.6870 0.0000 0.0000
# 5 0.0000 0.0000 0.0000 0.0000 -100.2114 0.0000
# 6 0.0000 0.0000 0.0000 0.0000 0.0000 -3.7271
#
#
#
# Elastic Compliance Matrix: (Units=1/GPa)
#
#
# Indices 1 2 3 4 5 6 
#
# 1 0.010475 -0.001279 -0.000873 0.000000 0.000000 0.000000
# 2 -0.001279 0.011327 -0.001593 0.000000 0.000000 0.000000
# 3 -0.000873 -0.001593 0.011453 0.000000 0.000000 0.000000
# 4 0.000000 0.000000 0.000000 0.213357 0.000000 0.000000
# 5 0.000000 0.000000 0.000000 0.000000 -0.009979 0.000000
# 6 0.000000 0.000000 0.000000 0.000000 0.000000 -0.268308
#
#
# Mechanical properties :
#
#
# Convention : Reuss Voigt Hill
#
# Bulk Modulus (GPa) = 38.80974 38.84029 38.82501
# Shear Modulus (GPa) = -320.58062 -3.57797 -162.07930
#
# Velocity S-wave (km/s) = -11.63973 -1.22968 -8.27633
# Velocity P-wave (km/s) = 12.81572 3.79453 8.65575
#
# Compressibility (1/GPa) = 0.02576673
#
# Stress axis : x y z
#
# Youngs Moduli (GPa) = 95.46718 88.28186 87.31381
#
# Poissons Ratio (x) = 0.11289 0.07621
# Poissons Ratio (y) = 0.12208 0.13906
# Poissons Ratio (z) = 0.08333 0.14060
#
# Static dielectric constant tensor:
#      x y z
#    x 2.027510 0.000000 0.000000 
#    y 0.000000 1.928640 0.000000 
#    z 0.000000 0.000000 1.861230 
# 
# From -- ./inp_files/26945.got.cif
#   From: 2010.05.17/outbox.cif.g08.bks.cpg/sg67_14_cif.got.tgz:26945.got - 2010.06.03 18:28:57.
