data_PCOD9503321
_publ_section_title
;
Structure prediction by ZEFSAII (Michael W. Deem and Ramdas Pophale) SiO2 
 PCOD9503321
Probable space group: C M M A
;
_chemical_formula_sum "Si O2"
_cell_formula_units_Z 112
_cell_length_a 15.119698
_cell_length_b 30.404072
_cell_length_c 11.234793
_cell_angle_alpha 90.000000
_cell_angle_beta 90.000000
_cell_angle_gamma 90.000000
_cell_volume 5164.638686
_symmetry_space_group_name_H-M "C M M A"
_symmetry_group_IT_number 67
_symmetry_cell_setting 'orthorhombic'
loop_
_space_group_symop_operation_xyz
x,y,z
-x,1/2-y,z
x,-y,-z
-x,1/2+y,-z
-x,-y,-z
x,1/2+y,-z
-x,y,z
x,1/2-y,z
1/2+x,1/2+y,z
1/2-x,-y,z
1/2+x,1/2-y,-z
1/2-x,y,-z
1/2-x,1/2-y,-z
1/2+x,y,-z
1/2-x,1/2+y,z
1/2+x,-y,z
loop_
_atom_site_type_symbol
_atom_site_label
_atom_site_fract_x
_atom_site_fract_y
_atom_site_fract_z
Si Si1 0.900400 0.530007 0.306522
Si Si2 0.674756 0.380237 0.411549
Si Si3 0.245917 0.132835 0.168683
Si Si4 0.099000 0.923333 0.056812
Si Si5 0.100842 0.199133 0.159307
Si Si6 0.396972 0.297588 0.554438
Si Si7 0.104736 0.940983 0.786672
O O1 0.870014 0.573956 0.372587
O O2 0.900466 0.543881 0.167636
O O3 0.860739 0.480975 0.295756
O O4 0.000000 0.522262 0.347966
O O5 0.750000 0.395927 0.500000
O O6 0.701285 0.355751 0.288898
O O7 0.631785 0.341523 0.488871
O O8 0.319521 0.109276 0.085628
O O9 0.183778 0.170797 0.115346
O O10 0.172617 0.098916 0.221690
O O11 0.000000 0.902393 0.056008
O O12 0.108638 0.947580 0.930476
O O13 0.105847 0.250000 0.121686
O O14 0.110512 0.198003 0.302866
O O15 0.000000 0.183134 0.131683
O O16 0.500000 0.294224 0.528619
O O17 0.355806 0.250000 0.520437
O O18 0.000000 0.932109 0.760238
#
# Coordination Sequence:
#
# PCOD9503321 Si02
#       7
#    16  16  16  16  16  16  16
#     4   9  19  36  57  81 111 150 196 245 299 354
#     4  11  21  33  50  80 121 163 195 236 289 347
#     4  11  21  34  56  86 117 150 199 245 297 355
#     4   9  19  35  58  84 113 147 188 243 304 359
#     4   9  18  34  57  85 118 156 198 246 293 342
#     4   9  18  34  57  82 111 154 205 249 289 336
#     4  10  20  37  59  83 108 142 193 252 305 356
#
# _framework density 21.685932000000001
#
# number of rings (size 3 to 8) (size 9 to 14) (size 15 to 20)
#    0.000    2.286    1.429    2.571    0.000    5.429 
#    0.000    4.286    0.000    3.857    0.000    3.000 
#    0.000    2.286    0.000    0.000    0.000    0.000 
#
# Total GULP energy -311800.508243 kJ/mol
# GULP energy per Si atom -5567.866219 kJ/mol
# Density = 2.163657 g / cm^3
# Si number density = 21.685932 Si / 1000 Ang^3
#
#
#
# Elastic Constant Matrix: (Units=GPa)
#
#
# Indices 1 2 3 4 5 6 
#
# 1 95.0736 54.0093 8.2693 0.0000 0.0000 0.0000
# 2 54.0093 118.8885 17.0796 0.0000 0.0000 0.0000
# 3 8.2693 17.0796 33.1932 0.0000 0.0000 0.0000
# 4 0.0000 0.0000 0.0000 45.9220 0.0000 0.0000
# 5 0.0000 0.0000 0.0000 0.0000 5.6523 0.0000
# 6 0.0000 0.0000 0.0000 0.0000 0.0000 21.6002
#
#
#
# Elastic Compliance Matrix: (Units=1/GPa)
#
#
# Indices 1 2 3 4 5 6 
#
# 1 0.014178 -0.006407 -0.000235 0.000000 0.000000 0.000000
# 2 -0.006407 0.011978 -0.004567 0.000000 0.000000 0.000000
# 3 -0.000235 -0.004567 0.032535 0.000000 0.000000 0.000000
# 4 0.000000 0.000000 0.000000 0.021776 0.000000 0.000000
# 5 0.000000 0.000000 0.000000 0.000000 0.176920 0.000000
# 6 0.000000 0.000000 0.000000 0.000000 0.000000 0.046296
#
#
# Mechanical properties :
#
#
# Convention : Reuss Voigt Hill
#
# Bulk Modulus (GPa) = 27.56923 45.09687 36.33305
# Shear Modulus (GPa) = 14.78440 25.82136 20.30288
#
# Velocity S-wave (km/s) = 2.61387 3.45439 3.06310
# Velocity P-wave (km/s) = 4.67443 6.06226 5.41301
#
# Compressibility (1/GPa) = 0.03627233
#
# Stress axis : x y z
#
# Youngs Moduli (GPa) = 70.52942 83.48574 30.73586
#
# Poissons Ratio (x) = 0.53492 0.00723
# Poissons Ratio (y) = 0.45190 0.14037
# Poissons Ratio (z) = 0.01660 0.38129
#
# Static dielectric constant tensor:
#      x y z
#    x 1.892730 0.000000 0.000000 
#    y 0.000000 1.690360 0.000000 
#    z 0.000000 0.000000 1.828510 
# 
# From -- ./inp_files/18595.got.cif
#   From: 2010.05.17/outbox.cif.g08.bks.cpg/sg67_10_cif.got.tgz:18595.got - 2010.06.03 18:28:57.
