data_PCOD9503958
_publ_section_title
;
Structure prediction by ZEFSAII (Michael W. Deem and Ramdas Pophale) SiO2 
 PCOD9503958
Probable space group: C M M A
;
_chemical_formula_sum "Si O2"
_cell_formula_units_Z 116
_cell_length_a 31.958784
_cell_length_b 8.007180
_cell_length_c 23.630494
_cell_angle_alpha 90.000000
_cell_angle_beta 90.000000
_cell_angle_gamma 90.000000
_cell_volume 6047.037178
_symmetry_space_group_name_H-M "C M M A"
_symmetry_group_IT_number 67
_symmetry_cell_setting 'orthorhombic'
loop_
_space_group_symop_operation_xyz
x,y,z
-x,1/2-y,z
x,-y,-z
-x,1/2+y,-z
-x,-y,-z
x,1/2+y,-z
-x,y,z
x,1/2-y,z
1/2+x,1/2+y,z
1/2-x,-y,z
1/2+x,1/2-y,-z
1/2-x,y,-z
1/2-x,1/2-y,-z
1/2+x,y,-z
1/2-x,1/2+y,z
1/2+x,-y,z
loop_
_atom_site_type_symbol
_atom_site_label
_atom_site_fract_x
_atom_site_fract_y
_atom_site_fract_z
Si Si1 0.795735 0.054051 0.728509
Si Si2 0.500000 0.250000 0.405864
Si Si3 0.873640 0.554294 0.935660
Si Si4 0.202838 0.950192 0.143618
Si Si5 0.933904 0.548363 0.565566
Si Si6 0.546228 0.053337 0.739964
Si Si7 0.546656 0.945944 0.866785
Si Si8 0.622933 0.447216 0.666668
O O1 0.793952 0.250000 0.736616
O O2 0.803502 0.982865 0.792010
O O3 0.750000 0.000000 0.708707
O O4 0.832965 0.016235 0.686029
O O5 0.464367 0.903302 0.589729
O O6 0.880538 0.750000 0.934467
O O7 0.833451 0.513121 0.897380
O O8 0.915624 0.475446 0.909457
O O9 0.866727 0.500000 0.000000
O O10 0.200239 0.750000 0.143422
O O11 0.250000 0.000000 0.126430
O O12 0.929532 0.500000 0.500000
O O13 0.946830 0.750000 0.569918
O O14 0.891790 0.533351 0.602344
O O15 0.500000 0.979197 0.727400
O O16 0.543832 0.250000 0.725778
O O17 0.585004 0.981530 0.705309
O O18 0.553647 0.036509 0.806894
O O19 0.500000 0.994123 0.887904
O O20 0.545709 0.750000 0.853374
O O21 0.625083 0.250000 0.678590
#
# Coordination Sequence:
#
# PCOD9503958 Si02
#       8
#    16   4  16  16  16  16  16  16
#     4  10  21  37  62  89 117 150 190 234 291 349
#     4  12  24  40  62  86 120 172 218 256 300 354
#     4  12  25  40  59  82 109 146 187 233 283 339
#     4  10  21  39  62  91 120 149 184 228 278 347
#     4  11  24  40  59  88 122 168 213 259 302 354
#     4   9  18  34  54  80 113 153 188 227 284 344
#     4  10  21  38  57  80 110 145 186 236 283 338
#     4  10  22  37  56  84 121 154 194 248 293 346
#
# _framework density 19.182949000000001
#
# number of rings (size 3 to 8) (size 9 to 14) (size 15 to 20)
#    0.000    1.655    0.690    3.724    1.931    5.793 
#    0.000    1.379    0.000    0.414    0.000    2.897 
#    0.000    0.000    0.000    0.000    0.000    0.000 
#
# Total GULP energy -323093.510360 kJ/mol
# GULP energy per Si atom -5570.577765 kJ/mol
# Density = 1.913929 g / cm^3
# Si number density = 19.182949 Si / 1000 Ang^3
#
#
#
# Elastic Constant Matrix: (Units=GPa)
#
#
# Indices 1 2 3 4 5 6 
#
# 1 128.8961 19.0970 57.0252 0.0000 0.0000 0.0000
# 2 19.0970 69.2061 11.4825 0.0000 0.0000 0.0000
# 3 57.0252 11.4825 50.3113 0.0000 0.0000 0.0000
# 4 0.0000 0.0000 0.0000 14.9810 0.0000 0.0000
# 5 0.0000 0.0000 0.0000 0.0000 -52.0022 0.0000
# 6 0.0000 0.0000 0.0000 0.0000 0.0000 31.8026
#
#
#
# Elastic Compliance Matrix: (Units=1/GPa)
#
#
# Indices 1 2 3 4 5 6 
#
# 1 0.015697 -0.001434 -0.017465 0.000000 0.000000 0.000000
# 2 -0.001434 0.015149 -0.001832 0.000000 0.000000 0.000000
# 3 -0.017465 -0.001832 0.040090 0.000000 0.000000 0.000000
# 4 0.000000 0.000000 0.000000 0.066751 0.000000 0.000000
# 5 0.000000 0.000000 0.000000 0.000000 -0.019230 0.000000
# 6 0.000000 0.000000 0.000000 0.000000 0.000000 0.031444
#
#
# Mechanical properties :
#
#
# Convention : Reuss Voigt Hill
#
# Bulk Modulus (GPa) = 33.92761 47.06920 40.49841
# Shear Modulus (GPa) = 24.85235 9.67686 17.26460
#
# Velocity S-wave (km/s) = 3.60327 2.24844 3.00325
# Velocity P-wave (km/s) = 5.91913 5.59740 5.76051
#
# Compressibility (1/GPa) = 0.02947452
#
# Stress axis : x y z
#
# Youngs Moduli (GPa) = 63.70548 66.00974 24.94400
#
# Poissons Ratio (x) = 0.09465 0.43564
# Poissons Ratio (y) = 0.09134 0.04571
# Poissons Ratio (z) = 1.11260 0.12095
#
# Static dielectric constant tensor:
#      x y z
#    x 1.712960 0.000000 0.000000 
#    y 0.000000 1.722990 0.000000 
#    z 0.000000 0.000000 1.649280 
# 
# From -- ./inp_files/42993.got.cif
#   From: 2010.05.17/outbox.cif.g08.bks.cpg/sg67_22_cif.got.tgz:42993.got - 2010.06.03 18:28:57.
