data_PCOD9503948
_publ_section_title
;
Structure prediction by ZEFSAII (Michael W. Deem and Ramdas Pophale) SiO2 
 PCOD9503948
Probable space group: C M M A
;
_chemical_formula_sum "Si O2"
_cell_formula_units_Z 72
_cell_length_a 16.652057
_cell_length_b 14.485749
_cell_length_c 14.666818
_cell_angle_alpha 90.000000
_cell_angle_beta 90.000000
_cell_angle_gamma 90.000000
_cell_volume 3537.893435
_symmetry_space_group_name_H-M "C M M A"
_symmetry_group_IT_number 67
_symmetry_cell_setting 'orthorhombic'
loop_
_space_group_symop_operation_xyz
x,y,z
-x,1/2-y,z
x,-y,-z
-x,1/2+y,-z
-x,-y,-z
x,1/2+y,-z
-x,y,z
x,1/2-y,z
1/2+x,1/2+y,z
1/2-x,-y,z
1/2+x,1/2-y,-z
1/2-x,y,-z
1/2-x,1/2-y,-z
1/2+x,y,-z
1/2-x,1/2+y,z
1/2+x,-y,z
loop_
_atom_site_type_symbol
_atom_site_label
_atom_site_fract_x
_atom_site_fract_y
_atom_site_fract_z
Si Si1 0.711671 0.750000 0.142107
Si Si2 0.823834 0.637870 0.566993
Si Si3 0.129374 0.750000 0.052065
Si Si4 0.500000 0.570254 0.212208
Si Si5 0.500000 0.859121 0.421341
Si Si6 0.000000 0.610012 0.992977
Si Si7 0.674915 0.941283 0.234237
O O1 0.678653 0.750000 0.040925
O O2 0.679110 0.841035 0.189203
O O3 0.808546 0.750000 0.135204
O O4 0.823031 0.750000 0.584177
O O5 0.750000 0.619013 0.500000
O O6 0.914623 0.611345 0.536206
O O7 0.813290 0.580991 0.659512
O O8 0.074621 0.840763 0.042163
O O9 0.500000 0.620637 0.311636
O O10 0.500000 0.627945 0.117087
O O11 0.413832 0.518859 0.213948
O O12 0.500000 0.750000 0.430702
O O13 0.000000 0.500000 0.000000
O O14 0.750000 0.000000 0.199847
#
# Coordination Sequence:
#
# PCOD9503948 Si02
#       7
#     8  16   8   8   8   8  16
#     4  11  22  40  57  88 117 153 202 242 299 355
#     4   9  17  33  57  88 119 150 193 241 293 347
#     4  10  24  38  60  84 119 157 195 249 299 350
#     4  10  21  37  61  85 115 149 207 243 294 345
#     4   8  16  28  56  86 111 147 191 244 282 340
#     4  11  23  38  59  88 115 158 199 250 297 353
#     4  11  23  38  63  88 119 159 197 249 296 353
#
# _framework density 20.351094
#
# number of rings (size 3 to 8) (size 9 to 14) (size 15 to 20)
#    0.000    2.000    3.333    0.000    6.222    0.444 
#    0.000    3.333    0.000    4.000    0.000    0.000 
#    0.000    0.000    0.000    0.000    0.000    0.000 
#
# Total GULP energy -200585.922056 kJ/mol
# GULP energy per Si atom -5571.831168 kJ/mol
# Density = 2.030477 g / cm^3
# Si number density = 20.351094 Si / 1000 Ang^3
#
#
#
# Elastic Constant Matrix: (Units=GPa)
#
#
# Indices 1 2 3 4 5 6 
#
# 1 178.8851 35.4950 34.6991 0.0000 0.0000 0.0000
# 2 35.4950 82.6167 -6.5097 0.0000 0.0000 0.0000
# 3 34.6991 -6.5097 40.1135 0.0000 0.0000 0.0000
# 4 0.0000 0.0000 0.0000 18.8090 0.0000 0.0000
# 5 0.0000 0.0000 0.0000 0.0000 30.2770 0.0000
# 6 0.0000 0.0000 0.0000 0.0000 0.0000 21.6828
#
#
#
# Elastic Compliance Matrix: (Units=1/GPa)
#
#
# Indices 1 2 3 4 5 6 
#
# 1 0.007804 -0.003935 -0.007390 0.000000 0.000000 0.000000
# 2 -0.003935 0.014245 0.005716 0.000000 0.000000 0.000000
# 3 -0.007390 0.005716 0.032249 0.000000 0.000000 0.000000
# 4 0.000000 0.000000 0.000000 0.053166 0.000000 0.000000
# 5 0.000000 0.000000 0.000000 0.000000 0.033028 0.000000
# 6 0.000000 0.000000 0.000000 0.000000 0.000000 0.046119
#
#
# Mechanical properties :
#
#
# Convention : Reuss Voigt Hill
#
# Bulk Modulus (GPa) = 23.21233 47.66489 35.43861
# Shear Modulus (GPa) = 23.56370 30.01584 26.78977
#
# Velocity S-wave (km/s) = 3.40642 3.84461 3.63213
# Velocity P-wave (km/s) = 5.18675 6.57116 5.91956
#
# Compressibility (1/GPa) = 0.04308055
#
# Stress axis : x y z
#
# Youngs Moduli (GPa) = 128.13217 70.19902 31.00865
#
# Poissons Ratio (x) = 0.27626 0.22914
# Poissons Ratio (y) = 0.50424 -0.17724
# Poissons Ratio (z) = 0.94685 -0.40125
#
# Static dielectric constant tensor:
#      x y z
#    x 1.829870 0.000000 0.000000 
#    y 0.000000 -3.819130 0.000000 
#    z 0.000000 0.000000 1.707990 
# 
# From -- ./inp_files/26915.got.cif
#   From: 2010.05.17/outbox.cif.g08.bks.cpg/sg67_14_cif.got.tgz:26915.got - 2010.06.03 18:28:57.
