data_PCOD9503063
_publ_section_title
;
Structure prediction by ZEFSAII (Michael W. Deem and Ramdas Pophale) SiO2 
 PCOD9503063
Probable space group: C M M A
;
_chemical_formula_sum "Si O2"
_cell_formula_units_Z 96
_cell_length_a 24.330248
_cell_length_b 9.813569
_cell_length_c 24.090785
_cell_angle_alpha 90.000000
_cell_angle_beta 90.000000
_cell_angle_gamma 90.000000
_cell_volume 5752.074044
_symmetry_space_group_name_H-M "C M M A"
_symmetry_group_IT_number 67
_symmetry_cell_setting 'orthorhombic'
loop_
_space_group_symop_operation_xyz
x,y,z
-x,1/2-y,z
x,-y,-z
-x,1/2+y,-z
-x,-y,-z
x,1/2+y,-z
-x,y,z
x,1/2-y,z
1/2+x,1/2+y,z
1/2-x,-y,z
1/2+x,1/2-y,-z
1/2-x,y,-z
1/2-x,1/2-y,-z
1/2+x,y,-z
1/2-x,1/2+y,z
1/2+x,-y,z
loop_
_atom_site_type_symbol
_atom_site_label
_atom_site_fract_x
_atom_site_fract_y
_atom_site_fract_z
Si Si1 0.500000 0.405950 0.239147
Si Si2 0.897416 0.409574 0.236726
Si Si3 0.379815 0.493789 0.890733
Si Si4 0.807055 0.250000 0.920899
Si Si5 0.307838 0.584800 0.449971
Si Si6 0.318092 0.750000 0.053694
Si Si7 0.303644 0.091793 0.673547
Si Si8 0.500000 0.904969 0.895742
O O1 0.500000 0.250000 0.258825
O O2 0.553593 0.491274 0.254883
O O3 0.500000 0.401299 0.171661
O O4 0.913472 0.250000 0.239627
O O5 0.883288 0.444335 0.172947
O O6 0.846071 0.431567 0.277082
O O7 0.339418 0.622193 0.895869
O O8 0.352400 0.379759 0.927997
O O9 0.441989 0.526559 0.910468
O O10 0.740989 0.250000 0.914837
O O11 0.812382 0.250000 0.987617
O O12 0.336347 0.500000 0.500000
O O13 0.302280 0.750000 0.461119
O O14 0.250000 0.500000 0.445319
O O15 0.330651 0.571130 0.387530
O O16 0.286352 0.250000 0.674787
O O17 0.250000 0.000000 0.679406
O O18 0.500000 0.750000 0.916427
#
# Coordination Sequence:
#
# PCOD9503063 Si02
#       8
#     8  16  16   8  16   8  16   8
#     4   9  19  33  57  80 101 134 174 210 259 312
#     4  10  20  36  54  79 107 136 172 213 260 313
#     4  11  21  39  61  81 107 140 177 219 271 321
#     4  11  24  41  61  75 115 142 178 220 257 314
#     4   9  15  25  42  63  94 135 178 213 252 300
#     4  11  24  41  57  87 103 144 184 216 255 314
#     4   9  19  32  46  72 108 142 173 215 260 306
#     4   9  18  36  59  82 107 133 165 216 271 317
#
# _framework density 16.689632
#
# number of rings (size 3 to 8) (size 9 to 14) (size 15 to 20)
#    0.000    2.167    1.667    2.250    1.167    4.333 
#    0.000    2.500    0.000    0.000    0.000    0.583 
#    0.000    0.000    0.000    0.000    0.000    0.000 
#
# Total GULP energy -267318.912426 kJ/mol
# GULP energy per Si atom -5569.144009 kJ/mol
# Density = 1.665165 g / cm^3
# Si number density = 16.689632 Si / 1000 Ang^3
#
#
#
# Elastic Constant Matrix: (Units=GPa)
#
#
# Indices 1 2 3 4 5 6 
#
# 1 105.9694 66.1415 29.1682 0.0000 0.0000 0.0000
# 2 66.1415 134.7766 31.4392 0.0000 0.0000 0.0000
# 3 29.1682 31.4392 51.6640 0.0000 0.0000 0.0000
# 4 0.0000 0.0000 0.0000 17.9576 0.0000 0.0000
# 5 0.0000 0.0000 0.0000 0.0000 -14.3139 0.0000
# 6 0.0000 0.0000 0.0000 0.0000 0.0000 -9.7799
#
#
#
# Elastic Compliance Matrix: (Units=1/GPa)
#
#
# Indices 1 2 3 4 5 6 
#
# 1 0.014440 -0.006042 -0.004475 0.000000 0.000000 0.000000
# 2 -0.006042 0.011176 -0.003389 0.000000 0.000000 0.000000
# 3 -0.004475 -0.003389 0.023945 0.000000 0.000000 0.000000
# 4 0.000000 0.000000 0.000000 0.055687 0.000000 0.000000
# 5 0.000000 0.000000 0.000000 0.000000 -0.069862 0.000000
# 6 0.000000 0.000000 0.000000 0.000000 0.000000 -0.102250
#
#
# Mechanical properties :
#
#
# Convention : Reuss Voigt Hill
#
# Bulk Modulus (GPa) = 45.98483 60.65644 53.32064
# Shear Modulus (GPa) = -157.22337 9.81683 -73.70327
#
# Velocity S-wave (km/s) = -9.71642 2.42791 -6.65259
# Velocity P-wave (km/s) = 9.91290 6.65450 5.19534
#
# Compressibility (1/GPa) = 0.02174630
#
# Stress axis : x y z
#
# Youngs Moduli (GPa) = 69.25217 89.48040 41.76220
#
# Poissons Ratio (x) = 0.54068 0.18690
# Poissons Ratio (y) = 0.41845 0.14155
# Poissons Ratio (z) = 0.30993 0.30328
#
# Static dielectric constant tensor:
#      x y z
#    x 1.546880 0.000000 0.000000 
#    y 0.000000 1.547430 0.000000 
#    z 0.000000 0.000000 1.584570 
# 
# From -- ./inp_files/44818.got.cif
#   From: 2010.05.17/outbox.cif.g08.bks.cpg/sg67_23_cif.got.tgz:44818.got - 2010.06.03 18:28:57.
