data_PCOD9503782
_publ_section_title
;
Structure prediction by ZEFSAII (Michael W. Deem and Ramdas Pophale) SiO2 
 PCOD9503782
Probable space group: C M M A
;
_chemical_formula_sum "Si O2"
_cell_formula_units_Z 96
_cell_length_a 24.893902
_cell_length_b 21.867231
_cell_length_c 9.125185
_cell_angle_alpha 90.000000
_cell_angle_beta 90.000000
_cell_angle_gamma 90.000000
_cell_volume 4967.392145
_symmetry_space_group_name_H-M "C M M A"
_symmetry_group_IT_number 67
_symmetry_cell_setting 'orthorhombic'
loop_
_space_group_symop_operation_xyz
x,y,z
-x,1/2-y,z
x,-y,-z
-x,1/2+y,-z
-x,-y,-z
x,1/2+y,-z
-x,y,z
x,1/2-y,z
1/2+x,1/2+y,z
1/2-x,-y,z
1/2+x,1/2-y,-z
1/2-x,y,-z
1/2-x,1/2-y,-z
1/2+x,y,-z
1/2-x,1/2+y,z
1/2+x,-y,z
loop_
_atom_site_type_symbol
_atom_site_label
_atom_site_fract_x
_atom_site_fract_y
_atom_site_fract_z
Si Si1 0.845511 0.178731 0.628810
Si Si2 0.062977 0.317985 0.111749
Si Si3 0.437137 0.879307 0.815760
Si Si4 0.740490 0.178720 0.827082
Si Si5 0.859458 0.622436 0.682569
Si Si6 0.939142 0.988025 0.674721
O O1 0.844273 0.250000 0.585793
O O2 0.898937 0.162593 0.718364
O O3 0.794471 0.167837 0.734033
O O4 0.845353 0.136893 0.485005
O O5 0.073617 0.250000 0.051063
O O6 0.097980 0.328716 0.254568
O O7 0.000000 0.322238 0.145103
O O8 0.076378 0.366828 0.985513
O O9 0.500000 0.863138 0.797346
O O10 0.430880 0.948963 0.762273
O O11 0.724230 0.250000 0.799508
O O12 0.694229 0.133228 0.774695
O O13 0.750000 0.172766 0.000000
O O14 0.891454 0.559360 0.702517
O O15 0.000000 0.965168 0.711955
O O16 0.939291 0.000000 0.500000
#
# Coordination Sequence:
#
# PCOD9503782 Si02
#       6
#    16  16  16  16  16  16
#     4  11  22  36  60  92 121 155 204 257 313 373
#     4  10  21  36  56  89 128 161 199 254 315 371
#     4  10  21  39  62  86 121 166 208 248 303 373
#     4  10  22  41  63  88 122 162 203 254 316 381
#     4  12  22  37  62  89 120 160 206 257 308 367
#     4  10  21  40  63  90 124 164 209 254 303 364
#
# _framework density 19.326035999999998
#
# number of rings (size 3 to 8) (size 9 to 14) (size 15 to 20)
#    0.000    1.500    1.667    4.000    0.000    5.000 
#    0.000    3.333    0.000    1.000    0.000    0.000 
#    0.000    0.000    0.000    0.000    0.000    0.000 
#
# Total GULP energy -268088.594105 kJ/mol
# GULP energy per Si atom -5585.179044 kJ/mol
# Density = 1.928205 g / cm^3
# Si number density = 19.326036 Si / 1000 Ang^3
#
#
#
# Elastic Constant Matrix: (Units=GPa)
#
#
# Indices 1 2 3 4 5 6 
#
# 1 81.1648 34.9475 31.8502 0.0000 0.0000 0.0000
# 2 34.9475 56.5074 16.7266 0.0000 0.0000 0.0000
# 3 31.8502 16.7266 83.1934 0.0000 0.0000 0.0000
# 4 0.0000 0.0000 0.0000 26.7328 0.0000 0.0000
# 5 0.0000 0.0000 0.0000 0.0000 35.1578 0.0000
# 6 0.0000 0.0000 0.0000 0.0000 0.0000 25.0313
#
#
#
# Elastic Compliance Matrix: (Units=1/GPa)
#
#
# Indices 1 2 3 4 5 6 
#
# 1 0.018643 -0.010013 -0.005124 0.000000 0.000000 0.000000
# 2 -0.010013 0.024195 -0.001031 0.000000 0.000000 0.000000
# 3 -0.005124 -0.001031 0.014189 0.000000 0.000000 0.000000
# 4 0.000000 0.000000 0.000000 0.037407 0.000000 0.000000
# 5 0.000000 0.000000 0.000000 0.000000 0.028443 0.000000
# 6 0.000000 0.000000 0.000000 0.000000 0.000000 0.039950
#
#
# Mechanical properties :
#
#
# Convention : Reuss Voigt Hill
#
# Bulk Modulus (GPa) = 40.50182 43.10159 41.80171
# Shear Modulus (GPa) = 24.58290 26.54046 25.56168
#
# Velocity S-wave (km/s) = 3.57039 3.70983 3.64078
# Velocity P-wave (km/s) = 6.16438 6.37975 6.27299
#
# Compressibility (1/GPa) = 0.02469025
#
# Stress axis : x y z
#
# Youngs Moduli (GPa) = 53.64022 41.33151 70.47601
#
# Poissons Ratio (x) = 0.41385 0.36113
# Poissons Ratio (y) = 0.53710 0.07267
# Poissons Ratio (z) = 0.27486 0.04262
#
# Static dielectric constant tensor:
#      x y z
#    x 1.664700 0.000000 0.000000 
#    y 0.000000 1.680300 0.000000 
#    z 0.000000 0.000000 1.672220 
# 
# From -- ./inp_files/13720.got.cif
#   From: 2010.05.17/outbox.cif.g08.bks.cpg/sg67_7_cif.got.tgz:13720.got - 2010.06.03 18:28:57.
