data_PCOD9503365
_publ_section_title
;
Structure prediction by ZEFSAII (Michael W. Deem and Ramdas Pophale) SiO2 
 PCOD9503365
Probable space group: C M M A
;
_chemical_formula_sum "Si O2"
_cell_formula_units_Z 72
_cell_length_a 16.537341
_cell_length_b 8.825704
_cell_length_c 25.327741
_cell_angle_alpha 90.000000
_cell_angle_beta 90.000000
_cell_angle_gamma 90.000000
_cell_volume 3696.676919
_symmetry_space_group_name_H-M "C M M A"
_symmetry_group_IT_number 67
_symmetry_cell_setting 'orthorhombic'
loop_
_space_group_symop_operation_xyz
x,y,z
-x,1/2-y,z
x,-y,-z
-x,1/2+y,-z
-x,-y,-z
x,1/2+y,-z
-x,y,z
x,1/2-y,z
1/2+x,1/2+y,z
1/2-x,-y,z
1/2+x,1/2-y,-z
1/2-x,y,-z
1/2-x,1/2-y,-z
1/2+x,y,-z
1/2-x,1/2+y,z
1/2+x,-y,z
loop_
_atom_site_type_symbol
_atom_site_label
_atom_site_fract_x
_atom_site_fract_y
_atom_site_fract_z
Si Si1 0.597315 0.578033 0.446232
Si Si2 0.838869 0.568382 0.340288
Si Si3 0.835084 0.567016 0.119581
Si Si4 0.500000 0.433146 0.058388
Si Si5 0.591610 0.065719 0.228022
O O1 0.627389 0.500000 0.500000
O O2 0.500000 0.583052 0.449486
O O3 0.628022 0.750000 0.442617
O O4 0.619818 0.488194 0.393732
O O5 0.836528 0.750000 0.340364
O O6 0.750000 0.500000 0.338967
O O7 0.883235 0.517364 0.286550
O O8 0.830203 0.750000 0.117921
O O9 0.750000 0.500000 0.100268
O O10 0.850540 0.517586 0.180380
O O11 0.916606 0.522262 0.088039
O O12 0.500000 0.250000 0.056917
O O13 0.500000 0.500000 0.000000
O O14 0.500000 0.017676 0.216460
O O15 0.592157 0.250000 0.227801
#
# Coordination Sequence:
#
# PCOD9503365 Si02
#       5
#    16  16  16   8  16
#     4  10  21  38  59  81 107 140 182 232 284 343
#     4  11  22  35  54  81 113 147 186 231 283 344
#     4  10  20  37  61  88 119 157 200 246 297 351
#     4  10  22  40  62  86 120 162 203 246 293 350
#     4   9  17  33  58  84 112 149 192 235 286 348
#
# _framework density 19.476953000000002
#
# number of rings (size 3 to 8) (size 9 to 14) (size 15 to 20)
#    0.000    2.000    1.111    2.667    0.000    4.000 
#    0.000    5.556    0.000    2.667    0.000    0.000 
#    0.000    0.000    0.000    0.000    0.000    0.000 
#
# Total GULP energy -200949.294022 kJ/mol
# GULP energy per Si atom -5581.924834 kJ/mol
# Density = 1.943262 g / cm^3
# Si number density = 19.476953 Si / 1000 Ang^3
#
#
#
# Elastic Constant Matrix: (Units=GPa)
#
#
# Indices 1 2 3 4 5 6 
#
# 1 114.1017 27.1244 57.1064 0.0000 0.0000 0.0000
# 2 27.1244 46.9621 32.3479 0.0000 0.0000 0.0000
# 3 57.1064 32.3479 139.8999 0.0000 0.0000 0.0000
# 4 0.0000 0.0000 0.0000 27.7648 0.0000 0.0000
# 5 0.0000 0.0000 0.0000 0.0000 95.0473 0.0000
# 6 0.0000 0.0000 0.0000 0.0000 0.0000 24.6890
#
#
#
# Elastic Compliance Matrix: (Units=1/GPa)
#
#
# Indices 1 2 3 4 5 6 
#
# 1 0.011644 -0.004105 -0.003804 0.000000 0.000000 0.000000
# 2 -0.004105 0.026775 -0.004515 0.000000 0.000000 0.000000
# 3 -0.003804 -0.004515 0.009745 0.000000 0.000000 0.000000
# 4 0.000000 0.000000 0.000000 0.036017 0.000000 0.000000
# 5 0.000000 0.000000 0.000000 0.000000 0.010521 0.000000
# 6 0.000000 0.000000 0.000000 0.000000 0.000000 0.040504
#
#
# Mechanical properties :
#
#
# Convention : Reuss Voigt Hill
#
# Bulk Modulus (GPa) = 42.89068 59.34679 51.11874
# Shear Modulus (GPa) = 29.79293 41.79254 35.79274
#
# Velocity S-wave (km/s) = 3.91532 4.63724 4.29149
# Velocity P-wave (km/s) = 6.51987 7.69470 7.13152
#
# Compressibility (1/GPa) = 0.02331509
#
# Stress axis : x y z
#
# Youngs Moduli (GPa) = 85.88336 37.34835 102.62051
#
# Poissons Ratio (x) = 0.15332 0.39034
# Poissons Ratio (y) = 0.35257 0.46336
# Poissons Ratio (z) = 0.32667 0.16864
#
# Static dielectric constant tensor:
#      x y z
#    x 1.685860 0.000000 0.000000 
#    y 0.000000 1.672420 0.000000 
#    z 0.000000 0.000000 1.688650 
# 
# From -- ./inp_files/40503.got.cif
#   From: 2010.05.17/outbox.cif.g08.bks.cpg/sg67_21_cif.got.tgz:40503.got - 2010.06.03 18:28:57.
