data_PCOD9503718
_publ_section_title
;
Structure prediction by ZEFSAII (Michael W. Deem and Ramdas Pophale) SiO2 
 PCOD9503718
Probable space group: C M M A
;
_chemical_formula_sum "Si O2"
_cell_formula_units_Z 112
_cell_length_a 25.938792
_cell_length_b 23.581439
_cell_length_c 7.072339
_cell_angle_alpha 90.000000
_cell_angle_beta 90.000000
_cell_angle_gamma 90.000000
_cell_volume 4325.966177
_symmetry_space_group_name_H-M "C M M A"
_symmetry_group_IT_number 67
_symmetry_cell_setting 'orthorhombic'
loop_
_space_group_symop_operation_xyz
x,y,z
-x,1/2-y,z
x,-y,-z
-x,1/2+y,-z
-x,-y,-z
x,1/2+y,-z
-x,y,z
x,1/2-y,z
1/2+x,1/2+y,z
1/2-x,-y,z
1/2+x,1/2-y,-z
1/2-x,y,-z
1/2-x,1/2-y,-z
1/2+x,y,-z
1/2-x,1/2+y,z
1/2+x,-y,z
loop_
_atom_site_type_symbol
_atom_site_label
_atom_site_fract_x
_atom_site_fract_y
_atom_site_fract_z
Si Si1 0.901777 0.687695 0.658595
Si Si2 0.793102 0.312004 0.346758
Si Si3 0.557583 0.104509 0.174539
Si Si4 0.859862 0.488109 0.772693
Si Si5 0.361095 0.814143 0.903912
Si Si6 0.773962 0.091337 0.812222
Si Si7 0.943711 0.074262 0.274850
O O1 0.924644 0.750000 0.638574
O O2 0.847984 0.683057 0.549176
O O3 0.876426 0.683410 0.871817
O O4 0.938859 0.635667 0.630915
O O5 0.792287 0.250000 0.240023
O O6 0.750000 0.305082 0.500000
O O7 0.774492 0.372123 0.263097
O O8 0.500000 0.103517 0.246126
O O9 0.595622 0.058474 0.258772
O O10 0.585904 0.164560 0.189913
O O11 0.555466 0.086508 0.951630
O O12 0.806567 0.458223 0.709008
O O13 0.889391 0.542554 0.689607
O O14 0.854876 0.500000 0.000000
O O15 0.347331 0.750000 0.855075
O O16 0.316363 0.859799 0.864139
O O17 0.750000 0.065190 0.000000
O O18 0.000000 0.047507 0.317749
#
# Coordination Sequence:
#
# PCOD9503718 Si02
#       7
#    16  16  16  16  16  16  16
#     4   9  17  30  48  73 104 132 170 216 257 313
#     4  10  21  36  54  76 105 142 176 212 267 324
#     4   8  14  24  38  60  96 133 162 198 250 306
#     4   9  18  29  43  71 100 135 178 215 250 312
#     4   9  16  25  41  68  97 127 164 207 255 304
#     4  11  20  31  50  75 101 137 177 220 261 305
#     4   9  16  28  47  71 103 138 169 211 267 316
#
# _framework density 25.890170999999999
#
# number of rings (size 3 to 8) (size 9 to 14) (size 15 to 20)
#    0.000    2.714    1.429    1.714    0.000    3.143 
#    0.000    2.857    0.000    1.714    0.000    6.000 
#    0.000   10.286    0.000    0.000    0.000    0.000 
#
# Total GULP energy -312504.875535 kJ/mol
# GULP energy per Si atom -5580.444206 kJ/mol
# Density = 2.583124 g / cm^3
# Si number density = 25.890171 Si / 1000 Ang^3
#
#
#
# Elastic Constant Matrix: (Units=GPa)
#
#
# Indices 1 2 3 4 5 6 
#
# 1 126.3820 57.0518 7.6525 0.0000 0.0000 0.0000
# 2 57.0518 134.6320 12.2833 0.0000 0.0000 0.0000
# 3 7.6525 12.2833 57.4564 0.0000 0.0000 0.0000
# 4 0.0000 0.0000 0.0000 -55.0086 0.0000 0.0000
# 5 0.0000 0.0000 0.0000 0.0000 16.6586 0.0000
# 6 0.0000 0.0000 0.0000 0.0000 0.0000 35.2789
#
#
#
# Elastic Compliance Matrix: (Units=1/GPa)
#
#
# Indices 1 2 3 4 5 6 
#
# 1 0.009794 -0.004112 -0.000425 0.000000 0.000000 0.000000
# 2 -0.004112 0.009301 -0.001441 0.000000 0.000000 0.000000
# 3 -0.000425 -0.001441 0.017769 0.000000 0.000000 0.000000
# 4 0.000000 0.000000 0.000000 -0.018179 0.000000 0.000000
# 5 0.000000 0.000000 0.000000 0.000000 0.060029 0.000000
# 6 0.000000 0.000000 0.000000 0.000000 0.000000 0.028346
#
#
# Mechanical properties :
#
#
# Convention : Reuss Voigt Hill
#
# Bulk Modulus (GPa) = 40.14613 52.49395 46.32004
# Shear Modulus (GPa) = 39.27121 15.48463 27.37792
#
# Velocity S-wave (km/s) = 3.89889 2.44824 3.25539
# Velocity P-wave (km/s) = 5.98401 5.32085 5.66215
#
# Compressibility (1/GPa) = 0.02490900
#
# Stress axis : x y z
#
# Youngs Moduli (GPa) = 102.09933 107.50986 56.27714
#
# Poissons Ratio (x) = 0.44204 0.02395
# Poissons Ratio (y) = 0.41980 0.08109
# Poissons Ratio (z) = 0.04344 0.15491
#
# Static dielectric constant tensor:
#      x y z
#    x 2.207910 0.000000 0.000000 
#    y 0.000000 2.079630 0.000000 
#    z 0.000000 0.000000 2.264670 
# 
# From -- ./inp_files/22288.got.cif
#   From: 2010.05.17/outbox.cif.g08.bks.cpg/sg67_12_cif.got.tgz:22288.got - 2010.06.03 18:28:57.
