data_PCOD9503375
_publ_section_title
;
Structure prediction by ZEFSAII (Michael W. Deem and Ramdas Pophale) SiO2 
 PCOD9503375
Probable space group: C M M A
;
_chemical_formula_sum "Si O2"
_cell_formula_units_Z 88
_cell_length_a 19.554876
_cell_length_b 10.626356
_cell_length_c 23.244836
_cell_angle_alpha 90.000000
_cell_angle_beta 90.000000
_cell_angle_gamma 90.000000
_cell_volume 4830.208904
_symmetry_space_group_name_H-M "C M M A"
_symmetry_group_IT_number 67
_symmetry_cell_setting 'orthorhombic'
loop_
_space_group_symop_operation_xyz
x,y,z
-x,1/2-y,z
x,-y,-z
-x,1/2+y,-z
-x,-y,-z
x,1/2+y,-z
-x,y,z
x,1/2-y,z
1/2+x,1/2+y,z
1/2-x,-y,z
1/2+x,1/2-y,-z
1/2-x,y,-z
1/2-x,1/2-y,-z
1/2+x,y,-z
1/2-x,1/2+y,z
1/2+x,-y,z
loop_
_atom_site_type_symbol
_atom_site_label
_atom_site_fract_x
_atom_site_fract_y
_atom_site_fract_z
Si Si1 0.750000 0.000000 0.636206
Si Si2 0.849524 0.613378 0.545555
Si Si3 0.807042 0.399038 0.855005
Si Si4 0.919868 0.393423 0.953053
Si Si5 0.000000 0.956305 0.566076
Si Si6 0.000000 0.599206 0.318724
Si Si7 0.356616 0.899967 0.728142
O O1 0.706148 0.090285 0.594843
O O2 0.803748 0.067248 0.677990
O O3 0.843544 0.500000 0.500000
O O4 0.839512 0.750000 0.517644
O O5 0.926432 0.610031 0.571510
O O6 0.785157 0.250000 0.853951
O O7 0.750000 0.500000 0.873552
O O8 0.870912 0.406249 0.898296
O O9 0.830246 0.438651 0.790818
O O10 0.910882 0.250000 0.975713
O O11 0.000000 0.406699 0.937166
O O12 0.904008 0.500000 0.000000
O O13 0.000000 0.000000 0.500000
O O14 0.000000 0.063843 0.614166
O O15 0.068725 0.549262 0.288845
O O16 0.000000 0.750000 0.314264
O O17 0.362708 0.750000 0.731207
#
# Coordination Sequence:
#
# PCOD9503375 Si02
#       7
#     8  16  16  16   8   8  16
#     4  12  21  38  60  84 117 148 188 228 288 350
#     4  11  25  41  61  85 114 148 188 237 288 346
#     4  10  21  37  58  87 121 156 195 238 288 342
#     4   9  19  36  59  87 118 156 201 248 290 336
#     4  10  21  39  57  82 110 145 186 235 287 338
#     4  10  20  37  62  86 109 145 194 237 282 343
#     4  10  21  36  58  86 115 149 188 235 285 340
#
# _framework density 18.218674
#
# number of rings (size 3 to 8) (size 9 to 14) (size 15 to 20)
#    0.000    1.818    2.727    1.091    1.273    6.182 
#    0.000    1.818    0.000    0.000    0.000    0.000 
#    0.000    0.000    0.000    0.000    0.000    0.000 
#
# Total GULP energy -245298.588975 kJ/mol
# GULP energy per Si atom -5574.967931 kJ/mol
# Density = 1.817721 g / cm^3
# Si number density = 18.218674 Si / 1000 Ang^3
#
#
#
# Elastic Constant Matrix: (Units=GPa)
#
#
# Indices 1 2 3 4 5 6 
#
# 1 117.6328 41.4749 44.3997 0.0000 0.0000 0.0000
# 2 41.4749 89.0349 47.1139 0.0000 0.0000 0.0000
# 3 44.3997 47.1139 75.1939 0.0000 0.0000 0.0000
# 4 0.0000 0.0000 0.0000 29.3924 0.0000 0.0000
# 5 0.0000 0.0000 0.0000 0.0000 119.7400 0.0000
# 6 0.0000 0.0000 0.0000 0.0000 0.0000 12.3966
#
#
#
# Elastic Compliance Matrix: (Units=1/GPa)
#
#
# Indices 1 2 3 4 5 6 
#
# 1 0.011327 -0.002599 -0.005060 0.000000 0.000000 0.000000
# 2 -0.002599 0.017399 -0.009367 0.000000 0.000000 0.000000
# 3 -0.005060 -0.009367 0.022156 0.000000 0.000000 0.000000
# 4 0.000000 0.000000 0.000000 0.034022 0.000000 0.000000
# 5 0.000000 0.000000 0.000000 0.000000 0.008351 0.000000
# 6 0.000000 0.000000 0.000000 0.000000 0.000000 0.080667
#
#
# Mechanical properties :
#
#
# Convention : Reuss Voigt Hill
#
# Bulk Modulus (GPa) = 59.41744 60.87096 60.14420
# Shear Modulus (GPa) = 23.40991 42.23067 32.82029
#
# Velocity S-wave (km/s) = 3.58850 4.81977 4.24897
# Velocity P-wave (km/s) = 7.06074 8.02854 7.56014
#
# Compressibility (1/GPa) = 0.01683008
#
# Stress axis : x y z
#
# Youngs Moduli (GPa) = 88.28292 57.47511 45.13520
#
# Poissons Ratio (x) = 0.14938 0.22838
# Poissons Ratio (y) = 0.22945 0.42278
# Poissons Ratio (z) = 0.44671 0.53836
#
# Static dielectric constant tensor:
#      x y z
#    x 1.655590 0.000000 0.000000 
#    y 0.000000 1.635030 0.000000 
#    z 0.000000 0.000000 1.596820 
# 
# From -- ./inp_files/38955.got.cif
#   From: 2010.05.17/outbox.cif.g08.bks.cpg/sg67_20_cif.got.tgz:38955.got - 2010.06.03 18:28:57.
