data_PCOD9503471
_publ_section_title
;
Structure prediction by ZEFSAII (Michael W. Deem and Ramdas Pophale) SiO2 
 PCOD9503471
Probable space group: C M M A
;
_chemical_formula_sum "Si O2"
_cell_formula_units_Z 96
_cell_length_a 23.252618
_cell_length_b 14.393689
_cell_length_c 12.174870
_cell_angle_alpha 90.000000
_cell_angle_beta 90.000000
_cell_angle_gamma 90.000000
_cell_volume 4074.818830
_symmetry_space_group_name_H-M "C M M A"
_symmetry_group_IT_number 67
_symmetry_cell_setting 'orthorhombic'
loop_
_space_group_symop_operation_xyz
x,y,z
-x,1/2-y,z
x,-y,-z
-x,1/2+y,-z
-x,-y,-z
x,1/2+y,-z
-x,y,z
x,1/2-y,z
1/2+x,1/2+y,z
1/2-x,-y,z
1/2+x,1/2-y,-z
1/2-x,y,-z
1/2-x,1/2-y,-z
1/2+x,y,-z
1/2-x,1/2+y,z
1/2+x,-y,z
loop_
_atom_site_type_symbol
_atom_site_label
_atom_site_fract_x
_atom_site_fract_y
_atom_site_fract_z
Si Si1 0.564962 0.971789 0.268182
Si Si2 0.860190 0.141182 0.706950
Si Si3 0.692230 0.640450 0.060006
Si Si4 0.129978 0.358759 0.446912
Si Si5 0.227999 0.637517 0.706396
Si Si6 0.563296 0.605821 0.036652
O O1 0.500000 0.002682 0.284266
O O2 0.600462 0.064004 0.237455
O O3 0.587890 0.923095 0.377724
O O4 0.565424 0.897256 0.169384
O O5 0.866479 0.250000 0.741443
O O6 0.874425 0.135895 0.577075
O O7 0.793977 0.110633 0.716867
O O8 0.701654 0.750000 0.070034
O O9 0.694104 0.604461 0.185343
O O10 0.629005 0.633185 0.005700
O O11 0.750000 0.604345 0.000000
O O12 0.121181 0.250000 0.417093
O O13 0.193118 0.387927 0.402466
O O14 0.229982 0.750000 0.704073
O O15 0.500000 0.647157 0.004478
O O16 0.559385 0.500000 0.000000
#
# Coordination Sequence:
#
# PCOD9503471 Si02
#       6
#    16  16  16  16  16  16
#     4  11  24  41  61  87 121 160 207 259 303 358
#     4  10  22  38  60  87 122 166 204 248 306 366
#     4  10  21  38  64  95 123 152 198 260 316 368
#     4  10  20  38  62  89 121 159 201 250 310 366
#     4   9  18  36  59  87 121 153 192 246 306 367
#     4  10  23  43  62  85 121 163 204 249 306 373
#
# _framework density 23.559329999999999
#
# number of rings (size 3 to 8) (size 9 to 14) (size 15 to 20)
#    0.000    2.000    1.667    1.000    2.333    5.333 
#    0.000    5.000    0.000    3.000    0.000    0.000 
#    0.000    0.000    0.000    0.000    0.000    0.000 
#
# Total GULP energy -267920.481756 kJ/mol
# GULP energy per Si atom -5581.676703 kJ/mol
# Density = 2.350571 g / cm^3
# Si number density = 23.559330 Si / 1000 Ang^3
#
#
#
# Elastic Constant Matrix: (Units=GPa)
#
#
# Indices 1 2 3 4 5 6 
#
# 1 114.0000 2.3265 15.5067 0.0000 0.0000 0.0000
# 2 2.3265 69.0220 6.7045 0.0000 0.0000 0.0000
# 3 15.5067 6.7045 36.9726 0.0000 0.0000 0.0000
# 4 0.0000 0.0000 0.0000 15.0791 0.0000 0.0000
# 5 0.0000 0.0000 0.0000 0.0000 16.1604 0.0000
# 6 0.0000 0.0000 0.0000 0.0000 0.0000 47.6467
#
#
#
# Elastic Compliance Matrix: (Units=1/GPa)
#
#
# Indices 1 2 3 4 5 6 
#
# 1 0.009303 0.000067 -0.003914 0.000000 0.000000 0.000000
# 2 0.000067 0.014748 -0.002702 0.000000 0.000000 0.000000
# 3 -0.003914 -0.002702 0.029179 0.000000 0.000000 0.000000
# 4 0.000000 0.000000 0.000000 0.066317 0.000000 0.000000
# 5 0.000000 0.000000 0.000000 0.000000 0.061880 0.000000
# 6 0.000000 0.000000 0.000000 0.000000 0.000000 0.020988
#
#
# Mechanical properties :
#
#
# Convention : Reuss Voigt Hill
#
# Bulk Modulus (GPa) = 24.91853 29.89664 27.40758
# Shear Modulus (GPa) = 21.84450 28.80770 25.32610
#
# Velocity S-wave (km/s) = 3.04832 3.50061 3.28226
# Velocity P-wave (km/s) = 4.79474 5.39041 5.10128
#
# Compressibility (1/GPa) = 0.04013079
#
# Stress axis : x y z
#
# Youngs Moduli (GPa) = 107.49289 67.80404 34.27171
#
# Poissons Ratio (x) = -0.00452 0.13413
# Poissons Ratio (y) = -0.00716 0.09261
# Poissons Ratio (z) = 0.42071 0.18323
#
# Static dielectric constant tensor:
#      x y z
#    x 1.937310 0.000000 0.000000 
#    y 0.000000 1.889320 0.000000 
#    z 0.000000 0.000000 1.929590 
# 
# From -- ./inp_files/27217.got.cif
#   From: 2010.05.17/outbox.cif.g08.bks.cpg/sg67_14_cif.got.tgz:27217.got - 2010.06.03 18:28:57.
