data_PCOD9503461
_publ_section_title
;
Structure prediction by ZEFSAII (Michael W. Deem and Ramdas Pophale) SiO2 
 PCOD9503461
Probable space group: C M M A
;
_chemical_formula_sum "Si O2"
_cell_formula_units_Z 72
_cell_length_a 15.664202
_cell_length_b 8.579657
_cell_length_c 28.775272
_cell_angle_alpha 90.000000
_cell_angle_beta 90.000000
_cell_angle_gamma 90.000000
_cell_volume 3867.208952
_symmetry_space_group_name_H-M "C M M A"
_symmetry_group_IT_number 67
_symmetry_cell_setting 'orthorhombic'
loop_
_space_group_symop_operation_xyz
x,y,z
-x,1/2-y,z
x,-y,-z
-x,1/2+y,-z
-x,-y,-z
x,1/2+y,-z
-x,y,z
x,1/2-y,z
1/2+x,1/2+y,z
1/2-x,-y,z
1/2+x,1/2-y,-z
1/2-x,y,-z
1/2-x,1/2-y,-z
1/2+x,y,-z
1/2-x,1/2+y,z
1/2+x,-y,z
loop_
_atom_site_type_symbol
_atom_site_label
_atom_site_fract_x
_atom_site_fract_y
_atom_site_fract_z
Si Si1 0.000000 0.064118 0.215973
Si Si2 0.000000 0.063870 0.888182
Si Si3 0.844365 0.562341 0.276678
Si Si4 0.500000 0.438879 0.447851
Si Si5 0.156466 0.436679 0.051982
Si Si6 0.156882 0.062433 0.615732
O O1 0.000000 0.250000 0.211865
O O2 0.916781 0.008225 0.244145
O O3 0.000000 0.988645 0.165131
O O4 0.000000 0.250000 0.891649
O O5 0.083299 0.996807 0.913963
O O6 0.845808 0.750000 0.273476
O O7 0.750000 0.500000 0.264863
O O8 0.861190 0.517581 0.330667
O O9 0.500000 0.250000 0.448595
O O10 0.500000 0.500000 0.500000
O O11 0.583335 0.490769 0.419121
O O12 0.157893 0.250000 0.050925
O O13 0.250000 0.500000 0.065542
O O14 0.139143 0.500000 0.000000
O O15 0.159037 0.250000 0.614726
O O16 0.250000 0.000000 0.603038
#
# Coordination Sequence:
#
# PCOD9503461 Si02
#       6
#     8   8  16   8  16  16
#     4  12  25  40  58  86 119 154 192 234 284 344
#     4  12  25  42  61  86 119 158 197 240 291 344
#     4  10  20  38  62  87 113 147 188 236 286 339
#     4  10  21  36  52  76 110 148 183 224 275 332
#     4  11  22  40  64  92 121 155 197 243 290 342
#     4   9  19  36  58  81 108 141 183 229 278 330
#
# _framework density 18.618079000000002
#
# number of rings (size 3 to 8) (size 9 to 14) (size 15 to 20)
#    0.000    1.556    0.000    6.333    0.000    4.889 
#    0.000    7.778    0.000    0.000    0.000    0.000 
#    0.000    0.000    0.000    0.000    0.000    0.000 
#
# Total GULP energy -201262.276741 kJ/mol
# GULP energy per Si atom -5590.618798 kJ/mol
# Density = 1.857570 g / cm^3
# Si number density = 18.618079 Si / 1000 Ang^3
#
#
#
# Elastic Constant Matrix: (Units=GPa)
#
#
# Indices 1 2 3 4 5 6 
#
# 1 181.9461 64.0745 135.7662 0.0000 0.0000 0.0000
# 2 64.0745 123.2131 54.3334 0.0000 0.0000 0.0000
# 3 135.7662 54.3334 136.1955 0.0000 0.0000 0.0000
# 4 0.0000 0.0000 0.0000 31.8605 0.0000 0.0000
# 5 0.0000 0.0000 0.0000 0.0000 -18.2766 0.0000
# 6 0.0000 0.0000 0.0000 0.0000 0.0000 37.3596
#
#
#
# Elastic Compliance Matrix: (Units=1/GPa)
#
#
# Indices 1 2 3 4 5 6 
#
# 1 0.021911 -0.002139 -0.020988 0.000000 0.000000 0.000000
# 2 -0.002139 0.010057 -0.001880 0.000000 0.000000 0.000000
# 3 -0.020988 -0.001880 0.029014 0.000000 0.000000 0.000000
# 4 0.000000 0.000000 0.000000 0.031387 0.000000 0.000000
# 5 0.000000 0.000000 0.000000 0.000000 -0.054715 0.000000
# 6 0.000000 0.000000 0.000000 0.000000 0.000000 0.026767
#
#
# Mechanical properties :
#
#
# Convention : Reuss Voigt Hill
#
# Bulk Modulus (GPa) = 91.17431 105.52255 98.34843
# Shear Modulus (GPa) = 42.34004 22.66740 32.50372
#
# Velocity S-wave (km/s) = 4.77396 3.49305 4.18283
# Velocity P-wave (km/s) = 8.91430 8.54804 8.73309
#
# Compressibility (1/GPa) = 0.01096800
#
# Stress axis : x y z
#
# Youngs Moduli (GPa) = 45.64020 99.42938 34.46567
#
# Poissons Ratio (x) = 0.21268 0.72337
# Poissons Ratio (y) = 0.09762 0.06480
# Poissons Ratio (z) = 0.95790 0.18693
#
# Static dielectric constant tensor:
#      x y z
#    x 1.615920 0.000000 0.000000 
#    y 0.000000 1.628460 0.000000 
#    z 0.000000 0.000000 1.615310 
# 
# From -- ./inp_files/44265.got.cif
#   From: 2010.05.17/outbox.cif.g08.bks.cpg/sg67_23_cif.got.tgz:44265.got - 2010.06.03 18:28:57.
