data_PCOD9503662
_publ_section_title
;
Structure prediction by ZEFSAII (Michael W. Deem and Ramdas Pophale) SiO2 
 PCOD9503662
Probable space group: C M M A
;
_chemical_formula_sum "Si O2"
_cell_formula_units_Z 88
_cell_length_a 7.905513
_cell_length_b 17.654308
_cell_length_c 30.795906
_cell_angle_alpha 90.000000
_cell_angle_beta 90.000000
_cell_angle_gamma 90.000000
_cell_volume 4298.072546
_symmetry_space_group_name_H-M "C M M A"
_symmetry_group_IT_number 67
_symmetry_cell_setting 'orthorhombic'
loop_
_space_group_symop_operation_xyz
x,y,z
-x,1/2-y,z
x,-y,-z
-x,1/2+y,-z
-x,-y,-z
x,1/2+y,-z
-x,y,z
x,1/2-y,z
1/2+x,1/2+y,z
1/2-x,-y,z
1/2+x,1/2-y,-z
1/2-x,y,-z
1/2-x,1/2-y,-z
1/2+x,y,-z
1/2-x,1/2+y,z
1/2+x,-y,z
loop_
_atom_site_type_symbol
_atom_site_label
_atom_site_fract_x
_atom_site_fract_y
_atom_site_fract_z
Si Si1 0.203425 0.250000 0.050444
Si Si2 0.797050 0.333490 0.277958
Si Si3 0.296288 0.163619 0.453678
Si Si4 0.798933 0.086362 0.633925
Si Si5 0.703449 0.414876 0.807282
Si Si6 0.795603 0.911862 0.906587
O O1 0.261345 0.333068 0.069609
O O2 0.000000 0.250000 0.056149
O O3 0.250000 0.250000 0.000000
O O4 0.730112 0.250000 0.286767
O O5 0.761782 0.383324 0.319860
O O6 0.731279 0.363012 0.231659
O O7 0.000000 0.330481 0.273488
O O8 0.500000 0.164590 0.451733
O O9 0.233131 0.250000 0.454600
O O10 0.250000 0.127108 0.500000
O O11 0.231083 0.127003 0.409356
O O12 0.000000 0.095415 0.633754
O O13 0.750000 0.000000 0.630402
O O14 0.500000 0.407272 0.809347
O O15 0.750000 0.500000 0.794897
O O16 0.764863 0.403201 0.856540
O O17 0.000000 0.910926 0.907953
O O18 0.750000 0.000000 0.920449
#
# Coordination Sequence:
#
# PCOD9503662 Si02
#       6
#     8  16  16  16  16  16
#     4  10  22  38  58  84 114 152 194 238 289 344
#     4  10  21  35  54  81 109 141 180 221 267 322
#     4   9  19  36  57  79 102 132 170 214 265 318
#     4  11  23  38  55  76 107 143 179 220 267 319
#     4   9  18  33  54  79 108 141 180 224 270 324
#     4   9  19  36  58  83 113 151 192 235 288 342
#
# _framework density 20.474294
#
# number of rings (size 3 to 8) (size 9 to 14) (size 15 to 20)
#    0.000    2.364    0.000    1.636    1.273    6.182 
#    0.000    5.455    0.000    0.000    0.000    0.000 
#    0.000    0.000    0.000    0.000    0.000    0.000 
#
# Total GULP energy -245150.604613 kJ/mol
# GULP energy per Si atom -5571.604650 kJ/mol
# Density = 2.042769 g / cm^3
# Si number density = 20.474294 Si / 1000 Ang^3
#
#
#
# Elastic Constant Matrix: (Units=GPa)
#
#
# Indices 1 2 3 4 5 6 
#
# 1 20.6128 3.2204 4.7500 0.0000 0.0000 0.0000
# 2 3.2204 138.7364 82.5872 0.0000 0.0000 0.0000
# 3 4.7500 82.5872 119.7159 0.0000 0.0000 0.0000
# 4 0.0000 0.0000 0.0000 61.8587 0.0000 0.0000
# 5 0.0000 0.0000 0.0000 0.0000 15.5682 0.0000
# 6 0.0000 0.0000 0.0000 0.0000 0.0000 10.6469
#
#
#
# Elastic Compliance Matrix: (Units=1/GPa)
#
#
# Indices 1 2 3 4 5 6 
#
# 1 0.048961 0.000034 -0.001966 0.000000 0.000000 0.000000
# 2 0.000034 0.012231 -0.008439 0.000000 0.000000 0.000000
# 3 -0.001966 -0.008439 0.014253 0.000000 0.000000 0.000000
# 4 0.000000 0.000000 0.000000 0.016166 0.000000 0.000000
# 5 0.000000 0.000000 0.000000 0.000000 0.064233 0.000000
# 6 0.000000 0.000000 0.000000 0.000000 0.000000 0.093924
#
#
# Mechanical properties :
#
#
# Convention : Reuss Voigt Hill
#
# Bulk Modulus (GPa) = 18.28063 51.13115 34.70589
# Shear Modulus (GPa) = 17.31639 30.18192 23.74916
#
# Velocity S-wave (km/s) = 2.91135 3.84362 3.40950
# Velocity P-wave (km/s) = 4.49992 6.68770 5.69977
#
# Compressibility (1/GPa) = 0.05470270
#
# Stress axis : x y z
#
# Youngs Moduli (GPa) = 20.42431 81.76265 70.16250
#
# Poissons Ratio (x) = -0.00276 0.13794
# Poissons Ratio (y) = -0.00069 0.59208
# Poissons Ratio (z) = 0.04015 0.68997
#
# Static dielectric constant tensor:
#      x y z
#    x 1.744960 0.000000 0.000000 
#    y 0.000000 1.735260 0.000000 
#    z 0.000000 0.000000 1.731580 
# 
# From -- ./inp_files/45202.got.cif
#   From: 2010.05.17/outbox.cif.g08.bks.cpg/sg67_23_cif.got.tgz:45202.got - 2010.06.03 18:28:57.
