data_PCOD9503843
_publ_section_title
;
Structure prediction by ZEFSAII (Michael W. Deem and Ramdas Pophale) SiO2 
 PCOD9503843
Probable space group: C M M A
;
_chemical_formula_sum "Si O2"
_cell_formula_units_Z 88
_cell_length_a 8.923065
_cell_length_b 15.937814
_cell_length_c 31.477808
_cell_angle_alpha 90.000000
_cell_angle_beta 90.000000
_cell_angle_gamma 90.000000
_cell_volume 4476.589717
_symmetry_space_group_name_H-M "C M M A"
_symmetry_group_IT_number 67
_symmetry_cell_setting 'orthorhombic'
loop_
_space_group_symop_operation_xyz
x,y,z
-x,1/2-y,z
x,-y,-z
-x,1/2+y,-z
-x,-y,-z
x,1/2+y,-z
-x,y,z
x,1/2-y,z
1/2+x,1/2+y,z
1/2-x,-y,z
1/2+x,1/2-y,-z
1/2-x,y,-z
1/2-x,1/2-y,-z
1/2+x,y,-z
1/2-x,1/2+y,z
1/2+x,-y,z
loop_
_atom_site_type_symbol
_atom_site_label
_atom_site_fract_x
_atom_site_fract_y
_atom_site_fract_z
Si Si1 0.177764 0.092411 0.042072
Si Si2 0.170164 0.349964 0.208601
Si Si3 0.333459 0.149772 0.125566
Si Si4 0.680810 0.408143 0.700001
Si Si5 0.818528 0.750000 0.546694
Si Si6 0.181079 0.093169 0.394819
O O1 0.224754 0.133737 0.086223
O O2 0.000000 0.088403 0.037271
O O3 0.250000 0.000000 0.044133
O O4 0.250000 0.133817 0.000000
O O5 0.161149 0.250000 0.203014
O O6 0.269831 0.384087 0.170144
O O7 0.228575 0.364312 0.256336
O O8 0.000000 0.383597 0.205378
O O9 0.500000 0.115686 0.116502
O O10 0.345495 0.250000 0.129970
O O11 0.500000 0.409882 0.700796
O O12 0.750000 0.500000 0.701850
O O13 0.721776 0.375730 0.653022
O O14 0.750000 0.750000 0.500000
O O15 0.773751 0.665305 0.572068
O O16 0.000000 0.750000 0.544619
O O17 0.000000 0.084789 0.396557
O O18 0.250000 0.000000 0.401556
#
# Coordination Sequence:
#
# PCOD9503843 Si02
#       6
#    16  16  16  16   8  16
#     4  11  22  38  59  81 106 135 173 219 269 324
#     4   9  18  32  51  75 102 136 176 217 261 314
#     4  10  21  37  55  77 108 143 179 220 266 318
#     4   9  18  32  52  77 105 137 176 220 268 323
#     4  10  22  38  58  84 114 150 194 238 287 346
#     4   9  19  36  57  82 113 149 189 237 289 342
#
# _framework density 19.657820000000001
#
# number of rings (size 3 to 8) (size 9 to 14) (size 15 to 20)
#    0.000    2.364    0.000    2.727    1.273    4.000 
#    0.000    3.636    0.000    0.000    0.000    0.000 
#    0.000    0.000    0.000    0.000    0.000    0.000 
#
# Total GULP energy -245275.017163 kJ/mol
# GULP energy per Si atom -5574.432208 kJ/mol
# Density = 1.961308 g / cm^3
# Si number density = 19.657820 Si / 1000 Ang^3
#
#
#
# Elastic Constant Matrix: (Units=GPa)
#
#
# Indices 1 2 3 4 5 6 
#
# 1 82.2905 21.2250 63.0200 0.0000 0.0000 0.0000
# 2 21.2250 42.3596 49.1999 0.0000 0.0000 0.0000
# 3 63.0200 49.1999 180.8291 0.0000 0.0000 0.0000
# 4 0.0000 0.0000 0.0000 34.4053 0.0000 0.0000
# 5 0.0000 0.0000 0.0000 0.0000 36.5397 0.0000
# 6 0.0000 0.0000 0.0000 0.0000 0.0000 21.6662
#
#
#
# Elastic Compliance Matrix: (Units=1/GPa)
#
#
# Indices 1 2 3 4 5 6 
#
# 1 0.016735 -0.002356 -0.005191 0.000000 0.000000 0.000000
# 2 -0.002356 0.034846 -0.008660 0.000000 0.000000 0.000000
# 3 -0.005191 -0.008660 0.009696 0.000000 0.000000 0.000000
# 4 0.000000 0.000000 0.000000 0.029065 0.000000 0.000000
# 5 0.000000 0.000000 0.000000 0.000000 0.027368 0.000000
# 6 0.000000 0.000000 0.000000 0.000000 0.000000 0.046155
#
#
# Mechanical properties :
#
#
# Convention : Reuss Voigt Hill
#
# Bulk Modulus (GPa) = 34.64671 63.59655 49.12163
# Shear Modulus (GPa) = 24.28366 29.99120 27.13743
#
# Velocity S-wave (km/s) = 3.51852 3.91021 3.71953
# Velocity P-wave (km/s) = 5.84550 7.26693 6.59463
#
# Compressibility (1/GPa) = 0.02886277
#
# Stress axis : x y z
#
# Youngs Moduli (GPa) = 59.75351 28.69761 103.14048
#
# Poissons Ratio (x) = 0.06761 0.53545
# Poissons Ratio (y) = 0.14077 0.89319
# Poissons Ratio (z) = 0.31021 0.24852
#
# Static dielectric constant tensor:
#      x y z
#    x 1.697570 0.000000 0.000000 
#    y 0.000000 1.686940 0.000000 
#    z 0.000000 0.000000 1.727260 
# 
# From -- ./inp_files/45247.got.cif
#   From: 2010.05.17/outbox.cif.g08.bks.cpg/sg67_23_cif.got.tgz:45247.got - 2010.06.03 18:28:57.
