data_PCOD9503031
_publ_section_title
;
Structure prediction by ZEFSAII (Michael W. Deem and Ramdas Pophale) SiO2 
 PCOD9503031
Probable space group: C M M A
;
_chemical_formula_sum "Si O2"
_cell_formula_units_Z 116
_cell_length_a 29.442285
_cell_length_b 15.217534
_cell_length_c 11.385303
_cell_angle_alpha 90.000000
_cell_angle_beta 90.000000
_cell_angle_gamma 90.000000
_cell_volume 5101.059464
_symmetry_space_group_name_H-M "C M M A"
_symmetry_group_IT_number 67
_symmetry_cell_setting 'orthorhombic'
loop_
_space_group_symop_operation_xyz
x,y,z
-x,1/2-y,z
x,-y,-z
-x,1/2+y,-z
-x,-y,-z
x,1/2+y,-z
-x,y,z
x,1/2-y,z
1/2+x,1/2+y,z
1/2-x,-y,z
1/2+x,1/2-y,-z
1/2-x,y,-z
1/2-x,1/2-y,-z
1/2+x,y,-z
1/2-x,1/2+y,z
1/2+x,-y,z
loop_
_atom_site_type_symbol
_atom_site_label
_atom_site_fract_x
_atom_site_fract_y
_atom_site_fract_z
Si Si1 0.500000 0.750000 0.128942
Si Si2 0.551340 0.424929 0.158572
Si Si3 0.861159 0.896517 0.021808
Si Si4 0.731749 0.647059 0.874832
Si Si5 0.872867 0.149478 0.425303
Si Si6 0.416467 0.374647 0.818772
Si Si7 0.727356 0.142440 0.625037
Si Si8 0.950757 0.355488 0.580198
O O1 0.459929 0.675904 0.136457
O O2 0.500000 0.424264 0.110813
O O3 0.589571 0.381867 0.078832
O O4 0.569976 0.523259 0.175022
O O5 0.549893 0.377346 0.283204
O O6 0.822225 0.860980 0.105803
O O7 0.870124 0.857405 0.892775
O O8 0.852732 0.000000 0.000000
O O9 0.744587 0.750000 0.875276
O O10 0.749636 0.612272 0.748692
O O11 0.750000 0.609078 0.000000
O O12 0.862314 0.250000 0.462988
O O13 0.905534 0.150912 0.313410
O O14 0.824748 0.110896 0.386731
O O15 0.904747 0.107420 0.524102
O O16 0.728866 0.250000 0.629527
O O17 0.750000 0.117414 0.500000
O O18 0.950157 0.250000 0.562959
O O19 0.000000 0.386912 0.531939
#
# Coordination Sequence:
#
# PCOD9503031 Si02
#       8
#     4  16  16  16  16  16  16  16
#     4  12  24  36  62  94 124 168 214 246 316 378
#     4  10  22  41  59  84 128 165 199 254 312 367
#     4  10  24  40  60  88 120 162 206 256 318 377
#     4  10  21  38  63  92 123 158 210 268 315 380
#     4  10  20  35  59  87 125 156 202 261 305 368
#     4  11  23  38  59  90 123 160 207 257 310 372
#     4   9  19  35  58  90 124 160 200 255 325 372
#     4   9  20  36  57  87 121 164 212 253 303 371
#
# _framework density 22.740375
#
# number of rings (size 3 to 8) (size 9 to 14) (size 15 to 20)
#    0.000    2.069    1.379    0.828    4.828    3.310 
#    0.000    1.379    0.000    0.000    0.000    0.000 
#    0.000    0.000    0.000    0.000    0.000    0.000 
#
# Total GULP energy -323060.660241 kJ/mol
# GULP energy per Si atom -5570.011383 kJ/mol
# Density = 2.268862 g / cm^3
# Si number density = 22.740375 Si / 1000 Ang^3
#
#
#
# Elastic Constant Matrix: (Units=GPa)
#
#
# Indices 1 2 3 4 5 6 
#
# 1 129.2564 1.6870 56.2614 0.0000 0.0000 0.0000
# 2 1.6870 18.9482 3.3735 0.0000 0.0000 0.0000
# 3 56.2614 3.3735 118.0497 0.0000 0.0000 0.0000
# 4 0.0000 0.0000 0.0000 10.9255 0.0000 0.0000
# 5 0.0000 0.0000 0.0000 0.0000 40.9963 0.0000
# 6 0.0000 0.0000 0.0000 0.0000 0.0000 15.4814
#
#
#
# Elastic Compliance Matrix: (Units=1/GPa)
#
#
# Indices 1 2 3 4 5 6 
#
# 1 0.009762 -0.000041 -0.004651 0.000000 0.000000 0.000000
# 2 -0.000041 0.053046 -0.001496 0.000000 0.000000 0.000000
# 3 -0.004651 -0.001496 0.010730 0.000000 0.000000 0.000000
# 4 0.000000 0.000000 0.000000 0.091529 0.000000 0.000000
# 5 0.000000 0.000000 0.000000 0.000000 0.024392 0.000000
# 6 0.000000 0.000000 0.000000 0.000000 0.000000 0.064594
#
#
# Mechanical properties :
#
#
# Convention : Reuss Voigt Hill
#
# Bulk Modulus (GPa) = 16.35037 43.21090 29.78064
# Shear Modulus (GPa) = 17.43273 27.14279 22.28776
#
# Velocity S-wave (km/s) = 2.77175 3.45859 3.13405
# Velocity P-wave (km/s) = 4.17721 5.91542 5.12061
#
# Compressibility (1/GPa) = 0.06116069
#
# Stress axis : x y z
#
# Youngs Moduli (GPa) = 102.44239 18.85171 93.19273
#
# Poissons Ratio (x) = 0.00077 0.43345
# Poissons Ratio (y) = 0.00420 0.13945
# Poissons Ratio (z) = 0.47647 0.02821
#
# Static dielectric constant tensor:
#      x y z
#    x 1.864620 0.000000 0.000000 
#    y 0.000000 1.739460 0.000000 
#    z 0.000000 0.000000 1.867450 
# 
# From -- ./inp_files/23030.got.cif
#   From: 2010.05.17/outbox.cif.g08.bks.cpg/sg67_12_cif.got.tgz:23030.got - 2010.06.03 18:28:57.
