data_PCOD9503120
_publ_section_title
;
Structure prediction by ZEFSAII (Michael W. Deem and Ramdas Pophale) SiO2 
 PCOD9503120
Probable space group: C M M A
;
_chemical_formula_sum "Si O2"
_cell_formula_units_Z 112
_cell_length_a 14.336575
_cell_length_b 14.065508
_cell_length_c 27.074518
_cell_angle_alpha 90.000000
_cell_angle_beta 90.000000
_cell_angle_gamma 90.000000
_cell_volume 5459.609324
_symmetry_space_group_name_H-M "C M M A"
_symmetry_group_IT_number 67
_symmetry_cell_setting 'orthorhombic'
loop_
_space_group_symop_operation_xyz
x,y,z
-x,1/2-y,z
x,-y,-z
-x,1/2+y,-z
-x,-y,-z
x,1/2+y,-z
-x,y,z
x,1/2-y,z
1/2+x,1/2+y,z
1/2-x,-y,z
1/2+x,1/2-y,-z
1/2-x,y,-z
1/2-x,1/2-y,-z
1/2+x,y,-z
1/2-x,1/2+y,z
1/2+x,-y,z
loop_
_atom_site_type_symbol
_atom_site_label
_atom_site_fract_x
_atom_site_fract_y
_atom_site_fract_z
Si Si1 0.898609 0.140510 0.325449
Si Si2 0.114158 0.854846 0.975521
Si Si3 0.107771 0.642788 0.488995
Si Si4 0.113246 0.547475 0.075109
Si Si5 0.612003 0.463653 0.187673
Si Si6 0.717320 0.637721 0.229996
Si Si7 0.349983 0.973975 0.418486
O O1 0.887906 0.250000 0.341981
O O2 0.819055 0.120378 0.285689
O O3 0.000000 0.132472 0.299939
O O4 0.900129 0.075029 0.373307
O O5 0.145672 0.750000 0.961161
O O6 0.000000 0.854867 0.974388
O O7 0.144932 0.942118 0.941304
O O8 0.142160 0.880760 0.031741
O O9 0.136137 0.750000 0.476574
O O10 0.161551 0.598790 0.535564
O O11 0.111002 0.569149 0.443790
O O12 0.000000 0.644433 0.505910
O O13 0.136397 0.566848 0.131573
O O14 0.000000 0.546367 0.073344
O O15 0.500000 0.457781 0.194981
O O16 0.650848 0.570341 0.196717
O O17 0.676891 0.398055 0.222258
O O18 0.708093 0.750000 0.219702
O O19 0.250000 0.000000 0.398228
#
# Coordination Sequence:
#
# PCOD9503120 Si02
#       7
#    16  16  16  16  16  16  16
#     4  10  21  40  65  88 113 150 197 250 304 362
#     4   8  13  23  42  72 112 151 190 237 283 341
#     4  10  20  36  57  83 118 159 202 243 285 345
#     4   8  15  27  45  77 114 150 193 236 290 356
#     4  10  21  38  63  90 122 160 197 251 315 370
#     4  10  23  41  62  89 119 153 203 258 308 367
#     4  11  22  33  56  88 120 156 193 239 297 359
#
# _framework density 20.514289000000002
#
# number of rings (size 3 to 8) (size 9 to 14) (size 15 to 20)
#    0.000    2.429    0.000    4.286    2.000    5.143 
#    0.000    2.857    0.000    6.857    0.000    8.000 
#    0.000    0.000    0.000    0.000    0.000    0.286 
#
# Total GULP energy -312436.649122 kJ/mol
# GULP energy per Si atom -5579.225877 kJ/mol
# Density = 2.046760 g / cm^3
# Si number density = 20.514289 Si / 1000 Ang^3
#
#
#
# Elastic Constant Matrix: (Units=GPa)
#
#
# Indices 1 2 3 4 5 6 
#
# 1 97.8042 16.0172 32.3667 0.0000 0.0000 0.0000
# 2 16.0172 96.0853 34.7659 0.0000 0.0000 0.0000
# 3 32.3667 34.7659 82.9051 0.0000 0.0000 0.0000
# 4 0.0000 0.0000 0.0000 14.5417 0.0000 0.0000
# 5 0.0000 0.0000 0.0000 0.0000 25.6041 0.0000
# 6 0.0000 0.0000 0.0000 0.0000 0.0000 23.0765
#
#
#
# Elastic Compliance Matrix: (Units=1/GPa)
#
#
# Indices 1 2 3 4 5 6 
#
# 1 0.011752 -0.000352 -0.004440 0.000000 0.000000 0.000000
# 2 -0.000352 0.012280 -0.005012 0.000000 0.000000 0.000000
# 3 -0.004440 -0.005012 0.015897 0.000000 0.000000 0.000000
# 4 0.000000 0.000000 0.000000 0.068768 0.000000 0.000000
# 5 0.000000 0.000000 0.000000 0.000000 0.039056 0.000000
# 6 0.000000 0.000000 0.000000 0.000000 0.000000 0.043334
#
#
# Mechanical properties :
#
#
# Convention : Reuss Voigt Hill
#
# Bulk Modulus (GPa) = 49.21355 49.23267 49.22311
# Shear Modulus (GPa) = 22.99184 25.55410 24.27297
#
# Velocity S-wave (km/s) = 3.35142 3.53324 3.44353
# Velocity P-wave (km/s) = 6.24644 6.37937 6.31325
#
# Compressibility (1/GPa) = 0.02031961
#
# Stress axis : x y z
#
# Youngs Moduli (GPa) = 85.09474 81.43626 62.90456
#
# Poissons Ratio (x) = 0.02870 0.27930
# Poissons Ratio (y) = 0.02999 0.31526
# Poissons Ratio (z) = 0.37783 0.40814
#
# Static dielectric constant tensor:
#      x y z
#    x 1.792910 0.000000 0.000000 
#    y 0.000000 1.724520 0.000000 
#    z 0.000000 0.000000 1.696720 
# 
# From -- ./inp_files/41963.got.cif
#   From: 2010.05.17/outbox.cif.g08.bks.cpg/sg67_21_cif.got.tgz:41963.got - 2010.06.03 18:28:57.
