data_PCOD9503732
_publ_section_title
;
Structure prediction by ZEFSAII (Michael W. Deem and Ramdas Pophale) SiO2 
 PCOD9503732
Probable space group: C M M A
;
_chemical_formula_sum "Si O2"
_cell_formula_units_Z 80
_cell_length_a 26.557060
_cell_length_b 15.025988
_cell_length_c 9.563049
_cell_angle_alpha 90.000000
_cell_angle_beta 90.000000
_cell_angle_gamma 90.000000
_cell_volume 3816.097072
_symmetry_space_group_name_H-M "C M M A"
_symmetry_group_IT_number 67
_symmetry_cell_setting 'orthorhombic'
loop_
_space_group_symop_operation_xyz
x,y,z
-x,1/2-y,z
x,-y,-z
-x,1/2+y,-z
-x,-y,-z
x,1/2+y,-z
-x,y,z
x,1/2-y,z
1/2+x,1/2+y,z
1/2-x,-y,z
1/2+x,1/2-y,-z
1/2-x,y,-z
1/2-x,1/2-y,-z
1/2+x,y,-z
1/2-x,1/2+y,z
1/2+x,-y,z
loop_
_atom_site_type_symbol
_atom_site_label
_atom_site_fract_x
_atom_site_fract_y
_atom_site_fract_z
Si Si1 0.000000 0.359203 0.609411
Si Si2 0.798699 0.096832 0.427802
Si Si3 0.087269 0.645951 0.594481
Si Si4 0.095371 0.145419 0.096610
Si Si5 0.293104 0.141313 0.891613
Si Si6 0.000000 0.094475 0.926689
O O1 0.048968 0.388336 0.521319
O O2 0.000000 0.401258 0.761513
O O3 0.000000 0.250000 0.627329
O O4 0.750000 0.141037 0.500000
O O5 0.854004 0.138779 0.445046
O O6 0.788233 0.098680 0.261847
O O7 0.802467 0.000000 0.500000
O O8 0.073683 0.750000 0.604660
O O9 0.081414 0.605810 0.750677
O O10 0.101788 0.250000 0.121989
O O11 0.151162 0.115068 0.054069
O O12 0.051324 0.136346 0.985910
O O13 0.290426 0.250000 0.874853
O O14 0.250000 0.115575 0.000000
O O15 0.000000 0.000000 0.000000
#
# Coordination Sequence:
#
# PCOD9503732 Si02
#       6
#     8  16  16  16  16   8
#     4  10  21  36  55  84 113 138 179 232 282 326
#     4  10  21  36  54  83 120 153 184 223 283 348
#     4   9  19  37  62  85 105 139 187 234 280 333
#     4   9  18  37  61  81 107 144 184 230 283 331
#     4   9  19  37  62  88 110 142 195 247 285 329
#     4  12  25  36  50  78 114 150 189 226 270 332
#
# _framework density 20.963826999999998
#
# number of rings (size 3 to 8) (size 9 to 14) (size 15 to 20)
#    0.000    2.400    0.000    3.300    0.000    8.000 
#    0.000   11.500    0.000    0.000    0.000    0.000 
#    0.000    0.000    0.000    0.000    0.000    0.000 
#
# Total GULP energy -223075.937258 kJ/mol
# GULP energy per Si atom -5576.898431 kJ/mol
# Density = 2.091611 g / cm^3
# Si number density = 20.963827 Si / 1000 Ang^3
#
#
#
# Elastic Constant Matrix: (Units=GPa)
#
#
# Indices 1 2 3 4 5 6 
#
# 1 181.6875 -5.4751 130.5463 0.0000 0.0000 0.0000
# 2 -5.4751 39.2084 16.4933 0.0000 0.0000 0.0000
# 3 130.5463 16.4933 161.6549 0.0000 0.0000 0.0000
# 4 0.0000 0.0000 0.0000 12.2820 0.0000 0.0000
# 5 0.0000 0.0000 0.0000 0.0000 31.1329 0.0000
# 6 0.0000 0.0000 0.0000 0.0000 0.0000 232.7829
#
#
#
# Elastic Compliance Matrix: (Units=1/GPa)
#
#
# Indices 1 2 3 4 5 6 
#
# 1 0.014959 0.007492 -0.012845 0.000000 0.000000 0.000000
# 2 0.007492 0.030401 -0.009152 0.000000 0.000000 0.000000
# 3 -0.012845 -0.009152 0.017493 0.000000 0.000000 0.000000
# 4 0.000000 0.000000 0.000000 0.081420 0.000000 0.000000
# 5 0.000000 0.000000 0.000000 0.000000 0.032120 0.000000
# 6 0.000000 0.000000 0.000000 0.000000 0.000000 0.004296
#
#
# Mechanical properties :
#
#
# Convention : Reuss Voigt Hill
#
# Bulk Modulus (GPa) = 29.54812 73.96442 51.75627
# Shear Modulus (GPa) = 22.62663 71.30531 46.96597
#
# Velocity S-wave (km/s) = 3.28886 5.83844 4.73835
# Velocity P-wave (km/s) = 5.34299 8.98934 7.39445
#
# Compressibility (1/GPa) = 0.03384310
#
# Stress axis : x y z
#
# Youngs Moduli (GPa) = 66.85015 32.89386 57.16712
#
# Poissons Ratio (x) = -0.24644 0.73429
# Poissons Ratio (y) = -0.50084 0.52320
# Poissons Ratio (z) = 0.85866 0.30105
#
# Static dielectric constant tensor:
#      x y z
#    x 1.623760 0.000000 0.000000 
#    y 0.000000 1.869830 0.000000 
#    z 0.000000 0.000000 1.742090 
# 
# From -- ./inp_files/13566.got.cif
#   From: 2010.05.17/outbox.cif.g08.bks.cpg/sg67_7_cif.got.tgz:13566.got - 2010.06.03 18:28:57.
