data_PCOD9503205
_publ_section_title
;
Structure prediction by ZEFSAII (Michael W. Deem and Ramdas Pophale) SiO2 
 PCOD9503205
Probable space group: C M M A
;
_chemical_formula_sum "Si O2"
_cell_formula_units_Z 112
_cell_length_a 14.246280
_cell_length_b 16.905487
_cell_length_c 22.639371
_cell_angle_alpha 90.000000
_cell_angle_beta 90.000000
_cell_angle_gamma 90.000000
_cell_volume 5452.472934
_symmetry_space_group_name_H-M "C M M A"
_symmetry_group_IT_number 67
_symmetry_cell_setting 'orthorhombic'
loop_
_space_group_symop_operation_xyz
x,y,z
-x,1/2-y,z
x,-y,-z
-x,1/2+y,-z
-x,-y,-z
x,1/2+y,-z
-x,y,z
x,1/2-y,z
1/2+x,1/2+y,z
1/2-x,-y,z
1/2+x,1/2-y,-z
1/2-x,y,-z
1/2-x,1/2-y,-z
1/2+x,y,-z
1/2-x,1/2+y,z
1/2+x,-y,z
loop_
_atom_site_type_symbol
_atom_site_label
_atom_site_fract_x
_atom_site_fract_y
_atom_site_fract_z
Si Si1 0.691267 0.889065 0.284955
Si Si2 0.720416 0.592680 0.410352
Si Si3 0.890460 0.843832 0.479806
Si Si4 0.394524 0.158967 0.836194
Si Si5 0.397150 0.160808 0.148847
Si Si6 0.762098 0.594034 0.931642
Si Si7 0.893814 0.936941 0.266464
O O1 0.667099 0.872023 0.352937
O O2 0.663961 0.844390 0.225060
O O3 0.804309 0.890576 0.291430
O O4 0.642147 0.973564 0.271636
O O5 0.750000 0.500000 0.401428
O O6 0.817294 0.636703 0.427508
O O7 0.650709 0.605294 0.465620
O O8 0.883267 0.750000 0.493529
O O9 0.000000 0.861651 0.467596
O O10 0.500000 0.131612 0.822232
O O11 0.396521 0.250000 0.854446
O O12 0.353105 0.112516 0.891891
O O13 0.500000 0.158336 0.120620
O O14 0.384840 0.250000 0.173555
O O15 0.317862 0.140757 0.103101
O O16 0.395824 0.095138 0.199691
O O17 0.750000 0.500000 0.928540
O O18 0.750000 0.616793 0.000000
O O19 0.000000 0.927565 0.290325
#
# Coordination Sequence:
#
# PCOD9503205 Si02
#       7
#    16  16  16  16  16  16  16
#     4  11  22  39  61  94 128 165 205 250 313 373
#     4  11  22  39  63  96 125 159 207 256 308 368
#     4  10  23  43  65  89 122 165 209 257 312 369
#     4  11  25  43  64  92 127 167 210 257 313 375
#     4  10  21  38  62  89 117 155 203 253 308 366
#     4  11  24  41  63  90 122 162 209 257 310 371
#     4  10  20  36  59  87 123 162 202 250 303 367
#
# _framework density 20.541138
#
# number of rings (size 3 to 8) (size 9 to 14) (size 15 to 20)
#    0.000    1.429    2.857    3.429    0.000    7.429 
#    0.000    4.286    0.000    1.714    0.000    0.000 
#    0.000    0.000    0.000    0.000    0.000    0.000 
#
# Total GULP energy -312017.785391 kJ/mol
# GULP energy per Si atom -5571.746168 kJ/mol
# Density = 2.049439 g / cm^3
# Si number density = 20.541138 Si / 1000 Ang^3
#
#
#
# Elastic Constant Matrix: (Units=GPa)
#
#
# Indices 1 2 3 4 5 6 
#
# 1 120.6544 21.1263 29.7664 0.0000 0.0000 0.0000
# 2 21.1263 35.1808 31.3240 0.0000 0.0000 0.0000
# 3 29.7664 31.3240 114.2560 0.0000 0.0000 0.0000
# 4 0.0000 0.0000 0.0000 -78.5064 0.0000 0.0000
# 5 0.0000 0.0000 0.0000 0.0000 -37.9553 0.0000
# 6 0.0000 0.0000 0.0000 0.0000 0.0000 8.0205
#
#
#
# Elastic Compliance Matrix: (Units=1/GPa)
#
#
# Indices 1 2 3 4 5 6 
#
# 1 0.009383 -0.004575 -0.001190 0.000000 0.000000 0.000000
# 2 -0.004575 0.039834 -0.009729 0.000000 0.000000 0.000000
# 3 -0.001190 -0.009729 0.011730 0.000000 0.000000 0.000000
# 4 0.000000 0.000000 0.000000 -0.012738 0.000000 0.000000
# 5 0.000000 0.000000 0.000000 0.000000 -0.026347 0.000000
# 6 0.000000 0.000000 0.000000 0.000000 0.000000 0.124680
#
#
# Mechanical properties :
#
#
# Convention : Reuss Voigt Hill
#
# Bulk Modulus (GPa) = 33.37924 48.28053 40.82988
# Shear Modulus (GPa) = 26.66437 -9.16328 8.75055
#
# Velocity S-wave (km/s) = 3.60682 -2.11439 2.06622
# Velocity P-wave (km/s) = 5.79920 4.19458 5.06089
#
# Compressibility (1/GPa) = 0.02995874
#
# Stress axis : x y z
#
# Youngs Moduli (GPa) = 106.57798 25.10411 85.25416
#
# Poissons Ratio (x) = 0.11484 0.10148
# Poissons Ratio (y) = 0.48756 0.82944
# Poissons Ratio (z) = 0.12686 0.24424
#
# Static dielectric constant tensor:
#      x y z
#    x 1.780610 0.000000 0.000000 
#    y 0.000000 1.735720 0.000000 
#    z 0.000000 0.000000 1.756700 
# 
# From -- ./inp_files/42002.got.cif
#   From: 2010.05.17/outbox.cif.g08.bks.cpg/sg67_22_cif.got.tgz:42002.got - 2010.06.03 18:28:57.
