data_PCOD9503435
_publ_section_title
;
Structure prediction by ZEFSAII (Michael W. Deem and Ramdas Pophale) SiO2 
 PCOD9503435
Probable space group: C M M A
;
_chemical_formula_sum "Si O2"
_cell_formula_units_Z 68
_cell_length_a 18.797811
_cell_length_b 24.645174
_cell_length_c 7.272500
_cell_angle_alpha 90.000000
_cell_angle_beta 90.000000
_cell_angle_gamma 90.000000
_cell_volume 3369.169786
_symmetry_space_group_name_H-M "C M M A"
_symmetry_group_IT_number 67
_symmetry_cell_setting 'orthorhombic'
loop_
_space_group_symop_operation_xyz
x,y,z
-x,1/2-y,z
x,-y,-z
-x,1/2+y,-z
-x,-y,-z
x,1/2+y,-z
-x,y,z
x,1/2-y,z
1/2+x,1/2+y,z
1/2-x,-y,z
1/2+x,1/2-y,-z
1/2-x,y,-z
1/2-x,1/2-y,-z
1/2+x,y,-z
1/2-x,1/2+y,z
1/2+x,-y,z
loop_
_atom_site_type_symbol
_atom_site_label
_atom_site_fract_x
_atom_site_fract_y
_atom_site_fract_z
Si Si1 0.784295 0.690694 0.703828
Si Si2 0.179429 0.094968 0.741386
Si Si3 0.916822 0.370719 0.405285
Si Si4 0.421350 0.937347 0.056152
Si Si5 0.750000 0.000000 0.500000
O O1 0.775041 0.750000 0.790881
O O2 0.750000 0.694660 0.500000
O O3 0.741329 0.638720 0.774529
O O4 0.867166 0.675063 0.687035
O O5 0.120242 0.117448 0.599126
O O6 0.140869 0.085599 0.932598
O O7 0.208545 0.041145 0.637830
O O8 0.000000 0.357405 0.421963
O O9 0.910472 0.423095 0.270046
O O10 0.500000 0.914259 0.010273
O O11 0.423465 0.000000 0.000000
#
# Coordination Sequence:
#
# PCOD9503435 Si02
#       5
#    16  16  16  16   4
#     4   9  19  38  59  83 115 150 191 238 283 337
#     4  11  21  38  58  86 119 151 186 238 283 341
#     4  10  20  38  59  84 112 149 194 234 285 340
#     4  10  22  37  56  85 118 153 192 233 285 346
#     4  12  20  36  58  88 116 146 190 226 282 344
#
# _framework density 20.183014
#
# number of rings (size 3 to 8) (size 9 to 14) (size 15 to 20)
#    0.000    1.882    3.529    2.118    0.000    1.412 
#    0.000    7.059    0.000    3.529    0.000    0.000 
#    0.000    0.000    0.000    0.000    0.000    0.000 
#
# Total GULP energy -189565.098066 kJ/mol
# GULP energy per Si atom -5575.444061 kJ/mol
# Density = 2.013708 g / cm^3
# Si number density = 20.183014 Si / 1000 Ang^3
#
#
#
# Elastic Constant Matrix: (Units=GPa)
#
#
# Indices 1 2 3 4 5 6 
#
# 1 159.0360 58.6684 32.0080 0.0000 0.0000 0.0000
# 2 58.6684 96.9304 6.2278 0.0000 0.0000 0.0000
# 3 32.0080 6.2278 55.6082 0.0000 0.0000 0.0000
# 4 0.0000 0.0000 0.0000 2.6181 0.0000 0.0000
# 5 0.0000 0.0000 0.0000 0.0000 34.0849 0.0000
# 6 0.0000 0.0000 0.0000 0.0000 0.0000 3.2384
#
#
#
# Elastic Compliance Matrix: (Units=1/GPa)
#
#
# Indices 1 2 3 4 5 6 
#
# 1 0.009167 -0.005247 -0.004689 0.000000 0.000000 0.000000
# 2 -0.005247 0.013395 0.001520 0.000000 0.000000 0.000000
# 3 -0.004689 0.001520 0.020512 0.000000 0.000000 0.000000
# 4 0.000000 0.000000 0.000000 0.381950 0.000000 0.000000
# 5 0.000000 0.000000 0.000000 0.000000 0.029338 0.000000
# 6 0.000000 0.000000 0.000000 0.000000 0.000000 0.308795
#
#
# Mechanical properties :
#
#
# Convention : Reuss Voigt Hill
#
# Bulk Modulus (GPa) = 38.10728 56.15365 47.13047
# Shear Modulus (GPa) = 6.33925 22.29966 14.31945
#
# Velocity S-wave (km/s) = 1.77418 3.32757 2.66650
# Velocity P-wave (km/s) = 4.80820 6.53041 5.73433
#
# Compressibility (1/GPa) = 0.02624171
#
# Stress axis : x y z
#
# Youngs Moduli (GPa) = 109.08240 74.65438 48.75262
#
# Poissons Ratio (x) = 0.39174 0.22860
# Poissons Ratio (y) = 0.57240 -0.07411
# Poissons Ratio (z) = 0.51149 -0.11349
#
# Static dielectric constant tensor:
#      x y z
#    x 1.738440 0.000000 0.000000 
#    y 0.000000 1.769060 0.000000 
#    z 0.000000 0.000000 1.725720 
# 
# From -- ./inp_files/9722.got.cif
#   From: 2010.05.17/outbox.cif.g08.bks.cpg/sg67_5_cif.got.tgz:9722.got - 2010.06.03 18:28:57.
