data_PCOD9503887
_publ_section_title
;
Structure prediction by ZEFSAII (Michael W. Deem and Ramdas Pophale) SiO2 
 PCOD9503887
Probable space group: C M M A
;
_chemical_formula_sum "Si O2"
_cell_formula_units_Z 52
_cell_length_a 20.042703
_cell_length_b 13.732277
_cell_length_c 7.697008
_cell_angle_alpha 90.000000
_cell_angle_beta 90.000000
_cell_angle_gamma 90.000000
_cell_volume 2118.462517
_symmetry_space_group_name_H-M "C M M A"
_symmetry_group_IT_number 67
_symmetry_cell_setting 'orthorhombic'
loop_
_space_group_symop_operation_xyz
x,y,z
-x,1/2-y,z
x,-y,-z
-x,1/2+y,-z
-x,-y,-z
x,1/2+y,-z
-x,y,z
x,1/2-y,z
1/2+x,1/2+y,z
1/2-x,-y,z
1/2+x,1/2-y,-z
1/2-x,y,-z
1/2-x,1/2-y,-z
1/2+x,y,-z
1/2-x,1/2+y,z
1/2+x,-y,z
loop_
_atom_site_type_symbol
_atom_site_label
_atom_site_fract_x
_atom_site_fract_y
_atom_site_fract_z
Si Si1 0.250000 0.000000 0.500000
Si Si2 0.927082 0.131946 0.659184
Si Si3 0.323973 0.134640 0.058041
Si Si4 0.855306 0.364969 0.317751
O O1 0.206593 0.071637 0.381564
O O2 0.928021 0.250000 0.677731
O O3 0.912717 0.112606 0.456663
O O4 0.000000 0.095694 0.712045
O O5 0.865203 0.096238 0.776990
O O6 0.315745 0.250000 0.090967
O O7 0.368311 0.120572 0.885319
O O8 0.250000 0.101666 0.000000
O O9 0.838676 0.250000 0.337139
#
# Coordination Sequence:
#
# PCOD9503887 Si02
#       4
#     4  16  16  16
#     4  12  22  36  60  86 112 150 198 242 290 350
#     4   9  18  34  58  87 118 155 196 235 285 352
#     4   9  17  31  54  82 112 149 193 240 287 335
#     4  10  21  37  57  83 117 152 188 238 294 344
#
# _framework density 24.546104
#
# number of rings (size 3 to 8) (size 9 to 14) (size 15 to 20)
#    0.000    2.462    0.000    2.308    0.000    6.154 
#    0.000   13.846    0.000    1.846    0.000    0.000 
#    0.000    0.000    0.000    0.000    0.000    0.000 
#
# Total GULP energy -145376.579086 kJ/mol
# GULP energy per Si atom -5591.406888 kJ/mol
# Density = 2.449024 g / cm^3
# Si number density = 24.546104 Si / 1000 Ang^3
#
#
#
# Elastic Constant Matrix: (Units=GPa)
#
#
# Indices 1 2 3 4 5 6 
#
# 1 139.1444 -3.9288 66.0340 0.0000 0.0000 0.0000
# 2 -3.9288 93.4689 -10.1920 0.0000 0.0000 0.0000
# 3 66.0340 -10.1920 150.1419 0.0000 0.0000 0.0000
# 4 0.0000 0.0000 0.0000 7.7368 0.0000 0.0000
# 5 0.0000 0.0000 0.0000 0.0000 18.8982 0.0000
# 6 0.0000 0.0000 0.0000 0.0000 0.0000 17.4011
#
#
#
# Elastic Compliance Matrix: (Units=1/GPa)
#
#
# Indices 1 2 3 4 5 6 
#
# 1 0.009083 -0.000054 -0.003998 0.000000 0.000000 0.000000
# 2 -0.000054 0.010779 0.000756 0.000000 0.000000 0.000000
# 3 -0.003998 0.000756 0.008470 0.000000 0.000000 0.000000
# 4 0.000000 0.000000 0.000000 0.129253 0.000000 0.000000
# 5 0.000000 0.000000 0.000000 0.000000 0.052915 0.000000
# 6 0.000000 0.000000 0.000000 0.000000 0.000000 0.057467
#
#
# Mechanical properties :
#
#
# Convention : Reuss Voigt Hill
#
# Bulk Modulus (GPa) = 46.00301 54.06461 50.03381
# Shear Modulus (GPa) = 17.74263 30.86335 24.30299
#
# Velocity S-wave (km/s) = 2.69146 3.54978 3.14999
# Velocity P-wave (km/s) = 5.33299 6.23496 5.80153
#
# Compressibility (1/GPa) = 0.02173771
#
# Stress axis : x y z
#
# Youngs Moduli (GPa) = 110.09862 92.77423 118.06120
#
# Poissons Ratio (x) = 0.00503 0.47205
# Poissons Ratio (y) = 0.00597 -0.08920
# Poissons Ratio (z) = 0.44022 -0.07009
#
# Static dielectric constant tensor:
#      x y z
#    x 1.935950 0.000000 0.000000 
#    y 0.000000 1.974920 0.000000 
#    z 0.000000 0.000000 1.948320 
# 
# From -- ./inp_files/7570.got.cif
#   From: 2010.05.17/outbox.cif.g08.bks.cpg/sg67_4_cif.got.tgz:7570.got - 2010.06.03 18:28:57.
