data_PCOD9503450
_publ_section_title
;
Structure prediction by ZEFSAII (Michael W. Deem and Ramdas Pophale) SiO2 
 PCOD9503450
Probable space group: C M M A
;
_chemical_formula_sum "Si O2"
_cell_formula_units_Z 96
_cell_length_a 24.202507
_cell_length_b 8.680858
_cell_length_c 25.662321
_cell_angle_alpha 90.000000
_cell_angle_beta 90.000000
_cell_angle_gamma 90.000000
_cell_volume 5391.615829
_symmetry_space_group_name_H-M "C M M A"
_symmetry_group_IT_number 67
_symmetry_cell_setting 'orthorhombic'
loop_
_space_group_symop_operation_xyz
x,y,z
-x,1/2-y,z
x,-y,-z
-x,1/2+y,-z
-x,-y,-z
x,1/2+y,-z
-x,y,z
x,1/2-y,z
1/2+x,1/2+y,z
1/2-x,-y,z
1/2+x,1/2-y,-z
1/2-x,y,-z
1/2-x,1/2-y,-z
1/2+x,y,-z
1/2-x,1/2+y,z
1/2+x,-y,z
loop_
_atom_site_type_symbol
_atom_site_label
_atom_site_fract_x
_atom_site_fract_y
_atom_site_fract_z
Si Si1 0.500000 0.436025 0.308449
Si Si2 0.618532 0.434959 0.350870
Si Si3 0.500000 0.564471 0.191397
Si Si4 0.190138 0.065952 0.942270
Si Si5 0.188394 0.434556 0.753358
Si Si6 0.689968 0.433289 0.557286
Si Si7 0.380771 0.065056 0.850082
O O1 0.500000 0.250000 0.305501
O O2 0.555988 0.483325 0.337723
O O3 0.500000 0.497879 0.249642
O O4 0.619288 0.250000 0.358810
O O5 0.655637 0.468364 0.299977
O O6 0.645101 0.515189 0.400664
O O7 0.500000 0.750000 0.195450
O O8 0.556063 0.518839 0.161899
O O9 0.193101 0.250000 0.944195
O O10 0.250000 0.000000 0.925377
O O11 0.144470 0.010259 0.901626
O O12 0.179683 0.000000 0.000000
O O13 0.189751 0.250000 0.760372
O O14 0.250000 0.500000 0.750611
O O15 0.155855 0.509914 0.801287
O O16 0.677635 0.500000 0.500000
O O17 0.693798 0.250000 0.554346
O O18 0.750000 0.500000 0.573013
O O19 0.377978 0.250000 0.854450
#
# Coordination Sequence:
#
# PCOD9503450 Si02
#       7
#     8  16   8  16  16  16  16
#     4  10  20  38  61  84 115 154 193 237 285 341
#     4  10  21  37  58  85 116 150 192 236 286 341
#     4  10  22  38  59  84 115 154 195 239 285 339
#     4  11  22  39  62  88 117 152 191 236 289 345
#     4  11  22  35  54  82 116 150 187 234 288 343
#     4  11  22  38  61  86 116 151 191 237 289 346
#     4  11  22  38  58  84 116 151 193 238 285 339
#
# _framework density 17.805423000000001
#
# number of rings (size 3 to 8) (size 9 to 14) (size 15 to 20)
#    0.000    1.333    1.667    6.000    0.000    4.000 
#    0.000    0.833    0.000    0.000    0.000    0.000 
#    0.000    0.000    0.000    0.000    0.000    0.000 
#
# Total GULP energy -268346.899910 kJ/mol
# GULP energy per Si atom -5590.560415 kJ/mol
# Density = 1.776490 g / cm^3
# Si number density = 17.805423 Si / 1000 Ang^3
#
#
#
# Elastic Constant Matrix: (Units=GPa)
#
#
# Indices 1 2 3 4 5 6 
#
# 1 188.1429 67.8850 96.8879 0.0000 0.0000 0.0000
# 2 67.8850 96.8385 57.6748 0.0000 0.0000 0.0000
# 3 96.8879 57.6748 107.2715 0.0000 0.0000 0.0000
# 4 0.0000 0.0000 0.0000 31.4369 0.0000 0.0000
# 5 0.0000 0.0000 0.0000 0.0000 6.1034 0.0000
# 6 0.0000 0.0000 0.0000 0.0000 0.0000 6.6447
#
#
#
# Elastic Compliance Matrix: (Units=1/GPa)
#
#
# Indices 1 2 3 4 5 6 
#
# 1 0.010326 -0.002477 -0.007994 0.000000 0.000000 0.000000
# 2 -0.002477 0.015785 -0.006249 0.000000 0.000000 0.000000
# 3 -0.007994 -0.006249 0.019903 0.000000 0.000000 0.000000
# 4 0.000000 0.000000 0.000000 0.031810 0.000000 0.000000
# 5 0.000000 0.000000 0.000000 0.000000 0.163843 0.000000
# 6 0.000000 0.000000 0.000000 0.000000 0.000000 0.150496
#
#
# Mechanical properties :
#
#
# Convention : Reuss Voigt Hill
#
# Bulk Modulus (GPa) = 79.54532 93.01649 86.28090
# Shear Modulus (GPa) = 11.63345 20.15736 15.89540
#
# Velocity S-wave (km/s) = 2.55887 3.36831 2.99110
# Velocity P-wave (km/s) = 7.31452 8.21470 7.77764
#
# Compressibility (1/GPa) = 0.01257145
#
# Stress axis : x y z
#
# Youngs Moduli (GPa) = 96.84469 63.35103 50.24426
#
# Poissons Ratio (x) = 0.15693 0.40167
# Poissons Ratio (y) = 0.23991 0.31400
# Poissons Ratio (z) = 0.77422 0.39591
#
# Static dielectric constant tensor:
#      x y z
#    x 1.599520 0.000000 0.000000 
#    y 0.000000 1.596910 0.000000 
#    z 0.000000 0.000000 1.574830 
# 
# From -- ./inp_files/42587.got.cif
#   From: 2010.05.17/outbox.cif.g08.bks.cpg/sg67_22_cif.got.tgz:42587.got - 2010.06.03 18:28:57.
