data_PCOD9503760
_publ_section_title
;
Structure prediction by ZEFSAII (Michael W. Deem and Ramdas Pophale) SiO2 
 PCOD9503760
Probable space group: C M M A
;
_chemical_formula_sum "Si O2"
_cell_formula_units_Z 116
_cell_length_a 24.064581
_cell_length_b 26.073209
_cell_length_c 10.014352
_cell_angle_alpha 90.000000
_cell_angle_beta 90.000000
_cell_angle_gamma 90.000000
_cell_volume 6283.413530
_symmetry_space_group_name_H-M "C M M A"
_symmetry_group_IT_number 67
_symmetry_cell_setting 'orthorhombic'
loop_
_space_group_symop_operation_xyz
x,y,z
-x,1/2-y,z
x,-y,-z
-x,1/2+y,-z
-x,-y,-z
x,1/2+y,-z
-x,y,z
x,1/2-y,z
1/2+x,1/2+y,z
1/2-x,-y,z
1/2+x,1/2-y,-z
1/2-x,y,-z
1/2-x,1/2-y,-z
1/2+x,y,-z
1/2-x,1/2+y,z
1/2+x,-y,z
loop_
_atom_site_type_symbol
_atom_site_label
_atom_site_fract_x
_atom_site_fract_y
_atom_site_fract_z
Si Si1 0.342370 0.310958 0.696884
Si Si2 0.916878 0.344403 0.514084
Si Si3 0.434841 0.957583 0.401363
Si Si4 0.608330 0.190208 0.204928
Si Si5 0.066755 0.957906 0.897780
Si Si6 0.500000 0.750000 0.455772
Si Si7 0.234463 0.687542 0.149455
Si Si8 0.435069 0.838908 0.080176
O O1 0.338509 0.250000 0.685065
O O2 0.357370 0.334307 0.554001
O O3 0.283861 0.330019 0.754686
O O4 0.391850 0.322285 0.804656
O O5 0.933362 0.400109 0.459557
O O6 0.918432 0.341329 0.674121
O O7 0.952725 0.296115 0.462443
O O8 0.500000 0.970260 0.386390
O O9 0.410458 0.960687 0.252683
O O10 0.410063 0.000000 0.500000
O O11 0.607305 0.250000 0.247007
O O12 0.671950 0.172897 0.186057
O O13 0.578431 0.186773 0.061761
O O14 0.000000 0.965865 0.890947
O O15 0.073378 0.899407 0.943041
O O16 0.089393 0.000000 0.000000
O O17 0.234571 0.750000 0.149271
O O18 0.250000 0.671158 0.000000
O O19 0.500000 0.829532 0.118914
#
# Coordination Sequence:
#
# PCOD9503760 Si02
#       8
#    16  16  16  16  16   4  16  16
#     4  11  21  36  57  83 111 155 194 237 287 344
#     4  12  24  37  56  85 121 162 191 235 298 347
#     4  10  21  36  56  79 111 157 203 234 277 349
#     4  11  23  38  54  83 117 157 197 238 289 349
#     4   9  19  36  53  77 110 143 191 246 283 322
#     4  12  24  40  54  80 142 166 176 232 294 380
#     4   9  18  36  57  77 109 148 198 249 284 327
#     4  11  23  33  54  84 118 151 189 234 284 359
#
# _framework density 18.461302
#
# number of rings (size 3 to 8) (size 9 to 14) (size 15 to 20)
#    0.000    1.517    4.828    0.414    3.862    1.655 
#    0.000    2.069    0.000    0.000    0.000    5.793 
#    0.000    0.000    0.000    0.000    0.000    0.000 
#
# Total GULP energy -322880.014159 kJ/mol
# GULP energy per Si atom -5566.896796 kJ/mol
# Density = 1.841928 g / cm^3
# Si number density = 18.461302 Si / 1000 Ang^3
#
#
#
# Elastic Constant Matrix: (Units=GPa)
#
#
# Indices 1 2 3 4 5 6 
#
# 1 37.9441 -2.0224 -9.6740 0.0000 0.0000 0.0000
# 2 -2.0224 71.6263 27.7898 0.0000 0.0000 0.0000
# 3 -9.6740 27.7898 74.8130 0.0000 0.0000 0.0000
# 4 0.0000 0.0000 0.0000 31.4876 0.0000 0.0000
# 5 0.0000 0.0000 0.0000 0.0000 4.2507 0.0000
# 6 0.0000 0.0000 0.0000 0.0000 0.0000 8.4728
#
#
#
# Elastic Compliance Matrix: (Units=1/GPa)
#
#
# Indices 1 2 3 4 5 6 
#
# 1 0.027283 -0.000699 0.003788 0.000000 0.000000 0.000000
# 2 -0.000699 0.016330 -0.006156 0.000000 0.000000 0.000000
# 3 0.003788 -0.006156 0.016143 0.000000 0.000000 0.000000
# 4 0.000000 0.000000 0.000000 0.031759 0.000000 0.000000
# 5 0.000000 0.000000 0.000000 0.000000 0.235253 0.000000
# 6 0.000000 0.000000 0.000000 0.000000 0.000000 0.118024
#
#
# Mechanical properties :
#
#
# Convention : Reuss Voigt Hill
#
# Bulk Modulus (GPa) = 18.64955 24.06336 21.35646
# Shear Modulus (GPa) = 10.66550 20.06158 15.36354
#
# Velocity S-wave (km/s) = 2.40619 3.30006 2.88792
# Velocity P-wave (km/s) = 4.22417 5.25198 4.76586
#
# Compressibility (1/GPa) = 0.05362059
#
# Stress axis : x y z
#
# Youngs Moduli (GPa) = 36.65289 61.23635 61.94535
#
# Poissons Ratio (x) = 0.04282 -0.23463
# Poissons Ratio (y) = 0.02563 0.38136
# Poissons Ratio (z) = -0.13883 0.37699
#
# Static dielectric constant tensor:
#      x y z
#    x 1.671150 0.000000 0.000000 
#    y 0.000000 1.632070 0.000000 
#    z 0.000000 0.000000 1.684870 
# 
# From -- ./inp_files/14106.got.cif
#   From: 2010.05.17/outbox.cif.g08.bks.cpg/sg67_8_cif.got.tgz:14106.got - 2010.06.03 18:28:57.
