data_PCOD9503583
_publ_section_title
;
Structure prediction by ZEFSAII (Michael W. Deem and Ramdas Pophale) SiO2 
 PCOD9503583
Probable space group: C M M A
;
_chemical_formula_sum "Si O2"
_cell_formula_units_Z 80
_cell_length_a 21.930319
_cell_length_b 20.767937
_cell_length_c 8.540448
_cell_angle_alpha 90.000000
_cell_angle_beta 90.000000
_cell_angle_gamma 90.000000
_cell_volume 3889.725549
_symmetry_space_group_name_H-M "C M M A"
_symmetry_group_IT_number 67
_symmetry_cell_setting 'orthorhombic'
loop_
_space_group_symop_operation_xyz
x,y,z
-x,1/2-y,z
x,-y,-z
-x,1/2+y,-z
-x,-y,-z
x,1/2+y,-z
-x,y,z
x,1/2-y,z
1/2+x,1/2+y,z
1/2-x,-y,z
1/2+x,1/2-y,-z
1/2-x,y,-z
1/2-x,1/2-y,-z
1/2+x,y,-z
1/2-x,1/2+y,z
1/2+x,-y,z
loop_
_atom_site_type_symbol
_atom_site_label
_atom_site_fract_x
_atom_site_fract_y
_atom_site_fract_z
Si Si1 0.197015 0.750000 0.871728
Si Si2 0.604181 0.481154 0.829249
Si Si3 0.433978 0.374094 0.604414
Si Si4 0.933539 0.750000 0.827563
Si Si5 0.166154 0.065749 0.601339
Si Si6 0.775821 0.391776 0.177488
O O1 0.127157 0.750000 0.932569
O O2 0.205384 0.818198 0.785938
O O3 0.250000 0.750000 0.000000
O O4 0.564717 0.435600 0.719680
O O5 0.620054 0.545972 0.738901
O O6 0.667863 0.440900 0.835621
O O7 0.581699 0.500000 0.000000
O O8 0.500000 0.371645 0.519536
O O9 0.430426 0.311706 0.714159
O O10 0.372865 0.384246 0.502099
O O11 0.000000 0.750000 0.906957
O O12 0.227604 0.087200 0.689348
O O13 0.175198 0.000000 0.500000
O O14 0.750000 0.392222 0.000000
#
# Coordination Sequence:
#
# PCOD9503583 Si02
#       6
#     8  16  16   8  16  16
#     4  10  22  39  65  95 125 158 203 274 315 356
#     4  11  21  36  62  90 125 163 203 245 317 369
#     4  10  23  42  63  87 122 163 217 259 300 369
#     4  10  20  43  67  87 122 172 211 254 314 376
#     4  10  23  37  59  91 126 166 203 248 315 371
#     4  11  21  38  61  90 131 158 202 253 317 374
#
# _framework density 20.567004000000001
#
# number of rings (size 3 to 8) (size 9 to 14) (size 15 to 20)
#    0.000    1.600    4.000    0.600    0.000   10.400 
#    0.000    1.000    0.000    4.800    0.000    4.200 
#    0.000    0.000    0.000    0.000    0.000    0.000 
#
# Total GULP energy -223021.873604 kJ/mol
# GULP energy per Si atom -5575.546840 kJ/mol
# Density = 2.052019 g / cm^3
# Si number density = 20.567004 Si / 1000 Ang^3
#
#
#
# Elastic Constant Matrix: (Units=GPa)
#
#
# Indices 1 2 3 4 5 6 
#
# 1 147.5051 16.2552 22.0057 0.0000 0.0000 0.0000
# 2 16.2552 45.7177 -5.0941 0.0000 0.0000 0.0000
# 3 22.0057 -5.0941 63.4036 0.0000 0.0000 0.0000
# 4 0.0000 0.0000 0.0000 12.4898 0.0000 0.0000
# 5 0.0000 0.0000 0.0000 0.0000 16.2310 0.0000
# 6 0.0000 0.0000 0.0000 0.0000 0.0000 25.9641
#
#
#
# Elastic Compliance Matrix: (Units=1/GPa)
#
#
# Indices 1 2 3 4 5 6 
#
# 1 0.007536 -0.002998 -0.002856 0.000000 0.000000 0.000000
# 2 -0.002998 0.023263 0.002910 0.000000 0.000000 0.000000
# 3 -0.002856 0.002910 0.016997 0.000000 0.000000 0.000000
# 4 0.000000 0.000000 0.000000 0.080065 0.000000 0.000000
# 5 0.000000 0.000000 0.000000 0.000000 0.061610 0.000000
# 6 0.000000 0.000000 0.000000 0.000000 0.000000 0.038515
#
#
# Mechanical properties :
#
#
# Convention : Reuss Voigt Hill
#
# Bulk Modulus (GPa) = 23.86218 35.88443 29.87330
# Shear Modulus (GPa) = 20.17389 25.83428 23.00409
#
# Velocity S-wave (km/s) = 3.13531 3.54800 3.34802
# Velocity P-wave (km/s) = 4.97335 5.85405 5.43158
#
# Compressibility (1/GPa) = 0.04190733
#
# Stress axis : x y z
#
# Youngs Moduli (GPa) = 132.69800 42.98590 58.83352
#
# Poissons Ratio (x) = 0.12886 0.16805
# Poissons Ratio (y) = 0.39779 -0.17118
# Poissons Ratio (z) = 0.37903 -0.12507
#
# Static dielectric constant tensor:
#      x y z
#    x 1.811640 0.000000 0.000000 
#    y 0.000000 1.733090 0.000000 
#    z 0.000000 0.000000 1.765320 
# 
# From -- ./inp_files/12363.got.cif
#   From: 2010.05.17/outbox.cif.g08.bks.cpg/sg67_7_cif.got.tgz:12363.got - 2010.06.03 18:28:57.
