data_PCOD9503095
_publ_section_title
;
Structure prediction by ZEFSAII (Michael W. Deem and Ramdas Pophale) SiO2 
 PCOD9503095
Probable space group: C M M A
;
_chemical_formula_sum "Si O2"
_cell_formula_units_Z 68
_cell_length_a 30.571858
_cell_length_b 14.369739
_cell_length_c 6.856675
_cell_angle_alpha 90.000000
_cell_angle_beta 90.000000
_cell_angle_gamma 90.000000
_cell_volume 3012.203290
_symmetry_space_group_name_H-M "C M M A"
_symmetry_group_IT_number 67
_symmetry_cell_setting 'orthorhombic'
loop_
_space_group_symop_operation_xyz
x,y,z
-x,1/2-y,z
x,-y,-z
-x,1/2+y,-z
-x,-y,-z
x,1/2+y,-z
-x,y,z
x,1/2-y,z
1/2+x,1/2+y,z
1/2-x,-y,z
1/2+x,1/2-y,-z
1/2-x,y,-z
1/2-x,1/2-y,-z
1/2+x,y,-z
1/2-x,1/2+y,z
1/2+x,-y,z
loop_
_atom_site_type_symbol
_atom_site_label
_atom_site_fract_x
_atom_site_fract_y
_atom_site_fract_z
Si Si1 0.170022 0.250000 0.250814
Si Si2 0.678156 0.407479 0.424909
Si Si3 0.413659 0.750000 0.972114
Si Si4 0.500000 0.250000 0.769394
Si Si5 0.266009 0.250000 0.271197
Si Si6 0.500000 0.966746 0.233587
Si Si7 0.590491 0.552147 0.795467
O O1 0.166856 0.160495 0.393499
O O2 0.219365 0.250000 0.162056
O O3 0.131636 0.250000 0.092941
O O4 0.702079 0.500000 0.500000
O O5 0.704751 0.343184 0.270954
O O6 0.634304 0.445988 0.327745
O O7 0.454580 0.750000 0.114919
O O8 0.417927 0.840728 0.842841
O O9 0.500000 0.141594 0.698693
O O10 0.250000 0.250000 0.500000
O O11 0.453327 0.008464 0.292883
O O12 0.500000 0.000000 0.000000
O O13 0.599003 0.500000 0.000000
#
# Coordination Sequence:
#
# PCOD9503095 Si02
#       7
#     8  16   8   4   8   8  16
#     4  10  23  39  60  86 114 156 196 239 287 344
#     4  10  20  37  60  85 115 151 195 240 289 340
#     4  12  20  36  62  86 119 154 192 240 288 333
#     4  12  20  36  62  84 118 160 192 226 274 366
#     4   8  19  39  59  81 111 157 203 226 279 364
#     4  10  20  36  56  86 115 156 199 221 282 355
#     4  11  21  36  58  89 116 151 195 240 286 342
#
# _framework density 22.574838
#
# number of rings (size 3 to 8) (size 9 to 14) (size 15 to 20)
#    0.000    1.882    4.706    2.824    0.000    4.235 
#    0.000    4.118    0.000    1.412    0.000    0.000 
#    0.000    0.000    0.000    0.000    0.000    0.000 
#
# Total GULP energy -189725.540444 kJ/mol
# GULP energy per Si atom -5580.162954 kJ/mol
# Density = 2.252346 g / cm^3
# Si number density = 22.574838 Si / 1000 Ang^3
#
#
#
# Elastic Constant Matrix: (Units=GPa)
#
#
# Indices 1 2 3 4 5 6 
#
# 1 226.2471 60.1268 45.4757 0.0000 0.0000 0.0000
# 2 60.1268 207.0765 38.5620 0.0000 0.0000 0.0000
# 3 45.4757 38.5620 53.0526 0.0000 0.0000 0.0000
# 4 0.0000 0.0000 0.000017588.7692 0.0000 0.0000
# 5 0.0000 0.0000 0.0000 0.0000 -1.5754 0.0000
# 6 0.0000 0.0000 0.0000 0.0000 0.0000 18.5689
#
#
#
# Elastic Compliance Matrix: (Units=1/GPa)
#
#
# Indices 1 2 3 4 5 6 
#
# 1 0.005459 -0.000825 -0.004080 0.000000 0.000000 0.000000
# 2 -0.000825 0.005710 -0.003443 0.000000 0.000000 0.000000
# 3 -0.004080 -0.003443 0.024849 0.000000 0.000000 0.000000
# 4 0.000000 0.000000 0.000000 0.000057 0.000000 0.000000
# 5 0.000000 0.000000 0.000000 0.000000 -0.634770 0.000000
# 6 0.000000 0.000000 0.000000 0.000000 0.000000 0.053853
#
#
# Mechanical properties :
#
#
# Convention : Reuss Voigt Hill
#
# Bulk Modulus (GPa) = 51.75405 86.07834 68.91619
# Shear Modulus (GPa) = -9.58396 3543.96667 1767.19136
#
# Velocity S-wave (km/s) = -2.06268 39.66463 28.00918
# Velocity P-wave (km/s) = 4.15962 46.21605 32.81178
#
# Compressibility (1/GPa) = 0.01932216
#
# Stress axis : x y z
#
# Youngs Moduli (GPa) = 183.17290 175.13347 40.24365
#
# Poissons Ratio (x) = 0.14456 0.16418
# Poissons Ratio (y) = 0.15120 0.13855
# Poissons Ratio (z) = 0.74728 0.60295
#
# Static dielectric constant tensor:
#      x y z
#    x 1.759490 0.000000 0.000000 
#    y 0.000000 2.276200 0.000000 
#    z 0.000000 0.000000 2.032510 
# 
# From -- ./inp_files/8251.got.cif
#   From: 2010.05.17/outbox.cif.g08.bks.cpg/sg67_5_cif.got.tgz:8251.got - 2010.06.03 18:28:57.
