data_PCOD9503776
_publ_section_title
;
Structure prediction by ZEFSAII (Michael W. Deem and Ramdas Pophale) SiO2 
 PCOD9503776
Probable space group: C M M A
;
_chemical_formula_sum "Si O2"
_cell_formula_units_Z 64
_cell_length_a 14.449360
_cell_length_b 21.330441
_cell_length_c 10.063844
_cell_angle_alpha 90.000000
_cell_angle_beta 90.000000
_cell_angle_gamma 90.000000
_cell_volume 3101.789647
_symmetry_space_group_name_H-M "C M M A"
_symmetry_group_IT_number 67
_symmetry_cell_setting 'orthorhombic'
loop_
_space_group_symop_operation_xyz
x,y,z
-x,1/2-y,z
x,-y,-z
-x,1/2+y,-z
-x,-y,-z
x,1/2+y,-z
-x,y,z
x,1/2-y,z
1/2+x,1/2+y,z
1/2-x,-y,z
1/2+x,1/2-y,-z
1/2-x,y,-z
1/2-x,1/2-y,-z
1/2+x,y,-z
1/2-x,1/2+y,z
1/2+x,-y,z
loop_
_atom_site_type_symbol
_atom_site_label
_atom_site_fract_x
_atom_site_fract_y
_atom_site_fract_z
Si Si1 0.606874 0.429489 0.996714
Si Si2 0.108612 0.822395 0.457592
Si Si3 0.395033 0.852022 0.252772
Si Si4 0.302961 0.320591 0.175228
O O1 0.500000 0.428778 0.045943
O O2 0.603538 0.412082 0.841235
O O3 0.643316 0.500000 0.000000
O O4 0.661189 0.375864 0.079136
O O5 0.130602 0.750000 0.494827
O O6 0.124835 0.861255 0.591405
O O7 0.162057 0.836781 0.323491
O O8 0.000000 0.825698 0.426332
O O9 0.500000 0.824448 0.245198
O O10 0.307820 0.816639 0.189664
O O11 0.337459 0.250000 0.139914
#
# Coordination Sequence:
#
# PCOD9503776 Si02
#       4
#    16  16  16  16
#     4  10  23  43  63  84 115 155 197 244 297 351
#     4   9  18  34  56  84 119 154 189 237 296 352
#     4  10  21  36  56  84 119 158 196 236 288 348
#     4  11  22  36  59  90 120 153 195 243 294 349
#
# _framework density 20.633248999999999
#
# number of rings (size 3 to 8) (size 9 to 14) (size 15 to 20)
#    0.000    2.000    0.000    3.000    0.000   10.000 
#    0.000    6.250    0.000    9.000    0.000    0.000 
#    0.000    0.000    0.000    0.000    0.000    0.000 
#
# Total GULP energy -178310.456873 kJ/mol
# GULP energy per Si atom -5572.201777 kJ/mol
# Density = 2.058629 g / cm^3
# Si number density = 20.633249 Si / 1000 Ang^3
#
#
#
# Elastic Constant Matrix: (Units=GPa)
#
#
# Indices 1 2 3 4 5 6 
#
# 1 115.6515 47.0036 51.3389 0.0000 0.0000 0.0000
# 2 47.0036 127.9967 82.5638 0.0000 0.0000 0.0000
# 3 51.3389 82.5638 156.4903 0.0000 0.0000 0.0000
# 4 0.0000 0.0000 0.0000 200.8692 0.0000 0.0000
# 5 0.0000 0.0000 0.0000 0.0000 37.8111 0.0000
# 6 0.0000 0.0000 0.0000 0.0000 0.0000 2.8879
#
#
#
# Elastic Compliance Matrix: (Units=1/GPa)
#
#
# Indices 1 2 3 4 5 6 
#
# 1 0.010626 -0.002506 -0.002164 0.000000 0.000000 0.000000
# 2 -0.002506 0.012434 -0.005738 0.000000 0.000000 0.000000
# 3 -0.002164 -0.005738 0.010127 0.000000 0.000000 0.000000
# 4 0.000000 0.000000 0.000000 0.004978 0.000000 0.000000
# 5 0.000000 0.000000 0.000000 0.000000 0.026447 0.000000
# 6 0.000000 0.000000 0.000000 0.000000 0.000000 0.346273
#
#
# Mechanical properties :
#
#
# Convention : Reuss Voigt Hill
#
# Bulk Modulus (GPa) = 80.83169 84.66125 82.74647
# Shear Modulus (GPa) = 11.47246 62.92911 37.20078
#
# Velocity S-wave (km/s) = 2.36056 5.52857 4.25073
# Velocity P-wave (km/s) = 6.83302 9.04843 8.01761
#
# Compressibility (1/GPa) = 0.01237139
#
# Stress axis : x y z
#
# Youngs Moduli (GPa) = 94.11078 80.42147 98.74241
#
# Poissons Ratio (x) = 0.20157 0.21363
# Poissons Ratio (y) = 0.23589 0.56660
# Poissons Ratio (z) = 0.20361 0.46147
#
# Static dielectric constant tensor:
#      x y z
#    x 1.816990 0.000000 0.000000 
#    y 0.000000 1.730080 0.000000 
#    z 0.000000 0.000000 1.734740 
# 
# From -- ./inp_files/17499.got.cif
#   From: 2010.05.17/outbox.cif.g08.bks.cpg/sg67_9_cif.got.tgz:17499.got - 2010.06.03 18:28:57.
