data_PCOD9503597
_publ_section_title
;
Structure prediction by ZEFSAII (Michael W. Deem and Ramdas Pophale) SiO2 
 PCOD9503597
Probable space group: C M M A
;
_chemical_formula_sum "Si O2"
_cell_formula_units_Z 72
_cell_length_a 21.192265
_cell_length_b 30.885504
_cell_length_c 5.502094
_cell_angle_alpha 90.000000
_cell_angle_beta 90.000000
_cell_angle_gamma 90.000000
_cell_volume 3601.306414
_symmetry_space_group_name_H-M "C M M A"
_symmetry_group_IT_number 67
_symmetry_cell_setting 'orthorhombic'
loop_
_space_group_symop_operation_xyz
x,y,z
-x,1/2-y,z
x,-y,-z
-x,1/2+y,-z
-x,-y,-z
x,1/2+y,-z
-x,y,z
x,1/2-y,z
1/2+x,1/2+y,z
1/2-x,-y,z
1/2+x,1/2-y,-z
1/2-x,y,-z
1/2-x,1/2-y,-z
1/2+x,y,-z
1/2-x,1/2+y,z
1/2+x,-y,z
loop_
_atom_site_type_symbol
_atom_site_label
_atom_site_fract_x
_atom_site_fract_y
_atom_site_fract_z
Si Si1 0.574967 0.842401 0.544420
Si Si2 0.571102 0.929879 0.810858
Si Si3 0.870753 0.500000 0.500000
Si Si4 0.923307 0.300731 0.046661
Si Si5 0.314324 0.549069 0.108937
O O1 0.500000 0.832557 0.534980
O O2 0.579988 0.892967 0.608062
O O3 0.600166 0.826641 0.284560
O O4 0.600018 0.818094 0.785774
O O5 0.500000 0.925891 0.907241
O O6 0.583833 0.976436 0.690714
O O7 0.624868 0.925756 0.012581
O O8 0.825692 0.537299 0.610618
O O9 0.909606 0.250000 0.075032
O O10 0.000000 0.305511 0.039569
O O11 0.315592 0.500000 0.000000
O O12 0.250000 0.568144 0.000000
#
# Coordination Sequence:
#
# PCOD9503597 Si02
#       5
#    16  16   8  16  16
#     4   9  18  29  45  70 103 138 174 218 267 320
#     4  10  21  33  49  76 110 144 180 222 271 323
#     4  10  21  35  54  72 101 145 184 226 265 327
#     4   9  16  28  46  68  98 137 176 213 264 328
#     4   9  20  36  53  73  98 135 182 229 271 312
#
# _framework density 19.992746
#
# number of rings (size 3 to 8) (size 9 to 14) (size 15 to 20)
#    0.000    2.667    0.000    1.000    3.111   14.667 
#    0.000    0.000    0.000    0.000    0.000    0.000 
#    0.000    5.333    0.000    0.000    0.000    0.000 
#
# Total GULP energy -200484.520840 kJ/mol
# GULP energy per Si atom -5569.014468 kJ/mol
# Density = 1.994724 g / cm^3
# Si number density = 19.992746 Si / 1000 Ang^3
#
#
#
# Elastic Constant Matrix: (Units=GPa)
#
#
# Indices 1 2 3 4 5 6 
#
# 1 94.1524 20.5411 24.6205 0.0000 0.0000 0.0000
# 2 20.5411 40.1275 24.2789 0.0000 0.0000 0.0000
# 3 24.6205 24.2789 81.7736 0.0000 0.0000 0.0000
# 4 0.0000 0.0000 0.0000 32.0352 0.0000 0.0000
# 5 0.0000 0.0000 0.0000 0.0000 8.3316 0.0000
# 6 0.0000 0.0000 0.0000 0.0000 0.0000 -0.5530
#
#
#
# Elastic Compliance Matrix: (Units=1/GPa)
#
#
# Indices 1 2 3 4 5 6 
#
# 1 0.012282 -0.004936 -0.002232 0.000000 0.000000 0.000000
# 2 -0.004936 0.032362 -0.008122 0.000000 0.000000 0.000000
# 3 -0.002232 -0.008122 0.015312 0.000000 0.000000 0.000000
# 4 0.000000 0.000000 0.000000 0.031216 0.000000 0.000000
# 5 0.000000 0.000000 0.000000 0.000000 0.120025 0.000000
# 6 0.000000 0.000000 0.000000 0.000000 0.000000 -1.808408
#
#
# Mechanical properties :
#
#
# Convention : Reuss Voigt Hill
#
# Bulk Modulus (GPa) = 34.04301 39.43717 36.74009
# Shear Modulus (GPa) = -3.21164 17.73695 7.26265
#
# Velocity S-wave (km/s) = -1.26881 2.98177 1.90802
# Velocity P-wave (km/s) = 3.86240 5.62345 4.82397
#
# Compressibility (1/GPa) = 0.02937461
#
# Stress axis : x y z
#
# Youngs Moduli (GPa) = 81.42156 30.90068 65.30647
#
# Poissons Ratio (x) = 0.15254 0.14577
# Poissons Ratio (y) = 0.40193 0.53042
# Poissons Ratio (z) = 0.18175 0.25098
#
# Static dielectric constant tensor:
#      x y z
#    x 1.700910 0.000000 0.000000 
#    y 0.000000 1.722430 0.000000 
#    z 0.000000 0.000000 1.854830 
# 
# From -- ./inp_files/3463.got.cif
#   From: 2010.05.17/outbox.cif.g08.bks.cpg/sg67_2_cif.got.tgz:3463.got - 2010.06.03 18:28:57.
