data_PCOD9503611
_publ_section_title
;
Structure prediction by ZEFSAII (Michael W. Deem and Ramdas Pophale) SiO2 
 PCOD9503611
Probable space group: C M M A
;
_chemical_formula_sum "Si O2"
_cell_formula_units_Z 96
_cell_length_a 14.758202
_cell_length_b 14.415112
_cell_length_c 24.791031
_cell_angle_alpha 90.000000
_cell_angle_beta 90.000000
_cell_angle_gamma 90.000000
_cell_volume 5274.072067
_symmetry_space_group_name_H-M "C M M A"
_symmetry_group_IT_number 67
_symmetry_cell_setting 'orthorhombic'
loop_
_space_group_symop_operation_xyz
x,y,z
-x,1/2-y,z
x,-y,-z
-x,1/2+y,-z
-x,-y,-z
x,1/2+y,-z
-x,y,z
x,1/2-y,z
1/2+x,1/2+y,z
1/2-x,-y,z
1/2+x,1/2-y,-z
1/2-x,y,-z
1/2-x,1/2-y,-z
1/2+x,y,-z
1/2-x,1/2+y,z
1/2+x,-y,z
loop_
_atom_site_type_symbol
_atom_site_label
_atom_site_fract_x
_atom_site_fract_y
_atom_site_fract_z
Si Si1 0.356194 0.648031 0.495487
Si Si2 0.742915 0.858254 0.238324
Si Si3 0.889193 0.510027 0.286835
Si Si4 0.395427 0.991534 0.590070
Si Si5 0.752556 0.141995 0.108835
Si Si6 0.394420 0.000294 0.064850
O O1 0.397269 0.750000 0.489249
O O2 0.250000 0.658181 0.500000
O O3 0.367251 0.580201 0.444830
O O4 0.385237 0.595580 0.549995
O O5 0.737326 0.750000 0.253671
O O6 0.659228 0.918227 0.262368
O O7 0.742112 0.865326 0.173557
O O8 0.836871 0.905090 0.258063
O O9 0.858957 0.517055 0.349790
O O10 0.000000 0.511017 0.281199
O O11 0.500000 0.005208 0.599449
O O12 0.748890 0.250000 0.093752
O O13 0.664819 0.086004 0.087548
O O14 0.840769 0.090336 0.085321
O O15 0.500000 0.003060 0.081437
O O16 0.390709 0.000000 0.000000
#
# Coordination Sequence:
#
# PCOD9503611 Si02
#       6
#    16  16  16  16  16  16
#     4  10  21  34  53  79 104 136 173 211 262 325
#     4  10  23  39  59  85 113 148 192 237 282 333
#     4  10  22  39  60  84 112 147 186 234 287 336
#     4  10  21  36  54  76 104 137 173 216 267 326
#     4  10  21  38  58  83 114 153 194 234 281 332
#     4  10  21  36  57  87 119 152 191 233 279 332
#
# _framework density 18.202252999999999
#
# number of rings (size 3 to 8) (size 9 to 14) (size 15 to 20)
#    0.000    2.000    0.000    5.000    4.667    8.000 
#    0.000    8.333    0.000    0.000    0.000    0.000 
#    0.000    0.000    0.000    0.000    0.000    0.000 
#
# Total GULP energy -267527.899542 kJ/mol
# GULP energy per Si atom -5573.497907 kJ/mol
# Density = 1.816082 g / cm^3
# Si number density = 18.202253 Si / 1000 Ang^3
#
#
#
# Elastic Constant Matrix: (Units=GPa)
#
#
# Indices 1 2 3 4 5 6 
#
# 1 118.6968 22.1976 22.6057 0.0000 0.0000 0.0000
# 2 22.1976 116.8606 31.0089 0.0000 0.0000 0.0000
# 3 22.6057 31.0089 80.7092 0.0000 0.0000 0.0000
# 4 0.0000 0.0000 0.0000 104.9558 0.0000 0.0000
# 5 0.0000 0.0000 0.0000 0.0000 11.7547 0.0000
# 6 0.0000 0.0000 0.0000 0.0000 0.0000 17.3118
#
#
#
# Elastic Compliance Matrix: (Units=1/GPa)
#
#
# Indices 1 2 3 4 5 6 
#
# 1 0.009040 -0.001164 -0.002085 0.000000 0.000000 0.000000
# 2 -0.001164 0.009678 -0.003393 0.000000 0.000000 0.000000
# 3 -0.002085 -0.003393 0.014278 0.000000 0.000000 0.000000
# 4 0.000000 0.000000 0.000000 0.009528 0.000000 0.000000
# 5 0.000000 0.000000 0.000000 0.000000 0.085072 0.000000
# 6 0.000000 0.000000 0.000000 0.000000 0.000000 0.057764
#
#
# Mechanical properties :
#
#
# Convention : Reuss Voigt Hill
#
# Bulk Modulus (GPa) = 50.72724 51.98789 51.35757
# Shear Modulus (GPa) = 24.36490 42.83475 33.59983
#
# Velocity S-wave (km/s) = 3.66261 4.85631 4.30107
# Velocity P-wave (km/s) = 6.76871 7.75037 7.27611
#
# Compressibility (1/GPa) = 0.01971327
#
# Stress axis : x y z
#
# Youngs Moduli (GPa) = 110.62546 103.32188 70.04026
#
# Poissons Ratio (x) = 0.12025 0.14601
# Poissons Ratio (y) = 0.12875 0.23761
# Poissons Ratio (z) = 0.23062 0.35052
#
# Static dielectric constant tensor:
#      x y z
#    x 1.600010 0.000000 0.000000 
#    y 0.000000 1.400650 0.000000 
#    z 0.000000 0.000000 1.864800 
# 
# From -- ./inp_files/38372.got.cif
#   From: 2010.05.17/outbox.cif.g08.bks.cpg/sg67_20_cif.got.tgz:38372.got - 2010.06.03 18:28:57.
