data_PCOD9503672
_publ_section_title
;
Structure prediction by ZEFSAII (Michael W. Deem and Ramdas Pophale) SiO2 
 PCOD9503672
Probable space group: C M M A
;
_chemical_formula_sum "Si O2"
_cell_formula_units_Z 116
_cell_length_a 8.364756
_cell_length_b 31.500095
_cell_length_c 22.345270
_cell_angle_alpha 90.000000
_cell_angle_beta 90.000000
_cell_angle_gamma 90.000000
_cell_volume 5887.768793
_symmetry_space_group_name_H-M "C M M A"
_symmetry_group_IT_number 67
_symmetry_cell_setting 'orthorhombic'
loop_
_space_group_symop_operation_xyz
x,y,z
-x,1/2-y,z
x,-y,-z
-x,1/2+y,-z
-x,-y,-z
x,1/2+y,-z
-x,y,z
x,1/2-y,z
1/2+x,1/2+y,z
1/2-x,-y,z
1/2+x,1/2-y,-z
1/2-x,y,-z
1/2-x,1/2-y,-z
1/2+x,y,-z
1/2-x,1/2+y,z
1/2+x,-y,z
loop_
_atom_site_type_symbol
_atom_site_label
_atom_site_fract_x
_atom_site_fract_y
_atom_site_fract_z
Si Si1 0.500000 0.250000 0.690516
Si Si2 0.807044 0.204253 0.430942
Si Si3 0.691351 0.298080 0.932730
Si Si4 0.190708 0.453474 0.203499
Si Si5 0.685578 0.703772 0.729602
Si Si6 0.688464 0.363336 0.166378
Si Si7 0.809368 0.954099 0.659740
Si Si8 0.311763 0.884796 0.568084
O O1 0.353700 0.213142 0.694369
O O2 0.745798 0.250000 0.409090
O O3 0.750000 0.202865 0.500000
O O4 0.740881 0.160791 0.406164
O O5 0.000000 0.205221 0.428971
O O6 0.500000 0.297626 0.932144
O O7 0.747038 0.250000 0.916790
O O8 0.748093 0.333683 0.886772
O O9 0.750000 0.306713 0.000000
O O10 0.250000 0.500000 0.182312
O O11 0.239826 0.410590 0.169554
O O12 0.251314 0.447893 0.272244
O O13 0.000000 0.455535 0.204659
O O14 0.500000 0.699016 0.704289
O O15 0.676335 0.750000 0.763047
O O16 0.715097 0.664073 0.772900
O O17 0.500000 0.368015 0.159440
O O18 0.750727 0.919766 0.613048
O O19 0.000000 0.953308 0.661462
O O20 0.750000 0.000000 0.639651
O O21 0.500000 0.885925 0.564737
O O22 0.250000 0.890010 0.500000
#
# Coordination Sequence:
#
# PCOD9503672 Si02
#       8
#     4  16  16  16  16  16  16  16
#     4   8  14  24  44  62 106 136 172 218 264 316
#     4   9  16  27  45  70 100 134 172 215 258 305
#     4  10  21  35  55  84 122 161 198 234 279 335
#     4  10  22  39  61  84 108 139 183 234 289 343
#     4   8  16  26  41  71 102 135 175 218 263 318
#     4  11  21  33  54  80 111 145 188 236 277 328
#     4  10  21  39  59  81 109 141 178 227 283 345
#     4  11  21  33  53  81 112 147 185 227 273 333
#
# _framework density 19.70186
#
# number of rings (size 3 to 8) (size 9 to 14) (size 15 to 20)
#    0.414    1.793    0.000    4.552    1.931    4.138 
#    0.000    1.379    0.000    2.069    0.000   12.552 
#    0.000    0.000    0.000    0.000    0.000    0.000 
#
# Total GULP energy -322920.888893 kJ/mol
# GULP energy per Si atom -5567.601533 kJ/mol
# Density = 1.965702 g / cm^3
# Si number density = 19.701860 Si / 1000 Ang^3
#
#
#
# Elastic Constant Matrix: (Units=GPa)
#
#
# Indices 1 2 3 4 5 6 
#
# 1 105.8929 52.5005 36.4144 0.0000 0.0000 0.0000
# 2 52.5005 193.2939 70.1775 0.0000 0.0000 0.0000
# 3 36.4144 70.1775 64.3957 0.0000 0.0000 0.0000
# 4 0.0000 0.0000 0.0000 26.5451 0.0000 0.0000
# 5 0.0000 0.0000 0.0000 0.0000 25.5411 0.0000
# 6 0.0000 0.0000 0.0000 0.0000 0.0000 43.7498
#
#
#
# Elastic Compliance Matrix: (Units=1/GPa)
#
#
# Indices 1 2 3 4 5 6 
#
# 1 0.011920 -0.001308 -0.005315 0.000000 0.000000 0.000000
# 2 -0.001308 0.008704 -0.008746 0.000000 0.000000 0.000000
# 3 -0.005315 -0.008746 0.028066 0.000000 0.000000 0.000000
# 4 0.000000 0.000000 0.000000 0.037672 0.000000 0.000000
# 5 0.000000 0.000000 0.000000 0.000000 0.039153 0.000000
# 6 0.000000 0.000000 0.000000 0.000000 0.000000 0.022857
#
#
# Mechanical properties :
#
#
# Convention : Reuss Voigt Hill
#
# Bulk Modulus (GPa) = 55.70495 75.75193 65.72844
# Shear Modulus (GPa) = 27.01349 32.79986 29.90668
#
# Velocity S-wave (km/s) = 3.70687 4.08464 3.90033
# Velocity P-wave (km/s) = 6.83056 7.79604 7.32922
#
# Compressibility (1/GPa) = 0.01795173
#
# Stress axis : x y z
#
# Youngs Moduli (GPa) = 83.89514 114.88976 35.63057
#
# Poissons Ratio (x) = 0.15025 0.18938
# Poissons Ratio (y) = 0.10972 0.31162
# Poissons Ratio (z) = 0.44591 1.00482
#
# Static dielectric constant tensor:
#      x y z
#    x 1.697350 0.000000 0.000000 
#    y 0.000000 1.697740 0.000000 
#    z 0.000000 0.000000 1.476550 
# 
# From -- ./inp_files/41066.got.cif
#   From: 2010.05.17/outbox.cif.g08.bks.cpg/sg67_21_cif.got.tgz:41066.got - 2010.06.03 18:28:57.
