data_PCOD9503929
_publ_section_title
;
Structure prediction by ZEFSAII (Michael W. Deem and Ramdas Pophale) SiO2 
 PCOD9503929
Probable space group: C M M A
;
_chemical_formula_sum "Si O2"
_cell_formula_units_Z 64
_cell_length_a 19.531133
_cell_length_b 14.548617
_cell_length_c 10.941225
_cell_angle_alpha 90.000000
_cell_angle_beta 90.000000
_cell_angle_gamma 90.000000
_cell_volume 3108.959736
_symmetry_space_group_name_H-M "C M M A"
_symmetry_group_IT_number 67
_symmetry_cell_setting 'orthorhombic'
loop_
_space_group_symop_operation_xyz
x,y,z
-x,1/2-y,z
x,-y,-z
-x,1/2+y,-z
-x,-y,-z
x,1/2+y,-z
-x,y,z
x,1/2-y,z
1/2+x,1/2+y,z
1/2-x,-y,z
1/2+x,1/2-y,-z
1/2-x,y,-z
1/2-x,1/2-y,-z
1/2+x,y,-z
1/2-x,1/2+y,z
1/2+x,-y,z
loop_
_atom_site_type_symbol
_atom_site_label
_atom_site_fract_x
_atom_site_fract_y
_atom_site_fract_z
Si Si1 0.279943 0.397066 0.121745
Si Si2 0.424907 0.525772 0.359152
Si Si3 0.075366 0.857227 0.178496
Si Si4 0.711209 0.144223 0.625129
O O1 0.250000 0.500000 0.126155
O O2 0.360680 0.389098 0.100180
O O3 0.260208 0.358781 0.255493
O O4 0.250000 0.352162 0.000000
O O5 0.425693 0.500000 0.500000
O O6 0.500000 0.568161 0.327359
O O7 0.421444 0.428928 0.289205
O O8 0.356762 0.586217 0.341568
O O9 0.083768 0.750000 0.213626
O O10 0.000000 0.865812 0.121077
O O11 0.691308 0.250000 0.602315
O O12 0.750000 0.112318 0.500000
#
# Coordination Sequence:
#
# PCOD9503929 Si02
#       4
#    16  16  16  16
#     4  11  23  41  65  95 124 165 211 259 313 370
#     4  10  21  37  59  88 124 165 205 257 316 370
#     4  10  21  39  63  90 122 164 211 256 309 377
#     4  11  24  40  63  93 125 165 209 258 312 374
#
# _framework density 20.585664000000001
#
# number of rings (size 3 to 8) (size 9 to 14) (size 15 to 20)
#    0.000    1.500    2.500    2.250    0.000    5.500 
#    0.000    6.250    0.000    0.750    0.000    0.000 
#    0.000    0.000    0.000    0.000    0.000    0.000 
#
# Total GULP energy -178367.907489 kJ/mol
# GULP energy per Si atom -5573.997109 kJ/mol
# Density = 2.053881 g / cm^3
# Si number density = 20.585664 Si / 1000 Ang^3
#
#
#
# Elastic Constant Matrix: (Units=GPa)
#
#
# Indices 1 2 3 4 5 6 
#
# 1 196.9193 59.2975 38.3032 0.0000 0.0000 0.0000
# 2 59.2975 109.0791 -4.3145 0.0000 0.0000 0.0000
# 3 38.3032 -4.3145 92.4615 0.0000 0.0000 0.0000
# 4 0.0000 0.0000 0.0000 73.5745 0.0000 0.0000
# 5 0.0000 0.0000 0.0000 0.0000 49.1683 0.0000
# 6 0.0000 0.0000 0.0000 0.0000 0.0000 54.4501
#
#
#
# Elastic Compliance Matrix: (Units=1/GPa)
#
#
# Indices 1 2 3 4 5 6 
#
# 1 0.006813 -0.003822 -0.003001 0.000000 0.000000 0.000000
# 2 -0.003822 0.011329 0.002112 0.000000 0.000000 0.000000
# 3 -0.003001 0.002112 0.012157 0.000000 0.000000 0.000000
# 4 0.000000 0.000000 0.000000 0.013592 0.000000 0.000000
# 5 0.000000 0.000000 0.000000 0.000000 0.020338 0.000000
# 6 0.000000 0.000000 0.000000 0.000000 0.000000 0.018365
#
#
# Mechanical properties :
#
#
# Convention : Reuss Voigt Hill
#
# Bulk Modulus (GPa) = 47.89941 65.00360 56.45151
# Shear Modulus (GPa) = 50.51774 55.78349 53.15061
#
# Velocity S-wave (km/s) = 4.95919 5.21124 5.08678
# Velocity P-wave (km/s) = 7.49068 8.23742 7.87291
#
# Compressibility (1/GPa) = 0.02087708
#
# Stress axis : x y z
#
# Youngs Moduli (GPa) = 146.78076 88.26847 82.25764
#
# Poissons Ratio (x) = 0.33739 0.24683
# Poissons Ratio (y) = 0.56104 -0.17373
# Poissons Ratio (z) = 0.44044 -0.18643
#
# Static dielectric constant tensor:
#      x y z
#    x 1.013200 0.000000 0.000000 
#    y 0.000000 1.760700 0.000000 
#    z 0.000000 0.000000 1.714340 
# 
# From -- ./inp_files/17503.got.cif
#   From: 2010.05.17/outbox.cif.g08.bks.cpg/sg67_9_cif.got.tgz:17503.got - 2010.06.03 18:28:57.
