data_PCOD9503159
_publ_section_title
;
Structure prediction by ZEFSAII (Michael W. Deem and Ramdas Pophale) SiO2 
 PCOD9503159
Probable space group: C M M A
;
_chemical_formula_sum "Si O2"
_cell_formula_units_Z 104
_cell_length_a 9.327254
_cell_length_b 19.454486
_cell_length_c 30.146061
_cell_angle_alpha 90.000000
_cell_angle_beta 90.000000
_cell_angle_gamma 90.000000
_cell_volume 5470.211752
_symmetry_space_group_name_H-M "C M M A"
_symmetry_group_IT_number 67
_symmetry_cell_setting 'orthorhombic'
loop_
_space_group_symop_operation_xyz
x,y,z
-x,1/2-y,z
x,-y,-z
-x,1/2+y,-z
-x,-y,-z
x,1/2+y,-z
-x,y,z
x,1/2-y,z
1/2+x,1/2+y,z
1/2-x,-y,z
1/2+x,1/2-y,-z
1/2-x,y,-z
1/2-x,1/2-y,-z
1/2+x,y,-z
1/2-x,1/2+y,z
1/2+x,-y,z
loop_
_atom_site_type_symbol
_atom_site_label
_atom_site_fract_x
_atom_site_fract_y
_atom_site_fract_z
Si Si1 0.671806 0.074083 0.218329
Si Si2 0.331805 0.437227 0.635177
Si Si3 0.169968 0.169311 0.289602
Si Si4 0.345625 0.750000 0.542048
Si Si5 0.336012 0.166455 0.956711
Si Si6 0.668993 0.598172 0.547769
Si Si7 0.669974 0.830105 0.866926
O O1 0.500000 0.065252 0.224258
O O2 0.737618 0.123603 0.256024
O O3 0.696374 0.116835 0.172811
O O4 0.750000 0.000000 0.218025
O O5 0.500000 0.452480 0.632309
O O6 0.250000 0.500000 0.659078
O O7 0.313459 0.367259 0.662662
O O8 0.262902 0.433268 0.586638
O O9 0.209070 0.250000 0.289744
O O10 0.000000 0.164461 0.278165
O O11 0.500000 0.750000 0.520621
O O12 0.250000 0.750000 0.500000
O O13 0.330617 0.822438 0.564397
O O14 0.500000 0.142553 0.957084
O O15 0.338114 0.250000 0.958764
O O16 0.256916 0.149898 0.910843
O O17 0.250000 0.142268 0.000000
O O18 0.500000 0.577253 0.544279
O O19 0.750000 0.591606 0.500000
O O20 0.500000 0.830905 0.876811
O O21 0.706172 0.750000 0.855006
#
# Coordination Sequence:
#
# PCOD9503159 Si02
#       7
#    16  16  16   8  16  16  16
#     4  11  23  39  61  88 119 156 195 239 292 351
#     4  11  24  41  61  86 119 156 193 234 283 338
#     4  10  23  43  66  92 120 150 188 237 291 347
#     4   8  16  30  50  78 110 142 178 222 270 320
#     4   9  16  26  44  73 109 149 192 239 292 345
#     4  10  20  36  58  86 118 153 193 235 281 333
#     4   9  18  33  53  79 112 149 193 243 292 345
#
# _framework density 19.012062
#
# number of rings (size 3 to 8) (size 9 to 14) (size 15 to 20)
#    0.000    2.154    0.000    2.769    1.077    7.385 
#    0.000    3.077    0.000    0.462    0.000    3.231 
#    0.000    0.000    0.000    0.000    0.000    0.000 
#
# Total GULP energy -289765.783123 kJ/mol
# GULP energy per Si atom -5572.418906 kJ/mol
# Density = 1.896879 g / cm^3
# Si number density = 19.012062 Si / 1000 Ang^3
#
#
#
# Elastic Constant Matrix: (Units=GPa)
#
#
# Indices 1 2 3 4 5 6 
#
# 1 129.6225 83.1019 90.4965 0.0000 0.0000 0.0000
# 2 83.1019 124.5898 59.6468 0.0000 0.0000 0.0000
# 3 90.4965 59.6468 120.8197 0.0000 0.0000 0.0000
# 4 0.0000 0.0000 0.0000 11.4325 0.0000 0.0000
# 5 0.0000 0.0000 0.0000 0.0000 26.0797 0.0000
# 6 0.0000 0.0000 0.0000 0.0000 0.0000 25.3475
#
#
#
# Elastic Compliance Matrix: (Units=1/GPa)
#
#
# Indices 1 2 3 4 5 6 
#
# 1 0.021589 -0.008719 -0.011866 0.000000 0.000000 0.000000
# 2 -0.008719 0.014032 -0.000397 0.000000 0.000000 0.000000
# 3 -0.011866 -0.000397 0.017361 0.000000 0.000000 0.000000
# 4 0.000000 0.000000 0.000000 0.087470 0.000000 0.000000
# 5 0.000000 0.000000 0.000000 0.000000 0.038344 0.000000
# 6 0.000000 0.000000 0.000000 0.000000 0.000000 0.039452
#
#
# Mechanical properties :
#
#
# Convention : Reuss Voigt Hill
#
# Bulk Modulus (GPa) = 90.76154 93.50252 92.13203
# Shear Modulus (GPa) = 18.94779 22.02440 20.48609
#
# Velocity S-wave (km/s) = 3.16035 3.40728 3.28614
# Velocity P-wave (km/s) = 7.82046 8.04778 7.93494
#
# Compressibility (1/GPa) = 0.01101788
#
# Stress axis : x y z
#
# Youngs Moduli (GPa) = 46.32003 71.26659 57.60195
#
# Poissons Ratio (x) = 0.62138 0.68351
# Poissons Ratio (y) = 0.40387 0.02284
# Poissons Ratio (z) = 0.54964 0.02826
#
# Static dielectric constant tensor:
#      x y z
#    x 1.656860 0.000000 0.000000 
#    y 0.000000 1.718650 0.000000 
#    z 0.000000 0.000000 1.610700 
# 
# From -- ./inp_files/43589.got.cif
#   From: 2010.05.17/outbox.cif.g08.bks.cpg/sg67_22_cif.got.tgz:43589.got - 2010.06.03 18:28:57.
