data_PCOD9503594
_publ_section_title
;
Structure prediction by ZEFSAII (Michael W. Deem and Ramdas Pophale) SiO2 
 PCOD9503594
Probable space group: C M M A
;
_chemical_formula_sum "Si O2"
_cell_formula_units_Z 112
_cell_length_a 34.205783
_cell_length_b 15.035739
_cell_length_c 12.120609
_cell_angle_alpha 90.000000
_cell_angle_beta 90.000000
_cell_angle_gamma 90.000000
_cell_volume 6233.741027
_symmetry_space_group_name_H-M "C M M A"
_symmetry_group_IT_number 67
_symmetry_cell_setting 'orthorhombic'
loop_
_space_group_symop_operation_xyz
x,y,z
-x,1/2-y,z
x,-y,-z
-x,1/2+y,-z
-x,-y,-z
x,1/2+y,-z
-x,y,z
x,1/2-y,z
1/2+x,1/2+y,z
1/2-x,-y,z
1/2+x,1/2-y,-z
1/2-x,y,-z
1/2-x,1/2-y,-z
1/2+x,y,-z
1/2-x,1/2+y,z
1/2+x,-y,z
loop_
_atom_site_type_symbol
_atom_site_label
_atom_site_fract_x
_atom_site_fract_y
_atom_site_fract_z
Si Si1 0.955143 0.858444 0.500001
Si Si2 0.708146 0.500001 0.799964
Si Si3 0.380115 0.000001 0.126985
Si Si4 0.810141 0.853365 0.623775
Si Si5 0.399198 0.853958 0.303006
Si Si6 0.689859 0.853366 0.623774
Si Si7 0.399198 0.146042 0.303007
O O1 0.954234 0.750000 0.500001
O O2 0.931762 0.885166 0.609924
O O3 0.931762 0.885166 0.390078
O O4 0.000000 0.887182 0.500001
O O5 0.750000 0.500000 0.859563
O O6 0.667463 0.500002 0.865961
O O7 0.706409 0.415339 0.718543
O O8 0.706410 0.584661 0.718542
O O9 0.395404 0.915016 0.195594
O O10 0.395405 0.084985 0.195594
O O11 0.392026 0.000000 0.000000
O O12 0.799492 0.750000 0.637932
O O13 0.857201 0.859547 0.635997
O O14 0.799078 0.881123 0.500001
O O15 0.405810 0.750000 0.275895
O O16 0.700507 0.750000 0.637930
O O17 0.642800 0.859549 0.635998
O O18 0.405809 0.250000 0.275898
#
# Coordination Sequence:
#
# PCOD9503594 Si02
#       7
#    16  16  16  16  16  16  16
#     4   9  16  29  55  89 116 136 160 196 254 313
#     4  10  21  33  46  68  95 123 163 216 264 299
#     4  10  22  37  54  73  92 132 187 219 246 295
#     4   9  16  28  47  69  98 134 163 192 242 308
#     4   9  17  32  53  77 107 135 164 208 251 296
#     4   9  16  28  47  69  98 134 163 192 242 308
#     4   9  17  32  53  77 107 135 164 208 251 296
#
# _framework density 17.966740000000001
#
# number of rings (size 3 to 8) (size 9 to 14) (size 15 to 20)
#    0.000    2.714    1.429    0.429    0.000    3.143 
#    0.000    2.857    0.000    1.714    0.000   12.000 
#    0.000    0.000    0.000    0.000    0.000    0.000 
#
# Total GULP energy -312383.061954 kJ/mol
# GULP energy per Si atom -5578.268963 kJ/mol
# Density = 1.792585 g / cm^3
# Si number density = 17.966740 Si / 1000 Ang^3
#
#
#
# Elastic Constant Matrix: (Units=GPa)
#
#
# Indices 1 2 3 4 5 6 
#
# 1 116.3590 24.8622 41.2056 0.0000 0.0000 0.0000
# 2 24.8622 75.1004 49.6062 0.0000 0.0000 0.0000
# 3 41.2056 49.6062 130.4974 0.0000 0.0000 0.0000
# 4 0.0000 0.0000 0.0000 22.9478 0.0000 0.0000
# 5 0.0000 0.0000 0.0000 0.0000 -356.0404 0.0000
# 6 0.0000 0.0000 0.0000 0.0000 0.0000 35.9320
#
#
#
# Elastic Compliance Matrix: (Units=1/GPa)
#
#
# Indices 1 2 3 4 5 6 
#
# 1 0.009819 -0.001606 -0.002490 0.000000 0.000000 0.000000
# 2 -0.001606 0.018042 -0.006351 0.000000 0.000000 0.000000
# 3 -0.002490 -0.006351 0.010864 0.000000 0.000000 0.000000
# 4 0.000000 0.000000 0.000000 0.043577 0.000000 0.000000
# 5 0.000000 0.000000 0.000000 0.000000 -0.002809 0.000000
# 6 0.000000 0.000000 0.000000 0.000000 0.000000 0.027830
#
#
# Mechanical properties :
#
#
# Convention : Reuss Voigt Hill
#
# Bulk Modulus (GPa) = 56.08387 61.47832 58.78110
# Shear Modulus (GPa) = 37.26837 -45.67994 -4.20578
#
# Velocity S-wave (km/s) = 4.55939 -5.04776 -1.53165
# Velocity P-wave (km/s) = 7.68118 0.56472 5.44607
#
# Compressibility (1/GPa) = 0.01783044
#
# Stress axis : x y z
#
# Youngs Moduli (GPa) = 101.84349 55.42476 92.05047
#
# Poissons Ratio (x) = 0.08901 0.22920
# Poissons Ratio (y) = 0.16355 0.58465
# Poissons Ratio (z) = 0.25359 0.35203
#
# Static dielectric constant tensor:
#      x y z
#    x 1.639580 0.000000 0.000000 
#    y 0.000000 1.636620 0.000000 
#    z 0.000000 0.000000 1.558230 
# 
# From -- ./inp_files/23858.got.cif
#   From: 2010.05.17/outbox.cif.g08.bks.cpg/sg67_12_cif.got.tgz:23858.got - 2010.06.03 18:28:57.
