data_PCOD9503128
_publ_section_title
;
Structure prediction by ZEFSAII (Michael W. Deem and Ramdas Pophale) SiO2 
 PCOD9503128
Probable space group: C M M A
;
_chemical_formula_sum "Si O2"
_cell_formula_units_Z 100
_cell_length_a 7.714952
_cell_length_b 31.100908
_cell_length_c 20.219189
_cell_angle_alpha 90.000000
_cell_angle_beta 90.000000
_cell_angle_gamma 90.000000
_cell_volume 4851.432897
_symmetry_space_group_name_H-M "C M M A"
_symmetry_group_IT_number 67
_symmetry_cell_setting 'orthorhombic'
loop_
_space_group_symop_operation_xyz
x,y,z
-x,1/2-y,z
x,-y,-z
-x,1/2+y,-z
-x,-y,-z
x,1/2+y,-z
-x,y,z
x,1/2-y,z
1/2+x,1/2+y,z
1/2-x,-y,z
1/2+x,1/2-y,-z
1/2-x,y,-z
1/2-x,1/2-y,-z
1/2+x,y,-z
1/2-x,1/2+y,z
1/2+x,-y,z
loop_
_atom_site_type_symbol
_atom_site_label
_atom_site_fract_x
_atom_site_fract_y
_atom_site_fract_z
Si Si1 0.704989 0.432525 0.600865
Si Si2 0.787883 0.135130 0.813767
Si Si3 0.250000 0.500000 0.500000
Si Si4 0.791778 0.201784 0.923065
Si Si5 0.794268 0.165453 0.425699
Si Si6 0.797049 0.796361 0.290790
Si Si7 0.206881 0.548336 0.248067
O O1 0.500000 0.437163 0.583012
O O2 0.810935 0.465080 0.554718
O O3 0.762482 0.383858 0.586611
O O4 0.722765 0.443351 0.677994
O O5 0.729090 0.162876 0.876916
O O6 0.729147 0.163445 0.750648
O O7 0.730880 0.086306 0.800659
O O8 0.000000 0.133747 0.816046
O O9 0.728130 0.250000 0.904335
O O10 0.000000 0.202932 0.916153
O O11 0.750000 0.195137 0.000000
O O12 0.750000 0.178435 0.500000
O O13 0.717481 0.194593 0.368269
O O14 0.000000 0.166298 0.417359
O O15 0.718899 0.750000 0.274221
O O16 0.000000 0.794327 0.273492
O O17 0.250000 0.500000 0.226977
O O18 0.000000 0.551817 0.253542
#
# Coordination Sequence:
#
# PCOD9503128 Si02
#       7
#    16  16   4  16  16  16  16
#     4  11  23  36  52  76 103 135 174 222 278 334
#     4   9  18  34  57  83 111 148 183 221 270 327
#     4  12  22  36  56  78 104 132 176 228 286 348
#     4   9  17  32  56  87 121 152 184 221 266 322
#     4  11  23  38  54  74 103 137 176 222 276 334
#     4  10  20  36  58  81 103 135 182 227 271 327
#     4  11  22  36  56  79 108 141 181 226 271 324
#
# _framework density 20.612466000000001
#
# number of rings (size 3 to 8) (size 9 to 14) (size 15 to 20)
#    0.000    1.760    3.200    1.680    0.000    3.840 
#    0.000    2.400    0.000    2.400    0.000    3.360 
#    0.000    0.000    0.000    0.000    0.000    0.000 
#
# Total GULP energy -279001.583556 kJ/mol
# GULP energy per Si atom -5580.031671 kJ/mol
# Density = 2.056555 g / cm^3
# Si number density = 20.612466 Si / 1000 Ang^3
#
#
#
# Elastic Constant Matrix: (Units=GPa)
#
#
# Indices 1 2 3 4 5 6 
#
# 1 47.6071 7.0937 -3.5570 0.0000 0.0000 0.0000
# 2 7.0937 147.0294 73.5409 0.0000 0.0000 0.0000
# 3 -3.5570 73.5409 111.2632 0.0000 0.0000 0.0000
# 4 0.0000 0.0000 0.0000 31.6565 0.0000 0.0000
# 5 0.0000 0.0000 0.0000 0.0000 14.0118 0.0000
# 6 0.0000 0.0000 0.0000 0.0000 0.0000 -45.5535
#
#
#
# Elastic Compliance Matrix: (Units=1/GPa)
#
#
# Indices 1 2 3 4 5 6 
#
# 1 0.021465 -0.002060 0.002048 0.000000 0.000000 0.000000
# 2 -0.002060 0.010358 -0.006912 0.000000 0.000000 0.000000
# 3 0.002048 -0.006912 0.013622 0.000000 0.000000 0.000000
# 4 0.000000 0.000000 0.000000 0.031589 0.000000 0.000000
# 5 0.000000 0.000000 0.000000 0.000000 0.071369 0.000000
# 6 0.000000 0.000000 0.000000 0.000000 0.000000 -0.021952
#
#
# Mechanical properties :
#
#
# Convention : Reuss Voigt Hill
#
# Bulk Modulus (GPa) = 31.64908 51.11722 41.38315
# Shear Modulus (GPa) = 33.14964 15.27775 24.21370
#
# Velocity S-wave (km/s) = 4.01463 2.72543 3.43112
# Velocity P-wave (km/s) = 6.07267 5.89551 5.98474
#
# Compressibility (1/GPa) = 0.03159649
#
# Stress axis : x y z
#
# Youngs Moduli (GPa) = 46.58708 96.54339 73.41162
#
# Poissons Ratio (x) = 0.19886 -0.15033
# Poissons Ratio (y) = 0.09596 0.50743
# Poissons Ratio (z) = -0.09540 0.66732
#
# Static dielectric constant tensor:
#      x y z
#    x 1.789710 0.000000 0.000000 
#    y 0.000000 1.757760 0.000000 
#    z 0.000000 0.000000 1.716500 
# 
# From -- ./inp_files/37532.got.cif
#   From: 2010.05.17/outbox.cif.g08.bks.cpg/sg67_19_cif.got.tgz:37532.got - 2010.06.03 18:28:57.
