data_PCOD9503741
_publ_section_title
;
Structure prediction by ZEFSAII (Michael W. Deem and Ramdas Pophale) SiO2 
 PCOD9503741
Probable space group: C M M A
;
_chemical_formula_sum "Si O2"
_cell_formula_units_Z 96
_cell_length_a 8.710457
_cell_length_b 18.861150
_cell_length_c 31.651096
_cell_angle_alpha 90.000000
_cell_angle_beta 90.000000
_cell_angle_gamma 90.000000
_cell_volume 5199.934382
_symmetry_space_group_name_H-M "C M M A"
_symmetry_group_IT_number 67
_symmetry_cell_setting 'orthorhombic'
loop_
_space_group_symop_operation_xyz
x,y,z
-x,1/2-y,z
x,-y,-z
-x,1/2+y,-z
-x,-y,-z
x,1/2+y,-z
-x,y,z
x,1/2-y,z
1/2+x,1/2+y,z
1/2-x,-y,z
1/2+x,1/2-y,-z
1/2-x,y,-z
1/2-x,1/2-y,-z
1/2+x,y,-z
1/2-x,1/2+y,z
1/2+x,-y,z
loop_
_atom_site_type_symbol
_atom_site_label
_atom_site_fract_x
_atom_site_fract_y
_atom_site_fract_z
Si Si1 0.814821 0.332268 0.045449
Si Si2 0.182996 0.078650 0.377634
Si Si3 0.183282 0.920943 0.287488
Si Si4 0.685497 0.078909 0.873117
Si Si5 0.319151 0.834946 0.545247
Si Si6 0.314679 0.332870 0.789887
O O1 0.769439 0.250000 0.052782
O O2 0.763870 0.381542 0.084039
O O3 0.000000 0.334143 0.043820
O O4 0.750000 0.354353 0.000000
O O5 0.252165 0.103588 0.332863
O O6 0.234509 0.127478 0.416209
O O7 0.000000 0.075219 0.374426
O O8 0.250000 0.000000 0.384655
O O9 0.238373 0.869937 0.250276
O O10 0.000000 0.924953 0.289143
O O11 0.250000 0.000000 0.280097
O O12 0.500000 0.075877 0.873699
O O13 0.730223 0.125182 0.832326
O O14 0.750000 0.000000 0.870382
O O15 0.500000 0.851478 0.546611
O O16 0.300989 0.750000 0.548703
O O17 0.250000 0.856810 0.500000
O O18 0.500000 0.337891 0.785800
O O19 0.274813 0.250000 0.792955
#
# Coordination Sequence:
#
# PCOD9503741 Si02
#       6
#    16  16  16  16  16  16
#     4   9  18  34  55  78 105 139 179 222 269 321
#     4  11  22  38  60  85 114 148 188 231 278 331
#     4  11  22  38  59  83 113 146 182 225 275 329
#     4  10  21  36  55  79 108 143 181 223 271 324
#     4  10  21  38  59  84 115 150 189 233 281 332
#     4  10  21  38  59  82 109 143 183 226 274 328
#
# _framework density 18.461770999999999
#
# number of rings (size 3 to 8) (size 9 to 14) (size 15 to 20)
#    0.000    1.833    0.000    5.500    0.000    7.333 
#    0.000    3.333    0.000    3.000    0.000    0.000 
#    0.000    0.000    0.000    0.000    0.000    0.000 
#
# Total GULP energy -268205.013853 kJ/mol
# GULP energy per Si atom -5587.604455 kJ/mol
# Density = 1.841975 g / cm^3
# Si number density = 18.461771 Si / 1000 Ang^3
#
#
#
# Elastic Constant Matrix: (Units=GPa)
#
#
# Indices 1 2 3 4 5 6 
#
# 1 91.1806 56.5745 76.0391 0.0000 0.0000 0.0000
# 2 56.5745 102.4962 107.9351 0.0000 0.0000 0.0000
# 3 76.0391 107.9351 195.8441 0.0000 0.0000 0.0000
# 4 0.0000 0.0000 0.0000 36.2939 0.0000 0.0000
# 5 0.0000 0.0000 0.0000 0.0000 31.9567 0.0000
# 6 0.0000 0.0000 0.0000 0.0000 0.0000 29.7891
#
#
#
# Elastic Compliance Matrix: (Units=1/GPa)
#
#
# Indices 1 2 3 4 5 6 
#
# 1 0.017651 -0.006019 -0.003536 0.000000 0.000000 0.000000
# 2 -0.006019 0.025303 -0.011608 0.000000 0.000000 0.000000
# 3 -0.003536 -0.011608 0.012876 0.000000 0.000000 0.000000
# 4 0.000000 0.000000 0.000000 0.027553 0.000000 0.000000
# 5 0.000000 0.000000 0.000000 0.000000 0.031292 0.000000
# 6 0.000000 0.000000 0.000000 0.000000 0.000000 0.033569
#
#
# Mechanical properties :
#
#
# Convention : Reuss Voigt Hill
#
# Bulk Modulus (GPa) = 74.05273 96.73536 85.39405
# Shear Modulus (GPa) = 25.63161 29.53944 27.58553
#
# Velocity S-wave (km/s) = 3.73011 4.00438 3.86968
# Velocity P-wave (km/s) = 7.66486 8.59602 8.14376
#
# Compressibility (1/GPa) = 0.01350389
#
# Stress axis : x y z
#
# Youngs Moduli (GPa) = 56.65560 39.52113 77.66105
#
# Poissons Ratio (x) = 0.23788 0.27459
# Poissons Ratio (y) = 0.34102 0.90150
# Poissons Ratio (z) = 0.20032 0.45877
#
# Static dielectric constant tensor:
#      x y z
#    x 1.624040 0.000000 0.000000 
#    y 0.000000 1.611030 0.000000 
#    z 0.000000 0.000000 1.615380 
# 
# From -- ./inp_files/43486.got.cif
#   From: 2010.05.17/outbox.cif.g08.bks.cpg/sg67_22_cif.got.tgz:43486.got - 2010.06.03 18:28:57.
