data_PCOD9503595
_publ_section_title
;
Structure prediction by ZEFSAII (Michael W. Deem and Ramdas Pophale) SiO2 
 PCOD9503595
Probable space group: C M M A
;
_chemical_formula_sum "Si O2"
_cell_formula_units_Z 88
_cell_length_a 13.796641
_cell_length_b 13.834173
_cell_length_c 18.243342
_cell_angle_alpha 90.000000
_cell_angle_beta 90.000000
_cell_angle_gamma 90.000000
_cell_volume 3482.017631
_symmetry_space_group_name_H-M "C M M A"
_symmetry_group_IT_number 67
_symmetry_cell_setting 'orthorhombic'
loop_
_space_group_symop_operation_xyz
x,y,z
-x,1/2-y,z
x,-y,-z
-x,1/2+y,-z
-x,-y,-z
x,1/2+y,-z
-x,y,z
x,1/2-y,z
1/2+x,1/2+y,z
1/2-x,-y,z
1/2+x,1/2-y,-z
1/2-x,y,-z
1/2-x,1/2-y,-z
1/2+x,y,-z
1/2-x,1/2+y,z
1/2+x,-y,z
loop_
_atom_site_type_symbol
_atom_site_label
_atom_site_fract_x
_atom_site_fract_y
_atom_site_fract_z
Si Si1 0.823214 0.368607 0.273184
Si Si2 0.105957 0.131985 0.953849
Si Si3 0.690587 0.132135 0.891242
Si Si4 0.606732 0.138498 0.318629
Si Si5 0.140190 0.385077 0.510298
Si Si6 0.500000 0.879459 0.380093
O O1 0.827883 0.250000 0.278879
O O2 0.841377 0.397001 0.189114
O O3 0.713085 0.398862 0.294968
O O4 0.911466 0.404360 0.322844
O O5 0.106082 0.250000 0.952481
O O6 0.198299 0.101773 0.906358
O O7 0.000000 0.099713 0.929703
O O8 0.127743 0.103514 0.038170
O O9 0.689955 0.250000 0.891544
O O10 0.500000 0.100469 0.295861
O O11 0.607811 0.250000 0.293498
O O12 0.607417 0.136954 0.407580
O O13 0.130574 0.500000 0.500000
O O14 0.250000 0.356494 0.500000
O O15 0.080951 0.349852 0.441941
#
# Coordination Sequence:
#
# PCOD9503595 Si02
#       6
#    16  16  16  16  16   8
#     4  10  21  33  46  72 107 142 174 211 268 320
#     4   8  13  22  39  60  84 126 176 212 243 290
#     4   8  15  26  38  59  93 130 172 210 244 301
#     4  10  21  36  54  76 103 137 177 221 263 309
#     4  11  23  40  58  76 100 135 178 219 263 319
#     4  12  22  34  54  78  97 130 168 222 262 322
#
# _framework density 25.272704000000001
#
# number of rings (size 3 to 8) (size 9 to 14) (size 15 to 20)
#    0.000    2.364    2.727    1.636    1.273    2.545 
#    0.000    3.636    0.000    0.000    0.000    0.000 
#    0.000    0.000    0.000   19.636    0.000    9.818 
#
# Total GULP energy -245087.682131 kJ/mol
# GULP energy per Si atom -5570.174594 kJ/mol
# Density = 2.521518 g / cm^3
# Si number density = 25.272704 Si / 1000 Ang^3
#
#
#
# Elastic Constant Matrix: (Units=GPa)
#
#
# Indices 1 2 3 4 5 6 
#
# 1 187.1030 20.7238 20.4838 0.0000 0.0000 0.0000
# 2 20.7238 96.5061 -6.1032 0.0000 0.0000 0.0000
# 3 20.4838 -6.1032 98.1223 0.0000 0.0000 0.0000
# 4 0.0000 0.0000 0.0000 10.8102 0.0000 0.0000
# 5 0.0000 0.0000 0.0000 0.0000 13.4079 0.0000
# 6 0.0000 0.0000 0.0000 0.0000 0.0000 17.7877
#
#
#
# Elastic Compliance Matrix: (Units=1/GPa)
#
#
# Indices 1 2 3 4 5 6 
#
# 1 0.005625 -0.001287 -0.001254 0.000000 0.000000 0.000000
# 2 -0.001287 0.010698 0.000934 0.000000 0.000000 0.000000
# 3 -0.001254 0.000934 0.010511 0.000000 0.000000 0.000000
# 4 0.000000 0.000000 0.000000 0.092505 0.000000 0.000000
# 5 0.000000 0.000000 0.000000 0.000000 0.074583 0.000000
# 6 0.000000 0.000000 0.000000 0.000000 0.000000 0.056219
#
#
# Mechanical properties :
#
#
# Convention : Reuss Voigt Hill
#
# Bulk Modulus (GPa) = 42.33918 50.21558 46.27738
# Shear Modulus (GPa) = 19.14038 31.50962 25.32500
#
# Velocity S-wave (km/s) = 2.75499 3.53481 3.16898
# Velocity P-wave (km/s) = 5.18741 6.04752 5.63391
#
# Compressibility (1/GPa) = 0.02361878
#
# Stress axis : x y z
#
# Youngs Moduli (GPa) = 177.79276 93.47966 95.13575
#
# Poissons Ratio (x) = 0.12032 0.11932
# Poissons Ratio (y) = 0.22884 -0.08886
# Poissons Ratio (z) = 0.22299 -0.08732
#
# Static dielectric constant tensor:
#      x y z
#    x 1.935920 0.000000 0.000000 
#    y 0.000000 2.483910 0.000000 
#    z 0.000000 0.000000 1.898570 
# 
# From -- ./inp_files/33677.got.cif
#   From: 2010.05.17/outbox.cif.g08.bks.cpg/sg67_17_cif.got.tgz:33677.got - 2010.06.03 18:28:57.
