data_PCOD9503118
_publ_section_title
;
Structure prediction by ZEFSAII (Michael W. Deem and Ramdas Pophale) SiO2 
 PCOD9503118
Probable space group: C M M A
;
_chemical_formula_sum "Si O2"
_cell_formula_units_Z 104
_cell_length_a 8.341620
_cell_length_b 19.786169
_cell_length_c 30.508725
_cell_angle_alpha 90.000000
_cell_angle_beta 90.000000
_cell_angle_gamma 90.000000
_cell_volume 5035.425493
_symmetry_space_group_name_H-M "C M M A"
_symmetry_group_IT_number 67
_symmetry_cell_setting 'orthorhombic'
loop_
_space_group_symop_operation_xyz
x,y,z
-x,1/2-y,z
x,-y,-z
-x,1/2+y,-z
-x,-y,-z
x,1/2+y,-z
-x,y,z
x,1/2-y,z
1/2+x,1/2+y,z
1/2-x,-y,z
1/2+x,1/2-y,-z
1/2-x,y,-z
1/2-x,1/2-y,-z
1/2+x,y,-z
1/2-x,1/2+y,z
1/2+x,-y,z
loop_
_atom_site_type_symbol
_atom_site_label
_atom_site_fract_x
_atom_site_fract_y
_atom_site_fract_z
Si Si1 0.804362 0.672133 0.212572
Si Si2 0.693529 0.171689 0.375570
Si Si3 0.192802 0.250000 0.049669
Si Si4 0.808580 0.068362 0.858721
Si Si5 0.190882 0.925996 0.549935
Si Si6 0.306070 0.922082 0.705810
Si Si7 0.691066 0.104112 0.950651
O O1 0.749623 0.750000 0.216217
O O2 0.754033 0.634368 0.167980
O O3 0.755443 0.622588 0.252117
O O4 0.000000 0.674069 0.212991
O O5 0.500000 0.173671 0.373884
O O6 0.749015 0.250000 0.371874
O O7 0.745348 0.134456 0.420003
O O8 0.747562 0.122022 0.336278
O O9 0.254581 0.321796 0.064146
O O10 0.000000 0.250000 0.053511
O O11 0.250000 0.250000 0.000000
O O12 0.740663 0.065216 0.907688
O O13 0.000000 0.068312 0.860504
O O14 0.750000 0.000000 0.835142
O O15 0.250000 0.918684 0.500000
O O16 0.000000 0.926296 0.550520
O O17 0.250000 0.000000 0.565952
O O18 0.500000 0.923727 0.705702
O O19 0.250000 0.000000 0.705757
O O20 0.500000 0.104541 0.954379
O O21 0.750000 0.086860 0.000000
#
# Coordination Sequence:
#
# PCOD9503118 Si02
#       7
#    16  16   8  16  16  16  16
#     4   9  19  37  61  88 115 147 190 236 283 339
#     4  10  21  37  58  86 120 159 203 250 301 357
#     4   8  16  30  50  76 106 138 170 214 264 316
#     4  11  23  38  58  83 114 151 189 232 281 336
#     4  11  22  38  60  85 117 158 205 256 308 363
#     4  10  20  36  61  89 119 155 194 239 290 347
#     4  10  20  36  57  83 114 147 186 229 278 333
#
# _framework density 20.653666999999999
#
# number of rings (size 3 to 8) (size 9 to 14) (size 15 to 20)
#    0.000    2.000    0.000    4.154    1.077    5.231 
#    0.000    2.308    0.000    3.231    0.000    0.000 
#    0.000    0.000    0.000    0.000    0.000    0.000 
#
# Total GULP energy -289927.634557 kJ/mol
# GULP energy per Si atom -5575.531434 kJ/mol
# Density = 2.060666 g / cm^3
# Si number density = 20.653667 Si / 1000 Ang^3
#
#
#
# Elastic Constant Matrix: (Units=GPa)
#
#
# Indices 1 2 3 4 5 6 
#
# 1 23.2772 11.5533 14.8872 0.0000 0.0000 0.0000
# 2 11.5533 212.8802 87.2742 0.0000 0.0000 0.0000
# 3 14.8872 87.2742 122.6434 0.0000 0.0000 0.0000
# 4 0.0000 0.0000 0.0000 37.1604 0.0000 0.0000
# 5 0.0000 0.0000 0.0000 0.0000 13.9453 0.0000
# 6 0.0000 0.0000 0.0000 0.0000 0.0000 27.5217
#
#
#
# Elastic Compliance Matrix: (Units=1/GPa)
#
#
# Indices 1 2 3 4 5 6 
#
# 1 0.046590 -0.000296 -0.005444 0.000000 0.000000 0.000000
# 2 -0.000296 0.006634 -0.004685 0.000000 0.000000 0.000000
# 3 -0.005444 -0.004685 0.012149 0.000000 0.000000 0.000000
# 4 0.000000 0.000000 0.000000 0.026910 0.000000 0.000000
# 5 0.000000 0.000000 0.000000 0.000000 0.071709 0.000000
# 6 0.000000 0.000000 0.000000 0.000000 0.000000 0.036335
#
#
# Mechanical properties :
#
#
# Convention : Reuss Voigt Hill
#
# Bulk Modulus (GPa) = 22.46145 65.13669 43.79907
# Shear Modulus (GPa) = 21.18479 32.06457 26.62468
#
# Velocity S-wave (km/s) = 3.20615 3.94444 3.59430
# Velocity P-wave (km/s) = 4.96032 7.23539 6.20305
#
# Compressibility (1/GPa) = 0.04452072
#
# Stress axis : x y z
#
# Youngs Moduli (GPa) = 21.46397 150.73218 82.31463
#
# Poissons Ratio (x) = 0.04469 0.44815
# Poissons Ratio (y) = 0.00636 0.38565
# Poissons Ratio (z) = 0.11686 0.70618
#
# Static dielectric constant tensor:
#      x y z
#    x 1.709000 0.000000 0.000000 
#    y 0.000000 1.626380 0.000000 
#    z 0.000000 0.000000 1.730890 
# 
# From -- ./inp_files/43567.got.cif
#   From: 2010.05.17/outbox.cif.g08.bks.cpg/sg67_22_cif.got.tgz:43567.got - 2010.06.03 18:28:57.
