data_PCOD9503326
_publ_section_title
;
Structure prediction by ZEFSAII (Michael W. Deem and Ramdas Pophale) SiO2 
 PCOD9503326
Probable space group: C M M A
;
_chemical_formula_sum "Si O2"
_cell_formula_units_Z 72
_cell_length_a 8.782570
_cell_length_b 21.442450
_cell_length_c 20.355175
_cell_angle_alpha 90.000000
_cell_angle_beta 90.000000
_cell_angle_gamma 90.000000
_cell_volume 3833.282853
_symmetry_space_group_name_H-M "C M M A"
_symmetry_group_IT_number 67
_symmetry_cell_setting 'orthorhombic'
loop_
_space_group_symop_operation_xyz
x,y,z
-x,1/2-y,z
x,-y,-z
-x,1/2+y,-z
-x,-y,-z
x,1/2+y,-z
-x,y,z
x,1/2-y,z
1/2+x,1/2+y,z
1/2-x,-y,z
1/2+x,1/2-y,-z
1/2-x,y,-z
1/2-x,1/2-y,-z
1/2+x,y,-z
1/2-x,1/2+y,z
1/2+x,-y,z
loop_
_atom_site_type_symbol
_atom_site_label
_atom_site_fract_x
_atom_site_fract_y
_atom_site_fract_z
Si Si1 0.181730 0.250000 0.572388
Si Si2 0.814504 0.677281 0.214050
Si Si3 0.683732 0.112107 0.426380
Si Si4 0.827215 0.174401 0.933346
Si Si5 0.818448 0.435950 0.297698
O O1 0.250000 0.250000 0.500000
O O2 0.223728 0.317496 0.599178
O O3 0.000000 0.250000 0.568730
O O4 0.774609 0.750000 0.229235
O O5 0.762653 0.662195 0.139165
O O6 0.745485 0.624802 0.260466
O O7 0.000000 0.674604 0.216508
O O8 0.500000 0.105551 0.427921
O O9 0.750000 0.104623 0.500000
O O10 0.759631 0.068676 0.372703
O O11 0.830270 0.250000 0.937063
O O12 0.000000 0.151815 0.933336
O O13 0.750000 0.151543 0.000000
O O14 0.750000 0.500000 0.269073
O O15 0.000000 0.437160 0.295702
#
# Coordination Sequence:
#
# PCOD9503326 Si02
#       5
#     8  16  16  16  16
#     4   8  16  30  52  80 110 140 169 210 269 326
#     4   9  19  37  60  86 118 155 192 232 282 338
#     4  10  20  37  59  85 113 146 185 231 285 340
#     4   8  14  26  48  80 116 151 185 225 274 326
#     4  12  26  42  59  82 112 151 194 239 290 343
#
# _framework density 18.782855999999999
#
# number of rings (size 3 to 8) (size 9 to 14) (size 15 to 20)
#    0.000    2.444    0.000    4.000    1.556    2.667 
#    0.000    4.444    0.000    0.667    0.000    4.667 
#    0.000    0.000    0.000    0.000    0.000    0.000 
#
# Total GULP energy -200574.974464 kJ/mol
# GULP energy per Si atom -5571.527068 kJ/mol
# Density = 1.874011 g / cm^3
# Si number density = 18.782856 Si / 1000 Ang^3
#
#
#
# Elastic Constant Matrix: (Units=GPa)
#
#
# Indices 1 2 3 4 5 6 
#
# 1 65.3642 46.5534 47.7713 0.0000 0.0000 0.0000
# 2 46.5534 114.0485 65.1815 0.0000 0.0000 0.0000
# 3 47.7713 65.1815 121.6449 0.0000 0.0000 0.0000
# 4 0.0000 0.0000 0.0000 8.4886 0.0000 0.0000
# 5 0.0000 0.0000 0.0000 0.0000 31.4401 0.0000
# 6 0.0000 0.0000 0.0000 0.0000 0.0000 17.8930
#
#
#
# Elastic Compliance Matrix: (Units=1/GPa)
#
#
# Indices 1 2 3 4 5 6 
#
# 1 0.024358 -0.006451 -0.006109 0.000000 0.000000 0.000000
# 2 -0.006451 0.014347 -0.005154 0.000000 0.000000 0.000000
# 3 -0.006109 -0.005154 0.013382 0.000000 0.000000 0.000000
# 4 0.000000 0.000000 0.000000 0.117805 0.000000 0.000000
# 5 0.000000 0.000000 0.000000 0.000000 0.031807 0.000000
# 6 0.000000 0.000000 0.000000 0.000000 0.000000 0.055888
#
#
# Mechanical properties :
#
#
# Convention : Reuss Voigt Hill
#
# Bulk Modulus (GPa) = 60.03097 68.89666 64.46382
# Shear Modulus (GPa) = 16.74658 21.00109 18.87384
#
# Velocity S-wave (km/s) = 2.98919 3.34743 3.17337
# Velocity P-wave (km/s) = 6.62899 7.19031 6.91535
#
# Compressibility (1/GPa) = 0.01665807
#
# Stress axis : x y z
#
# Youngs Moduli (GPa) = 41.05354 69.69894 74.72986
#
# Poissons Ratio (x) = 0.44966 0.45652
# Poissons Ratio (y) = 0.26486 0.38518
# Poissons Ratio (z) = 0.25079 0.35925
#
# Static dielectric constant tensor:
#      x y z
#    x 1.576240 0.000000 0.000000 
#    y 0.000000 1.680280 0.000000 
#    z 0.000000 0.000000 1.674250 
# 
# From -- ./inp_files/36769.got.cif
#   From: 2010.05.17/outbox.cif.g08.bks.cpg/sg67_19_cif.got.tgz:36769.got - 2010.06.03 18:28:57.
