data_PCOD9503660
_publ_section_title
;
Structure prediction by ZEFSAII (Michael W. Deem and Ramdas Pophale) SiO2 
 PCOD9503660
Probable space group: C M M A
;
_chemical_formula_sum "Si O2"
_cell_formula_units_Z 96
_cell_length_a 15.562133
_cell_length_b 14.238258
_cell_length_c 23.133708
_cell_angle_alpha 90.000000
_cell_angle_beta 90.000000
_cell_angle_gamma 90.000000
_cell_volume 5125.912994
_symmetry_space_group_name_H-M "C M M A"
_symmetry_group_IT_number 67
_symmetry_cell_setting 'orthorhombic'
loop_
_space_group_symop_operation_xyz
x,y,z
-x,1/2-y,z
x,-y,-z
-x,1/2+y,-z
-x,-y,-z
x,1/2+y,-z
-x,y,z
x,1/2-y,z
1/2+x,1/2+y,z
1/2-x,-y,z
1/2+x,1/2-y,-z
1/2-x,y,-z
1/2-x,1/2-y,-z
1/2+x,y,-z
1/2-x,1/2+y,z
1/2+x,-y,z
loop_
_atom_site_type_symbol
_atom_site_label
_atom_site_fract_x
_atom_site_fract_y
_atom_site_fract_z
Si Si1 0.595635 0.010326 0.251040
Si Si2 0.620202 0.356187 0.654626
Si Si3 0.597281 0.485528 0.436925
Si Si4 0.751820 0.359833 0.930514
Si Si5 0.823513 0.855589 0.339585
Si Si6 0.104832 0.496653 0.114207
O O1 0.500000 0.050664 0.257918
O O2 0.657323 0.083059 0.282871
O O3 0.611671 0.995978 0.183747
O O4 0.597379 0.914435 0.287847
O O5 0.588972 0.250000 0.654395
O O6 0.594394 0.418129 0.599482
O O7 0.722411 0.352030 0.653388
O O8 0.637480 0.500000 0.500000
O O9 0.500000 0.451949 0.446276
O O10 0.641260 0.411414 0.394700
O O11 0.754390 0.250000 0.913947
O O12 0.837712 0.414803 0.908550
O O13 0.663607 0.409802 0.908581
O O14 0.750000 0.366788 0.000000
O O15 0.858395 0.750000 0.335304
O O16 0.000000 0.496623 0.100191
#
# Coordination Sequence:
#
# PCOD9503660 Si02
#       6
#    16  16  16  16  16  16
#     4  10  21  36  55  81 112 144 181 226 277 333
#     4  10  21  35  54  79 106 140 178 221 277 334
#     4  10  21  36  54  75 101 137 180 226 274 327
#     4  10  23  41  62  91 125 162 203 249 300 352
#     4  10  21  35  54  79 106 140 178 221 277 334
#     4  10  22  39  62  91 122 161 206 250 299 356
#
# _framework density 18.728370999999999
#
# number of rings (size 3 to 8) (size 9 to 14) (size 15 to 20)
#    0.000    2.000    0.000    5.000    4.667    8.000 
#    0.000    8.333    0.000    0.000    0.000    0.000 
#    0.000    0.000    0.000    0.000    0.000    0.000 
#
# Total GULP energy -267556.481290 kJ/mol
# GULP energy per Si atom -5574.093360 kJ/mol
# Density = 1.868574 g / cm^3
# Si number density = 18.728371 Si / 1000 Ang^3
#
#
#
# Elastic Constant Matrix: (Units=GPa)
#
#
# Indices 1 2 3 4 5 6 
#
# 1 134.6148 53.6742 43.1365 0.0000 0.0000 0.0000
# 2 53.6742 152.8223 51.2000 0.0000 0.0000 0.0000
# 3 43.1365 51.2000 106.3895 0.0000 0.0000 0.0000
# 4 0.0000 0.0000 0.0000 8.4341 0.0000 0.0000
# 5 0.0000 0.0000 0.0000 0.0000 22.9628 0.0000
# 6 0.0000 0.0000 0.0000 0.0000 0.0000 23.4286
#
#
#
# Elastic Compliance Matrix: (Units=1/GPa)
#
#
# Indices 1 2 3 4 5 6 
#
# 1 0.009202 -0.002363 -0.002594 0.000000 0.000000 0.000000
# 2 -0.002363 0.008408 -0.003088 0.000000 0.000000 0.000000
# 3 -0.002594 -0.003088 0.011937 0.000000 0.000000 0.000000
# 4 0.000000 0.000000 0.000000 0.118566 0.000000 0.000000
# 5 0.000000 0.000000 0.000000 0.000000 0.043549 0.000000
# 6 0.000000 0.000000 0.000000 0.000000 0.000000 0.042683
#
#
# Mechanical properties :
#
#
# Convention : Reuss Voigt Hill
#
# Bulk Modulus (GPa) = 74.30939 76.64977 75.47958
# Shear Modulus (GPa) = 19.61393 27.35284 23.48338
#
# Velocity S-wave (km/s) = 3.23969 3.82580 3.54488
# Velocity P-wave (km/s) = 7.33196 7.78020 7.55941
#
# Compressibility (1/GPa) = 0.01345725
#
# Stress axis : x y z
#
# Youngs Moduli (GPa) = 108.67292 118.93256 83.77037
#
# Poissons Ratio (x) = 0.28102 0.21729
# Poissons Ratio (y) = 0.25678 0.25871
# Poissons Ratio (z) = 0.28188 0.36731
#
# Static dielectric constant tensor:
#      x y z
#    x 1.678020 0.000000 0.000000 
#    y 0.000000 1.658650 0.000000 
#    z 0.000000 0.000000 1.636370 
# 
# From -- ./inp_files/38509.got.cif
#   From: 2010.05.17/outbox.cif.g08.bks.cpg/sg67_20_cif.got.tgz:38509.got - 2010.06.03 18:28:57.
