data_PCOD9503210
_publ_section_title
;
Structure prediction by ZEFSAII (Michael W. Deem and Ramdas Pophale) SiO2 
 PCOD9503210
Probable space group: C M M A
;
_chemical_formula_sum "Si O2"
_cell_formula_units_Z 96
_cell_length_a 13.631882
_cell_length_b 23.150791
_cell_length_c 13.795189
_cell_angle_alpha 90.000000
_cell_angle_beta 90.000000
_cell_angle_gamma 90.000000
_cell_volume 4353.607847
_symmetry_space_group_name_H-M "C M M A"
_symmetry_group_IT_number 67
_symmetry_cell_setting 'orthorhombic'
loop_
_space_group_symop_operation_xyz
x,y,z
-x,1/2-y,z
x,-y,-z
-x,1/2+y,-z
-x,-y,-z
x,1/2+y,-z
-x,y,z
x,1/2-y,z
1/2+x,1/2+y,z
1/2-x,-y,z
1/2+x,1/2-y,-z
1/2-x,y,-z
1/2-x,1/2-y,-z
1/2+x,y,-z
1/2-x,1/2+y,z
1/2+x,-y,z
loop_
_atom_site_type_symbol
_atom_site_label
_atom_site_fract_x
_atom_site_fract_y
_atom_site_fract_z
Si Si1 0.313185 0.637579 0.858078
Si Si2 0.889419 0.680666 0.941226
Si Si3 0.774067 0.316545 0.658083
Si Si4 0.116880 0.587347 0.664375
Si Si5 0.616793 0.408153 0.447294
Si Si6 0.118335 0.970905 0.247300
O O1 0.200034 0.649227 0.887253
O O2 0.332647 0.672109 0.758455
O O3 0.338388 0.571045 0.834207
O O4 0.376114 0.662155 0.946860
O O5 0.875587 0.750000 0.932366
O O6 0.000000 0.666398 0.907927
O O7 0.755657 0.250000 0.642884
O O8 0.675407 0.353532 0.673282
O O9 0.834442 0.346227 0.571673
O O10 0.139997 0.567618 0.553405
O O11 0.145599 0.538025 0.741275
O O12 0.000000 0.595077 0.670572
O O13 0.500000 0.403129 0.444122
O O14 0.645618 0.444275 0.352500
O O15 0.000000 0.968515 0.239012
#
# Coordination Sequence:
#
# PCOD9503210 Si02
#       6
#    16  16  16  16  16  16
#     4  10  20  36  59  90 124 156 200 253 302 357
#     4  10  20  36  61  92 128 168 205 245 303 376
#     4  11  23  37  56  85 121 160 204 256 314 373
#     4  10  21  37  57  82 115 158 205 251 303 363
#     4   9  19  35  56  83 115 154 202 254 304 358
#     4   9  18  35  60  87 116 153 200 252 302 355
#
# _framework density 22.050677
#
# number of rings (size 3 to 8) (size 9 to 14) (size 15 to 20)
#    0.000    2.167    0.000    3.500    0.000    8.000 
#    0.000    5.000    0.000    9.000    0.000   14.000 
#    0.000    1.333    0.000    0.000    0.000    0.000 
#
# Total GULP energy -268253.950648 kJ/mol
# GULP energy per Si atom -5588.623972 kJ/mol
# Density = 2.200049 g / cm^3
# Si number density = 22.050677 Si / 1000 Ang^3
#
#
#
# Elastic Constant Matrix: (Units=GPa)
#
#
# Indices 1 2 3 4 5 6 
#
# 1 86.0423 29.7818 12.4324 0.0000 0.0000 0.0000
# 2 29.7818 129.5772 11.4508 0.0000 0.0000 0.0000
# 3 12.4324 11.4508 63.4591 0.0000 0.0000 0.0000
# 4 0.0000 0.0000 0.0000 29.1574 0.0000 0.0000
# 5 0.0000 0.0000 0.0000 0.0000 24.6860 0.0000
# 6 0.0000 0.0000 0.0000 0.0000 0.0000 23.1782
#
#
#
# Elastic Compliance Matrix: (Units=1/GPa)
#
#
# Indices 1 2 3 4 5 6 
#
# 1 0.012877 -0.002781 -0.002021 0.000000 0.000000 0.000000
# 2 -0.002781 0.008443 -0.000979 0.000000 0.000000 0.000000
# 3 -0.002021 -0.000979 0.016331 0.000000 0.000000 0.000000
# 4 0.000000 0.000000 0.000000 0.034297 0.000000 0.000000
# 5 0.000000 0.000000 0.000000 0.000000 0.040509 0.000000
# 6 0.000000 0.000000 0.000000 0.000000 0.000000 0.043144
#
#
# Mechanical properties :
#
#
# Convention : Reuss Voigt Hill
#
# Bulk Modulus (GPa) = 38.32974 42.93431 40.63202
# Shear Modulus (GPa) = 28.43212 30.43190 29.43201
#
# Velocity S-wave (km/s) = 3.59472 3.71899 3.65738
# Velocity P-wave (km/s) = 5.88639 6.16069 6.02510
#
# Compressibility (1/GPa) = 0.02608940
#
# Stress axis : x y z
#
# Youngs Moduli (GPa) = 77.65921 118.44038 61.23441
#
# Poissons Ratio (x) = 0.32938 0.12375
# Poissons Ratio (y) = 0.21597 0.05993
# Poissons Ratio (z) = 0.15694 0.11591
#
# Static dielectric constant tensor:
#      x y z
#    x 1.841890 0.000000 0.000000 
#    y 0.000000 1.805580 0.000000 
#    z 0.000000 0.000000 1.856350 
# 
# From -- ./inp_files/27151.got.cif
#   From: 2010.05.17/outbox.cif.g08.bks.cpg/sg67_14_cif.got.tgz:27151.got - 2010.06.03 18:28:57.
