data_PCOD9503312
_publ_section_title
;
Structure prediction by ZEFSAII (Michael W. Deem and Ramdas Pophale) SiO2 
 PCOD9503312
Probable space group: C M M A
;
_chemical_formula_sum "Si O2"
_cell_formula_units_Z 68
_cell_length_a 19.115242
_cell_length_b 13.480970
_cell_length_c 13.619485
_cell_angle_alpha 90.000000
_cell_angle_beta 90.000000
_cell_angle_gamma 90.000000
_cell_volume 3509.632382
_symmetry_space_group_name_H-M "C M M A"
_symmetry_group_IT_number 67
_symmetry_cell_setting 'orthorhombic'
loop_
_space_group_symop_operation_xyz
x,y,z
-x,1/2-y,z
x,-y,-z
-x,1/2+y,-z
-x,-y,-z
x,1/2+y,-z
-x,y,z
x,1/2-y,z
1/2+x,1/2+y,z
1/2-x,-y,z
1/2+x,1/2-y,-z
1/2-x,y,-z
1/2-x,1/2-y,-z
1/2+x,y,-z
1/2-x,1/2+y,z
1/2+x,-y,z
loop_
_atom_site_type_symbol
_atom_site_label
_atom_site_fract_x
_atom_site_fract_y
_atom_site_fract_z
Si Si1 0.000000 0.129167 0.453270
Si Si2 0.346311 0.629382 0.144597
Si Si3 0.500000 0.629673 0.222518
Si Si4 0.269748 0.369700 0.655037
Si Si5 0.855372 0.369485 0.540668
Si Si6 0.750000 0.500000 0.000000
O O1 0.066423 0.100913 0.518614
O O2 0.000000 0.250000 0.445748
O O3 0.000000 0.096525 0.338172
O O4 0.343460 0.750000 0.129536
O O5 0.428012 0.602265 0.165843
O O6 0.305772 0.602583 0.244820
O O7 0.302858 0.570440 0.062286
O O8 0.500000 0.750000 0.226720
O O9 0.269470 0.250000 0.656598
O O10 0.190569 0.403410 0.633154
O O11 0.314140 0.395637 0.558795
O O12 0.855740 0.250000 0.546463
#
# Coordination Sequence:
#
# PCOD9503312 Si02
#       6
#     8  16   8  16  16   4
#     4   9  12  18  37  75 115 141 175 212 250 316
#     4  10  20  37  58  82 111 141 184 234 281 329
#     4   9  16  29  55  85 110 141 179 228 277 319
#     4   8  13  23  42  70 104 137 169 212 261 314
#     4   8  12  18  36  70 107 139 169 203 250 312
#     4  12  26  38  56  80 104 146 190 236 292 338
#
# _framework density 19.375249
#
# number of rings (size 3 to 8) (size 9 to 14) (size 15 to 20)
#    0.000    3.059    2.353    1.765    0.000    0.471 
#    0.000    0.000    0.000    5.647    0.000    9.882 
#    0.000    0.000    0.000    0.000    0.000    0.000 
#
# Total GULP energy -189412.325484 kJ/mol
# GULP energy per Si atom -5570.950750 kJ/mol
# Density = 1.933115 g / cm^3
# Si number density = 19.375249 Si / 1000 Ang^3
#
#
#
# Elastic Constant Matrix: (Units=GPa)
#
#
# Indices 1 2 3 4 5 6 
#
# 1 219.4499 35.6410 97.9699 0.0000 0.0000 0.0000
# 2 35.6410 81.0929 22.6097 0.0000 0.0000 0.0000
# 3 97.9699 22.6097 104.0491 0.0000 0.0000 0.0000
# 4 0.0000 0.0000 0.0000 14.5222 0.0000 0.0000
# 5 0.0000 0.0000 0.0000 0.0000 26.6785 0.0000
# 6 0.0000 0.0000 0.0000 0.0000 0.0000 -79.5382
#
#
#
# Elastic Compliance Matrix: (Units=1/GPa)
#
#
# Indices 1 2 3 4 5 6 
#
# 1 0.008032 -0.001513 -0.007234 0.000000 0.000000 0.000000
# 2 -0.001513 0.013412 -0.001490 0.000000 0.000000 0.000000
# 3 -0.007234 -0.001490 0.016746 0.000000 0.000000 0.000000
# 4 0.000000 0.000000 0.000000 0.068860 0.000000 0.000000
# 5 0.000000 0.000000 0.000000 0.000000 0.037483 0.000000
# 6 0.000000 0.000000 0.000000 0.000000 0.000000 -0.012573
#
#
# Mechanical properties :
#
#
# Convention : Reuss Voigt Hill
#
# Bulk Modulus (GPa) = 56.44520 79.67035 68.05778
# Shear Modulus (GPa) = 31.57768 8.89059 20.23413
#
# Velocity S-wave (km/s) = 4.04145 2.14443 3.23511
# Velocity P-wave (km/s) = 7.13958 6.88043 7.01121
#
# Compressibility (1/GPa) = 0.01771630
#
# Stress axis : x y z
#
# Youngs Moduli (GPa) = 124.50008 74.56050 59.71616
#
# Poissons Ratio (x) = 0.11283 0.43199
# Poissons Ratio (y) = 0.18840 0.08895
# Poissons Ratio (z) = 0.90064 0.11106
#
# Static dielectric constant tensor:
#      x y z
#    x 1.767780 0.000000 0.000000 
#    y 0.000000 1.746340 0.000000 
#    z 0.000000 0.000000 1.629000 
# 
# From -- ./inp_files/28353.got.cif
#   From: 2010.05.17/outbox.cif.g08.bks.cpg/sg67_15_cif.got.tgz:28353.got - 2010.06.03 18:28:57.
