data_PCOD9503289
_publ_section_title
;
Structure prediction by ZEFSAII (Michael W. Deem and Ramdas Pophale) SiO2 
 PCOD9503289
Probable space group: C M M A
;
_chemical_formula_sum "Si O2"
_cell_formula_units_Z 112
_cell_length_a 14.927581
_cell_length_b 30.962175
_cell_length_c 11.798917
_cell_angle_alpha 90.000000
_cell_angle_beta 90.000000
_cell_angle_gamma 90.000000
_cell_volume 5453.345876
_symmetry_space_group_name_H-M "C M M A"
_symmetry_group_IT_number 67
_symmetry_cell_setting 'orthorhombic'
loop_
_space_group_symop_operation_xyz
x,y,z
-x,1/2-y,z
x,-y,-z
-x,1/2+y,-z
-x,-y,-z
x,1/2+y,-z
-x,y,z
x,1/2-y,z
1/2+x,1/2+y,z
1/2-x,-y,z
1/2+x,1/2-y,-z
1/2-x,y,-z
1/2-x,1/2-y,-z
1/2+x,y,-z
1/2-x,1/2+y,z
1/2+x,-y,z
loop_
_atom_site_type_symbol
_atom_site_label
_atom_site_fract_x
_atom_site_fract_y
_atom_site_fract_z
Si Si1 0.599540 0.559830 0.295415
Si Si2 0.783433 0.327053 0.832850
Si Si3 0.103451 0.199179 0.048719
Si Si4 0.764229 0.073939 0.866842
Si Si5 0.642931 0.110268 0.484639
Si Si6 0.335656 0.202282 0.416634
Si Si7 0.603279 0.036627 0.299527
O O1 0.500000 0.559859 0.246683
O O2 0.671997 0.569220 0.200644
O O3 0.605189 0.593871 0.396649
O O4 0.616839 0.511856 0.346023
O O5 0.679382 0.320860 0.869371
O O6 0.800203 0.378106 0.839281
O O7 0.801664 0.307064 0.710700
O O8 0.850804 0.306666 0.925265
O O9 0.100550 0.250000 0.074043
O O10 0.000000 0.182904 0.053954
O O11 0.833829 0.041586 0.809260
O O12 0.750000 0.068765 0.000000
O O13 0.750000 0.111733 0.500000
O O14 0.612522 0.158540 0.451573
O O15 0.623492 0.074169 0.389819
O O16 0.379068 0.250000 0.421415
O O17 0.250000 0.204149 0.500000
O O18 0.500000 0.040929 0.266968
#
# Coordination Sequence:
#
# PCOD9503289 Si02
#       7
#    16  16  16  16  16  16  16
#     4  11  25  43  66  96 128 168 215 271 331 390
#     4  11  20  41  62  90 129 173 214 263 322 380
#     4  10  21  37  63  96 124 162 221 277 321 373
#     4  12  24  42  64  94 131 173 217 266 324 387
#     4  11  20  39  67  97 128 166 213 264 326 383
#     4  10  20  36  63  95 129 169 210 253 314 388
#     4  11  24  42  66  95 128 168 217 271 328 388
#
# _framework density 20.537849999999999
#
# number of rings (size 3 to 8) (size 9 to 14) (size 15 to 20)
#    0.000    1.143    4.286    3.857    0.000    4.571 
#    0.000    1.429    0.000    3.429    0.000    8.000 
#    0.000    0.000    0.000    0.000    0.000    0.000 
#
# Total GULP energy -312775.915423 kJ/mol
# GULP energy per Si atom -5585.284204 kJ/mol
# Density = 2.049111 g / cm^3
# Si number density = 20.537850 Si / 1000 Ang^3
#
#
#
# Elastic Constant Matrix: (Units=GPa)
#
#
# Indices 1 2 3 4 5 6 
#
# 1 88.2145 20.5787 27.3855 0.0000 0.0000 0.0000
# 2 20.5787 115.3145 42.2702 0.0000 0.0000 0.0000
# 3 27.3855 42.2702 121.1805 0.0000 0.0000 0.0000
# 4 0.0000 0.0000 0.0000 27.5752 0.0000 0.0000
# 5 0.0000 0.0000 0.0000 0.0000 -18.8827 0.0000
# 6 0.0000 0.0000 0.0000 0.0000 0.0000 87.7643
#
#
#
# Elastic Compliance Matrix: (Units=1/GPa)
#
#
# Indices 1 2 3 4 5 6 
#
# 1 0.012374 -0.001357 -0.002323 0.000000 0.000000 0.000000
# 2 -0.001357 0.010092 -0.003214 0.000000 0.000000 0.000000
# 3 -0.002323 -0.003214 0.009898 0.000000 0.000000 0.000000
# 4 0.000000 0.000000 0.000000 0.036265 0.000000 0.000000
# 5 0.000000 0.000000 0.000000 0.000000 -0.052958 0.000000
# 6 0.000000 0.000000 0.000000 0.000000 0.000000 0.011394
#
#
# Mechanical properties :
#
#
# Convention : Reuss Voigt Hill
#
# Bulk Modulus (GPa) = 53.82997 56.13092 54.98045
# Shear Modulus (GPa) = 106.28480 34.92302 70.60391
#
# Velocity S-wave (km/s) = 7.20160 4.12809 5.86959
# Velocity P-wave (km/s) = 9.76820 7.07894 8.53021
#
# Compressibility (1/GPa) = 0.01857701
#
# Stress axis : x y z
#
# Youngs Moduli (GPa) = 80.81680 99.08767 101.02880
#
# Poissons Ratio (x) = 0.13442 0.23470
# Poissons Ratio (y) = 0.10964 0.32468
# Poissons Ratio (z) = 0.18775 0.31844
#
# Static dielectric constant tensor:
#      x y z
#    x 1.725040 0.000000 0.000000 
#    y 0.000000 1.785450 0.000000 
#    z 0.000000 0.000000 1.710270 
# 
# From -- ./inp_files/18658.got.cif
#   From: 2010.05.17/outbox.cif.g08.bks.cpg/sg67_10_cif.got.tgz:18658.got - 2010.06.03 18:28:57.
