data_PCOD9503899
_publ_section_title
;
Structure prediction by ZEFSAII (Michael W. Deem and Ramdas Pophale) SiO2 
 PCOD9503899
Probable space group: C M M A
;
_chemical_formula_sum "Si O2"
_cell_formula_units_Z 112
_cell_length_a 28.626927
_cell_length_b 18.127681
_cell_length_c 11.634145
_cell_angle_alpha 90.000000
_cell_angle_beta 90.000000
_cell_angle_gamma 90.000000
_cell_volume 6037.420887
_symmetry_space_group_name_H-M "C M M A"
_symmetry_group_IT_number 67
_symmetry_cell_setting 'orthorhombic'
loop_
_space_group_symop_operation_xyz
x,y,z
-x,1/2-y,z
x,-y,-z
-x,1/2+y,-z
-x,-y,-z
x,1/2+y,-z
-x,y,z
x,1/2-y,z
1/2+x,1/2+y,z
1/2-x,-y,z
1/2+x,1/2-y,-z
1/2-x,y,-z
1/2-x,1/2-y,-z
1/2+x,y,-z
1/2-x,1/2+y,z
1/2+x,-y,z
loop_
_atom_site_type_symbol
_atom_site_label
_atom_site_fract_x
_atom_site_fract_y
_atom_site_fract_z
Si Si1 0.729603 0.578754 0.173094
Si Si2 0.326032 0.338036 0.182496
Si Si3 0.944685 0.417602 0.470009
Si Si4 0.054768 0.837520 0.770710
Si Si5 0.641735 0.838389 0.063055
Si Si6 0.632172 0.337225 0.421919
Si Si7 0.795785 0.920876 0.560441
O O1 0.750000 0.500000 0.133549
O O2 0.774004 0.632379 0.163861
O O3 0.684842 0.613457 0.110747
O O4 0.714309 0.570553 0.306021
O O5 0.323667 0.250000 0.191163
O O6 0.346089 0.366946 0.303161
O O7 0.358591 0.354999 0.073116
O O8 0.927369 0.500000 0.500000
O O9 0.935654 0.388019 0.340914
O O10 0.920185 0.363152 0.558988
O O11 0.000000 0.416879 0.484695
O O12 0.059218 0.750000 0.739965
O O13 0.093518 0.852781 0.868656
O O14 0.000000 0.848624 0.804688
O O15 0.651659 0.750000 0.076480
O O16 0.635802 0.250000 0.422906
O O17 0.660820 0.370726 0.528236
O O18 0.750000 0.886726 0.500000
O O19 0.802435 0.000000 0.500000
#
# Coordination Sequence:
#
# PCOD9503899 Si02
#       7
#    16  16  16  16  16  16  16
#     4  12  22  35  55  80 109 146 190 230 271 322
#     4  10  22  38  52  74 112 150 184 224 272 326
#     4  10  21  37  58  84 113 144 177 219 279 338
#     4   9  18  36  62  88 110 136 181 235 276 321
#     4  10  22  39  57  79 109 148 189 228 277 326
#     4  11  22  35  56  83 111 146 183 226 275 327
#     4  11  20  37  54  77 112 147 180 221 277 329
#
# _framework density 18.550967
#
# number of rings (size 3 to 8) (size 9 to 14) (size 15 to 20)
#    0.000    1.571    2.857    2.571    0.000    6.857 
#    0.000    0.714    0.000    2.571    0.000    5.000 
#    0.000    0.000    0.000    0.000    0.000    0.000 
#
# Total GULP energy -312506.326098 kJ/mol
# GULP energy per Si atom -5580.470109 kJ/mol
# Density = 1.850874 g / cm^3
# Si number density = 18.550967 Si / 1000 Ang^3
#
#
#
# Elastic Constant Matrix: (Units=GPa)
#
#
# Indices 1 2 3 4 5 6 
#
# 1 98.1707 38.1604 56.0590 0.0000 0.0000 0.0000
# 2 38.1604 48.8938 36.9964 0.0000 0.0000 0.0000
# 3 56.0590 36.9964 88.7960 0.0000 0.0000 0.0000
# 4 0.0000 0.0000 0.0000 18.8598 0.0000 0.0000
# 5 0.0000 0.0000 0.0000 0.0000 21.3962 0.0000
# 6 0.0000 0.0000 0.0000 0.0000 0.0000 28.1041
#
#
#
# Elastic Compliance Matrix: (Units=1/GPa)
#
#
# Indices 1 2 3 4 5 6 
#
# 1 0.017783 -0.007863 -0.007951 0.000000 0.000000 0.000000
# 2 -0.007863 0.033346 -0.008929 0.000000 0.000000 0.000000
# 3 -0.007951 -0.008929 0.020002 0.000000 0.000000 0.000000
# 4 0.000000 0.000000 0.000000 0.053023 0.000000 0.000000
# 5 0.000000 0.000000 0.000000 0.000000 0.046737 0.000000
# 6 0.000000 0.000000 0.000000 0.000000 0.000000 0.035582
#
#
# Mechanical properties :
#
#
# Convention : Reuss Voigt Hill
#
# Bulk Modulus (GPa) = 46.20142 55.36579 50.78360
# Shear Modulus (GPa) = 18.99887 20.64832 19.82359
#
# Velocity S-wave (km/s) = 3.20370 3.33987 3.27249
# Velocity P-wave (km/s) = 6.21644 6.69201 6.45860
#
# Compressibility (1/GPa) = 0.02164436
#
# Stress axis : x y z
#
# Youngs Moduli (GPa) = 56.23350 29.98867 49.99618
#
# Poissons Ratio (x) = 0.23581 0.39750
# Poissons Ratio (y) = 0.44217 0.44643
# Poissons Ratio (z) = 0.44709 0.26777
#
# Static dielectric constant tensor:
#      x y z
#    x 1.651220 0.000000 0.000000 
#    y 0.000000 1.658430 0.000000 
#    z 0.000000 0.000000 1.648610 
# 
# From -- ./inp_files/23776.got.cif
#   From: 2010.05.17/outbox.cif.g08.bks.cpg/sg67_12_cif.got.tgz:23776.got - 2010.06.03 18:28:57.
