data_PCOD9503679
_publ_section_title
;
Structure prediction by ZEFSAII (Michael W. Deem and Ramdas Pophale) SiO2 
 PCOD9503679
Probable space group: C M M A
;
_chemical_formula_sum "Si O2"
_cell_formula_units_Z 88
_cell_length_a 14.328893
_cell_length_b 14.801276
_cell_length_c 20.392956
_cell_angle_alpha 90.000000
_cell_angle_beta 90.000000
_cell_angle_gamma 90.000000
_cell_volume 4325.058428
_symmetry_space_group_name_H-M "C M M A"
_symmetry_group_IT_number 67
_symmetry_cell_setting 'orthorhombic'
loop_
_space_group_symop_operation_xyz
x,y,z
-x,1/2-y,z
x,-y,-z
-x,1/2+y,-z
-x,-y,-z
x,1/2+y,-z
-x,y,z
x,1/2-y,z
1/2+x,1/2+y,z
1/2-x,-y,z
1/2+x,1/2-y,-z
1/2-x,y,-z
1/2-x,1/2-y,-z
1/2+x,y,-z
1/2-x,1/2+y,z
1/2+x,-y,z
loop_
_atom_site_type_symbol
_atom_site_label
_atom_site_fract_x
_atom_site_fract_y
_atom_site_fract_z
Si Si1 0.734557 0.357662 0.866750
Si Si2 0.309221 0.357401 0.276451
Si Si3 0.391593 0.988435 0.921760
Si Si4 0.500000 0.655119 0.260948
Si Si5 0.159150 0.649090 0.628218
Si Si6 0.500000 0.960933 0.428165
Si Si7 0.500000 0.960628 0.718962
O O1 0.727855 0.250000 0.880838
O O2 0.748067 0.369524 0.788838
O O3 0.648391 0.419035 0.890197
O O4 0.825213 0.405964 0.898961
O O5 0.323729 0.250000 0.284054
O O6 0.253051 0.390200 0.340528
O O7 0.406446 0.406598 0.267176
O O8 0.500000 0.972254 0.906454
O O9 0.382289 0.000000 0.000000
O O10 0.500000 0.750000 0.221778
O O11 0.410610 0.657555 0.309142
O O12 0.500000 0.552437 0.238037
O O13 0.178068 0.750000 0.603681
O O14 0.095992 0.595474 0.577961
O O15 0.500000 0.000000 0.500000
O O16 0.500000 0.018009 0.359828
#
# Coordination Sequence:
#
# PCOD9503679 Si02
#       7
#    16  16  16   8  16   8   8
#     4  10  22  40  64  92 123 163 216 266 311 375
#     4  10  21  38  59  88 120 155 201 251 312 379
#     4  10  23  41  60  90 131 169 211 262 317 374
#     4   8  16  29  49  78 105 140 190 228 276 352
#     4   8  16  35  57  78 112 151 187 238 302 359
#     4  10  21  35  56  88 114 146 202 247 290 362
#     4  10  21  36  58  82 121 160 186 251 322 360
#
# _framework density 20.346546
#
# number of rings (size 3 to 8) (size 9 to 14) (size 15 to 20)
#    0.000    2.727    0.000    2.182    1.273   10.909 
#    3.273    5.455    0.000    2.182    0.000    2.545 
#    0.000    0.000    0.000    0.000    0.000    0.000 
#
# Total GULP energy -245397.949593 kJ/mol
# GULP energy per Si atom -5577.226127 kJ/mol
# Density = 2.030024 g / cm^3
# Si number density = 20.346546 Si / 1000 Ang^3
#
#
#
# Elastic Constant Matrix: (Units=GPa)
#
#
# Indices 1 2 3 4 5 6 
#
# 1 109.1340 44.7899 21.6110 0.0000 0.0000 0.0000
# 2 44.7899 114.5368 45.7356 0.0000 0.0000 0.0000
# 3 21.6110 45.7356 78.1878 0.0000 0.0000 0.0000
# 4 0.0000 0.0000 0.0000 27.1021 0.0000 0.0000
# 5 0.0000 0.0000 0.0000 0.0000 -1.8007 0.0000
# 6 0.0000 0.0000 0.0000 0.0000 0.0000 19.4184
#
#
#
# Elastic Compliance Matrix: (Units=1/GPa)
#
#
# Indices 1 2 3 4 5 6 
#
# 1 0.010942 -0.004007 -0.000680 0.000000 0.000000 0.000000
# 2 -0.004007 0.012859 -0.006414 0.000000 0.000000 0.000000
# 3 -0.000680 -0.006414 0.016730 0.000000 0.000000 0.000000
# 4 0.000000 0.000000 0.000000 0.036898 0.000000 0.000000
# 5 0.000000 0.000000 0.000000 0.000000 -0.555333 0.000000
# 6 0.000000 0.000000 0.000000 0.000000 0.000000 0.051498
#
#
# Mechanical properties :
#
#
# Convention : Reuss Voigt Hill
#
# Bulk Modulus (GPa) = 54.56335 58.45906 56.51120
# Shear Modulus (GPa) = -12.55988 21.59209 4.51611
#
# Velocity S-wave (km/s) = -2.48724 3.26117 1.49145
# Velocity P-wave (km/s) = 4.31587 6.55548 5.54982
#
# Compressibility (1/GPa) = 0.01832732
#
# Stress axis : x y z
#
# Youngs Moduli (GPa) = 91.38713 77.76528 59.77369
#
# Poissons Ratio (x) = 0.31164 0.04067
# Poissons Ratio (y) = 0.36622 0.38341
# Poissons Ratio (z) = 0.06218 0.49881
#
# Static dielectric constant tensor:
#      x y z
#    x 1.740420 0.000000 0.000000 
#    y 0.000000 1.764250 0.000000 
#    z 0.000000 0.000000 1.714040 
# 
# From -- ./inp_files/38337.got.cif
#   From: 2010.05.17/outbox.cif.g08.bks.cpg/sg67_20_cif.got.tgz:38337.got - 2010.06.03 18:28:57.
