data_PCOD9503451
_publ_section_title
;
Structure prediction by ZEFSAII (Michael W. Deem and Ramdas Pophale) SiO2 
 PCOD9503451
Probable space group: C M M A
;
_chemical_formula_sum "Si O2"
_cell_formula_units_Z 112
_cell_length_a 15.443122
_cell_length_b 22.752928
_cell_length_c 15.742960
_cell_angle_alpha 90.000000
_cell_angle_beta 90.000000
_cell_angle_gamma 90.000000
_cell_volume 5531.702138
_symmetry_space_group_name_H-M "C M M A"
_symmetry_group_IT_number 67
_symmetry_cell_setting 'orthorhombic'
loop_
_space_group_symop_operation_xyz
x,y,z
-x,1/2-y,z
x,-y,-z
-x,1/2+y,-z
-x,-y,-z
x,1/2+y,-z
-x,y,z
x,1/2-y,z
1/2+x,1/2+y,z
1/2-x,-y,z
1/2+x,1/2-y,-z
1/2-x,y,-z
1/2-x,1/2-y,-z
1/2+x,y,-z
1/2-x,1/2+y,z
1/2+x,-y,z
loop_
_atom_site_type_symbol
_atom_site_label
_atom_site_fract_x
_atom_site_fract_y
_atom_site_fract_z
Si Si1 0.604539 0.899813 0.296878
Si Si2 0.269605 0.816790 0.406121
Si Si3 0.159072 0.424712 0.956262
Si Si4 0.600148 0.317578 0.140825
Si Si5 0.099867 0.141549 0.667468
Si Si6 0.604007 0.515435 0.593400
Si Si7 0.902764 0.036863 0.130032
O O1 0.500000 0.885999 0.300789
O O2 0.663732 0.852488 0.346219
O O3 0.630105 0.916162 0.199511
O O4 0.620516 0.960831 0.345865
O O5 0.302227 0.750000 0.416578
O O6 0.250000 0.842633 0.500000
O O7 0.174126 0.816166 0.366050
O O8 0.152232 0.359745 0.920724
O O9 0.143699 0.474261 0.884421
O O10 0.250000 0.434577 0.000000
O O11 0.095611 0.435660 0.035765
O O12 0.500000 0.316979 0.112162
O O13 0.629510 0.250000 0.147243
O O14 0.600338 0.349067 0.232044
O O15 0.129158 0.077022 0.635760
O O16 0.000000 0.152307 0.638765
O O17 0.639239 0.500000 0.500000
O O18 0.500000 0.520235 0.585029
O O19 0.000000 0.022243 0.159032
#
# Coordination Sequence:
#
# PCOD9503451 Si02
#       7
#    16  16  16  16  16  16  16
#     4  10  22  40  63  90 124 164 208 258 316 377
#     4  11  25  42  61  89 126 169 215 261 312 379
#     4  11  22  36  59  91 126 159 199 254 316 382
#     4  10  21  38  60  85 116 160 211 259 307 367
#     4  10  21  39  63  90 122 161 207 262 320 375
#     4   9  17  32  57  88 119 150 191 247 309 369
#     4  10  20  38  61  85 119 162 203 250 310 380
#
# _framework density 20.246932000000001
#
# number of rings (size 3 to 8) (size 9 to 14) (size 15 to 20)
#    0.000    1.857    0.000    4.714    2.000    6.000 
#    2.571    3.571    0.000    0.857    0.000    0.000 
#    0.000    0.000    0.000    0.000    0.000    0.000 
#
# Total GULP energy -312245.095307 kJ/mol
# GULP energy per Si atom -5575.805273 kJ/mol
# Density = 2.020085 g / cm^3
# Si number density = 20.246932 Si / 1000 Ang^3
#
#
#
# Elastic Constant Matrix: (Units=GPa)
#
#
# Indices 1 2 3 4 5 6 
#
# 1 80.3251 35.1111 32.8412 0.0000 0.0000 0.0000
# 2 35.1111 139.7313 52.7471 0.0000 0.0000 0.0000
# 3 32.8412 52.7471 92.1575 0.0000 0.0000 0.0000
# 4 0.0000 0.0000 0.0000 7.1667 0.0000 0.0000
# 5 0.0000 0.0000 0.0000 0.0000 20.8137 0.0000
# 6 0.0000 0.0000 0.0000 0.0000 0.0000 12.8499
#
#
#
# Elastic Compliance Matrix: (Units=1/GPa)
#
#
# Indices 1 2 3 4 5 6 
#
# 1 0.015108 -0.002250 -0.004096 0.000000 0.000000 0.000000
# 2 -0.002250 0.009464 -0.004615 0.000000 0.000000 0.000000
# 3 -0.004096 -0.004615 0.014952 0.000000 0.000000 0.000000
# 4 0.000000 0.000000 0.000000 0.139534 0.000000 0.000000
# 5 0.000000 0.000000 0.000000 0.000000 0.048045 0.000000
# 6 0.000000 0.000000 0.000000 0.000000 0.000000 0.077821
#
#
# Mechanical properties :
#
#
# Convention : Reuss Voigt Hill
#
# Bulk Modulus (GPa) = 56.81240 61.51253 59.16246
# Shear Modulus (GPa) = 15.02797 20.93371 17.98084
#
# Velocity S-wave (km/s) = 2.72735 3.21895 2.98330
# Velocity P-wave (km/s) = 6.16755 6.65302 6.41488
#
# Compressibility (1/GPa) = 0.01760179
#
# Stress axis : x y z
#
# Youngs Moduli (GPa) = 66.19213 105.66253 66.88035
#
# Poissons Ratio (x) = 0.23774 0.27394
# Poissons Ratio (y) = 0.14893 0.30866
# Poissons Ratio (z) = 0.27112 0.48764
#
# Static dielectric constant tensor:
#      x y z
#    x 1.852100 0.000000 0.000000 
#    y 0.000000 1.712920 0.000000 
#    z 0.000000 0.000000 1.770520 
# 
# From -- ./inp_files/27526.got.cif
#   From: 2010.05.17/outbox.cif.g08.bks.cpg/sg67_14_cif.got.tgz:27526.got - 2010.06.03 18:28:57.
