data_PCOD9503039
_publ_section_title
;
Structure prediction by ZEFSAII (Michael W. Deem and Ramdas Pophale) SiO2 
 PCOD9503039
Probable space group: C M M A
;
_chemical_formula_sum "Si O2"
_cell_formula_units_Z 64
_cell_length_a 18.273949
_cell_length_b 14.942507
_cell_length_c 10.427042
_cell_angle_alpha 90.000000
_cell_angle_beta 90.000000
_cell_angle_gamma 90.000000
_cell_volume 2847.193604
_symmetry_space_group_name_H-M "C M M A"
_symmetry_group_IT_number 67
_symmetry_cell_setting 'orthorhombic'
loop_
_space_group_symop_operation_xyz
x,y,z
-x,1/2-y,z
x,-y,-z
-x,1/2+y,-z
-x,-y,-z
x,1/2+y,-z
-x,y,z
x,1/2-y,z
1/2+x,1/2+y,z
1/2-x,-y,z
1/2+x,1/2-y,-z
1/2-x,y,-z
1/2-x,1/2-y,-z
1/2+x,y,-z
1/2-x,1/2+y,z
1/2+x,-y,z
loop_
_atom_site_type_symbol
_atom_site_label
_atom_site_fract_x
_atom_site_fract_y
_atom_site_fract_z
Si Si1 0.081453 0.395038 0.966124
Si Si2 0.299797 0.850178 0.625608
Si Si3 0.162775 0.351749 0.208645
Si Si4 0.584242 0.028000 0.307083
O O1 0.091361 0.402532 0.814345
O O2 0.000000 0.357713 0.995579
O O3 0.078905 0.500000 0.000000
O O4 0.143665 0.354623 0.056888
O O5 0.329500 0.750000 0.645394
O O6 0.250000 0.847868 0.500000
O O7 0.245244 0.872373 0.744722
O O8 0.360803 0.923617 0.598673
O O9 0.147542 0.250000 0.253828
O O10 0.112200 0.429871 0.267142
O O11 0.500000 0.024123 0.343798
#
# Coordination Sequence:
#
# PCOD9503039 Si02
#       4
#    16  16  16  16
#     4   8  16  32  53  82 120 155 189 233 285 344
#     4  10  23  43  62  82 114 156 202 251 297 345
#     4  10  20  35  59  89 122 159 194 236 294 354
#     4  10  21  38  62  90 119 154 197 244 296 355
#
# _framework density 22.478275
#
# number of rings (size 3 to 8) (size 9 to 14) (size 15 to 20)
#    0.000    2.500    0.000    3.000    0.000    6.500 
#    0.000   12.500    0.000    9.000    0.000    0.000 
#    0.000    0.000    0.000    0.000    0.000    0.000 
#
# Total GULP energy -178500.671551 kJ/mol
# GULP energy per Si atom -5578.145986 kJ/mol
# Density = 2.242711 g / cm^3
# Si number density = 22.478275 Si / 1000 Ang^3
#
#
#
# Elastic Constant Matrix: (Units=GPa)
#
#
# Indices 1 2 3 4 5 6 
#
# 1 123.0202 83.1329 7.6824 0.0000 0.0000 0.0000
# 2 83.1329 137.0397 16.8748 0.0000 0.0000 0.0000
# 3 7.6824 16.8748 35.6660 0.0000 0.0000 0.0000
# 4 0.0000 0.0000 0.0000 28.9255 0.0000 0.0000
# 5 0.0000 0.0000 0.0000 0.0000 12.7969 0.0000
# 6 0.0000 0.0000 0.0000 0.0000 0.0000 48.0804
#
#
#
# Elastic Compliance Matrix: (Units=1/GPa)
#
#
# Indices 1 2 3 4 5 6 
#
# 1 0.013813 -0.008509 0.001051 0.000000 0.000000 0.000000
# 2 -0.008509 0.012990 -0.004313 0.000000 0.000000 0.000000
# 3 0.001051 -0.004313 0.029852 0.000000 0.000000 0.000000
# 4 0.000000 0.000000 0.000000 0.034572 0.000000 0.000000
# 5 0.000000 0.000000 0.000000 0.000000 0.078144 0.000000
# 6 0.000000 0.000000 0.000000 0.000000 0.000000 0.020799
#
#
# Mechanical properties :
#
#
# Convention : Reuss Voigt Hill
#
# Bulk Modulus (GPa) = 30.20016 56.78955 43.49485
# Shear Modulus (GPa) = 22.24687 30.49626 26.37157
#
# Velocity S-wave (km/s) = 3.14937 3.68734 3.42892
# Velocity P-wave (km/s) = 5.16615 6.59148 5.92186
#
# Compressibility (1/GPa) = 0.03311241
#
# Stress axis : x y z
#
# Youngs Moduli (GPa) = 72.39462 76.98190 33.49815
#
# Poissons Ratio (x) = 0.65503 -0.03519
# Poissons Ratio (y) = 0.61600 0.14449
# Poissons Ratio (z) = -0.07605 0.33204
#
# Static dielectric constant tensor:
#      x y z
#    x 1.839280 0.000000 0.000000 
#    y 0.000000 1.799270 0.000000 
#    z 0.000000 0.000000 2.066420 
# 
# From -- ./inp_files/17509.got.cif
#   From: 2010.05.17/outbox.cif.g08.bks.cpg/sg67_9_cif.got.tgz:17509.got - 2010.06.03 18:28:57.
