data_PCOD9503065
_publ_section_title
;
Structure prediction by ZEFSAII (Michael W. Deem and Ramdas Pophale) SiO2 
 PCOD9503065
Probable space group: C M M A
;
_chemical_formula_sum "Si O2"
_cell_formula_units_Z 72
_cell_length_a 18.079095
_cell_length_b 14.634580
_cell_length_c 15.348207
_cell_angle_alpha 90.000000
_cell_angle_beta 90.000000
_cell_angle_gamma 90.000000
_cell_volume 4060.828026
_symmetry_space_group_name_H-M "C M M A"
_symmetry_group_IT_number 67
_symmetry_cell_setting 'orthorhombic'
loop_
_space_group_symop_operation_xyz
x,y,z
-x,1/2-y,z
x,-y,-z
-x,1/2+y,-z
-x,-y,-z
x,1/2+y,-z
-x,y,z
x,1/2-y,z
1/2+x,1/2+y,z
1/2-x,-y,z
1/2+x,1/2-y,-z
1/2-x,y,-z
1/2-x,1/2-y,-z
1/2+x,y,-z
1/2-x,1/2+y,z
1/2+x,-y,z
loop_
_atom_site_type_symbol
_atom_site_label
_atom_site_fract_x
_atom_site_fract_y
_atom_site_fract_z
Si Si1 0.140509 0.250000 0.195226
Si Si2 0.916154 0.250000 0.383563
Si Si3 0.414331 0.569152 0.918759
Si Si4 0.410275 0.552625 0.411830
Si Si5 0.339862 0.750000 0.993441
Si Si6 0.168896 0.540405 0.767922
O O1 0.083813 0.250000 0.277600
O O2 0.175648 0.350597 0.211435
O O3 0.124873 0.250000 0.091563
O O4 0.882853 0.157097 0.418351
O O5 0.000000 0.250000 0.414399
O O6 0.500000 0.593310 0.900436
O O7 0.368324 0.659550 0.944016
O O8 0.378299 0.511671 0.840982
O O9 0.413284 0.500000 0.000000
O O10 0.392654 0.500000 0.500000
O O11 0.500000 0.551047 0.400369
O O12 0.371929 0.520863 0.323378
O O13 0.250000 0.750000 0.000000
O O14 0.250000 0.500000 0.766278
#
# Coordination Sequence:
#
# PCOD9503065 Si02
#       6
#     8   8  16  16   8  16
#     4  10  20  36  54  81 107 148 197 242 284 337
#     4   8  16  30  54  82 106 135 183 236 280 338
#     4  11  24  39  58  86 119 155 198 247 301 353
#     4   9  18  35  58  84 113 146 188 239 296 354
#     4  12  23  38  60  83 120 160 203 246 294 355
#     4  11  22  38  60  84 117 154 198 244 300 359
#
# _framework density 17.730374000000001
#
# number of rings (size 3 to 8) (size 9 to 14) (size 15 to 20)
#    0.000    1.778    2.222    2.333    0.000    2.222 
#    0.000    2.222    0.000    6.667    0.000    0.000 
#    0.000    0.000    0.000    0.000    0.000    0.000 
#
# Total GULP energy -200460.828383 kJ/mol
# GULP energy per Si atom -5568.356344 kJ/mol
# Density = 1.769002 g / cm^3
# Si number density = 17.730374 Si / 1000 Ang^3
#
#
#
# Elastic Constant Matrix: (Units=GPa)
#
#
# Indices 1 2 3 4 5 6 
#
# 1 103.4557 69.4598 52.0290 0.0000 0.0000 0.0000
# 2 69.4598 139.1555 67.8871 0.0000 0.0000 0.0000
# 3 52.0290 67.8871 145.5791 0.0000 0.0000 0.0000
# 4 0.0000 0.0000 0.0000 27.3450 0.0000 0.0000
# 5 0.0000 0.0000 0.0000 0.0000 15.4839 0.0000
# 6 0.0000 0.0000 0.0000 0.0000 0.0000 6.8287
#
#
#
# Elastic Compliance Matrix: (Units=1/GPa)
#
#
# Indices 1 2 3 4 5 6 
#
# 1 0.015184 -0.006384 -0.002450 0.000000 0.000000 0.000000
# 2 -0.006384 0.011987 -0.003308 0.000000 0.000000 0.000000
# 3 -0.002450 -0.003308 0.009287 0.000000 0.000000 0.000000
# 4 0.000000 0.000000 0.000000 0.036570 0.000000 0.000000
# 5 0.000000 0.000000 0.000000 0.000000 0.064583 0.000000
# 6 0.000000 0.000000 0.000000 0.000000 0.000000 0.146441
#
#
# Mechanical properties :
#
#
# Convention : Reuss Voigt Hill
#
# Bulk Modulus (GPa) = 82.13925 85.21579 83.67752
# Shear Modulus (GPa) = 16.00543 23.18581 19.59562
#
# Velocity S-wave (km/s) = 3.00778 3.62012 3.32806
# Velocity P-wave (km/s) = 7.64786 8.10186 7.87813
#
# Compressibility (1/GPa) = 0.01217445
#
# Stress axis : x y z
#
# Youngs Moduli (GPa) = 65.85773 83.42572 107.67487
#
# Poissons Ratio (x) = 0.53261 0.26377
# Poissons Ratio (y) = 0.42045 0.35619
# Poissons Ratio (z) = 0.16133 0.27597
#
# Static dielectric constant tensor:
#      x y z
#    x 1.601230 0.000000 0.000000 
#    y 0.000000 1.622450 0.000000 
#    z 0.000000 0.000000 1.590470 
# 
# From -- ./inp_files/28299.got.cif
#   From: 2010.05.17/outbox.cif.g08.bks.cpg/sg67_15_cif.got.tgz:28299.got - 2010.06.03 18:28:57.
