data_PCOD9503293
_publ_section_title
;
Structure prediction by ZEFSAII (Michael W. Deem and Ramdas Pophale) SiO2 
 PCOD9503293
Probable space group: C M M A
;
_chemical_formula_sum "Si O2"
_cell_formula_units_Z 80
_cell_length_a 20.158047
_cell_length_b 24.103655
_cell_length_c 8.432110
_cell_angle_alpha 90.000000
_cell_angle_beta 90.000000
_cell_angle_gamma 90.000000
_cell_volume 4097.015618
_symmetry_space_group_name_H-M "C M M A"
_symmetry_group_IT_number 67
_symmetry_cell_setting 'orthorhombic'
loop_
_space_group_symop_operation_xyz
x,y,z
-x,1/2-y,z
x,-y,-z
-x,1/2+y,-z
-x,-y,-z
x,1/2+y,-z
-x,y,z
x,1/2-y,z
1/2+x,1/2+y,z
1/2-x,-y,z
1/2+x,1/2-y,-z
1/2-x,y,-z
1/2-x,1/2-y,-z
1/2+x,y,-z
1/2-x,1/2+y,z
1/2+x,-y,z
loop_
_atom_site_type_symbol
_atom_site_label
_atom_site_fract_x
_atom_site_fract_y
_atom_site_fract_z
Si Si1 0.427908 0.527241 0.828754
Si Si2 0.775632 0.250000 0.678855
Si Si3 0.573068 0.750000 0.757318
Si Si4 0.190453 0.969447 0.670516
Si Si5 0.710389 0.858455 0.162009
Si Si6 0.423413 0.858219 0.975937
O O1 0.500000 0.530647 0.750832
O O2 0.379083 0.486734 0.740609
O O3 0.404097 0.589624 0.863956
O O4 0.434099 0.500000 0.000000
O O5 0.750000 0.250000 0.500000
O O6 0.855984 0.250000 0.670700
O O7 0.746902 0.196169 0.771426
O O8 0.500000 0.750000 0.673692
O O9 0.574466 0.696228 0.869095
O O10 0.206666 0.905267 0.700218
O O11 0.188605 0.000000 0.500000
O O12 0.250000 0.000000 0.762416
O O13 0.750000 0.875331 0.000000
O O14 0.633861 0.850441 0.106229
O O15 0.500000 0.868931 0.032654
#
# Coordination Sequence:
#
# PCOD9503293 Si02
#       6
#    16   8   8  16  16  16
#     4  10  20  37  61  91 123 167 224 269 315 385
#     4  12  28  42  67 101 136 174 216 279 343 396
#     4  10  21  41  66  94 129 171 220 275 327 391
#     4  11  26  39  59  93 134 172 215 269 337 397
#     4  12  23  42  68  94 129 171 226 276 330 396
#     4  10  20  36  65  97 126 162 221 280 320 378
#
# _framework density 19.526408
#
# number of rings (size 3 to 8) (size 9 to 14) (size 15 to 20)
#    0.000    1.200    4.000    2.100    2.800    0.400 
#    0.000    1.000    0.000    0.000    0.000    0.000 
#    0.000    0.000    0.000    0.000    0.000    0.000 
#
# Total GULP energy -222775.941561 kJ/mol
# GULP energy per Si atom -5569.398539 kJ/mol
# Density = 1.948197 g / cm^3
# Si number density = 19.526408 Si / 1000 Ang^3
#
#
#
# Elastic Constant Matrix: (Units=GPa)
#
#
# Indices 1 2 3 4 5 6 
#
# 1 142.6465 23.8318 35.9776 0.0000 0.0000 0.0000
# 2 23.8318 146.0215 25.6579 0.0000 0.0000 0.0000
# 3 35.9776 25.6579 68.2133 0.0000 0.0000 0.0000
# 4 0.0000 0.0000 0.0000 18.8588 0.0000 0.0000
# 5 0.0000 0.0000 0.0000 0.0000 15.4885 0.0000
# 6 0.0000 0.0000 0.0000 0.0000 0.0000 30.2278
#
#
#
# Elastic Compliance Matrix: (Units=1/GPa)
#
#
# Indices 1 2 3 4 5 6 
#
# 1 0.008137 -0.000615 -0.004061 0.000000 0.000000 0.000000
# 2 -0.000615 0.007379 -0.002452 0.000000 0.000000 0.000000
# 3 -0.004061 -0.002452 0.017724 0.000000 0.000000 0.000000
# 4 0.000000 0.000000 0.000000 0.053026 0.000000 0.000000
# 5 0.000000 0.000000 0.000000 0.000000 0.064564 0.000000
# 6 0.000000 0.000000 0.000000 0.000000 0.000000 0.033082
#
#
# Mechanical properties :
#
#
# Convention : Reuss Voigt Hill
#
# Bulk Modulus (GPa) = 52.66817 58.64624 55.65720
# Shear Modulus (GPa) = 24.45055 31.00929 27.72992
#
# Velocity S-wave (km/s) = 3.54245 3.98938 3.77254
# Velocity P-wave (km/s) = 6.61538 7.16378 6.89504
#
# Compressibility (1/GPa) = 0.01898680
#
# Stress axis : x y z
#
# Youngs Moduli (GPa) = 122.89311 135.51277 56.42160
#
# Poissons Ratio (x) = 0.08328 0.22911
# Poissons Ratio (y) = 0.07552 0.13832
# Poissons Ratio (z) = 0.49902 0.33222
#
# Static dielectric constant tensor:
#      x y z
#    x 1.850600 0.000000 0.000000 
#    y 0.000000 1.689530 0.000000 
#    z 0.000000 0.000000 1.649120 
# 
# From -- ./inp_files/10016.got.cif
#   From: 2010.05.17/outbox.cif.g08.bks.cpg/sg67_6_cif.got.tgz:10016.got - 2010.06.03 18:28:57.
