data_PCOD9503788
_publ_section_title
;
Structure prediction by ZEFSAII (Michael W. Deem and Ramdas Pophale) SiO2 
 PCOD9503788
Probable space group: C M M A
;
_chemical_formula_sum "Si O2"
_cell_formula_units_Z 88
_cell_length_a 8.777406
_cell_length_b 31.400515
_cell_length_c 17.605251
_cell_angle_alpha 90.000000
_cell_angle_beta 90.000000
_cell_angle_gamma 90.000000
_cell_volume 4852.272465
_symmetry_space_group_name_H-M "C M M A"
_symmetry_group_IT_number 67
_symmetry_cell_setting 'orthorhombic'
loop_
_space_group_symop_operation_xyz
x,y,z
-x,1/2-y,z
x,-y,-z
-x,1/2+y,-z
-x,-y,-z
x,1/2+y,-z
-x,y,z
x,1/2-y,z
1/2+x,1/2+y,z
1/2-x,-y,z
1/2+x,1/2-y,-z
1/2-x,y,-z
1/2-x,1/2-y,-z
1/2+x,y,-z
1/2-x,1/2+y,z
1/2+x,-y,z
loop_
_atom_site_type_symbol
_atom_site_label
_atom_site_fract_x
_atom_site_fract_y
_atom_site_fract_z
Si Si1 0.681865 0.576005 0.420099
Si Si2 0.823702 0.662466 0.367141
Si Si3 0.815973 0.955116 0.260647
Si Si4 0.675252 0.867464 0.807070
Si Si5 0.818284 0.750000 0.584009
Si Si6 0.181838 0.702071 0.916045
O O1 0.500000 0.572088 0.419892
O O2 0.750000 0.560176 0.500000
O O3 0.733119 0.625267 0.410181
O O4 0.752064 0.553598 0.345550
O O5 0.823654 0.650863 0.278392
O O6 0.745122 0.707572 0.377512
O O7 0.000000 0.663186 0.393511
O O8 0.768970 0.915883 0.206012
O O9 0.000000 0.955206 0.264485
O O10 0.750000 0.000000 0.234431
O O11 0.500000 0.869030 0.833529
O O12 0.764506 0.835542 0.861132
O O13 0.750000 0.750000 0.500000
O O14 0.000000 0.750000 0.582821
O O15 0.228754 0.750000 0.889497
O O16 0.000000 0.701556 0.920809
O O17 0.250000 0.696294 0.000000
#
# Coordination Sequence:
#
# PCOD9503788 Si02
#       6
#    16  16  16  16   8  16
#     4  11  21  35  54  76 104 140 181 232 286 339
#     4  10  21  37  53  74 103 140 183 228 279 333
#     4  10  21  38  58  83 111 144 186 232 283 338
#     4   9  20  37  58  82 112 147 181 222 274 330
#     4  12  24  36  50  70  99 138 185 234 280 330
#     4  10  21  36  57  87 120 153 187 224 266 320
#
# _framework density 18.135833000000002
#
# number of rings (size 3 to 8) (size 9 to 14) (size 15 to 20)
#    0.000    1.818    0.000    5.727    1.273    5.818 
#    0.000    1.818    0.000    0.545    0.000    3.818 
#    0.000    0.000    0.000    0.000    0.000    0.000 
#
# Total GULP energy -245717.529481 kJ/mol
# GULP energy per Si atom -5584.489306 kJ/mol
# Density = 1.809456 g / cm^3
# Si number density = 18.135833 Si / 1000 Ang^3
#
#
#
# Elastic Constant Matrix: (Units=GPa)
#
#
# Indices 1 2 3 4 5 6 
#
# 1 108.0564 50.7986 33.8182 0.0000 0.0000 0.0000
# 2 50.7986 152.9945 48.7971 0.0000 0.0000 0.0000
# 3 33.8182 48.7971 62.1378 0.0000 0.0000 0.0000
# 4 0.0000 0.0000 0.0000 10.5844 0.0000 0.0000
# 5 0.0000 0.0000 0.0000 0.0000 31.8284 0.0000
# 6 0.0000 0.0000 0.0000 0.0000 0.0000 31.4800
#
#
#
# Elastic Compliance Matrix: (Units=1/GPa)
#
#
# Indices 1 2 3 4 5 6 
#
# 1 0.011831 -0.002501 -0.004475 0.000000 0.000000 0.000000
# 2 -0.002501 0.009249 -0.005902 0.000000 0.000000 0.000000
# 3 -0.004475 -0.005902 0.023164 0.000000 0.000000 0.000000
# 4 0.000000 0.000000 0.000000 0.094479 0.000000 0.000000
# 5 0.000000 0.000000 0.000000 0.000000 0.031418 0.000000
# 6 0.000000 0.000000 0.000000 0.000000 0.000000 0.031766
#
#
# Mechanical properties :
#
#
# Convention : Reuss Voigt Hill
#
# Bulk Modulus (GPa) = 54.09047 65.55738 59.82392
# Shear Modulus (GPa) = 21.38352 27.43022 24.40687
#
# Velocity S-wave (km/s) = 3.43749 3.89329 3.67247
# Velocity P-wave (km/s) = 6.75611 7.51244 7.14429
#
# Compressibility (1/GPa) = 0.01848755
#
# Stress axis : x y z
#
# Youngs Moduli (GPa) = 84.52672 108.11928 43.17102
#
# Poissons Ratio (x) = 0.27039 0.19318
# Poissons Ratio (y) = 0.21139 0.25481
# Poissons Ratio (z) = 0.37824 0.63814
#
# Static dielectric constant tensor:
#      x y z
#    x 1.611970 0.000000 0.000000 
#    y 0.000000 1.636500 0.000000 
#    z 0.000000 0.000000 1.586930 
# 
# From -- ./inp_files/32410.got.cif
#   From: 2010.05.17/outbox.cif.g08.bks.cpg/sg67_17_cif.got.tgz:32410.got - 2010.06.03 18:28:57.
