data_PCOD9503336
_publ_section_title
;
Structure prediction by ZEFSAII (Michael W. Deem and Ramdas Pophale) SiO2 
 PCOD9503336
Probable space group: C M M A
;
_chemical_formula_sum "Si O2"
_cell_formula_units_Z 88
_cell_length_a 22.053383
_cell_length_b 11.497294
_cell_length_c 18.393835
_cell_angle_alpha 90.000000
_cell_angle_beta 90.000000
_cell_angle_gamma 90.000000
_cell_volume 4663.834634
_symmetry_space_group_name_H-M "C M M A"
_symmetry_group_IT_number 67
_symmetry_cell_setting 'orthorhombic'
loop_
_space_group_symop_operation_xyz
x,y,z
-x,1/2-y,z
x,-y,-z
-x,1/2+y,-z
-x,-y,-z
x,1/2+y,-z
-x,y,z
x,1/2-y,z
1/2+x,1/2+y,z
1/2-x,-y,z
1/2+x,1/2-y,-z
1/2-x,y,-z
1/2-x,1/2-y,-z
1/2+x,y,-z
1/2-x,1/2+y,z
1/2+x,-y,z
loop_
_atom_site_type_symbol
_atom_site_label
_atom_site_fract_x
_atom_site_fract_y
_atom_site_fract_z
Si Si1 0.067655 0.750000 0.657542
Si Si2 0.929292 0.503211 0.582460
Si Si3 0.318598 0.250000 0.028104
Si Si4 0.566855 0.550687 0.152295
Si Si5 0.892706 0.620018 0.275108
Si Si6 0.150602 0.750000 0.796185
Si Si7 0.294627 0.750000 0.800395
Si Si8 0.383201 0.000000 0.000000
O O1 0.071554 0.864486 0.609391
O O2 0.120492 0.750000 0.716534
O O3 0.000000 0.750000 0.692326
O O4 0.906387 0.500000 0.500000
O O5 0.894612 0.430993 0.644187
O O6 0.000000 0.463428 0.582193
O O7 0.317165 0.250000 0.116320
O O8 0.347521 0.374674 0.002652
O O9 0.250000 0.250000 0.000000
O O10 0.500000 0.604823 0.154328
O O11 0.572013 0.460960 0.218929
O O12 0.621482 0.639436 0.164812
O O13 0.577568 0.496641 0.073426
O O14 0.919229 0.750000 0.275938
O O15 0.825598 0.640935 0.241354
O O16 0.222638 0.750000 0.797021
#
# Coordination Sequence:
#
# PCOD9503336 Si02
#       8
#     8  16   8  16  16   8   8   8
#     4  10  20  37  59  94 126 156 205 260 321 373
#     4  10  21  37  63  96 129 165 207 266 324 382
#     4  12  24  43  66  92 132 173 226 284 326 383
#     4  12  24  41  65  94 127 166 211 266 332 392
#     4  10  22  42  61  91 128 167 214 255 314 381
#     4  12  24  41  67  93 126 163 216 267 318 379
#     4  10  24  45  62  94 123 178 221 261 313 391
#     4  12  24  44  60  96 130 171 219 272 338 398
#
# _framework density 18.868594000000002
#
# number of rings (size 3 to 8) (size 9 to 14) (size 15 to 20)
#    0.545    0.545    3.636    3.545    1.273    2.182 
#    0.000    0.909    0.000    3.273    0.000    0.000 
#    0.000    0.000    0.000    0.000    0.000    0.000 
#
# Total GULP energy -245362.514009 kJ/mol
# GULP energy per Si atom -5576.420773 kJ/mol
# Density = 1.882565 g / cm^3
# Si number density = 18.868594 Si / 1000 Ang^3
#
#
#
# Elastic Constant Matrix: (Units=GPa)
#
#
# Indices 1 2 3 4 5 6 
#
# 1 113.0390 28.7003 40.9806 0.0000 0.0000 0.0000
# 2 28.7003 96.3942 40.0170 0.0000 0.0000 0.0000
# 3 40.9806 40.0170 172.7719 0.0000 0.0000 0.0000
# 4 0.0000 0.0000 0.0000 38.5861 0.0000 0.0000
# 5 0.0000 0.0000 0.0000 0.0000 33.1988 0.0000
# 6 0.0000 0.0000 0.0000 0.0000 0.0000 26.9123
#
#
#
# Elastic Compliance Matrix: (Units=1/GPa)
#
#
# Indices 1 2 3 4 5 6 
#
# 1 0.010092 -0.002225 -0.001879 0.000000 0.000000 0.000000
# 2 -0.002225 0.011968 -0.002244 0.000000 0.000000 0.000000
# 3 -0.001879 -0.002244 0.006753 0.000000 0.000000 0.000000
# 4 0.000000 0.000000 0.000000 0.025916 0.000000 0.000000
# 5 0.000000 0.000000 0.000000 0.000000 0.030122 0.000000
# 6 0.000000 0.000000 0.000000 0.000000 0.000000 0.037158
#
#
# Mechanical properties :
#
#
# Convention : Reuss Voigt Hill
#
# Bulk Modulus (GPa) = 62.04111 66.84454 64.44283
# Shear Modulus (GPa) = 35.69439 37.90658 36.80049
#
# Velocity S-wave (km/s) = 4.35413 4.48702 4.42108
# Velocity P-wave (km/s) = 7.63085 7.89606 7.76459
#
# Compressibility (1/GPa) = 0.01611834
#
# Stress axis : x y z
#
# Youngs Moduli (GPa) = 99.08371 83.55438 148.07426
#
# Poissons Ratio (x) = 0.18592 0.27816
# Poissons Ratio (y) = 0.22047 0.33232
# Poissons Ratio (z) = 0.18613 0.18752
#
# Static dielectric constant tensor:
#      x y z
#    x 1.645410 0.000000 0.000000 
#    y 0.000000 1.693980 0.000000 
#    z 0.000000 0.000000 1.655300 
# 
# From -- ./inp_files/34936.got.cif
#   From: 2010.05.17/outbox.cif.g08.bks.cpg/sg67_18_cif.got.tgz:34936.got - 2010.06.03 18:28:57.
