data_PCOD9503309
_publ_section_title
;
Structure prediction by ZEFSAII (Michael W. Deem and Ramdas Pophale) SiO2 
 PCOD9503309
Probable space group: C M M A
;
_chemical_formula_sum "Si O2"
_cell_formula_units_Z 108
_cell_length_a 15.088970
_cell_length_b 14.512551
_cell_length_c 22.890636
_cell_angle_alpha 90.000000
_cell_angle_beta 90.000000
_cell_angle_gamma 90.000000
_cell_volume 5012.578805
_symmetry_space_group_name_H-M "C M M A"
_symmetry_group_IT_number 67
_symmetry_cell_setting 'orthorhombic'
loop_
_space_group_symop_operation_xyz
x,y,z
-x,1/2-y,z
x,-y,-z
-x,1/2+y,-z
-x,-y,-z
x,1/2+y,-z
-x,y,z
x,1/2-y,z
1/2+x,1/2+y,z
1/2-x,-y,z
1/2+x,1/2-y,-z
1/2-x,y,-z
1/2-x,1/2-y,-z
1/2+x,y,-z
1/2-x,1/2+y,z
1/2+x,-y,z
loop_
_atom_site_type_symbol
_atom_site_label
_atom_site_fract_x
_atom_site_fract_y
_atom_site_fract_z
Si Si1 0.181656 0.650753 0.553124
Si Si2 0.904417 0.975993 0.278599
Si Si3 0.396989 0.137540 0.048256
Si Si4 0.846279 0.355405 0.825038
Si Si5 0.605389 0.645898 0.076324
Si Si6 0.250000 0.500000 0.639127
Si Si7 0.358464 0.855763 0.204028
Si Si8 0.500000 0.750000 0.469682
O O1 0.209183 0.750000 0.580208
O O2 0.250000 0.634105 0.500000
O O3 0.195862 0.570827 0.599304
O O4 0.080746 0.670735 0.532997
O O5 0.822737 0.951559 0.319896
O O6 0.891433 0.080585 0.256003
O O7 0.000000 0.964804 0.307216
O O8 0.900534 0.916778 0.219476
O O9 0.500000 0.108650 0.056200
O O10 0.395764 0.250000 0.043946
O O11 0.346718 0.112471 0.107501
O O12 0.362112 0.105084 0.984956
O O13 0.879273 0.250000 0.825601
O O14 0.747303 0.356196 0.799863
O O15 0.500000 0.653659 0.066868
O O16 0.644238 0.750000 0.082044
O O17 0.615308 0.604447 0.140311
O O18 0.390116 0.750000 0.208857
#
# Coordination Sequence:
#
# PCOD9503309 Si02
#       8
#    16  16  16  16  16   8  16   4
#     4   9  21  44  75 111 153 189 231 285 332 390
#     4  12  26  42  61  87 125 173 222 271 322 384
#     4   8  14  26  47  75 102 138 188 250 323 406
#     4  10  20  37  58  78 112 156 205 265 329 397
#     4   8  14  26  47  75 105 135 184 252 326 404
#     4  12  25  44  66 104 147 182 236 290 334 382
#     4  10  20  37  58  81 113 154 202 267 334 397
#     4   8  18  44  82 114 150 200 238 268 338 404
#
# _framework density 21.545797
#
# number of rings (size 3 to 8) (size 9 to 14) (size 15 to 20)
#    0.444    1.926    1.481    2.000    1.037    3.556 
#    1.333    4.444    0.000    4.444    0.000    0.000 
#    0.000    0.000    0.000    0.000    0.000    0.000 
#
# Total GULP energy -300619.635650 kJ/mol
# GULP energy per Si atom -5567.030290 kJ/mol
# Density = 2.149676 g / cm^3
# Si number density = 21.545797 Si / 1000 Ang^3
#
#
#
# Elastic Constant Matrix: (Units=GPa)
#
#
# Indices 1 2 3 4 5 6 
#
# 1 117.7297 0.1186 31.4198 0.0000 0.0000 0.0000
# 2 0.1186 46.2707 14.9337 0.0000 0.0000 0.0000
# 3 31.4198 14.9337 53.2366 0.0000 0.0000 0.0000
# 4 0.0000 0.0000 0.0000 17.7225 0.0000 0.0000
# 5 0.0000 0.0000 0.0000 0.0000 9.5225 0.0000
# 6 0.0000 0.0000 0.0000 0.0000 0.0000 13.9829
#
#
#
# Elastic Compliance Matrix: (Units=1/GPa)
#
#
# Indices 1 2 3 4 5 6 
#
# 1 0.010268 0.002122 -0.006655 0.000000 0.000000 0.000000
# 2 0.002122 0.024202 -0.008041 0.000000 0.000000 0.000000
# 3 -0.006655 -0.008041 0.024968 0.000000 0.000000 0.000000
# 4 0.000000 0.000000 0.000000 0.056426 0.000000 0.000000
# 5 0.000000 0.000000 0.000000 0.000000 0.105014 0.000000
# 6 0.000000 0.000000 0.000000 0.000000 0.000000 0.071516
#
#
# Mechanical properties :
#
#
# Convention : Reuss Voigt Hill
#
# Bulk Modulus (GPa) = 29.16481 34.46457 31.81469
# Shear Modulus (GPa) = 15.19887 19.62991 17.41439
#
# Velocity S-wave (km/s) = 2.65886 3.02168 2.84606
# Velocity P-wave (km/s) = 4.79496 5.31082 5.05947
#
# Compressibility (1/GPa) = 0.03428789
#
# Stress axis : x y z
#
# Youngs Moduli (GPa) = 97.38928 41.31930 40.05182
#
# Poissons Ratio (x) = -0.08767 0.26656
# Poissons Ratio (y) = -0.20663 0.32206
# Poissons Ratio (z) = 0.64815 0.33226
#
# Static dielectric constant tensor:
#      x y z
#    x 1.804500 0.000000 0.000000 
#    y 0.000000 1.829330 0.000000 
#    z 0.000000 0.000000 1.790530 
# 
# From -- ./inp_files/42032.got.cif
#   From: 2010.05.17/outbox.cif.g08.bks.cpg/sg67_22_cif.got.tgz:42032.got - 2010.06.03 18:28:57.
