data_PCOD9503572
_publ_section_title
;
Structure prediction by ZEFSAII (Michael W. Deem and Ramdas Pophale) SiO2 
 PCOD9503572
Probable space group: C M M A
;
_chemical_formula_sum "Si O2"
_cell_formula_units_Z 72
_cell_length_a 17.350736
_cell_length_b 23.221507
_cell_length_c 8.418620
_cell_angle_alpha 90.000000
_cell_angle_beta 90.000000
_cell_angle_gamma 90.000000
_cell_volume 3391.948183
_symmetry_space_group_name_H-M "C M M A"
_symmetry_group_IT_number 67
_symmetry_cell_setting 'orthorhombic'
loop_
_space_group_symop_operation_xyz
x,y,z
-x,1/2-y,z
x,-y,-z
-x,1/2+y,-z
-x,-y,-z
x,1/2+y,-z
-x,y,z
x,1/2-y,z
1/2+x,1/2+y,z
1/2-x,-y,z
1/2+x,1/2-y,-z
1/2-x,y,-z
1/2-x,1/2-y,-z
1/2+x,y,-z
1/2-x,1/2+y,z
1/2+x,-y,z
loop_
_atom_site_type_symbol
_atom_site_label
_atom_site_fract_x
_atom_site_fract_y
_atom_site_fract_z
Si Si1 0.091051 0.025928 0.174466
Si Si2 0.649015 0.918564 0.662963
Si Si3 0.500000 0.750000 0.020120
Si Si4 0.817594 0.122318 0.302696
Si Si5 0.500000 0.750000 0.519937
Si Si6 0.000000 0.149099 0.769344
Si Si7 0.635556 0.250000 0.728941
O O1 0.123125 0.090213 0.187400
O O2 0.000000 0.025030 0.206132
O O3 0.134106 0.985939 0.304134
O O4 0.104906 0.000000 0.000000
O O5 0.732376 0.901473 0.729173
O O6 0.654809 0.896405 0.480628
O O7 0.576829 0.888791 0.751167
O O8 0.500000 0.691509 0.918325
O O9 0.577961 0.750000 0.122191
O O10 0.817762 0.190819 0.281861
O O11 0.500000 0.692935 0.622930
O O12 0.576573 0.750000 0.417174
#
# Coordination Sequence:
#
# PCOD9503572 Si02
#       7
#    16  16   4  16   4   8   8
#     4  11  26  44  71 100 136 179 224 277 340 405
#     4  11  24  44  70 101 133 173 231 281 337 396
#     4  10  28  40  66  98 144 176 240 262 332 406
#     4  11  26  43  70 102 139 173 228 279 338 398
#     4  10  20  40  68  92 130 182 220 258 336 388
#     4  11  22  44  66  98 133 185 221 281 326 402
#     4  11  24  43  66 102 137 179 216 279 328 406
#
# _framework density 21.226741000000001
#
# number of rings (size 3 to 8) (size 9 to 14) (size 15 to 20)
#    0.000    1.111    3.333    1.333    7.778    8.000 
#    0.000    1.111    0.000    0.000    0.000    0.000 
#    0.000    0.000    0.000    0.000    0.000    0.000 
#
# Total GULP energy -201320.677389 kJ/mol
# GULP energy per Si atom -5592.241039 kJ/mol
# Density = 2.117843 g / cm^3
# Si number density = 21.226741 Si / 1000 Ang^3
#
#
#
# Elastic Constant Matrix: (Units=GPa)
#
#
# Indices 1 2 3 4 5 6 
#
# 1 98.0027 37.5217 35.7316 0.0000 0.0000 0.0000
# 2 37.5217 145.7431 23.1654 0.0000 0.0000 0.0000
# 3 35.7316 23.1654 52.4470 0.0000 0.0000 0.0000
# 4 0.0000 0.0000 0.0000 42.7277 0.0000 0.0000
# 5 0.0000 0.0000 0.0000 0.0000 16.0881 0.0000
# 6 0.0000 0.0000 0.0000 0.0000 0.0000 34.6502
#
#
#
# Elastic Compliance Matrix: (Units=1/GPa)
#
#
# Indices 1 2 3 4 5 6 
#
# 1 0.014251 -0.002286 -0.008699 0.000000 0.000000 0.000000
# 2 -0.002286 0.007746 -0.001864 0.000000 0.000000 0.000000
# 3 -0.008699 -0.001864 0.025817 0.000000 0.000000 0.000000
# 4 0.000000 0.000000 0.000000 0.023404 0.000000 0.000000
# 5 0.000000 0.000000 0.000000 0.000000 0.062158 0.000000
# 6 0.000000 0.000000 0.000000 0.000000 0.000000 0.028860
#
#
# Mechanical properties :
#
#
# Convention : Reuss Voigt Hill
#
# Bulk Modulus (GPa) = 45.21742 54.33669 49.77706
# Shear Modulus (GPa) = 25.60092 32.01147 28.80620
#
# Velocity S-wave (km/s) = 3.47662 3.88760 3.68784
# Velocity P-wave (km/s) = 6.12080 6.76795 6.45249
#
# Compressibility (1/GPa) = 0.02211537
#
# Stress axis : x y z
#
# Youngs Moduli (GPa) = 70.17159 129.09515 38.73452
#
# Poissons Ratio (x) = 0.29513 0.33696
# Poissons Ratio (y) = 0.16042 0.07220
# Poissons Ratio (z) = 0.61043 0.24062
#
# Static dielectric constant tensor:
#      x y z
#    x 1.706110 0.000000 0.000000 
#    y 0.000000 1.788320 0.000000 
#    z 0.000000 0.000000 1.789250 
# 
# From -- ./inp_files/9788.got.cif
#   From: 2010.05.17/outbox.cif.g08.bks.cpg/sg67_5_cif.got.tgz:9788.got - 2010.06.03 18:28:57.
