data_PCOD9503518
_publ_section_title
;
Structure prediction by ZEFSAII (Michael W. Deem and Ramdas Pophale) SiO2 
 PCOD9503518
Probable space group: C M M A
;
_chemical_formula_sum "Si O2"
_cell_formula_units_Z 96
_cell_length_a 15.070224
_cell_length_b 14.646522
_cell_length_c 22.887005
_cell_angle_alpha 90.000000
_cell_angle_beta 90.000000
_cell_angle_gamma 90.000000
_cell_volume 5051.765473
_symmetry_space_group_name_H-M "C M M A"
_symmetry_group_IT_number 67
_symmetry_cell_setting 'orthorhombic'
loop_
_space_group_symop_operation_xyz
x,y,z
-x,1/2-y,z
x,-y,-z
-x,1/2+y,-z
-x,-y,-z
x,1/2+y,-z
-x,y,z
x,1/2-y,z
1/2+x,1/2+y,z
1/2-x,-y,z
1/2+x,1/2-y,-z
1/2-x,y,-z
1/2-x,1/2-y,-z
1/2+x,y,-z
1/2-x,1/2+y,z
1/2+x,-y,z
loop_
_atom_site_type_symbol
_atom_site_label
_atom_site_fract_x
_atom_site_fract_y
_atom_site_fract_z
Si Si1 0.856335 0.250000 0.933632
Si Si2 0.395461 0.500000 0.429746
Si Si3 0.898884 0.893493 0.836790
Si Si4 0.398884 0.106507 0.163210
Si Si5 0.750000 0.610465 0.253905
Si Si6 0.143665 0.250000 0.066368
Si Si7 0.250000 0.354583 0.610736
O O1 0.885408 0.336544 0.895513
O O2 0.750000 0.250000 0.935285
O O3 0.889534 0.250000 1.000000
O O4 0.395181 0.500000 0.500000
O O5 0.500000 0.500000 0.410709
O O6 0.337011 0.587311 0.408793
O O7 0.337011 0.412689 0.408793
O O8 0.833966 0.862638 0.785409
O O9 0.885408 0.836544 0.895513
O O10 0.000000 0.883883 0.817578
O O11 0.880153 0.000000 0.848271
O O12 0.500000 0.116117 0.182422
O O13 0.333966 0.137362 0.214591
O O14 0.750000 0.500000 0.259434
O O15 0.750000 0.647143 0.318930
O O16 0.250000 0.250000 0.588753
#
# Coordination Sequence:
#
# PCOD9503518 Si02
#       7
#     8  16  16  16  16   8  16
#     4  11  23  39  61  84 115 157 200 251 310 374
#     4  10  23  45  68  95 135 176 217 265 313 367
#     4  10  22  39  60  85 114 153 198 249 307 365
#     4  10  22  39  60  85 114 153 198 249 307 365
#     4  10  20  39  60  86 126 161 196 252 301 367
#     4  11  23  39  61  84 115 157 200 251 310 374
#     4  11  23  39  65  98 132 172 217 263 318 379
#
# _framework density 19.003257000000001
#
# number of rings (size 3 to 8) (size 9 to 14) (size 15 to 20)
#    0.000    1.667    3.333    1.500    2.333    5.333 
#    0.000    5.000    0.000    0.000    0.000    0.000 
#    0.000    0.000    0.000    0.000    0.000    0.000 
#
# Total GULP energy -267984.819673 kJ/mol
# GULP energy per Si atom -5583.017077 kJ/mol
# Density = 1.896000 g / cm^3
# Si number density = 19.003257 Si / 1000 Ang^3
#
#
#
# Elastic Constant Matrix: (Units=GPa)
#
#
# Indices 1 2 3 4 5 6 
#
# 1 140.3404 68.3104 55.4364 0.0000 0.0000 0.0000
# 2 68.3104 127.7647 43.6492 0.0000 0.0000 0.0000
# 3 55.4364 43.6492 127.7272 0.0000 0.0000 0.0000
# 4 0.0000 0.0000 0.0000 47.8608 0.0000 0.0000
# 5 0.0000 0.0000 0.0000 0.0000 -87.7099 0.0000
# 6 0.0000 0.0000 0.0000 0.0000 0.0000 18.4491
#
#
#
# Elastic Compliance Matrix: (Units=1/GPa)
#
#
# Indices 1 2 3 4 5 6 
#
# 1 0.010561 -0.004620 -0.003005 0.000000 0.000000 0.000000
# 2 -0.004620 0.010883 -0.001714 0.000000 0.000000 0.000000
# 3 -0.003005 -0.001714 0.009719 0.000000 0.000000 0.000000
# 4 0.000000 0.000000 0.000000 0.020894 0.000000 0.000000
# 5 0.000000 0.000000 0.000000 0.000000 -0.011401 0.000000
# 6 0.000000 0.000000 0.000000 0.000000 0.000000 0.054203
#
#
# Mechanical properties :
#
#
# Convention : Reuss Voigt Hill
#
# Bulk Modulus (GPa) = 80.09432 81.18049 80.63740
# Shear Modulus (GPa) = 42.48142 10.94906 26.71524
#
# Velocity S-wave (km/s) = 4.73322 2.40295 3.75350
# Velocity P-wave (km/s) = 8.49178 7.10710 7.83011
#
# Compressibility (1/GPa) = 0.01248528
#
# Stress axis : x y z
#
# Youngs Moduli (GPa) = 94.68459 91.89027 102.89043
#
# Poissons Ratio (x) = 0.42454 0.30919
# Poissons Ratio (y) = 0.43745 0.17633
# Poissons Ratio (z) = 0.28453 0.15748
#
# Static dielectric constant tensor:
#      x y z
#    x 1.669220 0.000000 0.000000 
#    y 0.000000 1.696750 0.000000 
#    z 0.000000 0.000000 1.621440 
# 
# From -- ./inp_files/38531.got.cif
#   From: 2010.05.17/outbox.cif.g08.bks.cpg/sg67_20_cif.got.tgz:38531.got - 2010.06.03 18:28:57.
