data_PCOD9503459
_publ_section_title
;
Structure prediction by ZEFSAII (Michael W. Deem and Ramdas Pophale) SiO2 
 PCOD9503459
Probable space group: C M M A
;
_chemical_formula_sum "Si O2"
_cell_formula_units_Z 96
_cell_length_a 29.700937
_cell_length_b 17.941589
_cell_length_c 8.997498
_cell_angle_alpha 90.000000
_cell_angle_beta 90.000000
_cell_angle_gamma 90.000000
_cell_volume 4794.604770
_symmetry_space_group_name_H-M "C M M A"
_symmetry_group_IT_number 67
_symmetry_cell_setting 'orthorhombic'
loop_
_space_group_symop_operation_xyz
x,y,z
-x,1/2-y,z
x,-y,-z
-x,1/2+y,-z
-x,-y,-z
x,1/2+y,-z
-x,y,z
x,1/2-y,z
1/2+x,1/2+y,z
1/2-x,-y,z
1/2+x,1/2-y,-z
1/2-x,y,-z
1/2-x,1/2-y,-z
1/2+x,y,-z
1/2-x,1/2+y,z
1/2+x,-y,z
loop_
_atom_site_type_symbol
_atom_site_label
_atom_site_fract_x
_atom_site_fract_y
_atom_site_fract_z
Si Si1 0.223950 0.167495 0.369961
Si Si2 0.449300 0.839371 0.206399
Si Si3 0.790761 0.665651 0.103953
Si Si4 0.636183 0.092223 0.638480
Si Si5 0.634308 0.581699 0.711781
Si Si6 0.947199 0.662004 0.143746
O O1 0.209715 0.250000 0.424509
O O2 0.250000 0.123650 0.500000
O O3 0.262985 0.176090 0.253228
O O4 0.180660 0.130751 0.297431
O O5 0.500000 0.865219 0.244808
O O6 0.448631 0.750000 0.221027
O O7 0.410169 0.873084 0.305632
O O8 0.441412 0.855421 0.031599
O O9 0.804611 0.750000 0.050089
O O10 0.832211 0.614960 0.160999
O O11 0.750000 0.635578 0.000000
O O12 0.642335 0.105435 0.460610
O O13 0.636655 0.007145 0.693104
O O14 0.585416 0.611241 0.759851
O O15 0.936410 0.750000 0.165047
O O16 0.000000 0.651974 0.178819
#
# Coordination Sequence:
#
# PCOD9503459 Si02
#       6
#    16  16  16  16  16  16
#     4  10  20  38  62  85 113 155 204 250 298 352
#     4   9  20  40  65  91 118 154 204 258 307 358
#     4  10  22  40  62  89 118 154 203 256 304 354
#     4  11  24  39  58  88 126 164 201 244 302 364
#     4  11  24  40  57  88 127 165 200 241 304 369
#     4   9  20  40  65  90 118 156 202 254 308 361
#
# _framework density 20.022504000000001
#
# number of rings (size 3 to 8) (size 9 to 14) (size 15 to 20)
#    0.000    2.000    1.667    2.000    2.333    4.667 
#    0.000    5.833    0.000    0.000    0.000    0.000 
#    0.000    0.000    0.000    0.000    0.000    0.000 
#
# Total GULP energy -267328.275130 kJ/mol
# GULP energy per Si atom -5569.339065 kJ/mol
# Density = 1.997693 g / cm^3
# Si number density = 20.022504 Si / 1000 Ang^3
#
#
#
# Elastic Constant Matrix: (Units=GPa)
#
#
# Indices 1 2 3 4 5 6 
#
# 1 105.0992 43.0494 21.2291 0.0000 0.0000 0.0000
# 2 43.0494 50.0165 17.1839 0.0000 0.0000 0.0000
# 3 21.2291 17.1839 35.4427 0.0000 0.0000 0.0000
# 4 0.0000 0.0000 0.0000 24.1865 0.0000 0.0000
# 5 0.0000 0.0000 0.0000 0.0000 44.3182 0.0000
# 6 0.0000 0.0000 0.0000 0.0000 0.0000 -20.1647
#
#
#
# Elastic Compliance Matrix: (Units=1/GPa)
#
#
# Indices 1 2 3 4 5 6 
#
# 1 0.015005 -0.011791 -0.003271 0.000000 0.000000 0.000000
# 2 -0.011791 0.033255 -0.009061 0.000000 0.000000 0.000000
# 3 -0.003271 -0.009061 0.034567 0.000000 0.000000 0.000000
# 4 0.000000 0.000000 0.000000 0.041345 0.000000 0.000000
# 5 0.000000 0.000000 0.000000 0.000000 0.022564 0.000000
# 6 0.000000 0.000000 0.000000 0.000000 0.000000 -0.049592
#
#
# Mechanical properties :
#
#
# Convention : Reuss Voigt Hill
#
# Bulk Modulus (GPa) = 28.91729 39.27591 34.09660
# Shear Modulus (GPa) = 31.86375 16.94105 24.40240
#
# Velocity S-wave (km/s) = 3.99356 2.91194 3.49485
# Velocity P-wave (km/s) = 5.97816 5.56456 5.77506
#
# Compressibility (1/GPa) = 0.03458139
#
# Stress axis : x y z
#
# Youngs Moduli (GPa) = 66.64281 30.07039 28.92966
#
# Poissons Ratio (x) = 0.35457 0.09462
# Poissons Ratio (y) = 0.78582 0.26212
# Poissons Ratio (z) = 0.21798 0.27246
#
# Static dielectric constant tensor:
#      x y z
#    x 1.703190 0.000000 0.000000 
#    y 0.000000 1.809680 0.000000 
#    z 0.000000 0.000000 1.764450 
# 
# From -- ./inp_files/13723.got.cif
#   From: 2010.05.17/outbox.cif.g08.bks.cpg/sg67_7_cif.got.tgz:13723.got - 2010.06.03 18:28:57.
