data_PCOD9503414
_publ_section_title
;
Structure prediction by ZEFSAII (Michael W. Deem and Ramdas Pophale) SiO2 
 PCOD9503414
Probable space group: C M M A
;
_chemical_formula_sum "Si O2"
_cell_formula_units_Z 88
_cell_length_a 14.762852
_cell_length_b 10.506893
_cell_length_c 30.922003
_cell_angle_alpha 90.000000
_cell_angle_beta 90.000000
_cell_angle_gamma 90.000000
_cell_volume 4796.364649
_symmetry_space_group_name_H-M "C M M A"
_symmetry_group_IT_number 67
_symmetry_cell_setting 'orthorhombic'
loop_
_space_group_symop_operation_xyz
x,y,z
-x,1/2-y,z
x,-y,-z
-x,1/2+y,-z
-x,-y,-z
x,1/2+y,-z
-x,y,z
x,1/2-y,z
1/2+x,1/2+y,z
1/2-x,-y,z
1/2+x,1/2-y,-z
1/2-x,y,-z
1/2-x,1/2-y,-z
1/2+x,y,-z
1/2-x,1/2+y,z
1/2+x,-y,z
loop_
_atom_site_type_symbol
_atom_site_label
_atom_site_fract_x
_atom_site_fract_y
_atom_site_fract_z
Si Si1 0.246050 0.250000 0.320527
Si Si2 0.606399 0.400483 0.196787
Si Si3 0.174275 0.896867 0.098646
Si Si4 0.000000 0.604728 0.037111
Si Si5 0.390790 0.750000 0.398056
Si Si6 0.109503 0.250000 0.604691
Si Si7 0.890133 0.501725 0.450583
Si Si8 0.750000 0.500000 0.738303
O O1 0.161335 0.250000 0.353103
O O2 0.335690 0.250000 0.350698
O O3 0.243506 0.375540 0.291313
O O4 0.500000 0.428902 0.198637
O O5 0.618411 0.250000 0.207008
O O6 0.641774 0.418740 0.147964
O O7 0.663942 0.482078 0.230347
O O8 0.207024 0.750000 0.095721
O O9 0.088139 0.909045 0.067351
O O10 0.250000 0.000000 0.087601
O O11 0.000000 0.750000 0.019807
O O12 0.000000 0.500000 0.000000
O O13 0.500000 0.750000 0.392533
O O14 0.364402 0.625228 0.425158
O O15 0.134985 0.126145 0.576592
O O16 0.000000 0.250000 0.611321
O O17 0.857765 0.500000 0.500000
O O18 0.000000 0.502752 0.452454
#
# Coordination Sequence:
#
# PCOD9503414 Si02
#       8
#     8  16  16   8   8   8  16   8
#     4  12  26  40  57  84 120 154 199 238 304 370
#     4  10  20  39  66  92 119 155 205 254 319 370
#     4  10  20  37  64  92 125 166 207 259 313 369
#     4  10  22  40  62  92 132 178 218 254 304 372
#     4  10  21  38  56  76 114 154 178 231 301 352
#     4  10  21  38  58  80 114 154 192 235 289 362
#     4   9  17  33  59  86 109 143 191 239 286 343
#     4  12  24  40  62  88 116 154 200 264 304 364
#
# _framework density 18.347228999999999
#
# number of rings (size 3 to 8) (size 9 to 14) (size 15 to 20)
#    0.000    1.818    2.727    1.636    0.000    4.727 
#    0.000    4.545    0.000    0.000    0.000    0.000 
#    0.000    0.000    0.000    0.000    0.000    0.000 
#
# Total GULP energy -245819.361528 kJ/mol
# GULP energy per Si atom -5586.803671 kJ/mol
# Density = 1.830547 g / cm^3
# Si number density = 18.347229 Si / 1000 Ang^3
#
#
#
# Elastic Constant Matrix: (Units=GPa)
#
#
# Indices 1 2 3 4 5 6 
#
# 1 103.5742 63.5593 41.5918 0.0000 0.0000 0.0000
# 2 63.5593 177.3588 94.4240 0.0000 0.0000 0.0000
# 3 41.5918 94.4240 123.5503 0.0000 0.0000 0.0000
# 4 0.0000 0.0000 0.0000 40.7795 0.0000 0.0000
# 5 0.0000 0.0000 0.0000 0.0000 57.9979 0.0000
# 6 0.0000 0.0000 0.0000 0.0000 0.0000 15.8709
#
#
#
# Elastic Compliance Matrix: (Units=1/GPa)
#
#
# Indices 1 2 3 4 5 6 
#
# 1 0.012504 -0.003777 -0.001323 0.000000 0.000000 0.000000
# 2 -0.003777 0.010647 -0.006866 0.000000 0.000000 0.000000
# 3 -0.001323 -0.006866 0.013786 0.000000 0.000000 0.000000
# 4 0.000000 0.000000 0.000000 0.024522 0.000000 0.000000
# 5 0.000000 0.000000 0.000000 0.000000 0.017242 0.000000
# 6 0.000000 0.000000 0.000000 0.000000 0.000000 0.063009
#
#
# Mechanical properties :
#
#
# Convention : Reuss Voigt Hill
#
# Bulk Modulus (GPa) = 76.88395 89.29261 83.08828
# Shear Modulus (GPa) = 29.41605 36.59020 33.00313
#
# Velocity S-wave (km/s) = 4.00846 4.47062 4.24584
# Velocity P-wave (km/s) = 7.96364 8.68461 8.33193
#
# Compressibility (1/GPa) = 0.01300662
#
# Stress axis : x y z
#
# Youngs Moduli (GPa) = 79.97637 93.92458 72.53580
#
# Poissons Ratio (x) = 0.35471 0.09596
# Poissons Ratio (y) = 0.30203 0.49800
# Poissons Ratio (z) = 0.10581 0.64485
#
# Static dielectric constant tensor:
#      x y z
#    x 1.631510 0.000000 0.000000 
#    y 0.000000 1.619910 0.000000 
#    z 0.000000 0.000000 1.599820 
# 
# From -- ./inp_files/41879.got.cif
#   From: 2010.05.17/outbox.cif.g08.bks.cpg/sg67_21_cif.got.tgz:41879.got - 2010.06.03 18:28:57.
