data_PCOD9503108
_publ_section_title
;
Structure prediction by ZEFSAII (Michael W. Deem and Ramdas Pophale) SiO2 
 PCOD9503108
Probable space group: C M M A
;
_chemical_formula_sum "Si O2"
_cell_formula_units_Z 116
_cell_length_a 26.493431
_cell_length_b 24.973295
_cell_length_c 9.755830
_cell_angle_alpha 90.000000
_cell_angle_beta 90.000000
_cell_angle_gamma 90.000000
_cell_volume 6454.732905
_symmetry_space_group_name_H-M "C M M A"
_symmetry_group_IT_number 67
_symmetry_cell_setting 'orthorhombic'
loop_
_space_group_symop_operation_xyz
x,y,z
-x,1/2-y,z
x,-y,-z
-x,1/2+y,-z
-x,-y,-z
x,1/2+y,-z
-x,y,z
x,1/2-y,z
1/2+x,1/2+y,z
1/2-x,-y,z
1/2+x,1/2-y,-z
1/2-x,y,-z
1/2-x,1/2-y,-z
1/2+x,y,-z
1/2-x,1/2+y,z
1/2+x,-y,z
loop_
_atom_site_type_symbol
_atom_site_label
_atom_site_fract_x
_atom_site_fract_y
_atom_site_fract_z
Si Si1 0.283842 0.148809 0.880015
Si Si2 0.797167 0.092914 0.683097
Si Si3 0.941635 0.111221 0.046825
Si Si4 0.357807 0.311598 0.441805
Si Si5 0.250000 0.000000 0.500000
Si Si6 0.615056 0.190063 0.756258
Si Si7 0.845222 0.058163 0.958766
Si Si8 0.056659 0.189016 0.787041
O O1 0.248865 0.120947 0.765729
O O2 0.328048 0.184166 0.815443
O O3 0.250000 0.175583 0.000000
O O4 0.312956 0.101581 0.958752
O O5 0.819388 0.140442 0.589445
O O6 0.836321 0.072710 0.799953
O O7 0.781098 0.041088 0.596042
O O8 0.902502 0.064434 0.011103
O O9 0.937386 0.149894 0.914493
O O10 0.000000 0.096209 0.065986
O O11 0.919856 0.145591 0.173322
O O12 0.337622 0.250000 0.429206
O O13 0.380240 0.316895 0.593514
O O14 0.401649 0.317788 0.328865
O O15 0.596144 0.250000 0.786073
O O16 0.825992 0.000000 0.000000
O O17 0.060885 0.250000 0.838319
O O18 0.000000 0.182015 0.730258
#
# Coordination Sequence:
#
# PCOD9503108 Si02
#       8
#    16  16  16  16   4  16  16  16
#     4   9  20  36  54  77 106 142 184 229 276 324
#     4  11  21  38  56  83 112 152 192 240 280 339
#     4  10  20  36  57  82 108 141 184 232 277 328
#     4  10  21  36  56  82 116 151 184 228 288 345
#     4  12  24  32  56  80 110 152 200 232 280 344
#     4  10  21  35  52  81 115 145 178 222 275 335
#     4  10  20  36  58  81 108 142 185 238 287 328
#     4   9  17  32  55  81 107 140 182 224 272 333
#
# _framework density 17.971308000000001
#
# number of rings (size 3 to 8) (size 9 to 14) (size 15 to 20)
#    0.000    2.069    1.379    2.069    0.000    5.517 
#    0.000    3.103    0.000    0.000    0.000    1.931 
#    0.000    0.000    0.000    0.000    0.000    0.000 
#
# Total GULP energy -323447.821957 kJ/mol
# GULP energy per Si atom -5576.686585 kJ/mol
# Density = 1.793040 g / cm^3
# Si number density = 17.971308 Si / 1000 Ang^3
#
#
#
# Elastic Constant Matrix: (Units=GPa)
#
#
# Indices 1 2 3 4 5 6 
#
# 1 56.0744 11.0563 16.2945 0.0000 0.0000 0.0000
# 2 11.0563 79.3334 30.9534 0.0000 0.0000 0.0000
# 3 16.2945 30.9534 74.4625 0.0000 0.0000 0.0000
# 4 0.0000 0.0000 0.0000 3.7289 0.0000 0.0000
# 5 0.0000 0.0000 0.0000 0.0000 8.6202 0.0000
# 6 0.0000 0.0000 0.0000 0.0000 0.0000 9.0681
#
#
#
# Elastic Compliance Matrix: (Units=1/GPa)
#
#
# Indices 1 2 3 4 5 6 
#
# 1 0.019145 -0.001234 -0.003677 0.000000 0.000000 0.000000
# 2 -0.001234 0.015125 -0.006017 0.000000 0.000000 0.000000
# 3 -0.003677 -0.006017 0.016735 0.000000 0.000000 0.000000
# 4 0.000000 0.000000 0.000000 0.268177 0.000000 0.000000
# 5 0.000000 0.000000 0.000000 0.000000 0.116006 0.000000
# 6 0.000000 0.000000 0.000000 0.000000 0.000000 0.110276
#
#
# Mechanical properties :
#
#
# Convention : Reuss Voigt Hill
#
# Bulk Modulus (GPa) = 34.30518 36.27541 35.29030
# Shear Modulus (GPa) = 8.66495 14.38785 11.52640
#
# Velocity S-wave (km/s) = 2.19818 2.83256 2.53529
# Velocity P-wave (km/s) = 5.05697 5.56119 5.31507
#
# Compressibility (1/GPa) = 0.02915012
#
# Stress axis : x y z
#
# Youngs Moduli (GPa) = 52.23277 66.11698 59.75342
#
# Poissons Ratio (x) = 0.08157 0.21969
# Poissons Ratio (y) = 0.06444 0.35955
# Poissons Ratio (z) = 0.19204 0.39784
#
# Static dielectric constant tensor:
#      x y z
#    x 1.647330 0.000000 0.000000 
#    y 0.000000 1.592360 0.000000 
#    z 0.000000 0.000000 1.606050 
# 
# From -- ./inp_files/14041.got.cif
#   From: 2010.05.17/outbox.cif.g08.bks.cpg/sg67_8_cif.got.tgz:14041.got - 2010.06.03 18:28:57.
