data_PCOD9503543
_publ_section_title
;
Structure prediction by ZEFSAII (Michael W. Deem and Ramdas Pophale) SiO2 
 PCOD9503543
Probable space group: C M M A
;
_chemical_formula_sum "Si O2"
_cell_formula_units_Z 64
_cell_length_a 16.472713
_cell_length_b 16.372569
_cell_length_c 11.589526
_cell_angle_alpha 90.000000
_cell_angle_beta 90.000000
_cell_angle_gamma 90.000000
_cell_volume 3125.702466
_symmetry_space_group_name_H-M "C M M A"
_symmetry_group_IT_number 67
_symmetry_cell_setting 'orthorhombic'
loop_
_space_group_symop_operation_xyz
x,y,z
-x,1/2-y,z
x,-y,-z
-x,1/2+y,-z
-x,-y,-z
x,1/2+y,-z
-x,y,z
x,1/2-y,z
1/2+x,1/2+y,z
1/2-x,-y,z
1/2+x,1/2-y,-z
1/2-x,y,-z
1/2-x,1/2-y,-z
1/2+x,y,-z
1/2-x,1/2+y,z
1/2+x,-y,z
loop_
_atom_site_type_symbol
_atom_site_label
_atom_site_fract_x
_atom_site_fract_y
_atom_site_fract_z
Si Si1 0.860324 0.844029 0.452071
Si Si2 0.207658 0.412033 0.335149
Si Si3 0.826750 0.847633 0.917593
Si Si4 0.000000 0.403804 0.979984
Si Si5 0.000000 0.651476 0.280214
O O1 0.877867 0.750000 0.483927
O O2 0.859857 0.899615 0.566172
O O3 0.775350 0.849605 0.383815
O O4 0.923610 0.872152 0.356737
O O5 0.250000 0.500000 0.341032
O O6 0.181956 0.390681 0.206437
O O7 0.821070 0.750000 0.901849
O O8 0.750000 0.871664 0.000000
O O9 0.915461 0.867979 0.969657
O O10 0.000000 0.386853 0.844356
O O11 0.000000 0.500000 0.000000
O O12 0.000000 0.750000 0.265751
#
# Coordination Sequence:
#
# PCOD9503543 Si02
#       5
#    16  16  16   8   8
#     4  10  20  39  65  92 126 172 221 271 336 410
#     4  11  23  38  62  97 132 167 216 281 339 402
#     4  11  25  45  72  97 134 189 236 281 342 418
#     4  12  28  43  66 104 143 180 229 294 349 413
#     4  10  22  41  67  92 128 174 225 277 338 419
#
# _framework density 20.475397999999998
#
# number of rings (size 3 to 8) (size 9 to 14) (size 15 to 20)
#    0.000    1.250    0.000    7.125    7.000    5.000 
#    0.000    5.000    0.000    0.000    0.000    0.000 
#    0.000    0.000    0.000    0.000    0.000    0.000 
#
# Total GULP energy -178760.515764 kJ/mol
# GULP energy per Si atom -5586.266118 kJ/mol
# Density = 2.042879 g / cm^3
# Si number density = 20.475398 Si / 1000 Ang^3
#
#
#
# Elastic Constant Matrix: (Units=GPa)
#
#
# Indices 1 2 3 4 5 6 
#
# 1 103.4980 18.6152 84.7893 0.0000 0.0000 0.0000
# 2 18.6152 91.7284 71.3070 0.0000 0.0000 0.0000
# 3 84.7893 71.3070 244.3320 0.0000 0.0000 0.0000
# 4 0.0000 0.0000 0.0000 25.2100 0.0000 0.0000
# 5 0.0000 0.0000 0.0000 0.0000 36.6789 0.0000
# 6 0.0000 0.0000 0.0000 0.0000 0.0000 21.8766
#
#
#
# Elastic Compliance Matrix: (Units=1/GPa)
#
#
# Indices 1 2 3 4 5 6 
#
# 1 0.013597 0.001175 -0.005062 0.000000 0.000000 0.000000
# 2 0.001175 0.014202 -0.004553 0.000000 0.000000 0.000000
# 3 -0.005062 -0.004553 0.007178 0.000000 0.000000 0.000000
# 4 0.000000 0.000000 0.000000 0.039667 0.000000 0.000000
# 5 0.000000 0.000000 0.000000 0.000000 0.027264 0.000000
# 6 0.000000 0.000000 0.000000 0.000000 0.000000 0.045711
#
#
# Mechanical properties :
#
#
# Convention : Reuss Voigt Hill
#
# Bulk Modulus (GPa) = 55.24976 87.66461 71.45719
# Shear Modulus (GPa) = 29.32030 34.40957 31.86493
#
# Velocity S-wave (km/s) = 3.78825 4.10388 3.94922
# Velocity P-wave (km/s) = 6.79533 8.08476 7.46793
#
# Compressibility (1/GPa) = 0.01809963
#
# Stress axis : x y z
#
# Youngs Moduli (GPa) = 73.54410 70.41048 139.31438
#
# Poissons Ratio (x) = -0.08276 0.70516
# Poissons Ratio (y) = -0.08644 0.63427
# Poissons Ratio (z) = 0.37225 0.32056
#
# Static dielectric constant tensor:
#      x y z
#    x 1.873450 0.000000 0.000000 
#    y 0.000000 1.732740 0.000000 
#    z 0.000000 0.000000 1.693710 
# 
# From -- ./inp_files/17544.got.cif
#   From: 2010.05.17/outbox.cif.g08.bks.cpg/sg67_9_cif.got.tgz:17544.got - 2010.06.03 18:28:57.
