data_PCOD9503728
_publ_section_title
;
Structure prediction by ZEFSAII (Michael W. Deem and Ramdas Pophale) SiO2 
 PCOD9503728
Probable space group: C M M A
;
_chemical_formula_sum "Si O2"
_cell_formula_units_Z 80
_cell_length_a 8.392393
_cell_length_b 19.835320
_cell_length_c 26.044918
_cell_angle_alpha 90.000000
_cell_angle_beta 90.000000
_cell_angle_gamma 90.000000
_cell_volume 4335.588130
_symmetry_space_group_name_H-M "C M M A"
_symmetry_group_IT_number 67
_symmetry_cell_setting 'orthorhombic'
loop_
_space_group_symop_operation_xyz
x,y,z
-x,1/2-y,z
x,-y,-z
-x,1/2+y,-z
-x,-y,-z
x,1/2+y,-z
-x,y,z
x,1/2-y,z
1/2+x,1/2+y,z
1/2-x,-y,z
1/2+x,1/2-y,-z
1/2-x,y,-z
1/2-x,1/2-y,-z
1/2+x,y,-z
1/2-x,1/2+y,z
1/2+x,-y,z
loop_
_atom_site_type_symbol
_atom_site_label
_atom_site_fract_x
_atom_site_fract_y
_atom_site_fract_z
Si Si1 0.192581 0.424721 0.853647
Si Si2 0.192514 0.924525 0.263083
Si Si3 0.692479 0.172337 0.055616
Si Si4 0.310318 0.073978 0.558082
Si Si5 0.692826 0.827513 0.645605
O O1 0.250000 0.500000 0.865405
O O2 0.244763 0.408631 0.795296
O O3 0.248630 0.373023 0.897035
O O4 0.000000 0.423901 0.853747
O O5 0.247158 0.869913 0.304593
O O6 0.000000 0.925116 0.263623
O O7 0.250000 0.000000 0.275857
O O8 0.500000 0.171926 0.055674
O O9 0.745677 0.250000 0.061357
O O10 0.750000 0.147666 0.000000
O O11 0.500000 0.073151 0.557984
O O12 0.250000 0.084285 0.500000
O O13 0.248147 0.131530 0.595808
O O14 0.250000 0.000000 0.575162
O O15 0.500000 0.826925 0.646080
O O16 0.747569 0.750000 0.646006
#
# Coordination Sequence:
#
# PCOD9503728 Si02
#       5
#    16  16  16  16  16
#     4   9  18  32  50  73  99 128 165 208 253 299
#     4   9  18  33  53  75 100 133 170 209 253 302
#     4   9  18  32  49  69  95 128 165 204 247 298
#     4  11  22  38  60  83 108 139 177 217 258 306
#     4  10  21  36  54  79 110 141 174 213 258 307
#
# _framework density 18.451937000000001
#
# number of rings (size 3 to 8) (size 9 to 14) (size 15 to 20)
#    0.000    2.400    0.000    3.000    0.000    5.200 
#    0.000    6.000    0.000    0.000    0.000    8.400 
#    0.000    0.000    0.000    0.000    0.000    0.000 
#
# Total GULP energy -223229.301655 kJ/mol
# GULP energy per Si atom -5580.732541 kJ/mol
# Density = 1.840994 g / cm^3
# Si number density = 18.451937 Si / 1000 Ang^3
#
#
#
# Elastic Constant Matrix: (Units=GPa)
#
#
# Indices 1 2 3 4 5 6 
#
# 1 19.2722 23.0530 20.1908 0.0000 0.0000 0.0000
# 2 23.0530 157.3607 122.0145 0.0000 0.0000 0.0000
# 3 20.1908 122.0145 140.4198 0.0000 0.0000 0.0000
# 4 0.0000 0.0000 0.0000 -6.9078 0.0000 0.0000
# 5 0.0000 0.0000 0.0000 0.0000 20.3473 0.0000
# 6 0.0000 0.0000 0.0000 0.0000 0.0000 23.9557
#
#
#
# Elastic Compliance Matrix: (Units=1/GPa)
#
#
# Indices 1 2 3 4 5 6 
#
# 1 0.063380 -0.006801 -0.003204 0.000000 0.000000 0.000000
# 2 -0.006801 0.020208 -0.016581 0.000000 0.000000 0.000000
# 3 -0.003204 -0.016581 0.021990 0.000000 0.000000 0.000000
# 4 0.000000 0.000000 0.000000 -0.144763 0.000000 0.000000
# 5 0.000000 0.000000 0.000000 0.000000 0.049147 0.000000
# 6 0.000000 0.000000 0.000000 0.000000 0.000000 0.041744
#
#
# Mechanical properties :
#
#
# Convention : Reuss Voigt Hill
#
# Bulk Modulus (GPa) = 19.08185 71.95215 45.51700
# Shear Modulus (GPa) = 40.86770 17.59867 29.23318
#
# Velocity S-wave (km/s) = 4.71129 3.09165 3.98463
# Velocity P-wave (km/s) = 6.32130 7.19885 6.77430
#
# Compressibility (1/GPa) = 0.05240582
#
# Stress axis : x y z
#
# Youngs Moduli (GPa) = 15.77789 49.48525 45.47466
#
# Poissons Ratio (x) = 0.33653 0.14570
# Poissons Ratio (y) = 0.10730 0.75404
# Poissons Ratio (z) = 0.05055 0.82054
#
# Static dielectric constant tensor:
#      x y z
#    x 1.637830 0.000000 0.000000 
#    y 0.000000 1.611070 0.000000 
#    z 0.000000 0.000000 1.636100 
# 
# From -- ./inp_files/43208.got.cif
#   From: 2010.05.17/outbox.cif.g08.bks.cpg/sg67_22_cif.got.tgz:43208.got - 2010.06.03 18:28:57.
