data_PCOD9503380
_publ_section_title
;
Structure prediction by ZEFSAII (Michael W. Deem and Ramdas Pophale) SiO2 
 PCOD9503380
Probable space group: C M M A
;
_chemical_formula_sum "Si O2"
_cell_formula_units_Z 64
_cell_length_a 10.776703
_cell_length_b 18.007418
_cell_length_c 16.856694
_cell_angle_alpha 90.000000
_cell_angle_beta 90.000000
_cell_angle_gamma 90.000000
_cell_volume 3271.220077
_symmetry_space_group_name_H-M "C M M A"
_symmetry_group_IT_number 67
_symmetry_cell_setting 'orthorhombic'
loop_
_space_group_symop_operation_xyz
x,y,z
-x,1/2-y,z
x,-y,-z
-x,1/2+y,-z
-x,-y,-z
x,1/2+y,-z
-x,y,z
x,1/2-y,z
1/2+x,1/2+y,z
1/2-x,-y,z
1/2+x,1/2-y,-z
1/2-x,y,-z
1/2-x,1/2-y,-z
1/2+x,y,-z
1/2-x,1/2+y,z
1/2+x,-y,z
loop_
_atom_site_type_symbol
_atom_site_label
_atom_site_fract_x
_atom_site_fract_y
_atom_site_fract_z
Si Si1 0.000000 0.338012 0.086636
Si Si2 0.000000 0.337389 0.895897
Si Si3 0.369184 0.966766 0.411606
Si Si4 0.755466 0.589605 0.833825
Si Si5 0.354545 0.833582 0.320429
O O1 0.874901 0.378403 0.117737
O O2 0.000000 0.250000 0.110484
O O3 0.000000 0.340698 0.991409
O O4 0.874395 0.376810 0.865199
O O5 0.000000 0.250000 0.872772
O O6 0.500000 0.986284 0.372425
O O7 0.353215 0.878905 0.403007
O O8 0.373259 0.000000 0.500000
O O9 0.250000 0.000000 0.371293
O O10 0.750000 0.500000 0.836530
O O11 0.780539 0.621713 0.745885
O O12 0.500000 0.832142 0.296117
O O13 0.309917 0.750000 0.327783
#
# Coordination Sequence:
#
# PCOD9503380 Si02
#       5
#     8   8  16  16  16
#     4  11  23  43  65  85 120 172 213 250 314 393
#     4  11  25  41  61  91 126 160 207 268 322 365
#     4   9  18  35  59  86 117 151 190 244 300 358
#     4  12  24  39  62  91 123 163 210 265 316 367
#     4  10  20  37  62  87 117 162 211 249 298 375
#
# _framework density 19.564565000000002
#
# number of rings (size 3 to 8) (size 9 to 14) (size 15 to 20)
#    0.000    1.500    1.250    4.500    0.000    5.000 
#    2.250    2.500    0.000    1.500    0.000    0.000 
#    0.000    0.000    0.000    0.000    0.000    0.000 
#
# Total GULP energy -178304.899406 kJ/mol
# GULP energy per Si atom -5572.028106 kJ/mol
# Density = 1.952004 g / cm^3
# Si number density = 19.564565 Si / 1000 Ang^3
#
#
#
# Elastic Constant Matrix: (Units=GPa)
#
#
# Indices 1 2 3 4 5 6 
#
# 1 166.6917 90.8090 29.1491 0.0000 0.0000 0.0000
# 2 90.8090 222.9985 74.5854 0.0000 0.0000 0.0000
# 3 29.1491 74.5854 88.4839 0.0000 0.0000 0.0000
# 4 0.0000 0.0000 0.0000 35.6372 0.0000 0.0000
# 5 0.0000 0.0000 0.0000 0.0000 -9.2892 0.0000
# 6 0.0000 0.0000 0.0000 0.0000 0.0000 33.1471
#
#
#
# Elastic Compliance Matrix: (Units=1/GPa)
#
#
# Indices 1 2 3 4 5 6 
#
# 1 0.007711 -0.003190 0.000148 0.000000 0.000000 0.000000
# 2 -0.003190 0.007564 -0.005325 0.000000 0.000000 0.000000
# 3 0.000148 -0.005325 0.015742 0.000000 0.000000 0.000000
# 4 0.000000 0.000000 0.000000 0.028061 0.000000 0.000000
# 5 0.000000 0.000000 0.000000 0.000000 -0.107652 0.000000
# 6 0.000000 0.000000 0.000000 0.000000 0.000000 0.030169
#
#
# Mechanical properties :
#
#
# Convention : Reuss Voigt Hill
#
# Bulk Modulus (GPa) = 70.01099 96.36233 83.18666
# Shear Modulus (GPa) = 1618.91071 30.80773 824.85922
#
# Velocity S-wave (km/s) = 28.79700 3.97252 20.55539
# Velocity P-wave (km/s) = 33.78686 8.39057 24.61659
#
# Compressibility (1/GPa) = 0.01428347
#
# Stress axis : x y z
#
# Youngs Moduli (GPa) = 129.68916 132.19837 63.52606
#
# Poissons Ratio (x) = 0.42166 -0.00943
# Poissons Ratio (y) = 0.41366 0.33831
# Poissons Ratio (z) = -0.01925 0.70402
#
# Static dielectric constant tensor:
#      x y z
#    x 1.719970 0.000000 0.000000 
#    y 0.000000 1.700040 0.000000 
#    z 0.000000 0.000000 1.660860 
# 
# From -- ./inp_files/32678.got.cif
#   From: 2010.05.17/outbox.cif.g08.bks.cpg/sg67_17_cif.got.tgz:32678.got - 2010.06.03 18:28:57.
