data_PCOD9503532
_publ_section_title
;
Structure prediction by ZEFSAII (Michael W. Deem and Ramdas Pophale) SiO2 
 PCOD9503532
Probable space group: C M M A
;
_chemical_formula_sum "Si O2"
_cell_formula_units_Z 116
_cell_length_a 24.336084
_cell_length_b 24.644101
_cell_length_c 9.774213
_cell_angle_alpha 90.000000
_cell_angle_beta 90.000000
_cell_angle_gamma 90.000000
_cell_volume 5861.995419
_symmetry_space_group_name_H-M "C M M A"
_symmetry_group_IT_number 67
_symmetry_cell_setting 'orthorhombic'
loop_
_space_group_symop_operation_xyz
x,y,z
-x,1/2-y,z
x,-y,-z
-x,1/2+y,-z
-x,-y,-z
x,1/2+y,-z
-x,y,z
x,1/2-y,z
1/2+x,1/2+y,z
1/2-x,-y,z
1/2+x,1/2-y,-z
1/2-x,y,-z
1/2-x,1/2-y,-z
1/2+x,y,-z
1/2-x,1/2+y,z
1/2+x,-y,z
loop_
_atom_site_type_symbol
_atom_site_label
_atom_site_fract_x
_atom_site_fract_y
_atom_site_fract_z
Si Si1 0.893490 0.359853 0.826606
Si Si2 0.437885 0.315790 0.888680
Si Si3 0.834022 0.686860 0.708022
Si Si4 0.936184 0.051395 0.399999
Si Si5 0.726159 0.686875 0.846611
Si Si6 0.405347 0.664871 0.519938
Si Si7 0.065598 0.981501 0.155231
Si Si8 0.500000 0.750000 0.450220
O O1 0.829264 0.347193 0.842264
O O2 0.910730 0.332904 0.682870
O O3 0.906512 0.423649 0.820197
O O4 0.924716 0.334876 0.957522
O O5 0.500000 0.334005 0.850817
O O6 0.438962 0.250000 0.882063
O O7 0.387276 0.334732 0.792713
O O8 0.830508 0.750000 0.748952
O O9 0.775251 0.664334 0.751866
O O10 0.848353 0.683456 0.548493
O O11 0.910145 0.102919 0.471653
O O12 0.000000 0.065570 0.380658
O O13 0.933066 0.000000 0.500000
O O14 0.914182 0.028882 0.256244
O O15 0.712750 0.750000 0.811622
O O16 0.750000 0.686894 0.000000
O O17 0.451985 0.702936 0.456262
O O18 0.000000 0.974200 0.181660
O O19 0.072536 0.000000 0.000000
#
# Coordination Sequence:
#
# PCOD9503532 Si02
#       8
#    16  16  16  16  16  16  16   4
#     4  12  24  39  63  95 127 169 213 278 334 378
#     4  10  22  34  56  89 129 164 204 258 332 396
#     4  10  22  41  60  90 128 176 225 262 314 399
#     4  10  20  39  62  86 126 178 212 246 316 397
#     4  10  21  41  66  90 126 177 230 270 324 400
#     4  12  26  39  63  97 140 175 211 272 329 399
#     4  10  23  41  63  96 128 163 223 276 326 394
#     4  12  28  40  58 104 152 176 208 256 346 400
#
# _framework density 19.788484
#
# number of rings (size 3 to 8) (size 9 to 14) (size 15 to 20)
#    0.000    1.379    4.138    0.828    6.759    0.552 
#    0.000    1.379    0.000    2.897    0.000    0.000 
#    0.000    0.000    0.000    0.000    0.000    0.000 
#
# Total GULP energy -323439.653769 kJ/mol
# GULP energy per Si atom -5576.545755 kJ/mol
# Density = 1.974344 g / cm^3
# Si number density = 19.788484 Si / 1000 Ang^3
#
#
#
# Elastic Constant Matrix: (Units=GPa)
#
#
# Indices 1 2 3 4 5 6 
#
# 1 83.7502 33.0935 7.2101 0.0000 0.0000 0.0000
# 2 33.0935 65.0463 12.9423 0.0000 0.0000 0.0000
# 3 7.2101 12.9423 76.6316 0.0000 0.0000 0.0000
# 4 0.0000 0.0000 0.0000 19.4811 0.0000 0.0000
# 5 0.0000 0.0000 0.0000 0.0000 14.0177 0.0000
# 6 0.0000 0.0000 0.0000 0.0000 0.0000 20.4846
#
#
#
# Elastic Compliance Matrix: (Units=1/GPa)
#
#
# Indices 1 2 3 4 5 6 
#
# 1 0.014946 -0.007579 -0.000126 0.000000 0.000000 0.000000
# 2 -0.007579 0.019751 -0.002623 0.000000 0.000000 0.000000
# 3 -0.000126 -0.002623 0.013504 0.000000 0.000000 0.000000
# 4 0.000000 0.000000 0.000000 0.051332 0.000000 0.000000
# 5 0.000000 0.000000 0.000000 0.000000 0.071338 0.000000
# 6 0.000000 0.000000 0.000000 0.000000 0.000000 0.048817
#
#
# Mechanical properties :
#
#
# Convention : Reuss Voigt Hill
#
# Bulk Modulus (GPa) = 36.30303 36.87996 36.59150
# Shear Modulus (GPa) = 20.03794 22.27549 21.15671
#
# Velocity S-wave (km/s) = 3.18560 3.35875 3.27332
# Velocity P-wave (km/s) = 5.64943 5.80682 5.72867
#
# Compressibility (1/GPa) = 0.02754591
#
# Stress axis : x y z
#
# Youngs Moduli (GPa) = 66.90799 50.62936 74.05066
#
# Poissons Ratio (x) = 0.38371 0.00935
# Poissons Ratio (y) = 0.50709 0.19421
# Poissons Ratio (z) = 0.00845 0.13279
#
# Static dielectric constant tensor:
#      x y z
#    x 1.698510 0.000000 0.000000 
#    y 0.000000 1.686260 0.000000 
#    z 0.000000 0.000000 1.760780 
# 
# From -- ./inp_files/12916.got.cif
#   From: 2010.05.17/outbox.cif.g08.bks.cpg/sg67_7_cif.got.tgz:12916.got - 2010.06.03 18:28:57.
