data_PCOD9503112
_publ_section_title
;
Structure prediction by ZEFSAII (Michael W. Deem and Ramdas Pophale) SiO2 
 PCOD9503112
Probable space group: C M M A
;
_chemical_formula_sum "Si O2"
_cell_formula_units_Z 56
_cell_length_a 8.624400
_cell_length_b 14.830386
_cell_length_c 21.318278
_cell_angle_alpha 90.000000
_cell_angle_beta 90.000000
_cell_angle_gamma 90.000000
_cell_volume 2726.675570
_symmetry_space_group_name_H-M "C M M A"
_symmetry_group_IT_number 67
_symmetry_cell_setting 'orthorhombic'
loop_
_space_group_symop_operation_xyz
x,y,z
-x,1/2-y,z
x,-y,-z
-x,1/2+y,-z
-x,-y,-z
x,1/2+y,-z
-x,y,z
x,1/2-y,z
1/2+x,1/2+y,z
1/2-x,-y,z
1/2+x,1/2-y,-z
1/2-x,y,-z
1/2-x,1/2-y,-z
1/2+x,y,-z
1/2-x,1/2+y,z
1/2+x,-y,z
loop_
_atom_site_type_symbol
_atom_site_label
_atom_site_fract_x
_atom_site_fract_y
_atom_site_fract_z
Si Si1 0.185781 0.102678 0.564153
Si Si2 0.813757 0.397435 0.700791
Si Si3 0.685809 0.398846 0.831259
Si Si4 0.813110 0.750000 0.930062
O O1 0.250000 0.144366 0.500000
O O2 0.228086 0.142293 0.632459
O O3 0.000000 0.100261 0.560292
O O4 0.250000 0.000000 0.565244
O O5 0.750000 0.500000 0.699728
O O6 0.745273 0.359204 0.764945
O O7 0.000000 0.398314 0.705257
O O8 0.500000 0.402154 0.828875
O O9 0.750000 0.500000 0.837827
O O10 0.735134 0.336805 0.889240
O O11 0.000000 0.750000 0.932570
O O12 0.750000 0.750000 0.000000
#
# Coordination Sequence:
#
# PCOD9503112 Si02
#       4
#    16  16  16   8
#     4   9  15  21  32  54  88 127 169 213 259 306
#     4   9  16  26  42  67  97 133 175 218 262 311
#     4  10  20  36  57  82 110 142 179 219 263 314
#     4  10  24  42  60  84 113 142 175 214 261 318
#
# _framework density 20.537828999999999
#
# number of rings (size 3 to 8) (size 9 to 14) (size 15 to 20)
#    0.000    2.571    0.000    5.143    0.000    6.286 
#    0.000    2.857    0.000    0.000    0.000    1.000 
#    0.000    0.000    0.000    0.857    0.000    0.000 
#
# Total GULP energy -156164.496141 kJ/mol
# GULP energy per Si atom -5577.303434 kJ/mol
# Density = 2.049108 g / cm^3
# Si number density = 20.537829 Si / 1000 Ang^3
#
#
#
# Elastic Constant Matrix: (Units=GPa)
#
#
# Indices 1 2 3 4 5 6 
#
# 1 63.8985 21.5368 60.8512 0.0000 0.0000 0.0000
# 2 21.5368 89.7863 69.5407 0.0000 0.0000 0.0000
# 3 60.8512 69.5407 266.8771 0.0000 0.0000 0.0000
# 4 0.0000 0.0000 0.0000 160.9247 0.0000 0.0000
# 5 0.0000 0.0000 0.0000 0.0000 41.8256 0.0000
# 6 0.0000 0.0000 0.0000 0.0000 0.0000 3.1416
#
#
#
# Elastic Compliance Matrix: (Units=1/GPa)
#
#
# Indices 1 2 3 4 5 6 
#
# 1 0.020172 -0.001599 -0.004183 0.000000 0.000000 0.000000
# 2 -0.001599 0.014080 -0.003304 0.000000 0.000000 0.000000
# 3 -0.004183 -0.003304 0.005562 0.000000 0.000000 0.000000
# 4 0.000000 0.000000 0.000000 0.006214 0.000000 0.000000
# 5 0.000000 0.000000 0.000000 0.000000 0.023909 0.000000
# 6 0.000000 0.000000 0.000000 0.000000 0.000000 0.318305
#
#
# Mechanical properties :
#
#
# Convention : Reuss Voigt Hill
#
# Bulk Modulus (GPa) = 46.20658 80.49103 63.34881
# Shear Modulus (GPa) = 12.08816 59.08727 35.58771
#
# Velocity S-wave (km/s) = 2.42870 5.36958 4.16719
# Velocity P-wave (km/s) = 5.51470 8.81589 7.35295
#
# Compressibility (1/GPa) = 0.02164194
#
# Stress axis : x y z
#
# Youngs Moduli (GPa) = 49.57345 71.02084 179.79769
#
# Poissons Ratio (x) = 0.11356 0.75206
# Poissons Ratio (y) = 0.07927 0.59412
# Poissons Ratio (z) = 0.20736 0.23468
#
# Static dielectric constant tensor:
#      x y z
#    x 1.686570 0.000000 0.000000 
#    y 0.000000 1.772380 0.000000 
#    z 0.000000 0.000000 1.778590 
# 
# From -- ./inp_files/31628.got.cif
#   From: 2010.05.17/outbox.cif.g08.bks.cpg/sg67_16_cif.got.tgz:31628.got - 2010.06.03 18:28:57.
