data_PCOD9503083
_publ_section_title
;
Structure prediction by ZEFSAII (Michael W. Deem and Ramdas Pophale) SiO2 
 PCOD9503083
Probable space group: C M M A
;
_chemical_formula_sum "Si O2"
_cell_formula_units_Z 72
_cell_length_a 8.658832
_cell_length_b 21.690620
_cell_length_c 20.518191
_cell_angle_alpha 90.000000
_cell_angle_beta 90.000000
_cell_angle_gamma 90.000000
_cell_volume 3853.632959
_symmetry_space_group_name_H-M "C M M A"
_symmetry_group_IT_number 67
_symmetry_cell_setting 'orthorhombic'
loop_
_space_group_symop_operation_xyz
x,y,z
-x,1/2-y,z
x,-y,-z
-x,1/2+y,-z
-x,-y,-z
x,1/2+y,-z
-x,y,z
x,1/2-y,z
1/2+x,1/2+y,z
1/2-x,-y,z
1/2+x,1/2-y,-z
1/2-x,y,-z
1/2-x,1/2-y,-z
1/2+x,y,-z
1/2-x,1/2+y,z
1/2+x,-y,z
loop_
_atom_site_type_symbol
_atom_site_label
_atom_site_fract_x
_atom_site_fract_y
_atom_site_fract_z
Si Si1 0.685266 0.250000 0.572855
Si Si2 0.810865 0.679327 0.211812
Si Si3 0.814189 0.114476 0.426736
Si Si4 0.675101 0.175225 0.066970
Si Si5 0.684837 0.436358 0.299312
O O1 0.500000 0.250000 0.571778
O O2 0.750000 0.250000 0.500000
O O3 0.733888 0.183407 0.598404
O O4 0.762709 0.750000 0.228346
O O5 0.755580 0.663160 0.138370
O O6 0.763718 0.624717 0.259970
O O7 0.000000 0.680583 0.210298
O O8 0.750000 0.105906 0.500000
O O9 0.746022 0.069697 0.373033
O O10 0.000000 0.110732 0.428959
O O11 0.500000 0.152553 0.067975
O O12 0.671659 0.250000 0.063620
O O13 0.750000 0.153012 0.000000
O O14 0.500000 0.438013 0.299295
O O15 0.750000 0.500000 0.270850
#
# Coordination Sequence:
#
# PCOD9503083 Si02
#       5
#     8  16  16  16  16
#     4   8  16  30  50  76 106 132 157 200 255 308
#     4   8  16  32  54  79 105 138 178 216 257 311
#     4  10  20  36  56  80 107 136 173 216 266 317
#     4   8  13  24  45  74 106 134 165 208 256 304
#     4  11  23  38  56  77 105 141 179 220 268 319
#
# _framework density 18.683668999999998
#
# number of rings (size 3 to 8) (size 9 to 14) (size 15 to 20)
#    0.000    2.889    0.000    2.667    1.556    1.333 
#    0.000    4.444    0.000    3.333    0.000    4.667 
#    0.000    0.000    0.000    0.000    0.000    0.000 
#
# Total GULP energy -200402.992560 kJ/mol
# GULP energy per Si atom -5566.749793 kJ/mol
# Density = 1.864114 g / cm^3
# Si number density = 18.683669 Si / 1000 Ang^3
#
#
#
# Elastic Constant Matrix: (Units=GPa)
#
#
# Indices 1 2 3 4 5 6 
#
# 1 27.6560 23.4829 25.1604 0.0000 0.0000 0.0000
# 2 23.4829 113.9921 66.2172 0.0000 0.0000 0.0000
# 3 25.1604 66.2172 118.9473 0.0000 0.0000 0.0000
# 4 0.0000 0.0000 0.0000 8.9243 0.0000 0.0000
# 5 0.0000 0.0000 0.0000 0.0000 19.9505 0.0000
# 6 0.0000 0.0000 0.0000 0.0000 0.0000 21.3564
#
#
#
# Elastic Compliance Matrix: (Units=1/GPa)
#
#
# Indices 1 2 3 4 5 6 
#
# 1 0.047237 -0.005804 -0.006761 0.000000 0.000000 0.000000
# 2 -0.005804 0.013678 -0.006387 0.000000 0.000000 0.000000
# 3 -0.006761 -0.006387 0.013393 0.000000 0.000000 0.000000
# 4 0.000000 0.000000 0.000000 0.112054 0.000000 0.000000
# 5 0.000000 0.000000 0.000000 0.000000 0.050124 0.000000
# 6 0.000000 0.000000 0.000000 0.000000 0.000000 0.046824
#
#
# Mechanical properties :
#
#
# Convention : Reuss Voigt Hill
#
# Bulk Modulus (GPa) = 27.46865 54.47958 40.97412
# Shear Modulus (GPa) = 14.99928 19.76190 17.38059
#
# Velocity S-wave (km/s) = 2.83645 3.25577 3.05332
# Velocity P-wave (km/s) = 5.04590 6.58450 5.86587
#
# Compressibility (1/GPa) = 0.03640514
#
# Stress axis : x y z
#
# Youngs Moduli (GPa) = 21.16962 73.10871 74.66695
#
# Poissons Ratio (x) = 0.42430 0.50483
# Poissons Ratio (y) = 0.12286 0.47690
# Poissons Ratio (z) = 0.14313 0.46694
#
# Static dielectric constant tensor:
#      x y z
#    x 1.688730 0.000000 0.000000 
#    y 0.000000 1.685310 0.000000 
#    z 0.000000 0.000000 1.657650 
# 
# From -- ./inp_files/36725.got.cif
#   From: 2010.05.17/outbox.cif.g08.bks.cpg/sg67_19_cif.got.tgz:36725.got - 2010.06.03 18:28:57.
