data_PCOD9503706
_publ_section_title
;
Structure prediction by ZEFSAII (Michael W. Deem and Ramdas Pophale) SiO2 
 PCOD9503706
Probable space group: C M M A
;
_chemical_formula_sum "Si O2"
_cell_formula_units_Z 96
_cell_length_a 21.416268
_cell_length_b 14.464386
_cell_length_c 15.350689
_cell_angle_alpha 90.000000
_cell_angle_beta 90.000000
_cell_angle_gamma 90.000000
_cell_volume 4755.231548
_symmetry_space_group_name_H-M "C M M A"
_symmetry_group_IT_number 67
_symmetry_cell_setting 'orthorhombic'
loop_
_space_group_symop_operation_xyz
x,y,z
-x,1/2-y,z
x,-y,-z
-x,1/2+y,-z
-x,-y,-z
x,1/2+y,-z
-x,y,z
x,1/2-y,z
1/2+x,1/2+y,z
1/2-x,-y,z
1/2+x,1/2-y,-z
1/2-x,y,-z
1/2-x,1/2-y,-z
1/2+x,y,-z
1/2-x,1/2+y,z
1/2+x,-y,z
loop_
_atom_site_type_symbol
_atom_site_label
_atom_site_fract_x
_atom_site_fract_y
_atom_site_fract_z
Si Si1 0.133920 0.644444 0.654973
Si Si2 0.704158 0.138246 0.075001
Si Si3 0.430833 0.143499 0.478504
Si Si4 0.931605 0.861847 0.122993
Si Si5 0.398555 0.953511 0.695619
Si Si6 0.227355 0.357473 0.726570
O O1 0.114019 0.750000 0.673622
O O2 0.119951 0.626884 0.553090
O O3 0.098417 0.563500 0.705546
O O4 0.206560 0.636804 0.679433
O O5 0.702042 0.250000 0.067070
O O6 0.631779 0.106790 0.074273
O O7 0.731813 0.118868 0.170877
O O8 0.750000 0.104022 0.000000
O O9 0.500000 0.134796 0.518911
O O10 0.423772 0.250000 0.448582
O O11 0.427403 0.078924 0.395082
O O12 0.929382 0.750000 0.127420
O O13 0.925572 0.901152 0.220923
O O14 0.000000 0.887798 0.087203
O O15 0.326112 0.922425 0.689052
O O16 0.206050 0.250000 0.721228
#
# Coordination Sequence:
#
# PCOD9503706 Si02
#       6
#    16  16  16  16  16  16
#     4  10  22  36  49  69 102 140 176 217 257 304
#     4   8  14  27  51  81 110 139 170 208 260 323
#     4  10  21  36  53  74  99 129 171 220 266 312
#     4   9  17  29  49  81 115 140 168 216 273 321
#     4  11  19  31  53  76 101 136 176 215 264 318
#     4   9  18  33  52  76 104 133 171 217 264 315
#
# _framework density 20.188291
#
# number of rings (size 3 to 8) (size 9 to 14) (size 15 to 20)
#    0.000    2.500    0.000    4.000    0.000    4.000 
#    0.000    4.167    0.000    9.000    0.000    8.167 
#    0.000    0.000    0.000    0.000    0.000    0.000 
#
# Total GULP energy -267778.013125 kJ/mol
# GULP energy per Si atom -5578.708607 kJ/mol
# Density = 2.014234 g / cm^3
# Si number density = 20.188291 Si / 1000 Ang^3
#
#
#
# Elastic Constant Matrix: (Units=GPa)
#
#
# Indices 1 2 3 4 5 6 
#
# 1 135.2139 21.9077 72.6453 0.0000 0.0000 0.0000
# 2 21.9077 76.9271 15.3637 0.0000 0.0000 0.0000
# 3 72.6453 15.3637 61.5471 0.0000 0.0000 0.0000
# 4 0.0000 0.0000 0.0000 -3.7131 0.0000 0.0000
# 5 0.0000 0.0000 0.0000 0.0000 20.7583 0.0000
# 6 0.0000 0.0000 0.0000 0.0000 0.0000 8.5822
#
#
#
# Elastic Compliance Matrix: (Units=1/GPa)
#
#
# Indices 1 2 3 4 5 6 
#
# 1 0.020295 -0.001048 -0.023693 0.000000 0.000000 0.000000
# 2 -0.001048 0.013735 -0.002192 0.000000 0.000000 0.000000
# 3 -0.023693 -0.002192 0.044760 0.000000 0.000000 0.000000
# 4 0.000000 0.000000 0.000000 -0.269314 0.000000 0.000000
# 5 0.000000 0.000000 0.000000 0.000000 0.048173 0.000000
# 6 0.000000 0.000000 0.000000 0.000000 0.000000 0.116520
#
#
# Mechanical properties :
#
#
# Convention : Reuss Voigt Hill
#
# Bulk Modulus (GPa) = 40.12020 54.83574 47.47797
# Shear Modulus (GPa) = 137.58306 16.04357 76.81332
#
# Velocity S-wave (km/s) = 8.26425 2.82210 6.17503
# Velocity P-wave (km/s) = 10.53470 6.15143 8.62612
#
# Compressibility (1/GPa) = 0.02492510
#
# Stress axis : x y z
#
# Youngs Moduli (GPa) = 49.27423 72.80408 22.34151
#
# Poissons Ratio (x) = 0.07628 0.52933
# Poissons Ratio (y) = 0.05163 0.04897
# Poissons Ratio (z) = 1.16743 0.15959
#
# Static dielectric constant tensor:
#      x y z
#    x 1.747890 0.000000 0.000000 
#    y 0.000000 1.753600 0.000000 
#    z 0.000000 0.000000 1.680740 
# 
# From -- ./inp_files/29249.got.cif
#   From: 2010.05.17/outbox.cif.g08.bks.cpg/sg67_15_cif.got.tgz:29249.got - 2010.06.03 18:28:57.
