data_PCOD9503169
_publ_section_title
;
Structure prediction by ZEFSAII (Michael W. Deem and Ramdas Pophale) SiO2 
 PCOD9503169
Probable space group: C M M A
;
_chemical_formula_sum "Si O2"
_cell_formula_units_Z 116
_cell_length_a 18.218257
_cell_length_b 24.983270
_cell_length_c 12.004937
_cell_angle_alpha 90.000000
_cell_angle_beta 90.000000
_cell_angle_gamma 90.000000
_cell_volume 5464.066686
_symmetry_space_group_name_H-M "C M M A"
_symmetry_group_IT_number 67
_symmetry_cell_setting 'orthorhombic'
loop_
_space_group_symop_operation_xyz
x,y,z
-x,1/2-y,z
x,-y,-z
-x,1/2+y,-z
-x,-y,-z
x,1/2+y,-z
-x,y,z
x,1/2-y,z
1/2+x,1/2+y,z
1/2-x,-y,z
1/2+x,1/2-y,-z
1/2-x,y,-z
1/2-x,1/2-y,-z
1/2+x,y,-z
1/2-x,1/2+y,z
1/2+x,-y,z
loop_
_atom_site_type_symbol
_atom_site_label
_atom_site_fract_x
_atom_site_fract_y
_atom_site_fract_z
Si Si1 0.585094 0.550677 0.925989
Si Si2 0.418259 0.120481 0.859460
Si Si3 0.274785 0.686943 0.120692
Si Si4 0.816450 0.962073 0.287113
Si Si5 0.500000 0.750000 0.402802
Si Si6 0.129517 0.833981 0.548672
Si Si7 0.084420 0.552065 0.639583
Si Si8 0.285131 0.156074 0.341380
O O1 0.500000 0.541908 0.892072
O O2 0.635104 0.555770 0.818397
O O3 0.608835 0.500000 0.000000
O O4 0.586315 0.598578 0.014945
O O5 0.500000 0.143966 0.842290
O O6 0.350574 0.159548 0.843042
O O7 0.411179 0.072899 0.768944
O O8 0.286277 0.750000 0.112752
O O9 0.214578 0.674603 0.214321
O O10 0.250000 0.666308 0.000000
O O11 0.785730 0.908551 0.343215
O O12 0.750000 0.000000 0.249218
O O13 0.865965 0.999500 0.365925
O O14 0.564800 0.703314 0.408788
O O15 0.109208 0.896080 0.570321
O O16 0.207608 0.824215 0.608874
O O17 0.148335 0.825047 0.418641
O O18 0.000000 0.539774 0.615330
#
# Coordination Sequence:
#
# PCOD9503169 Si02
#       8
#    16  16  16  16   4  16  16  16
#     4  10  20  36  58  90 132 189 244 286 342 408
#     4  10  20  37  62  91 133 172 228 297 337 411
#     4  11  24  43  67  96 135 177 226 286 360 423
#     4  12  22  38  63  97 140 192 229 280 359 428
#     4  12  28  50  84 106 122 184 238 304 358 396
#     4  11  25  47  73 104 134 171 239 293 352 416
#     4  11  21  41  63 100 140 173 229 291 342 414
#     4  11  26  45  68 103 143 179 227 290 351 426
#
# _framework density 21.229610000000001
#
# number of rings (size 3 to 8) (size 9 to 14) (size 15 to 20)
#    0.000    1.103    4.828    1.241    1.931    1.655 
#    2.483    0.690    1.517    0.000    0.000    0.000 
#    0.000    0.000    0.000    0.000    0.000    0.000 
#
# Total GULP energy -323824.928655 kJ/mol
# GULP energy per Si atom -5583.188425 kJ/mol
# Density = 2.118129 g / cm^3
# Si number density = 21.229610 Si / 1000 Ang^3
#
#
#
# Elastic Constant Matrix: (Units=GPa)
#
#
# Indices 1 2 3 4 5 6 
#
# 1 90.6550 19.6382 24.6195 0.0000 0.0000 0.0000
# 2 19.6382 50.3222 1.0407 0.0000 0.0000 0.0000
# 3 24.6195 1.0407 97.1041 0.0000 0.0000 0.0000
# 4 0.0000 0.0000 0.0000 6.4356 0.0000 0.0000
# 5 0.0000 0.0000 0.0000 0.0000 14.6017 0.0000
# 6 0.0000 0.0000 0.0000 0.0000 0.0000 36.9559
#
#
#
# Elastic Compliance Matrix: (Units=1/GPa)
#
#
# Indices 1 2 3 4 5 6 
#
# 1 0.012995 -0.005004 -0.003241 0.000000 0.000000 0.000000
# 2 -0.005004 0.021803 0.001035 0.000000 0.000000 0.000000
# 3 -0.003241 0.001035 0.011109 0.000000 0.000000 0.000000
# 4 0.000000 0.000000 0.000000 0.155386 0.000000 0.000000
# 5 0.000000 0.000000 0.000000 0.000000 0.068485 0.000000
# 6 0.000000 0.000000 0.000000 0.000000 0.000000 0.027059
#
#
# Mechanical properties :
#
#
# Convention : Reuss Voigt Hill
#
# Bulk Modulus (GPa) = 31.75932 36.51979 34.13955
# Shear Modulus (GPa) = 15.53981 24.45084 19.99532
#
# Velocity S-wave (km/s) = 2.70846 3.39740 3.07230
# Velocity P-wave (km/s) = 4.97729 5.71222 5.35737
#
# Compressibility (1/GPa) = 0.03148682
#
# Stress axis : x y z
#
# Youngs Moduli (GPa) = 76.95215 45.86432 90.01809
#
# Poissons Ratio (x) = 0.22952 0.29176
# Poissons Ratio (y) = 0.38509 -0.09318
# Poissons Ratio (z) = 0.24941 -0.04747
#
# Static dielectric constant tensor:
#      x y z
#    x 1.743560 0.000000 0.000000 
#    y 0.000000 1.762400 0.000000 
#    z 0.000000 0.000000 1.820980 
# 
# From -- ./inp_files/20001.got.cif
#   From: 2010.05.17/outbox.cif.g08.bks.cpg/sg67_11_cif.got.tgz:20001.got - 2010.06.03 18:28:57.
