data_PCOD9503473
_publ_section_title
;
Structure prediction by ZEFSAII (Michael W. Deem and Ramdas Pophale) SiO2 
 PCOD9503473
Probable space group: C M M A
;
_chemical_formula_sum "Si O2"
_cell_formula_units_Z 88
_cell_length_a 15.104154
_cell_length_b 7.835141
_cell_length_c 33.066497
_cell_angle_alpha 90.000000
_cell_angle_beta 90.000000
_cell_angle_gamma 90.000000
_cell_volume 3913.194283
_symmetry_space_group_name_H-M "C M M A"
_symmetry_group_IT_number 67
_symmetry_cell_setting 'orthorhombic'
loop_
_space_group_symop_operation_xyz
x,y,z
-x,1/2-y,z
x,-y,-z
-x,1/2+y,-z
-x,-y,-z
x,1/2+y,-z
-x,y,z
x,1/2-y,z
1/2+x,1/2+y,z
1/2-x,-y,z
1/2+x,1/2-y,-z
1/2-x,y,-z
1/2-x,1/2-y,-z
1/2+x,y,-z
1/2-x,1/2+y,z
1/2+x,-y,z
loop_
_atom_site_type_symbol
_atom_site_label
_atom_site_fract_x
_atom_site_fract_y
_atom_site_fract_z
Si Si1 0.147741 0.048433 0.109208
Si Si2 0.397650 0.544224 0.456747
Si Si3 0.894239 0.944949 0.628758
Si Si4 0.853234 0.955896 0.716657
Si Si5 0.145176 0.456078 0.196622
Si Si6 0.500000 0.050247 0.046700
O O1 0.145767 0.250000 0.113852
O O2 0.113757 0.978212 0.152828
O O3 0.250000 0.000000 0.102890
O O4 0.085778 0.006985 0.071757
O O5 0.356091 0.500000 0.500000
O O6 0.500000 0.481201 0.458832
O O7 0.399308 0.750000 0.453805
O O8 0.360155 0.478796 0.413721
O O9 0.858765 0.750000 0.631446
O O10 0.881289 0.025567 0.672849
O O11 0.000000 0.934050 0.623560
O O12 0.868288 0.750000 0.715808
O O13 0.890963 0.018350 0.759932
O O14 0.750000 0.000000 0.718734
O O15 0.134911 0.250000 0.197551
O O16 0.250000 0.500000 0.196082
O O17 0.500000 0.250000 0.047845
O O18 0.500000 0.000000 0.000000
#
# Coordination Sequence:
#
# PCOD9503473 Si02
#       6
#    16  16  16  16  16   8
#     4  10  20  38  62  90 122 157 197 242 289 342
#     4   8  13  22  37  56  77 103 139 185 235 284
#     4   8  14  25  41  62  87 114 149 193 236 285
#     4   9  16  28  46  69  94 126 161 196 240 293
#     4   8  15  28  49  76 103 134 172 212 253 302
#     4  12  26  44  64  90 122 158 198 244 293 342
#
# _framework density 22.488022000000001
#
# number of rings (size 3 to 8) (size 9 to 14) (size 15 to 20)
#    0.000    3.091    0.000    2.455    0.000    1.091 
#    1.636    2.727    0.000    2.182    0.000    3.818 
#    0.000    0.000    0.000    0.000    0.000    0.000 
#
# Total GULP energy -244935.775704 kJ/mol
# GULP energy per Si atom -5566.722175 kJ/mol
# Density = 2.243684 g / cm^3
# Si number density = 22.488022 Si / 1000 Ang^3
#
#
#
# Elastic Constant Matrix: (Units=GPa)
#
#
# Indices 1 2 3 4 5 6 
#
# 1 60.9794 0.2081 62.7176 0.0000 0.0000 0.0000
# 2 0.2081 34.9608 17.5068 0.0000 0.0000 0.0000
# 3 62.7176 17.5068 313.8332 0.0000 0.0000 0.0000
# 4 0.0000 0.0000 0.0000 13.6354 0.0000 0.0000
# 5 0.0000 0.0000 0.0000 0.0000 26.8979 0.0000
# 6 0.0000 0.0000 0.0000 0.0000 0.0000 11.0234
#
#
#
# Elastic Compliance Matrix: (Units=1/GPa)
#
#
# Indices 1 2 3 4 5 6 
#
# 1 0.020778 0.002012 -0.004265 0.000000 0.000000 0.000000
# 2 0.002012 0.029620 -0.002054 0.000000 0.000000 0.000000
# 3 -0.004265 -0.002054 0.004153 0.000000 0.000000 0.000000
# 4 0.000000 0.000000 0.000000 0.073338 0.000000 0.000000
# 5 0.000000 0.000000 0.000000 0.000000 0.037178 0.000000
# 6 0.000000 0.000000 0.000000 0.000000 0.000000 0.090716
#
#
# Mechanical properties :
#
#
# Convention : Reuss Voigt Hill
#
# Bulk Modulus (GPa) = 21.76874 63.40428 42.58651
# Shear Modulus (GPa) = 17.87560 32.26740 25.07150
#
# Velocity S-wave (km/s) = 2.82245 3.79208 3.34261
# Velocity P-wave (km/s) = 4.50808 6.88687 5.82030
#
# Compressibility (1/GPa) = 0.04593742
#
# Stress axis : x y z
#
# Youngs Moduli (GPa) = 48.12711 33.76073 240.77427
#
# Poissons Ratio (x) = -0.06792 1.02682
# Poissons Ratio (y) = -0.09682 0.49464
# Poissons Ratio (z) = 0.20524 0.06936
#
# Static dielectric constant tensor:
#      x y z
#    x 1.811940 0.000000 0.000000 
#    y 0.000000 1.866400 0.000000 
#    z 0.000000 0.000000 1.888350 
# 
# From -- ./inp_files/45802.got.cif
#   From: 2010.05.17/outbox.cif.g08.bks.cpg/sg67_23_cif.got.tgz:45802.got - 2010.06.03 18:28:57.
