data_PCOD9503965
_publ_section_title
;
Structure prediction by ZEFSAII (Michael W. Deem and Ramdas Pophale) SiO2 
 PCOD9503965
Probable space group: C M M A
;
_chemical_formula_sum "Si O2"
_cell_formula_units_Z 112
_cell_length_a 15.146913
_cell_length_b 13.631998
_cell_length_c 24.478396
_cell_angle_alpha 90.000000
_cell_angle_beta 90.000000
_cell_angle_gamma 90.000000
_cell_volume 5054.364997
_symmetry_space_group_name_H-M "C M M A"
_symmetry_group_IT_number 67
_symmetry_cell_setting 'orthorhombic'
loop_
_space_group_symop_operation_xyz
x,y,z
-x,1/2-y,z
x,-y,-z
-x,1/2+y,-z
-x,-y,-z
x,1/2+y,-z
-x,y,z
x,1/2-y,z
1/2+x,1/2+y,z
1/2-x,-y,z
1/2+x,1/2-y,-z
1/2-x,y,-z
1/2-x,1/2-y,-z
1/2+x,y,-z
1/2-x,1/2+y,z
1/2+x,-y,z
loop_
_atom_site_type_symbol
_atom_site_label
_atom_site_fract_x
_atom_site_fract_y
_atom_site_fract_z
Si Si1 0.899741 0.631071 0.841151
Si Si2 0.285148 0.130513 0.735663
Si Si3 0.226219 0.131427 0.061961
Si Si4 0.603516 0.007211 0.565410
Si Si5 0.758332 0.135021 0.387580
Si Si6 0.907872 0.633591 0.242875
Si Si7 0.592520 0.365887 0.112297
O O1 0.901069 0.750000 0.840303
O O2 0.844725 0.599952 0.787439
O O3 0.855655 0.603031 0.899097
O O4 0.000000 0.595738 0.837102
O O5 0.283225 0.250000 0.741463
O O6 0.301235 0.111200 0.672144
O O7 0.185082 0.092251 0.740108
O O8 0.220294 0.250000 0.060984
O O9 0.313826 0.098300 0.093126
O O10 0.250000 0.103341 0.000000
O O11 0.500000 0.004031 0.584283
O O12 0.670602 0.926990 0.594229
O O13 0.601301 0.000000 0.500000
O O14 0.659216 0.106831 0.574649
O O15 0.735968 0.250000 0.388096
O O16 0.907688 0.750000 0.256872
O O17 0.909086 0.628323 0.177409
O O18 0.000000 0.590713 0.264255
O O19 0.500000 0.406761 0.089860
O O20 0.592436 0.250000 0.098092
#
# Coordination Sequence:
#
# PCOD9503965 Si02
#       7
#    16  16  16  16  16  16  16
#     4   9  16  25  35  50  80 122 167 220 283 348
#     4   9  16  27  44  69 100 133 175 231 290 347
#     4   9  15  21  29  42  65 104 160 221 276 336
#     4  10  23  43  64  90 129 171 208 254 313 370
#     4  10  21  37  62  94 125 162 213 265 309 365
#     4   8  12  19  33  52  77 111 150 199 263 329
#     4   8  12  18  28  40  58  90 137 195 256 317
#
# _framework density 22.159064999999998
#
# number of rings (size 3 to 8) (size 9 to 14) (size 15 to 20)
#    0.000    3.000    1.429    1.714    0.000    3.429 
#    0.000    7.143    0.000    0.000    0.000    0.000 
#    0.000    0.000    0.000    2.571    0.000   14.286 
#
# Total GULP energy -311865.045105 kJ/mol
# GULP energy per Si atom -5569.018663 kJ/mol
# Density = 2.210863 g / cm^3
# Si number density = 22.159065 Si / 1000 Ang^3
#
#
#
# Elastic Constant Matrix: (Units=GPa)
#
#
# Indices 1 2 3 4 5 6 
#
# 1 171.8787 -1.6592 54.5794 0.0000 0.0000 0.0000
# 2 -1.6592 94.3126 6.9040 0.0000 0.0000 0.0000
# 3 54.5794 6.9040 80.6735 0.0000 0.0000 0.0000
# 4 0.0000 0.0000 0.0000 -73.4386 0.0000 0.0000
# 5 0.0000 0.0000 0.0000 0.0000 -8.0219 0.0000
# 6 0.0000 0.0000 0.0000 0.0000 0.0000 -90.0608
#
#
#
# Elastic Compliance Matrix: (Units=1/GPa)
#
#
# Indices 1 2 3 4 5 6 
#
# 1 0.007434 0.000502 -0.005072 0.000000 0.000000 0.000000
# 2 0.000502 0.010704 -0.001256 0.000000 0.000000 0.000000
# 3 -0.005072 -0.001256 0.015935 0.000000 0.000000 0.000000
# 4 0.000000 0.000000 0.000000 -0.013617 0.000000 0.000000
# 5 0.000000 0.000000 0.000000 0.000000 -0.124658 0.000000
# 6 0.000000 0.000000 0.000000 0.000000 0.000000 -0.011104
#
#
# Mechanical properties :
#
#
# Convention : Reuss Voigt Hill
#
# Bulk Modulus (GPa) = 44.60209 51.83482 48.21846
# Shear Modulus (GPa) = -51.98485 -15.16823 -33.57654
#
# Velocity S-wave (km/s) = -4.84879 -2.61916 -3.89685
# Velocity P-wave (km/s) = 3.34303 3.78104 1.24907
#
# Compressibility (1/GPa) = 0.02242047
#
# Stress axis : x y z
#
# Youngs Moduli (GPa) = 134.52559 93.42486 62.75645
#
# Poissons Ratio (x) = -0.04691 0.31831
# Poissons Ratio (y) = -0.06754 0.07880
# Poissons Ratio (z) = 0.68233 0.11731
#
# Static dielectric constant tensor:
#      x y z
#    x 1.840630 0.000000 0.000000 
#    y 0.000000 1.885950 0.000000 
#    z 0.000000 0.000000 1.742510 
# 
# From -- ./inp_files/41969.got.cif
#   From: 2010.05.17/outbox.cif.g08.bks.cpg/sg67_21_cif.got.tgz:41969.got - 2010.06.03 18:28:57.
