data_PCOD9503052
_publ_section_title
;
Structure prediction by ZEFSAII (Michael W. Deem and Ramdas Pophale) SiO2 
 PCOD9503052
Probable space group: C M M A
;
_chemical_formula_sum "Si O2"
_cell_formula_units_Z 88
_cell_length_a 10.263974
_cell_length_b 20.712790
_cell_length_c 22.643573
_cell_angle_alpha 90.000000
_cell_angle_beta 90.000000
_cell_angle_gamma 90.000000
_cell_volume 4813.922585
_symmetry_space_group_name_H-M "C M M A"
_symmetry_group_IT_number 67
_symmetry_cell_setting 'orthorhombic'
loop_
_space_group_symop_operation_xyz
x,y,z
-x,1/2-y,z
x,-y,-z
-x,1/2+y,-z
-x,-y,-z
x,1/2+y,-z
-x,y,z
x,1/2-y,z
1/2+x,1/2+y,z
1/2-x,-y,z
1/2+x,1/2-y,-z
1/2-x,y,-z
1/2-x,1/2-y,-z
1/2+x,y,-z
1/2-x,1/2+y,z
1/2+x,-y,z
loop_
_atom_site_type_symbol
_atom_site_label
_atom_site_fract_x
_atom_site_fract_y
_atom_site_fract_z
Si Si1 0.342273 0.673041 0.749896
Si Si2 0.000000 0.425036 0.939388
Si Si3 0.000000 0.080315 0.072552
Si Si4 0.267610 0.367831 0.377827
Si Si5 0.500000 0.557808 0.576677
Si Si6 0.639316 0.250000 0.452458
Si Si7 0.741681 0.421840 0.144724
Si Si8 0.500000 0.594344 0.442086
O O1 0.500000 0.664608 0.742101
O O2 0.321509 0.750000 0.761654
O O3 0.266898 0.652165 0.690324
O O4 0.291601 0.624115 0.800237
O O5 0.000000 0.503106 0.938448
O O6 0.872194 0.408959 0.902440
O O7 0.000000 0.395509 0.004981
O O8 0.125384 0.096007 0.111494
O O9 0.367584 0.426289 0.388402
O O10 0.341925 0.310433 0.410707
O O11 0.129754 0.378097 0.410612
O O12 0.500000 0.596692 0.513800
O O13 0.500000 0.482135 0.566702
O O14 0.500000 0.250000 0.482744
O O15 0.750000 0.250000 0.500000
O O16 0.750000 0.500000 0.158572
#
# Coordination Sequence:
#
# PCOD9503052 Si02
#       8
#    16   8   8  16   8   8  16   8
#     4  11  23  44  65  83 120 170 218 254 302 376
#     4   9  16  33  57  92 126 167 199 244 302 369
#     4   9  18  31  57  92 134 155 193 260 316 345
#     4  12  24  42  64  89 119 159 207 250 305 375
#     4  11  22  44  65  88 126 158 192 241 318 393
#     4  12  24  40  66  92 118 152 203 265 312 366
#     4  10  20  35  61  94 122 159 210 253 300 363
#     4  11  26  40  63  96 122 154 192 253 322 381
#
# _framework density 18.280311999999999
#
# number of rings (size 3 to 8) (size 9 to 14) (size 15 to 20)
#    0.000    1.273    3.636    2.727    1.273    5.818 
#    0.000    1.364    0.000    3.273    0.000    0.000 
#    0.000    0.000    0.000    0.000    0.000    0.000 
#
# Total GULP energy -245371.264315 kJ/mol
# GULP energy per Si atom -5576.619644 kJ/mol
# Density = 1.823871 g / cm^3
# Si number density = 18.280312 Si / 1000 Ang^3
#
#
#
# Elastic Constant Matrix: (Units=GPa)
#
#
# Indices 1 2 3 4 5 6 
#
# 1 147.3579 28.7212 50.6848 0.0000 0.0000 0.0000
# 2 28.7212 78.0394 44.4221 0.0000 0.0000 0.0000
# 3 50.6848 44.4221 129.4456 0.0000 0.0000 0.0000
# 4 0.0000 0.0000 0.0000 21.1023 0.0000 0.0000
# 5 0.0000 0.0000 0.0000 0.0000 54.7001 0.0000
# 6 0.0000 0.0000 0.0000 0.0000 0.0000 13.3241
#
#
#
# Elastic Compliance Matrix: (Units=1/GPa)
#
#
# Indices 1 2 3 4 5 6 
#
# 1 0.007970 -0.001438 -0.002627 0.000000 0.000000 0.000000
# 2 -0.001438 0.016184 -0.004991 0.000000 0.000000 0.000000
# 3 -0.002627 -0.004991 0.010467 0.000000 0.000000 0.000000
# 4 0.000000 0.000000 0.000000 0.047388 0.000000 0.000000
# 5 0.000000 0.000000 0.000000 0.000000 0.018282 0.000000
# 6 0.000000 0.000000 0.000000 0.000000 0.000000 0.075052
#
#
# Mechanical properties :
#
#
# Convention : Reuss Voigt Hill
#
# Bulk Modulus (GPa) = 60.57329 66.94434 63.75882
# Shear Modulus (GPa) = 25.13090 33.22627 29.17858
#
# Velocity S-wave (km/s) = 3.71179 4.26796 3.99955
# Velocity P-wave (km/s) = 7.18175 7.80947 7.50218
#
# Compressibility (1/GPa) = 0.01650893
#
# Stress axis : x y z
#
# Youngs Moduli (GPa) = 125.46873 61.78870 95.54049
#
# Poissons Ratio (x) = 0.08884 0.25102
# Poissons Ratio (y) = 0.18039 0.47684
# Poissons Ratio (z) = 0.32965 0.30839
#
# Static dielectric constant tensor:
#      x y z
#    x 1.653070 0.000000 0.000000 
#    y 0.000000 1.644830 0.000000 
#    z 0.000000 0.000000 1.635320 
# 
# From -- ./inp_files/37035.got.cif
#   From: 2010.05.17/outbox.cif.g08.bks.cpg/sg67_19_cif.got.tgz:37035.got - 2010.06.03 18:28:57.
