data_PCOD9503242
_publ_section_title
;
Structure prediction by ZEFSAII (Michael W. Deem and Ramdas Pophale) SiO2 
 PCOD9503242
Probable space group: C M M A
;
_chemical_formula_sum "Si O2"
_cell_formula_units_Z 72
_cell_length_a 8.868787
_cell_length_b 15.829452
_cell_length_c 25.586976
_cell_angle_alpha 90.000000
_cell_angle_beta 90.000000
_cell_angle_gamma 90.000000
_cell_volume 3592.105362
_symmetry_space_group_name_H-M "C M M A"
_symmetry_group_IT_number 67
_symmetry_cell_setting 'orthorhombic'
loop_
_space_group_symop_operation_xyz
x,y,z
-x,1/2-y,z
x,-y,-z
-x,1/2+y,-z
-x,-y,-z
x,1/2+y,-z
-x,y,z
x,1/2-y,z
1/2+x,1/2+y,z
1/2-x,-y,z
1/2+x,1/2-y,-z
1/2-x,y,-z
1/2-x,1/2-y,-z
1/2+x,y,-z
1/2-x,1/2+y,z
1/2+x,-y,z
loop_
_atom_site_type_symbol
_atom_site_label
_atom_site_fract_x
_atom_site_fract_y
_atom_site_fract_z
Si Si1 0.323306 0.647422 0.234971
Si Si2 0.818315 0.250000 0.942552
Si Si3 0.680797 0.411256 0.127033
Si Si4 0.830147 0.649348 0.342078
Si Si5 0.679785 0.906280 0.447640
O O1 0.500000 0.626035 0.234201
O O2 0.310831 0.750000 0.232031
O O3 0.240776 0.608981 0.185016
O O4 0.248321 0.617878 0.289173
O O5 0.773475 0.333466 0.910179
O O6 0.000000 0.250000 0.945956
O O7 0.750000 0.250000 0.000000
O O8 0.500000 0.416201 0.127879
O O9 0.750000 0.500000 0.109344
O O10 0.842052 0.750000 0.335864
O O11 0.732434 0.634221 0.393603
O O12 0.000000 0.614524 0.348528
O O13 0.500000 0.908855 0.451998
O O14 0.750000 0.865218 0.500000
O O15 0.750000 0.000000 0.445779
#
# Coordination Sequence:
#
# PCOD9503242 Si02
#       5
#    16   8  16  16  16
#     4  10  20  36  60  89 121 159 200 248 307 369
#     4  10  24  44  68  94 130 172 213 260 315 368
#     4  11  23  41  64  95 129 168 214 261 313 372
#     4  10  21  37  58  85 117 153 193 242 298 357
#     4  11  22  38  58  79 108 146 192 243 299 362
#
# _framework density 20.043955
#
# number of rings (size 3 to 8) (size 9 to 14) (size 15 to 20)
#    0.000    1.556    1.111    4.667    0.000    5.778 
#    0.000    6.667    0.000    0.000    0.000    0.000 
#    0.000    0.000    0.000    0.000    0.000    0.000 
#
# Total GULP energy -201229.133634 kJ/mol
# GULP energy per Si atom -5589.698156 kJ/mol
# Density = 1.999833 g / cm^3
# Si number density = 20.043955 Si / 1000 Ang^3
#
#
#
# Elastic Constant Matrix: (Units=GPa)
#
#
# Indices 1 2 3 4 5 6 
#
# 1 148.8192 49.0199 71.4221 0.0000 0.0000 0.0000
# 2 49.0199 80.6008 62.6364 0.0000 0.0000 0.0000
# 3 71.4221 62.6364 181.6138 0.0000 0.0000 0.0000
# 4 0.0000 0.0000 0.0000 178.2917 0.0000 0.0000
# 5 0.0000 0.0000 0.0000 0.0000 46.9425 0.0000
# 6 0.0000 0.0000 0.0000 0.0000 0.0000 28.3393
#
#
#
# Elastic Compliance Matrix: (Units=1/GPa)
#
#
# Indices 1 2 3 4 5 6 
#
# 1 0.009037 -0.003736 -0.002266 0.000000 0.000000 0.000000
# 2 -0.003736 0.018494 -0.004909 0.000000 0.000000 0.000000
# 3 -0.002266 -0.004909 0.008090 0.000000 0.000000 0.000000
# 4 0.000000 0.000000 0.000000 0.005609 0.000000 0.000000
# 5 0.000000 0.000000 0.000000 0.000000 0.021303 0.000000
# 6 0.000000 0.000000 0.000000 0.000000 0.000000 0.035287
#
#
# Mechanical properties :
#
#
# Convention : Reuss Voigt Hill
#
# Bulk Modulus (GPa) = 72.46147 86.35451 79.40799
# Shear Modulus (GPa) = 40.24437 65.91174 53.07806
#
# Velocity S-wave (km/s) = 4.48572 5.74064 5.15154
# Velocity P-wave (km/s) = 7.94095 9.33360 8.66530
#
# Compressibility (1/GPa) = 0.01380044
#
# Stress axis : x y z
#
# Youngs Moduli (GPa) = 110.65091 54.07215 123.60446
#
# Poissons Ratio (x) = 0.20200 0.28005
# Poissons Ratio (y) = 0.41336 0.60680
# Poissons Ratio (z) = 0.25070 0.26545
#
# Static dielectric constant tensor:
#      x y z
#    x 1.684670 0.000000 0.000000 
#    y 0.000000 1.741260 0.000000 
#    z 0.000000 0.000000 1.687820 
# 
# From -- ./inp_files/40536.got.cif
#   From: 2010.05.17/outbox.cif.g08.bks.cpg/sg67_21_cif.got.tgz:40536.got - 2010.06.03 18:28:57.
