data_PCOD9503192
_publ_section_title
;
Structure prediction by ZEFSAII (Michael W. Deem and Ramdas Pophale) SiO2 
 PCOD9503192
Probable space group: C M M A
;
_chemical_formula_sum "Si O2"
_cell_formula_units_Z 80
_cell_length_a 7.991312
_cell_length_b 14.706885
_cell_length_c 30.636046
_cell_angle_alpha 90.000000
_cell_angle_beta 90.000000
_cell_angle_gamma 90.000000
_cell_volume 3600.571971
_symmetry_space_group_name_H-M "C M M A"
_symmetry_group_IT_number 67
_symmetry_cell_setting 'orthorhombic'
loop_
_space_group_symop_operation_xyz
x,y,z
-x,1/2-y,z
x,-y,-z
-x,1/2+y,-z
-x,-y,-z
x,1/2+y,-z
-x,y,z
x,1/2-y,z
1/2+x,1/2+y,z
1/2-x,-y,z
1/2+x,1/2-y,-z
1/2-x,y,-z
1/2-x,1/2-y,-z
1/2+x,y,-z
1/2-x,1/2+y,z
1/2+x,-y,z
loop_
_atom_site_type_symbol
_atom_site_label
_atom_site_fract_x
_atom_site_fract_y
_atom_site_fract_z
Si Si1 0.000000 0.137632 0.695791
Si Si2 0.702777 0.105783 0.858283
Si Si3 0.807620 0.860746 0.452422
Si Si4 0.198100 0.106230 0.046626
Si Si5 0.000000 0.853314 0.207557
Si Si6 0.318799 0.138880 0.640138
O O1 0.834812 0.108839 0.669714
O O2 0.000000 0.250000 0.693733
O O3 0.000000 0.099242 0.745238
O O4 0.500000 0.117724 0.850873
O O5 0.751162 0.144746 0.906252
O O6 0.830962 0.135042 0.820757
O O7 0.750000 0.000000 0.862064
O O8 0.798037 0.750000 0.453325
O O9 0.750000 0.892241 0.500000
O O10 0.704725 0.890125 0.410152
O O11 0.000000 0.885294 0.445393
O O12 0.000000 0.109196 0.047802
O O13 0.250000 0.000000 0.045703
O O14 0.250000 0.146227 0.000000
O O15 0.000000 0.750000 0.220351
O O16 0.500000 0.110132 0.656741
O O17 0.315701 0.250000 0.639911
#
# Coordination Sequence:
#
# PCOD9503192 Si02
#       6
#     8  16  16  16   8  16
#     4   9  18  32  44  62  89 124 169 211 259 314
#     4  10  20  36  59  86 114 147 187 231 280 338
#     4   9  14  19  28  46  72 102 144 197 245 293
#     4   9  16  24  44  78 109 136 174 224 270 318
#     4  11  24  38  58  83 112 148 187 238 288 328
#     4   9  15  24  38  53  76 112 154 203 251 300
#
# _framework density 22.218691
#
# number of rings (size 3 to 8) (size 9 to 14) (size 15 to 20)
#    0.000    2.600    2.000    1.800    2.800    3.600 
#    0.000    2.000    0.000    0.600    0.000    0.000 
#    0.000    0.000    0.000    0.000    0.000    3.000 
#
# Total GULP energy -223003.882142 kJ/mol
# GULP energy per Si atom -5575.097054 kJ/mol
# Density = 2.216812 g / cm^3
# Si number density = 22.218691 Si / 1000 Ang^3
#
#
#
# Elastic Constant Matrix: (Units=GPa)
#
#
# Indices 1 2 3 4 5 6 
#
# 1 170.2552 2.0817 110.7140 0.0000 0.0000 0.0000
# 2 2.0817 47.3856 -0.5509 0.0000 0.0000 0.0000
# 3 110.7140 -0.5509 199.2192 0.0000 0.0000 0.0000
# 4 0.0000 0.0000 0.0000 -2.1477 0.0000 0.0000
# 5 0.0000 0.0000 0.0000 0.0000 65.8986 0.0000
# 6 0.0000 0.0000 0.0000 0.0000 0.0000 -14.8941
#
#
#
# Elastic Compliance Matrix: (Units=1/GPa)
#
#
# Indices 1 2 3 4 5 6 
#
# 1 0.009208 -0.000464 -0.005118 0.000000 0.000000 0.000000
# 2 -0.000464 0.021128 0.000316 0.000000 0.000000 0.000000
# 3 -0.005118 0.000316 0.007865 0.000000 0.000000 0.000000
# 4 0.000000 0.000000 0.000000 -0.465610 0.000000 0.000000
# 5 0.000000 0.000000 0.000000 0.000000 0.015175 0.000000
# 6 0.000000 0.000000 0.000000 0.000000 0.000000 -0.067141
#
#
# Mechanical properties :
#
#
# Convention : Reuss Voigt Hill
#
# Bulk Modulus (GPa) = 36.14286 71.26105 53.70195
# Shear Modulus (GPa) = -10.87852 30.07903 9.60026
#
# Velocity S-wave (km/s) = -2.21512 3.68336 2.08091
# Velocity P-wave (km/s) = 3.12408 7.08743 5.47684
#
# Compressibility (1/GPa) = 0.02766799
#
# Stress axis : x y z
#
# Youngs Moduli (GPa) = 108.60673 47.33164 127.14720
#
# Poissons Ratio (x) = 0.02196 0.65077
# Poissons Ratio (y) = 0.05039 -0.04022
# Poissons Ratio (z) = 0.55588 -0.01497
#
# Static dielectric constant tensor:
#      x y z
#    x 1.766030 0.000000 0.000000 
#    y 0.000000 1.917600 0.000000 
#    z 0.000000 0.000000 1.884370 
# 
# From -- ./inp_files/43399.got.cif
#   From: 2010.05.17/outbox.cif.g08.bks.cpg/sg67_22_cif.got.tgz:43399.got - 2010.06.03 18:28:57.
