data_PCOD9503538
_publ_section_title
;
Structure prediction by ZEFSAII (Michael W. Deem and Ramdas Pophale) SiO2 
 PCOD9503538
Probable space group: C M M A
;
_chemical_formula_sum "Si O2"
_cell_formula_units_Z 48
_cell_length_a 25.471223
_cell_length_b 13.248958
_cell_length_c 6.790750
_cell_angle_alpha 90.000000
_cell_angle_beta 90.000000
_cell_angle_gamma 90.000000
_cell_volume 2291.655142
_symmetry_space_group_name_H-M "C M M A"
_symmetry_group_IT_number 67
_symmetry_cell_setting 'orthorhombic'
loop_
_space_group_symop_operation_xyz
x,y,z
-x,1/2-y,z
x,-y,-z
-x,1/2+y,-z
-x,-y,-z
x,1/2+y,-z
-x,y,z
x,1/2-y,z
1/2+x,1/2+y,z
1/2-x,-y,z
1/2+x,1/2-y,-z
1/2-x,y,-z
1/2-x,1/2-y,-z
1/2+x,y,-z
1/2-x,1/2+y,z
1/2+x,-y,z
loop_
_atom_site_type_symbol
_atom_site_label
_atom_site_fract_x
_atom_site_fract_y
_atom_site_fract_z
Si Si1 0.201700 0.632016 0.353695
Si Si2 0.118645 0.135104 0.317219
Si Si3 0.825070 0.500000 0.000000
Si Si4 0.500000 0.125712 0.558404
O O1 0.202356 0.750000 0.305809
O O2 0.250000 0.611847 0.500000
O O3 0.148544 0.610466 0.477555
O O4 0.205038 0.569933 0.154653
O O5 0.134561 0.250000 0.274948
O O6 0.056300 0.129356 0.338795
O O7 0.139334 0.068331 0.140693
O O8 0.500000 0.250000 0.464810
O O9 0.500000 0.000000 0.500000
#
# Coordination Sequence:
#
# PCOD9503538 Si02
#       4
#    16  16   8   8
#     4  10  23  42  62  90 128 165 206 260 321 383
#     4  10  23  41  61  91 130 168 210 265 325 380
#     4  12  22  38  66  92 118 161 216 259 312 386
#     4  10  20  39  64  92 131 175 218 269 327 389
#
# _framework density 20.94556
#
# number of rings (size 3 to 8) (size 9 to 14) (size 15 to 20)
#    0.000    1.667    0.000    4.000    0.000    6.000 
#    0.000    8.333    0.000    9.000    0.000    0.000 
#    0.000    0.000    0.000    0.000    0.000    0.000 
#
# Total GULP energy -133676.768989 kJ/mol
# GULP energy per Si atom -5569.865375 kJ/mol
# Density = 2.089789 g / cm^3
# Si number density = 20.945560 Si / 1000 Ang^3
#
#
#
# Elastic Constant Matrix: (Units=GPa)
#
#
# Indices 1 2 3 4 5 6 
#
# 1 123.3989 35.1090 71.4798 0.0000 0.0000 0.0000
# 2 35.1090 206.4417 91.6679 0.0000 0.0000 0.0000
# 3 71.4798 91.6679 163.9333 0.0000 0.0000 0.0000
# 4 0.0000 0.0000 0.0000 31.2721 0.0000 0.0000
# 5 0.0000 0.0000 0.0000 0.0000 59.9512 0.0000
# 6 0.0000 0.0000 0.0000 0.0000 0.0000 61.0912
#
#
#
# Elastic Compliance Matrix: (Units=1/GPa)
#
#
# Indices 1 2 3 4 5 6 
#
# 1 0.010860 0.000340 -0.004926 0.000000 0.000000 0.000000
# 2 0.000340 0.006455 -0.003758 0.000000 0.000000 0.000000
# 3 -0.004926 -0.003758 0.010349 0.000000 0.000000 0.000000
# 4 0.000000 0.000000 0.000000 0.031977 0.000000 0.000000
# 5 0.000000 0.000000 0.000000 0.000000 0.016680 0.000000
# 6 0.000000 0.000000 0.000000 0.000000 0.000000 0.016369
#
#
# Mechanical properties :
#
#
# Convention : Reuss Voigt Hill
#
# Bulk Modulus (GPa) = 91.09372 98.92082 95.00727
# Shear Modulus (GPa) = 44.23378 50.16403 47.19890
#
# Velocity S-wave (km/s) = 4.60047 4.89915 4.75216
# Velocity P-wave (km/s) = 8.47373 8.90687 8.69300
#
# Compressibility (1/GPa) = 0.01097771
#
# Stress axis : x y z
#
# Youngs Moduli (GPa) = 92.07929 154.92678 96.62824
#
# Poissons Ratio (x) = -0.05270 0.47595
# Poissons Ratio (y) = -0.03132 0.36309
# Poissons Ratio (z) = 0.45355 0.58216
#
# Static dielectric constant tensor:
#      x y z
#    x 1.729910 0.000000 0.000000 
#    y 0.000000 1.918670 0.000000 
#    z 0.000000 0.000000 1.720750 
# 
# From -- ./inp_files/3819.got.cif
#   From: 2010.05.17/outbox.cif.g08.bks.cpg/sg67_2_cif.got.tgz:3819.got - 2010.06.03 18:28:57.
