data_PCOD9503521
_publ_section_title
;
Structure prediction by ZEFSAII (Michael W. Deem and Ramdas Pophale) SiO2 
 PCOD9503521
Probable space group: C M M A
;
_chemical_formula_sum "Si O2"
_cell_formula_units_Z 112
_cell_length_a 30.186081
_cell_length_b 15.443752
_cell_length_c 12.178407
_cell_angle_alpha 90.000000
_cell_angle_beta 90.000000
_cell_angle_gamma 90.000000
_cell_volume 5677.407094
_symmetry_space_group_name_H-M "C M M A"
_symmetry_group_IT_number 67
_symmetry_cell_setting 'orthorhombic'
loop_
_space_group_symop_operation_xyz
x,y,z
-x,1/2-y,z
x,-y,-z
-x,1/2+y,-z
-x,-y,-z
x,1/2+y,-z
-x,y,z
x,1/2-y,z
1/2+x,1/2+y,z
1/2-x,-y,z
1/2+x,1/2-y,-z
1/2-x,y,-z
1/2-x,1/2-y,-z
1/2+x,y,-z
1/2-x,1/2+y,z
1/2+x,-y,z
loop_
_atom_site_type_symbol
_atom_site_label
_atom_site_fract_x
_atom_site_fract_y
_atom_site_fract_z
Si Si1 0.287971 0.854262 0.196867
Si Si2 0.641511 0.602770 0.013181
Si Si3 0.292522 0.150598 0.562231
Si Si4 0.186091 0.648468 0.211990
Si Si5 0.551443 0.853493 0.712024
Si Si6 0.451372 0.600858 0.967073
Si Si7 0.135269 0.418348 0.583602
O O1 0.289757 0.750000 0.190955
O O2 0.300441 0.887263 0.317941
O O3 0.236404 0.877723 0.183763
O O4 0.322694 0.883913 0.107232
O O5 0.659131 0.642563 0.900208
O O6 0.591505 0.637109 0.029967
O O7 0.637584 0.500000 0.000000
O O8 0.279800 0.250000 0.583036
O O9 0.250000 0.110535 0.500000
O O10 0.336501 0.147622 0.490882
O O11 0.186011 0.750000 0.249768
O O12 0.164403 0.586904 0.303960
O O13 0.500000 0.869020 0.681301
O O14 0.558745 0.750000 0.717234
O O15 0.557262 0.889644 0.836104
O O16 0.586691 0.892985 0.627042
O O17 0.500000 0.640064 0.988526
O O18 0.454379 0.500000 0.000000
O O19 0.134052 0.500000 0.500000
#
# Coordination Sequence:
#
# PCOD9503521 Si02
#       7
#    16  16  16  16  16  16  16
#     4  10  22  38  59  84 116 162 211 249 305 377
#     4  11  23  36  58  90 126 155 199 260 319 377
#     4  10  20  39  61  82 114 160 211 258 304 368
#     4  11  22  41  62  83 120 169 212 253 308 377
#     4  10  21  40  67  95 122 162 216 265 315 385
#     4   9  19  36  60  88 122 163 203 257 323 386
#     4  12  25  37  60  91 124 161 207 262 320 372
#
# _framework density 19.727315000000001
#
# number of rings (size 3 to 8) (size 9 to 14) (size 15 to 20)
#    0.000    1.571    2.857    2.143    2.000    3.429 
#    0.000    0.000    0.000    0.857    0.000    2.000 
#    0.000    0.000    0.000    0.000    0.000    0.000 
#
# Total GULP energy -312229.883048 kJ/mol
# GULP energy per Si atom -5575.533626 kJ/mol
# Density = 1.968242 g / cm^3
# Si number density = 19.727315 Si / 1000 Ang^3
#
#
#
# Elastic Constant Matrix: (Units=GPa)
#
#
# Indices 1 2 3 4 5 6 
#
# 1 188.0762 37.2905 87.5280 0.0000 0.0000 0.0000
# 2 37.2905 67.3390 36.8080 0.0000 0.0000 0.0000
# 3 87.5280 36.8080 112.0610 0.0000 0.0000 0.0000
# 4 0.0000 0.0000 0.0000 25.6053 0.0000 0.0000
# 5 0.0000 0.0000 0.0000 0.0000 37.2164 0.0000
# 6 0.0000 0.0000 0.0000 0.0000 0.0000 20.2232
#
#
#
# Elastic Compliance Matrix: (Units=1/GPa)
#
#
# Indices 1 2 3 4 5 6 
#
# 1 0.008447 -0.001306 -0.006169 0.000000 0.000000 0.000000
# 2 -0.001306 0.018302 -0.004992 0.000000 0.000000 0.000000
# 3 -0.006169 -0.004992 0.015381 0.000000 0.000000 0.000000
# 4 0.000000 0.000000 0.000000 0.039054 0.000000 0.000000
# 5 0.000000 0.000000 0.000000 0.000000 0.026870 0.000000
# 6 0.000000 0.000000 0.000000 0.000000 0.000000 0.049448
#
#
# Mechanical properties :
#
#
# Convention : Reuss Voigt Hill
#
# Bulk Modulus (GPa) = 58.14635 76.74769 67.44702
# Shear Modulus (GPa) = 26.57218 30.33230 28.45224
#
# Velocity S-wave (km/s) = 3.67410 3.92545 3.80185
# Velocity P-wave (km/s) = 6.89476 7.71585 7.31683
#
# Compressibility (1/GPa) = 0.01719798
#
# Stress axis : x y z
#
# Youngs Moduli (GPa) = 118.39000 54.63962 65.01362
#
# Poissons Ratio (x) = 0.07134 0.40104
# Poissons Ratio (y) = 0.15459 0.32452
# Poissons Ratio (z) = 0.73030 0.27274
#
# Static dielectric constant tensor:
#      x y z
#    x 1.752540 0.000000 0.000000 
#    y 0.000000 1.755930 0.000000 
#    z 0.000000 0.000000 1.704280 
# 
# From -- ./inp_files/23795.got.cif
#   From: 2010.05.17/outbox.cif.g08.bks.cpg/sg67_12_cif.got.tgz:23795.got - 2010.06.03 18:28:57.
