data_PCOD9503161
_publ_section_title
;
Structure prediction by ZEFSAII (Michael W. Deem and Ramdas Pophale) SiO2 
 PCOD9503161
Probable space group: C M M A
;
_chemical_formula_sum "Si O2"
_cell_formula_units_Z 116
_cell_length_a 31.554973
_cell_length_b 8.843531
_cell_length_c 22.515744
_cell_angle_alpha 90.000000
_cell_angle_beta 90.000000
_cell_angle_gamma 90.000000
_cell_volume 6283.184573
_symmetry_space_group_name_H-M "C M M A"
_symmetry_group_IT_number 67
_symmetry_cell_setting 'orthorhombic'
loop_
_space_group_symop_operation_xyz
x,y,z
-x,1/2-y,z
x,-y,-z
-x,1/2+y,-z
-x,-y,-z
x,1/2+y,-z
-x,y,z
x,1/2-y,z
1/2+x,1/2+y,z
1/2-x,-y,z
1/2+x,1/2-y,-z
1/2-x,y,-z
1/2-x,1/2-y,-z
1/2+x,y,-z
1/2-x,1/2+y,z
1/2+x,-y,z
loop_
_atom_site_type_symbol
_atom_site_label
_atom_site_fract_x
_atom_site_fract_y
_atom_site_fract_z
Si Si1 0.500000 0.000000 0.000000
Si Si2 0.450249 0.931723 0.222792
Si Si3 0.339313 0.421329 0.061364
Si Si4 0.390969 0.567211 0.335193
Si Si5 0.563884 0.423225 0.094772
Si Si6 0.794505 0.429489 0.168554
Si Si7 0.703973 0.932585 0.305899
Si Si8 0.048558 0.431231 0.565452
O O1 0.463895 0.022968 0.948799
O O2 0.500000 0.964699 0.237666
O O3 0.447030 0.750000 0.214337
O O4 0.417042 0.973510 0.274966
O O5 0.438505 0.015482 0.161695
O O6 0.322663 0.250000 0.063289
O O7 0.389665 0.417508 0.067661
O O8 0.326158 0.511388 0.119726
O O9 0.326445 0.500000 0.000000
O O10 0.391920 0.750000 0.338747
O O11 0.341049 0.522215 0.335380
O O12 0.417432 0.497498 0.389098
O O13 0.547162 0.250000 0.092687
O O14 0.793033 0.250000 0.167878
O O15 0.750000 0.500000 0.151136
O O16 0.802498 0.476028 0.236593
O O17 0.707347 0.750000 0.309792
O O18 0.750000 0.000000 0.324779
O O19 0.054746 0.500000 0.500000
O O20 0.051834 0.250000 0.562853
O O21 0.000000 0.469737 0.584077
#
# Coordination Sequence:
#
# PCOD9503161 Si02
#       8
#     4  16  16  16  16  16  16  16
#     4  12  22  40  56  74 100 140 182 230 286 336
#     4  10  21  35  54  80 111 146 183 229 284 340
#     4  11  23  38  53  74  99 130 170 218 272 330
#     4  10  20  36  58  86 119 155 193 234 282 335
#     4  11  24  39  56  76 102 138 183 231 279 335
#     4  10  20  37  59  82 106 136 171 216 269 330
#     4   9  19  35  57  83 112 145 184 228 279 334
#     4  10  21  37  59  89 124 164 204 240 278 325
#
# _framework density 18.461977000000001
#
# number of rings (size 3 to 8) (size 9 to 14) (size 15 to 20)
#    0.000    1.793    1.379    2.690    0.000    6.621 
#    0.000    1.379    0.000    0.414    0.000    2.897 
#    0.000    0.000    0.000    0.000    0.000    0.000 
#
# Total GULP energy -323010.503093 kJ/mol
# GULP energy per Si atom -5569.146605 kJ/mol
# Density = 1.841996 g / cm^3
# Si number density = 18.461977 Si / 1000 Ang^3
#
#
#
# Elastic Constant Matrix: (Units=GPa)
#
#
# Indices 1 2 3 4 5 6 
#
# 1 104.2023 26.9209 52.5136 0.0000 0.0000 0.0000
# 2 26.9209 28.8887 18.4844 0.0000 0.0000 0.0000
# 3 52.5136 18.4844 80.2629 0.0000 0.0000 0.0000
# 4 0.0000 0.0000 0.0000 -47.1298 0.0000 0.0000
# 5 0.0000 0.0000 0.0000 0.0000 50.4642 0.0000
# 6 0.0000 0.0000 0.0000 0.0000 0.0000 29.9861
#
#
#
# Elastic Compliance Matrix: (Units=1/GPa)
#
#
# Indices 1 2 3 4 5 6 
#
# 1 0.016415 -0.009881 -0.008464 0.000000 0.000000 0.000000
# 2 -0.009881 0.046546 -0.004255 0.000000 0.000000 0.000000
# 3 -0.008464 -0.004255 0.018977 0.000000 0.000000 0.000000
# 4 0.000000 0.000000 0.000000 -0.021218 0.000000 0.000000
# 5 0.000000 0.000000 0.000000 0.000000 0.019816 0.000000
# 6 0.000000 0.000000 0.000000 0.000000 0.000000 0.033349
#
#
# Mechanical properties :
#
#
# Convention : Reuss Voigt Hill
#
# Bulk Modulus (GPa) = 27.21981 45.46574 36.34278
# Shear Modulus (GPa) = 29.18326 14.35974 21.77150
#
# Velocity S-wave (km/s) = 3.98014 2.79193 3.43776
# Velocity P-wave (km/s) = 5.99148 5.92228 5.95698
#
# Compressibility (1/GPa) = 0.03673795
#
# Stress axis : x y z
#
# Youngs Moduli (GPa) = 60.91901 21.48413 52.69576
#
# Poissons Ratio (x) = 0.21229 0.44604
# Poissons Ratio (y) = 0.60195 0.22420
# Poissons Ratio (z) = 0.51564 0.09140
#
# Static dielectric constant tensor:
#      x y z
#    x 1.648450 0.000000 0.000000 
#    y 0.000000 1.640520 0.000000 
#    z 0.000000 0.000000 1.614370 
# 
# From -- ./inp_files/42978.got.cif
#   From: 2010.05.17/outbox.cif.g08.bks.cpg/sg67_22_cif.got.tgz:42978.got - 2010.06.03 18:28:57.
