data_PCOD9503534
_publ_section_title
;
Structure prediction by ZEFSAII (Michael W. Deem and Ramdas Pophale) SiO2 
 PCOD9503534
Probable space group: C M M A
;
_chemical_formula_sum "Si O2"
_cell_formula_units_Z 112
_cell_length_a 28.390571
_cell_length_b 17.560447
_cell_length_c 11.820993
_cell_angle_alpha 90.000000
_cell_angle_beta 90.000000
_cell_angle_gamma 90.000000
_cell_volume 5893.369268
_symmetry_space_group_name_H-M "C M M A"
_symmetry_group_IT_number 67
_symmetry_cell_setting 'orthorhombic'
loop_
_space_group_symop_operation_xyz
x,y,z
-x,1/2-y,z
x,-y,-z
-x,1/2+y,-z
-x,-y,-z
x,1/2+y,-z
-x,y,z
x,1/2-y,z
1/2+x,1/2+y,z
1/2-x,-y,z
1/2+x,1/2-y,-z
1/2-x,y,-z
1/2-x,1/2-y,-z
1/2+x,y,-z
1/2-x,1/2+y,z
1/2+x,-y,z
loop_
_atom_site_type_symbol
_atom_site_label
_atom_site_fract_x
_atom_site_fract_y
_atom_site_fract_z
Si Si1 0.694554 0.484680 0.370148
Si Si2 0.445894 0.841524 0.344367
Si Si3 0.124951 0.437073 0.198044
Si Si4 0.649057 0.661149 0.727446
Si Si5 0.947733 0.055894 0.893546
Si Si6 0.125215 0.661678 0.018500
Si Si7 0.553049 0.158347 0.399005
O O1 0.679667 0.500000 0.500000
O O2 0.750000 0.500000 0.362125
O O3 0.666426 0.537475 0.281303
O O4 0.682252 0.398211 0.335598
O O5 0.500000 0.863388 0.317998
O O6 0.443406 0.750000 0.340528
O O7 0.409272 0.877673 0.259620
O O8 0.435354 0.866964 0.473164
O O9 0.092362 0.510942 0.175548
O O10 0.140103 0.396693 0.080361
O O11 0.657382 0.750000 0.698290
O O12 0.653453 0.654291 0.863369
O O13 0.595475 0.642656 0.686194
O O14 0.926954 0.134566 0.942480
O O15 0.000000 0.063531 0.844489
O O16 0.952243 0.000000 0.000000
O O17 0.126172 0.750000 0.982963
O O18 0.500000 0.131046 0.373979
O O19 0.550116 0.250000 0.402836
#
# Coordination Sequence:
#
# PCOD9503534 Si02
#       7
#    16  16  16  16  16  16  16
#     4  11  25  45  67  94 119 153 205 262 322 388
#     4   9  17  30  51  82 120 161 205 254 304 360
#     4  11  20  37  59  83 120 163 203 254 313 361
#     4  10  20  39  62  87 124 163 196 248 308 360
#     4   9  18  32  52  81 121 163 200 238 288 352
#     4  10  21  36  58  88 121 159 206 245 290 362
#     4   8  15  29  51  81 116 156 201 244 293 355
#
# _framework density 19.004408999999999
#
# number of rings (size 3 to 8) (size 9 to 14) (size 15 to 20)
#    0.000    2.286    1.429    2.571    0.000    1.429 
#    0.000    6.429    0.000    4.714    0.000    0.000 
#    0.000    0.000    0.000    0.000    0.000    0.000 
#
# Total GULP energy -312171.422279 kJ/mol
# GULP energy per Si atom -5574.489684 kJ/mol
# Density = 1.896115 g / cm^3
# Si number density = 19.004409 Si / 1000 Ang^3
#
#
#
# Elastic Constant Matrix: (Units=GPa)
#
#
# Indices 1 2 3 4 5 6 
#
# 1 73.6911 32.8004 45.1680 0.0000 0.0000 0.0000
# 2 32.8004 99.0899 45.2647 0.0000 0.0000 0.0000
# 3 45.1680 45.2647 109.1403 0.0000 0.0000 0.0000
# 4 0.0000 0.0000 0.0000 32.0022 0.0000 0.0000
# 5 0.0000 0.0000 0.0000 0.0000 -45.5729 0.0000
# 6 0.0000 0.0000 0.0000 0.0000 0.0000 26.0377
#
#
#
# Elastic Compliance Matrix: (Units=1/GPa)
#
#
# Indices 1 2 3 4 5 6 
#
# 1 0.019035 -0.003334 -0.006495 0.000000 0.000000 0.000000
# 2 -0.003334 0.013035 -0.004026 0.000000 0.000000 0.000000
# 3 -0.006495 -0.004026 0.013520 0.000000 0.000000 0.000000
# 4 0.000000 0.000000 0.000000 0.031248 0.000000 0.000000
# 5 0.000000 0.000000 0.000000 0.000000 -0.021943 0.000000
# 6 0.000000 0.000000 0.000000 0.000000 0.000000 0.038406
#
#
# Mechanical properties :
#
#
# Convention : Reuss Voigt Hill
#
# Bulk Modulus (GPa) = 55.92929 58.70971 57.31950
# Shear Modulus (GPa) = 39.37899 13.07262 26.22580
#
# Velocity S-wave (km/s) = 4.55697 2.62558 3.71885
# Velocity P-wave (km/s) = 7.56184 6.33650 6.97613
#
# Compressibility (1/GPa) = 0.01787972
#
# Stress axis : x y z
#
# Youngs Moduli (GPa) = 52.53432 76.71865 73.96285
#
# Poissons Ratio (x) = 0.25578 0.48039
# Poissons Ratio (y) = 0.17515 0.29779
# Poissons Ratio (z) = 0.34121 0.30888
#
# Static dielectric constant tensor:
#      x y z
#    x 1.652460 0.000000 0.000000 
#    y 0.000000 1.683990 0.000000 
#    z 0.000000 0.000000 1.709500 
# 
# From -- ./inp_files/23781.got.cif
#   From: 2010.05.17/outbox.cif.g08.bks.cpg/sg67_12_cif.got.tgz:23781.got - 2010.06.03 18:28:57.
