data_PCOD9503023
_publ_section_title
;
Structure prediction by ZEFSAII (Michael W. Deem and Ramdas Pophale) SiO2 
 PCOD9503023
Probable space group: C M M A
;
_chemical_formula_sum "Si O2"
_cell_formula_units_Z 112
_cell_length_a 16.038558
_cell_length_b 14.910879
_cell_length_c 22.879187
_cell_angle_alpha 90.000000
_cell_angle_beta 90.000000
_cell_angle_gamma 90.000000
_cell_volume 5471.534639
_symmetry_space_group_name_H-M "C M M A"
_symmetry_group_IT_number 67
_symmetry_cell_setting 'orthorhombic'
loop_
_space_group_symop_operation_xyz
x,y,z
-x,1/2-y,z
x,-y,-z
-x,1/2+y,-z
-x,-y,-z
x,1/2+y,-z
-x,y,z
x,1/2-y,z
1/2+x,1/2+y,z
1/2-x,-y,z
1/2+x,1/2-y,-z
1/2-x,y,-z
1/2-x,1/2-y,-z
1/2+x,y,-z
1/2-x,1/2+y,z
1/2+x,-y,z
loop_
_atom_site_type_symbol
_atom_site_label
_atom_site_fract_x
_atom_site_fract_y
_atom_site_fract_z
Si Si1 0.850341 0.849423 0.836533
Si Si2 0.273896 0.641029 0.626412
Si Si3 0.697241 0.855490 0.756879
Si Si4 0.907960 0.851080 0.601579
Si Si5 0.906097 0.043957 0.855616
Si Si6 0.210746 0.147375 0.937821
Si Si7 0.593075 0.098718 0.472365
O O1 0.889276 0.750000 0.834151
O O2 0.792862 0.862547 0.779064
O O3 0.783891 0.849476 0.889702
O O4 0.904248 0.937030 0.847363
O O5 0.269120 0.750000 0.623873
O O6 0.309440 0.616963 0.689777
O O7 0.178773 0.605502 0.621640
O O8 0.334167 0.612694 0.573924
O O9 0.675246 0.750000 0.762834
O O10 0.641636 0.912875 0.800597
O O11 0.910461 0.750000 0.626118
O O12 0.899476 0.844138 0.531405
O O13 0.000000 0.892759 0.613234
O O14 0.855944 0.077759 0.912550
O O15 0.000000 0.076884 0.858267
O O16 0.176906 0.250000 0.941797
O O17 0.250000 0.123402 0.000000
O O18 0.500000 0.113877 0.447073
O O19 0.596555 0.000000 0.500000
#
# Coordination Sequence:
#
# PCOD9503023 Si02
#       7
#    16  16  16  16  16  16  16
#     4   9  19  38  59  79 114 162 205 245 292 350
#     4  10  20  35  59  85 107 143 193 239 296 366
#     4   9  19  37  60  86 114 149 199 252 301 365
#     4   9  18  34  54  76 105 139 177 225 281 347
#     4  11  22  36  58  90 125 159 196 252 317 363
#     4   9  18  35  61  89 119 161 206 244 287 348
#     4  10  21  36  50  74 112 147 184 233 288 348
#
# _framework density 20.469576
#
# number of rings (size 3 to 8) (size 9 to 14) (size 15 to 20)
#    0.000    2.429    0.000    3.857    0.000    6.286 
#    5.143    3.571    0.000    5.143    0.000    0.000 
#    0.000    0.000    0.000    0.000    0.000    0.000 
#
# Total GULP energy -312392.275723 kJ/mol
# GULP energy per Si atom -5578.433495 kJ/mol
# Density = 2.042299 g / cm^3
# Si number density = 20.469576 Si / 1000 Ang^3
#
#
#
# Elastic Constant Matrix: (Units=GPa)
#
#
# Indices 1 2 3 4 5 6 
#
# 1 112.5167 32.2570 36.9887 0.0000 0.0000 0.0000
# 2 32.2570 86.6018 17.0855 0.0000 0.0000 0.0000
# 3 36.9887 17.0855 77.2000 0.0000 0.0000 0.0000
# 4 0.0000 0.0000 0.0000 -3.6047 0.0000 0.0000
# 5 0.0000 0.0000 0.0000 0.0000 7.8255 0.0000
# 6 0.0000 0.0000 0.0000 0.0000 0.0000 -9.2912
#
#
#
# Elastic Compliance Matrix: (Units=1/GPa)
#
#
# Indices 1 2 3 4 5 6 
#
# 1 0.011390 -0.003310 -0.004725 0.000000 0.000000 0.000000
# 2 -0.003310 0.013036 -0.001299 0.000000 0.000000 0.000000
# 3 -0.004725 -0.001299 0.015505 0.000000 0.000000 0.000000
# 4 0.000000 0.000000 0.000000 -0.277417 0.000000 0.000000
# 5 0.000000 0.000000 0.000000 0.000000 0.127788 0.000000
# 6 0.000000 0.000000 0.000000 0.000000 0.000000 -0.107629
#
#
# Mechanical properties :
#
#
# Convention : Reuss Voigt Hill
#
# Bulk Modulus (GPa) = 47.03040 49.88675 48.45858
# Shear Modulus (GPa) = -26.09985 11.65173 -7.22406
#
# Velocity S-wave (km/s) = -3.57467 2.38843 -1.88065
# Velocity P-wave (km/s) = 2.44704 5.65952 4.35994
#
# Compressibility (1/GPa) = 0.02126284
#
# Stress axis : x y z
#
# Youngs Moduli (GPa) = 87.79843 76.70827 64.49725
#
# Poissons Ratio (x) = 0.25393 0.30472
# Poissons Ratio (y) = 0.29064 0.08379
# Poissons Ratio (z) = 0.41481 0.09965
#
# Static dielectric constant tensor:
#      x y z
#    x 1.721780 0.000000 0.000000 
#    y 0.000000 1.847720 0.000000 
#    z 0.000000 0.000000 1.700190 
# 
# From -- ./inp_files/41999.got.cif
#   From: 2010.05.17/outbox.cif.g08.bks.cpg/sg67_21_cif.got.tgz:41999.got - 2010.06.03 18:28:57.
