data_PCOD9503831
_publ_section_title
;
Structure prediction by ZEFSAII (Michael W. Deem and Ramdas Pophale) SiO2 
 PCOD9503831
Probable space group: C M M A
;
_chemical_formula_sum "Si O2"
_cell_formula_units_Z 116
_cell_length_a 7.611369
_cell_length_b 32.168493
_cell_length_c 23.879257
_cell_angle_alpha 90.000000
_cell_angle_beta 90.000000
_cell_angle_gamma 90.000000
_cell_volume 5846.747016
_symmetry_space_group_name_H-M "C M M A"
_symmetry_group_IT_number 67
_symmetry_cell_setting 'orthorhombic'
loop_
_space_group_symop_operation_xyz
x,y,z
-x,1/2-y,z
x,-y,-z
-x,1/2+y,-z
-x,-y,-z
x,1/2+y,-z
-x,y,z
x,1/2-y,z
1/2+x,1/2+y,z
1/2-x,-y,z
1/2+x,1/2-y,-z
1/2-x,y,-z
1/2-x,1/2-y,-z
1/2+x,y,-z
1/2-x,1/2+y,z
1/2+x,-y,z
loop_
_atom_site_type_symbol
_atom_site_label
_atom_site_fract_x
_atom_site_fract_y
_atom_site_fract_z
Si Si1 0.710835 0.546727 0.268242
Si Si2 0.205031 0.795907 0.736981
Si Si3 0.290558 0.679428 0.434596
Si Si4 0.707946 0.377272 0.934680
Si Si5 0.288779 0.452989 0.859678
Si Si6 0.792393 0.296089 0.864911
Si Si7 0.000000 0.750000 0.407599
Si Si8 0.712666 0.873704 0.333434
O O1 0.500000 0.550277 0.265289
O O2 0.750000 0.500000 0.287062
O O3 0.777502 0.551641 0.204243
O O4 0.778375 0.583031 0.308469
O O5 0.284847 0.750000 0.726023
O O6 0.213132 0.803819 0.803483
O O7 0.279991 0.834790 0.703609
O O8 0.000000 0.793239 0.721346
O O9 0.500000 0.690380 0.428331
O O10 0.250000 0.674159 0.500000
O O11 0.255937 0.638435 0.397493
O O12 0.156702 0.714139 0.412208
O O13 0.500000 0.379470 0.929463
O O14 0.780800 0.416503 0.899616
O O15 0.759536 0.333429 0.907253
O O16 0.750000 0.379396 0.000000
O O17 0.500000 0.449471 0.857662
O O18 0.250000 0.500000 0.878857
O O19 0.732058 0.250000 0.884083
O O20 0.000000 0.294034 0.856052
O O21 0.500000 0.874543 0.326779
#
# Coordination Sequence:
#
# PCOD9503831 Si02
#       8
#    16  16  16  16  16  16   4  16
#     4   9  17  34  57  83 108 140 180 225 279 336
#     4   9  17  32  53  78 105 142 180 217 273 339
#     4  11  23  39  58  84 117 163 204 248 293 340
#     4  11  23  38  56  78 103 139 179 221 267 324
#     4   9  19  35  58  83 110 139 174 214 267 333
#     4  10  21  37  54  76 105 138 176 225 273 321
#     4  12  24  40  58  86 116 164 210 248 284 342
#     4   9  19  35  56  79 113 150 187 234 281 336
#
# _framework density 19.840091000000001
#
# number of rings (size 3 to 8) (size 9 to 14) (size 15 to 20)
#    0.000    2.207    0.690    2.069    0.966    4.690 
#    2.483    4.138    0.000    0.414    0.000    2.897 
#    0.000    0.000    0.000    0.000    0.000    0.000 
#
# Total GULP energy -323117.173712 kJ/mol
# GULP energy per Si atom -5570.985754 kJ/mol
# Density = 1.979493 g / cm^3
# Si number density = 19.840091 Si / 1000 Ang^3
#
#
#
# Elastic Constant Matrix: (Units=GPa)
#
#
# Indices 1 2 3 4 5 6 
#
# 1 75.5265 16.5124 10.1465 0.0000 0.0000 0.0000
# 2 16.5124 163.1039 83.3635 0.0000 0.0000 0.0000
# 3 10.1465 83.3635 69.3739 0.0000 0.0000 0.0000
# 4 0.0000 0.0000 0.0000 -18.9651 0.0000 0.0000
# 5 0.0000 0.0000 0.0000 0.0000 7.2194 0.0000
# 6 0.0000 0.0000 0.0000 0.0000 0.0000 22.7733
#
#
#
# Elastic Compliance Matrix: (Units=1/GPa)
#
#
# Indices 1 2 3 4 5 6 
#
# 1 0.013560 -0.000931 -0.000865 0.000000 0.000000 0.000000
# 2 -0.000931 0.015955 -0.019036 0.000000 0.000000 0.000000
# 3 -0.000865 -0.019036 0.037416 0.000000 0.000000 0.000000
# 4 0.000000 0.000000 0.000000 -0.052728 0.000000 0.000000
# 5 0.000000 0.000000 0.000000 0.000000 0.138516 0.000000
# 6 0.000000 0.000000 0.000000 0.000000 0.000000 0.043911
#
#
# Mechanical properties :
#
#
# Convention : Reuss Voigt Hill
#
# Bulk Modulus (GPa) = 39.57648 58.67213 49.12431
# Shear Modulus (GPa) = 20.26637 15.40430 17.83534
#
# Velocity S-wave (km/s) = 3.19954 2.78946 3.00151
# Velocity P-wave (km/s) = 5.80004 6.32546 6.06844
#
# Compressibility (1/GPa) = 0.02526753
#
# Stress axis : x y z
#
# Youngs Moduli (GPa) = 73.74594 62.67756 26.72674
#
# Poissons Ratio (x) = 0.05834 0.02311
# Poissons Ratio (y) = 0.06864 0.50877
# Poissons Ratio (z) = 0.06377 1.19312
#
# Static dielectric constant tensor:
#      x y z
#    x 1.753010 0.000000 0.000000 
#    y 0.000000 1.721440 0.000000 
#    z 0.000000 0.000000 1.675660 
# 
# From -- ./inp_files/41246.got.cif
#   From: 2010.05.17/outbox.cif.g08.bks.cpg/sg67_21_cif.got.tgz:41246.got - 2010.06.03 18:28:57.
