data_PCOD9503441
_publ_section_title
;
Structure prediction by ZEFSAII (Michael W. Deem and Ramdas Pophale) SiO2 
 PCOD9503441
Probable space group: C M M A
;
_chemical_formula_sum "Si O2"
_cell_formula_units_Z 112
_cell_length_a 14.934261
_cell_length_b 28.603640
_cell_length_c 12.358588
_cell_angle_alpha 90.000000
_cell_angle_beta 90.000000
_cell_angle_gamma 90.000000
_cell_volume 5279.270255
_symmetry_space_group_name_H-M "C M M A"
_symmetry_group_IT_number 67
_symmetry_cell_setting 'orthorhombic'
loop_
_space_group_symop_operation_xyz
x,y,z
-x,1/2-y,z
x,-y,-z
-x,1/2+y,-z
-x,-y,-z
x,1/2+y,-z
-x,y,z
x,1/2-y,z
1/2+x,1/2+y,z
1/2-x,-y,z
1/2+x,1/2-y,-z
1/2-x,y,-z
1/2-x,1/2-y,-z
1/2+x,y,-z
1/2-x,1/2+y,z
1/2+x,-y,z
loop_
_atom_site_type_symbol
_atom_site_label
_atom_site_fract_x
_atom_site_fract_y
_atom_site_fract_z
Si Si1 0.104873 0.194416 0.709080
Si Si2 0.100373 0.425615 0.327009
Si Si3 0.892101 0.886888 0.893096
Si Si4 0.108510 0.044548 0.926279
Si Si5 0.344476 0.475724 0.318794
Si Si6 0.391388 0.114356 0.456881
Si Si7 0.265591 0.802599 0.128470
O O1 0.109572 0.250000 0.685520
O O2 0.129521 0.162066 0.606519
O O3 0.175356 0.184529 0.805488
O O4 0.000000 0.184174 0.738343
O O5 0.135917 0.421315 0.205168
O O6 0.094790 0.480345 0.352627
O O7 0.144672 0.395211 0.421790
O O8 0.000000 0.406674 0.317967
O O9 0.845232 0.839166 0.859430
O O10 0.000000 0.882935 0.900531
O O11 0.862590 0.909622 0.006772
O O12 0.143583 0.038527 0.805942
O O13 0.000000 0.045058 0.918575
O O14 0.132635 0.000000 0.000000
O O15 0.250000 0.500000 0.336869
O O16 0.360079 0.429825 0.387613
O O17 0.500000 0.112089 0.461451
O O18 0.290129 0.750000 0.163668
O O19 0.250000 0.801458 0.000000
#
# Coordination Sequence:
#
# PCOD9503441 Si02
#       7
#    16  16  16  16  16  16  16
#     4   9  20  41  66  93 124 161 211 266 318 375
#     4  10  21  41  60  83 122 164 201 248 307 367
#     4  10  22  39  63  90 122 165 207 251 308 375
#     4  10  20  38  60  82 115 159 202 244 297 365
#     4  12  25  36  55  89 125 160 203 258 307 369
#     4  10  22  39  64  90 117 160 210 258 310 370
#     4  10  23  41  62  90 126 162 202 258 319 373
#
# _framework density 21.215053000000001
#
# number of rings (size 3 to 8) (size 9 to 14) (size 15 to 20)
#    0.000    1.857    1.429    1.714    4.000    3.429 
#    0.000    2.143    0.000    4.286    0.000    0.000 
#    0.000    0.571    0.000    0.000    0.000    0.000 
#
# Total GULP energy -312575.473400 kJ/mol
# GULP energy per Si atom -5581.704882 kJ/mol
# Density = 2.116677 g / cm^3
# Si number density = 21.215053 Si / 1000 Ang^3
#
#
#
# Elastic Constant Matrix: (Units=GPa)
#
#
# Indices 1 2 3 4 5 6 
#
# 1 56.7344 26.7180 2.5126 0.0000 0.0000 0.0000
# 2 26.7180 86.0671 19.7980 0.0000 0.0000 0.0000
# 3 2.5126 19.7980 85.6395 0.0000 0.0000 0.0000
# 4 0.0000 0.0000 0.0000 31.0032 0.0000 0.0000
# 5 0.0000 0.0000 0.0000 0.0000 4.7796 0.0000
# 6 0.0000 0.0000 0.0000 0.0000 0.0000 14.4129
#
#
#
# Elastic Compliance Matrix: (Units=1/GPa)
#
#
# Indices 1 2 3 4 5 6 
#
# 1 0.020714 -0.006644 0.000928 0.000000 0.000000 0.000000
# 2 -0.006644 0.014402 -0.003135 0.000000 0.000000 0.000000
# 3 0.000928 -0.003135 0.012374 0.000000 0.000000 0.000000
# 4 0.000000 0.000000 0.000000 0.032255 0.000000 0.000000
# 5 0.000000 0.000000 0.000000 0.000000 0.209221 0.000000
# 6 0.000000 0.000000 0.000000 0.000000 0.000000 0.069382
#
#
# Mechanical properties :
#
#
# Convention : Reuss Voigt Hill
#
# Bulk Modulus (GPa) = 33.56837 36.27759 34.92298
# Shear Modulus (GPa) = 12.95408 21.99996 17.47702
#
# Velocity S-wave (km/s) = 2.47373 3.22374 2.87331
# Velocity P-wave (km/s) = 4.90065 5.56720 5.24452
#
# Compressibility (1/GPa) = 0.02978995
#
# Stress axis : x y z
#
# Youngs Moduli (GPa) = 48.27749 69.43340 80.81282
#
# Poissons Ratio (x) = 0.46129 -0.07501
# Poissons Ratio (y) = 0.32074 0.25331
# Poissons Ratio (z) = -0.04481 0.21764
#
# Static dielectric constant tensor:
#      x y z
#    x 2.650940 0.000000 0.000000 
#    y 0.000000 1.761090 0.000000 
#    z 0.000000 0.000000 1.779860 
# 
# From -- ./inp_files/18584.got.cif
#   From: 2010.05.17/outbox.cif.g08.bks.cpg/sg67_10_cif.got.tgz:18584.got - 2010.06.03 18:28:57.
