data_PCOD9503717
_publ_section_title
;
Structure prediction by ZEFSAII (Michael W. Deem and Ramdas Pophale) SiO2 
 PCOD9503717
Probable space group: C M M A
;
_chemical_formula_sum "Si O2"
_cell_formula_units_Z 112
_cell_length_a 24.638926
_cell_length_b 13.853640
_cell_length_c 16.800016
_cell_angle_alpha 90.000000
_cell_angle_beta 90.000000
_cell_angle_gamma 90.000000
_cell_volume 5734.497483
_symmetry_space_group_name_H-M "C M M A"
_symmetry_group_IT_number 67
_symmetry_cell_setting 'orthorhombic'
loop_
_space_group_symop_operation_xyz
x,y,z
-x,1/2-y,z
x,-y,-z
-x,1/2+y,-z
-x,-y,-z
x,1/2+y,-z
-x,y,z
x,1/2-y,z
1/2+x,1/2+y,z
1/2-x,-y,z
1/2+x,1/2-y,-z
1/2-x,y,-z
1/2-x,1/2-y,-z
1/2+x,y,-z
1/2-x,1/2+y,z
1/2+x,-y,z
loop_
_atom_site_type_symbol
_atom_site_label
_atom_site_fract_x
_atom_site_fract_y
_atom_site_fract_z
Si Si1 0.848702 0.364828 0.280643
Si Si2 0.562062 0.132667 0.030723
Si Si3 0.275615 0.635159 0.719663
Si Si4 0.061432 0.133969 0.649105
Si Si5 0.879908 0.633343 0.187485
Si Si6 0.161178 0.477538 0.589378
Si Si7 0.062010 0.632310 0.848944
O O1 0.855596 0.250000 0.294094
O O2 0.786113 0.380760 0.254965
O O3 0.853233 0.426261 0.360954
O O4 0.892565 0.396819 0.214832
O O5 0.500000 0.104282 0.047967
O O6 0.563118 0.250000 0.031298
O O7 0.600015 0.098887 0.102226
O O8 0.574856 0.104371 0.940204
O O9 0.282324 0.750000 0.706099
O O10 0.320028 0.603865 0.784683
O O11 0.293343 0.580395 0.639479
O O12 0.063609 0.250000 0.641918
O O13 0.079564 0.110200 0.739759
O O14 0.106684 0.086990 0.593291
O O15 0.000000 0.101930 0.634020
O O16 0.879255 0.750000 0.183295
O O17 0.177375 0.500000 0.500000
O O18 0.061617 0.750000 0.847901
O O19 0.000000 0.601484 0.830257
#
# Coordination Sequence:
#
# PCOD9503717 Si02
#       7
#    16  16  16  16  16  16  16
#     4  10  21  36  54  76 104 141 181 217 260 318
#     4   8  12  20  41  74 106 135 172 215 254 299
#     4   9  19  36  55  76 104 136 173 221 273 321
#     4   9  18  34  56  81 111 145 177 214 264 316
#     4   8  13  24  46  76 106 135 170 215 264 308
#     4  11  23  37  56  80 105 132 172 222 272 321
#     4   8  15  29  48  72 105 142 176 210 250 302
#
# _framework density 19.530918
#
# number of rings (size 3 to 8) (size 9 to 14) (size 15 to 20)
#    0.000    3.000    0.000    3.000    0.000    4.857 
#    0.000    2.143    0.000    9.429    0.000   13.000 
#    0.000    0.000    0.000    0.000    0.000    0.000 
#
# Total GULP energy -312560.797371 kJ/mol
# GULP energy per Si atom -5581.442810 kJ/mol
# Density = 1.948646 g / cm^3
# Si number density = 19.530918 Si / 1000 Ang^3
#
#
#
# Elastic Constant Matrix: (Units=GPa)
#
#
# Indices 1 2 3 4 5 6 
#
# 1 118.6157 32.1148 73.6126 0.0000 0.0000 0.0000
# 2 32.1148 74.5670 33.6987 0.0000 0.0000 0.0000
# 3 73.6126 33.6987 147.6636 0.0000 0.0000 0.0000
# 4 0.0000 0.0000 0.0000 19.9095 0.0000 0.0000
# 5 0.0000 0.0000 0.0000 0.0000 3.8115 0.0000
# 6 0.0000 0.0000 0.0000 0.0000 0.0000 22.4389
#
#
#
# Elastic Compliance Matrix: (Units=1/GPa)
#
#
# Indices 1 2 3 4 5 6 
#
# 1 0.012753 -0.002921 -0.005691 0.000000 0.000000 0.000000
# 2 -0.002921 0.015622 -0.002109 0.000000 0.000000 0.000000
# 3 -0.005691 -0.002109 0.010091 0.000000 0.000000 0.000000
# 4 0.000000 0.000000 0.000000 0.050227 0.000000 0.000000
# 5 0.000000 0.000000 0.000000 0.000000 0.262364 0.000000
# 6 0.000000 0.000000 0.000000 0.000000 0.000000 0.044565
#
#
# Mechanical properties :
#
#
# Convention : Reuss Voigt Hill
#
# Bulk Modulus (GPa) = 58.74120 68.85540 63.79830
# Shear Modulus (GPa) = 11.82764 22.65999 17.24382
#
# Velocity S-wave (km/s) = 2.46353 3.40988 2.97458
# Velocity P-wave (km/s) = 6.18331 7.12981 6.67336
#
# Compressibility (1/GPa) = 0.01702383
#
# Stress axis : x y z
#
# Youngs Moduli (GPa) = 78.41124 64.01314 99.10204
#
# Poissons Ratio (x) = 0.18696 0.56401
# Poissons Ratio (y) = 0.22901 0.20902
# Poissons Ratio (z) = 0.44625 0.13501
#
# Static dielectric constant tensor:
#      x y z
#    x 1.678390 0.000000 0.000000 
#    y 0.000000 1.764010 0.000000 
#    z 0.000000 0.000000 1.647670 
# 
# From -- ./inp_files/30141.got.cif
#   From: 2010.05.17/outbox.cif.g08.bks.cpg/sg67_16_cif.got.tgz:30141.got - 2010.06.03 18:28:57.
