data_PCOD9503500
_publ_section_title
;
Structure prediction by ZEFSAII (Michael W. Deem and Ramdas Pophale) SiO2 
 PCOD9503500
Probable space group: C M M A
;
_chemical_formula_sum "Si O2"
_cell_formula_units_Z 72
_cell_length_a 27.777187
_cell_length_b 8.635020
_cell_length_c 14.188172
_cell_angle_alpha 90.000000
_cell_angle_beta 90.000000
_cell_angle_gamma 90.000000
_cell_volume 3403.126204
_symmetry_space_group_name_H-M "C M M A"
_symmetry_group_IT_number 67
_symmetry_cell_setting 'orthorhombic'
loop_
_space_group_symop_operation_xyz
x,y,z
-x,1/2-y,z
x,-y,-z
-x,1/2+y,-z
-x,-y,-z
x,1/2+y,-z
-x,y,z
x,1/2-y,z
1/2+x,1/2+y,z
1/2-x,-y,z
1/2+x,1/2-y,-z
1/2-x,y,-z
1/2-x,1/2-y,-z
1/2+x,y,-z
1/2-x,1/2+y,z
1/2+x,-y,z
loop_
_atom_site_type_symbol
_atom_site_label
_atom_site_fract_x
_atom_site_fract_y
_atom_site_fract_z
Si Si1 0.300403 0.434822 0.708309
Si Si2 0.346702 0.434508 0.895567
Si Si3 0.894612 0.563529 0.393542
Si Si4 0.552212 0.436150 0.107283
Si Si5 0.000000 0.937205 0.392590
O O1 0.300121 0.250000 0.701192
O O2 0.250000 0.500000 0.671731
O O3 0.307339 0.478856 0.818350
O O4 0.347545 0.498231 0.656602
O O5 0.349369 0.250000 0.902730
O O6 0.398047 0.495206 0.856362
O O7 0.338622 0.500000 0.000000
O O8 0.893914 0.500000 0.500000
O O9 0.892356 0.750000 0.392887
O O10 0.947516 0.517307 0.352368
O O11 0.500000 0.476891 0.150088
O O12 0.555765 0.250000 0.106745
O O13 0.550809 0.500000 0.000000
O O14 0.000000 0.750000 0.394091
O O15 0.000000 0.000000 0.500000
#
# Coordination Sequence:
#
# PCOD9503500 Si02
#       5
#    16  16  16  16   8
#     4  11  25  43  61  86 118 156 203 254 304 357
#     4  10  21  37  58  82 112 150 197 248 301 357
#     4  10  20  38  65  95 128 162 197 241 292 354
#     4   9  16  27  47  75 106 142 183 229 283 343
#     4   8  16  32  58  92 125 158 193 232 285 346
#
# _framework density 21.157017
#
# number of rings (size 3 to 8) (size 9 to 14) (size 15 to 20)
#    0.000    2.222    0.000    4.000    0.000    6.667 
#    2.000    4.444    0.000    0.000    0.000    0.000 
#    0.000    0.000    0.000    0.000    0.000    0.000 
#
# Total GULP energy -200928.209779 kJ/mol
# GULP energy per Si atom -5581.339161 kJ/mol
# Density = 2.110886 g / cm^3
# Si number density = 21.157017 Si / 1000 Ang^3
#
#
#
# Elastic Constant Matrix: (Units=GPa)
#
#
# Indices 1 2 3 4 5 6 
#
# 1 204.0939 43.0956 61.7181 0.0000 0.0000 0.0000
# 2 43.0956 36.1903 21.8933 0.0000 0.0000 0.0000
# 3 61.7181 21.8933 66.0857 0.0000 0.0000 0.0000
# 4 0.0000 0.0000 0.0000 16.6389 0.0000 0.0000
# 5 0.0000 0.0000 0.0000 0.0000 32.0989 0.0000
# 6 0.0000 0.0000 0.0000 0.0000 0.0000 20.3548
#
#
#
# Elastic Compliance Matrix: (Units=1/GPa)
#
#
# Indices 1 2 3 4 5 6 
#
# 1 0.007768 -0.006080 -0.005241 0.000000 0.000000 0.000000
# 2 -0.006080 0.039316 -0.007347 0.000000 0.000000 0.000000
# 3 -0.005241 -0.007347 0.022460 0.000000 0.000000 0.000000
# 4 0.000000 0.000000 0.000000 0.060100 0.000000 0.000000
# 5 0.000000 0.000000 0.000000 0.000000 0.031154 0.000000
# 6 0.000000 0.000000 0.000000 0.000000 0.000000 0.049128
#
#
# Mechanical properties :
#
#
# Convention : Reuss Voigt Hill
#
# Bulk Modulus (GPa) = 31.04649 62.19821 46.62235
# Shear Modulus (GPa) = 19.37994 25.79604 22.58799
#
# Velocity S-wave (km/s) = 3.02984 3.49559 3.27101
# Velocity P-wave (km/s) = 5.19096 6.76420 6.02912
#
# Compressibility (1/GPa) = 0.03220976
#
# Stress axis : x y z
#
# Youngs Moduli (GPa) = 128.72731 25.43466 44.52361
#
# Poissons Ratio (x) = 0.15465 0.23333
# Poissons Ratio (y) = 0.78270 0.32710
# Poissons Ratio (z) = 0.67461 0.18686
#
# Static dielectric constant tensor:
#      x y z
#    x 1.792860 0.000000 0.000000 
#    y 0.000000 1.698860 0.000000 
#    z 0.000000 0.000000 1.717170 
# 
# From -- ./inp_files/35355.got.cif
#   From: 2010.05.17/outbox.cif.g08.bks.cpg/sg67_18_cif.got.tgz:35355.got - 2010.06.03 18:28:57.
