data_PCOD9503379
_publ_section_title
;
Structure prediction by ZEFSAII (Michael W. Deem and Ramdas Pophale) SiO2 
 PCOD9503379
Probable space group: C M M A
;
_chemical_formula_sum "Si O2"
_cell_formula_units_Z 104
_cell_length_a 31.128891
_cell_length_b 8.195558
_cell_length_c 20.796556
_cell_angle_alpha 90.000000
_cell_angle_beta 90.000000
_cell_angle_gamma 90.000000
_cell_volume 5305.588910
_symmetry_space_group_name_H-M "C M M A"
_symmetry_group_IT_number 67
_symmetry_cell_setting 'orthorhombic'
loop_
_space_group_symop_operation_xyz
x,y,z
-x,1/2-y,z
x,-y,-z
-x,1/2+y,-z
-x,-y,-z
x,1/2+y,-z
-x,y,z
x,1/2-y,z
1/2+x,1/2+y,z
1/2-x,-y,z
1/2+x,1/2-y,-z
1/2-x,y,-z
1/2-x,1/2-y,-z
1/2+x,y,-z
1/2-x,1/2+y,z
1/2+x,-y,z
loop_
_atom_site_type_symbol
_atom_site_label
_atom_site_fract_x
_atom_site_fract_y
_atom_site_fract_z
Si Si1 0.669520 0.943436 0.573494
Si Si2 0.500000 0.553337 0.572404
Si Si3 0.450731 0.943539 0.778968
Si Si4 0.703637 0.447041 0.293134
Si Si5 0.298025 0.556293 0.073158
Si Si6 0.861720 0.446258 0.816725
Si Si7 0.083676 0.058955 0.356946
O O1 0.674495 0.750000 0.571502
O O2 0.698545 0.007556 0.633030
O O3 0.676163 0.000000 0.500000
O O4 0.622523 0.986355 0.601408
O O5 0.500000 0.750000 0.581827
O O6 0.500000 0.500000 0.500000
O O7 0.541404 0.471166 0.602407
O O8 0.500000 0.010352 0.782091
O O9 0.454836 0.750000 0.790054
O O10 0.411004 0.008118 0.822166
O O11 0.429173 0.970396 0.709191
O O12 0.701784 0.250000 0.293873
O O13 0.750000 0.500000 0.267757
O O14 0.665041 0.505234 0.246499
O O15 0.299118 0.750000 0.075324
O O16 0.250000 0.500000 0.091481
O O17 0.332993 0.487793 0.122072
O O18 0.305606 0.500000 0.000000
O O19 0.864116 0.250000 0.810771
O O20 0.091561 0.250000 0.345015
#
# Coordination Sequence:
#
# PCOD9503379 Si02
#       7
#    16   8  16  16  16  16  16
#     4  11  23  41  58  77 105 146 191 242 301 361
#     4  12  24  38  54  74 104 140 181 234 299 366
#     4  10  20  37  62  87 117 158 197 240 293 349
#     4  10  22  38  58  82 113 150 193 243 295 354
#     4  11  22  38  62  95 131 169 203 243 291 345
#     4  10  20  38  61  90 124 160 199 243 293 350
#     4  12  23  36  55  81 108 141 185 239 297 358
#
# _framework density 19.601970000000001
#
# number of rings (size 3 to 8) (size 9 to 14) (size 15 to 20)
#    0.000    1.231    2.308    5.308    0.000    4.000 
#    0.000    1.538    0.000    0.462    0.000    0.000 
#    0.000    0.000    0.000    0.000    0.000    0.000 
#
# Total GULP energy -290118.391480 kJ/mol
# GULP energy per Si atom -5579.199836 kJ/mol
# Density = 1.955736 g / cm^3
# Si number density = 19.601970 Si / 1000 Ang^3
#
#
#
# Elastic Constant Matrix: (Units=GPa)
#
#
# Indices 1 2 3 4 5 6 
#
# 1 141.5892 6.0040 63.1592 0.0000 0.0000 0.0000
# 2 6.0040 29.0062 4.0798 0.0000 0.0000 0.0000
# 3 63.1592 4.0798 87.0916 0.0000 0.0000 0.0000
# 4 0.0000 0.0000 0.0000 15.9521 0.0000 0.0000
# 5 0.0000 0.0000 0.0000 0.0000 5.9940 0.0000
# 6 0.0000 0.0000 0.0000 0.0000 0.0000 12.5579
#
#
#
# Elastic Compliance Matrix: (Units=1/GPa)
#
#
# Indices 1 2 3 4 5 6 
#
# 1 0.010475 -0.001107 -0.007545 0.000000 0.000000 0.000000
# 2 -0.001107 0.034821 -0.000828 0.000000 0.000000 0.000000
# 3 -0.007545 -0.000828 0.016992 0.000000 0.000000 0.000000
# 4 0.000000 0.000000 0.000000 0.062688 0.000000 0.000000
# 5 0.000000 0.000000 0.000000 0.000000 0.166832 0.000000
# 6 0.000000 0.000000 0.000000 0.000000 0.000000 0.079631
#
#
# Mechanical properties :
#
#
# Convention : Reuss Voigt Hill
#
# Bulk Modulus (GPa) = 23.07961 44.90810 33.99385
# Shear Modulus (GPa) = 12.35049 19.19709 15.77379
#
# Velocity S-wave (km/s) = 2.51283 3.13284 2.83981
# Velocity P-wave (km/s) = 4.49653 6.00383 5.30400
#
# Compressibility (1/GPa) = 0.04332829
#
# Stress axis : x y z
#
# Youngs Moduli (GPa) = 95.46407 28.71829 58.84969
#
# Poissons Ratio (x) = 0.03179 0.44401
# Poissons Ratio (y) = 0.10568 0.04875
# Poissons Ratio (z) = 0.72025 0.02379
#
# Static dielectric constant tensor:
#      x y z
#    x 1.940490 0.000000 0.000000 
#    y 0.000000 1.698630 0.000000 
#    z 0.000000 0.000000 1.649380 
# 
# From -- ./inp_files/40194.got.cif
#   From: 2010.05.17/outbox.cif.g08.bks.cpg/sg67_21_cif.got.tgz:40194.got - 2010.06.03 18:28:57.
