data_PCOD9503015
_publ_section_title
;
Structure prediction by ZEFSAII (Michael W. Deem and Ramdas Pophale) SiO2 
 PCOD9503015
Probable space group: C M M A
;
_chemical_formula_sum "Si O2"
_cell_formula_units_Z 96
_cell_length_a 22.746866
_cell_length_b 25.453883
_cell_length_c 8.988688
_cell_angle_alpha 90.000000
_cell_angle_beta 90.000000
_cell_angle_gamma 90.000000
_cell_volume 5204.414989
_symmetry_space_group_name_H-M "C M M A"
_symmetry_group_IT_number 67
_symmetry_cell_setting 'orthorhombic'
loop_
_space_group_symop_operation_xyz
x,y,z
-x,1/2-y,z
x,-y,-z
-x,1/2+y,-z
-x,-y,-z
x,1/2+y,-z
-x,y,z
x,1/2-y,z
1/2+x,1/2+y,z
1/2-x,-y,z
1/2+x,1/2-y,-z
1/2-x,y,-z
1/2-x,1/2-y,-z
1/2+x,y,-z
1/2-x,1/2+y,z
1/2+x,-y,z
loop_
_atom_site_type_symbol
_atom_site_label
_atom_site_fract_x
_atom_site_fract_y
_atom_site_fract_z
Si Si1 0.732439 0.153277 0.169395
Si Si2 0.378571 0.591888 0.834238
Si Si3 0.930125 0.114157 0.158263
Si Si4 0.124034 0.192681 0.668104
Si Si5 0.346931 0.188669 0.679571
Si Si6 0.570305 0.492833 0.671755
O O1 0.901055 0.165910 0.226923
O O2 0.790151 0.155533 0.269875
O O3 0.750000 0.165229 0.000000
O O4 0.807969 0.100873 0.829092
O O5 0.405112 0.640054 0.734457
O O6 0.398066 0.536504 0.770767
O O7 0.400959 0.600846 0.000610
O O8 0.000000 0.119175 0.141480
O O9 0.917685 0.065517 0.268898
O O10 0.094887 0.250000 0.685203
O O11 0.185111 0.193065 0.760380
O O12 0.139201 0.184497 0.495220
O O13 0.335798 0.250000 0.712985
O O14 0.587068 0.500000 0.500000
O O15 0.500000 0.501322 0.684310
#
# Coordination Sequence:
#
# PCOD9503015 Si02
#       6
#    16  16  16  16  16  16
#     4  10  20  35  58  89 117 156 192 238 292 351
#     4  10  21  36  59  89 118 149 195 247 287 354
#     4  11  23  39  62  87 116 155 198 246 297 350
#     4   9  20  35  58  88 117 156 196 240 289 344
#     4  11  21  38  61  86 122 157 200 245 290 352
#     4  10  21  40  65  88 113 152 199 244 292 348
#
# _framework density 18.445876999999999
#
# number of rings (size 3 to 8) (size 9 to 14) (size 15 to 20)
#    1.000    0.833    1.667    3.000    0.000    6.333 
#    0.000    1.667    0.000    4.500    0.000    0.000 
#    0.000    0.000    0.000    0.000    0.000    0.000 
#
# Total GULP energy -267415.249066 kJ/mol
# GULP energy per Si atom -5571.151022 kJ/mol
# Density = 1.840389 g / cm^3
# Si number density = 18.445877 Si / 1000 Ang^3
#
#
#
# Elastic Constant Matrix: (Units=GPa)
#
#
# Indices 1 2 3 4 5 6 
#
# 1 36.1836 14.7024 0.9095 0.0000 0.0000 0.0000
# 2 14.7024 13.7511 -0.4053 0.0000 0.0000 0.0000
# 3 0.9095 -0.4053 72.1125 0.0000 0.0000 0.0000
# 4 0.0000 0.0000 0.0000 595.3029 0.0000 0.0000
# 5 0.0000 0.0000 0.0000 0.0000 17.1706 0.0000
# 6 0.0000 0.0000 0.0000 0.0000 0.0000 24.3056
#
#
#
# Elastic Compliance Matrix: (Units=1/GPa)
#
#
# Indices 1 2 3 4 5 6 
#
# 1 0.048926 -0.052338 -0.000911 0.000000 0.000000 0.000000
# 2 -0.052338 0.128721 0.001384 0.000000 0.000000 0.000000
# 3 -0.000911 0.001384 0.013886 0.000000 0.000000 0.000000
# 4 0.000000 0.000000 0.000000 0.001680 0.000000 0.000000
# 5 0.000000 0.000000 0.000000 0.000000 0.058239 0.000000
# 6 0.000000 0.000000 0.000000 0.000000 0.000000 0.041143
#
#
# Mechanical properties :
#
#
# Convention : Reuss Voigt Hill
#
# Bulk Modulus (GPa) = 11.38920 16.94007 14.16463
# Shear Modulus (GPa) = 11.74831 134.47852 73.11341
#
# Velocity S-wave (km/s) = 2.52644 8.54767 6.30260
# Velocity P-wave (km/s) = 3.83384 10.32572 7.78841
#
# Compressibility (1/GPa) = 0.08780249
#
# Stress axis : x y z
#
# Youngs Moduli (GPa) = 20.43904 7.76876 72.01241
#
# Poissons Ratio (x) = 0.40660 0.06562
# Poissons Ratio (y) = 1.06973 -0.09963
# Poissons Ratio (z) = 0.01862 -0.01075
#
# Static dielectric constant tensor:
#      x y z
#    x 1.640370 0.000000 0.000000 
#    y 0.000000 1.634290 0.000000 
#    z 0.000000 0.000000 1.616420 
# 
# From -- ./inp_files/12657.got.cif
#   From: 2010.05.17/outbox.cif.g08.bks.cpg/sg67_7_cif.got.tgz:12657.got - 2010.06.03 18:28:57.
