data_PCOD9503140
_publ_section_title
;
Structure prediction by ZEFSAII (Michael W. Deem and Ramdas Pophale) SiO2 
 PCOD9503140
Probable space group: C M M A
;
_chemical_formula_sum "Si O2"
_cell_formula_units_Z 88
_cell_length_a 9.117023
_cell_length_b 16.267368
_cell_length_c 30.582344
_cell_angle_alpha 90.000000
_cell_angle_beta 90.000000
_cell_angle_gamma 90.000000
_cell_volume 4535.666466
_symmetry_space_group_name_H-M "C M M A"
_symmetry_group_IT_number 67
_symmetry_cell_setting 'orthorhombic'
loop_
_space_group_symop_operation_xyz
x,y,z
-x,1/2-y,z
x,-y,-z
-x,1/2+y,-z
-x,-y,-z
x,1/2+y,-z
-x,y,z
x,1/2-y,z
1/2+x,1/2+y,z
1/2-x,-y,z
1/2+x,1/2-y,-z
1/2-x,y,-z
1/2-x,1/2-y,-z
1/2+x,y,-z
1/2-x,1/2+y,z
1/2+x,-y,z
loop_
_atom_site_type_symbol
_atom_site_label
_atom_site_fract_x
_atom_site_fract_y
_atom_site_fract_z
Si Si1 0.165441 0.151920 0.042511
Si Si2 0.670670 0.845412 0.307854
Si Si3 0.823040 0.584581 0.600045
Si Si4 0.177169 0.250000 0.452675
Si Si5 0.824685 0.089381 0.872861
Si Si6 0.674487 0.089258 0.224194
O O1 0.154316 0.250000 0.036852
O O2 0.254851 0.136404 0.086625
O O3 0.000000 0.118243 0.045700
O O4 0.250000 0.118365 0.000000
O O5 0.500000 0.864969 0.298446
O O6 0.677108 0.750000 0.321210
O O7 0.719207 0.898817 0.349345
O O8 0.763378 0.859778 0.264494
O O9 0.750000 0.500000 0.584579
O O10 0.781601 0.666306 0.572988
O O11 0.000000 0.577627 0.598447
O O12 0.250000 0.250000 0.500000
O O13 0.000000 0.250000 0.456076
O O14 0.794301 0.124824 0.824297
O O15 0.000000 0.083185 0.877804
O O16 0.750000 0.000000 0.873376
O O17 0.500000 0.079955 0.227921
O O18 0.750000 0.000000 0.226499
#
# Coordination Sequence:
#
# PCOD9503140 Si02
#       6
#    16  16  16   8  16  16
#     4  10  21  37  57  80 106 137 176 222 274 334
#     4  10  20  36  58  83 115 155 195 238 291 348
#     4  10  21  39  62  88 121 161 202 249 303 359
#     4  10  22  42  64  88 124 162 202 252 305 360
#     4  10  21  37  56  78 108 143 181 227 279 333
#     4  10  21  36  54  79 111 147 186 232 283 338
#
# _framework density 19.401779000000001
#
# number of rings (size 3 to 8) (size 9 to 14) (size 15 to 20)
#    0.000    2.000    0.909    2.182    0.000    8.000 
#    0.000    7.273    0.000    0.000    0.000    0.000 
#    0.000    0.000    0.000    0.000    0.000    0.000 
#
# Total GULP energy -245614.289501 kJ/mol
# GULP energy per Si atom -5582.142943 kJ/mol
# Density = 1.935762 g / cm^3
# Si number density = 19.401779 Si / 1000 Ang^3
#
#
#
# Elastic Constant Matrix: (Units=GPa)
#
#
# Indices 1 2 3 4 5 6 
#
# 1 78.2168 29.5524 61.9869 0.0000 0.0000 0.0000
# 2 29.5524 76.4194 47.7299 0.0000 0.0000 0.0000
# 3 61.9869 47.7299 137.6134 0.0000 0.0000 0.0000
# 4 0.0000 0.0000 0.0000 37.3590 0.0000 0.0000
# 5 0.0000 0.0000 0.0000 0.0000 38.6000 0.0000
# 6 0.0000 0.0000 0.0000 0.0000 0.0000 30.8850
#
#
#
# Elastic Compliance Matrix: (Units=1/GPa)
#
#
# Indices 1 2 3 4 5 6 
#
# 1 0.020320 -0.002733 -0.008205 0.000000 0.000000 0.000000
# 2 -0.002733 0.017072 -0.004690 0.000000 0.000000 0.000000
# 3 -0.008205 -0.004690 0.012589 0.000000 0.000000 0.000000
# 4 0.000000 0.000000 0.000000 0.026767 0.000000 0.000000
# 5 0.000000 0.000000 0.000000 0.000000 0.025907 0.000000
# 6 0.000000 0.000000 0.000000 0.000000 0.000000 0.032378
#
#
# Mechanical properties :
#
#
# Convention : Reuss Voigt Hill
#
# Bulk Modulus (GPa) = 53.40563 63.42089 58.41326
# Shear Modulus (GPa) = 28.98009 31.56749 30.27379
#
# Velocity S-wave (km/s) = 3.86901 4.03804 3.95443
# Velocity P-wave (km/s) = 6.89528 7.38242 7.14300
#
# Compressibility (1/GPa) = 0.01872462
#
# Stress axis : x y z
#
# Youngs Moduli (GPa) = 49.21209 58.57534 79.43245
#
# Poissons Ratio (x) = 0.16011 0.65174
# Poissons Ratio (y) = 0.13452 0.37254
# Poissons Ratio (z) = 0.40379 0.27472
#
# Static dielectric constant tensor:
#      x y z
#    x 1.658290 0.000000 0.000000 
#    y 0.000000 1.681470 0.000000 
#    z 0.000000 0.000000 1.676190 
# 
# From -- ./inp_files/45229.got.cif
#   From: 2010.05.17/outbox.cif.g08.bks.cpg/sg67_23_cif.got.tgz:45229.got - 2010.06.03 18:28:57.
