data_PCOD9503752
_publ_section_title
;
Structure prediction by ZEFSAII (Michael W. Deem and Ramdas Pophale) SiO2 
 PCOD9503752
Probable space group: C M M A
;
_chemical_formula_sum "Si O2"
_cell_formula_units_Z 80
_cell_length_a 26.767156
_cell_length_b 27.887902
_cell_length_c 5.036334
_cell_angle_alpha 90.000000
_cell_angle_beta 90.000000
_cell_angle_gamma 90.000000
_cell_volume 3759.521715
_symmetry_space_group_name_H-M "C M M A"
_symmetry_group_IT_number 67
_symmetry_cell_setting 'orthorhombic'
loop_
_space_group_symop_operation_xyz
x,y,z
-x,1/2-y,z
x,-y,-z
-x,1/2+y,-z
-x,-y,-z
x,1/2+y,-z
-x,y,z
x,1/2-y,z
1/2+x,1/2+y,z
1/2-x,-y,z
1/2+x,1/2-y,-z
1/2-x,y,-z
1/2-x,1/2-y,-z
1/2+x,y,-z
1/2-x,1/2+y,z
1/2+x,-y,z
loop_
_atom_site_type_symbol
_atom_site_label
_atom_site_fract_x
_atom_site_fract_y
_atom_site_fract_z
Si Si1 0.444308 0.057819 0.005927
Si Si2 0.699273 0.397066 0.610946
Si Si3 0.333234 0.947743 0.870790
Si Si4 0.408917 0.362598 0.636401
Si Si5 0.057912 0.195242 0.863582
O O1 0.500000 0.073604 0.096277
O O2 0.391896 0.066681 0.156558
O O3 0.432839 0.086293 0.730689
O O4 0.446719 0.000000 0.000000
O O5 0.750000 0.374253 0.500000
O O6 0.691897 0.442468 0.413368
O O7 0.649232 0.366949 0.564662
O O8 0.694194 0.413665 0.915040
O O9 0.331624 0.000000 0.000000
O O10 0.436687 0.336556 0.398489
O O11 0.413284 0.329852 0.897812
O O12 0.073899 0.250000 0.814447
O O13 0.000000 0.196081 0.944224
#
# Coordination Sequence:
#
# PCOD9503752 Si02
#       5
#    16  16  16  16  16
#     4   9  18  34  56  85 123 162 195 230 281 353
#     4  11  23  38  57  81 112 154 200 249 302 349
#     4  10  21  36  55  82 114 153 204 252 293 343
#     4  11  22  39  62  88 123 161 200 248 300 357
#     4  11  23  40  65  95 123 153 193 245 306 366
#
# _framework density 21.279302000000001
#
# number of rings (size 3 to 8) (size 9 to 14) (size 15 to 20)
#    0.000    1.600    0.000    6.000    0.000    4.000 
#    0.000    8.000    0.000   32.400    0.000    0.000 
#    0.000    0.000    0.000    0.000    0.000    0.000 
#
# Total GULP energy -223259.210541 kJ/mol
# GULP energy per Si atom -5581.480264 kJ/mol
# Density = 2.123087 g / cm^3
# Si number density = 21.279302 Si / 1000 Ang^3
#
#
#
# Elastic Constant Matrix: (Units=GPa)
#
#
# Indices 1 2 3 4 5 6 
#
# 1 142.9839 33.4107 23.6373 0.0000 0.0000 0.0000
# 2 33.4107 104.9361 37.3439 0.0000 0.0000 0.0000
# 3 23.6373 37.3439 90.6493 0.0000 0.0000 0.0000
# 4 0.0000 0.0000 0.0000 22.5287 0.0000 0.0000
# 5 0.0000 0.0000 0.0000 0.0000 28.1997 0.0000
# 6 0.0000 0.0000 0.0000 0.0000 0.0000 24.6858
#
#
#
# Elastic Compliance Matrix: (Units=1/GPa)
#
#
# Indices 1 2 3 4 5 6 
#
# 1 0.007659 -0.002025 -0.001163 0.000000 0.000000 0.000000
# 2 -0.002025 0.011702 -0.004293 0.000000 0.000000 0.000000
# 3 -0.001163 -0.004293 0.013103 0.000000 0.000000 0.000000
# 4 0.000000 0.000000 0.000000 0.044388 0.000000 0.000000
# 5 0.000000 0.000000 0.000000 0.000000 0.035461 0.000000
# 6 0.000000 0.000000 0.000000 0.000000 0.000000 0.040509
#
#
# Mechanical properties :
#
#
# Convention : Reuss Voigt Hill
#
# Bulk Modulus (GPa) = 57.13222 58.59477 57.86349
# Shear Modulus (GPa) = 28.79882 31.36133 30.08007
#
# Velocity S-wave (km/s) = 3.68281 3.84317 3.76384
# Velocity P-wave (km/s) = 6.70754 6.87671 6.79265
#
# Compressibility (1/GPa) = 0.01750326
#
# Stress axis : x y z
#
# Youngs Moduli (GPa) = 130.56238 85.45594 76.31688
#
# Poissons Ratio (x) = 0.17302 0.08876
# Poissons Ratio (y) = 0.26435 0.32761
# Poissons Ratio (z) = 0.15185 0.36684
#
# Static dielectric constant tensor:
#      x y z
#    x 1.807770 0.000000 0.000000 
#    y 0.000000 1.780140 0.000000 
#    z 0.000000 0.000000 1.755330 
# 
# From -- ./inp_files/4256.got.cif
#   From: 2010.05.17/outbox.cif.g08.bks.cpg/sg67_3_cif.got.tgz:4256.got - 2010.06.03 18:28:57.
