data_PCOD9503028
_publ_section_title
;
Structure prediction by ZEFSAII (Michael W. Deem and Ramdas Pophale) SiO2 
 PCOD9503028
Probable space group: C M M A
;
_chemical_formula_sum "Si O2"
_cell_formula_units_Z 80
_cell_length_a 25.179368
_cell_length_b 14.455075
_cell_length_c 9.832449
_cell_angle_alpha 90.000000
_cell_angle_beta 90.000000
_cell_angle_gamma 90.000000
_cell_volume 3578.713050
_symmetry_space_group_name_H-M "C M M A"
_symmetry_group_IT_number 67
_symmetry_cell_setting 'orthorhombic'
loop_
_space_group_symop_operation_xyz
x,y,z
-x,1/2-y,z
x,-y,-z
-x,1/2+y,-z
-x,-y,-z
x,1/2+y,-z
-x,y,z
x,1/2-y,z
1/2+x,1/2+y,z
1/2-x,-y,z
1/2+x,1/2-y,-z
1/2-x,y,-z
1/2-x,1/2-y,-z
1/2+x,y,-z
1/2-x,1/2+y,z
1/2+x,-y,z
loop_
_atom_site_type_symbol
_atom_site_label
_atom_site_fract_x
_atom_site_fract_y
_atom_site_fract_z
Si Si1 0.560039 0.461425 0.352264
Si Si2 0.827024 0.645333 0.902231
Si Si3 0.263000 0.143854 0.647036
Si Si4 0.653932 0.144288 0.195273
Si Si5 0.056880 0.588495 0.898240
O O1 0.575783 0.500000 0.500000
O O2 0.500000 0.418800 0.362422
O O3 0.605047 0.401588 0.275697
O O4 0.554019 0.547545 0.251893
O O5 0.804113 0.750000 0.907654
O O6 0.801871 0.602555 0.764399
O O7 0.890641 0.647962 0.894648
O O8 0.823195 0.602271 0.053223
O O9 0.283077 0.250000 0.622152
O O10 0.250000 0.101740 0.500000
O O11 0.205229 0.147378 0.712152
O O12 0.637686 0.250000 0.163660
O O13 0.000000 0.631586 0.935463
O O14 0.063478 0.500000 0.000000
#
# Coordination Sequence:
#
# PCOD9503028 Si02
#       5
#    16  16  16  16  16
#     4  10  22  39  58  82 117 159 194 235 296 357
#     4  10  20  35  59  87 114 149 195 243 290 347
#     4   9  19  35  56  82 113 149 185 231 294 349
#     4  10  20  36  60  86 113 148 195 245 290 348
#     4  10  20  37  58  81 115 154 188 231 295 356
#
# _framework density 22.354403999999999
#
# number of rings (size 3 to 8) (size 9 to 14) (size 15 to 20)
#    0.000    2.200    2.000    0.600    2.800    3.200 
#    0.000    3.000    0.000    3.600    0.000    0.000 
#    0.000    0.000    0.000    0.000    0.000    0.000 
#
# Total GULP energy -222669.747162 kJ/mol
# GULP energy per Si atom -5566.743679 kJ/mol
# Density = 2.230352 g / cm^3
# Si number density = 22.354404 Si / 1000 Ang^3
#
#
#
# Elastic Constant Matrix: (Units=GPa)
#
#
# Indices 1 2 3 4 5 6 
#
# 1 122.8136 17.4310 55.4864 0.0000 0.0000 0.0000
# 2 17.4310 46.4680 31.6572 0.0000 0.0000 0.0000
# 3 55.4864 31.6572 222.5461 0.0000 0.0000 0.0000
# 4 0.0000 0.0000 0.0000 20.9921 0.0000 0.0000
# 5 0.0000 0.0000 0.0000 0.0000 48.8543 0.0000
# 6 0.0000 0.0000 0.0000 0.0000 0.0000 43.0194
#
#
#
# Elastic Compliance Matrix: (Units=1/GPa)
#
#
# Indices 1 2 3 4 5 6 
#
# 1 0.009362 -0.002128 -0.002032 0.000000 0.000000 0.000000
# 2 -0.002128 0.024313 -0.002928 0.000000 0.000000 0.000000
# 3 -0.002032 -0.002928 0.005416 0.000000 0.000000 0.000000
# 4 0.000000 0.000000 0.000000 0.047637 0.000000 0.000000
# 5 0.000000 0.000000 0.000000 0.000000 0.020469 0.000000
# 6 0.000000 0.000000 0.000000 0.000000 0.000000 0.023245
#
#
# Mechanical properties :
#
#
# Convention : Reuss Voigt Hill
#
# Bulk Modulus (GPa) = 40.13333 66.77523 53.45428
# Shear Modulus (GPa) = 32.69601 41.72338 37.20969
#
# Velocity S-wave (km/s) = 3.82857 4.32493 4.08430
# Velocity P-wave (km/s) = 6.12667 7.40784 6.79751
#
# Compressibility (1/GPa) = 0.02491694
#
# Stress axis : x y z
#
# Youngs Moduli (GPa) = 106.81157 41.12996 184.62180
#
# Poissons Ratio (x) = 0.08752 0.37507
# Poissons Ratio (y) = 0.22729 0.54057
# Poissons Ratio (z) = 0.21699 0.12043
#
# Static dielectric constant tensor:
#      x y z
#    x 1.880140 0.000000 0.000000 
#    y 0.000000 1.891460 0.000000 
#    z 0.000000 0.000000 1.924990 
# 
# From -- ./inp_files/13510.got.cif
#   From: 2010.05.17/outbox.cif.g08.bks.cpg/sg67_7_cif.got.tgz:13510.got - 2010.06.03 18:28:57.
