data_PCOD9503218
_publ_section_title
;
Structure prediction by ZEFSAII (Michael W. Deem and Ramdas Pophale) SiO2 
 PCOD9503218
Probable space group: C M M A
;
_chemical_formula_sum "Si O2"
_cell_formula_units_Z 88
_cell_length_a 17.247982
_cell_length_b 8.975391
_cell_length_c 30.232459
_cell_angle_alpha 90.000000
_cell_angle_beta 90.000000
_cell_angle_gamma 90.000000
_cell_volume 4680.207842
_symmetry_space_group_name_H-M "C M M A"
_symmetry_group_IT_number 67
_symmetry_cell_setting 'orthorhombic'
loop_
_space_group_symop_operation_xyz
x,y,z
-x,1/2-y,z
x,-y,-z
-x,1/2+y,-z
-x,-y,-z
x,1/2+y,-z
-x,y,z
x,1/2-y,z
1/2+x,1/2+y,z
1/2-x,-y,z
1/2+x,1/2-y,-z
1/2-x,y,-z
1/2-x,1/2-y,-z
1/2+x,y,-z
1/2-x,1/2+y,z
1/2+x,-y,z
loop_
_atom_site_type_symbol
_atom_site_label
_atom_site_fract_x
_atom_site_fract_y
_atom_site_fract_z
Si Si1 0.167767 0.572295 0.698484
Si Si2 0.334554 0.071265 0.594321
Si Si3 0.408856 0.082292 0.221724
Si Si4 0.166193 0.428747 0.137668
Si Si5 0.000000 0.930714 0.548619
Si Si6 0.908980 0.428255 0.044755
O O1 0.169294 0.750000 0.703881
O O2 0.250000 0.500000 0.710358
O O3 0.154346 0.539780 0.646649
O O4 0.108440 0.498418 0.732097
O O5 0.326648 0.250000 0.588588
O O6 0.416503 0.025885 0.571134
O O7 0.250000 0.000000 0.581202
O O8 0.500000 0.093264 0.216193
O O9 0.375007 0.250000 0.221966
O O10 0.377194 0.989188 0.180653
O O11 0.168453 0.250000 0.138958
O O12 0.250000 0.500000 0.139003
O O13 0.128086 0.475129 0.091049
O O14 0.000000 0.750000 0.547652
O O15 0.000000 0.000000 0.500000
O O16 0.902190 0.250000 0.041175
O O17 0.000000 0.466792 0.046925
O O18 0.875939 0.500000 0.000000
#
# Coordination Sequence:
#
# PCOD9503218 Si02
#       6
#    16  16  16  16   8  16
#     4  10  20  36  60  85 114 151 190 235 287 344
#     4   9  20  38  61  87 120 158 201 249 300 358
#     4  11  24  39  56  82 114 147 186 233 282 337
#     4  11  23  39  58  80 110 147 187 230 276 333
#     4  10  22  40  60  88 122 160 204 252 301 358
#     4   9  19  36  58  82 107 138 178 224 275 331
#
# _framework density 18.802585000000001
#
# number of rings (size 3 to 8) (size 9 to 14) (size 15 to 20)
#    0.000    2.000    0.000    2.727    1.273    5.818 
#    0.000    5.455    0.000    0.000    0.000    0.000 
#    0.000    0.000    0.000    0.000    0.000    0.000 
#
# Total GULP energy -245423.023827 kJ/mol
# GULP energy per Si atom -5577.795996 kJ/mol
# Density = 1.875979 g / cm^3
# Si number density = 18.802585 Si / 1000 Ang^3
#
#
#
# Elastic Constant Matrix: (Units=GPa)
#
#
# Indices 1 2 3 4 5 6 
#
# 1 122.9788 40.9736 71.7233 0.0000 0.0000 0.0000
# 2 40.9736 58.6347 46.3551 0.0000 0.0000 0.0000
# 3 71.7233 46.3551 100.6642 0.0000 0.0000 0.0000
# 4 0.0000 0.0000 0.0000 79.2811 0.0000 0.0000
# 5 0.0000 0.0000 0.0000 0.0000 59.1084 0.0000
# 6 0.0000 0.0000 0.0000 0.0000 0.0000 36.5525
#
#
#
# Elastic Compliance Matrix: (Units=1/GPa)
#
#
# Indices 1 2 3 4 5 6 
#
# 1 0.014249 -0.003036 -0.008754 0.000000 0.000000 0.000000
# 2 -0.003036 0.027465 -0.010484 0.000000 0.000000 0.000000
# 3 -0.008754 -0.010484 0.020999 0.000000 0.000000 0.000000
# 4 0.000000 0.000000 0.000000 0.012613 0.000000 0.000000
# 5 0.000000 0.000000 0.000000 0.000000 0.016918 0.000000
# 6 0.000000 0.000000 0.000000 0.000000 0.000000 0.027358
#
#
# Mechanical properties :
#
#
# Convention : Reuss Voigt Hill
#
# Bulk Modulus (GPa) = 55.05385 66.70909 60.88147
# Shear Modulus (GPa) = 29.37638 43.20345 36.28991
#
# Velocity S-wave (km/s) = 3.95696 4.79867 4.39800
# Velocity P-wave (km/s) = 7.08662 8.13995 7.63148
#
# Compressibility (1/GPa) = 0.01816403
#
# Stress axis : x y z
#
# Youngs Moduli (GPa) = 70.18277 36.41021 47.62115
#
# Poissons Ratio (x) = 0.11055 0.41687
# Poissons Ratio (y) = 0.21308 0.49927
# Poissons Ratio (z) = 0.61438 0.38173
#
# Static dielectric constant tensor:
#      x y z
#    x 1.663310 0.000000 0.000000 
#    y 0.000000 1.649160 0.000000 
#    z 0.000000 0.000000 1.639910 
# 
# From -- ./inp_files/45807.got.cif
#   From: 2010.05.17/outbox.cif.g08.bks.cpg/sg67_23_cif.got.tgz:45807.got - 2010.06.03 18:28:57.
