data_PCOD9503854
_publ_section_title
;
Structure prediction by ZEFSAII (Michael W. Deem and Ramdas Pophale) SiO2 
 PCOD9503854
Probable space group: C M M A
;
_chemical_formula_sum "Si O2"
_cell_formula_units_Z 104
_cell_length_a 9.186539
_cell_length_b 28.299880
_cell_length_c 21.039678
_cell_angle_alpha 90.000000
_cell_angle_beta 90.000000
_cell_angle_gamma 90.000000
_cell_volume 5469.852383
_symmetry_space_group_name_H-M "C M M A"
_symmetry_group_IT_number 67
_symmetry_cell_setting 'orthorhombic'
loop_
_space_group_symop_operation_xyz
x,y,z
-x,1/2-y,z
x,-y,-z
-x,1/2+y,-z
-x,-y,-z
x,1/2+y,-z
-x,y,z
x,1/2-y,z
1/2+x,1/2+y,z
1/2-x,-y,z
1/2+x,1/2-y,-z
1/2-x,y,-z
1/2-x,1/2-y,-z
1/2+x,y,-z
1/2-x,1/2+y,z
1/2+x,-y,z
loop_
_atom_site_type_symbol
_atom_site_label
_atom_site_fract_x
_atom_site_fract_y
_atom_site_fract_z
Si Si1 0.324166 0.948869 0.246088
Si Si2 0.667784 0.451432 0.609385
Si Si3 0.835667 0.306448 0.285035
Si Si4 0.325911 0.363148 0.179344
Si Si5 0.750000 0.379129 0.500000
Si Si6 0.843405 0.304149 0.594061
Si Si7 0.326245 0.305055 0.931438
O O1 0.500000 0.950442 0.238522
O O2 0.289943 0.934045 0.319665
O O3 0.249399 0.912626 0.197874
O O4 0.250000 0.000000 0.238611
O O5 0.500000 0.464317 0.614048
O O6 0.750000 0.500000 0.594483
O O7 0.687391 0.413251 0.554285
O O8 0.836336 0.250000 0.276303
O O9 0.722614 0.329415 0.237253
O O10 0.784842 0.315176 0.356967
O O11 0.000000 0.324506 0.273537
O O12 0.500000 0.366896 0.173765
O O13 0.253218 0.339655 0.117487
O O14 0.847381 0.342169 0.538699
O O15 0.825407 0.250000 0.571416
O O16 0.000000 0.305848 0.628389
O O17 0.500000 0.314194 0.934872
O O18 0.308837 0.250000 0.910801
O O19 0.250000 0.309383 0.000000
#
# Coordination Sequence:
#
# PCOD9503854 Si02
#       7
#    16  16  16  16   8  16  16
#     4  10  21  40  62  84 113 147 188 240 296 350
#     4  10  23  40  58  80 106 137 176 226 285 347
#     4  10  21  37  56  79 109 145 187 238 293 345
#     4  12  23  35  58  90 120 154 196 238 285 342
#     4  12  22  34  56  80 106 140 182 226 280 344
#     4  10  22  38  54  75 105 142 185 232 282 341
#     4  10  21  38  60  89 128 170 207 242 281 326
#
# _framework density 19.013309
#
# number of rings (size 3 to 8) (size 9 to 14) (size 15 to 20)
#    0.000    1.538    0.000    5.077    0.000    8.615 
#    0.000    1.538    0.000    0.462    0.000    3.231 
#    0.000    0.000    0.000    0.000    0.000    0.000 
#
# Total GULP energy -290318.052475 kJ/mol
# GULP energy per Si atom -5583.039471 kJ/mol
# Density = 1.897003 g / cm^3
# Si number density = 19.013309 Si / 1000 Ang^3
#
#
#
# Elastic Constant Matrix: (Units=GPa)
#
#
# Indices 1 2 3 4 5 6 
#
# 1 133.1970 59.5938 57.7119 0.0000 0.0000 0.0000
# 2 59.5938 112.6917 71.6591 0.0000 0.0000 0.0000
# 3 57.7119 71.6591 100.8481 0.0000 0.0000 0.0000
# 4 0.0000 0.0000 0.0000 42.3169 0.0000 0.0000
# 5 0.0000 0.0000 0.0000 0.0000 21.9826 0.0000
# 6 0.0000 0.0000 0.0000 0.0000 0.0000 43.3601
#
#
#
# Elastic Compliance Matrix: (Units=1/GPa)
#
#
# Indices 1 2 3 4 5 6 
#
# 1 0.010573 -0.003181 -0.003790 0.000000 0.000000 0.000000
# 2 -0.003181 0.017145 -0.010362 0.000000 0.000000 0.000000
# 3 -0.003790 -0.010362 0.019448 0.000000 0.000000 0.000000
# 4 0.000000 0.000000 0.000000 0.023631 0.000000 0.000000
# 5 0.000000 0.000000 0.000000 0.000000 0.045491 0.000000
# 6 0.000000 0.000000 0.000000 0.000000 0.000000 0.023063
#
#
# Mechanical properties :
#
#
# Convention : Reuss Voigt Hill
#
# Bulk Modulus (GPa) = 80.00646 80.51849 80.26248
# Shear Modulus (GPa) = 28.06073 32.05006 30.05539
#
# Velocity S-wave (km/s) = 3.84584 4.11014 3.98018
# Velocity P-wave (km/s) = 7.86710 8.06007 7.96417
#
# Compressibility (1/GPa) = 0.01249899
#
# Stress axis : x y z
#
# Youngs Moduli (GPa) = 94.57850 58.32494 51.41897
#
# Poissons Ratio (x) = 0.18554 0.19489
# Poissons Ratio (y) = 0.30087 0.53282
# Poissons Ratio (z) = 0.35848 0.60438
#
# Static dielectric constant tensor:
#      x y z
#    x 1.671710 0.000000 0.000000 
#    y 0.000000 1.665370 0.000000 
#    z 0.000000 0.000000 1.652980 
# 
# From -- ./inp_files/37301.got.cif
#   From: 2010.05.17/outbox.cif.g08.bks.cpg/sg67_19_cif.got.tgz:37301.got - 2010.06.03 18:28:57.
