data_PCOD9503197
_publ_section_title
;
Structure prediction by ZEFSAII (Michael W. Deem and Ramdas Pophale) SiO2 
 PCOD9503197
Probable space group: C M M A
;
_chemical_formula_sum "Si O2"
_cell_formula_units_Z 112
_cell_length_a 14.009620
_cell_length_b 33.609538
_cell_length_c 9.884357
_cell_angle_alpha 90.000000
_cell_angle_beta 90.000000
_cell_angle_gamma 90.000000
_cell_volume 4654.117258
_symmetry_space_group_name_H-M "C M M A"
_symmetry_group_IT_number 67
_symmetry_cell_setting 'orthorhombic'
loop_
_space_group_symop_operation_xyz
x,y,z
-x,1/2-y,z
x,-y,-z
-x,1/2+y,-z
-x,-y,-z
x,1/2+y,-z
-x,y,z
x,1/2-y,z
1/2+x,1/2+y,z
1/2-x,-y,z
1/2+x,1/2-y,-z
1/2-x,y,-z
1/2-x,1/2-y,-z
1/2+x,y,-z
1/2-x,1/2+y,z
1/2+x,-y,z
loop_
_atom_site_type_symbol
_atom_site_label
_atom_site_fract_x
_atom_site_fract_y
_atom_site_fract_z
Si Si1 0.860967 0.206210 0.464419
Si Si2 0.826877 0.316350 0.163351
Si Si3 0.606955 0.069881 0.249333
Si Si4 0.113167 0.485717 0.149556
Si Si5 0.608338 0.704540 0.873051
Si Si6 0.103563 0.118453 0.477584
Si Si7 0.298701 0.099147 0.790981
O O1 0.899079 0.250000 0.499832
O O2 0.750000 0.207472 0.500000
O O3 0.870620 0.199119 0.303138
O O4 0.894942 0.164349 0.526842
O O5 0.710799 0.312618 0.177828
O O6 0.845030 0.363075 0.138615
O O7 0.871030 0.295065 0.034317
O O8 0.500000 0.073234 0.192161
O O9 0.606998 0.088159 0.398745
O O10 0.687846 0.094170 0.171957
O O11 0.634113 0.023293 0.246231
O O12 0.157610 0.443786 0.185023
O O13 0.000000 0.480289 0.150403
O O14 0.141567 0.500000 0.000000
O O15 0.500000 0.687997 0.847721
O O16 0.606987 0.750000 0.823423
O O17 0.184918 0.110455 0.367329
O O18 0.000000 0.112575 0.408295
#
# Coordination Sequence:
#
# PCOD9503197 Si02
#       7
#    16  16  16  16  16  16  16
#     4  10  20  36  59  86 121 163 203 248 305 370
#     4  10  21  37  59  88 120 155 201 256 309 369
#     4  10  22  40  62  86 115 153 197 247 298 356
#     4  10  23  42  63  90 122 155 195 244 302 368
#     4  10  21  38  60  85 117 160 209 260 312 366
#     4  10  21  38  60  88 119 154 202 250 298 358
#     4  11  22  38  61  87 119 156 195 246 306 365
#
# _framework density 24.064713999999999
#
# number of rings (size 3 to 8) (size 9 to 14) (size 15 to 20)
#    0.000    1.857    0.000    4.714    0.000    7.714 
#    0.000    5.714    0.000    0.857    0.000    0.000 
#    0.000    0.000    0.000    0.000    0.000    0.000 
#
# Total GULP energy -312837.708632 kJ/mol
# GULP energy per Si atom -5586.387654 kJ/mol
# Density = 2.400994 g / cm^3
# Si number density = 24.064714 Si / 1000 Ang^3
#
#
#
# Elastic Constant Matrix: (Units=GPa)
#
#
# Indices 1 2 3 4 5 6 
#
# 1 109.7747 31.1332 -5.0116 0.0000 0.0000 0.0000
# 2 31.1332 202.5877 42.8402 0.0000 0.0000 0.0000
# 3 -5.0116 42.8402 66.2407 0.0000 0.0000 0.0000
# 4 0.0000 0.0000 0.0000 16.9663 0.0000 0.0000
# 5 0.0000 0.0000 0.0000 0.0000 16.4512 0.0000
# 6 0.0000 0.0000 0.0000 0.0000 0.0000 24.1213
#
#
#
# Elastic Compliance Matrix: (Units=1/GPa)
#
#
# Indices 1 2 3 4 5 6 
#
# 1 0.009743 -0.001915 0.001976 0.000000 0.000000 0.000000
# 2 -0.001915 0.006095 -0.004086 0.000000 0.000000 0.000000
# 3 0.001976 -0.004086 0.017889 0.000000 0.000000 0.000000
# 4 0.000000 0.000000 0.000000 0.058940 0.000000 0.000000
# 5 0.000000 0.000000 0.000000 0.000000 0.060786 0.000000
# 6 0.000000 0.000000 0.000000 0.000000 0.000000 0.041457
#
#
# Mechanical properties :
#
#
# Convention : Reuss Voigt Hill
#
# Bulk Modulus (GPa) = 38.94910 57.39187 48.17049
# Shear Modulus (GPa) = 23.63846 32.15051 27.89449
#
# Velocity S-wave (km/s) = 3.13755 3.65910 3.40831
# Velocity P-wave (km/s) = 5.41718 6.46164 5.96233
#
# Compressibility (1/GPa) = 0.02567453
#
# Stress axis : x y z
#
# Youngs Moduli (GPa) = 102.63898 164.08031 55.90092
#
# Poissons Ratio (x) = 0.31422 -0.11044
# Poissons Ratio (y) = 0.19656 0.22844
# Poissons Ratio (z) = -0.20278 0.67051
#
# Static dielectric constant tensor:
#      x y z
#    x 1.977010 0.000000 0.000000 
#    y 0.000000 1.901040 0.000000 
#    z 0.000000 0.000000 1.906710 
# 
# From -- ./inp_files/18594.got.cif
#   From: 2010.05.17/outbox.cif.g08.bks.cpg/sg67_10_cif.got.tgz:18594.got - 2010.06.03 18:28:57.
