data_PCOD9503736
_publ_section_title
;
Structure prediction by ZEFSAII (Michael W. Deem and Ramdas Pophale) SiO2 
 PCOD9503736
Probable space group: C M M A
;
_chemical_formula_sum "Si O2"
_cell_formula_units_Z 88
_cell_length_a 22.450921
_cell_length_b 10.020531
_cell_length_c 22.883538
_cell_angle_alpha 90.000000
_cell_angle_beta 90.000000
_cell_angle_gamma 90.000000
_cell_volume 5148.112973
_symmetry_space_group_name_H-M "C M M A"
_symmetry_group_IT_number 67
_symmetry_cell_setting 'orthorhombic'
loop_
_space_group_symop_operation_xyz
x,y,z
-x,1/2-y,z
x,-y,-z
-x,1/2+y,-z
-x,-y,-z
x,1/2+y,-z
-x,y,z
x,1/2-y,z
1/2+x,1/2+y,z
1/2-x,-y,z
1/2+x,1/2-y,-z
1/2-x,y,-z
1/2-x,1/2-y,-z
1/2+x,y,-z
1/2-x,1/2+y,z
1/2+x,-y,z
loop_
_atom_site_type_symbol
_atom_site_label
_atom_site_fract_x
_atom_site_fract_y
_atom_site_fract_z
Si Si1 0.250000 0.500000 0.656559
Si Si2 0.430525 0.598761 0.627799
Si Si3 0.571341 0.590659 0.814462
Si Si4 0.572166 0.099732 0.049613
Si Si5 0.677238 0.605045 0.549546
Si Si6 0.368491 0.091392 0.718888
O O1 0.285512 0.591603 0.609785
O O2 0.300546 0.432402 0.696672
O O3 0.500000 0.588188 0.616766
O O4 0.419448 0.750000 0.652680
O O5 0.390683 0.589947 0.570292
O O6 0.408882 0.481010 0.669807
O O7 0.500000 0.567501 0.803627
O O8 0.581366 0.750000 0.803778
O O9 0.584076 0.564631 0.882968
O O10 0.612070 0.493728 0.775708
O O11 0.500000 0.102358 0.045562
O O12 0.593625 0.250000 0.038885
O O13 0.594462 0.000000 0.000000
O O14 0.690185 0.500000 0.500000
O O15 0.686373 0.750000 0.523957
O O16 0.379050 0.250000 0.724770
#
# Coordination Sequence:
#
# PCOD9503736 Si02
#       6
#     8  16  16  16  16  16
#     4  10  23  40  54  68  97 130 162 202 256 308
#     4   9  19  36  54  72 101 139 166 188 237 305
#     4   9  18  32  49  72 106 144 172 197 244 306
#     4   8  14  25  42  66  98 136 173 204 237 282
#     4  10  21  36  55  76  97 124 159 199 244 296
#     4  11  22  34  52  77  99 125 168 217 254 287
#
# _framework density 17.093641999999999
#
# number of rings (size 3 to 8) (size 9 to 14) (size 15 to 20)
#    0.000    2.545    0.000    3.000    0.000   10.545 
#    0.000    1.818    0.000    0.000    0.000    0.636 
#    0.000    4.364    0.000    0.000    0.000    0.000 
#
# Total GULP energy -245021.835276 kJ/mol
# GULP energy per Si atom -5568.678074 kJ/mol
# Density = 1.705474 g / cm^3
# Si number density = 17.093642 Si / 1000 Ang^3
#
#
#
# Elastic Constant Matrix: (Units=GPa)
#
#
# Indices 1 2 3 4 5 6 
#
# 1 93.5900 53.2164 46.1573 0.0000 0.0000 0.0000
# 2 53.2164 151.8436 87.3573 0.0000 0.0000 0.0000
# 3 46.1573 87.3573 112.1334 0.0000 0.0000 0.0000
# 4 0.0000 0.0000 0.0000 15.5347 0.0000 0.0000
# 5 0.0000 0.0000 0.0000 0.0000 23.3510 0.0000
# 6 0.0000 0.0000 0.0000 0.0000 0.0000 27.6149
#
#
#
# Elastic Compliance Matrix: (Units=1/GPa)
#
#
# Indices 1 2 3 4 5 6 
#
# 1 0.014077 -0.002899 -0.003536 0.000000 0.000000 0.000000
# 2 -0.002899 0.012532 -0.008570 0.000000 0.000000 0.000000
# 3 -0.003536 -0.008570 0.017049 0.000000 0.000000 0.000000
# 4 0.000000 0.000000 0.000000 0.064372 0.000000 0.000000
# 5 0.000000 0.000000 0.000000 0.000000 0.042825 0.000000
# 6 0.000000 0.000000 0.000000 0.000000 0.000000 0.036212
#
#
# Mechanical properties :
#
#
# Convention : Reuss Voigt Hill
#
# Bulk Modulus (GPa) = 73.26431 81.22544 77.24488
# Shear Modulus (GPa) = 22.56037 24.68918 23.62478
#
# Velocity S-wave (km/s) = 3.63686 3.80458 3.72167
# Velocity P-wave (km/s) = 7.78391 8.18052 7.98468
#
# Compressibility (1/GPa) = 0.01364921
#
# Stress axis : x y z
#
# Youngs Moduli (GPa) = 71.03582 79.79526 58.65276
#
# Poissons Ratio (x) = 0.23137 0.20739
# Poissons Ratio (y) = 0.20597 0.50263
# Poissons Ratio (z) = 0.25117 0.68381
#
# Static dielectric constant tensor:
#      x y z
#    x 1.587630 0.000000 0.000000 
#    y 0.000000 1.600600 0.000000 
#    z 0.000000 0.000000 1.582310 
# 
# From -- ./inp_files/40656.got.cif
#   From: 2010.05.17/outbox.cif.g08.bks.cpg/sg67_21_cif.got.tgz:40656.got - 2010.06.03 18:28:57.
