data_PCOD9503837
_publ_section_title
;
Structure prediction by ZEFSAII (Michael W. Deem and Ramdas Pophale) SiO2 
 PCOD9503837
Probable space group: C M M A
;
_chemical_formula_sum "Si O2"
_cell_formula_units_Z 96
_cell_length_a 18.989749
_cell_length_b 8.702438
_cell_length_c 32.072492
_cell_angle_alpha 90.000000
_cell_angle_beta 90.000000
_cell_angle_gamma 90.000000
_cell_volume 5300.207445
_symmetry_space_group_name_H-M "C M M A"
_symmetry_group_IT_number 67
_symmetry_cell_setting 'orthorhombic'
loop_
_space_group_symop_operation_xyz
x,y,z
-x,1/2-y,z
x,-y,-z
-x,1/2+y,-z
-x,-y,-z
x,1/2+y,-z
-x,y,z
x,1/2-y,z
1/2+x,1/2+y,z
1/2-x,-y,z
1/2+x,1/2-y,-z
1/2-x,y,-z
1/2-x,1/2-y,-z
1/2+x,y,-z
1/2-x,1/2+y,z
1/2+x,-y,z
loop_
_atom_site_type_symbol
_atom_site_label
_atom_site_fract_x
_atom_site_fract_y
_atom_site_fract_z
Si Si1 0.828933 0.064839 0.365967
Si Si2 0.670389 0.933944 0.457854
Si Si3 0.328171 0.566760 0.120423
Si Si4 0.415809 0.568409 0.955215
Si Si5 0.582229 0.064186 0.714546
Si Si6 0.671461 0.066465 0.209514
O O1 0.823872 0.250000 0.365109
O O2 0.858194 0.023409 0.412045
O O3 0.878082 0.016207 0.327868
O O4 0.750000 0.000000 0.361204
O O5 0.672968 0.750000 0.461215
O O6 0.636291 0.000000 0.500000
O O7 0.750000 0.000000 0.457001
O O8 0.324833 0.750000 0.123510
O O9 0.250000 0.500000 0.113408
O O10 0.377022 0.514879 0.082541
O O11 0.352789 0.497693 0.164660
O O12 0.500000 0.547402 0.951342
O O13 0.400666 0.750000 0.954022
O O14 0.394320 0.500000 0.000000
O O15 0.500000 0.024089 0.713287
O O16 0.587691 0.250000 0.717824
O O17 0.621046 0.989746 0.753788
O O18 0.675128 0.250000 0.208071
O O19 0.750000 0.000000 0.216710
#
# Coordination Sequence:
#
# PCOD9503837 Si02
#       6
#    16  16  16  16  16  16
#     4   9  18  31  49  73  99 131 169 210 257 309
#     4   9  15  24  40  65  95 124 159 203 252 302
#     4  11  22  38  60  85 113 144 181 223 270 320
#     4  10  21  38  59  84 115 150 188 228 270 317
#     4  10  21  37  55  76 104 138 176 217 262 313
#     4  11  22  38  59  82 109 139 175 218 266 319
#
# _framework density 18.112499
#
# number of rings (size 3 to 8) (size 9 to 14) (size 15 to 20)
#    0.000    2.000    0.000    6.000    0.000    5.000 
#    0.000    1.667    0.000    0.500    0.000    0.000 
#    0.000    0.000    0.000    0.000    0.000    4.500 
#
# Total GULP energy -267909.384758 kJ/mol
# GULP energy per Si atom -5581.445516 kJ/mol
# Density = 1.807127 g / cm^3
# Si number density = 18.112499 Si / 1000 Ang^3
#
#
#
# Elastic Constant Matrix: (Units=GPa)
#
#
# Indices 1 2 3 4 5 6 
#
# 1 61.0869 45.0875 86.1734 0.0000 0.0000 0.0000
# 2 45.0875 99.0537 79.8688 0.0000 0.0000 0.0000
# 3 86.1734 79.8688 207.8608 0.0000 0.0000 0.0000
# 4 0.0000 0.0000 0.0000 42.9047 0.0000 0.0000
# 5 0.0000 0.0000 0.0000 0.0000 -33.8231 0.0000
# 6 0.0000 0.0000 0.0000 0.0000 0.0000 20.4471
#
#
#
# Elastic Compliance Matrix: (Units=1/GPa)
#
#
# Indices 1 2 3 4 5 6 
#
# 1 0.042985 -0.007530 -0.014927 0.000000 0.000000 0.000000
# 2 -0.007530 0.015947 -0.003006 0.000000 0.000000 0.000000
# 3 -0.014927 -0.003006 0.012154 0.000000 0.000000 0.000000
# 4 0.000000 0.000000 0.000000 0.023307 0.000000 0.000000
# 5 0.000000 0.000000 0.000000 0.000000 -0.029566 0.000000
# 6 0.000000 0.000000 0.000000 0.000000 0.000000 0.048907
#
#
# Mechanical properties :
#
#
# Convention : Reuss Voigt Hill
#
# Bulk Modulus (GPa) = 49.60232 87.80675 68.70454
# Shear Modulus (GPa) = 29.17492 16.36386 22.76939
#
# Velocity S-wave (km/s) = 4.01778 3.00902 3.54942
# Velocity P-wave (km/s) = 6.99776 7.78820 7.40353
#
# Compressibility (1/GPa) = 0.02016035
#
# Stress axis : x y z
#
# Youngs Moduli (GPa) = 23.26383 62.70954 82.27646
#
# Poissons Ratio (x) = 0.47221 1.22815
# Poissons Ratio (y) = 0.17518 0.24729
# Poissons Ratio (z) = 0.34726 0.18848
#
# Static dielectric constant tensor:
#      x y z
#    x 1.585380 0.000000 0.000000 
#    y 0.000000 1.607810 0.000000 
#    z 0.000000 0.000000 1.643060 
# 
# From -- ./inp_files/44583.got.cif
#   From: 2010.05.17/outbox.cif.g08.bks.cpg/sg67_23_cif.got.tgz:44583.got - 2010.06.03 18:28:57.
