data_PCOD9503990
_publ_section_title
;
Structure prediction by ZEFSAII (Michael W. Deem and Ramdas Pophale) SiO2 
 PCOD9503990
Probable space group: C M M A
;
_chemical_formula_sum "Si O2"
_cell_formula_units_Z 116
_cell_length_a 17.783667
_cell_length_b 15.378290
_cell_length_c 19.674300
_cell_angle_alpha 90.000000
_cell_angle_beta 90.000000
_cell_angle_gamma 90.000000
_cell_volume 5380.574554
_symmetry_space_group_name_H-M "C M M A"
_symmetry_group_IT_number 67
_symmetry_cell_setting 'orthorhombic'
loop_
_space_group_symop_operation_xyz
x,y,z
-x,1/2-y,z
x,-y,-z
-x,1/2+y,-z
-x,-y,-z
x,1/2+y,-z
-x,y,z
x,1/2-y,z
1/2+x,1/2+y,z
1/2-x,-y,z
1/2+x,1/2-y,-z
1/2-x,y,-z
1/2-x,1/2-y,-z
1/2+x,y,-z
1/2-x,1/2+y,z
1/2+x,-y,z
loop_
_atom_site_type_symbol
_atom_site_label
_atom_site_fract_x
_atom_site_fract_y
_atom_site_fract_z
Si Si1 0.916425 0.096796 0.351154
Si Si2 0.764524 0.853500 0.577088
Si Si3 0.837264 0.400724 0.214911
Si Si4 0.330832 0.892559 0.786291
Si Si5 0.000000 0.250000 0.598899
Si Si6 0.913957 0.145280 0.924670
Si Si7 0.113982 0.893363 0.352139
Si Si8 0.912264 0.645280 0.925638
O O1 0.848718 0.126051 0.399389
O O2 0.892727 0.127714 0.275216
O O3 0.000000 0.128014 0.368982
O O4 0.916338 0.991499 0.353110
O O5 0.753318 0.750000 0.581565
O O6 0.750000 0.881635 0.500000
O O7 0.700666 0.896314 0.623814
O O8 0.754454 0.359768 0.220665
O O9 0.829312 0.503949 0.224567
O O10 0.868180 0.387096 0.139517
O O11 0.363141 0.877425 0.860899
O O12 0.383758 0.858929 0.725794
O O13 0.934409 0.326803 0.603889
O O14 0.917200 0.250000 0.927712
O O15 0.000000 0.113846 0.914727
O O16 0.886613 0.115503 0.999249
O O17 0.908016 0.750000 0.924478
O O18 0.000000 0.621034 0.919634
#
# Coordination Sequence:
#
# PCOD9503990 Si02
#       8
#    16  16  16  16   4  16  16  16
#     4  11  23  43  69 100 132 175 225 270 323 398
#     4  11  25  47  71  98 138 179 214 266 327 385
#     4  10  21  38  58  83 121 159 205 260 314 382
#     4  10  22  36  57  86 118 161 204 256 324 386
#     4  12  24  40  70 106 132 172 224 282 330 378
#     4   9  20  35  54  79 113 152 203 260 318 382
#     4  11  23  43  67  99 134 173 220 274 335 387
#     4   9  19  37  55  77 110 156 203 257 319 379
#
# _framework density 21.559035999999999
#
# number of rings (size 3 to 8) (size 9 to 14) (size 15 to 20)
#    0.000    1.793    2.759    1.655    1.931    4.690 
#    1.241    4.828    0.000    0.000    0.000    0.000 
#    0.000    0.000    0.000    0.000    0.000    0.000 
#
# Total GULP energy -323501.664640 kJ/mol
# GULP energy per Si atom -5577.614908 kJ/mol
# Density = 2.150997 g / cm^3
# Si number density = 21.559036 Si / 1000 Ang^3
#
#
#
# Elastic Constant Matrix: (Units=GPa)
#
#
# Indices 1 2 3 4 5 6 
#
# 1 127.7249 0.0156 42.7121 0.0000 0.0000 0.0000
# 2 0.0156 30.8749 -5.4656 0.0000 0.0000 0.0000
# 3 42.7121 -5.4656 102.5665 0.0000 0.0000 0.0000
# 4 0.0000 0.0000 0.0000 21.7461 0.0000 0.0000
# 5 0.0000 0.0000 0.0000 0.0000 2.3817 0.0000
# 6 0.0000 0.0000 0.0000 0.0000 0.0000 37.5593
#
#
#
# Elastic Compliance Matrix: (Units=1/GPa)
#
#
# Indices 1 2 3 4 5 6 
#
# 1 0.009110 -0.000683 -0.003830 0.000000 0.000000 0.000000
# 2 -0.000683 0.032748 0.002029 0.000000 0.000000 0.000000
# 3 -0.003830 0.002029 0.011453 0.000000 0.000000 0.000000
# 4 0.000000 0.000000 0.000000 0.045985 0.000000 0.000000
# 5 0.000000 0.000000 0.000000 0.000000 0.419869 0.000000
# 6 0.000000 0.000000 0.000000 0.000000 0.000000 0.026625
#
#
# Mechanical properties :
#
#
# Convention : Reuss Voigt Hill
#
# Bulk Modulus (GPa) = 20.68484 37.29894 28.99189
# Shear Modulus (GPa) = 8.82033 27.26436 18.04234
#
# Velocity S-wave (km/s) = 2.02488 3.56003 2.89603
# Velocity P-wave (km/s) = 3.88358 5.85122 4.96583
#
# Compressibility (1/GPa) = 0.04834459
#
# Stress axis : x y z
#
# Youngs Moduli (GPa) = 109.76646 30.53593 87.31387
#
# Poissons Ratio (x) = 0.02084 0.33443
# Poissons Ratio (y) = 0.07493 -0.17719
# Poissons Ratio (z) = 0.42043 -0.06197
#
# Static dielectric constant tensor:
#      x y z
#    x 1.780390 0.000000 0.000000 
#    y 0.000000 1.789780 0.000000 
#    z 0.000000 0.000000 1.803210 
# 
# From -- ./inp_files/34349.got.cif
#   From: 2010.05.17/outbox.cif.g08.bks.cpg/sg67_18_cif.got.tgz:34349.got - 2010.06.03 18:28:57.
