data_PCOD9503430
_publ_section_title
;
Structure prediction by ZEFSAII (Michael W. Deem and Ramdas Pophale) SiO2 
 PCOD9503430
Probable space group: C M M A
;
_chemical_formula_sum "Si O2"
_cell_formula_units_Z 116
_cell_length_a 28.180854
_cell_length_b 24.125967
_cell_length_c 9.505965
_cell_angle_alpha 90.000000
_cell_angle_beta 90.000000
_cell_angle_gamma 90.000000
_cell_volume 6463.013905
_symmetry_space_group_name_H-M "C M M A"
_symmetry_group_IT_number 67
_symmetry_cell_setting 'orthorhombic'
loop_
_space_group_symop_operation_xyz
x,y,z
-x,1/2-y,z
x,-y,-z
-x,1/2+y,-z
-x,-y,-z
x,1/2+y,-z
-x,y,z
x,1/2-y,z
1/2+x,1/2+y,z
1/2-x,-y,z
1/2+x,1/2-y,-z
1/2-x,y,-z
1/2-x,1/2-y,-z
1/2+x,y,-z
1/2-x,1/2+y,z
1/2+x,-y,z
loop_
_atom_site_type_symbol
_atom_site_label
_atom_site_fract_x
_atom_site_fract_y
_atom_site_fract_z
Si Si1 0.411960 0.913430 0.029382
Si Si2 0.124535 0.358822 0.452461
Si Si3 0.556732 0.814433 0.228808
Si Si4 0.220515 0.687088 0.634445
Si Si5 0.748784 0.907810 0.168187
Si Si6 0.000000 0.500000 0.000000
Si Si7 0.844066 0.461074 0.263278
Si Si8 0.141948 0.086558 0.738874
O O1 0.423256 0.855974 0.109903
O O2 0.372014 0.944638 0.121690
O O3 0.389949 0.904534 0.876107
O O4 0.458153 0.952187 0.021694
O O5 0.077559 0.336896 0.376714
O O6 0.166159 0.316391 0.412415
O O7 0.140453 0.416177 0.378058
O O8 0.125110 0.372467 0.616447
O O9 0.500000 0.817751 0.228385
O O10 0.570446 0.750000 0.207884
O O11 0.235802 0.750000 0.659066
O O12 0.250000 0.664312 0.500000
O O13 0.227493 0.649575 0.771198
O O14 0.711849 0.953159 0.230368
O O15 0.802469 0.907772 0.223678
O O16 0.750000 0.911832 0.000000
O O17 0.860423 0.522078 0.305530
#
# Coordination Sequence:
#
# PCOD9503430 Si02
#       8
#    16  16  16  16  16   4  16  16
#     4  11  22  38  64  91 120 161 197 246 307 360
#     4  10  22  38  58  86 117 153 201 245 296 355
#     4  10  22  44  67  86 112 156 210 254 302 367
#     4  10  20  38  58  78 112 157 196 237 291 346
#     4  11  22  35  56  86 120 156 199 240 287 356
#     4  12  20  40  62  92 128 156 204 240 314 364
#     4  10  21  36  57  85 121 162 196 232 292 365
#     4  12  21  37  56  90 124 154 194 246 299 355
#
# _framework density 17.948281999999999
#
# number of rings (size 3 to 8) (size 9 to 14) (size 15 to 20)
#    0.000    1.379    4.828    1.241    0.000    0.828 
#    1.241    3.448    0.000    4.966    0.000    0.000 
#    0.000    0.000    0.000    0.000    0.000    0.000 
#
# Total GULP energy -323097.066060 kJ/mol
# GULP energy per Si atom -5570.639070 kJ/mol
# Density = 1.790743 g / cm^3
# Si number density = 17.948282 Si / 1000 Ang^3
#
#
#
# Elastic Constant Matrix: (Units=GPa)
#
#
# Indices 1 2 3 4 5 6 
#
# 1 89.5118 30.2064 25.3980 0.0000 0.0000 0.0000
# 2 30.2064 92.6520 20.2629 0.0000 0.0000 0.0000
# 3 25.3980 20.2629 63.7861 0.0000 0.0000 0.0000
# 4 0.0000 0.0000 0.0000 10.7598 0.0000 0.0000
# 5 0.0000 0.0000 0.0000 0.0000 15.6831 0.0000
# 6 0.0000 0.0000 0.0000 0.0000 0.0000 25.9232
#
#
#
# Elastic Compliance Matrix: (Units=1/GPa)
#
#
# Indices 1 2 3 4 5 6 
#
# 1 0.013566 -0.003483 -0.004295 0.000000 0.000000 0.000000
# 2 -0.003483 0.012493 -0.002582 0.000000 0.000000 0.000000
# 3 -0.004295 -0.002582 0.018208 0.000000 0.000000 0.000000
# 4 0.000000 0.000000 0.000000 0.092938 0.000000 0.000000
# 5 0.000000 0.000000 0.000000 0.000000 0.063763 0.000000
# 6 0.000000 0.000000 0.000000 0.000000 0.000000 0.038575
#
#
# Mechanical properties :
#
#
# Convention : Reuss Voigt Hill
#
# Bulk Modulus (GPa) = 42.46902 44.18716 43.32809
# Shear Modulus (GPa) = 18.64887 21.81208 20.23047
#
# Velocity S-wave (km/s) = 3.22690 3.48986 3.36095
# Velocity P-wave (km/s) = 6.13165 6.39620 6.26532
#
# Compressibility (1/GPa) = 0.02354658
#
# Stress axis : x y z
#
# Youngs Moduli (GPa) = 73.71435 80.04250 54.92185
#
# Poissons Ratio (x) = 0.27882 0.23589
# Poissons Ratio (y) = 0.25678 0.14179
# Poissons Ratio (z) = 0.31660 0.20665
#
# Static dielectric constant tensor:
#      x y z
#    x 1.613970 0.000000 0.000000 
#    y 0.000000 1.629430 0.000000 
#    z 0.000000 0.000000 1.616490 
# 
# From -- ./inp_files/14854.got.cif
#   From: 2010.05.17/outbox.cif.g08.bks.cpg/sg67_8_cif.got.tgz:14854.got - 2010.06.03 18:28:57.
