data_PCOD9503553
_publ_section_title
;
Structure prediction by ZEFSAII (Michael W. Deem and Ramdas Pophale) SiO2 
 PCOD9503553
Probable space group: C M M A
;
_chemical_formula_sum "Si O2"
_cell_formula_units_Z 92
_cell_length_a 27.110381
_cell_length_b 20.865378
_cell_length_c 8.537224
_cell_angle_alpha 90.000000
_cell_angle_beta 90.000000
_cell_angle_gamma 90.000000
_cell_volume 4829.237391
_symmetry_space_group_name_H-M "C M M A"
_symmetry_group_IT_number 67
_symmetry_cell_setting 'orthorhombic'
loop_
_space_group_symop_operation_xyz
x,y,z
-x,1/2-y,z
x,-y,-z
-x,1/2+y,-z
-x,-y,-z
x,1/2+y,-z
-x,y,z
x,1/2-y,z
1/2+x,1/2+y,z
1/2-x,-y,z
1/2+x,1/2-y,-z
1/2-x,y,-z
1/2-x,1/2-y,-z
1/2+x,y,-z
1/2-x,1/2+y,z
1/2+x,-y,z
loop_
_atom_site_type_symbol
_atom_site_label
_atom_site_fract_x
_atom_site_fract_y
_atom_site_fract_z
Si Si1 0.579032 0.926045 0.502581
Si Si2 0.173703 0.432692 0.282523
Si Si3 0.400219 0.379126 0.146981
Si Si4 0.750000 0.000000 0.500000
Si Si5 0.692081 0.325413 0.965897
Si Si6 0.866464 0.000000 0.000000
Si Si7 0.500000 0.174923 0.009714
Si Si8 0.000000 0.329517 0.357951
O O1 0.625602 0.930301 0.388734
O O2 0.595920 0.905413 0.676804
O O3 0.545267 0.868028 0.438011
O O4 0.558235 0.000000 0.500000
O O5 0.217796 0.453962 0.391630
O O6 0.179777 0.367289 0.186652
O O7 0.166777 0.486953 0.150150
O O8 0.450305 0.342957 0.102713
O O9 0.348390 0.344538 0.099886
O O10 0.399824 0.439435 0.030718
O O11 0.686909 0.250000 0.937985
O O12 0.750000 0.338771 0.000000
O O13 0.500000 0.250000 0.995380
O O14 0.500000 0.153120 0.827632
O O15 0.000000 0.250000 0.376721
#
# Coordination Sequence:
#
# PCOD9503553 Si02
#       8
#    16  16  16   4  16   8   8   8
#     4  12  24  44  63 104 139 168 214 280 343 395
#     4  11  24  39  68  93 135 171 221 275 331 392
#     4  11  23  40  67  92 130 168 213 272 327 390
#     4  12  24  38  62 102 136 170 224 274 340 400
#     4  10  24  44  66  95 131 178 229 273 324 398
#     4  10  20  40  60  96 120 174 215 257 326 384
#     4  11  25  44  67  95 122 168 228 269 314 392
#     4  11  26  45  69  93 129 183 221 267 338 412
#
# _framework density 19.050628
#
# number of rings (size 3 to 8) (size 9 to 14) (size 15 to 20)
#    0.000    1.043    2.609    3.391    7.304    4.522 
#    0.000    0.435    0.000    0.000    0.000    0.000 
#    0.000    0.000    0.000    0.000    0.000    0.000 
#
# Total GULP energy -256506.897663 kJ/mol
# GULP energy per Si atom -5576.236906 kJ/mol
# Density = 1.900727 g / cm^3
# Si number density = 19.050628 Si / 1000 Ang^3
#
#
#
# Elastic Constant Matrix: (Units=GPa)
#
#
# Indices 1 2 3 4 5 6 
#
# 1 130.6295 46.2380 64.0282 0.0000 0.0000 0.0000
# 2 46.2380 96.1534 42.6506 0.0000 0.0000 0.0000
# 3 64.0282 42.6506 133.8011 0.0000 0.0000 0.0000
# 4 0.0000 0.0000 0.0000 107.5091 0.0000 0.0000
# 5 0.0000 0.0000 0.0000 0.0000 -6.4666 0.0000
# 6 0.0000 0.0000 0.0000 0.0000 0.0000 28.1579
#
#
#
# Elastic Compliance Matrix: (Units=1/GPa)
#
#
# Indices 1 2 3 4 5 6 
#
# 1 0.010880 -0.003404 -0.004122 0.000000 0.000000 0.000000
# 2 -0.003404 0.013178 -0.002572 0.000000 0.000000 0.000000
# 3 -0.004122 -0.002572 0.010266 0.000000 0.000000 0.000000
# 4 0.000000 0.000000 0.000000 0.009302 0.000000 0.000000
# 5 0.000000 0.000000 0.000000 0.000000 -0.154641 0.000000
# 6 0.000000 0.000000 0.000000 0.000000 0.000000 0.035514
#
#
# Mechanical properties :
#
#
# Convention : Reuss Voigt Hill
#
# Bulk Modulus (GPa) = 70.77364 74.04638 72.41001
# Shear Modulus (GPa) = -98.81921 39.68457 -29.56732
#
# Velocity S-wave (km/s) = -7.21003 4.56906 -3.94387
# Velocity P-wave (km/s) = 5.66407 8.17237 4.16569
#
# Compressibility (1/GPa) = 0.01412956
#
# Stress axis : x y z
#
# Youngs Moduli (GPa) = 91.90961 75.88636 97.41077
#
# Poissons Ratio (x) = 0.25831 0.40148
# Poissons Ratio (y) = 0.31285 0.25050
# Poissons Ratio (z) = 0.37881 0.19515
#
# Static dielectric constant tensor:
#      x y z
#    x 1.739130 0.000000 0.000000 
#    y 0.000000 1.670130 0.000000 
#    z 0.000000 0.000000 1.659630 
# 
# From -- ./inp_files/12534.got.cif
#   From: 2010.05.17/outbox.cif.g08.bks.cpg/sg67_7_cif.got.tgz:12534.got - 2010.06.03 18:28:57.
