data_PCOD9503431
_publ_section_title
;
Structure prediction by ZEFSAII (Michael W. Deem and Ramdas Pophale) SiO2 
 PCOD9503431
Probable space group: C M M A
;
_chemical_formula_sum "Si O2"
_cell_formula_units_Z 96
_cell_length_a 18.724872
_cell_length_b 29.180055
_cell_length_c 9.730693
_cell_angle_alpha 90.000000
_cell_angle_beta 90.000000
_cell_angle_gamma 90.000000
_cell_volume 5316.780544
_symmetry_space_group_name_H-M "C M M A"
_symmetry_group_IT_number 67
_symmetry_cell_setting 'orthorhombic'
loop_
_space_group_symop_operation_xyz
x,y,z
-x,1/2-y,z
x,-y,-z
-x,1/2+y,-z
-x,-y,-z
x,1/2+y,-z
-x,y,z
x,1/2-y,z
1/2+x,1/2+y,z
1/2-x,-y,z
1/2+x,1/2-y,-z
1/2-x,y,-z
1/2-x,1/2-y,-z
1/2+x,y,-z
1/2-x,1/2+y,z
1/2+x,-y,z
loop_
_atom_site_type_symbol
_atom_site_label
_atom_site_fract_x
_atom_site_fract_y
_atom_site_fract_z
Si Si1 0.581764 0.463272 0.613818
Si Si2 0.830105 0.876248 0.548389
Si Si3 0.917121 0.120313 0.731059
Si Si4 0.196295 0.803948 0.787653
Si Si5 0.417604 0.527853 0.874510
Si Si6 0.644118 0.303679 0.090344
O O1 0.605491 0.500000 0.500000
O O2 0.500000 0.449455 0.579730
O O3 0.632608 0.419923 0.617415
O O4 0.580218 0.491113 0.753626
O O5 0.750000 0.886543 0.500000
O O6 0.875594 0.868340 0.409298
O O7 0.825203 0.835137 0.658874
O O8 0.887599 0.074886 0.809733
O O9 0.909257 0.162543 0.834431
O O10 0.000000 0.111147 0.698862
O O11 0.187348 0.750000 0.755360
O O12 0.278909 0.810431 0.834390
O O13 0.153132 0.813992 0.928331
O O14 0.500000 0.539402 0.916348
O O15 0.382764 0.500000 0.000000
O O16 0.626080 0.250000 0.103422
#
# Coordination Sequence:
#
# PCOD9503431 Si02
#       6
#    16  16  16  16  16  16
#     4  10  20  38  58  78 114 156 189 230 293 356
#     4  12  23  36  57  90 119 154 197 243 289 352
#     4  11  22  38  59  88 122 156 198 246 297 350
#     4   9  20  39  62  85 114 153 196 239 295 363
#     4   9  19  36  57  81 109 151 198 234 282 353
#     4   9  19  39  62  85 114 152 195 243 299 358
#
# _framework density 18.056039999999999
#
# number of rings (size 3 to 8) (size 9 to 14) (size 15 to 20)
#    0.000    2.000    3.333    1.500    2.333    1.667 
#    0.000    0.833    0.000    4.500    0.000    0.000 
#    0.000    0.000    0.000    0.000    0.000    0.000 
#
# Total GULP energy -267561.582294 kJ/mol
# GULP energy per Si atom -5574.199631 kJ/mol
# Density = 1.801494 g / cm^3
# Si number density = 18.056040 Si / 1000 Ang^3
#
#
#
# Elastic Constant Matrix: (Units=GPa)
#
#
# Indices 1 2 3 4 5 6 
#
# 1 43.9384 33.8719 23.9856 0.0000 0.0000 0.0000
# 2 33.8719 103.7219 68.8452 0.0000 0.0000 0.0000
# 3 23.9856 68.8452 108.7611 0.0000 0.0000 0.0000
# 4 0.0000 0.0000 0.0000 36.1987 0.0000 0.0000
# 5 0.0000 0.0000 0.0000 0.0000 27.0958 0.0000
# 6 0.0000 0.0000 0.0000 0.0000 0.0000 37.9479
#
#
#
# Elastic Compliance Matrix: (Units=1/GPa)
#
#
# Indices 1 2 3 4 5 6 
#
# 1 0.030450 -0.009462 -0.000726 0.000000 0.000000 0.000000
# 2 -0.009462 0.019567 -0.010299 0.000000 0.000000 0.000000
# 3 -0.000726 -0.010299 0.015874 0.000000 0.000000 0.000000
# 4 0.000000 0.000000 0.000000 0.027625 0.000000 0.000000
# 5 0.000000 0.000000 0.000000 0.000000 0.036906 0.000000
# 6 0.000000 0.000000 0.000000 0.000000 0.000000 0.026352
#
#
# Mechanical properties :
#
#
# Convention : Reuss Voigt Hill
#
# Bulk Modulus (GPa) = 40.13391 56.64744 48.39067
# Shear Modulus (GPa) = 24.26553 28.89639 26.58096
#
# Velocity S-wave (km/s) = 3.66990 4.00481 3.84101
# Velocity P-wave (km/s) = 6.34297 7.26814 6.82126
#
# Compressibility (1/GPa) = 0.02491659
#
# Stress axis : x y z
#
# Youngs Moduli (GPa) = 32.84120 51.10589 62.99652
#
# Poissons Ratio (x) = 0.48356 0.04572
# Poissons Ratio (y) = 0.31074 0.64882
# Poissons Ratio (z) = 0.02384 0.52635
#
# Static dielectric constant tensor:
#      x y z
#    x 1.633450 0.000000 0.000000 
#    y 0.000000 1.607360 0.000000 
#    z 0.000000 0.000000 1.675040 
# 
# From -- ./inp_files/11430.got.cif
#   From: 2010.05.17/outbox.cif.g08.bks.cpg/sg67_6_cif.got.tgz:11430.got - 2010.06.03 18:28:57.
