data_PCOD9503110
_publ_section_title
;
Structure prediction by ZEFSAII (Michael W. Deem and Ramdas Pophale) SiO2 
 PCOD9503110
Probable space group: C M M A
;
_chemical_formula_sum "Si O2"
_cell_formula_units_Z 104
_cell_length_a 21.288123
_cell_length_b 8.548349
_cell_length_c 30.477207
_cell_angle_alpha 90.000000
_cell_angle_beta 90.000000
_cell_angle_gamma 90.000000
_cell_volume 5546.190470
_symmetry_space_group_name_H-M "C M M A"
_symmetry_group_IT_number 67
_symmetry_cell_setting 'orthorhombic'
loop_
_space_group_symop_operation_xyz
x,y,z
-x,1/2-y,z
x,-y,-z
-x,1/2+y,-z
-x,-y,-z
x,1/2+y,-z
-x,y,z
x,1/2-y,z
1/2+x,1/2+y,z
1/2-x,-y,z
1/2+x,1/2-y,-z
1/2-x,y,-z
1/2-x,1/2-y,-z
1/2+x,y,-z
1/2-x,1/2+y,z
1/2+x,-y,z
loop_
_atom_site_type_symbol
_atom_site_label
_atom_site_fract_x
_atom_site_fract_y
_atom_site_fract_z
Si Si1 0.426684 0.439996 0.887201
Si Si2 0.928668 0.937145 0.303813
Si Si3 0.000000 0.937713 0.549357
Si Si4 0.924066 0.071677 0.210397
Si Si5 0.818018 0.562944 0.049579
Si Si6 0.862402 0.561997 0.549538
Si Si7 0.814578 0.562990 0.363185
O O1 0.500000 0.486247 0.895147
O O2 0.425615 0.250000 0.887743
O O3 0.406775 0.489829 0.837782
O O4 0.376529 0.504700 0.921494
O O5 0.931593 0.750000 0.308490
O O6 0.875565 0.996843 0.336832
O O7 0.000000 0.998660 0.311488
O O8 0.908918 0.976519 0.253998
O O9 0.932416 0.989256 0.566115
O O10 0.000000 0.750000 0.549676
O O11 0.000000 0.000000 0.500000
O O12 0.901078 0.250000 0.215247
O O13 0.000000 0.077800 0.208848
O O14 0.816201 0.750000 0.048951
O O15 0.750000 0.500000 0.065602
O O16 0.825551 0.500000 0.000000
O O17 0.852531 0.500000 0.500000
O O18 0.859150 0.750000 0.548201
O O19 0.818340 0.494625 0.586727
O O20 0.814475 0.750000 0.362433
O O21 0.750000 0.500000 0.343262
#
# Coordination Sequence:
#
# PCOD9503110 Si02
#       7
#    16  16   8  16  16  16  16
#     4   9  18  34  56  83 115 147 183 230 280 330
#     4   9  19  36  58  83 109 140 179 222 268 320
#     4   8  16  30  50  78 108 134 164 206 252 298
#     4   8  15  30  54  83 112 142 176 219 271 324
#     4  11  22  37  56  77 107 148 193 237 284 336
#     4  10  20  36  57  82 110 141 177 216 262 314
#     4  11  24  40  57  79 110 145 180 221 269 318
#
# _framework density 18.751608999999998
#
# number of rings (size 3 to 8) (size 9 to 14) (size 15 to 20)
#    0.000    2.462    0.000    3.692    1.077    3.385 
#    0.000    3.846    0.000    1.846    0.000    0.000 
#    0.000    0.000    0.000    0.000    0.000    0.000 
#
# Total GULP energy -289806.210799 kJ/mol
# GULP energy per Si atom -5573.196362 kJ/mol
# Density = 1.870893 g / cm^3
# Si number density = 18.751609 Si / 1000 Ang^3
#
#
#
# Elastic Constant Matrix: (Units=GPa)
#
#
# Indices 1 2 3 4 5 6 
#
# 1 131.8282 33.1879 75.5760 0.0000 0.0000 0.0000
# 2 33.1879 44.2517 23.8567 0.0000 0.0000 0.0000
# 3 75.5760 23.8567 106.9095 0.0000 0.0000 0.0000
# 4 0.0000 0.0000 0.0000 26.7032 0.0000 0.0000
# 5 0.0000 0.0000 0.0000 0.0000 4.4656 0.0000
# 6 0.0000 0.0000 0.0000 0.0000 0.0000 23.3224
#
#
#
# Elastic Compliance Matrix: (Units=1/GPa)
#
#
# Indices 1 2 3 4 5 6 
#
# 1 0.013975 -0.005860 -0.008571 0.000000 0.000000 0.000000
# 2 -0.005860 0.028145 -0.002138 0.000000 0.000000 0.000000
# 3 -0.008571 -0.002138 0.015890 0.000000 0.000000 0.000000
# 4 0.000000 0.000000 0.000000 0.037449 0.000000 0.000000
# 5 0.000000 0.000000 0.000000 0.000000 0.223935 0.000000
# 6 0.000000 0.000000 0.000000 0.000000 0.000000 0.042877
#
#
# Mechanical properties :
#
#
# Convention : Reuss Voigt Hill
#
# Bulk Modulus (GPa) = 40.20669 60.91452 50.56060
# Shear Modulus (GPa) = 12.38544 20.92283 16.65413
#
# Velocity S-wave (km/s) = 2.57281 3.34397 2.98341
# Velocity P-wave (km/s) = 5.50582 6.88948 6.23614
#
# Compressibility (1/GPa) = 0.02487149
#
# Stress axis : x y z
#
# Youngs Moduli (GPa) = 71.55776 35.52969 62.93247
#
# Poissons Ratio (x) = 0.20820 0.53942
# Poissons Ratio (y) = 0.41932 0.13456
# Poissons Ratio (z) = 0.61335 0.07597
#
# Static dielectric constant tensor:
#      x y z
#    x 1.689310 0.000000 0.000000 
#    y 0.000000 1.642360 0.000000 
#    z 0.000000 0.000000 1.639790 
# 
# From -- ./inp_files/45859.got.cif
#   From: 2010.05.17/outbox.cif.g08.bks.cpg/sg67_23_cif.got.tgz:45859.got - 2010.06.03 18:28:57.
