data_PCOD9503602
_publ_section_title
;
Structure prediction by ZEFSAII (Michael W. Deem and Ramdas Pophale) SiO2 
 PCOD9503602
Probable space group: C M M A
;
_chemical_formula_sum "Si O2"
_cell_formula_units_Z 112
_cell_length_a 15.276453
_cell_length_b 14.807489
_cell_length_c 21.773477
_cell_angle_alpha 90.000000
_cell_angle_beta 90.000000
_cell_angle_gamma 90.000000
_cell_volume 4925.289173
_symmetry_space_group_name_H-M "C M M A"
_symmetry_group_IT_number 67
_symmetry_cell_setting 'orthorhombic'
loop_
_space_group_symop_operation_xyz
x,y,z
-x,1/2-y,z
x,-y,-z
-x,1/2+y,-z
-x,-y,-z
x,1/2+y,-z
-x,y,z
x,1/2-y,z
1/2+x,1/2+y,z
1/2-x,-y,z
1/2+x,1/2-y,-z
1/2-x,y,-z
1/2-x,1/2-y,-z
1/2+x,y,-z
1/2-x,1/2+y,z
1/2+x,-y,z
loop_
_atom_site_type_symbol
_atom_site_label
_atom_site_fract_x
_atom_site_fract_y
_atom_site_fract_z
Si Si1 0.602178 0.145923 0.511430
Si Si2 0.406404 0.639006 0.104718
Si Si3 0.149353 0.146401 0.975442
Si Si4 0.599527 0.408047 0.382526
Si Si5 0.765150 0.892679 0.285309
Si Si6 0.717986 0.641680 0.852036
Si Si7 0.400383 0.117723 0.647711
O O1 0.500000 0.119094 0.520074
O O2 0.606640 0.250000 0.491534
O O3 0.634023 0.090423 0.452767
O O4 0.637881 0.142015 0.580275
O O5 0.500000 0.612191 0.131899
O O6 0.403767 0.750000 0.103753
O O7 0.317849 0.608682 0.137849
O O8 0.400813 0.607211 0.033692
O O9 0.117825 0.250000 0.969155
O O10 0.156809 0.105549 0.907305
O O11 0.250000 0.149161 0.000000
O O12 0.500000 0.370877 0.383674
O O13 0.667214 0.361186 0.337199
O O14 0.593291 0.509579 0.357306
O O15 0.803395 0.874971 0.218237
O O16 0.668654 0.854359 0.300454
O O17 0.750000 0.000000 0.290233
O O18 0.719171 0.750000 0.861447
O O19 0.500000 0.151467 0.655601
#
# Coordination Sequence:
#
# PCOD9503602 Si02
#       7
#    16  16  16  16  16  16  16
#     4   9  17  30  50  75  98 118 146 192 246 286
#     4   8  13  23  43  71  97 119 148 186 227 275
#     4   7  11  22  40  60  83 112 144 177 213 256
#     4   9  18  34  52  66  87 123 162 195 228 273
#     4  10  21  34  48  68  93 126 165 194 223 273
#     4   9  17  29  45  66  93 123 153 188 232 276
#     4   9  18  33  51  69  91 121 156 192 231 279
#
# _framework density 22.739781000000001
#
# number of rings (size 3 to 8) (size 9 to 14) (size 15 to 20)
#    0.000    3.286    0.000    2.143    0.000    4.000 
#    0.000    3.571    0.000    4.714    0.000    1.000 
#    0.000    0.000    0.000    0.000    0.000    0.000 
#
# Total GULP energy -312022.759321 kJ/mol
# GULP energy per Si atom -5571.834988 kJ/mol
# Density = 2.268802 g / cm^3
# Si number density = 22.739781 Si / 1000 Ang^3
#
#
#
# Elastic Constant Matrix: (Units=GPa)
#
#
# Indices 1 2 3 4 5 6 
#
# 1 40.7081 1.9941 8.1376 0.0000 0.0000 0.0000
# 2 1.9941 39.1966 -14.1694 0.0000 0.0000 0.0000
# 3 8.1376 -14.1694 97.1907 0.0000 0.0000 0.0000
# 4 0.0000 0.0000 0.0000 23.5752 0.0000 0.0000
# 5 0.0000 0.0000 0.0000 0.0000 20.1633 0.0000
# 6 0.0000 0.0000 0.0000 0.0000 0.0000 -4.0077
#
#
#
# Elastic Compliance Matrix: (Units=1/GPa)
#
#
# Indices 1 2 3 4 5 6 
#
# 1 0.025154 -0.002155 -0.002420 0.000000 0.000000 0.000000
# 2 -0.002155 0.027116 0.004134 0.000000 0.000000 0.000000
# 3 -0.002420 0.004134 0.011094 0.000000 0.000000 0.000000
# 4 0.000000 0.000000 0.000000 0.042417 0.000000 0.000000
# 5 0.000000 0.000000 0.000000 0.000000 0.049595 0.000000
# 6 0.000000 0.000000 0.000000 0.000000 0.000000 -0.249522
#
#
# Mechanical properties :
#
#
# Convention : Reuss Voigt Hill
#
# Bulk Modulus (GPa) = 16.00444 18.78002 17.39223
# Shear Modulus (GPa) = -69.02802 20.02171 -24.50316
#
# Velocity S-wave (km/s) = -5.51557 2.97049 -3.28616
# Velocity P-wave (km/s) = 5.78867 4.47679 2.59490
#
# Compressibility (1/GPa) = 0.06248266
#
# Stress axis : x y z
#
# Youngs Moduli (GPa) = 39.75437 36.87814 90.13601
#
# Poissons Ratio (x) = 0.07946 0.21815
# Poissons Ratio (y) = 0.08566 -0.37259
# Poissons Ratio (z) = 0.09622 -0.15244
#
# Static dielectric constant tensor:
#      x y z
#    x 1.874870 0.000000 0.000000 
#    y 0.000000 1.891430 0.000000 
#    z 0.000000 0.000000 1.860340 
# 
# From -- ./inp_files/34407.got.cif
#   From: 2010.05.17/outbox.cif.g08.bks.cpg/sg67_18_cif.got.tgz:34407.got - 2010.06.03 18:28:57.
