data_PCOD9503172
_publ_section_title
;
Structure prediction by ZEFSAII (Michael W. Deem and Ramdas Pophale) SiO2 
 PCOD9503172
Probable space group: C M M A
;
_chemical_formula_sum "Si O2"
_cell_formula_units_Z 116
_cell_length_a 20.161042
_cell_length_b 25.341387
_cell_length_c 12.295417
_cell_angle_alpha 90.000000
_cell_angle_beta 90.000000
_cell_angle_gamma 90.000000
_cell_volume 6281.836347
_symmetry_space_group_name_H-M "C M M A"
_symmetry_group_IT_number 67
_symmetry_cell_setting 'orthorhombic'
loop_
_space_group_symop_operation_xyz
x,y,z
-x,1/2-y,z
x,-y,-z
-x,1/2+y,-z
-x,-y,-z
x,1/2+y,-z
-x,y,z
x,1/2-y,z
1/2+x,1/2+y,z
1/2-x,-y,z
1/2+x,1/2-y,-z
1/2-x,y,-z
1/2-x,1/2-y,-z
1/2+x,y,-z
1/2-x,1/2+y,z
1/2+x,-y,z
loop_
_atom_site_type_symbol
_atom_site_label
_atom_site_fract_x
_atom_site_fract_y
_atom_site_fract_z
Si Si1 0.000000 0.250000 0.684107
Si Si2 0.614354 0.665062 0.643373
Si Si3 0.077404 0.053130 0.728164
Si Si4 0.576272 0.062895 0.019164
Si Si5 0.705602 0.090914 0.901463
Si Si6 0.813222 0.032763 0.324922
Si Si7 0.681716 0.643891 0.432184
Si Si8 0.749248 0.189084 0.771395
O O1 0.942278 0.295831 0.680482
O O2 0.592968 0.604695 0.658925
O O3 0.630905 0.670368 0.515437
O O4 0.680235 0.675733 0.714949
O O5 0.090874 0.069705 0.853319
O O6 0.000000 0.038113 0.721731
O O7 0.125437 0.006157 0.692991
O O8 0.500000 0.078617 0.997110
O O9 0.630299 0.091295 0.944795
O O10 0.581412 0.000000 0.000000
O O11 0.708426 0.055925 0.792801
O O12 0.733440 0.147915 0.866637
O O13 0.750000 0.069289 0.000000
O O14 0.832159 0.083639 0.396606
O O15 0.750000 0.000000 0.367907
O O16 0.750000 0.641809 0.500000
O O17 0.695617 0.677010 0.323564
O O18 0.747936 0.250000 0.803782
#
# Coordination Sequence:
#
# PCOD9503172 Si02
#       8
#     4  16  16  16  16  16  16  16
#     4  12  24  40  66  82 116 154 200 258 298 348
#     4  11  22  41  60  87 113 151 199 247 300 346
#     4  11  22  37  57  86 120 152 194 237 293 358
#     4  10  20  36  59  81 116 164 197 232 292 359
#     4  11  22  35  57  92 120 151 205 254 289 343
#     4  11  21  35  56  85 122 156 189 234 291 356
#     4   9  21  37  59  85 112 151 194 236 292 355
#     4  10  21  38  63  85 115 154 196 250 306 349
#
# _framework density 18.465938000000001
#
# number of rings (size 3 to 8) (size 9 to 14) (size 15 to 20)
#    0.000    1.517    2.759    4.138    0.966    3.034 
#    1.241    0.690    1.517    0.414    0.000    0.000 
#    0.000    0.000    0.000    0.000    0.000    0.000 
#
# Total GULP energy -323425.387203 kJ/mol
# GULP energy per Si atom -5576.299779 kJ/mol
# Density = 1.842391 g / cm^3
# Si number density = 18.465938 Si / 1000 Ang^3
#
#
#
# Elastic Constant Matrix: (Units=GPa)
#
#
# Indices 1 2 3 4 5 6 
#
# 1 80.5982 28.4632 14.9904 0.0000 0.0000 0.0000
# 2 28.4632 78.6302 -8.9142 0.0000 0.0000 0.0000
# 3 14.9904 -8.9142 39.1217 0.0000 0.0000 0.0000
# 4 0.0000 0.0000 0.0000 6.8801 0.0000 0.0000
# 5 0.0000 0.0000 0.0000 0.0000 2.2486 0.0000
# 6 0.0000 0.0000 0.0000 0.0000 0.0000 44.0471
#
#
#
# Elastic Compliance Matrix: (Units=1/GPa)
#
#
# Indices 1 2 3 4 5 6 
#
# 1 0.016237 -0.006758 -0.007761 0.000000 0.000000 0.000000
# 2 -0.006758 0.015867 0.006205 0.000000 0.000000 0.000000
# 3 -0.007761 0.006205 0.029949 0.000000 0.000000 0.000000
# 4 0.000000 0.000000 0.000000 0.145346 0.000000 0.000000
# 5 0.000000 0.000000 0.000000 0.000000 0.444729 0.000000
# 6 0.000000 0.000000 0.000000 0.000000 0.000000 0.022703
#
#
# Mechanical properties :
#
#
# Convention : Reuss Voigt Hill
#
# Bulk Modulus (GPa) = 22.01416 29.71432 25.86424
# Shear Modulus (GPa) = 7.07612 21.55587 14.31599
#
# Velocity S-wave (km/s) = 1.95967 3.42033 2.78738
# Velocity P-wave (km/s) = 4.13132 5.63246 4.93925
#
# Compressibility (1/GPa) = 0.04542530
#
# Stress axis : x y z
#
# Youngs Moduli (GPa) = 61.58695 63.02238 33.39001
#
# Poissons Ratio (x) = 0.42588 0.25915
# Poissons Ratio (y) = 0.41618 -0.20718
# Poissons Ratio (z) = 0.47800 -0.39104
#
# Static dielectric constant tensor:
#      x y z
#    x 1.637240 0.000000 0.000000 
#    y 0.000000 1.626540 0.000000 
#    z 0.000000 0.000000 1.670630 
# 
# From -- ./inp_files/19978.got.cif
#   From: 2010.05.17/outbox.cif.g08.bks.cpg/sg67_10_cif.got.tgz:19978.got - 2010.06.03 18:28:57.
