data_PCOD9503963
_publ_section_title
;
Structure prediction by ZEFSAII (Michael W. Deem and Ramdas Pophale) SiO2 
 PCOD9503963
Probable space group: C M M A
;
_chemical_formula_sum "Si O2"
_cell_formula_units_Z 116
_cell_length_a 15.239697
_cell_length_b 19.394211
_cell_length_c 18.108232
_cell_angle_alpha 90.000000
_cell_angle_beta 90.000000
_cell_angle_gamma 90.000000
_cell_volume 5352.103441
_symmetry_space_group_name_H-M "C M M A"
_symmetry_group_IT_number 67
_symmetry_cell_setting 'orthorhombic'
loop_
_space_group_symop_operation_xyz
x,y,z
-x,1/2-y,z
x,-y,-z
-x,1/2+y,-z
-x,-y,-z
x,1/2+y,-z
-x,y,z
x,1/2-y,z
1/2+x,1/2+y,z
1/2-x,-y,z
1/2+x,1/2-y,-z
1/2-x,y,-z
1/2-x,1/2-y,-z
1/2+x,y,-z
1/2-x,1/2+y,z
1/2+x,-y,z
loop_
_atom_site_type_symbol
_atom_site_label
_atom_site_fract_x
_atom_site_fract_y
_atom_site_fract_z
Si Si1 0.894059 0.908799 0.869060
Si Si2 0.500000 0.250000 0.321398
Si Si3 0.607554 0.670836 0.983936
Si Si4 0.604333 0.673386 0.437006
Si Si5 0.394699 0.934834 0.858709
Si Si6 0.145181 0.871045 0.300253
Si Si7 0.606791 0.936476 0.552343
Si Si8 0.842261 0.830049 0.721292
O O1 0.864980 0.863142 0.938722
O O2 0.868441 0.873643 0.792335
O O3 0.000000 0.910812 0.872195
O O4 0.861575 0.987670 0.872440
O O5 0.575628 0.311312 0.318828
O O6 0.500000 0.671862 0.982673
O O7 0.636384 0.750000 0.976132
O O8 0.637777 0.621661 0.917414
O O9 0.500000 0.678338 0.448287
O O10 0.642797 0.750000 0.436579
O O11 0.636906 0.629302 0.504948
O O12 0.617427 0.642830 0.355626
O O13 0.500000 0.937552 0.868196
O O14 0.377039 0.908643 0.776442
O O15 0.144523 0.926930 0.366301
O O16 0.238979 0.836205 0.290195
O O17 0.500000 0.937886 0.559081
O O18 0.631427 0.000000 0.500000
O O19 0.869822 0.750000 0.730940
#
# Coordination Sequence:
#
# PCOD9503963 Si02
#       8
#    16   4  16  16  16  16  16  16
#     4  10  21  39  63  91 133 180 219 264 325 389
#     4  12  24  44  70  94 126 172 220 272 328 392
#     4   9  18  33  61  96 128 168 223 275 318 379
#     4   9  20  38  62  88 119 162 206 256 318 383
#     4  10  21  37  62  93 129 170 219 265 321 388
#     4  12  25  41  67  94 126 167 215 271 327 385
#     4  10  22  40  64  92 124 160 211 264 322 391
#     4  11  24  40  61  93 127 165 217 271 318 380
#
# _framework density 21.673721
#
# number of rings (size 3 to 8) (size 9 to 14) (size 15 to 20)
#    0.000    1.793    2.069    1.241    3.862    4.138 
#    0.000    2.759    0.000    3.310    0.000    0.000 
#    0.000    0.000    0.000    0.000    0.000    0.000 
#
# Total GULP energy -323640.859026 kJ/mol
# GULP energy per Si atom -5580.014811 kJ/mol
# Density = 2.162439 g / cm^3
# Si number density = 21.673721 Si / 1000 Ang^3
#
#
#
# Elastic Constant Matrix: (Units=GPa)
#
#
# Indices 1 2 3 4 5 6 
#
# 1 32.8455 12.5329 4.9452 0.0000 0.0000 0.0000
# 2 12.5329 43.9160 3.4730 0.0000 0.0000 0.0000
# 3 4.9452 3.4730 101.1928 0.0000 0.0000 0.0000
# 4 0.0000 0.0000 0.0000 7.8807 0.0000 0.0000
# 5 0.0000 0.0000 0.0000 0.0000 413.8903 0.0000
# 6 0.0000 0.0000 0.0000 0.0000 0.0000 10.9551
#
#
#
# Elastic Compliance Matrix: (Units=1/GPa)
#
#
# Indices 1 2 3 4 5 6 
#
# 1 0.034348 -0.009696 -0.001346 0.000000 0.000000 0.000000
# 2 -0.009696 0.025570 -0.000404 0.000000 0.000000 0.000000
# 3 -0.001346 -0.000404 0.009962 0.000000 0.000000 0.000000
# 4 0.000000 0.000000 0.000000 0.126892 0.000000 0.000000
# 5 0.000000 0.000000 0.000000 0.000000 0.002416 0.000000
# 6 0.000000 0.000000 0.000000 0.000000 0.000000 0.091282
#
#
# Mechanical properties :
#
#
# Convention : Reuss Voigt Hill
#
# Bulk Modulus (GPa) = 21.28181 24.42851 22.85516
# Shear Modulus (GPa) = 15.19649 97.01209 56.10429
#
# Velocity S-wave (km/s) = 2.65079 6.69757 5.09333
# Velocity P-wave (km/s) = 4.38286 8.43240 6.71993
#
# Compressibility (1/GPa) = 0.04698849
#
# Stress axis : x y z
#
# Youngs Moduli (GPa) = 29.11392 39.10879 100.38402
#
# Poissons Ratio (x) = 0.37919 0.13509
# Poissons Ratio (y) = 0.28229 0.04053
# Poissons Ratio (z) = 0.03918 0.01579
#
# Static dielectric constant tensor:
#      x y z
#    x 1.789960 0.000000 0.000000 
#    y 0.000000 1.813280 0.000000 
#    z 0.000000 0.000000 1.751210 
# 
# From -- ./inp_files/34356.got.cif
#   From: 2010.05.17/outbox.cif.g08.bks.cpg/sg67_18_cif.got.tgz:34356.got - 2010.06.03 18:28:57.
