data_PCOD9503972
_publ_section_title
;
Structure prediction by ZEFSAII (Michael W. Deem and Ramdas Pophale) SiO2 
 PCOD9503972
Probable space group: C M M A
;
_chemical_formula_sum "Si O2"
_cell_formula_units_Z 72
_cell_length_a 15.358611
_cell_length_b 8.834322
_cell_length_c 26.277123
_cell_angle_alpha 90.000000
_cell_angle_beta 90.000000
_cell_angle_gamma 90.000000
_cell_volume 3565.356648
_symmetry_space_group_name_H-M "C M M A"
_symmetry_group_IT_number 67
_symmetry_cell_setting 'orthorhombic'
loop_
_space_group_symop_operation_xyz
x,y,z
-x,1/2-y,z
x,-y,-z
-x,1/2+y,-z
-x,-y,-z
x,1/2+y,-z
-x,y,z
x,1/2-y,z
1/2+x,1/2+y,z
1/2-x,-y,z
1/2+x,1/2-y,-z
1/2-x,y,-z
1/2-x,1/2-y,-z
1/2+x,y,-z
1/2-x,1/2+y,z
1/2+x,-y,z
loop_
_atom_site_type_symbol
_atom_site_label
_atom_site_fract_x
_atom_site_fract_y
_atom_site_fract_z
Si Si1 0.603217 0.419131 0.550268
Si Si2 0.000000 0.933408 0.943797
Si Si3 0.347685 0.068548 0.755907
Si Si4 0.153502 0.932023 0.869000
Si Si5 0.153267 0.069979 0.654169
O O1 0.639904 0.500000 0.500000
O O2 0.500000 0.403490 0.542004
O O3 0.640455 0.250000 0.557236
O O4 0.613475 0.515781 0.601210
O O5 0.914550 0.980696 0.911902
O O6 0.000000 0.750000 0.946004
O O7 0.000000 0.000000 0.000000
O O8 0.344583 0.250000 0.749930
O O9 0.382841 0.032699 0.812200
O O10 0.250000 0.000000 0.757757
O O11 0.389630 0.997100 0.705533
O O12 0.161608 0.750000 0.871068
O O13 0.250000 0.000000 0.875039
O O14 0.155846 0.250000 0.657480
O O15 0.250000 0.000000 0.653149
#
# Coordination Sequence:
#
# PCOD9503972 Si02
#       5
#    16   8  16  16  16
#     4  10  21  38  57  76 102 138 179 223 274 331
#     4  10  22  40  58  84 118 154 193 240 285 338
#     4   9  16  30  52  78 106 140 178 220 272 329
#     4   9  19  36  59  83 114 152 194 236 288 344
#     4  11  21  34  54  80 111 141 177 224 273 328
#
# _framework density 20.194333
#
# number of rings (size 3 to 8) (size 9 to 14) (size 15 to 20)
#    0.000    2.222    0.000    4.667    0.000    4.000 
#    2.000    4.444    0.000    0.000    0.000    0.000 
#    0.000    0.000    0.000    0.000    0.000    0.000 
#
# Total GULP energy -200849.536753 kJ/mol
# GULP energy per Si atom -5579.153799 kJ/mol
# Density = 2.014837 g / cm^3
# Si number density = 20.194333 Si / 1000 Ang^3
#
#
#
# Elastic Constant Matrix: (Units=GPa)
#
#
# Indices 1 2 3 4 5 6 
#
# 1 59.6582 23.3908 52.4579 0.0000 0.0000 0.0000
# 2 23.3908 119.8872 78.8169 0.0000 0.0000 0.0000
# 3 52.4579 78.8169 219.6356 0.0000 0.0000 0.0000
# 4 0.0000 0.0000 0.0000 366.0399 0.0000 0.0000
# 5 0.0000 0.0000 0.0000 0.0000 10.0287 0.0000
# 6 0.0000 0.0000 0.0000 0.0000 0.0000 17.4744
#
#
#
# Elastic Compliance Matrix: (Units=1/GPa)
#
#
# Indices 1 2 3 4 5 6 
#
# 1 0.021321 -0.001063 -0.004711 0.000000 0.000000 0.000000
# 2 -0.001063 0.010970 -0.003683 0.000000 0.000000 0.000000
# 3 -0.004711 -0.003683 0.007000 0.000000 0.000000 0.000000
# 4 0.000000 0.000000 0.000000 0.002732 0.000000 0.000000
# 5 0.000000 0.000000 0.000000 0.000000 0.099714 0.000000
# 6 0.000000 0.000000 0.000000 0.000000 0.000000 0.057227
#
#
# Mechanical properties :
#
#
# Convention : Reuss Voigt Hill
#
# Bulk Modulus (GPa) = 49.07321 78.72359 63.89840
# Shear Modulus (GPa) = 22.25503 95.00961 58.63232
#
# Velocity S-wave (km/s) = 3.32331 6.86657 5.39417
# Velocity P-wave (km/s) = 6.25132 10.09624 8.39682
#
# Compressibility (1/GPa) = 0.02037772
#
# Stress axis : x y z
#
# Youngs Moduli (GPa) = 46.90147 91.16114 142.86325
#
# Poissons Ratio (x) = 0.09689 0.67303
# Poissons Ratio (y) = 0.04985 0.52611
# Poissons Ratio (z) = 0.22095 0.33571
#
# Static dielectric constant tensor:
#      x y z
#    x 1.744440 0.000000 0.000000 
#    y 0.000000 1.715930 0.000000 
#    z 0.000000 0.000000 1.753690 
# 
# From -- ./inp_files/40528.got.cif
#   From: 2010.05.17/outbox.cif.g08.bks.cpg/sg67_21_cif.got.tgz:40528.got - 2010.06.03 18:28:57.
