data_PCOD9503257
_publ_section_title
;
Structure prediction by ZEFSAII (Michael W. Deem and Ramdas Pophale) SiO2 
 PCOD9503257
Probable space group: C M M A
;
_chemical_formula_sum "Si O2"
_cell_formula_units_Z 68
_cell_length_a 22.661767
_cell_length_b 14.461740
_cell_length_c 8.389922
_cell_angle_alpha 90.000000
_cell_angle_beta 90.000000
_cell_angle_gamma 90.000000
_cell_volume 2749.617243
_symmetry_space_group_name_H-M "C M M A"
_symmetry_group_IT_number 67
_symmetry_cell_setting 'orthorhombic'
loop_
_space_group_symop_operation_xyz
x,y,z
-x,1/2-y,z
x,-y,-z
-x,1/2+y,-z
-x,-y,-z
x,1/2+y,-z
-x,y,z
x,1/2-y,z
1/2+x,1/2+y,z
1/2-x,-y,z
1/2+x,1/2-y,-z
1/2-x,y,-z
1/2-x,1/2-y,-z
1/2+x,y,-z
1/2-x,1/2+y,z
1/2+x,-y,z
loop_
_atom_site_type_symbol
_atom_site_label
_atom_site_fract_x
_atom_site_fract_y
_atom_site_fract_z
Si Si1 0.371125 0.637736 0.406940
Si Si2 0.621238 0.356251 0.249944
Si Si3 0.250000 0.750000 0.000000
Si Si4 0.431155 0.862875 0.079695
Si Si5 0.758092 0.604960 0.764942
O O1 0.373637 0.750000 0.413225
O O2 0.394567 0.602869 0.577500
O O3 0.302756 0.610429 0.381868
O O4 0.403856 0.605141 0.247636
O O5 0.599823 0.250000 0.249245
O O6 0.598698 0.397521 0.084486
O O7 0.692773 0.353047 0.252614
O O8 0.214518 0.830569 0.900934
O O9 0.500000 0.885956 0.074538
O O10 0.426381 0.750000 0.081656
O O11 0.750000 0.500000 0.810886
#
# Coordination Sequence:
#
# PCOD9503257 Si02
#       5
#    16  16   4  16  16
#     4  10  20  36  61  90 127 171 210 262 324 378
#     4  10  20  36  61  90 127 171 210 262 324 378
#     4  12  22  40  58  90 138 166 206 260 302 376
#     4   9  19  35  57  87 123 164 218 272 316 377
#     4  12  24  38  64  96 130 173 212 255 319 387
#
# _framework density 24.730715
#
# number of rings (size 3 to 8) (size 9 to 14) (size 15 to 20)
#    0.000    1.647    2.353    2.471    3.294    4.706 
#    0.000    4.706    0.000    2.824    0.000    3.294 
#    0.000    0.000    0.000    0.000    0.000    0.000 
#
# Total GULP energy -189674.441205 kJ/mol
# GULP energy per Si atom -5578.660035 kJ/mol
# Density = 2.467443 g / cm^3
# Si number density = 24.730715 Si / 1000 Ang^3
#
#
#
# Elastic Constant Matrix: (Units=GPa)
#
#
# Indices 1 2 3 4 5 6 
#
# 1 114.8561 -15.4345 94.7218 0.0000 0.0000 0.0000
# 2 -15.4345 124.4665 32.7133 0.0000 0.0000 0.0000
# 3 94.7218 32.7133 269.8372 0.0000 0.0000 0.0000
# 4 0.0000 0.0000 0.0000 18.9523 0.0000 0.0000
# 5 0.0000 0.0000 0.0000 0.0000 24.2881 0.0000
# 6 0.0000 0.0000 0.0000 0.0000 0.0000 30.3789
#
#
#
# Elastic Compliance Matrix: (Units=1/GPa)
#
#
# Indices 1 2 3 4 5 6 
#
# 1 0.013229 0.002955 -0.005002 0.000000 0.000000 0.000000
# 2 0.002955 0.008959 -0.002123 0.000000 0.000000 0.000000
# 3 -0.005002 -0.002123 0.005719 0.000000 0.000000 0.000000
# 4 0.000000 0.000000 0.000000 0.052764 0.000000 0.000000
# 5 0.000000 0.000000 0.000000 0.000000 0.041172 0.000000
# 6 0.000000 0.000000 0.000000 0.000000 0.000000 0.032918
#
#
# Mechanical properties :
#
#
# Convention : Reuss Voigt Hill
#
# Bulk Modulus (GPa) = 51.10853 81.46232 66.28543
# Shear Modulus (GPa) = 29.47701 41.20115 35.33908
#
# Velocity S-wave (km/s) = 3.45616 4.08608 3.78425
# Velocity P-wave (km/s) = 6.05290 7.43456 6.77902
#
# Compressibility (1/GPa) = 0.01956620
#
# Stress axis : x y z
#
# Youngs Moduli (GPa) = 75.59256 111.62151 174.84830
#
# Poissons Ratio (x) = -0.32985 0.87459
# Poissons Ratio (y) = -0.22338 0.37128
# Poissons Ratio (z) = 0.37811 0.23702
#
# Static dielectric constant tensor:
#      x y z
#    x 1.995570 0.000000 0.000000 
#    y 0.000000 1.872200 0.000000 
#    z 0.000000 0.000000 2.151730 
# 
# From -- ./inp_files/10778.got.cif
#   From: 2010.05.17/outbox.cif.g08.bks.cpg/sg67_6_cif.got.tgz:10778.got - 2010.06.03 18:28:57.
