data_PCOD9503416
_publ_section_title
;
Structure prediction by ZEFSAII (Michael W. Deem and Ramdas Pophale) SiO2 
 PCOD9503416
Probable space group: C M M A
;
_chemical_formula_sum "Si O2"
_cell_formula_units_Z 96
_cell_length_a 14.392138
_cell_length_b 15.518833
_cell_length_c 21.564012
_cell_angle_alpha 90.000000
_cell_angle_beta 90.000000
_cell_angle_gamma 90.000000
_cell_volume 4816.304530
_symmetry_space_group_name_H-M "C M M A"
_symmetry_group_IT_number 67
_symmetry_cell_setting 'orthorhombic'
loop_
_space_group_symop_operation_xyz
x,y,z
-x,1/2-y,z
x,-y,-z
-x,1/2+y,-z
-x,-y,-z
x,1/2+y,-z
-x,y,z
x,1/2-y,z
1/2+x,1/2+y,z
1/2-x,-y,z
1/2+x,1/2-y,-z
1/2-x,y,-z
1/2-x,1/2-y,-z
1/2+x,y,-z
1/2-x,1/2+y,z
1/2+x,-y,z
loop_
_atom_site_type_symbol
_atom_site_label
_atom_site_fract_x
_atom_site_fract_y
_atom_site_fract_z
Si Si1 0.776037 0.597634 0.402407
Si Si2 0.903188 0.750000 0.860423
Si Si3 0.265286 0.846880 0.730028
Si Si4 0.104977 0.350931 0.483159
Si Si5 0.397374 0.432883 0.791538
Si Si6 0.889831 0.887104 0.151876
Si Si7 0.711123 0.750000 0.930221
O O1 0.750000 0.500000 0.391065
O O2 0.806444 0.639109 0.337953
O O3 0.852099 0.602850 0.456732
O O4 0.680971 0.639313 0.428955
O O5 0.903751 0.839484 0.823216
O O6 0.806881 0.750000 0.893860
O O7 0.000000 0.750000 0.898426
O O8 0.225701 0.750000 0.731914
O O9 0.184774 0.917360 0.742873
O O10 0.339309 0.854421 0.785511
O O11 0.101994 0.250000 0.498882
O O12 0.000000 0.379286 0.467805
O O13 0.500000 0.453316 0.764934
O O14 0.376419 0.509011 0.841036
O O15 0.845186 0.834501 0.094402
O O16 0.000000 0.870606 0.152351
O O17 0.750000 0.750000 0.000000
#
# Coordination Sequence:
#
# PCOD9503416 Si02
#       7
#    16   8  16  16  16  16   8
#     4  11  23  37  58  89 122 162 212 268 322 388
#     4  10  20  39  62  91 124 162 209 251 309 364
#     4  12  22  38  64  92 128 168 214 265 328 387
#     4  10  21  40  61  82 117 163 212 267 327 389
#     4  10  20  37  64  92 126 167 208 263 318 380
#     4  11  23  41  65  95 131 167 211 262 318 380
#     4  12  25  43  68  95 127 174 212 258 315 376
#
# _framework density 19.932293999999999
#
# number of rings (size 3 to 8) (size 9 to 14) (size 15 to 20)
#    0.000    1.167    3.333    4.750    0.000    3.333 
#    0.000    1.667    0.000    3.000    0.000    0.000 
#    0.000    0.000    0.000    0.000    0.000    0.000 
#
# Total GULP energy -267630.910590 kJ/mol
# GULP energy per Si atom -5575.643971 kJ/mol
# Density = 1.988693 g / cm^3
# Si number density = 19.932294 Si / 1000 Ang^3
#
#
#
# Elastic Constant Matrix: (Units=GPa)
#
#
# Indices 1 2 3 4 5 6 
#
# 1 90.3346 5.4444 20.9523 0.0000 0.0000 0.0000
# 2 5.4444 117.6999 26.1138 0.0000 0.0000 0.0000
# 3 20.9523 26.1138 95.8360 0.0000 0.0000 0.0000
# 4 0.0000 0.0000 0.0000 20.1309 0.0000 0.0000
# 5 0.0000 0.0000 0.0000 0.0000 8.0499 0.0000
# 6 0.0000 0.0000 0.0000 0.0000 0.0000 27.7141
#
#
#
# Elastic Compliance Matrix: (Units=1/GPa)
#
#
# Indices 1 2 3 4 5 6 
#
# 1 0.011661 0.000028 -0.002557 0.000000 0.000000 0.000000
# 2 0.000028 0.009043 -0.002470 0.000000 0.000000 0.000000
# 3 -0.002557 -0.002470 0.011667 0.000000 0.000000 0.000000
# 4 0.000000 0.000000 0.000000 0.049675 0.000000 0.000000
# 5 0.000000 0.000000 0.000000 0.000000 0.124225 0.000000
# 6 0.000000 0.000000 0.000000 0.000000 0.000000 0.036083
#
#
# Mechanical properties :
#
#
# Convention : Reuss Voigt Hill
#
# Bulk Modulus (GPa) = 44.69821 45.43238 45.06529
# Shear Modulus (GPa) = 19.24486 27.93630 23.59058
#
# Velocity S-wave (km/s) = 3.11064 3.74780 3.44399
# Velocity P-wave (km/s) = 5.94770 6.44755 6.20266
#
# Compressibility (1/GPa) = 0.02237226
#
# Stress axis : x y z
#
# Youngs Moduli (GPa) = 85.75327 110.58350 85.71461
#
# Poissons Ratio (x) = -0.00309 0.21918
# Poissons Ratio (y) = -0.00239 0.21173
# Poissons Ratio (z) = 0.21928 0.27316
#
# Static dielectric constant tensor:
#      x y z
#    x 1.777040 0.000000 0.000000 
#    y 0.000000 1.767260 0.000000 
#    z 0.000000 0.000000 1.723040 
# 
# From -- ./inp_files/38548.got.cif
#   From: 2010.05.17/outbox.cif.g08.bks.cpg/sg67_20_cif.got.tgz:38548.got - 2010.06.03 18:28:57.
