data_PCOD9503775
_publ_section_title
;
Structure prediction by ZEFSAII (Michael W. Deem and Ramdas Pophale) SiO2 
 PCOD9503775
Probable space group: C M M A
;
_chemical_formula_sum "Si O2"
_cell_formula_units_Z 96
_cell_length_a 8.798974
_cell_length_b 29.160345
_cell_length_c 20.932393
_cell_angle_alpha 90.000000
_cell_angle_beta 90.000000
_cell_angle_gamma 90.000000
_cell_volume 5370.856788
_symmetry_space_group_name_H-M "C M M A"
_symmetry_group_IT_number 67
_symmetry_cell_setting 'orthorhombic'
loop_
_space_group_symop_operation_xyz
x,y,z
-x,1/2-y,z
x,-y,-z
-x,1/2+y,-z
-x,-y,-z
x,1/2+y,-z
-x,y,z
x,1/2-y,z
1/2+x,1/2+y,z
1/2-x,-y,z
1/2+x,1/2-y,-z
1/2-x,y,-z
1/2-x,1/2-y,-z
1/2+x,y,-z
1/2-x,1/2+y,z
1/2+x,-y,z
loop_
_atom_site_type_symbol
_atom_site_label
_atom_site_fract_x
_atom_site_fract_y
_atom_site_fract_z
Si Si1 0.180391 0.802357 0.608853
Si Si2 0.818044 0.050311 0.931906
Si Si3 0.319326 0.301972 0.762115
Si Si4 0.818498 0.050826 0.312968
Si Si5 0.180653 0.894130 0.194635
Si Si6 0.819840 0.895292 0.433061
O O1 0.218608 0.750000 0.590587
O O2 0.202986 0.806525 0.685498
O O3 0.276373 0.841817 0.575822
O O4 0.000000 0.809512 0.596679
O O5 0.781347 0.084423 0.874103
O O6 0.000000 0.046467 0.937225
O O7 0.750000 0.000000 0.917749
O O8 0.750000 0.065017 0.000000
O O9 0.500000 0.307404 0.773127
O O10 0.276081 0.250000 0.779763
O O11 0.229209 0.341480 0.797847
O O12 0.766198 0.077867 0.249872
O O13 0.754505 0.077726 0.374236
O O14 0.000000 0.049173 0.315869
O O15 0.750000 0.000000 0.311429
O O16 0.000000 0.898911 0.204610
O O17 0.750000 0.911340 0.500000
O O18 0.000000 0.901141 0.432414
#
# Coordination Sequence:
#
# PCOD9503775 Si02
#       6
#    16  16  16  16  16  16
#     4   9  18  35  58  84 114 147 186 232 284 340
#     4  10  21  36  56  84 119 155 194 233 279 334
#     4   9  18  33  56  85 116 151 189 231 282 337
#     4  12  25  42  62  85 113 146 188 236 284 337
#     4  11  22  36  58  90 120 151 190 234 283 336
#     4  12  25  41  60  83 112 148 190 234 287 344
#
# _framework density 17.874243
#
# number of rings (size 3 to 8) (size 9 to 14) (size 15 to 20)
#    0.000    1.500    1.667    6.000    0.000    5.333 
#    0.000    3.333    0.000    0.500    0.000    0.000 
#    0.000    0.000    0.000    0.000    0.000    0.000 
#
# Total GULP energy -268312.103814 kJ/mol
# GULP energy per Si atom -5589.835496 kJ/mol
# Density = 1.783356 g / cm^3
# Si number density = 17.874243 Si / 1000 Ang^3
#
#
#
# Elastic Constant Matrix: (Units=GPa)
#
#
# Indices 1 2 3 4 5 6 
#
# 1 116.1714 62.2101 69.6624 0.0000 0.0000 0.0000
# 2 62.2101 106.5441 63.8020 0.0000 0.0000 0.0000
# 3 69.6624 63.8020 114.2750 0.0000 0.0000 0.0000
# 4 0.0000 0.0000 0.0000 91.9914 0.0000 0.0000
# 5 0.0000 0.0000 0.0000 0.0000 29.0516 0.0000
# 6 0.0000 0.0000 0.0000 0.0000 0.0000 31.2442
#
#
#
# Elastic Compliance Matrix: (Units=1/GPa)
#
#
# Indices 1 2 3 4 5 6 
#
# 1 0.015142 -0.004978 -0.006451 0.000000 0.000000 0.000000
# 2 -0.004978 0.015737 -0.005751 0.000000 0.000000 0.000000
# 3 -0.006451 -0.005751 0.015895 0.000000 0.000000 0.000000
# 4 0.000000 0.000000 0.000000 0.010871 0.000000 0.000000
# 5 0.000000 0.000000 0.000000 0.000000 0.034422 0.000000
# 6 0.000000 0.000000 0.000000 0.000000 0.000000 0.032006
#
#
# Mechanical properties :
#
#
# Convention : Reuss Voigt Hill
#
# Bulk Modulus (GPa) = 80.56847 80.92661 80.74754
# Shear Modulus (GPa) = 30.75580 39.87850 35.31715
#
# Velocity S-wave (km/s) = 4.15260 4.72853 4.44990
# Velocity P-wave (km/s) = 8.25622 8.67098 8.46614
#
# Compressibility (1/GPa) = 0.01241180
#
# Stress axis : x y z
#
# Youngs Moduli (GPa) = 66.03956 63.54623 62.91397
#
# Poissons Ratio (x) = 0.31635 0.40589
# Poissons Ratio (y) = 0.32876 0.36184
# Poissons Ratio (z) = 0.42605 0.36547
#
# Static dielectric constant tensor:
#      x y z
#    x 1.596600 0.000000 0.000000 
#    y 0.000000 1.607950 0.000000 
#    z 0.000000 0.000000 1.596630 
# 
# From -- ./inp_files/37213.got.cif
#   From: 2010.05.17/outbox.cif.g08.bks.cpg/sg67_19_cif.got.tgz:37213.got - 2010.06.03 18:28:57.
