data_PCOD9503068
_publ_section_title
;
Structure prediction by ZEFSAII (Michael W. Deem and Ramdas Pophale) SiO2 
 PCOD9503068
Probable space group: C M M A
;
_chemical_formula_sum "Si O2"
_cell_formula_units_Z 96
_cell_length_a 14.117973
_cell_length_b 22.750469
_cell_length_c 15.396663
_cell_angle_alpha 90.000000
_cell_angle_beta 90.000000
_cell_angle_gamma 90.000000
_cell_volume 4945.261996
_symmetry_space_group_name_H-M "C M M A"
_symmetry_group_IT_number 67
_symmetry_cell_setting 'orthorhombic'
loop_
_space_group_symop_operation_xyz
x,y,z
-x,1/2-y,z
x,-y,-z
-x,1/2+y,-z
-x,-y,-z
x,1/2+y,-z
-x,y,z
x,1/2-y,z
1/2+x,1/2+y,z
1/2-x,-y,z
1/2+x,1/2-y,-z
1/2-x,y,-z
1/2-x,1/2-y,-z
1/2+x,y,-z
1/2-x,1/2+y,z
1/2+x,-y,z
loop_
_atom_site_type_symbol
_atom_site_label
_atom_site_fract_x
_atom_site_fract_y
_atom_site_fract_z
Si Si1 0.111727 0.814187 0.524133
Si Si2 0.609114 0.481374 0.596787
Si Si3 0.190248 0.679131 0.869583
Si Si4 0.894561 0.679104 0.055993
Si Si5 0.394124 0.886551 0.644856
Si Si6 0.804880 0.869098 0.689902
O O1 0.135924 0.750000 0.487354
O O2 0.129318 0.864266 0.452975
O O3 0.163042 0.825213 0.614219
O O4 0.000000 0.815299 0.541425
O O5 0.641802 0.500000 0.500000
O O6 0.500000 0.459658 0.587014
O O7 0.606427 0.543121 0.646637
O O8 0.667274 0.432342 0.648533
O O9 0.189421 0.750000 0.855605
O O10 0.298776 0.661028 0.893627
O O11 0.154010 0.646700 0.783362
O O12 0.127264 0.666582 0.954572
O O13 0.896689 0.750000 0.064001
O O14 0.000000 0.657101 0.081178
O O15 0.500000 0.865034 0.665209
O O16 0.307865 0.863850 0.700532
#
# Coordination Sequence:
#
# PCOD9503068 Si02
#       6
#    16  16  16  16  16  16
#     4  10  21  35  49  70 103 141 181 224 272 325
#     4  10  20  36  55  74  99 134 185 238 279 321
#     4   9  19  32  48  81 117 140 178 226 266 328
#     4   8  15  32  55  74 105 152 182 207 264 334
#     4  10  22  37  50  69 100 141 186 228 269 322
#     4  12  21  31  54  80 105 139 181 230 283 319
#
# _framework density 19.412521000000002
#
# number of rings (size 3 to 8) (size 9 to 14) (size 15 to 20)
#    0.000    2.167    1.667    3.000    0.000    4.667 
#    0.000    1.667    0.000    0.000    0.000    9.333 
#    0.000   16.000    0.000    0.000    0.000    0.000 
#
# Total GULP energy -267642.098314 kJ/mol
# GULP energy per Si atom -5575.877048 kJ/mol
# Density = 1.936834 g / cm^3
# Si number density = 19.412521 Si / 1000 Ang^3
#
#
#
# Elastic Constant Matrix: (Units=GPa)
#
#
# Indices 1 2 3 4 5 6 
#
# 1 72.3374 1.7200 8.9042 0.0000 0.0000 0.0000
# 2 1.7200 66.9550 24.4415 0.0000 0.0000 0.0000
# 3 8.9042 24.4415 70.9453 0.0000 0.0000 0.0000
# 4 0.0000 0.0000 0.0000 18.8357 0.0000 0.0000
# 5 0.0000 0.0000 0.0000 0.0000 5.0391 0.0000
# 6 0.0000 0.0000 0.0000 0.0000 0.0000 14.3813
#
#
#
# Elastic Compliance Matrix: (Units=1/GPa)
#
#
# Indices 1 2 3 4 5 6 
#
# 1 0.014047 0.000323 -0.001874 0.000000 0.000000 0.000000
# 2 0.000323 0.017091 -0.005929 0.000000 0.000000 0.000000
# 3 -0.001874 -0.005929 0.016373 0.000000 0.000000 0.000000
# 4 0.000000 0.000000 0.000000 0.053091 0.000000 0.000000
# 5 0.000000 0.000000 0.000000 0.000000 0.198450 0.000000
# 6 0.000000 0.000000 0.000000 0.000000 0.000000 0.069535
#
#
# Mechanical properties :
#
#
# Convention : Reuss Voigt Hill
#
# Bulk Modulus (GPa) = 30.72004 31.15212 30.93608
# Shear Modulus (GPa) = 12.67756 19.32934 16.00345
#
# Velocity S-wave (km/s) = 2.55828 3.15892 2.87433
# Velocity P-wave (km/s) = 4.95839 5.42101 5.19485
#
# Compressibility (1/GPa) = 0.03255204
#
# Stress axis : x y z
#
# Youngs Moduli (GPa) = 71.18886 58.50906 61.07551
#
# Poissons Ratio (x) = -0.01892 0.11448
# Poissons Ratio (y) = -0.02302 0.36210
# Poissons Ratio (z) = 0.13344 0.34689
#
# Static dielectric constant tensor:
#      x y z
#    x 1.761430 0.000000 0.000000 
#    y 0.000000 1.674890 0.000000 
#    z 0.000000 0.000000 1.663980 
# 
# From -- ./inp_files/27202.got.cif
#   From: 2010.05.17/outbox.cif.g08.bks.cpg/sg67_14_cif.got.tgz:27202.got - 2010.06.03 18:28:57.
