data_PCOD9503813
_publ_section_title
;
Structure prediction by ZEFSAII (Michael W. Deem and Ramdas Pophale) SiO2 
 PCOD9503813
Probable space group: C M M A
;
_chemical_formula_sum "Si O2"
_cell_formula_units_Z 112
_cell_length_a 14.621672
_cell_length_b 14.810963
_cell_length_c 24.855286
_cell_angle_alpha 90.000000
_cell_angle_beta 90.000000
_cell_angle_gamma 90.000000
_cell_volume 5382.686660
_symmetry_space_group_name_H-M "C M M A"
_symmetry_group_IT_number 67
_symmetry_cell_setting 'orthorhombic'
loop_
_space_group_symop_operation_xyz
x,y,z
-x,1/2-y,z
x,-y,-z
-x,1/2+y,-z
-x,-y,-z
x,1/2+y,-z
-x,y,z
x,1/2-y,z
1/2+x,1/2+y,z
1/2-x,-y,z
1/2+x,1/2-y,-z
1/2-x,y,-z
1/2-x,1/2-y,-z
1/2+x,y,-z
1/2-x,1/2+y,z
1/2+x,-y,z
loop_
_atom_site_type_symbol
_atom_site_label
_atom_site_fract_x
_atom_site_fract_y
_atom_site_fract_z
Si Si1 0.392321 0.858111 0.949827
Si Si2 0.890858 0.649020 0.931224
Si Si3 0.725600 0.352842 0.706634
Si Si4 0.235105 0.101132 0.411617
Si Si5 0.150059 0.985160 0.145434
Si Si6 0.396846 0.476228 0.262593
Si Si7 0.604033 0.356716 0.492454
O O1 0.500000 0.883235 0.946274
O O2 0.385240 0.750000 0.945483
O O3 0.346735 0.908953 0.900474
O O4 0.357827 0.882041 0.009684
O O5 0.854488 0.750000 0.919934
O O6 0.876399 0.576345 0.885398
O O7 0.000000 0.657259 0.937958
O O8 0.720364 0.250000 0.729094
O O9 0.714063 0.345988 0.642241
O O10 0.649451 0.425025 0.727059
O O11 0.824472 0.400535 0.717239
O O12 0.327254 0.130433 0.442513
O O13 0.154768 0.101135 0.455982
O O14 0.250000 0.000000 0.392500
O O15 0.250000 0.000000 0.168208
O O16 0.094376 0.963253 0.198282
O O17 0.500000 0.470864 0.286003
O O18 0.500000 0.388623 0.483947
O O19 0.601029 0.250000 0.503218
#
# Coordination Sequence:
#
# PCOD9503813 Si02
#       7
#    16  16  16  16  16  16  16
#     4   9  19  36  58  86 119 156 200 248 304 378
#     4   9  19  36  58  86 119 156 200 248 304 378
#     4  11  24  47  71  97 131 172 223 280 337 390
#     4  11  21  39  64  90 133 176 211 268 323 371
#     4  12  23  38  59  85 121 161 202 259 322 377
#     4  11  25  47  68  95 128 167 222 282 336 397
#     4  10  21  36  59  97 136 174 219 255 304 384
#
# _framework density 20.807454
#
# number of rings (size 3 to 8) (size 9 to 14) (size 15 to 20)
#    0.000    1.571    2.857    5.143    0.000    6.857 
#    0.000    1.429    0.000    0.000    0.000    0.000 
#    0.000    0.000    0.000    0.000    0.000    0.000 
#
# Total GULP energy -312534.804163 kJ/mol
# GULP energy per Si atom -5580.978646 kJ/mol
# Density = 2.076009 g / cm^3
# Si number density = 20.807454 Si / 1000 Ang^3
#
#
#
# Elastic Constant Matrix: (Units=GPa)
#
#
# Indices 1 2 3 4 5 6 
#
# 1 90.4809 -24.7785 -15.3862 0.0000 0.0000 0.0000
# 2 -24.7785 68.7447 -9.9226 0.0000 0.0000 0.0000
# 3 -15.3862 -9.9226 83.9659 0.0000 0.0000 0.0000
# 4 0.0000 0.0000 0.0000 -48.4965 0.0000 0.0000
# 5 0.0000 0.0000 0.0000 0.0000 26.8446 0.0000
# 6 0.0000 0.0000 0.0000 0.0000 0.0000 23.0889
#
#
#
# Elastic Compliance Matrix: (Units=1/GPa)
#
#
# Indices 1 2 3 4 5 6 
#
# 1 0.012955 0.005099 0.002976 0.000000 0.000000 0.000000
# 2 0.005099 0.016806 0.002920 0.000000 0.000000 0.000000
# 3 0.002976 0.002920 0.012800 0.000000 0.000000 0.000000
# 4 0.000000 0.000000 0.000000 -0.020620 0.000000 0.000000
# 5 0.000000 0.000000 0.000000 0.000000 0.037251 0.000000
# 6 0.000000 0.000000 0.000000 0.000000 0.000000 0.043311
#
#
# Mechanical properties :
#
#
# Convention : Reuss Voigt Hill
#
# Bulk Modulus (GPa) = 15.49134 15.89078 15.69106
# Shear Modulus (GPa) = 49.00572 19.83930 34.42251
#
# Velocity S-wave (km/s) = 4.85831 3.09118 4.07177
# Velocity P-wave (km/s) = 6.23956 4.51599 5.44639
#
# Compressibility (1/GPa) = 0.06455218
#
# Stress axis : x y z
#
# Youngs Moduli (GPa) = 77.19293 59.50258 78.12427
#
# Poissons Ratio (x) = -0.30340 -0.23253
# Poissons Ratio (y) = -0.39360 -0.22815
# Poissons Ratio (z) = -0.22976 -0.17377
#
# Static dielectric constant tensor:
#      x y z
#    x 1.801590 0.000000 0.000000 
#    y 0.000000 1.778520 0.000000 
#    z 0.000000 0.000000 1.739110 
# 
# From -- ./inp_files/42019.got.cif
#   From: 2010.05.17/outbox.cif.g08.bks.cpg/sg67_22_cif.got.tgz:42019.got - 2010.06.03 18:28:57.
