data_PCOD9503247
_publ_section_title
;
Structure prediction by ZEFSAII (Michael W. Deem and Ramdas Pophale) SiO2 
 PCOD9503247
Probable space group: C M M A
;
_chemical_formula_sum "Si O2"
_cell_formula_units_Z 96
_cell_length_a 13.865294
_cell_length_b 22.461273
_cell_length_c 14.571821
_cell_angle_alpha 90.000000
_cell_angle_beta 90.000000
_cell_angle_gamma 90.000000
_cell_volume 4538.133598
_symmetry_space_group_name_H-M "C M M A"
_symmetry_group_IT_number 67
_symmetry_cell_setting 'orthorhombic'
loop_
_space_group_symop_operation_xyz
x,y,z
-x,1/2-y,z
x,-y,-z
-x,1/2+y,-z
-x,-y,-z
x,1/2+y,-z
-x,y,z
x,1/2-y,z
1/2+x,1/2+y,z
1/2-x,-y,z
1/2+x,1/2-y,-z
1/2-x,y,-z
1/2-x,1/2-y,-z
1/2+x,y,-z
1/2-x,1/2+y,z
1/2+x,-y,z
loop_
_atom_site_type_symbol
_atom_site_label
_atom_site_fract_x
_atom_site_fract_y
_atom_site_fract_z
Si Si1 0.745501 0.427313 0.390500
Si Si2 0.617326 0.685517 0.080186
Si Si3 0.617018 0.846673 0.876154
Si Si4 0.883985 0.911337 0.770149
Si Si5 0.616583 0.183366 0.326424
Si Si6 0.616578 0.019053 0.102242
O O1 0.750000 0.500000 0.374237
O O2 0.750000 0.421447 0.500000
O O3 0.833673 0.404674 0.327379
O O4 0.661372 0.379271 0.362981
O O5 0.500000 0.682697 0.077695
O O6 0.647193 0.750000 0.113214
O O7 0.646487 0.636701 0.153506
O O8 0.648012 0.677472 0.974793
O O9 0.500000 0.845003 0.878045
O O10 0.643384 0.816177 0.781573
O O11 0.648362 0.915123 0.874357
O O12 0.857221 0.973385 0.818714
O O13 0.000000 0.908897 0.760420
O O14 0.500000 0.179425 0.334435
O O15 0.644537 0.250000 0.363986
O O16 0.500000 0.019479 0.099372
O O17 0.646473 0.000000 0.000000
#
# Coordination Sequence:
#
# PCOD9503247 Si02
#       6
#    16  16  16  16  16  16
#     4  11  26  46  67  93 126 166 218 282 345 398
#     4   9  16  27  48  82 122 160 197 239 296 373
#     4   9  15  27  52  85 121 161 205 250 301 371
#     4  10  20  36  60  90 124 163 206 255 318 389
#     4  10  22  42  69  98 129 172 224 275 331 396
#     4   9  14  24  48  84 122 162 203 245 303 376
#
# _framework density 21.154070000000001
#
# number of rings (size 3 to 8) (size 9 to 14) (size 15 to 20)
#    0.000    2.333    1.667    1.500    0.000    5.667 
#    0.000    2.500    0.000    4.000    0.000    0.000 
#    0.000    0.000    0.000    0.000    0.000    0.000 
#
# Total GULP energy -267733.573072 kJ/mol
# GULP energy per Si atom -5577.782772 kJ/mol
# Density = 2.110592 g / cm^3
# Si number density = 21.154070 Si / 1000 Ang^3
#
#
#
# Elastic Constant Matrix: (Units=GPa)
#
#
# Indices 1 2 3 4 5 6 
#
# 1 94.6995 40.7910 31.0795 0.0000 0.0000 0.0000
# 2 40.7910 159.0726 50.8542 0.0000 0.0000 0.0000
# 3 31.0795 50.8542 133.3291 0.0000 0.0000 0.0000
# 4 0.0000 0.0000 0.0000 6.5337 0.0000 0.0000
# 5 0.0000 0.0000 0.0000 0.0000 23.1517 0.0000
# 6 0.0000 0.0000 0.0000 0.0000 0.0000 20.8370
#
#
#
# Elastic Compliance Matrix: (Units=1/GPa)
#
#
# Indices 1 2 3 4 5 6 
#
# 1 0.012276 -0.002543 -0.001892 0.000000 0.000000 0.000000
# 2 -0.002543 0.007686 -0.002339 0.000000 0.000000 0.000000
# 3 -0.001892 -0.002339 0.008833 0.000000 0.000000 0.000000
# 4 0.000000 0.000000 0.000000 0.153052 0.000000 0.000000
# 5 0.000000 0.000000 0.000000 0.000000 0.043193 0.000000
# 6 0.000000 0.000000 0.000000 0.000000 0.000000 0.047991
#
#
# Mechanical properties :
#
#
# Convention : Reuss Voigt Hill
#
# Bulk Modulus (GPa) = 65.58117 70.28340 67.93229
# Shear Modulus (GPa) = 17.14312 27.72960 22.43636
#
# Velocity S-wave (km/s) = 2.84983 3.62448 3.26024
# Velocity P-wave (km/s) = 6.47284 7.12829 6.80846
#
# Compressibility (1/GPa) = 0.01524828
#
# Stress axis : x y z
#
# Youngs Moduli (GPa) = 81.45997 130.10140 113.20861
#
# Poissons Ratio (x) = 0.33088 0.21414
# Poissons Ratio (y) = 0.20717 0.26478
# Poissons Ratio (z) = 0.15408 0.30429
#
# Static dielectric constant tensor:
#      x y z
#    x 1.839530 0.000000 0.000000 
#    y 0.000000 1.760710 0.000000 
#    z 0.000000 0.000000 1.716760 
# 
# From -- ./inp_files/27228.got.cif
#   From: 2010.05.17/outbox.cif.g08.bks.cpg/sg67_14_cif.got.tgz:27228.got - 2010.06.03 18:28:57.
