data_PCOD9503294
_publ_section_title
;
Structure prediction by ZEFSAII (Michael W. Deem and Ramdas Pophale) SiO2 
 PCOD9503294
Probable space group: C M M A
;
_chemical_formula_sum "Si O2"
_cell_formula_units_Z 88
_cell_length_a 20.643730
_cell_length_b 10.084058
_cell_length_c 22.270114
_cell_angle_alpha 90.000000
_cell_angle_beta 90.000000
_cell_angle_gamma 90.000000
_cell_volume 4636.026880
_symmetry_space_group_name_H-M "C M M A"
_symmetry_group_IT_number 67
_symmetry_cell_setting 'orthorhombic'
loop_
_space_group_symop_operation_xyz
x,y,z
-x,1/2-y,z
x,-y,-z
-x,1/2+y,-z
-x,-y,-z
x,1/2+y,-z
-x,y,z
x,1/2-y,z
1/2+x,1/2+y,z
1/2-x,-y,z
1/2+x,1/2-y,-z
1/2-x,y,-z
1/2-x,1/2-y,-z
1/2+x,y,-z
1/2-x,1/2+y,z
1/2+x,-y,z
loop_
_atom_site_type_symbol
_atom_site_label
_atom_site_fract_x
_atom_site_fract_y
_atom_site_fract_z
Si Si1 0.290380 0.750000 0.061299
Si Si2 0.000000 0.403455 0.732483
Si Si3 0.621551 0.469725 0.792384
Si Si4 0.877417 0.589922 0.551329
Si Si5 0.924124 0.250000 0.113241
Si Si6 0.500000 0.415875 0.406479
Si Si7 0.250000 0.000000 0.140760
Si Si8 0.803652 0.608383 0.677315
O O1 0.369391 0.750000 0.060741
O O2 0.269459 0.877362 0.099473
O O3 0.250000 0.750000 0.000000
O O4 0.063513 0.440777 0.769478
O O5 0.000000 0.250000 0.723042
O O6 0.000000 0.455651 0.664158
O O7 0.592283 0.373800 0.843311
O O8 0.686690 0.533512 0.819760
O O9 0.646022 0.397140 0.732115
O O10 0.842868 0.500000 0.500000
O O11 0.889544 0.750000 0.536791
O O12 0.939095 0.493873 0.565033
O O13 0.838300 0.592167 0.613561
O O14 0.000000 0.250000 0.095761
O O15 0.500000 0.250000 0.413668
O O16 0.769931 0.750000 0.678379
O O17 0.750000 0.500000 0.686213
#
# Coordination Sequence:
#
# PCOD9503294 Si02
#       8
#     8   8  16  16   8   8   8  16
#     4  10  22  42  66  94 130 173 219 256 306 363
#     4  11  24  35  57  92 133 168 194 258 333 382
#     4  11  20  38  61  93 129 156 212 256 315 380
#     4  11  24  42  61  82 111 155 208 258 321 388
#     4  10  20  36  66  96 126 166 210 265 309 366
#     4  11  22  38  59  89 114 155 202 253 321 386
#     4  10  23  36  68  96 123 170 210 262 304 360
#     4  11  24  39  61  89 120 159 201 260 323 380
#
# _framework density 18.981770999999998
#
# number of rings (size 3 to 8) (size 9 to 14) (size 15 to 20)
#    0.000    1.273    4.545    1.364    1.273    2.545 
#    1.636    1.818    2.000    2.182    0.000    0.000 
#    0.000    0.000    0.000    0.000    0.000    0.000 
#
# Total GULP energy -245082.027811 kJ/mol
# GULP energy per Si atom -5570.046087 kJ/mol
# Density = 1.893857 g / cm^3
# Si number density = 18.981771 Si / 1000 Ang^3
#
#
#
# Elastic Constant Matrix: (Units=GPa)
#
#
# Indices 1 2 3 4 5 6 
#
# 1 122.4175 40.2580 47.4774 0.0000 0.0000 0.0000
# 2 40.2580 98.2051 23.1344 0.0000 0.0000 0.0000
# 3 47.4774 23.1344 105.4962 0.0000 0.0000 0.0000
# 4 0.0000 0.0000 0.0000 17.2128 0.0000 0.0000
# 5 0.0000 0.0000 0.0000 0.0000 40.2720 0.0000
# 6 0.0000 0.0000 0.0000 0.0000 0.0000 21.3226
#
#
#
# Elastic Compliance Matrix: (Units=1/GPa)
#
#
# Indices 1 2 3 4 5 6 
#
# 1 0.010931 -0.003503 -0.004151 0.000000 0.000000 0.000000
# 2 -0.003503 0.011860 -0.001024 0.000000 0.000000 0.000000
# 3 -0.004151 -0.001024 0.011572 0.000000 0.000000 0.000000
# 4 0.000000 0.000000 0.000000 0.058096 0.000000 0.000000
# 5 0.000000 0.000000 0.000000 0.000000 0.024831 0.000000
# 6 0.000000 0.000000 0.000000 0.000000 0.000000 0.046899
#
#
# Mechanical properties :
#
#
# Convention : Reuss Voigt Hill
#
# Bulk Modulus (GPa) = 58.80359 60.87315 59.83837
# Shear Modulus (GPa) = 26.70745 30.11144 28.40944
#
# Velocity S-wave (km/s) = 3.75508 3.98720 3.87288
# Velocity P-wave (km/s) = 7.06024 7.30315 7.18272
#
# Compressibility (1/GPa) = 0.01700576
#
# Stress axis : x y z
#
# Youngs Moduli (GPa) = 91.48574 84.31638 86.41719
#
# Poissons Ratio (x) = 0.29536 0.35872
# Poissons Ratio (y) = 0.32048 0.08852
# Poissons Ratio (z) = 0.37976 0.08637
#
# Static dielectric constant tensor:
#      x y z
#    x 1.737630 0.000000 0.000000 
#    y 0.000000 1.678750 0.000000 
#    z 0.000000 0.000000 1.679780 
# 
# From -- ./inp_files/42442.got.cif
#   From: 2010.05.17/outbox.cif.g08.bks.cpg/sg67_22_cif.got.tgz:42442.got - 2010.06.03 18:28:57.
