data_PCOD9503937
_publ_section_title
;
Structure prediction by ZEFSAII (Michael W. Deem and Ramdas Pophale) SiO2 
 PCOD9503937
Probable space group: C M M A
;
_chemical_formula_sum "Si O2"
_cell_formula_units_Z 88
_cell_length_a 23.328163
_cell_length_b 8.764019
_cell_length_c 24.351937
_cell_angle_alpha 90.000000
_cell_angle_beta 90.000000
_cell_angle_gamma 90.000000
_cell_volume 4978.716109
_symmetry_space_group_name_H-M "C M M A"
_symmetry_group_IT_number 67
_symmetry_cell_setting 'orthorhombic'
loop_
_space_group_symop_operation_xyz
x,y,z
-x,1/2-y,z
x,-y,-z
-x,1/2+y,-z
-x,-y,-z
x,1/2+y,-z
-x,y,z
x,1/2-y,z
1/2+x,1/2+y,z
1/2-x,-y,z
1/2+x,1/2-y,-z
1/2-x,y,-z
1/2-x,1/2-y,-z
1/2+x,y,-z
1/2-x,1/2+y,z
1/2+x,-y,z
loop_
_atom_site_type_symbol
_atom_site_label
_atom_site_fract_x
_atom_site_fract_y
_atom_site_fract_z
Si Si1 0.500000 0.935869 0.561043
Si Si2 0.622787 0.432373 0.167920
Si Si3 0.500000 0.585948 0.728605
Si Si4 0.314256 0.067733 0.724147
Si Si5 0.500000 0.576663 0.168722
Si Si6 0.600814 0.923764 0.641335
Si Si7 0.686465 0.567780 0.944674
O O1 0.500000 0.750000 0.562663
O O2 0.558962 0.983352 0.592634
O O3 0.500000 0.000000 0.500000
O O4 0.623611 0.250000 0.175756
O O5 0.650631 0.506810 0.222393
O O6 0.558712 0.490587 0.155743
O O7 0.657611 0.471362 0.113003
O O8 0.500000 0.750000 0.759624
O O9 0.500000 0.437217 0.765206
O O10 0.444744 0.586492 0.690857
O O11 0.311998 0.250000 0.726842
O O12 0.250000 0.000000 0.725741
O O13 0.346989 0.016246 0.668167
O O14 0.500000 0.750000 0.149510
O O15 0.619369 0.750000 0.627823
O O16 0.688521 0.750000 0.949818
O O17 0.750000 0.500000 0.942581
O O18 0.658348 0.500000 0.000000
#
# Coordination Sequence:
#
# PCOD9503937 Si02
#       7
#     8  16   8  16   8  16  16
#     4   9  19  35  59  89 118 151 187 228 277 322
#     4  11  23  39  57  80 112 148 184 228 281 337
#     4   9  16  30  53  74 104 144 176 212 264 318
#     4  12  24  36  54  82 114 150 189 231 280 334
#     4  12  23  33  52  81 109 141 180 222 271 330
#     4   9  18  34  55  80 113 151 185 224 275 326
#     4  10  21  37  60  83 106 140 181 228 280 331
#
# _framework density 17.675239999999999
#
# number of rings (size 3 to 8) (size 9 to 14) (size 15 to 20)
#    0.000    1.636    1.818    5.727    0.000    5.091 
#    0.000    2.273    0.000    0.545    0.000    3.818 
#    0.000    0.000    0.000    0.000    0.000    0.000 
#
# Total GULP energy -245220.663169 kJ/mol
# GULP energy per Si atom -5573.196890 kJ/mol
# Density = 1.763501 g / cm^3
# Si number density = 17.675240 Si / 1000 Ang^3
#
#
#
# Elastic Constant Matrix: (Units=GPa)
#
#
# Indices 1 2 3 4 5 6 
#
# 1 120.2475 45.9203 55.7362 0.0000 0.0000 0.0000
# 2 45.9203 81.2004 43.1546 0.0000 0.0000 0.0000
# 3 55.7362 43.1546 119.9845 0.0000 0.0000 0.0000
# 4 0.0000 0.0000 0.0000 28.0059 0.0000 0.0000
# 5 0.0000 0.0000 0.0000 0.0000 -16.6071 0.0000
# 6 0.0000 0.0000 0.0000 0.0000 0.0000 -14.2202
#
#
#
# Elastic Compliance Matrix: (Units=1/GPa)
#
#
# Indices 1 2 3 4 5 6 
#
# 1 0.011882 -0.004681 -0.003836 0.000000 0.000000 0.000000
# 2 -0.004681 0.017069 -0.003965 0.000000 0.000000 0.000000
# 3 -0.003836 -0.003965 0.011542 0.000000 0.000000 0.000000
# 4 0.000000 0.000000 0.000000 0.035707 0.000000 0.000000
# 5 0.000000 0.000000 0.000000 0.000000 -0.060215 0.000000
# 6 0.000000 0.000000 0.000000 0.000000 0.000000 -0.070322
#
#
# Mechanical properties :
#
#
# Convention : Reuss Voigt Hill
#
# Bulk Modulus (GPa) = 64.39020 67.89497 66.14258
# Shear Modulus (GPa) = -206.63338 11.21046 -97.71146
#
# Velocity S-wave (km/s) = -10.82402 2.52116 -7.44322
# Velocity P-wave (km/s) = 10.94092 6.85353 6.03046
#
# Compressibility (1/GPa) = 0.01553031
#
# Stress axis : x y z
#
# Youngs Moduli (GPa) = 84.16371 58.58411 86.63726
#
# Poissons Ratio (x) = 0.27421 0.33233
# Poissons Ratio (y) = 0.39394 0.34352
# Poissons Ratio (z) = 0.32284 0.23229
#
# Static dielectric constant tensor:
#      x y z
#    x 1.609850 0.000000 0.000000 
#    y 0.000000 1.623670 0.000000 
#    z 0.000000 0.000000 1.618510 
# 
# From -- ./inp_files/42412.got.cif
#   From: 2010.05.17/outbox.cif.g08.bks.cpg/sg67_22_cif.got.tgz:42412.got - 2010.06.03 18:28:57.
