data_PCOD9503857
_publ_section_title
;
Structure prediction by ZEFSAII (Michael W. Deem and Ramdas Pophale) SiO2 
 PCOD9503857
Probable space group: C M M A
;
_chemical_formula_sum "Si O2"
_cell_formula_units_Z 116
_cell_length_a 25.611098
_cell_length_b 10.175017
_cell_length_c 25.816559
_cell_angle_alpha 90.000000
_cell_angle_beta 90.000000
_cell_angle_gamma 90.000000
_cell_volume 6727.623790
_symmetry_space_group_name_H-M "C M M A"
_symmetry_group_IT_number 67
_symmetry_cell_setting 'orthorhombic'
loop_
_space_group_symop_operation_xyz
x,y,z
-x,1/2-y,z
x,-y,-z
-x,1/2+y,-z
-x,-y,-z
x,1/2+y,-z
-x,y,z
x,1/2-y,z
1/2+x,1/2+y,z
1/2-x,-y,z
1/2+x,1/2-y,-z
1/2-x,y,-z
1/2-x,1/2-y,-z
1/2+x,y,-z
1/2-x,1/2+y,z
1/2+x,-y,z
loop_
_atom_site_type_symbol
_atom_site_label
_atom_site_fract_x
_atom_site_fract_y
_atom_site_fract_z
Si Si1 0.792801 0.395940 0.571226
Si Si2 0.706321 0.896993 0.694425
Si Si3 0.088476 0.404084 0.545615
Si Si4 0.438040 0.592877 0.161498
Si Si5 0.000000 0.750000 0.276658
Si Si6 0.562204 0.394030 0.634743
Si Si7 0.063621 0.598598 0.955213
Si Si8 0.093711 0.965917 0.266219
O O1 0.770849 0.250000 0.564630
O O2 0.750000 0.500000 0.555412
O O3 0.803258 0.416293 0.632721
O O4 0.848575 0.401711 0.543748
O O5 0.726997 0.750000 0.701129
O O6 0.650925 0.909834 0.722319
O O7 0.750000 0.000000 0.711280
O O8 0.068437 0.500000 0.500000
O O9 0.070992 0.250000 0.544433
O O10 0.074970 0.482179 0.598133
O O11 0.500000 0.563793 0.165673
O O12 0.432168 0.750000 0.166758
O O13 0.420853 0.558023 0.103061
O O14 0.410372 0.518745 0.207992
O O15 0.953482 0.636061 0.275666
O O16 0.500000 0.389711 0.638856
O O17 0.580037 0.250000 0.614174
O O18 0.585364 0.419678 0.691304
O O19 0.079499 0.750000 0.964315
O O20 0.000000 0.598233 0.955224
O O21 0.081231 0.500000 0.000000
#
# Coordination Sequence:
#
# PCOD9503857 Si02
#       8
#    16  16  16  16   4  16  16  16
#     4   9  19  36  57  79 103 133 166 210 263 315
#     4  10  21  37  56  80 111 145 185 224 270 333
#     4  11  24  41  60  80 106 135 170 216 267 325
#     4   9  17  30  47  70 106 145 186 232 280 330
#     4  12  24  32  58  88 120 156 176 240 290 330
#     4  11  24  39  59  82 106 137 178 218 268 334
#     4   8  14  26  41  62  94 140 186 229 273 324
#     4  12  21  36  56  84 116 146 188 225 286 335
#
# _framework density 17.242343000000002
#
# number of rings (size 3 to 8) (size 9 to 14) (size 15 to 20)
#    0.000    1.931    3.448    1.655    0.966    4.138 
#    1.241    1.379    0.000    0.000    0.000    0.000 
#    0.000    0.552    0.000    4.276    0.000    1.241 
#
# Total GULP energy -322921.302804 kJ/mol
# GULP energy per Si atom -5567.608669 kJ/mol
# Density = 1.720310 g / cm^3
# Si number density = 17.242343 Si / 1000 Ang^3
#
#
#
# Elastic Constant Matrix: (Units=GPa)
#
#
# Indices 1 2 3 4 5 6 
#
# 1 61.7591 33.4199 12.7677 0.0000 0.0000 0.0000
# 2 33.4199 112.7650 60.6634 0.0000 0.0000 0.0000
# 3 12.7677 60.6634 108.8364 0.0000 0.0000 0.0000
# 4 0.0000 0.0000 0.0000 32.0828 0.0000 0.0000
# 5 0.0000 0.0000 0.0000 0.0000 11.9727 0.0000
# 6 0.0000 0.0000 0.0000 0.0000 0.0000 17.0261
#
#
#
# Elastic Compliance Matrix: (Units=1/GPa)
#
#
# Indices 1 2 3 4 5 6 
#
# 1 0.019418 -0.006469 0.001328 0.000000 0.000000 0.000000
# 2 -0.006469 0.014821 -0.007502 0.000000 0.000000 0.000000
# 3 0.001328 -0.007502 0.013214 0.000000 0.000000 0.000000
# 4 0.000000 0.000000 0.000000 0.031169 0.000000 0.000000
# 5 0.000000 0.000000 0.000000 0.000000 0.083523 0.000000
# 6 0.000000 0.000000 0.000000 0.000000 0.000000 0.058733
#
#
# Mechanical properties :
#
#
# Convention : Reuss Voigt Hill
#
# Bulk Modulus (GPa) = 45.11379 55.22917 50.17148
# Shear Modulus (GPa) = 19.71959 23.98363 21.85161
#
# Velocity S-wave (km/s) = 3.38549 3.73362 3.56381
# Velocity P-wave (km/s) = 6.44231 7.11950 6.78935
#
# Compressibility (1/GPa) = 0.02216617
#
# Stress axis : x y z
#
# Youngs Moduli (GPa) = 51.49824 67.47122 75.67811
#
# Poissons Ratio (x) = 0.43649 -0.10049
# Poissons Ratio (y) = 0.33316 0.56775
# Poissons Ratio (z) = -0.06838 0.50618
#
# Static dielectric constant tensor:
#      x y z
#    x 1.562940 0.000000 0.000000 
#    y 0.000000 1.644340 0.000000 
#    z 0.000000 0.000000 1.598740 
# 
# From -- ./inp_files/43952.got.cif
#   From: 2010.05.17/outbox.cif.g08.bks.cpg/sg67_22_cif.got.tgz:43952.got - 2010.06.03 18:28:57.
