data_PCOD9503720
_publ_section_title
;
Structure prediction by ZEFSAII (Michael W. Deem and Ramdas Pophale) SiO2 
 PCOD9503720
Probable space group: C M M A
;
_chemical_formula_sum "Si O2"
_cell_formula_units_Z 88
_cell_length_a 28.252726
_cell_length_b 8.382359
_cell_length_c 19.467001
_cell_angle_alpha 90.000000
_cell_angle_beta 90.000000
_cell_angle_gamma 90.000000
_cell_volume 4610.262624
_symmetry_space_group_name_H-M "C M M A"
_symmetry_group_IT_number 67
_symmetry_cell_setting 'orthorhombic'
loop_
_space_group_symop_operation_xyz
x,y,z
-x,1/2-y,z
x,-y,-z
-x,1/2+y,-z
-x,-y,-z
x,1/2+y,-z
-x,y,z
x,1/2-y,z
1/2+x,1/2+y,z
1/2-x,-y,z
1/2+x,1/2-y,-z
1/2-x,y,-z
1/2-x,1/2-y,-z
1/2+x,y,-z
1/2-x,1/2+y,z
1/2+x,-y,z
loop_
_atom_site_type_symbol
_atom_site_label
_atom_site_fract_x
_atom_site_fract_y
_atom_site_fract_z
Si Si1 0.500000 0.057753 0.921400
Si Si2 0.395041 0.441555 0.422660
Si Si3 0.447866 0.441992 0.705441
Si Si4 0.146127 0.942903 0.785433
Si Si5 0.604822 0.442749 0.922204
Si Si6 0.301301 0.060332 0.342210
O O1 0.500000 0.250000 0.916318
O O2 0.448037 0.005651 0.896678
O O3 0.500000 0.000000 0.000000
O O4 0.400075 0.500000 0.500000
O O5 0.396270 0.250000 0.420536
O O6 0.435167 0.508506 0.372017
O O7 0.344586 0.497227 0.390359
O O8 0.500000 0.500153 0.726035
O O9 0.448447 0.250000 0.710474
O O10 0.403484 0.496924 0.750751
O O11 0.147919 0.750000 0.783331
O O12 0.142697 0.993457 0.864857
O O13 0.186549 0.006572 0.735437
O O14 0.604450 0.250000 0.923800
O O15 0.612359 0.500000 0.000000
O O16 0.301366 0.250000 0.344555
O O17 0.250000 0.000000 0.363727
#
# Coordination Sequence:
#
# PCOD9503720 Si02
#       6
#     8  16  16  16  16  16
#     4   8  14  24  38  60  92 128 165 200 237 282
#     4  10  21  36  54  77 105 134 166 205 248 297
#     4   9  18  32  51  74 101 137 178 214 249 291
#     4   9  18  32  51  75 102 134 172 213 254 300
#     4   9  17  28  45  69 100 136 172 211 252 295
#     4  10  21  37  57  79 102 129 162 204 254 307
#
# _framework density 19.08785
#
# number of rings (size 3 to 8) (size 9 to 14) (size 15 to 20)
#    0.000    2.727    0.000    1.091    1.273    4.000 
#    0.000    1.818    0.000    0.545    0.000    3.818 
#    0.000    0.000    0.000    0.000    0.000    0.000 
#
# Total GULP energy -245212.404738 kJ/mol
# GULP energy per Si atom -5573.009199 kJ/mol
# Density = 1.904441 g / cm^3
# Si number density = 19.087850 Si / 1000 Ang^3
#
#
#
# Elastic Constant Matrix: (Units=GPa)
#
#
# Indices 1 2 3 4 5 6 
#
# 1 37.0519 1.0478 -16.6871 0.0000 0.0000 0.0000
# 2 1.0478 5.7218 -5.1517 0.0000 0.0000 0.0000
# 3 -16.6871 -5.1517 64.2341 0.0000 0.0000 0.0000
# 4 0.0000 0.0000 0.0000 18.5543 0.0000 0.0000
# 5 0.0000 0.0000 0.0000 0.0000 17.6442 0.0000
# 6 0.0000 0.0000 0.0000 0.0000 0.0000 17.9874
#
#
#
# Elastic Compliance Matrix: (Units=1/GPa)
#
#
# Indices 1 2 3 4 5 6 
#
# 1 0.030580 0.001674 0.008079 0.000000 0.000000 0.000000
# 2 0.001674 0.188465 0.015550 0.000000 0.000000 0.000000
# 3 0.008079 0.015550 0.018914 0.000000 0.000000 0.000000
# 4 0.000000 0.000000 0.000000 0.053896 0.000000 0.000000
# 5 0.000000 0.000000 0.000000 0.000000 0.056676 0.000000
# 6 0.000000 0.000000 0.000000 0.000000 0.000000 0.055594
#
#
# Mechanical properties :
#
#
# Convention : Reuss Voigt Hill
#
# Bulk Modulus (GPa) = 3.46544 7.26952 5.36748
# Shear Modulus (GPa) = 11.11832 19.35709 15.23770
#
# Velocity S-wave (km/s) = 2.41608 3.18796 2.82847
# Velocity P-wave (km/s) = 3.09883 4.16743 3.67221
#
# Compressibility (1/GPa) = 0.28856363
#
# Stress axis : x y z
#
# Youngs Moduli (GPa) = 32.70091 5.30603 52.87119
#
# Poissons Ratio (x) = -0.00888 -0.42712
# Poissons Ratio (y) = -0.05474 -0.82215
# Poissons Ratio (z) = -0.26418 -0.08251
#
# Static dielectric constant tensor:
#      x y z
#    x 1.681510 0.000000 0.000000 
#    y 0.000000 1.657170 0.000000 
#    z 0.000000 0.000000 1.672520 
# 
# From -- ./inp_files/32414.got.cif
#   From: 2010.05.17/outbox.cif.g08.bks.cpg/sg67_17_cif.got.tgz:32414.got - 2010.06.03 18:28:57.
