data_PCOD9503134
_publ_section_title
;
Structure prediction by ZEFSAII (Michael W. Deem and Ramdas Pophale) SiO2 
 PCOD9503134
Probable space group: C M M A
;
_chemical_formula_sum "Si O2"
_cell_formula_units_Z 100
_cell_length_a 14.334547
_cell_length_b 18.689340
_cell_length_c 20.548867
_cell_angle_alpha 90.000000
_cell_angle_beta 90.000000
_cell_angle_gamma 90.000000
_cell_volume 5505.107691
_symmetry_space_group_name_H-M "C M M A"
_symmetry_group_IT_number 67
_symmetry_cell_setting 'orthorhombic'
loop_
_space_group_symop_operation_xyz
x,y,z
-x,1/2-y,z
x,-y,-z
-x,1/2+y,-z
-x,-y,-z
x,1/2+y,-z
-x,y,z
x,1/2-y,z
1/2+x,1/2+y,z
1/2-x,-y,z
1/2+x,1/2-y,-z
1/2-x,y,-z
1/2-x,1/2-y,-z
1/2+x,y,-z
1/2-x,1/2+y,z
1/2+x,-y,z
loop_
_atom_site_type_symbol
_atom_site_label
_atom_site_fract_x
_atom_site_fract_y
_atom_site_fract_z
Si Si1 0.606870 0.113461 0.650019
Si Si2 0.106585 0.835139 0.796583
Si Si3 0.896979 0.105923 0.986771
Si Si4 0.110620 0.470900 0.571633
Si Si5 0.276827 0.172212 0.424226
Si Si6 0.000000 0.250000 0.014191
Si Si7 0.229612 0.422163 0.105363
O O1 0.500000 0.129597 0.629791
O O2 0.612086 0.125776 0.726987
O O3 0.681778 0.163632 0.615853
O O4 0.627752 0.033519 0.624005
O O5 0.119604 0.750000 0.787981
O O6 0.181788 0.868709 0.844491
O O7 0.000000 0.844666 0.822429
O O8 0.825011 0.106025 0.927005
O O9 0.000000 0.076283 0.970098
O O10 0.844095 0.067519 0.046146
O O11 0.920060 0.186398 0.010386
O O12 0.139783 0.500000 0.500000
O O13 0.160488 0.397049 0.588496
O O14 0.000000 0.458551 0.568159
O O15 0.320172 0.250000 0.410203
O O16 0.250000 0.170066 0.500000
O O17 0.250000 0.500000 0.134912
#
# Coordination Sequence:
#
# PCOD9503134 Si02
#       7
#    16  16  16  16  16   4  16
#     4  10  21  39  60  84 115 148 194 241 295 349
#     4  10  23  40  62  86 114 154 201 250 297 356
#     4   9  20  36  57  87 121 153 200 249 303 347
#     4  10  20  36  58  82 110 149 187 231 285 340
#     4  11  22  33  54  86 116 148 184 231 287 341
#     4   8  20  34  58  92 114 160 202 250 318 336
#     4  11  23  35  57  88 121 160 198 244 305 358
#
# _framework density 18.164950000000001
#
# number of rings (size 3 to 8) (size 9 to 14) (size 15 to 20)
#    0.480    1.440    1.600    2.400    2.240    5.120 
#    0.000    1.600    0.000    0.960    0.000    0.000 
#    0.000    0.000    0.000    0.000    0.000    0.000 
#
# Total GULP energy -278373.693768 kJ/mol
# GULP energy per Si atom -5567.473875 kJ/mol
# Density = 1.812361 g / cm^3
# Si number density = 18.164950 Si / 1000 Ang^3
#
#
#
# Elastic Constant Matrix: (Units=GPa)
#
#
# Indices 1 2 3 4 5 6 
#
# 1 112.1155 49.5161 45.1471 0.0000 0.0000 0.0000
# 2 49.5161 132.5800 35.7700 0.0000 0.0000 0.0000
# 3 45.1471 35.7700 66.8281 0.0000 0.0000 0.0000
# 4 0.0000 0.0000 0.0000 48.1817 0.0000 0.0000
# 5 0.0000 0.0000 0.0000 0.0000 27.6794 0.0000
# 6 0.0000 0.0000 0.0000 0.0000 0.0000 27.5070
#
#
#
# Elastic Compliance Matrix: (Units=1/GPa)
#
#
# Indices 1 2 3 4 5 6 
#
# 1 0.013167 -0.002943 -0.007320 0.000000 0.000000 0.000000
# 2 -0.002943 0.009473 -0.003083 0.000000 0.000000 0.000000
# 3 -0.007320 -0.003083 0.021559 0.000000 0.000000 0.000000
# 4 0.000000 0.000000 0.000000 0.020755 0.000000 0.000000
# 5 0.000000 0.000000 0.000000 0.000000 0.036128 0.000000
# 6 0.000000 0.000000 0.000000 0.000000 0.000000 0.036354
#
#
# Mechanical properties :
#
#
# Convention : Reuss Voigt Hill
#
# Bulk Modulus (GPa) = 57.11544 63.59887 60.35715
# Shear Modulus (GPa) = 29.41826 32.74632 31.08229
#
# Velocity S-wave (km/s) = 4.02868 4.25045 4.14105
# Velocity P-wave (km/s) = 7.29049 7.69261 7.49425
#
# Compressibility (1/GPa) = 0.01750840
#
# Stress axis : x y z
#
# Youngs Moduli (GPa) = 75.94994 105.55959 46.38451
#
# Poissons Ratio (x) = 0.31061 0.33953
# Poissons Ratio (y) = 0.22349 0.14299
# Poissons Ratio (z) = 0.55595 0.32541
#
# Static dielectric constant tensor:
#      x y z
#    x 1.654320 0.000000 0.000000 
#    y 0.000000 1.645590 0.000000 
#    z 0.000000 0.000000 1.617350 
# 
# From -- ./inp_files/38638.got.cif
#   From: 2010.05.17/outbox.cif.g08.bks.cpg/sg67_20_cif.got.tgz:38638.got - 2010.06.03 18:28:57.
