data_PCOD9503093
_publ_section_title
;
Structure prediction by ZEFSAII (Michael W. Deem and Ramdas Pophale) SiO2 
 PCOD9503093
Probable space group: C M M A
;
_chemical_formula_sum "Si O2"
_cell_formula_units_Z 104
_cell_length_a 7.796343
_cell_length_b 28.215502
_cell_length_c 21.501602
_cell_angle_alpha 90.000000
_cell_angle_beta 90.000000
_cell_angle_gamma 90.000000
_cell_volume 4729.873632
_symmetry_space_group_name_H-M "C M M A"
_symmetry_group_IT_number 67
_symmetry_cell_setting 'orthorhombic'
loop_
_space_group_symop_operation_xyz
x,y,z
-x,1/2-y,z
x,-y,-z
-x,1/2+y,-z
-x,-y,-z
x,1/2+y,-z
-x,y,z
x,1/2-y,z
1/2+x,1/2+y,z
1/2-x,-y,z
1/2+x,1/2-y,-z
1/2-x,y,-z
1/2-x,1/2-y,-z
1/2+x,y,-z
1/2-x,1/2+y,z
1/2+x,-y,z
loop_
_atom_site_type_symbol
_atom_site_label
_atom_site_fract_x
_atom_site_fract_y
_atom_site_fract_z
Si Si1 0.801861 0.304657 0.771399
Si Si2 0.206467 0.250000 0.572322
Si Si3 0.308102 0.596581 0.932919
Si Si4 0.709648 0.154826 0.357853
Si Si5 0.793511 0.946469 0.333998
Si Si6 0.197112 0.802448 0.910679
Si Si7 0.705982 0.446343 0.191765
O O1 0.802172 0.250000 0.749935
O O2 0.740750 0.335089 0.713738
O O3 0.703209 0.306560 0.835722
O O4 0.000000 0.317947 0.785481
O O5 0.250000 0.250000 0.500000
O O6 0.269807 0.299609 0.602754
O O7 0.000000 0.250000 0.580232
O O8 0.500000 0.579046 0.926685
O O9 0.300560 0.653389 0.935697
O O10 0.222875 0.583422 0.866725
O O11 0.250000 0.578268 0.000000
O O12 0.500000 0.156098 0.359903
O O13 0.763535 0.100599 0.371755
O O14 0.728675 0.940518 0.262487
O O15 0.000000 0.944708 0.332507
O O16 0.750000 0.000000 0.354960
O O17 0.265221 0.750000 0.925825
O O18 0.000000 0.805871 0.930952
O O19 0.500000 0.438775 0.196701
O O20 0.750000 0.500000 0.174927
#
# Coordination Sequence:
#
# PCOD9503093 Si02
#       7
#    16   8  16  16  16  16  16
#     4   9  15  27  50  77 100 127 167 212 261 321
#     4  10  20  36  56  82 114 152 191 226 267 310
#     4  11  23  38  54  72  95 129 175 221 263 318
#     4   9  16  30  54  79 107 144 185 222 261 317
#     4   9  17  31  52  79 108 137 172 217 266 321
#     4  10  21  35  50  72 102 133 165 210 267 324
#     4   9  19  35  55  78 104 131 164 207 261 319
#
# _framework density 21.987904
#
# number of rings (size 3 to 8) (size 9 to 14) (size 15 to 20)
#    0.000    2.462    0.769    1.846    0.000    5.231 
#    0.000    6.923    0.000    0.462    0.000    3.231 
#    0.000    0.000    0.000    0.000    0.000    0.000 
#
# Total GULP energy -289890.803552 kJ/mol
# GULP energy per Si atom -5574.823145 kJ/mol
# Density = 2.193786 g / cm^3
# Si number density = 21.987904 Si / 1000 Ang^3
#
#
#
# Elastic Constant Matrix: (Units=GPa)
#
#
# Indices 1 2 3 4 5 6 
#
# 1 26.1201 1.4409 -1.6266 0.0000 0.0000 0.0000
# 2 1.4409 172.2853 50.8335 0.0000 0.0000 0.0000
# 3 -1.6266 50.8335 52.2344 0.0000 0.0000 0.0000
# 4 0.0000 0.0000 0.0000 2.1314 0.0000 0.0000
# 5 0.0000 0.0000 0.0000 0.0000 19.0999 0.0000
# 6 0.0000 0.0000 0.0000 0.0000 0.0000 12.5725
#
#
#
# Elastic Compliance Matrix: (Units=1/GPa)
#
#
# Indices 1 2 3 4 5 6 
#
# 1 0.038469 -0.000947 0.002120 0.000000 0.000000 0.000000
# 2 -0.000947 0.008166 -0.007976 0.000000 0.000000 0.000000
# 3 0.002120 -0.007976 0.026973 0.000000 0.000000 0.000000
# 4 0.000000 0.000000 0.000000 0.469174 0.000000 0.000000
# 5 0.000000 0.000000 0.000000 0.000000 0.052356 0.000000
# 6 0.000000 0.000000 0.000000 0.000000 0.000000 0.079539
#
#
# Mechanical properties :
#
#
# Convention : Reuss Voigt Hill
#
# Bulk Modulus (GPa) = 16.66663 39.10393 27.88528
# Shear Modulus (GPa) = 7.05932 20.09356 13.57644
#
# Velocity S-wave (km/s) = 1.79374 3.02627 2.48755
# Velocity P-wave (km/s) = 3.44766 5.48033 4.57823
#
# Compressibility (1/GPa) = 0.06000011
#
# Stress axis : x y z
#
# Youngs Moduli (GPa) = 25.99497 122.46440 37.07454
#
# Poissons Ratio (x) = 0.11599 -0.07859
# Poissons Ratio (y) = 0.02462 0.29571
# Poissons Ratio (z) = -0.05510 0.97679
#
# Static dielectric constant tensor:
#      x y z
#    x 1.826540 0.000000 0.000000 
#    y 0.000000 1.857770 0.000000 
#    z 0.000000 0.000000 1.811060 
# 
# From -- ./inp_files/37342.got.cif
#   From: 2010.05.17/outbox.cif.g08.bks.cpg/sg67_19_cif.got.tgz:37342.got - 2010.06.03 18:28:57.
