data_PCOD9503886
_publ_section_title
;
Structure prediction by ZEFSAII (Michael W. Deem and Ramdas Pophale) SiO2 
 PCOD9503886
Probable space group: C M M A
;
_chemical_formula_sum "Si O2"
_cell_formula_units_Z 96
_cell_length_a 26.261240
_cell_length_b 9.172785
_cell_length_c 18.998350
_cell_angle_alpha 90.000000
_cell_angle_beta 90.000000
_cell_angle_gamma 90.000000
_cell_volume 4576.487992
_symmetry_space_group_name_H-M "C M M A"
_symmetry_group_IT_number 67
_symmetry_cell_setting 'orthorhombic'
loop_
_space_group_symop_operation_xyz
x,y,z
-x,1/2-y,z
x,-y,-z
-x,1/2+y,-z
-x,-y,-z
x,1/2+y,-z
-x,y,z
x,1/2-y,z
1/2+x,1/2+y,z
1/2-x,-y,z
1/2+x,1/2-y,-z
1/2-x,y,-z
1/2-x,1/2-y,-z
1/2+x,y,-z
1/2-x,1/2+y,z
1/2+x,-y,z
loop_
_atom_site_type_symbol
_atom_site_label
_atom_site_fract_x
_atom_site_fract_y
_atom_site_fract_z
Si Si1 0.413623 0.428155 0.773321
Si Si2 0.796246 0.918674 0.925506
Si Si3 0.302281 0.580494 0.278017
Si Si4 0.583563 0.581259 0.074186
Si Si5 0.943005 0.077221 0.630151
Si Si6 0.653369 0.079661 0.567027
O O1 0.416249 0.250000 0.768174
O O2 0.353849 0.470055 0.761104
O O3 0.436328 0.471200 0.849635
O O4 0.440506 0.503091 0.707283
O O5 0.782063 0.750000 0.930154
O O6 0.855827 0.922219 0.908016
O O7 0.750000 0.000000 0.886037
O O8 0.798036 0.000000 0.000000
O O9 0.296168 0.750000 0.258990
O O10 0.250000 0.500000 0.264448
O O11 0.314702 0.568408 0.361119
O O12 0.568867 0.750000 0.064086
O O13 0.573716 0.500000 0.000000
O O14 0.932271 0.250000 0.635722
O O15 0.000000 0.058579 0.601647
O O16 0.900076 0.998727 0.584246
O O17 0.645417 0.250000 0.552256
O O18 0.677113 0.000000 0.500000
#
# Coordination Sequence:
#
# PCOD9503886 Si02
#       6
#    16  16  16  16  16  16
#     4   9  19  36  54  75 105 140 179 222 269 323
#     4   9  15  23  35  53  80 114 152 194 240 291
#     4   9  19  34  52  75 105 144 187 226 263 307
#     4   9  18  31  47  68  96 129 167 214 267 321
#     4  10  21  37  58  84 110 137 173 217 266 321
#     4  10  21  37  57  83 115 148 182 220 261 308
#
# _framework density 20.976783000000001
#
# number of rings (size 3 to 8) (size 9 to 14) (size 15 to 20)
#    0.000    2.667    0.000    3.000    0.000    7.333 
#    0.000    1.667    0.000    0.500    0.000    0.000 
#    0.000    0.000    0.000    0.000    0.000    0.000 
#
# Total GULP energy -267518.608777 kJ/mol
# GULP energy per Si atom -5573.304350 kJ/mol
# Density = 2.092904 g / cm^3
# Si number density = 20.976783 Si / 1000 Ang^3
#
#
#
# Elastic Constant Matrix: (Units=GPa)
#
#
# Indices 1 2 3 4 5 6 
#
# 1 67.2750 21.9820 -7.5005 0.0000 0.0000 0.0000
# 2 21.9820 80.0275 37.1265 0.0000 0.0000 0.0000
# 3 -7.5005 37.1265 111.3540 0.0000 0.0000 0.0000
# 4 0.0000 0.0000 0.0000 14.3553 0.0000 0.0000
# 5 0.0000 0.0000 0.0000 0.0000 -16.3532 0.0000
# 6 0.0000 0.0000 0.0000 0.0000 0.0000 19.7873
#
#
#
# Elastic Compliance Matrix: (Units=1/GPa)
#
#
# Indices 1 2 3 4 5 6 
#
# 1 0.017268 -0.006250 0.003247 0.000000 0.000000 0.000000
# 2 -0.006250 0.017044 -0.006104 0.000000 0.000000 0.000000
# 3 0.003247 -0.006104 0.011234 0.000000 0.000000 0.000000
# 4 0.000000 0.000000 0.000000 0.069661 0.000000 0.000000
# 5 0.000000 0.000000 0.000000 0.000000 -0.061150 0.000000
# 6 0.000000 0.000000 0.000000 0.000000 0.000000 0.050537
#
#
# Mechanical properties :
#
#
# Convention : Reuss Voigt Hill
#
# Bulk Modulus (GPa) = 36.58479 40.20804 38.39642
# Shear Modulus (GPa) = 37.90223 17.36111 27.63167
#
# Velocity S-wave (km/s) = 4.25534 2.87998 3.63333
# Velocity P-wave (km/s) = 6.45154 5.50169 5.99545
#
# Compressibility (1/GPa) = 0.02733376
#
# Stress axis : x y z
#
# Youngs Moduli (GPa) = 57.90923 58.67193 89.01508
#
# Poissons Ratio (x) = 0.36667 -0.28902
# Poissons Ratio (y) = 0.36191 0.54331
# Poissons Ratio (z) = -0.18802 0.35811
#
# Static dielectric constant tensor:
#      x y z
#    x 1.688990 0.000000 0.000000 
#    y 0.000000 1.710340 0.000000 
#    z 0.000000 0.000000 1.795670 
# 
# From -- ./inp_files/39873.got.cif
#   From: 2010.05.17/outbox.cif.g08.bks.cpg/sg67_20_cif.got.tgz:39873.got - 2010.06.03 18:28:57.
