data_PCOD9503969
_publ_section_title
;
Structure prediction by ZEFSAII (Michael W. Deem and Ramdas Pophale) SiO2 
 PCOD9503969
Probable space group: C M M A
;
_chemical_formula_sum "Si O2"
_cell_formula_units_Z 96
_cell_length_a 8.880470
_cell_length_b 27.695749
_cell_length_c 24.743489
_cell_angle_alpha 90.000000
_cell_angle_beta 90.000000
_cell_angle_gamma 90.000000
_cell_volume 6085.692497
_symmetry_space_group_name_H-M "C M M A"
_symmetry_group_IT_number 67
_symmetry_cell_setting 'orthorhombic'
loop_
_space_group_symop_operation_xyz
x,y,z
-x,1/2-y,z
x,-y,-z
-x,1/2+y,-z
-x,-y,-z
x,1/2+y,-z
-x,y,z
x,1/2-y,z
1/2+x,1/2+y,z
1/2-x,-y,z
1/2+x,1/2-y,-z
1/2-x,y,-z
1/2-x,1/2-y,-z
1/2+x,y,-z
1/2-x,1/2+y,z
1/2+x,-y,z
loop_
_atom_site_type_symbol
_atom_site_label
_atom_site_fract_x
_atom_site_fract_y
_atom_site_fract_z
Si Si1 0.319180 0.807765 0.674577
Si Si2 0.318426 0.695390 0.883971
Si Si3 0.181065 0.948335 0.169959
Si Si4 0.820534 0.192420 0.554892
Si Si5 0.319989 0.098945 0.056735
Si Si6 0.820307 0.146417 0.219782
O O1 0.500000 0.814578 0.679606
O O2 0.292518 0.750000 0.678273
O O3 0.272060 0.824931 0.614363
O O4 0.235051 0.834354 0.722642
O O5 0.500000 0.692191 0.876958
O O6 0.280828 0.750000 0.900252
O O7 0.274497 0.653595 0.926201
O O8 0.242462 0.681735 0.827162
O O9 0.221374 0.934191 0.107915
O O10 0.248911 0.905618 0.206218
O O11 0.000000 0.948436 0.174246
O O12 0.250000 0.000000 0.183406
O O13 0.788036 0.250000 0.555445
O O14 0.750000 0.171964 0.500000
O O15 0.000000 0.187105 0.551867
O O16 0.500000 0.098035 0.051857
O O17 0.250000 0.084593 0.000000
O O18 0.000000 0.144269 0.217032
#
# Coordination Sequence:
#
# PCOD9503969 Si02
#       6
#    16  16  16  16  16  16
#     4   9  17  29  44  63  92 131 166 194 230 273
#     4   9  18  33  49  64  89 126 159 187 226 271
#     4  10  21  38  56  72  91 116 145 180 228 280
#     4   8  14  24  38  57  84 121 162 198 231 266
#     4   9  19  33  49  70  94 119 148 182 220 267
#     4  11  21  31  46  70  95 118 151 193 232 272
#
# _framework density 15.774704
#
# number of rings (size 3 to 8) (size 9 to 14) (size 15 to 20)
#    0.000    2.667    0.000    4.500    0.000    7.333 
#    0.000    3.333    0.000    0.000    0.000    0.000 
#    0.000    0.667    0.000    7.000    0.000    4.167 
#
# Total GULP energy -267530.652272 kJ/mol
# GULP energy per Si atom -5573.555256 kJ/mol
# Density = 1.573880 g / cm^3
# Si number density = 15.774704 Si / 1000 Ang^3
#
#
#
# Elastic Constant Matrix: (Units=GPa)
#
#
# Indices 1 2 3 4 5 6 
#
# 1 25.6702 12.7510 16.6497 0.0000 0.0000 0.0000
# 2 12.7510 48.7753 0.3625 0.0000 0.0000 0.0000
# 3 16.6497 0.3625 82.5428 0.0000 0.0000 0.0000
# 4 0.0000 0.0000 0.0000 8.6352 0.0000 0.0000
# 5 0.0000 0.0000 0.0000 0.0000 26.6795 0.0000
# 6 0.0000 0.0000 0.0000 0.0000 0.0000 19.4709
#
#
#
# Elastic Compliance Matrix: (Units=1/GPa)
#
#
# Indices 1 2 3 4 5 6 
#
# 1 0.052586 -0.013669 -0.010547 0.000000 0.000000 0.000000
# 2 -0.013669 0.024056 0.002651 0.000000 0.000000 0.000000
# 3 -0.010547 0.002651 0.014231 0.000000 0.000000 0.000000
# 4 0.000000 0.000000 0.000000 0.115805 0.000000 0.000000
# 5 0.000000 0.000000 0.000000 0.000000 0.037482 0.000000
# 6 0.000000 0.000000 0.000000 0.000000 0.000000 0.051359
#
#
# Mechanical properties :
#
#
# Convention : Reuss Voigt Hill
#
# Bulk Modulus (GPa) = 20.94513 24.05720 22.50117
# Shear Modulus (GPa) = 14.10192 19.43880 16.77036
#
# Velocity S-wave (km/s) = 2.99316 3.51419 3.26409
# Velocity P-wave (km/s) = 5.02512 5.63468 5.33861
#
# Compressibility (1/GPa) = 0.04774379
#
# Stress axis : x y z
#
# Youngs Moduli (GPa) = 19.01639 41.57001 70.27044
#
# Poissons Ratio (x) = 0.56821 0.74115
# Poissons Ratio (y) = 0.25993 -0.18632
# Poissons Ratio (z) = 0.20057 -0.11022
#
# Static dielectric constant tensor:
#      x y z
#    x 1.493350 0.000000 0.000000 
#    y 0.000000 1.514320 0.000000 
#    z 0.000000 0.000000 1.534590 
# 
# From -- ./inp_files/40917.got.cif
#   From: 2010.05.17/outbox.cif.g08.bks.cpg/sg67_21_cif.got.tgz:40917.got - 2010.06.03 18:28:57.
