data_PCOD9503237
_publ_section_title
;
Structure prediction by ZEFSAII (Michael W. Deem and Ramdas Pophale) SiO2 
 PCOD9503237
Probable space group: C M M A
;
_chemical_formula_sum "Si O2"
_cell_formula_units_Z 112
_cell_length_a 29.515442
_cell_length_b 14.466500
_cell_length_c 11.973608
_cell_angle_alpha 90.000000
_cell_angle_beta 90.000000
_cell_angle_gamma 90.000000
_cell_volume 5112.552708
_symmetry_space_group_name_H-M "C M M A"
_symmetry_group_IT_number 67
_symmetry_cell_setting 'orthorhombic'
loop_
_space_group_symop_operation_xyz
x,y,z
-x,1/2-y,z
x,-y,-z
-x,1/2+y,-z
-x,-y,-z
x,1/2+y,-z
-x,y,z
x,1/2-y,z
1/2+x,1/2+y,z
1/2-x,-y,z
1/2+x,1/2-y,-z
1/2-x,y,-z
1/2-x,1/2-y,-z
1/2+x,y,-z
1/2-x,1/2+y,z
1/2+x,-y,z
loop_
_atom_site_type_symbol
_atom_site_label
_atom_site_fract_x
_atom_site_fract_y
_atom_site_fract_z
Si Si1 0.301780 0.889421 0.005588
Si Si2 0.643184 0.857092 0.229604
Si Si3 0.551368 0.535177 0.242289
Si Si4 0.450559 0.646544 0.464381
Si Si5 0.405350 0.358058 0.307123
Si Si6 0.726119 0.862388 0.380679
Si Si7 0.689220 0.355627 0.243817
O O1 0.320350 0.856419 0.887386
O O2 0.250000 0.857926 0.000000
O O3 0.326351 0.859553 0.117703
O O4 0.302744 0.000000 0.000000
O O5 0.631827 0.750000 0.252969
O O6 0.596751 0.912021 0.201216
O O7 0.676326 0.890483 0.332206
O O8 0.500000 0.555950 0.199695
O O9 0.551797 0.569966 0.370706
O O10 0.561164 0.426076 0.241867
O O11 0.500000 0.640081 0.519906
O O12 0.448041 0.750000 0.413858
O O13 0.415249 0.639493 0.561934
O O14 0.408140 0.250000 0.271958
O O15 0.355255 0.399278 0.294773
O O16 0.722775 0.750000 0.384262
O O17 0.750000 0.889155 0.500000
O O18 0.762828 0.892562 0.286088
O O19 0.689580 0.250000 0.284423
#
# Coordination Sequence:
#
# PCOD9503237 Si02
#       7
#    16  16  16  16  16  16  16
#     4  11  22  38  62  89 124 163 212 265 310 374
#     4  11  23  39  65  96 130 171 214 262 320 380
#     4  11  23  39  59  88 126 165 214 269 319 375
#     4   9  18  34  57  84 116 158 208 260 313 371
#     4  10  21  36  58  86 119 163 212 262 319 379
#     4   9  19  35  57  90 132 172 206 248 310 384
#     4  10  20  36  60  88 122 161 205 259 314 374
#
# _framework density 21.906863999999999
#
# number of rings (size 3 to 8) (size 9 to 14) (size 15 to 20)
#    0.000    1.857    1.429    2.571    2.000    3.429 
#    0.000    0.000    0.000    8.143    0.000    6.000 
#    0.000    0.000    0.000    0.000    0.000    0.000 
#
# Total GULP energy -312181.996610 kJ/mol
# GULP energy per Si atom -5574.678511 kJ/mol
# Density = 2.185700 g / cm^3
# Si number density = 21.906864 Si / 1000 Ang^3
#
#
#
# Elastic Constant Matrix: (Units=GPa)
#
#
# Indices 1 2 3 4 5 6 
#
# 1 149.7290 36.0974 43.1175 0.0000 0.0000 0.0000
# 2 36.0974 99.2387 0.7350 0.0000 0.0000 0.0000
# 3 43.1175 0.7350 67.7627 0.0000 0.0000 0.0000
# 4 0.0000 0.0000 0.0000 70.5991 0.0000 0.0000
# 5 0.0000 0.0000 0.0000 0.0000 34.5177 0.0000
# 6 0.0000 0.0000 0.0000 0.0000 0.0000 -24.2519
#
#
#
# Elastic Compliance Matrix: (Units=1/GPa)
#
#
# Indices 1 2 3 4 5 6 
#
# 1 0.009132 -0.003279 -0.005775 0.000000 0.000000 0.000000
# 2 -0.003279 0.011255 0.001964 0.000000 0.000000 0.000000
# 3 -0.005775 0.001964 0.018411 0.000000 0.000000 0.000000
# 4 0.000000 0.000000 0.000000 0.014164 0.000000 0.000000
# 5 0.000000 0.000000 0.000000 0.000000 0.028971 0.000000
# 6 0.000000 0.000000 0.000000 0.000000 0.000000 -0.041234
#
#
# Mechanical properties :
#
#
# Convention : Reuss Voigt Hill
#
# Bulk Modulus (GPa) = 40.62048 52.95892 46.78970
# Shear Modulus (GPa) = 79.25736 31.95835 55.60786
#
# Velocity S-wave (km/s) = 6.02144 3.82360 5.04370
# Velocity P-wave (km/s) = 8.18085 6.61214 7.43796
#
# Compressibility (1/GPa) = 0.02461813
#
# Stress axis : x y z
#
# Youngs Moduli (GPa) = 109.50004 88.85013 54.31547
#
# Poissons Ratio (x) = 0.29135 0.31369
# Poissons Ratio (y) = 0.35906 -0.10670
# Poissons Ratio (z) = 0.63241 -0.17454
#
# Static dielectric constant tensor:
#      x y z
#    x 1.857190 0.000000 0.000000 
#    y 0.000000 1.876430 0.000000 
#    z 0.000000 0.000000 3.482000 
# 
# From -- ./inp_files/23814.got.cif
#   From: 2010.05.17/outbox.cif.g08.bks.cpg/sg67_12_cif.got.tgz:23814.got - 2010.06.03 18:28:57.
