data_PCOD9503284
_publ_section_title
;
Structure prediction by ZEFSAII (Michael W. Deem and Ramdas Pophale) SiO2 
 PCOD9503284
Probable space group: C M M A
;
_chemical_formula_sum "Si O2"
_cell_formula_units_Z 112
_cell_length_a 14.597517
_cell_length_b 15.100715
_cell_length_c 23.059328
_cell_angle_alpha 90.000000
_cell_angle_beta 90.000000
_cell_angle_gamma 90.000000
_cell_volume 5083.035556
_symmetry_space_group_name_H-M "C M M A"
_symmetry_group_IT_number 67
_symmetry_cell_setting 'orthorhombic'
loop_
_space_group_symop_operation_xyz
x,y,z
-x,1/2-y,z
x,-y,-z
-x,1/2+y,-z
-x,-y,-z
x,1/2+y,-z
-x,y,z
x,1/2-y,z
1/2+x,1/2+y,z
1/2-x,-y,z
1/2+x,1/2-y,-z
1/2-x,y,-z
1/2-x,1/2-y,-z
1/2+x,y,-z
1/2-x,1/2+y,z
1/2+x,-y,z
loop_
_atom_site_type_symbol
_atom_site_label
_atom_site_fract_x
_atom_site_fract_y
_atom_site_fract_z
Si Si1 0.891754 0.848824 0.353758
Si Si2 0.894427 0.853864 0.013071
Si Si3 0.730767 0.598990 0.092457
Si Si4 0.894361 0.857948 0.479015
Si Si5 0.901020 0.346260 0.189986
Si Si6 0.850181 0.479030 0.286399
Si Si7 0.888092 0.645385 0.606459
O O1 0.856332 0.750000 0.338578
O O2 0.852582 0.879612 0.416341
O O3 0.000000 0.838801 0.364349
O O4 0.884812 0.925494 0.306858
O O5 0.895257 0.750000 0.997058
O O6 0.826176 0.863138 0.067836
O O7 0.000000 0.881978 0.022226
O O8 0.841727 0.902698 0.960926
O O9 0.750000 0.500000 0.111677
O O10 0.680712 0.647826 0.144546
O O11 0.895516 0.750000 0.480001
O O12 0.856628 0.883783 0.541847
O O13 0.000000 0.889482 0.479342
O O14 0.896201 0.250000 0.219967
O O15 0.898887 0.424008 0.236524
O O16 0.000000 0.350475 0.158867
O O17 0.750000 0.500000 0.264153
O O18 0.849168 0.415439 0.342798
O O19 0.866861 0.750000 0.613871
O O20 0.000000 0.637732 0.608414
#
# Coordination Sequence:
#
# PCOD9503284 Si02
#       7
#    16  16  16  16  16  16  16
#     4   9  18  35  58  81 108 145 189 237 293 362
#     4  10  20  36  62  96 135 178 217 252 296 351
#     4  11  22  37  60  95 135 170 206 253 306 364
#     4   7  12  26  51  81 107 135 178 234 295 356
#     4  11  24  44  69  90 112 151 207 271 328 372
#     4  12  25  38  53  80 115 151 193 242 300 370
#     4   9  17  33  58  83 107 139 187 247 300 351
#
# _framework density 22.034078999999998
#
# number of rings (size 3 to 8) (size 9 to 14) (size 15 to 20)
#    0.000    2.143    0.000    6.857    0.000    5.714 
#    0.000    3.571    0.000    2.571    0.000    4.000 
#    0.000    0.000    0.000    0.000    0.000    0.000 
#
# Total GULP energy -312573.769179 kJ/mol
# GULP energy per Si atom -5581.674450 kJ/mol
# Density = 2.198393 g / cm^3
# Si number density = 22.034079 Si / 1000 Ang^3
#
#
#
# Elastic Constant Matrix: (Units=GPa)
#
#
# Indices 1 2 3 4 5 6 
#
# 1 116.4523 29.4549 32.8330 0.0000 0.0000 0.0000
# 2 29.4549 101.2502 38.7627 0.0000 0.0000 0.0000
# 3 32.8330 38.7627 85.3971 0.0000 0.0000 0.0000
# 4 0.0000 0.0000 0.0000 72.4533 0.0000 0.0000
# 5 0.0000 0.0000 0.0000 0.0000 2870.2506 0.0000
# 6 0.0000 0.0000 0.0000 0.0000 0.0000 71.1667
#
#
#
# Elastic Compliance Matrix: (Units=1/GPa)
#
#
# Indices 1 2 3 4 5 6 
#
# 1 0.009872 -0.001717 -0.003016 0.000000 0.000000 0.000000
# 2 -0.001717 0.012253 -0.004901 0.000000 0.000000 0.000000
# 3 -0.003016 -0.004901 0.015094 0.000000 0.000000 0.000000
# 4 0.000000 0.000000 0.000000 0.013802 0.000000 0.000000
# 5 0.000000 0.000000 0.000000 0.000000 0.000348 0.000000
# 6 0.000000 0.000000 0.000000 0.000000 0.000000 0.014052
#
#
# Mechanical properties :
#
#
# Convention : Reuss Voigt Hill
#
# Bulk Modulus (GPa) = 55.71145 56.13343 55.92244
# Shear Modulus (GPa) = 55.14318 616.24404 335.69361
#
# Velocity S-wave (km/s) = 5.00806 16.74171 12.35649
# Velocity P-wave (km/s) = 7.66681 19.98110 15.13314
#
# Compressibility (1/GPa) = 0.01794963
#
# Stress axis : x y z
#
# Youngs Moduli (GPa) = 101.29767 81.61590 66.24990
#
# Poissons Ratio (x) = 0.14015 0.19981
# Poissons Ratio (y) = 0.17395 0.32471
# Poissons Ratio (z) = 0.30552 0.40003
#
# Static dielectric constant tensor:
#      x y z
#    x 1.905560 0.000000 0.000000 
#    y 0.000000 1.831250 0.000000 
#    z 0.000000 0.000000 1.801780 
# 
# From -- ./inp_files/42012.got.cif
#   From: 2010.05.17/outbox.cif.g08.bks.cpg/sg67_22_cif.got.tgz:42012.got - 2010.06.03 18:28:57.
