data_PCOD9503527
_publ_section_title
;
Structure prediction by ZEFSAII (Michael W. Deem and Ramdas Pophale) SiO2 
 PCOD9503527
Probable space group: C M M A
;
_chemical_formula_sum "Si O2"
_cell_formula_units_Z 88
_cell_length_a 14.581480
_cell_length_b 14.635362
_cell_length_c 21.413358
_cell_angle_alpha 90.000000
_cell_angle_beta 90.000000
_cell_angle_gamma 90.000000
_cell_volume 4569.722767
_symmetry_space_group_name_H-M "C M M A"
_symmetry_group_IT_number 67
_symmetry_cell_setting 'orthorhombic'
loop_
_space_group_symop_operation_xyz
x,y,z
-x,1/2-y,z
x,-y,-z
-x,1/2+y,-z
-x,-y,-z
x,1/2+y,-z
-x,y,z
x,1/2-y,z
1/2+x,1/2+y,z
1/2-x,-y,z
1/2+x,1/2-y,-z
1/2-x,y,-z
1/2-x,1/2-y,-z
1/2+x,y,-z
1/2-x,1/2+y,z
1/2+x,-y,z
loop_
_atom_site_type_symbol
_atom_site_label
_atom_site_fract_x
_atom_site_fract_y
_atom_site_fract_z
Si Si1 0.110522 0.979786 0.601982
Si Si2 0.500000 0.145434 0.134430
Si Si3 0.802993 0.361545 0.816898
Si Si4 0.250000 0.000000 0.710877
Si Si5 0.198149 0.357217 0.060632
Si Si6 0.500000 0.392876 0.988936
Si Si7 0.111201 0.146485 0.512935
O O1 0.165416 0.974890 0.665832
O O2 0.136021 0.074795 0.567032
O O3 0.000000 0.977950 0.610236
O O4 0.136297 0.899670 0.553116
O O5 0.500000 0.250000 0.155486
O O6 0.404563 0.107738 0.160364
O O7 0.500000 0.146155 0.059189
O O8 0.800707 0.250000 0.809763
O O9 0.776141 0.414781 0.754765
O O10 0.734721 0.390177 0.873082
O O11 0.222209 0.250000 0.061748
O O12 0.090937 0.366694 0.048171
O O13 0.250000 0.396713 0.000000
O O14 0.500000 0.500000 0.000000
O O15 0.144202 0.250000 0.520847
O O16 0.000000 0.148734 0.513330
#
# Coordination Sequence:
#
# PCOD9503527 Si02
#       7
#    16   8  16   8  16   8  16
#     4   9  20  38  57  87 121 157 195 237 301 351
#     4  10  20  42  66  84 112 151 198 253 307 357
#     4  10  24  42  62  86 116 160 205 246 299 361
#     4  12  26  39  59  82 126 166 202 250 286 348
#     4  10  20  39  62  83 113 147 190 251 308 358
#     4  12  24  32  60  96 116 140 186 248 321 379
#     4   8  15  33  63  92 119 149 191 247 298 349
#
# _framework density 19.257186000000001
#
# number of rings (size 3 to 8) (size 9 to 14) (size 15 to 20)
#    0.000    2.182    1.818    1.909    3.818    3.273 
#    1.636    0.909    0.000    0.000    0.000    0.000 
#    0.000    0.000    0.000    0.000    0.000    0.000 
#
# Total GULP energy -245579.892120 kJ/mol
# GULP energy per Si atom -5581.361185 kJ/mol
# Density = 1.921336 g / cm^3
# Si number density = 19.257186 Si / 1000 Ang^3
#
#
#
# Elastic Constant Matrix: (Units=GPa)
#
#
# Indices 1 2 3 4 5 6 
#
# 1 112.3297 6.1809 69.6439 0.0000 0.0000 0.0000
# 2 6.1809 87.2772 31.2509 0.0000 0.0000 0.0000
# 3 69.6439 31.2509 141.6754 0.0000 0.0000 0.0000
# 4 0.0000 0.0000 0.0000 18.2228 0.0000 0.0000
# 5 0.0000 0.0000 0.0000 0.0000 34.1637 0.0000
# 6 0.0000 0.0000 0.0000 0.0000 0.0000 -54.9056
#
#
#
# Elastic Compliance Matrix: (Units=1/GPa)
#
#
# Indices 1 2 3 4 5 6 
#
# 1 0.012979 0.001482 -0.006707 0.000000 0.000000 0.000000
# 2 0.001482 0.012610 -0.003510 0.000000 0.000000 0.000000
# 3 -0.006707 -0.003510 0.011130 0.000000 0.000000 0.000000
# 4 0.000000 0.000000 0.000000 0.054876 0.000000 0.000000
# 5 0.000000 0.000000 0.000000 0.000000 0.029271 0.000000
# 6 0.000000 0.000000 0.000000 0.000000 0.000000 -0.018213
#
#
# Mechanical properties :
#
#
# Convention : Reuss Voigt Hill
#
# Bulk Modulus (GPa) = 51.95158 61.71485 56.83321
# Shear Modulus (GPa) = 39.51349 15.10995 27.31172
#
# Velocity S-wave (km/s) = 4.53469 2.80418 3.77007
# Velocity P-wave (km/s) = 7.37931 6.52701 6.96620
#
# Compressibility (1/GPa) = 0.01924869
#
# Stress axis : x y z
#
# Youngs Moduli (GPa) = 77.04597 79.30447 89.84904
#
# Poissons Ratio (x) = -0.11757 0.60264
# Poissons Ratio (y) = -0.11422 0.31539
# Poissons Ratio (z) = 0.51677 0.27837
#
# Static dielectric constant tensor:
#      x y z
#    x 1.687690 0.000000 0.000000 
#    y 0.000000 1.696740 0.000000 
#    z 0.000000 0.000000 1.650830 
# 
# From -- ./inp_files/38346.got.cif
#   From: 2010.05.17/outbox.cif.g08.bks.cpg/sg67_20_cif.got.tgz:38346.got - 2010.06.03 18:28:57.
