data_PCOD9503472
_publ_section_title
;
Structure prediction by ZEFSAII (Michael W. Deem and Ramdas Pophale) SiO2 
 PCOD9503472
Probable space group: C M M A
;
_chemical_formula_sum "Si O2"
_cell_formula_units_Z 96
_cell_length_a 15.944456
_cell_length_b 19.527129
_cell_length_c 15.423625
_cell_angle_alpha 90.000000
_cell_angle_beta 90.000000
_cell_angle_gamma 90.000000
_cell_volume 4802.137148
_symmetry_space_group_name_H-M "C M M A"
_symmetry_group_IT_number 67
_symmetry_cell_setting 'orthorhombic'
loop_
_space_group_symop_operation_xyz
x,y,z
-x,1/2-y,z
x,-y,-z
-x,1/2+y,-z
-x,-y,-z
x,1/2+y,-z
-x,y,z
x,1/2-y,z
1/2+x,1/2+y,z
1/2-x,-y,z
1/2+x,1/2-y,-z
1/2-x,y,-z
1/2-x,1/2-y,-z
1/2+x,y,-z
1/2-x,1/2+y,z
1/2+x,-y,z
loop_
_atom_site_type_symbol
_atom_site_label
_atom_site_fract_x
_atom_site_fract_y
_atom_site_fract_z
Si Si1 0.350025 0.171826 0.490700
Si Si2 0.308322 0.935809 0.239996
Si Si3 0.656591 0.076110 0.960476
Si Si4 0.500000 0.327608 0.004288
Si Si5 0.000000 0.172520 0.791637
Si Si6 0.904672 0.958574 0.582431
Si Si7 0.166227 0.668677 0.290422
O O1 0.369644 0.250000 0.513095
O O2 0.250000 0.161826 0.500000
O O3 0.399101 0.119134 0.549283
O O4 0.363883 0.160371 0.389155
O O5 0.345470 0.922910 0.144692
O O6 0.363337 0.958340 0.323103
O O7 0.250433 0.872356 0.270313
O O8 0.250000 0.000000 0.223133
O O9 0.584023 0.129609 0.984453
O O10 0.750000 0.093560 0.000000
O O11 0.638567 0.000000 0.000000
O O12 0.500000 0.250000 0.966612
O O13 0.500000 0.320786 0.107054
O O14 0.912047 0.140515 0.764252
O O15 0.000000 0.250000 0.751739
O O16 0.000000 0.983089 0.590945
O O17 0.865245 0.000000 0.500000
O O18 0.179805 0.750000 0.274566
#
# Coordination Sequence:
#
# PCOD9503472 Si02
#       7
#    16  16  16   8   8  16  16
#     4  10  20  38  62  89 127 173 215 259 315 378
#     4  12  24  42  70  93 127 173 220 268 326 393
#     4  11  24  47  70 101 135 178 227 276 339 411
#     4  11  25  45  71 102 136 174 218 285 352 404
#     4   9  20  37  61  96 128 159 209 264 316 374
#     4  11  26  43  60  94 133 171 217 267 323 383
#     4  10  21  38  63  97 130 168 217 265 318 383
#
# _framework density 19.991098999999998
#
# number of rings (size 3 to 8) (size 9 to 14) (size 15 to 20)
#    0.000    1.333    3.333    2.250    2.333    1.333 
#    1.500    0.000    0.000    0.000    0.000    0.000 
#    0.000    0.000    0.000    0.000    0.000    0.000 
#
# Total GULP energy -267753.110597 kJ/mol
# GULP energy per Si atom -5578.189804 kJ/mol
# Density = 1.994560 g / cm^3
# Si number density = 19.991099 Si / 1000 Ang^3
#
#
#
# Elastic Constant Matrix: (Units=GPa)
#
#
# Indices 1 2 3 4 5 6 
#
# 1 69.9185 30.5868 51.9871 0.0000 0.0000 0.0000
# 2 30.5868 60.2878 15.1078 0.0000 0.0000 0.0000
# 3 51.9871 15.1078 109.0421 0.0000 0.0000 0.0000
# 4 0.0000 0.0000 0.0000 -41.1904 0.0000 0.0000
# 5 0.0000 0.0000 0.0000 0.0000 40.7377 0.0000
# 6 0.0000 0.0000 0.0000 0.0000 0.0000 10.3693
#
#
#
# Elastic Compliance Matrix: (Units=1/GPa)
#
#
# Indices 1 2 3 4 5 6 
#
# 1 0.027982 -0.011244 -0.011783 0.000000 0.000000 0.000000
# 2 -0.011244 0.021702 0.002354 0.000000 0.000000 0.000000
# 3 -0.011783 0.002354 0.014462 0.000000 0.000000 0.000000
# 4 0.000000 0.000000 0.000000 -0.024277 0.000000 0.000000
# 5 0.000000 0.000000 0.000000 0.000000 0.024547 0.000000
# 6 0.000000 0.000000 0.000000 0.000000 0.000000 0.096439
#
#
# Mechanical properties :
#
#
# Convention : Reuss Voigt Hill
#
# Bulk Modulus (GPa) = 43.85916 48.29021 46.07468
# Shear Modulus (GPa) = 23.83207 11.42110 17.62658
#
# Velocity S-wave (km/s) = 3.45648 2.39280 2.97260
# Velocity P-wave (km/s) = 6.15765 5.64290 5.90588
#
# Compressibility (1/GPa) = 0.02280025
#
# Stress axis : x y z
#
# Youngs Moduli (GPa) = 35.73683 46.07909 69.14511
#
# Poissons Ratio (x) = 0.51811 0.81474
# Poissons Ratio (y) = 0.40182 -0.16276
# Poissons Ratio (z) = 0.42109 -0.10847
#
# Static dielectric constant tensor:
#      x y z
#    x 0.949050 0.000000 0.000000 
#    y 0.000000 1.753800 0.000000 
#    z 0.000000 0.000000 1.804580 
# 
# From -- ./inp_files/27285.got.cif
#   From: 2010.05.17/outbox.cif.g08.bks.cpg/sg67_14_cif.got.tgz:27285.got - 2010.06.03 18:28:57.
