data_PCOD9503814
_publ_section_title
;
Structure prediction by ZEFSAII (Michael W. Deem and Ramdas Pophale) SiO2 
 PCOD9503814
Probable space group: C M M A
;
_chemical_formula_sum "Si O2"
_cell_formula_units_Z 112
_cell_length_a 17.093086
_cell_length_b 27.978657
_cell_length_c 11.916586
_cell_angle_alpha 90.000000
_cell_angle_beta 90.000000
_cell_angle_gamma 90.000000
_cell_volume 5699.007039
_symmetry_space_group_name_H-M "C M M A"
_symmetry_group_IT_number 67
_symmetry_cell_setting 'orthorhombic'
loop_
_space_group_symop_operation_xyz
x,y,z
-x,1/2-y,z
x,-y,-z
-x,1/2+y,-z
-x,-y,-z
x,1/2+y,-z
-x,y,z
x,1/2-y,z
1/2+x,1/2+y,z
1/2-x,-y,z
1/2+x,1/2-y,-z
1/2-x,y,-z
1/2-x,1/2-y,-z
1/2+x,y,-z
1/2-x,1/2+y,z
1/2+x,-y,z
loop_
_atom_site_type_symbol
_atom_site_label
_atom_site_fract_x
_atom_site_fract_y
_atom_site_fract_z
Si Si1 0.659735 0.017205 0.876809
Si Si2 0.178834 0.696102 0.277622
Si Si3 0.161886 0.519208 0.620966
Si Si4 0.678110 0.132421 0.652933
Si Si5 0.913210 0.194821 0.507697
Si Si6 0.089083 0.118218 0.132984
Si Si7 0.658344 0.804257 0.980178
O O1 0.628493 0.005726 0.747641
O O2 0.648200 0.074109 0.883151
O O3 0.750000 0.000000 0.875274
O O4 0.627308 0.000000 0.000000
O O5 0.214875 0.750000 0.293143
O O6 0.240787 0.653884 0.300892
O O7 0.106649 0.693218 0.361608
O O8 0.148620 0.693623 0.152124
O O9 0.127427 0.500000 0.500000
O O10 0.250000 0.500000 0.622509
O O11 0.171502 0.576737 0.621009
O O12 0.653557 0.164115 0.548818
O O13 0.613005 0.140546 0.748378
O O14 0.908642 0.250000 0.471131
O O15 0.000000 0.176469 0.483846
O O16 0.000000 0.100928 0.132621
O O17 0.104424 0.158067 0.041135
O O18 0.645213 0.750000 0.020745
O O19 0.750000 0.815534 0.000000
#
# Coordination Sequence:
#
# PCOD9503814 Si02
#       7
#    16  16  16  16  16  16  16
#     4   9  20  38  63  87 114 160 204 254 309 379
#     4  10  21  36  60  89 119 160 212 257 300 365
#     4   9  20  34  54  89 116 146 195 254 307 366
#     4  11  21  37  62  87 121 160 201 256 309 372
#     4  10  22  38  56  84 123 162 201 248 306 368
#     4  11  24  39  61  94 126 158 202 256 317 376
#     4  10  21  38  60  89 127 165 206 252 300 370
#
# _framework density 19.652546000000001
#
# number of rings (size 3 to 8) (size 9 to 14) (size 15 to 20)
#    0.000    2.000    1.429    1.286    6.000    4.000 
#    0.000    1.429    0.000   10.714    0.000    0.000 
#    0.000    0.000    0.000    0.000    0.000    0.000 
#
# Total GULP energy -311787.673420 kJ/mol
# GULP energy per Si atom -5567.637025 kJ/mol
# Density = 1.960782 g / cm^3
# Si number density = 19.652546 Si / 1000 Ang^3
#
#
#
# Elastic Constant Matrix: (Units=GPa)
#
#
# Indices 1 2 3 4 5 6 
#
# 1 42.4232 24.6356 -2.8124 0.0000 0.0000 0.0000
# 2 24.6356 50.6003 20.8597 0.0000 0.0000 0.0000
# 3 -2.8124 20.8597 117.4446 0.0000 0.0000 0.0000
# 4 0.0000 0.0000 0.0000 33.9039 0.0000 0.0000
# 5 0.0000 0.0000 0.0000 0.0000 15.2466 0.0000
# 6 0.0000 0.0000 0.0000 0.0000 0.0000 4.2866
#
#
#
# Elastic Compliance Matrix: (Units=1/GPa)
#
#
# Indices 1 2 3 4 5 6 
#
# 1 0.034621 -0.018556 0.004125 0.000000 0.000000 0.000000
# 2 -0.018556 0.031270 -0.005998 0.000000 0.000000 0.000000
# 3 0.004125 -0.005998 0.009679 0.000000 0.000000 0.000000
# 4 0.000000 0.000000 0.000000 0.029495 0.000000 0.000000
# 5 0.000000 0.000000 0.000000 0.000000 0.065588 0.000000
# 6 0.000000 0.000000 0.000000 0.000000 0.000000 0.233282
#
#
# Mechanical properties :
#
#
# Convention : Reuss Voigt Hill
#
# Bulk Modulus (GPa) = 28.80971 32.87043 30.84007
# Shear Modulus (GPa) = 10.95611 21.87310 16.41461
#
# Velocity S-wave (km/s) = 2.36369 3.33977 2.89319
# Velocity P-wave (km/s) = 4.70539 5.62443 5.18531
#
# Compressibility (1/GPa) = 0.03471052
#
# Stress axis : x y z
#
# Youngs Moduli (GPa) = 28.88385 31.97950 103.31848
#
# Poissons Ratio (x) = 0.59343 -0.42618
# Poissons Ratio (y) = 0.53598 0.61974
# Poissons Ratio (z) = -0.11914 0.19182
#
# Static dielectric constant tensor:
#      x y z
#    x 1.519240 0.000000 0.000000 
#    y 0.000000 1.748380 0.000000 
#    z 0.000000 0.000000 1.782100 
# 
# From -- ./inp_files/18661.got.cif
#   From: 2010.05.17/outbox.cif.g08.bks.cpg/sg67_10_cif.got.tgz:18661.got - 2010.06.03 18:28:57.
