data_PCOD9503824
_publ_section_title
;
Structure prediction by ZEFSAII (Michael W. Deem and Ramdas Pophale) SiO2 
 PCOD9503824
Probable space group: C M M A
;
_chemical_formula_sum "Si O2"
_cell_formula_units_Z 104
_cell_length_a 8.807309
_cell_length_b 31.241537
_cell_length_c 23.474640
_cell_angle_alpha 90.000000
_cell_angle_beta 90.000000
_cell_angle_gamma 90.000000
_cell_volume 6459.138043
_symmetry_space_group_name_H-M "C M M A"
_symmetry_group_IT_number 67
_symmetry_cell_setting 'orthorhombic'
loop_
_space_group_symop_operation_xyz
x,y,z
-x,1/2-y,z
x,-y,-z
-x,1/2+y,-z
-x,-y,-z
x,1/2+y,-z
-x,y,z
x,1/2-y,z
1/2+x,1/2+y,z
1/2-x,-y,z
1/2+x,1/2-y,-z
1/2-x,y,-z
1/2-x,1/2-y,-z
1/2+x,y,-z
1/2-x,1/2+y,z
1/2+x,-y,z
loop_
_atom_site_type_symbol
_atom_site_label
_atom_site_fract_x
_atom_site_fract_y
_atom_site_fract_z
Si Si1 0.325360 0.133265 0.269723
Si Si2 0.183585 0.544984 0.320271
Si Si3 0.681513 0.924480 0.440152
Si Si4 0.681077 0.750000 0.437205
Si Si5 0.826536 0.198018 0.058106
Si Si6 0.683626 0.299390 0.815845
Si Si7 0.675736 0.162304 0.400755
O O1 0.500000 0.044822 0.323469
O O2 0.270068 0.084509 0.279321
O O3 0.235919 0.165635 0.229491
O O4 0.324601 0.151073 0.334108
O O5 0.250000 0.500000 0.300320
O O6 0.248360 0.553382 0.383952
O O7 0.000000 0.631876 0.249947
O O8 0.500000 0.928347 0.440111
O O9 0.750000 0.940510 0.500000
O O10 0.733420 0.875016 0.432909
O O11 0.500000 0.750000 0.438189
O O12 0.750000 0.750000 0.500000
O O13 0.744806 0.792524 0.408359
O O14 0.826982 0.250000 0.056365
O O15 0.760206 0.188169 0.120493
O O16 0.000000 0.183359 0.057352
O O17 0.750000 0.182821 0.000000
O O18 0.500000 0.298541 0.817909
O O19 0.732131 0.250000 0.803128
O O20 0.500000 0.163090 0.420635
#
# Coordination Sequence:
#
# PCOD9503824 Si02
#       7
#    16  16  16   8  16  16  16
#     4   9  20  35  51  71  97 126 158 197 240 286
#     4  10  21  38  56  76  98 123 156 197 245 296
#     4  11  21  35  54  75  97 122 151 188 237 295
#     4  12  24  36  50  68  88 118 159 200 243 292
#     4   8  14  25  40  61  92 129 168 206 241 273
#     4   9  18  30  45  69 101 135 170 207 239 276
#     4  10  21  37  51  67  93 123 156 200 244 286
#
# _framework density 16.101217999999999
#
# number of rings (size 3 to 8) (size 9 to 14) (size 15 to 20)
#    0.000    2.308    0.000    5.308    1.077    4.923 
#    0.000    3.077    0.000    0.000    0.000    0.000 
#    0.000    0.615    0.000    6.769    0.000    5.231 
#
# Total GULP energy -289908.832792 kJ/mol
# GULP energy per Si atom -5575.169861 kJ/mol
# Density = 1.606457 g / cm^3
# Si number density = 16.101218 Si / 1000 Ang^3
#
#
#
# Elastic Constant Matrix: (Units=GPa)
#
#
# Indices 1 2 3 4 5 6 
#
# 1 75.4426 31.0534 28.4267 0.0000 0.0000 0.0000
# 2 31.0534 105.3949 37.0669 0.0000 0.0000 0.0000
# 3 28.4267 37.0669 79.9209 0.0000 0.0000 0.0000
# 4 0.0000 0.0000 0.0000 9.1378 0.0000 0.0000
# 5 0.0000 0.0000 0.0000 0.0000 26.7012 0.0000
# 6 0.0000 0.0000 0.0000 0.0000 0.0000 23.3297
#
#
#
# Elastic Compliance Matrix: (Units=1/GPa)
#
#
# Indices 1 2 3 4 5 6 
#
# 1 0.016204 -0.003283 -0.004241 0.000000 0.000000 0.000000
# 2 -0.003283 0.012003 -0.004399 0.000000 0.000000 0.000000
# 3 -0.004241 -0.004399 0.016061 0.000000 0.000000 0.000000
# 4 0.000000 0.000000 0.000000 0.109435 0.000000 0.000000
# 5 0.000000 0.000000 0.000000 0.000000 0.037452 0.000000
# 6 0.000000 0.000000 0.000000 0.000000 0.000000 0.042864
#
#
# Mechanical properties :
#
#
# Convention : Reuss Voigt Hill
#
# Bulk Modulus (GPa) = 48.96668 50.42804 49.69736
# Shear Modulus (GPa) = 18.89132 22.78117 20.83624
#
# Velocity S-wave (km/s) = 3.42904 3.76556 3.60123
# Velocity P-wave (km/s) = 6.79379 7.09178 6.94438
#
# Compressibility (1/GPa) = 0.02042205
#
# Stress axis : x y z
#
# Youngs Moduli (GPa) = 61.71143 83.31587 62.26208
#
# Poissons Ratio (x) = 0.27352 0.26406
# Poissons Ratio (y) = 0.20259 0.27389
# Poissons Ratio (z) = 0.26173 0.36651
#
# Static dielectric constant tensor:
#      x y z
#    x 1.550540 0.000000 0.000000 
#    y 0.000000 1.536770 0.000000 
#    z 0.000000 0.000000 1.536210 
# 
# From -- ./inp_files/37492.got.cif
#   From: 2010.05.17/outbox.cif.g08.bks.cpg/sg67_19_cif.got.tgz:37492.got - 2010.06.03 18:28:57.
