data_PCOD9503641
_publ_section_title
;
Structure prediction by ZEFSAII (Michael W. Deem and Ramdas Pophale) SiO2 
 PCOD9503641
Probable space group: C M M A
;
_chemical_formula_sum "Si O2"
_cell_formula_units_Z 112
_cell_length_a 25.529659
_cell_length_b 14.831549
_cell_length_c 17.950679
_cell_angle_alpha 90.000000
_cell_angle_beta 90.000000
_cell_angle_gamma 90.000000
_cell_volume 6796.923872
_symmetry_space_group_name_H-M "C M M A"
_symmetry_group_IT_number 67
_symmetry_cell_setting 'orthorhombic'
loop_
_space_group_symop_operation_xyz
x,y,z
-x,1/2-y,z
x,-y,-z
-x,1/2+y,-z
-x,-y,-z
x,1/2+y,-z
-x,y,z
x,1/2-y,z
1/2+x,1/2+y,z
1/2-x,-y,z
1/2+x,1/2-y,-z
1/2-x,y,-z
1/2-x,1/2-y,-z
1/2+x,y,-z
1/2-x,1/2+y,z
1/2+x,-y,z
loop_
_atom_site_type_symbol
_atom_site_label
_atom_site_fract_x
_atom_site_fract_y
_atom_site_fract_z
Si Si1 0.709610 0.854543 0.170060
Si Si2 0.161873 0.893647 0.989215
Si Si3 0.828925 0.648661 0.158172
Si Si4 0.384495 0.976154 0.218262
Si Si5 0.063440 0.147063 0.507702
Si Si6 0.936631 0.991500 0.621600
Si Si7 0.440154 0.854800 0.098573
O O1 0.701020 0.750000 0.189221
O O2 0.770174 0.876769 0.183563
O O3 0.668809 0.917753 0.212541
O O4 0.696402 0.864840 0.081744
O O5 0.173606 0.850831 0.068413
O O6 0.102289 0.872226 0.965566
O O7 0.168631 0.000000 0.000000
O O8 0.841240 0.750000 0.183954
O O9 0.869663 0.573606 0.184775
O O10 0.424444 0.922235 0.164749
O O11 0.408018 0.984192 0.300025
O O12 0.082712 0.250000 0.510443
O O13 0.078027 0.082925 0.577026
O O14 0.000000 0.150212 0.508461
O O15 0.077251 0.092118 0.432803
O O16 0.000000 0.991159 0.631197
O O17 0.500000 0.868535 0.075158
O O18 0.434400 0.750000 0.122518
#
# Coordination Sequence:
#
# PCOD9503641 Si02
#       7
#    16  16  16  16  16  16  16
#     4  10  21  35  52  72  96 126 167 220 269 303
#     4  11  19  33  54  74  92 125 171 219 262 305
#     4  11  22  35  50  71  98 130 168 214 265 311
#     4  11  20  33  50  75 103 134 164 203 246 302
#     4   8  15  30  52  76 102 132 163 195 231 273
#     4   9  18  31  49  77 108 134 162 193 230 283
#     4  10  21  36  51  69  97 133 171 210 251 295
#
# _framework density 16.478043
#
# number of rings (size 3 to 8) (size 9 to 14) (size 15 to 20)
#    0.000    2.000    2.857    4.714    0.000    3.714 
#    0.000    1.429    0.000    2.143    0.000    8.000 
#    0.000   13.714    0.000    0.000    0.000    0.000 
#
# Total GULP energy -312304.509158 kJ/mol
# GULP energy per Si atom -5576.866235 kJ/mol
# Density = 1.644054 g / cm^3
# Si number density = 16.478043 Si / 1000 Ang^3
#
#
#
# Elastic Constant Matrix: (Units=GPa)
#
#
# Indices 1 2 3 4 5 6 
#
# 1 36.5034 21.9019 22.6949 0.0000 0.0000 0.0000
# 2 21.9019 112.0409 29.8154 0.0000 0.0000 0.0000
# 3 22.6949 29.8154 79.7132 0.0000 0.0000 0.0000
# 4 0.0000 0.0000 0.0000 -2.9758 0.0000 0.0000
# 5 0.0000 0.0000 0.0000 0.0000 11.0780 0.0000
# 6 0.0000 0.0000 0.0000 0.0000 0.0000 21.0538
#
#
#
# Elastic Compliance Matrix: (Units=1/GPa)
#
#
# Indices 1 2 3 4 5 6 
#
# 1 0.035387 -0.004705 -0.008315 0.000000 0.000000 0.000000
# 2 -0.004705 0.010537 -0.002602 0.000000 0.000000 0.000000
# 3 -0.008315 -0.002602 0.015886 0.000000 0.000000 0.000000
# 4 0.000000 0.000000 0.000000 -0.336040 0.000000 0.000000
# 5 0.000000 0.000000 0.000000 0.000000 0.090269 0.000000
# 6 0.000000 0.000000 0.000000 0.000000 0.000000 0.047497
#
#
# Mechanical properties :
#
#
# Convention : Reuss Voigt Hill
#
# Bulk Modulus (GPa) = 32.71559 41.89801 37.30680
# Shear Modulus (GPa) = -52.61465 16.08756 -18.26355
#
# Velocity S-wave (km/s) = -5.65681 3.12797 -3.33281
# Velocity P-wave (km/s) = 4.77167 6.20704 2.80701
#
# Compressibility (1/GPa) = 0.03056646
#
# Stress axis : x y z
#
# Youngs Moduli (GPa) = 28.25872 94.90023 62.95019
#
# Poissons Ratio (x) = 0.44648 0.52345
# Poissons Ratio (y) = 0.13295 0.16379
# Poissons Ratio (z) = 0.23498 0.24692
#
# Static dielectric constant tensor:
#      x y z
#    x 1.547650 0.000000 0.000000 
#    y 0.000000 1.584830 0.000000 
#    z 0.000000 0.000000 1.527690 
# 
# From -- ./inp_files/30792.got.cif
#   From: 2010.05.17/outbox.cif.g08.bks.cpg/sg67_16_cif.got.tgz:30792.got - 2010.06.03 18:28:57.
