data_PCOD9503360
_publ_section_title
;
Structure prediction by ZEFSAII (Michael W. Deem and Ramdas Pophale) SiO2 
 PCOD9503360
Probable space group: C M M A
;
_chemical_formula_sum "Si O2"
_cell_formula_units_Z 64
_cell_length_a 20.318756
_cell_length_b 19.258461
_cell_length_c 8.323362
_cell_angle_alpha 90.000000
_cell_angle_beta 90.000000
_cell_angle_gamma 90.000000
_cell_volume 3256.997888
_symmetry_space_group_name_H-M "C M M A"
_symmetry_group_IT_number 67
_symmetry_cell_setting 'orthorhombic'
loop_
_space_group_symop_operation_xyz
x,y,z
-x,1/2-y,z
x,-y,-z
-x,1/2+y,-z
-x,-y,-z
x,1/2+y,-z
-x,y,z
x,1/2-y,z
1/2+x,1/2+y,z
1/2-x,-y,z
1/2+x,1/2-y,-z
1/2-x,y,-z
1/2-x,1/2-y,-z
1/2+x,y,-z
1/2-x,1/2+y,z
1/2+x,-y,z
loop_
_atom_site_type_symbol
_atom_site_label
_atom_site_fract_x
_atom_site_fract_y
_atom_site_fract_z
Si Si1 0.877321 0.668897 0.270040
Si Si2 0.732031 0.827929 0.308234
Si Si3 0.132150 0.930266 0.572835
Si Si4 0.000000 0.386833 0.917112
Si Si5 0.000000 0.038948 0.240991
O O1 0.882001 0.750000 0.314258
O O2 0.801021 0.657651 0.218893
O O3 0.885767 0.621104 0.426628
O O4 0.934028 0.650943 0.143949
O O5 0.708815 0.750000 0.265685
O O6 0.750000 0.826261 0.500000
O O7 0.678329 0.888199 0.303667
O O8 0.065460 0.953392 0.656376
O O9 0.164629 0.000000 0.500000
O O10 0.000000 0.463047 0.837175
O O11 0.000000 0.401679 0.105398
#
# Coordination Sequence:
#
# PCOD9503360 Si02
#       5
#    16  16  16   8   8
#     4  10  20  37  61  86 116 152 192 234 287 348
#     4   8  17  33  54  85 118 142 178 237 288 334
#     4  11  19  35  60  89 114 148 187 242 293 342
#     4  11  22  41  55  76 115 162 190 234 280 346
#     4  11  24  38  54  81 118 144 197 243 285 324
#
# _framework density 19.649996999999999
#
# number of rings (size 3 to 8) (size 9 to 14) (size 15 to 20)
#    0.000    2.000    2.500    3.750    0.000    4.500 
#    0.000    8.125    0.000    6.000    0.000    0.000 
#    0.000    0.000    0.000    0.000    0.000    0.000 
#
# Total GULP energy -178531.405209 kJ/mol
# GULP energy per Si atom -5579.106413 kJ/mol
# Density = 1.960527 g / cm^3
# Si number density = 19.649997 Si / 1000 Ang^3
#
#
#
# Elastic Constant Matrix: (Units=GPa)
#
#
# Indices 1 2 3 4 5 6 
#
# 1 118.2710 50.9764 15.9760 0.0000 0.0000 0.0000
# 2 50.9764 105.8653 20.4664 0.0000 0.0000 0.0000
# 3 15.9760 20.4664 27.5087 0.0000 0.0000 0.0000
# 4 0.0000 0.0000 0.0000 23.5809 0.0000 0.0000
# 5 0.0000 0.0000 0.0000 0.0000 -3.2775 0.0000
# 6 0.0000 0.0000 0.0000 0.0000 0.0000 44.2332
#
#
#
# Elastic Compliance Matrix: (Units=1/GPa)
#
#
# Indices 1 2 3 4 5 6 
#
# 1 0.010854 -0.004681 -0.002821 0.000000 0.000000 0.000000
# 2 -0.004681 0.013052 -0.006992 0.000000 0.000000 0.000000
# 3 -0.002821 -0.006992 0.043192 0.000000 0.000000 0.000000
# 4 0.000000 0.000000 0.000000 0.042407 0.000000 0.000000
# 5 0.000000 0.000000 0.000000 0.000000 -0.305112 0.000000
# 6 0.000000 0.000000 0.000000 0.000000 0.000000 0.022607
#
#
# Mechanical properties :
#
#
# Convention : Reuss Voigt Hill
#
# Bulk Modulus (GPa) = 26.23960 47.38695 36.81328
# Shear Modulus (GPa) = -38.07819 23.85574 -7.11122
#
# Velocity S-wave (km/s) = -4.40684 3.48808 -1.90442
# Velocity P-wave (km/s) = 3.53712 6.35532 3.73355
#
# Compressibility (1/GPa) = 0.03811034
#
# Stress axis : x y z
#
# Youngs Moduli (GPa) = 92.13404 76.61864 23.15233
#
# Poissons Ratio (x) = 0.35865 0.06531
# Poissons Ratio (y) = 0.43128 0.16188
# Poissons Ratio (z) = 0.25989 0.53571
#
# Static dielectric constant tensor:
#      x y z
#    x 1.713520 0.000000 0.000000 
#    y 0.000000 1.701620 0.000000 
#    z 0.000000 0.000000 1.690130 
# 
# From -- ./inp_files/10728.got.cif
#   From: 2010.05.17/outbox.cif.g08.bks.cpg/sg67_6_cif.got.tgz:10728.got - 2010.06.03 18:28:57.
