data_PCOD9503022
_publ_section_title
;
Structure prediction by ZEFSAII (Michael W. Deem and Ramdas Pophale) SiO2 
 PCOD9503022
Probable space group: C M M A
;
_chemical_formula_sum "Si O2"
_cell_formula_units_Z 48
_cell_length_a 11.279092
_cell_length_b 19.048860
_cell_length_c 9.422846
_cell_angle_alpha 90.000000
_cell_angle_beta 90.000000
_cell_angle_gamma 90.000000
_cell_volume 2024.534689
_symmetry_space_group_name_H-M "C M M A"
_symmetry_group_IT_number 67
_symmetry_cell_setting 'orthorhombic'
loop_
_space_group_symop_operation_xyz
x,y,z
-x,1/2-y,z
x,-y,-z
-x,1/2+y,-z
-x,-y,-z
x,1/2+y,-z
-x,y,z
x,1/2-y,z
1/2+x,1/2+y,z
1/2-x,-y,z
1/2+x,1/2-y,-z
1/2-x,y,-z
1/2-x,1/2-y,-z
1/2+x,y,-z
1/2-x,1/2+y,z
1/2+x,-y,z
loop_
_atom_site_type_symbol
_atom_site_label
_atom_site_fract_x
_atom_site_fract_y
_atom_site_fract_z
Si Si1 0.715844 0.827105 0.163619
Si Si2 0.124625 0.476276 0.166872
Si Si3 0.368751 0.166189 0.422335
O O1 0.668608 0.750000 0.204588
O O2 0.629821 0.892379 0.180500
O O3 0.833791 0.839716 0.256866
O O4 0.750000 0.825811 0.000000
O O5 0.250000 0.500000 0.229724
O O6 0.000000 0.502698 0.227043
O O7 0.126421 0.500000 0.000000
O O8 0.500000 0.138000 0.455534
O O9 0.373085 0.250000 0.452856
O O10 0.250000 0.138261 0.500000
#
# Coordination Sequence:
#
# PCOD9503022 Si02
#       3
#    16  16  16
#     4  10  20  35  58  93 127 156 198 256 310 359
#     4  10  20  36  55  81 118 161 201 240 298 368
#     4   9  19  36  58  86 124 167 206 248 305 371
#
# _framework density 23.709152
#
# number of rings (size 3 to 8) (size 9 to 14) (size 15 to 20)
#    0.000    2.333    3.333    0.000    0.000    4.667 
#    0.000    6.667    0.000    1.000    0.000    4.667 
#    0.000    0.000    0.000    0.000    0.000    0.000 
#
# Total GULP energy -133806.155528 kJ/mol
# GULP energy per Si atom -5575.256480 kJ/mol
# Density = 2.365519 g / cm^3
# Si number density = 23.709152 Si / 1000 Ang^3
#
#
#
# Elastic Constant Matrix: (Units=GPa)
#
#
# Indices 1 2 3 4 5 6 
#
# 1 256.9184 44.3782 43.2768 0.0000 0.0000 0.0000
# 2 44.3782 116.4389 -11.5825 0.0000 0.0000 0.0000
# 3 43.2768 -11.5825 90.8876 0.0000 0.0000 0.0000
# 4 0.0000 0.0000 0.0000 0.4772 0.0000 0.0000
# 5 0.0000 0.0000 0.0000 0.0000 -7.6972 0.0000
# 6 0.0000 0.0000 0.0000 0.0000 0.0000 34.2258
#
#
#
# Elastic Compliance Matrix: (Units=1/GPa)
#
#
# Indices 1 2 3 4 5 6 
#
# 1 0.004659 -0.002022 -0.002476 0.000000 0.000000 0.000000
# 2 -0.002022 0.009576 0.002183 0.000000 0.000000 0.000000
# 3 -0.002476 0.002183 0.012460 0.000000 0.000000 0.000000
# 4 0.000000 0.000000 0.000000 2.095529 0.000000 0.000000
# 5 0.000000 0.000000 0.000000 0.000000 -0.129917 0.000000
# 6 0.000000 0.000000 0.000000 0.000000 0.000000 0.029218
#
#
# Mechanical properties :
#
#
# Convention : Reuss Voigt Hill
#
# Bulk Modulus (GPa) = 45.32081 68.48778 56.90429
# Shear Modulus (GPa) = 2.45881 31.27931 16.86906
#
# Velocity S-wave (km/s) = 1.01947 3.63615 2.67029
# Velocity P-wave (km/s) = 4.53239 6.82482 5.79313
#
# Compressibility (1/GPa) = 0.02206492
#
# Stress axis : x y z
#
# Youngs Moduli (GPa) = 214.65834 104.42868 80.25871
#
# Poissons Ratio (x) = 0.21113 0.19871
# Poissons Ratio (y) = 0.43400 -0.17521
# Poissons Ratio (z) = 0.53147 -0.22797
#
# Static dielectric constant tensor:
#      x y z
#    x 1.908160 0.000000 0.000000 
#    y 0.000000 1.957900 0.000000 
#    z 0.000000 0.000000 1.939910 
# 
# From -- ./inp_files/11876.got.cif
#   From: 2010.05.17/outbox.cif.g08.bks.cpg/sg67_6_cif.got.tgz:11876.got - 2010.06.03 18:28:57.
