data_PCOD9503034
_publ_section_title
;
Structure prediction by ZEFSAII (Michael W. Deem and Ramdas Pophale) SiO2 
 PCOD9503034
Probable space group: C M M A
;
_chemical_formula_sum "Si O2"
_cell_formula_units_Z 104
_cell_length_a 32.163456
_cell_length_b 8.085816
_cell_length_c 19.743075
_cell_angle_alpha 90.000000
_cell_angle_beta 90.000000
_cell_angle_gamma 90.000000
_cell_volume 5134.537827
_symmetry_space_group_name_H-M "C M M A"
_symmetry_group_IT_number 67
_symmetry_cell_setting 'orthorhombic'
loop_
_space_group_symop_operation_xyz
x,y,z
-x,1/2-y,z
x,-y,-z
-x,1/2+y,-z
-x,-y,-z
x,1/2+y,-z
-x,y,z
x,1/2-y,z
1/2+x,1/2+y,z
1/2-x,-y,z
1/2+x,1/2-y,-z
1/2-x,y,-z
1/2-x,1/2-y,-z
1/2+x,y,-z
1/2-x,1/2+y,z
1/2+x,-y,z
loop_
_atom_site_type_symbol
_atom_site_label
_atom_site_fract_x
_atom_site_fract_y
_atom_site_fract_z
Si Si1 0.500000 0.450532 0.078878
Si Si2 0.046628 0.050751 0.578093
Si Si3 0.704183 0.053180 0.735601
Si Si4 0.071524 0.063956 0.821397
Si Si5 0.614384 0.548390 0.686629
Si Si6 0.704327 0.558449 0.890714
Si Si7 0.877490 0.935663 0.929249
O O1 0.500000 0.250000 0.077319
O O2 0.538317 0.508902 0.125843
O O3 0.500000 0.500000 0.000000
O O4 0.046100 0.250000 0.582150
O O5 0.086185 0.996177 0.622642
O O6 0.000000 0.993905 0.600904
O O7 0.051185 0.000000 0.500000
O O8 0.705052 0.250000 0.745812
O O9 0.750000 0.000000 0.707916
O O10 0.662205 0.010237 0.693484
O O11 0.700108 0.968167 0.809240
O O12 0.057132 0.250000 0.805411
O O13 0.087252 0.988068 0.751610
O O14 0.111289 0.060398 0.869556
O O15 0.615750 0.750000 0.689214
O O16 0.697829 0.750000 0.906976
O O17 0.750000 0.500000 0.908345
O O18 0.671792 0.443609 0.928852
O O19 0.891358 0.750000 0.914923
O O20 0.894871 0.000000 0.000000
#
# Coordination Sequence:
#
# PCOD9503034 Si02
#       7
#     8  16  16  16  16  16  16
#     4  10  22  38  56  78 105 146 192 238 297 356
#     4   9  19  36  60  91 127 167 204 239 286 346
#     4  11  21  35  57  85 117 153 194 240 295 351
#     4  10  21  37  57  81 109 143 189 241 291 347
#     4  10  20  35  59  88 120 155 198 246 293 346
#     4  11  21  36  55  77 106 141 182 230 285 343
#     4  12  24  38  55  76 104 141 186 235 292 348
#
# _framework density 20.254987
#
# number of rings (size 3 to 8) (size 9 to 14) (size 15 to 20)
#    0.000    1.538    1.538    5.538    1.077    2.769 
#    0.000    1.538    0.000    0.462    0.000    3.231 
#    0.000    0.000    0.000    0.000    0.000    0.000 
#
# Total GULP energy -289945.725394 kJ/mol
# GULP energy per Si atom -5575.879334 kJ/mol
# Density = 2.020889 g / cm^3
# Si number density = 20.254987 Si / 1000 Ang^3
#
#
#
# Elastic Constant Matrix: (Units=GPa)
#
#
# Indices 1 2 3 4 5 6 
#
# 1 144.9666 15.0179 54.3674 0.0000 0.0000 0.0000
# 2 15.0179 78.2305 3.4419 0.0000 0.0000 0.0000
# 3 54.3674 3.4419 84.3185 0.0000 0.0000 0.0000
# 4 0.0000 0.0000 0.0000 18.7967 0.0000 0.0000
# 5 0.0000 0.0000 0.0000 0.0000 19.9524 0.0000
# 6 0.0000 0.0000 0.0000 0.0000 0.0000 22.7608
#
#
#
# Elastic Compliance Matrix: (Units=1/GPa)
#
#
# Indices 1 2 3 4 5 6 
#
# 1 0.009275 -0.001520 -0.005919 0.000000 0.000000 0.000000
# 2 -0.001520 0.013055 0.000447 0.000000 0.000000 0.000000
# 3 -0.005919 0.000447 0.015658 0.000000 0.000000 0.000000
# 4 0.000000 0.000000 0.000000 0.053201 0.000000 0.000000
# 5 0.000000 0.000000 0.000000 0.000000 0.050119 0.000000
# 6 0.000000 0.000000 0.000000 0.000000 0.000000 0.043935
#
#
# Mechanical properties :
#
#
# Convention : Reuss Voigt Hill
#
# Bulk Modulus (GPa) = 41.65788 50.35222 46.00505
# Shear Modulus (GPa) = 24.12805 27.94788 26.03797
#
# Velocity S-wave (km/s) = 3.45514 3.71860 3.58929
# Velocity P-wave (km/s) = 6.04390 6.58411 6.31978
#
# Compressibility (1/GPa) = 0.02400506
#
# Stress axis : x y z
#
# Youngs Moduli (GPa) = 107.81364 76.59970 63.86632
#
# Poissons Ratio (x) = 0.11645 0.37799
# Poissons Ratio (y) = 0.16390 -0.02857
# Poissons Ratio (z) = 0.63810 -0.03426
#
# Static dielectric constant tensor:
#      x y z
#    x 1.865930 0.000000 0.000000 
#    y 0.000000 1.598120 0.000000 
#    z 0.000000 0.000000 1.692970 
# 
# From -- ./inp_files/40240.got.cif
#   From: 2010.05.17/outbox.cif.g08.bks.cpg/sg67_21_cif.got.tgz:40240.got - 2010.06.03 18:28:57.
