data_PCOD9503701
_publ_section_title
;
Structure prediction by ZEFSAII (Michael W. Deem and Ramdas Pophale) SiO2 
 PCOD9503701
Probable space group: C M M A
;
_chemical_formula_sum "Si O2"
_cell_formula_units_Z 96
_cell_length_a 9.098022
_cell_length_b 19.012814
_cell_length_c 32.390268
_cell_angle_alpha 90.000000
_cell_angle_beta 90.000000
_cell_angle_gamma 90.000000
_cell_volume 5602.836170
_symmetry_space_group_name_H-M "C M M A"
_symmetry_group_IT_number 67
_symmetry_cell_setting 'orthorhombic'
loop_
_space_group_symop_operation_xyz
x,y,z
-x,1/2-y,z
x,-y,-z
-x,1/2+y,-z
-x,-y,-z
x,1/2+y,-z
-x,y,z
x,1/2-y,z
1/2+x,1/2+y,z
1/2-x,-y,z
1/2+x,1/2-y,-z
1/2-x,y,-z
1/2-x,1/2-y,-z
1/2+x,y,-z
1/2-x,1/2+y,z
1/2+x,-y,z
loop_
_atom_site_type_symbol
_atom_site_label
_atom_site_fract_x
_atom_site_fract_y
_atom_site_fract_z
Si Si1 0.325193 0.165497 0.221293
Si Si2 0.827468 0.834447 0.456992
Si Si3 0.321261 0.167409 0.130790
Si Si4 0.672340 0.664322 0.958464
Si Si5 0.825306 0.075757 0.291440
Si Si6 0.824341 0.923767 0.613703
O O1 0.500000 0.151880 0.225296
O O2 0.306180 0.250000 0.222496
O O3 0.276070 0.139060 0.175588
O O4 0.239598 0.128667 0.257996
O O5 0.815719 0.750000 0.453125
O O6 0.750000 0.854874 0.500000
O O7 0.746749 0.871449 0.419079
O O8 0.000000 0.852936 0.457836
O O9 0.500000 0.164917 0.130106
O O10 0.281265 0.250000 0.131203
O O11 0.270706 0.138466 0.086362
O O12 0.500000 0.648242 0.961271
O O13 0.685120 0.750000 0.957627
O O14 0.750000 0.639093 0.000000
O O15 0.796225 0.098671 0.338803
O O16 0.000000 0.068866 0.286589
O O17 0.750000 0.000000 0.285885
O O18 0.000000 0.928730 0.607953
O O19 0.750000 0.000000 0.608408
#
# Coordination Sequence:
#
# PCOD9503701 Si02
#       6
#    16  16  16  16  16  16
#     4   9  17  30  49  71  95 126 163 200 240 289
#     4  10  21  37  57  81 109 139 170 204 242 285
#     4   7  11  21  36  54  79 113 150 186 226 275
#     4   8  12  18  29  46  71 105 144 182 221 268
#     4  10  21  36  53  73  99 130 163 203 248 291
#     4  10  21  37  56  77 102 132 167 206 247 291
#
# _framework density 17.134179
#
# number of rings (size 3 to 8) (size 9 to 14) (size 15 to 20)
#    0.000    3.000    0.000    3.500    0.000    4.333 
#    0.000    5.833    0.000    3.000    0.000    0.000 
#    0.000    0.667    0.000    7.667    0.000    9.000 
#
# Total GULP energy -267258.850051 kJ/mol
# GULP energy per Si atom -5567.892709 kJ/mol
# Density = 1.709518 g / cm^3
# Si number density = 17.134179 Si / 1000 Ang^3
#
#
#
# Elastic Constant Matrix: (Units=GPa)
#
#
# Indices 1 2 3 4 5 6 
#
# 1 74.9128 31.2386 88.9098 0.0000 0.0000 0.0000
# 2 31.2386 18.5149 53.2171 0.0000 0.0000 0.0000
# 3 88.9098 53.2171 191.4940 0.0000 0.0000 0.0000
# 4 0.0000 0.0000 0.0000 -24.0123 0.0000 0.0000
# 5 0.0000 0.0000 0.0000 0.0000 31.7265 0.0000
# 6 0.0000 0.0000 0.0000 0.0000 0.0000 23.3003
#
#
#
# Elastic Compliance Matrix: (Units=1/GPa)
#
#
# Indices 1 2 3 4 5 6 
#
# 1 0.045072 -0.079000 0.001028 0.000000 0.000000 0.000000
# 2 -0.079000 0.406877 -0.076394 0.000000 0.000000 0.000000
# 3 0.001028 -0.076394 0.025975 0.000000 0.000000 0.000000
# 4 0.000000 0.000000 0.000000 -0.041645 0.000000 0.000000
# 5 0.000000 0.000000 0.000000 0.000000 0.031519 0.000000
# 6 0.000000 0.000000 0.000000 0.000000 0.000000 0.042918
#
#
# Mechanical properties :
#
#
# Convention : Reuss Voigt Hill
#
# Bulk Modulus (GPa) = 5.91044 70.18363 38.04704
# Shear Modulus (GPa) = 5.70876 13.63998 9.67437
#
# Velocity S-wave (km/s) = 1.82730 2.82453 2.37876
# Velocity P-wave (km/s) = 2.81230 7.18939 5.45877
#
# Compressibility (1/GPa) = 0.16919203
#
# Stress axis : x y z
#
# Youngs Moduli (GPa) = 22.18664 2.45774 38.49846
#
# Poissons Ratio (x) = 0.19416 -0.03957
# Poissons Ratio (y) = 1.75275 2.94104
# Poissons Ratio (z) = -0.02280 0.18776
#
# Static dielectric constant tensor:
#      x y z
#    x 1.570040 0.000000 0.000000 
#    y 0.000000 1.554440 0.000000 
#    z 0.000000 0.000000 1.616230 
# 
# From -- ./inp_files/43480.got.cif
#   From: 2010.05.17/outbox.cif.g08.bks.cpg/sg67_22_cif.got.tgz:43480.got - 2010.06.03 18:28:57.
