data_PCOD9503042
_publ_section_title
;
Structure prediction by ZEFSAII (Michael W. Deem and Ramdas Pophale) SiO2 
 PCOD9503042
Probable space group: C M M A
;
_chemical_formula_sum "Si O2"
_cell_formula_units_Z 100
_cell_length_a 30.640284
_cell_length_b 8.239107
_cell_length_c 20.497141
_cell_angle_alpha 90.000000
_cell_angle_beta 90.000000
_cell_angle_gamma 90.000000
_cell_volume 5174.474106
_symmetry_space_group_name_H-M "C M M A"
_symmetry_group_IT_number 67
_symmetry_cell_setting 'orthorhombic'
loop_
_space_group_symop_operation_xyz
x,y,z
-x,1/2-y,z
x,-y,-z
-x,1/2+y,-z
-x,-y,-z
x,1/2+y,-z
-x,y,z
x,1/2-y,z
1/2+x,1/2+y,z
1/2-x,-y,z
1/2+x,1/2-y,-z
1/2-x,y,-z
1/2-x,1/2-y,-z
1/2+x,y,-z
1/2-x,1/2+y,z
1/2+x,-y,z
loop_
_atom_site_type_symbol
_atom_site_label
_atom_site_fract_x
_atom_site_fract_y
_atom_site_fract_z
Si Si1 0.500000 0.000000 0.000000
Si Si2 0.135606 0.445935 0.685195
Si Si3 0.798473 0.944210 0.425687
Si Si4 0.330535 0.944687 0.929529
Si Si5 0.796526 0.445059 0.792939
Si Si6 0.950530 0.945456 0.746921
Si Si7 0.072376 0.554891 0.894692
O O1 0.537920 0.978500 0.943930
O O2 0.135751 0.250000 0.684713
O O3 0.162985 0.502037 0.622151
O O4 0.163856 0.502479 0.747771
O O5 0.086171 0.500823 0.695824
O O6 0.798282 0.750000 0.424347
O O7 0.804991 0.000000 0.500000
O O8 0.750000 0.000000 0.404704
O O9 0.332613 0.750000 0.928820
O O10 0.302840 0.001736 0.867244
O O11 0.379086 0.012387 0.917193
O O12 0.314281 0.000000 0.000000
O O13 0.797549 0.250000 0.792638
O O14 0.750000 0.500000 0.766789
O O15 0.951138 0.750000 0.747730
O O16 0.936124 0.997445 0.820049
O O17 0.000000 0.002273 0.734019
O O18 0.065235 0.750000 0.898695
#
# Coordination Sequence:
#
# PCOD9503042 Si02
#       7
#     4  16  16  16  16  16  16
#     4  12  22  32  56  82 108 140 184 232 298 356
#     4  10  21  38  58  85 118 152 190 233 280 336
#     4  10  20  35  59  90 127 160 193 233 277 335
#     4  11  23  38  55  74 103 138 180 230 281 339
#     4  10  22  38  56  80 108 141 184 230 278 335
#     4  10  21  37  57  82 112 147 188 236 284 338
#     4  11  22  36  53  77 107 139 180 229 286 346
#
# _framework density 19.325634999999998
#
# number of rings (size 3 to 8) (size 9 to 14) (size 15 to 20)
#    0.000    1.600    3.200    2.160    0.000    4.480 
#    0.000    1.600    0.000    0.480    0.000    0.000 
#    0.000    0.000    0.000    0.000    0.000    0.000 
#
# Total GULP energy -278770.601057 kJ/mol
# GULP energy per Si atom -5575.412021 kJ/mol
# Density = 1.928165 g / cm^3
# Si number density = 19.325635 Si / 1000 Ang^3
#
#
#
# Elastic Constant Matrix: (Units=GPa)
#
#
# Indices 1 2 3 4 5 6 
#
# 1 108.5227 5.9524 56.3689 0.0000 0.0000 0.0000
# 2 5.9524 14.1684 14.2020 0.0000 0.0000 0.0000
# 3 56.3689 14.2020 111.9164 0.0000 0.0000 0.0000
# 4 0.0000 0.0000 0.0000 19.1685 0.0000 0.0000
# 5 0.0000 0.0000 0.0000 0.0000 -13.0699 0.0000
# 6 0.0000 0.0000 0.0000 0.0000 0.0000 3.6816
#
#
#
# Elastic Compliance Matrix: (Units=1/GPa)
#
#
# Indices 1 2 3 4 5 6 
#
# 1 0.012498 0.001213 -0.006449 0.000000 0.000000 0.000000
# 2 0.001213 0.080984 -0.010888 0.000000 0.000000 0.000000
# 3 -0.006449 -0.010888 0.013565 0.000000 0.000000 0.000000
# 4 0.000000 0.000000 0.000000 0.052169 0.000000 0.000000
# 5 0.000000 0.000000 0.000000 0.000000 -0.076512 0.000000
# 6 0.000000 0.000000 0.000000 0.000000 0.000000 0.271625
#
#
# Mechanical properties :
#
#
# Convention : Reuss Voigt Hill
#
# Bulk Modulus (GPa) = 13.36898 43.07268 28.22083
# Shear Modulus (GPa) = 12.15044 12.49497 12.32271
#
# Velocity S-wave (km/s) = 2.51015 2.54549 2.52788
# Velocity P-wave (km/s) = 3.91585 5.56557 4.81194
#
# Compressibility (1/GPa) = 0.07480004
#
# Stress axis : x y z
#
# Youngs Moduli (GPa) = 80.01476 12.34818 73.71965
#
# Poissons Ratio (x) = -0.01498 0.47540
# Poissons Ratio (y) = -0.09710 0.80265
# Poissons Ratio (z) = 0.51599 0.13445
#
# Static dielectric constant tensor:
#      x y z
#    x 1.653310 0.000000 0.000000 
#    y 0.000000 1.694520 0.000000 
#    z 0.000000 0.000000 1.559500 
# 
# From -- ./inp_files/39982.got.cif
#   From: 2010.05.17/outbox.cif.g08.bks.cpg/sg67_20_cif.got.tgz:39982.got - 2010.06.03 18:28:57.
