data_PCOD9503316
_publ_section_title
;
Structure prediction by ZEFSAII (Michael W. Deem and Ramdas Pophale) SiO2 
 PCOD9503316
Probable space group: C M M A
;
_chemical_formula_sum "Si O2"
_cell_formula_units_Z 64
_cell_length_a 27.611088
_cell_length_b 19.342844
_cell_length_c 5.445739
_cell_angle_alpha 90.000000
_cell_angle_beta 90.000000
_cell_angle_gamma 90.000000
_cell_volume 2908.443773
_symmetry_space_group_name_H-M "C M M A"
_symmetry_group_IT_number 67
_symmetry_cell_setting 'orthorhombic'
loop_
_space_group_symop_operation_xyz
x,y,z
-x,1/2-y,z
x,-y,-z
-x,1/2+y,-z
-x,-y,-z
x,1/2+y,-z
-x,y,z
x,1/2-y,z
1/2+x,1/2+y,z
1/2-x,-y,z
1/2+x,1/2-y,-z
1/2-x,y,-z
1/2-x,1/2-y,-z
1/2+x,y,-z
1/2-x,1/2+y,z
1/2+x,-y,z
loop_
_atom_site_type_symbol
_atom_site_label
_atom_site_fract_x
_atom_site_fract_y
_atom_site_fract_z
Si Si1 0.193826 0.472182 0.245678
Si Si2 0.393527 0.667062 0.754471
Si Si3 0.194187 0.325677 0.431626
Si Si4 0.556015 0.165620 0.749172
O O1 0.172417 0.500000 0.500000
O O2 0.250000 0.500000 0.246991
O O3 0.191229 0.389815 0.251015
O O4 0.170427 0.500000 0.000000
O O5 0.401056 0.750000 0.765267
O O6 0.337830 0.658196 0.672246
O O7 0.412989 0.641251 0.015281
O O8 0.422830 0.642032 0.513122
O O9 0.178086 0.250000 0.335476
O O10 0.250000 0.321464 0.500000
O O11 0.500000 0.145941 0.777864
O O12 0.557601 0.250000 0.744567
#
# Coordination Sequence:
#
# PCOD9503316 Si02
#       4
#    16  16  16  16
#     4  10  20  38  56  76 106 151 193 243 271 323
#     4   9  18  30  46  75 108 140 185 227 269 339
#     4  10  20  37  58  85 120 160 193 232 288 340
#     4   9  16  29  48  70 103 144 179 224 284 334
#
# _framework density 22.004894
#
# number of rings (size 3 to 8) (size 9 to 14) (size 15 to 20)
#    0.000    2.500    2.500    0.750    0.000    5.000 
#    0.000    6.250    0.000    0.000    0.000    0.000 
#    0.000   20.000    0.000    0.000    0.000    0.000 
#
# Total GULP energy -178590.711858 kJ/mol
# GULP energy per Si atom -5580.959746 kJ/mol
# Density = 2.195481 g / cm^3
# Si number density = 22.004894 Si / 1000 Ang^3
#
#
#
# Elastic Constant Matrix: (Units=GPa)
#
#
# Indices 1 2 3 4 5 6 
#
# 1 119.9145 -10.1668 29.9344 0.0000 0.0000 0.0000
# 2 -10.1668 108.4172 30.6455 0.0000 0.0000 0.0000
# 3 29.9344 30.6455 146.5814 0.0000 0.0000 0.0000
# 4 0.0000 0.0000 0.0000 4.6909 0.0000 0.0000
# 5 0.0000 0.0000 0.0000 0.0000 9.7822 0.0000
# 6 0.0000 0.0000 0.0000 0.0000 0.0000 -1.9412
#
#
#
# Elastic Compliance Matrix: (Units=1/GPa)
#
#
# Indices 1 2 3 4 5 6 
#
# 1 0.008996 0.001449 -0.002140 0.000000 0.000000 0.000000
# 2 0.001449 0.010036 -0.002394 0.000000 0.000000 0.000000
# 3 -0.002140 -0.002394 0.007760 0.000000 0.000000 0.000000
# 4 0.000000 0.000000 0.000000 0.213178 0.000000 0.000000
# 5 0.000000 0.000000 0.000000 0.000000 0.102226 0.000000
# 6 0.000000 0.000000 0.000000 0.000000 0.000000 -0.515156
#
#
# Mechanical properties :
#
#
# Convention : Reuss Voigt Hill
#
# Bulk Modulus (GPa) = 48.49411 52.85991 50.67701
# Shear Modulus (GPa) = -31.26681 24.13973 -3.56354
#
# Velocity S-wave (km/s) = -3.77358 3.31572 -1.27395
# Velocity P-wave (km/s) = 1.76046 6.22356 4.57340
#
# Compressibility (1/GPa) = 0.02062106
#
# Stress axis : x y z
#
# Youngs Moduli (GPa) = 111.15674 99.63955 128.87098
#
# Poissons Ratio (x) = -0.14433 0.27579
# Poissons Ratio (y) = -0.16101 0.30852
# Poissons Ratio (z) = 0.23788 0.23854
#
# Static dielectric constant tensor:
#      x y z
#    x 1.822130 0.000000 0.000000 
#    y 0.000000 1.854510 0.000000 
#    z 0.000000 0.000000 1.850150 
# 
# From -- ./inp_files/2213.got.cif
#   From: 2010.05.17/outbox.cif.g08.bks.cpg/sg67_2_cif.got.tgz:2213.got - 2010.06.03 18:28:57.
