data_PCOD9503977
_publ_section_title
;
Structure prediction by ZEFSAII (Michael W. Deem and Ramdas Pophale) SiO2 
 PCOD9503977
Probable space group: C M M A
;
_chemical_formula_sum "Si O2"
_cell_formula_units_Z 80
_cell_length_a 9.971539
_cell_length_b 17.599094
_cell_length_c 26.348290
_cell_angle_alpha 90.000000
_cell_angle_beta 90.000000
_cell_angle_gamma 90.000000
_cell_volume 4623.862787
_symmetry_space_group_name_H-M "C M M A"
_symmetry_group_IT_number 67
_symmetry_cell_setting 'orthorhombic'
loop_
_space_group_symop_operation_xyz
x,y,z
-x,1/2-y,z
x,-y,-z
-x,1/2+y,-z
-x,-y,-z
x,1/2+y,-z
-x,y,z
x,1/2-y,z
1/2+x,1/2+y,z
1/2-x,-y,z
1/2+x,1/2-y,-z
1/2-x,y,-z
1/2-x,1/2-y,-z
1/2+x,y,-z
1/2-x,1/2+y,z
1/2+x,-y,z
loop_
_atom_site_type_symbol
_atom_site_label
_atom_site_fract_x
_atom_site_fract_y
_atom_site_fract_z
Si Si1 0.212096 0.842588 0.883887
Si Si2 0.500000 0.343074 0.084388
Si Si3 0.778166 0.587567 0.612711
Si Si4 0.000000 0.082609 0.473902
Si Si5 0.000000 0.842538 0.801365
Si Si6 0.500000 0.661055 0.579475
Si Si7 0.000000 0.657595 0.967607
Si Si8 0.500000 0.841470 0.315566
O O1 0.212406 0.750000 0.883554
O O2 0.364302 0.868452 0.888427
O O3 0.129102 0.866661 0.834413
O O4 0.128821 0.864890 0.934208
O O5 0.500000 0.250000 0.084103
O O6 0.500000 0.367946 0.025551
O O7 0.750000 0.500000 0.625348
O O8 0.869703 0.589968 0.561802
O O9 0.635217 0.625871 0.602742
O O10 0.869156 0.627280 0.655321
O O11 0.000000 0.142006 0.519562
O O12 0.000000 0.000000 0.500000
O O13 0.000000 0.866283 0.743146
O O14 0.000000 0.750000 0.801297
O O15 0.500000 0.750000 0.587935
O O16 0.000000 0.750000 0.969166
O O17 0.500000 0.750000 0.318064
#
# Coordination Sequence:
#
# PCOD9503977 Si02
#       8
#    16   8  16   8   8   8   8   8
#     4   8  13  20  31  48  73 108 154 197 243 300
#     4   9  13  16  26  47  74 104 147 202 245 285
#     4  11  22  38  59  79 109 143 177 211 259 317
#     4  11  21  37  59  80 108 149 177 195 244 318
#     4   8  15  29  44  57  78 116 161 207 252 300
#     4  12  24  35  55  87 116 139 175 222 255 293
#     4   8  12  17  25  41  70 109 150 194 237 289
#     4  10  21  38  58  76 101 137 181 224 265 309
#
# _framework density 17.301552000000001
#
# number of rings (size 3 to 8) (size 9 to 14) (size 15 to 20)
#    0.000    2.400    2.000    3.600    0.000    5.600 
#    0.000    1.000    0.000    3.600    0.000    0.000 
#    0.000    0.000    0.000    0.000    0.000   48.000 
#
# Total GULP energy -223038.421930 kJ/mol
# GULP energy per Si atom -5575.960548 kJ/mol
# Density = 1.726217 g / cm^3
# Si number density = 17.301552 Si / 1000 Ang^3
#
#
#
# Elastic Constant Matrix: (Units=GPa)
#
#
# Indices 1 2 3 4 5 6 
#
# 1 195.0729 42.2383 92.6859 0.0000 0.0000 0.0000
# 2 42.2383 63.7941 29.8076 0.0000 0.0000 0.0000
# 3 92.6859 29.8076 146.4764 0.0000 0.0000 0.0000
# 4 0.0000 0.0000 0.0000 1.0237 0.0000 0.0000
# 5 0.0000 0.0000 0.0000 0.0000 4.6930 0.0000
# 6 0.0000 0.0000 0.0000 0.0000 0.0000 13.2426
#
#
#
# Elastic Compliance Matrix: (Units=1/GPa)
#
#
# Indices 1 2 3 4 5 6 
#
# 1 0.007877 -0.003190 -0.004335 0.000000 0.000000 0.000000
# 2 -0.003190 0.018614 -0.001770 0.000000 0.000000 0.000000
# 3 -0.004335 -0.001770 0.009930 0.000000 0.000000 0.000000
# 4 0.000000 0.000000 0.000000 0.976833 0.000000 0.000000
# 5 0.000000 0.000000 0.000000 0.000000 0.213082 0.000000
# 6 0.000000 0.000000 0.000000 0.000000 0.000000 0.075514
#
#
# Mechanical properties :
#
#
# Convention : Reuss Voigt Hill
#
# Bulk Modulus (GPa) = 56.07756 81.64524 68.86140
# Shear Modulus (GPa) = 3.76965 19.83264 11.80115
#
# Velocity S-wave (km/s) = 1.47768 3.38937 2.61451
# Velocity P-wave (km/s) = 5.94925 7.91259 7.00010
#
# Compressibility (1/GPa) = 0.01783245
#
# Stress axis : x y z
#
# Youngs Moduli (GPa) = 126.95753 53.72257 100.70261
#
# Poissons Ratio (x) = 0.17136 0.43655
# Poissons Ratio (y) = 0.40495 0.17821
# Poissons Ratio (z) = 0.55036 0.09507
#
# Static dielectric constant tensor:
#      x y z
#    x 1.589780 0.000000 0.000000 
#    y 0.000000 1.613300 0.000000 
#    z 0.000000 0.000000 1.580300 
# 
# From -- ./inp_files/40635.got.cif
#   From: 2010.05.17/outbox.cif.g08.bks.cpg/sg67_21_cif.got.tgz:40635.got - 2010.06.03 18:28:57.
