data_PCOD9503132
_publ_section_title
;
Structure prediction by ZEFSAII (Michael W. Deem and Ramdas Pophale) SiO2 
 PCOD9503132
Probable space group: C M M A
;
_chemical_formula_sum "Si O2"
_cell_formula_units_Z 96
_cell_length_a 15.598490
_cell_length_b 14.282221
_cell_length_c 21.878568
_cell_angle_alpha 90.000000
_cell_angle_beta 90.000000
_cell_angle_gamma 90.000000
_cell_volume 4874.131040
_symmetry_space_group_name_H-M "C M M A"
_symmetry_group_IT_number 67
_symmetry_cell_setting 'orthorhombic'
loop_
_space_group_symop_operation_xyz
x,y,z
-x,1/2-y,z
x,-y,-z
-x,1/2+y,-z
-x,-y,-z
x,1/2+y,-z
-x,y,z
x,1/2-y,z
1/2+x,1/2+y,z
1/2-x,-y,z
1/2+x,1/2-y,-z
1/2-x,y,-z
1/2-x,1/2-y,-z
1/2+x,y,-z
1/2-x,1/2+y,z
1/2+x,-y,z
loop_
_atom_site_type_symbol
_atom_site_label
_atom_site_fract_x
_atom_site_fract_y
_atom_site_fract_z
Si Si1 0.152878 0.524617 0.903338
Si Si2 0.232043 0.358354 0.431158
Si Si3 0.402618 0.647707 0.648949
Si Si4 0.899916 0.356294 0.982686
Si Si5 0.397940 0.352879 0.790361
Si Si6 0.898654 0.439869 0.334818
O O1 0.250000 0.500000 0.891649
O O2 0.109204 0.429369 0.927273
O O3 0.117403 0.572325 0.842980
O O4 0.147515 0.597930 0.959580
O O5 0.200975 0.250000 0.433483
O O6 0.250000 0.390485 0.500000
O O7 0.324497 0.356605 0.398268
O O8 0.162816 0.416855 0.392045
O O9 0.500000 0.645154 0.622198
O O10 0.395799 0.750000 0.680590
O O11 0.394741 0.549519 0.683936
O O12 0.872180 0.250000 0.969495
O O13 0.000000 0.354084 0.000151
O O14 0.500000 0.347309 0.783272
O O15 0.364931 0.250000 0.808272
O O16 0.365854 0.381436 0.723304
O O17 0.000000 0.419161 0.347688
#
# Coordination Sequence:
#
# PCOD9503132 Si02
#       6
#    16  16  16  16  16  16
#     4  11  22  34  54  84 115 147 185 235 289 340
#     4  10  21  36  56  83 114 147 183 230 288 347
#     4   9  19  36  55  76 106 145 184 222 272 336
#     4  10  20  36  58  81 111 153 195 235 280 333
#     4  10  21  39  61  82 108 146 192 238 284 340
#     4  10  21  37  59  85 113 148 193 244 293 347
#
# _framework density 19.695819
#
# number of rings (size 3 to 8) (size 9 to 14) (size 15 to 20)
#    0.000    2.000    0.000    4.500    0.000    7.667 
#    0.000    4.167    0.000    3.000    0.000    0.000 
#    0.000    0.000    0.000    0.000    0.000    0.000 
#
# Total GULP energy -267538.712803 kJ/mol
# GULP energy per Si atom -5573.723183 kJ/mol
# Density = 1.965099 g / cm^3
# Si number density = 19.695819 Si / 1000 Ang^3
#
#
#
# Elastic Constant Matrix: (Units=GPa)
#
#
# Indices 1 2 3 4 5 6 
#
# 1 46.8816 20.6875 15.4539 0.0000 0.0000 0.0000
# 2 20.6875 148.4702 44.7403 0.0000 0.0000 0.0000
# 3 15.4539 44.7403 89.7761 0.0000 0.0000 0.0000
# 4 0.0000 0.0000 0.0000 20.8049 0.0000 0.0000
# 5 0.0000 0.0000 0.0000 0.0000 25.9631 0.0000
# 6 0.0000 0.0000 0.0000 0.0000 0.0000 27.4674
#
#
#
# Elastic Compliance Matrix: (Units=1/GPa)
#
#
# Indices 1 2 3 4 5 6 
#
# 1 0.023318 -0.002400 -0.002818 0.000000 0.000000 0.000000
# 2 -0.002400 0.008173 -0.003660 0.000000 0.000000 0.000000
# 3 -0.002818 -0.003660 0.013448 0.000000 0.000000 0.000000
# 4 0.000000 0.000000 0.000000 0.048066 0.000000 0.000000
# 5 0.000000 0.000000 0.000000 0.000000 0.038516 0.000000
# 6 0.000000 0.000000 0.000000 0.000000 0.000000 0.036407
#
#
# Mechanical properties :
#
#
# Convention : Reuss Voigt Hill
#
# Bulk Modulus (GPa) = 36.78724 49.65458 43.22091
# Shear Modulus (GPa) = 25.67481 28.46350 27.06915
#
# Velocity S-wave (km/s) = 3.61441 3.80564 3.71126
# Velocity P-wave (km/s) = 6.01139 6.67653 6.35267
#
# Compressibility (1/GPa) = 0.02718334
#
# Stress axis : x y z
#
# Youngs Moduli (GPa) = 42.88490 122.36028 74.36198
#
# Poissons Ratio (x) = 0.29366 0.20955
# Poissons Ratio (y) = 0.10292 0.27214
# Poissons Ratio (z) = 0.12085 0.44780
#
# Static dielectric constant tensor:
#      x y z
#    x 1.695010 0.000000 0.000000 
#    y 0.000000 1.771180 0.000000 
#    z 0.000000 0.000000 1.655410 
# 
# From -- ./inp_files/38404.got.cif
#   From: 2010.05.17/outbox.cif.g08.bks.cpg/sg67_20_cif.got.tgz:38404.got - 2010.06.03 18:28:57.
