data_PCOD9503783
_publ_section_title
;
Structure prediction by ZEFSAII (Michael W. Deem and Ramdas Pophale) SiO2 
 PCOD9503783
Probable space group: C M M A
;
_chemical_formula_sum "Si O2"
_cell_formula_units_Z 96
_cell_length_a 14.438347
_cell_length_b 14.478242
_cell_length_c 26.343327
_cell_angle_alpha 90.000000
_cell_angle_beta 90.000000
_cell_angle_gamma 90.000000
_cell_volume 5506.858653
_symmetry_space_group_name_H-M "C M M A"
_symmetry_group_IT_number 67
_symmetry_cell_setting 'orthorhombic'
loop_
_space_group_symop_operation_xyz
x,y,z
-x,1/2-y,z
x,-y,-z
-x,1/2+y,-z
-x,-y,-z
x,1/2+y,-z
-x,y,z
x,1/2-y,z
1/2+x,1/2+y,z
1/2-x,-y,z
1/2+x,1/2-y,-z
1/2-x,y,-z
1/2-x,1/2-y,-z
1/2+x,y,-z
1/2-x,1/2+y,z
1/2+x,-y,z
loop_
_atom_site_type_symbol
_atom_site_label
_atom_site_fract_x
_atom_site_fract_y
_atom_site_fract_z
Si Si1 0.141151 0.500002 0.606559
Si Si2 0.749887 0.857645 0.894816
Si Si3 0.107910 0.499891 0.060887
Si Si4 0.749971 0.357785 0.773037
Si Si5 0.500000 0.642146 0.560873
Si Si6 0.000000 0.857854 0.560869
Si Si7 0.608845 0.499970 0.272577
O O1 0.250000 0.500000 0.595793
O O2 0.088670 0.411588 0.583136
O O3 0.125020 0.500004 0.666991
O O4 0.088670 0.588412 0.583132
O O5 0.749784 0.750000 0.908337
O O6 0.838434 0.911416 0.916981
O O7 0.749985 0.866329 0.833919
O O8 0.661383 0.911579 0.916909
O O9 0.000000 0.499777 0.074318
O O10 0.116873 0.500000 0.000000
O O11 0.749935 0.250000 0.759524
O O12 0.661303 0.411625 0.750865
O O13 0.838653 0.411568 0.750838
O O14 0.500000 0.750000 0.574251
O O15 0.500000 0.633332 0.500002
O O16 0.000000 0.750000 0.574247
O O17 0.500000 0.499942 0.261836
#
# Coordination Sequence:
#
# PCOD9503783 Si02
#       7
#    16  16  16  16   8   8  16
#     4  11  21  39  60  87 114 150 188 231 283 334
#     4  10  21  38  58  81 114 153 189 231 285 339
#     4  10  21  36  57  86 115 148 190 236 284 335
#     4  10  23  39  57  85 115 147 191 237 281 339
#     4  10  23  41  60  87 119 150 189 233 280 339
#     4  10  23  41  60  87 119 150 189 233 280 339
#     4  11  21  39  58  84 114 147 188 232 286 331
#
# _framework density 17.432805999999999
#
# number of rings (size 3 to 8) (size 9 to 14) (size 15 to 20)
#    0.000    1.667    3.333    4.000    0.000    8.667 
#    0.000    6.667    0.000    0.000    0.000    0.000 
#    0.000    0.000    0.000    0.000    0.000    0.000 
#
# Total GULP energy -268050.113839 kJ/mol
# GULP energy per Si atom -5584.377372 kJ/mol
# Density = 1.739313 g / cm^3
# Si number density = 17.432806 Si / 1000 Ang^3
#
#
#
# Elastic Constant Matrix: (Units=GPa)
#
#
# Indices 1 2 3 4 5 6 
#
# 1 209.5424 106.7643 60.7643 0.0000 0.0000 0.0000
# 2 106.7643 200.5927 77.3576 0.0000 0.0000 0.0000
# 3 60.7643 77.3576 90.1969 0.0000 0.0000 0.0000
# 4 0.0000 0.0000 0.0000 -315.9006 0.0000 0.0000
# 5 0.0000 0.0000 0.0000 0.0000 88.2866 0.0000
# 6 0.0000 0.0000 0.0000 0.0000 0.0000 2.3115
#
#
#
# Elastic Compliance Matrix: (Units=1/GPa)
#
#
# Indices 1 2 3 4 5 6 
#
# 1 0.006832 -0.002781 -0.002217 0.000000 0.000000 0.000000
# 2 -0.002781 0.008581 -0.005486 0.000000 0.000000 0.000000
# 3 -0.002217 -0.005486 0.017286 0.000000 0.000000 0.000000
# 4 0.000000 0.000000 0.000000 -0.003166 0.000000 0.000000
# 5 0.000000 0.000000 0.000000 0.000000 0.011327 0.000000
# 6 0.000000 0.000000 0.000000 0.000000 0.000000 0.432613
#
#
# Mechanical properties :
#
#
# Convention : Reuss Voigt Hill
#
# Bulk Modulus (GPa) = 85.25243 110.01162 97.63202
# Shear Modulus (GPa) = 10.03304 -28.03077 -8.99886
#
# Velocity S-wave (km/s) = 2.40162 -4.01425 -2.27447
# Velocity P-wave (km/s) = 7.52994 6.46200 7.01632
#
# Compressibility (1/GPa) = 0.01172987
#
# Stress axis : x y z
#
# Youngs Moduli (GPa) = 146.35934 116.53348 57.85114
#
# Poissons Ratio (x) = 0.32413 0.12828
# Poissons Ratio (y) = 0.40708 0.31737
# Poissons Ratio (z) = 0.32455 0.63929
#
# Static dielectric constant tensor:
#      x y z
#    x 1.573690 0.000000 0.000000 
#    y 0.000000 1.575200 0.000000 
#    z 0.000000 0.000000 1.583160 
# 
# From -- ./inp_files/41894.got.cif
#   From: 2010.05.17/outbox.cif.g08.bks.cpg/sg67_21_cif.got.tgz:41894.got - 2010.06.03 18:28:57.
