data_PCOD9503062
_publ_section_title
;
Structure prediction by ZEFSAII (Michael W. Deem and Ramdas Pophale) SiO2 
 PCOD9503062
Probable space group: C M M A
;
_chemical_formula_sum "Si O2"
_cell_formula_units_Z 120
_cell_length_a 30.656967
_cell_length_b 9.076155
_cell_length_c 26.209313
_cell_angle_alpha 90.000000
_cell_angle_beta 90.000000
_cell_angle_gamma 90.000000
_cell_volume 7292.672787
_symmetry_space_group_name_H-M "C M M A"
_symmetry_group_IT_number 67
_symmetry_cell_setting 'orthorhombic'
loop_
_space_group_symop_operation_xyz
x,y,z
-x,1/2-y,z
x,-y,-z
-x,1/2+y,-z
-x,-y,-z
x,1/2+y,-z
-x,y,z
x,1/2-y,z
1/2+x,1/2+y,z
1/2-x,-y,z
1/2+x,1/2-y,-z
1/2-x,y,-z
1/2-x,1/2-y,-z
1/2+x,y,-z
1/2-x,1/2+y,z
1/2+x,-y,z
loop_
_atom_site_type_symbol
_atom_site_label
_atom_site_fract_x
_atom_site_fract_y
_atom_site_fract_z
Si Si1 0.297514 0.573624 0.336193
Si Si2 0.797986 0.926215 0.549565
Si Si3 0.948858 0.079298 0.780740
Si Si4 0.080943 0.921445 0.101945
Si Si5 0.363341 0.072651 0.753451
Si Si6 0.500000 0.922513 0.053489
Si Si7 0.205835 0.424845 0.162305
Si Si8 0.833378 0.427223 0.054749
O O1 0.291273 0.750000 0.331980
O O2 0.250000 0.500000 0.329784
O O3 0.315393 0.544522 0.393490
O O4 0.332152 0.528239 0.293423
O O5 0.794773 0.750000 0.542442
O O6 0.819994 0.000000 0.500000
O O7 0.750000 0.000000 0.551624
O O8 0.949468 0.250000 0.764558
O O9 0.928222 0.075943 0.837650
O O10 0.000000 0.028822 0.780979
O O11 0.912110 0.990664 0.749933
O O12 0.078508 0.750000 0.085761
O O13 0.042076 0.019496 0.081542
O O14 0.123671 0.994454 0.077706
O O15 0.366594 0.250000 0.754648
O O16 0.336254 0.027077 0.804583
O O17 0.500000 0.750000 0.048432
O O18 0.500000 0.000000 0.000000
O O19 0.209621 0.250000 0.169576
O O20 0.250000 0.500000 0.180849
O O21 0.199793 0.451495 0.101826
O O22 0.839320 0.250000 0.048810
O O23 0.822448 0.500000 0.000000
#
# Coordination Sequence:
#
# PCOD9503062 Si02
#       8
#    16  16  16  16  16   8  16  16
#     4   9  18  30  47  72 105 140 178 216 251 291
#     4   9  15  24  39  63  96 138 178 215 250 285
#     4  10  21  37  56  78 101 126 159 198 244 300
#     4  11  21  37  56  75  98 124 154 193 240 295
#     4  10  20  36  54  76 103 131 166 208 248 296
#     4  12  24  36  52  74 100 126 152 188 235 292
#     4  10  22  37  55  76  99 126 164 203 244 296
#     4  11  23  39  55  75  97 124 159 199 244 297
#
# _framework density 16.454872999999999
#
# number of rings (size 3 to 8) (size 9 to 14) (size 15 to 20)
#    0.000    1.867    2.000    3.000    0.000    3.733 
#    0.000    1.333    0.000    0.000    0.000    0.000 
#    0.000    0.533    0.000    1.200    0.000    2.400 
#
# Total GULP energy -334232.314919 kJ/mol
# GULP energy per Si atom -5570.538582 kJ/mol
# Density = 1.641742 g / cm^3
# Si number density = 16.454873 Si / 1000 Ang^3
#
#
#
# Elastic Constant Matrix: (Units=GPa)
#
#
# Indices 1 2 3 4 5 6 
#
# 1 95.7722 40.8105 35.0332 0.0000 0.0000 0.0000
# 2 40.8105 64.6133 39.6286 0.0000 0.0000 0.0000
# 3 35.0332 39.6286 100.4539 0.0000 0.0000 0.0000
# 4 0.0000 0.0000 0.0000 17.3730 0.0000 0.0000
# 5 0.0000 0.0000 0.0000 0.0000 25.8234 0.0000
# 6 0.0000 0.0000 0.0000 0.0000 0.0000 25.3019
#
#
#
# Elastic Compliance Matrix: (Units=1/GPa)
#
#
# Indices 1 2 3 4 5 6 
#
# 1 0.014560 -0.008023 -0.001913 0.000000 0.000000 0.000000
# 2 -0.008023 0.024838 -0.007000 0.000000 0.000000 0.000000
# 3 -0.001913 -0.007000 0.013383 0.000000 0.000000 0.000000
# 4 0.000000 0.000000 0.000000 0.057561 0.000000 0.000000
# 5 0.000000 0.000000 0.000000 0.000000 0.038725 0.000000
# 6 0.000000 0.000000 0.000000 0.000000 0.000000 0.039523
#
#
# Mechanical properties :
#
#
# Convention : Reuss Voigt Hill
#
# Bulk Modulus (GPa) = 52.88536 54.64264 53.76400
# Shear Modulus (GPa) = 21.85659 23.39079 22.62369
#
# Velocity S-wave (km/s) = 3.64850 3.77438 3.71198
# Velocity P-wave (km/s) = 7.06811 7.23010 7.14956
#
# Compressibility (1/GPa) = 0.01890882
#
# Stress axis : x y z
#
# Youngs Moduli (GPa) = 68.68172 40.26159 74.71932
#
# Poissons Ratio (x) = 0.32302 0.14291
# Poissons Ratio (y) = 0.55104 0.52305
# Poissons Ratio (z) = 0.13137 0.28184
#
# Static dielectric constant tensor:
#      x y z
#    x 1.540750 0.000000 0.000000 
#    y 0.000000 1.553460 0.000000 
#    z 0.000000 0.000000 1.597430 
# 
# From -- ./inp_files/45039.got.cif
#   From: 2010.05.17/outbox.cif.g08.bks.cpg/sg67_23_cif.got.tgz:45039.got - 2010.06.03 18:28:57.
