data_PCOD9503719
_publ_section_title
;
Structure prediction by ZEFSAII (Michael W. Deem and Ramdas Pophale) SiO2 
 PCOD9503719
Probable space group: C M M A
;
_chemical_formula_sum "Si O2"
_cell_formula_units_Z 100
_cell_length_a 9.670008
_cell_length_b 21.916658
_cell_length_c 26.615316
_cell_angle_alpha 90.000000
_cell_angle_beta 90.000000
_cell_angle_gamma 90.000000
_cell_volume 5640.697253
_symmetry_space_group_name_H-M "C M M A"
_symmetry_group_IT_number 67
_symmetry_cell_setting 'orthorhombic'
loop_
_space_group_symop_operation_xyz
x,y,z
-x,1/2-y,z
x,-y,-z
-x,1/2+y,-z
-x,-y,-z
x,1/2+y,-z
-x,y,z
x,1/2-y,z
1/2+x,1/2+y,z
1/2-x,-y,z
1/2+x,1/2-y,-z
1/2-x,y,-z
1/2-x,1/2-y,-z
1/2+x,y,-z
1/2-x,1/2+y,z
1/2+x,-y,z
loop_
_atom_site_type_symbol
_atom_site_label
_atom_site_fract_x
_atom_site_fract_y
_atom_site_fract_z
Si Si1 0.250000 0.500000 0.000000
Si Si2 0.840637 0.676490 0.355408
Si Si3 0.161247 0.824383 0.549025
Si Si4 0.649341 0.414894 0.912797
Si Si5 0.840804 0.818496 0.050465
Si Si6 0.334521 0.679537 0.254684
Si Si7 0.843986 0.445122 0.200850
O O1 0.335469 0.458048 0.961416
O O2 0.849249 0.750000 0.360802
O O3 0.746495 0.654774 0.401916
O O4 0.757590 0.666433 0.303784
O O5 0.000000 0.653911 0.355257
O O6 0.157887 0.750000 0.549952
O O7 0.250000 0.841939 0.500000
O O8 0.000000 0.844039 0.548003
O O9 0.500000 0.382784 0.915766
O O10 0.774937 0.368182 0.913883
O O11 0.652988 0.448462 0.859757
O O12 0.830752 0.750000 0.070869
O O13 0.000000 0.831486 0.039089
O O14 0.750000 0.820974 0.000000
O O15 0.500000 0.677869 0.266008
O O16 0.305671 0.750000 0.238043
O O17 0.305182 0.624156 0.216280
O O18 0.750000 0.500000 0.220168
O O19 0.000000 0.454560 0.219191
#
# Coordination Sequence:
#
# PCOD9503719 Si02
#       7
#     4  16  16  16  16  16  16
#     4  12  22  36  58  82 106 132 170 206 248 308
#     4   9  16  26  42  66  96 131 174 221 269 319
#     4   9  15  22  34  56  91 135 179 221 267 317
#     4  11  23  37  57  82 106 135 169 207 253 307
#     4  10  21  36  54  77 104 132 162 198 241 291
#     4   9  18  34  55  76 101 136 179 222 265 317
#     4  10  22  39  57  81 108 138 172 214 267 317
#
# _framework density 17.728304999999999
#
# number of rings (size 3 to 8) (size 9 to 14) (size 15 to 20)
#    0.000    2.240    1.600    1.680    0.000    7.360 
#    0.000    1.600    0.000    1.920    0.000    0.000 
#    0.000    0.640    0.000    6.720    0.000   10.080 
#
# Total GULP energy -278432.279527 kJ/mol
# GULP energy per Si atom -5568.645591 kJ/mol
# Density = 1.768795 g / cm^3
# Si number density = 17.728305 Si / 1000 Ang^3
#
#
#
# Elastic Constant Matrix: (Units=GPa)
#
#
# Indices 1 2 3 4 5 6 
#
# 1 119.9958 49.0639 36.6460 0.0000 0.0000 0.0000
# 2 49.0639 70.7813 27.3670 0.0000 0.0000 0.0000
# 3 36.6460 27.3670 74.5063 0.0000 0.0000 0.0000
# 4 0.0000 0.0000 0.0000 5.1755 0.0000 0.0000
# 5 0.0000 0.0000 0.0000 0.0000 22.9487 0.0000
# 6 0.0000 0.0000 0.0000 0.0000 0.0000 29.6396
#
#
#
# Elastic Compliance Matrix: (Units=1/GPa)
#
#
# Indices 1 2 3 4 5 6 
#
# 1 0.012331 -0.007229 -0.003410 0.000000 0.000000 0.000000
# 2 -0.007229 0.020705 -0.004049 0.000000 0.000000 0.000000
# 3 -0.003410 -0.004049 0.016586 0.000000 0.000000 0.000000
# 4 0.000000 0.000000 0.000000 0.193217 0.000000 0.000000
# 5 0.000000 0.000000 0.000000 0.000000 0.043575 0.000000
# 6 0.000000 0.000000 0.000000 0.000000 0.000000 0.033739
#
#
# Mechanical properties :
#
#
# Convention : Reuss Voigt Hill
#
# Bulk Modulus (GPa) = 49.39400 54.60414 51.99907
# Shear Modulus (GPa) = 14.03401 21.69987 17.86694
#
# Velocity S-wave (km/s) = 2.81662 3.50240 3.17806
# Velocity P-wave (km/s) = 6.20483 6.87191 6.54687
#
# Compressibility (1/GPa) = 0.02024537
#
# Stress axis : x y z
#
# Youngs Moduli (GPa) = 81.09833 48.29807 60.29149
#
# Poissons Ratio (x) = 0.34915 0.20557
# Poissons Ratio (y) = 0.58627 0.24415
# Poissons Ratio (z) = 0.27651 0.19558
#
# Static dielectric constant tensor:
#      x y z
#    x 1.625900 0.000000 0.000000 
#    y 0.000000 1.610860 0.000000 
#    z 0.000000 0.000000 1.605970 
# 
# From -- ./inp_files/45316.got.cif
#   From: 2010.05.17/outbox.cif.g08.bks.cpg/sg67_23_cif.got.tgz:45316.got - 2010.06.03 18:28:57.
