data_PCOD9503786
_publ_section_title
;
Structure prediction by ZEFSAII (Michael W. Deem and Ramdas Pophale) SiO2 
 PCOD9503786
Probable space group: C M M A
;
_chemical_formula_sum "Si O2"
_cell_formula_units_Z 96
_cell_length_a 17.268437
_cell_length_b 17.276017
_cell_length_c 16.469547
_cell_angle_alpha 90.000000
_cell_angle_beta 90.000000
_cell_angle_gamma 90.000000
_cell_volume 4913.356847
_symmetry_space_group_name_H-M "C M M A"
_symmetry_group_IT_number 67
_symmetry_cell_setting 'orthorhombic'
loop_
_space_group_symop_operation_xyz
x,y,z
-x,1/2-y,z
x,-y,-z
-x,1/2+y,-z
-x,-y,-z
x,1/2+y,-z
-x,y,z
x,1/2-y,z
1/2+x,1/2+y,z
1/2-x,-y,z
1/2+x,1/2-y,-z
1/2-x,y,-z
1/2-x,1/2-y,-z
1/2+x,y,-z
1/2-x,1/2+y,z
1/2+x,-y,z
loop_
_atom_site_type_symbol
_atom_site_label
_atom_site_fract_x
_atom_site_fract_y
_atom_site_fract_z
Si Si1 0.833957 0.158298 0.960258
Si Si2 0.412054 0.158020 0.872523
Si Si3 0.756105 0.908055 0.409476
Si Si4 0.585432 0.839455 0.651929
Si Si5 0.413268 0.917966 0.813621
Si Si6 0.676202 0.056465 0.749436
O O1 0.837802 0.250000 0.937237
O O2 0.854655 0.102979 0.885445
O O3 0.750000 0.144747 0.000000
O O4 0.894605 0.144156 0.032915
O O5 0.500000 0.133481 0.852072
O O6 0.406718 0.250000 0.859628
O O7 0.346698 0.116790 0.818801
O O8 0.750000 0.873009 0.500000
O O9 0.841179 0.884895 0.380658
O O10 0.695070 0.897495 0.334638
O O11 0.750000 0.000000 0.418521
O O12 0.500000 0.868142 0.625906
O O13 0.592043 0.750000 0.628762
O O14 0.588167 0.848479 0.749013
O O15 0.500000 0.925939 0.846709
O O16 0.392204 0.993209 0.759529
O O17 0.750000 0.000000 0.763033
#
# Coordination Sequence:
#
# PCOD9503786 Si02
#       6
#    16  16  16  16  16  16
#     4  10  21  36  57  86 121 163 209 254 299 353
#     4  10  22  40  60  85 121 164 205 247 299 357
#     4  10  21  41  64  89 121 159 201 246 306 373
#     4  10  21  38  62  92 124 155 195 250 306 360
#     4  11  21  36  58  87 122 161 204 247 301 359
#     4  11  21  39  60  89 117 152 199 251 299 355
#
# _framework density 19.538577
#
# number of rings (size 3 to 8) (size 9 to 14) (size 15 to 20)
#    0.000    1.667    3.333    2.500    0.000    3.333 
#    0.000    6.667    0.000    2.000    0.000    0.000 
#    0.000    0.000    0.000    0.000    0.000    0.000 
#
# Total GULP energy -267271.870922 kJ/mol
# GULP energy per Si atom -5568.163978 kJ/mol
# Density = 1.949411 g / cm^3
# Si number density = 19.538577 Si / 1000 Ang^3
#
#
#
# Elastic Constant Matrix: (Units=GPa)
#
#
# Indices 1 2 3 4 5 6 
#
# 1 102.6312 33.1764 58.5179 0.0000 0.0000 0.0000
# 2 33.1764 42.0930 29.9709 0.0000 0.0000 0.0000
# 3 58.5179 29.9709 105.0173 0.0000 0.0000 0.0000
# 4 0.0000 0.0000 0.0000 25.3744 0.0000 0.0000
# 5 0.0000 0.0000 0.0000 0.0000 -8.8423 0.0000
# 6 0.0000 0.0000 0.0000 0.0000 0.0000 29.3742
#
#
#
# Elastic Compliance Matrix: (Units=1/GPa)
#
#
# Indices 1 2 3 4 5 6 
#
# 1 0.016147 -0.007932 -0.006734 0.000000 0.000000 0.000000
# 2 -0.007932 0.033712 -0.005201 0.000000 0.000000 0.000000
# 3 -0.006734 -0.005201 0.014759 0.000000 0.000000 0.000000
# 4 0.000000 0.000000 0.000000 0.039410 0.000000 0.000000
# 5 0.000000 0.000000 0.000000 0.000000 -0.113092 0.000000
# 6 0.000000 0.000000 0.000000 0.000000 0.000000 0.034043
#
#
# Mechanical properties :
#
#
# Convention : Reuss Voigt Hill
#
# Bulk Modulus (GPa) = 40.18661 54.78578 47.48620
# Shear Modulus (GPa) = 68.48578 17.71968 43.10273
#
# Velocity S-wave (km/s) = 5.92686 3.01476 4.70194
# Velocity P-wave (km/s) = 8.21276 6.34185 7.33718
#
# Compressibility (1/GPa) = 0.02488391
#
# Stress axis : x y z
#
# Youngs Moduli (GPa) = 61.93018 29.66302 67.75605
#
# Poissons Ratio (x) = 0.23529 0.45626
# Poissons Ratio (y) = 0.49124 0.35241
# Poissons Ratio (z) = 0.41703 0.15428
#
# Static dielectric constant tensor:
#      x y z
#    x 1.712220 0.000000 0.000000 
#    y 0.000000 1.715560 0.000000 
#    z 0.000000 0.000000 1.727070 
# 
# From -- ./inp_files/27131.got.cif
#   From: 2010.05.17/outbox.cif.g08.bks.cpg/sg67_14_cif.got.tgz:27131.got - 2010.06.03 18:28:57.
