data_PCOD9503869
_publ_section_title
;
Structure prediction by ZEFSAII (Michael W. Deem and Ramdas Pophale) SiO2 
 PCOD9503869
Probable space group: C M M A
;
_chemical_formula_sum "Si O2"
_cell_formula_units_Z 96
_cell_length_a 17.801967
_cell_length_b 17.792479
_cell_length_c 15.357501
_cell_angle_alpha 90.000000
_cell_angle_beta 90.000000
_cell_angle_gamma 90.000000
_cell_volume 4864.352129
_symmetry_space_group_name_H-M "C M M A"
_symmetry_group_IT_number 67
_symmetry_cell_setting 'orthorhombic'
loop_
_space_group_symop_operation_xyz
x,y,z
-x,1/2-y,z
x,-y,-z
-x,1/2+y,-z
-x,-y,-z
x,1/2+y,-z
-x,y,z
x,1/2-y,z
1/2+x,1/2+y,z
1/2-x,-y,z
1/2+x,1/2-y,-z
1/2-x,y,-z
1/2-x,1/2-y,-z
1/2+x,y,-z
1/2-x,1/2+y,z
1/2+x,-y,z
loop_
_atom_site_type_symbol
_atom_site_label
_atom_site_fract_x
_atom_site_fract_y
_atom_site_fract_z
Si Si1 0.796496 0.336678 0.133640
Si Si2 0.588561 0.916448 0.479097
Si Si3 0.668089 0.664006 0.633576
Si Si4 0.085914 0.549085 0.912741
Si Si5 0.842410 0.832889 0.664971
Si Si6 0.181299 0.445133 0.788908
O O1 0.782945 0.250000 0.109858
O O2 0.857894 0.380514 0.077366
O O3 0.831036 0.337533 0.231801
O O4 0.721466 0.386723 0.144057
O O5 0.500000 0.913058 0.494302
O O6 0.629307 0.859480 0.544414
O O7 0.607524 0.894869 0.380391
O O8 0.616019 0.000000 0.500000
O O9 0.649098 0.750000 0.658178
O O10 0.758426 0.661077 0.626290
O O11 0.649950 0.604198 0.709556
O O12 0.120958 0.496712 0.837027
O O13 0.000000 0.571340 0.893746
O O14 0.086743 0.500000 0.000000
O O15 0.872978 0.750000 0.644299
O O16 0.250000 0.500000 0.759263
#
# Coordination Sequence:
#
# PCOD9503869 Si02
#       6
#    16  16  16  16  16  16
#     4   9  19  37  63  89 111 141 189 243 286 325
#     4  11  25  36  48  76 113 150 190 230 272 324
#     4  10  21  37  57  81 109 144 185 229 277 331
#     4  10  22  39  58  84 120 154 183 222 278 343
#     4   9  19  37  58  80 105 138 183 235 282 322
#     4   9  19  35  60  87 112 145 185 233 280 331
#
# _framework density 19.735413999999999
#
# number of rings (size 3 to 8) (size 9 to 14) (size 15 to 20)
#    0.000    2.333    0.000    2.500    7.000    8.000 
#    0.000    4.167    0.000    3.500    0.000    0.000 
#    0.000    0.000    0.000    0.000    0.000    0.000 
#
# Total GULP energy -267961.608176 kJ/mol
# GULP energy per Si atom -5582.533504 kJ/mol
# Density = 1.969050 g / cm^3
# Si number density = 19.735414 Si / 1000 Ang^3
#
#
#
# Elastic Constant Matrix: (Units=GPa)
#
#
# Indices 1 2 3 4 5 6 
#
# 1 13.7786 -2.0555 6.2404 0.0000 0.0000 0.0000
# 2 -2.0555 93.5673 -3.0018 0.0000 0.0000 0.0000
# 3 6.2404 -3.0018 32.5152 0.0000 0.0000 0.0000
# 4 0.0000 0.0000 0.0000 21.4935 0.0000 0.0000
# 5 0.0000 0.0000 0.0000 0.0000 16.6202 0.0000
# 6 0.0000 0.0000 0.0000 0.0000 0.0000 10.1301
#
#
#
# Elastic Compliance Matrix: (Units=1/GPa)
#
#
# Indices 1 2 3 4 5 6 
#
# 1 0.079634 0.001263 -0.015167 0.000000 0.000000 0.000000
# 2 0.001263 0.010739 0.000749 0.000000 0.000000 0.000000
# 3 -0.015167 0.000749 0.033735 0.000000 0.000000 0.000000
# 4 0.000000 0.000000 0.000000 0.046526 0.000000 0.000000
# 5 0.000000 0.000000 0.000000 0.000000 0.060168 0.000000
# 6 0.000000 0.000000 0.000000 0.000000 0.000000 0.098716
#
#
# Mechanical properties :
#
#
# Convention : Reuss Voigt Hill
#
# Bulk Modulus (GPa) = 10.22517 15.80302 13.01409
# Shear Modulus (GPa) = 12.87247 18.89398 15.88322
#
# Velocity S-wave (km/s) = 2.55669 3.09749 2.83999
# Velocity P-wave (km/s) = 3.72934 4.56261 4.16685
#
# Compressibility (1/GPa) = 0.09779792
#
# Stress axis : x y z
#
# Youngs Moduli (GPa) = 12.55751 93.11619 29.64297
#
# Poissons Ratio (x) = -0.11759 0.44959
# Poissons Ratio (y) = -0.01586 -0.02221
# Poissons Ratio (z) = 0.19046 -0.06975
#
# Static dielectric constant tensor:
#      x y z
#    x 1.670600 0.000000 0.000000 
#    y 0.000000 1.721570 0.000000 
#    z 0.000000 0.000000 1.715520 
# 
# From -- ./inp_files/27191.got.cif
#   From: 2010.05.17/outbox.cif.g08.bks.cpg/sg67_14_cif.got.tgz:27191.got - 2010.06.03 18:28:57.
