data_PCOD9503314
_publ_section_title
;
Structure prediction by ZEFSAII (Michael W. Deem and Ramdas Pophale) SiO2 
 PCOD9503314
Probable space group: C M M A
;
_chemical_formula_sum "Si O2"
_cell_formula_units_Z 84
_cell_length_a 13.800199
_cell_length_b 24.045808
_cell_length_c 14.291668
_cell_angle_alpha 90.000000
_cell_angle_beta 90.000000
_cell_angle_gamma 90.000000
_cell_volume 4742.503313
_symmetry_space_group_name_H-M "C M M A"
_symmetry_group_IT_number 67
_symmetry_cell_setting 'orthorhombic'
loop_
_space_group_symop_operation_xyz
x,y,z
-x,1/2-y,z
x,-y,-z
-x,1/2+y,-z
-x,-y,-z
x,1/2+y,-z
-x,y,z
x,1/2-y,z
1/2+x,1/2+y,z
1/2-x,-y,z
1/2+x,1/2-y,-z
1/2-x,y,-z
1/2-x,1/2-y,-z
1/2+x,y,-z
1/2-x,1/2+y,z
1/2+x,-y,z
loop_
_atom_site_type_symbol
_atom_site_label
_atom_site_fract_x
_atom_site_fract_y
_atom_site_fract_z
Si Si1 0.114979 0.339936 0.104175
Si Si2 0.276448 0.419305 0.607712
Si Si3 0.613510 0.813811 0.324601
Si Si4 0.117036 0.032302 0.093086
Si Si5 0.885646 0.018079 0.705995
Si Si6 0.750000 0.250000 0.000000
O O1 0.123642 0.322819 0.213083
O O2 0.150047 0.403852 0.095979
O O3 0.000000 0.337146 0.080298
O O4 0.176971 0.298510 0.042100
O O5 0.250000 0.427994 0.500000
O O6 0.320282 0.358854 0.624962
O O7 0.180987 0.431959 0.669422
O O8 0.354211 0.465043 0.643119
O O9 0.500000 0.823406 0.347150
O O10 0.637490 0.750000 0.347114
O O11 0.000000 0.035667 0.092413
O O12 0.139655 0.998931 0.187751
O O13 0.146232 0.000000 0.000000
O O14 0.000000 0.028542 0.698886
#
# Coordination Sequence:
#
# PCOD9503314 Si02
#       6
#    16  16  16  16  16   4
#     4  10  20  37  58  83 116 152 197 244 282 345
#     4  11  23  36  57  91 120 148 196 251 298 356
#     4  10  20  39  65  84 108 153 204 249 292 344
#     4   9  18  35  58  83 112 148 193 238 279 335
#     4  10  20  37  59  84 121 162 191 234 301 364
#     4  12  22  32  54  90 114 144 192 246 294 330
#
# _framework density 17.712164999999999
#
# number of rings (size 3 to 8) (size 9 to 14) (size 15 to 20)
#    0.000    1.905    2.857    2.000    0.000    4.190 
#    0.000    0.000    0.000    1.714    0.000    0.000 
#    0.000    0.000    0.000    0.000    0.000    0.000 
#
# Total GULP energy -233943.893098 kJ/mol
# GULP energy per Si atom -5570.092693 kJ/mol
# Density = 1.767185 g / cm^3
# Si number density = 17.712165 Si / 1000 Ang^3
#
#
#
# Elastic Constant Matrix: (Units=GPa)
#
#
# Indices 1 2 3 4 5 6 
#
# 1 89.4260 48.0613 39.5412 0.0000 0.0000 0.0000
# 2 48.0613 130.5556 60.5968 0.0000 0.0000 0.0000
# 3 39.5412 60.5968 111.5914 0.0000 0.0000 0.0000
# 4 0.0000 0.0000 0.0000 0.7788 0.0000 0.0000
# 5 0.0000 0.0000 0.0000 0.0000 21.9482 0.0000
# 6 0.0000 0.0000 0.0000 0.0000 0.0000 35.3851
#
#
#
# Elastic Compliance Matrix: (Units=1/GPa)
#
#
# Indices 1 2 3 4 5 6 
#
# 1 0.014668 -0.003994 -0.003029 0.000000 0.000000 0.000000
# 2 -0.003994 0.011328 -0.004736 0.000000 0.000000 0.000000
# 3 -0.003029 -0.004736 0.012606 0.000000 0.000000 0.000000
# 4 0.000000 0.000000 0.000000 1.284074 0.000000 0.000000
# 5 0.000000 0.000000 0.000000 0.000000 0.045562 0.000000
# 6 0.000000 0.000000 0.000000 0.000000 0.000000 0.028260
#
#
# Mechanical properties :
#
#
# Convention : Reuss Voigt Hill
#
# Bulk Modulus (GPa) = 66.29175 69.77462 68.03318
# Shear Modulus (GPa) = 3.50866 23.84732 13.67799
#
# Velocity S-wave (km/s) = 1.40898 3.67329 2.78193
# Velocity P-wave (km/s) = 6.33683 7.58089 6.98661
#
# Compressibility (1/GPa) = 0.01508483
#
# Stress axis : x y z
#
# Youngs Moduli (GPa) = 68.17491 88.27524 79.32523
#
# Poissons Ratio (x) = 0.35257 0.24025
# Poissons Ratio (y) = 0.27229 0.37570
# Poissons Ratio (z) = 0.20648 0.41809
#
# Static dielectric constant tensor:
#      x y z
#    x 1.619630 0.000000 0.000000 
#    y 0.000000 1.603910 0.000000 
#    z 0.000000 0.000000 1.590140 
# 
# From -- ./inp_files/18096.got.cif
#   From: 2010.05.17/outbox.cif.g08.bks.cpg/sg67_10_cif.got.tgz:18096.got - 2010.06.03 18:28:57.
