data_PCOD9503377
_publ_section_title
;
Structure prediction by ZEFSAII (Michael W. Deem and Ramdas Pophale) SiO2 
 PCOD9503377
Probable space group: C M M A
;
_chemical_formula_sum "Si O2"
_cell_formula_units_Z 96
_cell_length_a 21.604246
_cell_length_b 30.780887
_cell_length_c 7.513191
_cell_angle_alpha 90.000000
_cell_angle_beta 90.000000
_cell_angle_gamma 90.000000
_cell_volume 4996.255898
_symmetry_space_group_name_H-M "C M M A"
_symmetry_group_IT_number 67
_symmetry_cell_setting 'orthorhombic'
loop_
_space_group_symop_operation_xyz
x,y,z
-x,1/2-y,z
x,-y,-z
-x,1/2+y,-z
-x,-y,-z
x,1/2+y,-z
-x,y,z
x,1/2-y,z
1/2+x,1/2+y,z
1/2-x,-y,z
1/2+x,1/2-y,-z
1/2-x,y,-z
1/2-x,1/2-y,-z
1/2+x,y,-z
1/2-x,1/2+y,z
1/2+x,-y,z
loop_
_atom_site_type_symbol
_atom_site_label
_atom_site_fract_x
_atom_site_fract_y
_atom_site_fract_z
Si Si1 0.568881 0.653884 0.021724
Si Si2 0.307247 0.700956 0.139221
Si Si3 0.888506 0.085742 0.306306
Si Si4 0.430088 0.491806 0.211478
Si Si5 0.761720 0.615385 0.703079
Si Si6 0.124786 0.900695 0.282613
O O1 0.500000 0.673425 0.026385
O O2 0.626997 0.686000 0.055568
O O3 0.573902 0.617024 0.175365
O O4 0.579743 0.628425 0.836755
O O5 0.312482 0.750000 0.208495
O O6 0.287755 0.664150 0.279799
O O7 0.250000 0.700205 0.000000
O O8 0.818043 0.085888 0.230616
O O9 0.885346 0.105215 0.505708
O O10 0.913519 0.037014 0.305392
O O11 0.500000 0.478947 0.261025
O O12 0.386292 0.451586 0.252222
O O13 0.428415 0.500000 0.000000
O O14 0.750000 0.602948 0.500000
O O15 0.693918 0.611292 0.784317
#
# Coordination Sequence:
#
# PCOD9503377 Si02
#       6
#    16  16  16  16  16  16
#     4  11  22  37  59  86 118 152 191 239 286 345
#     4  10  20  37  62  87 114 149 188 233 289 352
#     4  10  22  37  57  83 114 153 196 241 287 340
#     4  11  22  36  52  77 114 155 197 238 284 339
#     4   9  20  38  59  86 114 146 193 243 290 348
#     4  11  21  37  58  82 114 152 196 241 290 337
#
# _framework density 19.214389000000001
#
# number of rings (size 3 to 8) (size 9 to 14) (size 15 to 20)
#    0.000    1.667    3.333    1.500    0.000    4.667 
#    0.000    3.333    0.000    0.000    0.000    2.333 
#    0.000    0.000    0.000    0.000    0.000    0.000 
#
# Total GULP energy -267719.810756 kJ/mol
# GULP energy per Si atom -5577.496057 kJ/mol
# Density = 1.917066 g / cm^3
# Si number density = 19.214389 Si / 1000 Ang^3
#
#
#
# Elastic Constant Matrix: (Units=GPa)
#
#
# Indices 1 2 3 4 5 6 
#
# 1 137.6373 32.4251 17.9792 0.0000 0.0000 0.0000
# 2 32.4251 79.3411 -3.6649 0.0000 0.0000 0.0000
# 3 17.9792 -3.6649 55.3841 0.0000 0.0000 0.0000
# 4 0.0000 0.0000 0.0000 19.1892 0.0000 0.0000
# 5 0.0000 0.0000 0.0000 0.0000 16.2408 0.0000
# 6 0.0000 0.0000 0.0000 0.0000 0.0000 13.1792
#
#
#
# Elastic Compliance Matrix: (Units=1/GPa)
#
#
# Indices 1 2 3 4 5 6 
#
# 1 0.008510 -0.003616 -0.003002 0.000000 0.000000 0.000000
# 2 -0.003616 0.014179 0.002112 0.000000 0.000000 0.000000
# 3 -0.003002 0.002112 0.019170 0.000000 0.000000 0.000000
# 4 0.000000 0.000000 0.000000 0.052113 0.000000 0.000000
# 5 0.000000 0.000000 0.000000 0.000000 0.061573 0.000000
# 6 0.000000 0.000000 0.000000 0.000000 0.000000 0.075877
#
#
# Mechanical properties :
#
#
# Convention : Reuss Voigt Hill
#
# Bulk Modulus (GPa) = 30.44404 40.64903 35.54654
# Shear Modulus (GPa) = 19.89000 24.76337 22.32669
#
# Velocity S-wave (km/s) = 3.22088 3.59387 3.41248
# Velocity P-wave (km/s) = 5.45077 6.19860 5.83668
#
# Compressibility (1/GPa) = 0.03284715
#
# Stress axis : x y z
#
# Youngs Moduli (GPa) = 117.51530 70.52530 52.16502
#
# Poissons Ratio (x) = 0.25504 0.15659
# Poissons Ratio (y) = 0.42497 -0.11019
# Poissons Ratio (z) = 0.35275 -0.14897
#
# Static dielectric constant tensor:
#      x y z
#    x 1.738260 0.000000 0.000000 
#    y 0.000000 1.627150 0.000000 
#    z 0.000000 0.000000 1.695730 
# 
# From -- ./inp_files/11462.got.cif
#   From: 2010.05.17/outbox.cif.g08.bks.cpg/sg67_6_cif.got.tgz:11462.got - 2010.06.03 18:28:57.
