data_PCOD9503082
_publ_section_title
;
Structure prediction by ZEFSAII (Michael W. Deem and Ramdas Pophale) SiO2 
 PCOD9503082
Probable space group: C M M A
;
_chemical_formula_sum "Si O2"
_cell_formula_units_Z 120
_cell_length_a 8.708871
_cell_length_b 28.312243
_cell_length_c 26.435275
_cell_angle_alpha 90.000000
_cell_angle_beta 90.000000
_cell_angle_gamma 90.000000
_cell_volume 6518.084216
_symmetry_space_group_name_H-M "C M M A"
_symmetry_group_IT_number 67
_symmetry_cell_setting 'orthorhombic'
loop_
_space_group_symop_operation_xyz
x,y,z
-x,1/2-y,z
x,-y,-z
-x,1/2+y,-z
-x,-y,-z
x,1/2+y,-z
-x,y,z
x,1/2-y,z
1/2+x,1/2+y,z
1/2-x,-y,z
1/2+x,1/2-y,-z
1/2-x,y,-z
1/2-x,1/2-y,-z
1/2+x,y,-z
1/2-x,1/2+y,z
1/2+x,-y,z
loop_
_atom_site_type_symbol
_atom_site_label
_atom_site_fract_x
_atom_site_fract_y
_atom_site_fract_z
Si Si1 0.181517 0.552463 0.448382
Si Si2 0.179510 0.395861 0.353324
Si Si3 0.184626 0.949195 0.746959
Si Si4 0.324045 0.304946 0.778680
Si Si5 0.185985 0.551600 0.864493
Si Si6 0.186746 0.750000 0.943457
Si Si7 0.822661 0.304230 0.670894
Si Si8 0.813674 0.845802 0.885180
O O1 0.250000 0.500000 0.444611
O O2 0.250000 0.574179 0.500000
O O3 0.229223 0.579014 0.397718
O O4 0.000000 0.549805 0.453153
O O5 0.230248 0.413013 0.297162
O O6 0.211933 0.340515 0.356317
O O7 0.000000 0.406901 0.358551
O O8 0.232665 0.941101 0.805256
O O9 0.000000 0.950332 0.747843
O O10 0.250000 0.000000 0.731861
O O11 0.500000 0.318937 0.764556
O O12 0.330018 0.250000 0.794666
O O13 0.216682 0.307883 0.730426
O O14 0.274837 0.334448 0.826940
O O15 0.250000 0.500000 0.880206
O O16 0.234755 0.599551 0.894362
O O17 0.000000 0.549268 0.866310
O O18 0.237497 0.700318 0.917054
O O19 0.000000 0.750000 0.942647
O O20 0.250000 0.750000 0.000000
O O21 0.500000 0.316561 0.337899
O O22 0.797234 0.250000 0.656419
O O23 0.000000 0.845679 0.888312
#
# Coordination Sequence:
#
# PCOD9503082 Si02
#       8
#    16  16  16  16  16   8  16  16
#     4  11  22  38  58  81 107 134 168 213 265 319
#     4  11  21  34  53  76 101 136 180 220 260 310
#     4   9  18  30  46  71 104 136 169 205 244 294
#     4   9  15  27  49  74  97 128 171 211 248 302
#     4   9  17  30  47  70 101 136 172 208 244 294
#     4  10  20  36  56  80 104 130 166 214 273 324
#     4  10  21  34  47  70 106 142 173 212 260 309
#     4   9  16  30  53  75  98 132 173 212 256 314
#
# _framework density 18.410318
#
# number of rings (size 3 to 8) (size 9 to 14) (size 15 to 20)
#    0.000    2.267    0.667    3.600    0.000    5.067 
#    0.000    4.667    0.000    0.800    0.000    2.800 
#    0.000    0.000    0.000    0.000    0.000    0.000 
#
# Total GULP energy -334443.678462 kJ/mol
# GULP energy per Si atom -5574.061308 kJ/mol
# Density = 1.836842 g / cm^3
# Si number density = 18.410318 Si / 1000 Ang^3
#
#
#
# Elastic Constant Matrix: (Units=GPa)
#
#
# Indices 1 2 3 4 5 6 
#
# 1 36.2789 24.8921 10.1110 0.0000 0.0000 0.0000
# 2 24.8921 122.4921 36.9740 0.0000 0.0000 0.0000
# 3 10.1110 36.9740 29.9619 0.0000 0.0000 0.0000
# 4 0.0000 0.0000 0.0000 14.1042 0.0000 0.0000
# 5 0.0000 0.0000 0.0000 0.0000 43.3696 0.0000
# 6 0.0000 0.0000 0.0000 0.0000 0.0000 23.3521
#
#
#
# Elastic Compliance Matrix: (Units=1/GPa)
#
#
# Indices 1 2 3 4 5 6 
#
# 1 0.032403 -0.005234 -0.004476 0.000000 0.000000 0.000000
# 2 -0.005234 0.013855 -0.015332 0.000000 0.000000 0.000000
# 3 -0.004476 -0.015332 0.053806 0.000000 0.000000 0.000000
# 4 0.000000 0.000000 0.000000 0.070901 0.000000 0.000000
# 5 0.000000 0.000000 0.000000 0.000000 0.023058 0.000000
# 6 0.000000 0.000000 0.000000 0.000000 0.000000 0.042823
#
#
# Mechanical properties :
#
#
# Convention : Reuss Voigt Hill
#
# Bulk Modulus (GPa) = 20.00760 36.96524 28.48642
# Shear Modulus (GPa) = 16.46966 23.94889 20.20928
#
# Velocity S-wave (km/s) = 2.99421 3.61063 3.31677
# Velocity P-wave (km/s) = 4.77964 6.12408 5.49314
#
# Compressibility (1/GPa) = 0.04998102
#
# Stress axis : x y z
#
# Youngs Moduli (GPa) = 30.86168 72.17542 18.58527
#
# Poissons Ratio (x) = 0.37773 0.08319
# Poissons Ratio (y) = 0.16152 0.28494
# Poissons Ratio (z) = 0.13815 1.10657
#
# Static dielectric constant tensor:
#      x y z
#    x 1.625770 0.000000 0.000000 
#    y 0.000000 1.685530 0.000000 
#    z 0.000000 0.000000 1.626270 
# 
# From -- ./inp_files/43914.got.cif
#   From: 2010.05.17/outbox.cif.g08.bks.cpg/sg67_22_cif.got.tgz:43914.got - 2010.06.03 18:28:57.
