data_PCOD9503865
_publ_section_title
;
Structure prediction by ZEFSAII (Michael W. Deem and Ramdas Pophale) SiO2 
 PCOD9503865
Probable space group: C M M A
;
_chemical_formula_sum "Si O2"
_cell_formula_units_Z 88
_cell_length_a 23.719932
_cell_length_b 14.363211
_cell_length_c 13.918217
_cell_angle_alpha 90.000000
_cell_angle_beta 90.000000
_cell_angle_gamma 90.000000
_cell_volume 4741.858426
_symmetry_space_group_name_H-M "C M M A"
_symmetry_group_IT_number 67
_symmetry_cell_setting 'orthorhombic'
loop_
_space_group_symop_operation_xyz
x,y,z
-x,1/2-y,z
x,-y,-z
-x,1/2+y,-z
-x,-y,-z
x,1/2+y,-z
-x,y,z
x,1/2-y,z
1/2+x,1/2+y,z
1/2-x,-y,z
1/2+x,1/2-y,-z
1/2-x,y,-z
1/2-x,1/2-y,-z
1/2+x,y,-z
1/2-x,1/2+y,z
1/2+x,-y,z
loop_
_atom_site_type_symbol
_atom_site_label
_atom_site_fract_x
_atom_site_fract_y
_atom_site_fract_z
Si Si1 0.765403 0.894436 0.727218
Si Si2 0.803890 0.853530 0.934710
Si Si3 0.565737 0.360678 0.163490
Si Si4 0.893089 0.000000 0.000000
Si Si5 0.140961 0.355517 0.658491
Si Si6 0.687071 0.862747 0.467225
O O1 0.784865 0.849662 0.825049
O O2 0.706522 0.851837 0.690428
O O3 0.812745 0.891218 0.643913
O O4 0.750000 0.000000 0.748625
O O5 0.822096 0.750000 0.966550
O O6 0.750000 0.879319 0.000000
O O7 0.852278 0.929250 0.943829
O O8 0.500000 0.362940 0.190291
O O9 0.579490 0.250000 0.142453
O O10 0.604606 0.393796 0.253094
O O11 0.574981 0.431601 0.074515
O O12 0.119522 0.250000 0.647100
O O13 0.144915 0.397420 0.550638
O O14 0.684772 0.750000 0.469007
O O15 0.750000 0.891460 0.500000
#
# Coordination Sequence:
#
# PCOD9503865 Si02
#       6
#    16  16  16   8  16  16
#     4  11  19  28  45  74 108 140 172 207 252 317
#     4  11  22  34  50  74 109 150 186 220 262 322
#     4  10  21  37  57  79 102 134 180 232 281 326
#     4  12  22  36  52  76 106 138 180 226 278 328
#     4   9  17  31  49  69  98 132 167 211 261 314
#     4   8  15  27  43  65  95 130 164 201 251 312
#
# _framework density 18.558125
#
# number of rings (size 3 to 8) (size 9 to 14) (size 15 to 20)
#    0.000    2.000    0.000    7.091    0.000    6.182 
#    0.000    0.000    0.000    0.000    0.000   11.455 
#    0.000   11.636    0.000    0.000    0.000    0.000 
#
# Total GULP energy -245112.522536 kJ/mol
# GULP energy per Si atom -5570.739149 kJ/mol
# Density = 1.851589 g / cm^3
# Si number density = 18.558125 Si / 1000 Ang^3
#
#
#
# Elastic Constant Matrix: (Units=GPa)
#
#
# Indices 1 2 3 4 5 6 
#
# 1 58.8157 17.0088 49.1014 0.0000 0.0000 0.0000
# 2 17.0088 87.1903 14.4466 0.0000 0.0000 0.0000
# 3 49.1014 14.4466 140.1859 0.0000 0.0000 0.0000
# 4 0.0000 0.0000 0.0000 22.0216 0.0000 0.0000
# 5 0.0000 0.0000 0.0000 0.0000 17.9491 0.0000
# 6 0.0000 0.0000 0.0000 0.0000 0.0000 16.9180
#
#
#
# Elastic Compliance Matrix: (Units=1/GPa)
#
#
# Indices 1 2 3 4 5 6 
#
# 1 0.025030 -0.003490 -0.008407 0.000000 0.000000 0.000000
# 2 -0.003490 0.012155 -0.000030 0.000000 0.000000 0.000000
# 3 -0.008407 -0.000030 0.010081 0.000000 0.000000 0.000000
# 4 0.000000 0.000000 0.000000 0.045410 0.000000 0.000000
# 5 0.000000 0.000000 0.000000 0.000000 0.055713 0.000000
# 6 0.000000 0.000000 0.000000 0.000000 0.000000 0.059109
#
#
# Mechanical properties :
#
#
# Convention : Reuss Voigt Hill
#
# Bulk Modulus (GPa) = 42.71402 49.70059 46.20730
# Shear Modulus (GPa) = 20.90675 25.08674 22.99675
#
# Velocity S-wave (km/s) = 3.36006 3.68066 3.52401
# Velocity P-wave (km/s) = 6.17411 6.70091 6.44290
#
# Compressibility (1/GPa) = 0.02341152
#
# Stress axis : x y z
#
# Youngs Moduli (GPa) = 39.95153 82.27092 99.19359
#
# Poissons Ratio (x) = 0.28711 0.83397
# Poissons Ratio (y) = 0.13942 0.00300
# Poissons Ratio (z) = 0.33589 0.00249
#
# Static dielectric constant tensor:
#      x y z
#    x 1.613980 0.000000 0.000000 
#    y 0.000000 1.702590 0.000000 
#    z 0.000000 0.000000 1.705990 
# 
# From -- ./inp_files/29128.got.cif
#   From: 2010.05.17/outbox.cif.g08.bks.cpg/sg67_15_cif.got.tgz:29128.got - 2010.06.03 18:28:57.
