data_PCOD9503774
_publ_section_title
;
Structure prediction by ZEFSAII (Michael W. Deem and Ramdas Pophale) SiO2 
 PCOD9503774
Probable space group: C M M A
;
_chemical_formula_sum "Si O2"
_cell_formula_units_Z 88
_cell_length_a 9.242760
_cell_length_b 16.158184
_cell_length_c 30.813164
_cell_angle_alpha 90.000000
_cell_angle_beta 90.000000
_cell_angle_gamma 90.000000
_cell_volume 4601.829469
_symmetry_space_group_name_H-M "C M M A"
_symmetry_group_IT_number 67
_symmetry_cell_setting 'orthorhombic'
loop_
_space_group_symop_operation_xyz
x,y,z
-x,1/2-y,z
x,-y,-z
-x,1/2+y,-z
-x,-y,-z
x,1/2+y,-z
-x,y,z
x,1/2-y,z
1/2+x,1/2+y,z
1/2-x,-y,z
1/2+x,1/2-y,-z
1/2-x,y,-z
1/2-x,1/2-y,-z
1/2+x,y,-z
1/2-x,1/2+y,z
1/2+x,-y,z
loop_
_atom_site_type_symbol
_atom_site_label
_atom_site_fract_x
_atom_site_fract_y
_atom_site_fract_z
Si Si1 0.674637 0.250000 0.046455
Si Si2 0.673961 0.585396 0.899176
Si Si3 0.834447 0.650246 0.457876
Si Si4 0.829337 0.650248 0.195863
Si Si5 0.662670 0.151533 0.719070
Si Si6 0.825438 0.911871 0.363461
O O1 0.500000 0.250000 0.042180
O O2 0.713982 0.333690 0.072637
O O3 0.750000 0.250000 0.000000
O O4 0.500000 0.576150 0.901857
O O5 0.750000 0.500000 0.912488
O O6 0.710678 0.606671 0.849140
O O7 0.831764 0.750000 0.459057
O O8 0.750000 0.619085 0.500000
O O9 0.781187 0.624362 0.410408
O O10 0.000000 0.622518 0.461500
O O11 0.810863 0.750000 0.190460
O O12 0.736863 0.620143 0.236848
O O13 0.000000 0.636743 0.204211
O O14 0.500000 0.117742 0.712789
O O15 0.651636 0.250000 0.724495
O O16 0.762234 0.136984 0.677381
O O17 0.000000 0.914529 0.361617
O O18 0.750000 0.000000 0.360300
#
# Coordination Sequence:
#
# PCOD9503774 Si02
#       6
#     8  16  16  16  16  16
#     4  10  22  42  64  88 122 162 204 250 301 358
#     4  10  21  38  61  89 121 158 202 250 300 359
#     4   9  19  36  58  81 103 132 174 222 273 332
#     4   9  17  34  59  82 110 153 197 238 288 346
#     4  10  21  36  56  84 115 148 189 236 282 335
#     4  11  23  38  55  77 109 147 186 229 278 336
#
# _framework density 19.122828999999999
#
# number of rings (size 3 to 8) (size 9 to 14) (size 15 to 20)
#    0.000    2.182    0.909    1.636    0.000    6.182 
#    0.000    7.273    0.000    0.000    0.000    0.000 
#    0.000    0.000    0.000    0.000    0.000    0.000 
#
# Total GULP energy -245524.131512 kJ/mol
# GULP energy per Si atom -5580.093898 kJ/mol
# Density = 1.907930 g / cm^3
# Si number density = 19.122829 Si / 1000 Ang^3
#
#
#
# Elastic Constant Matrix: (Units=GPa)
#
#
# Indices 1 2 3 4 5 6 
#
# 1 62.2137 37.3771 62.4505 0.0000 0.0000 0.0000
# 2 37.3771 68.6316 52.9171 0.0000 0.0000 0.0000
# 3 62.4505 52.9171 158.5299 0.0000 0.0000 0.0000
# 4 0.0000 0.0000 0.0000 -11.6908 0.0000 0.0000
# 5 0.0000 0.0000 0.0000 0.0000 33.2439 0.0000
# 6 0.0000 0.0000 0.0000 0.0000 0.0000 23.7103
#
#
#
# Elastic Compliance Matrix: (Units=1/GPa)
#
#
# Indices 1 2 3 4 5 6 
#
# 1 0.031007 -0.010057 -0.008858 0.000000 0.000000 0.000000
# 2 -0.010057 0.022882 -0.003676 0.000000 0.000000 0.000000
# 3 -0.008858 -0.003676 0.011024 0.000000 0.000000 0.000000
# 4 0.000000 0.000000 0.000000 -0.085537 0.000000 0.000000
# 5 0.000000 0.000000 0.000000 0.000000 0.030081 0.000000
# 6 0.000000 0.000000 0.000000 0.000000 0.000000 0.042176
#
#
# Mechanical properties :
#
#
# Convention : Reuss Voigt Hill
#
# Bulk Modulus (GPa) = 50.67978 66.09608 58.38793
# Shear Modulus (GPa) = 48.35923 18.16138 33.26030
#
# Velocity S-wave (km/s) = 5.03425 3.08510 4.17501
# Velocity P-wave (km/s) = 7.76861 6.87964 7.33760
#
# Compressibility (1/GPa) = 0.01973173
#
# Stress axis : x y z
#
# Youngs Moduli (GPa) = 32.25042 43.70220 90.70720
#
# Poissons Ratio (x) = 0.43952 0.80347
# Poissons Ratio (y) = 0.32435 0.33346
# Poissons Ratio (z) = 0.28567 0.16066
#
# Static dielectric constant tensor:
#      x y z
#    x 1.660730 0.000000 0.000000 
#    y 0.000000 1.680910 0.000000 
#    z 0.000000 0.000000 1.675390 
# 
# From -- ./inp_files/45215.got.cif
#   From: 2010.05.17/outbox.cif.g08.bks.cpg/sg67_23_cif.got.tgz:45215.got - 2010.06.03 18:28:57.
