data_PCOD9503574
_publ_section_title
;
Structure prediction by ZEFSAII (Michael W. Deem and Ramdas Pophale) SiO2 
 PCOD9503574
Probable space group: C M M A
;
_chemical_formula_sum "Si O2"
_cell_formula_units_Z 92
_cell_length_a 19.524786
_cell_length_b 17.739545
_cell_length_c 11.365827
_cell_angle_alpha 90.000000
_cell_angle_beta 90.000000
_cell_angle_gamma 90.000000
_cell_volume 3936.677158
_symmetry_space_group_name_H-M "C M M A"
_symmetry_group_IT_number 67
_symmetry_cell_setting 'orthorhombic'
loop_
_space_group_symop_operation_xyz
x,y,z
-x,1/2-y,z
x,-y,-z
-x,1/2+y,-z
-x,-y,-z
x,1/2+y,-z
-x,y,z
x,1/2-y,z
1/2+x,1/2+y,z
1/2-x,-y,z
1/2+x,1/2-y,-z
1/2-x,y,-z
1/2-x,1/2-y,-z
1/2+x,y,-z
1/2-x,1/2+y,z
1/2+x,-y,z
loop_
_atom_site_type_symbol
_atom_site_label
_atom_site_fract_x
_atom_site_fract_y
_atom_site_fract_z
Si Si1 0.613758 0.250000 0.725958
Si Si2 0.267304 0.750000 0.638647
Si Si3 0.828674 0.477922 0.280292
Si Si4 0.835162 0.250000 0.013813
Si Si5 0.574713 0.890094 0.430485
Si Si6 0.000000 0.250000 0.779711
Si Si7 0.614233 0.137574 0.302778
Si Si8 0.669738 0.917505 0.031056
O O1 0.694254 0.250000 0.697148
O O2 0.618472 0.250000 0.866231
O O3 0.580046 0.179411 0.659527
O O4 0.250000 0.750000 0.500000
O O5 0.313149 0.679676 0.679419
O O6 0.750000 0.500000 0.294454
O O7 0.862496 0.442573 0.394910
O O8 0.870296 0.554541 0.256073
O O9 0.835079 0.419080 0.172882
O O10 0.851485 0.163015 0.975724
O O11 0.750000 0.250000 0.000000
O O12 0.500000 0.926468 0.415185
O O13 0.583652 0.864759 0.564378
O O14 0.060129 0.314768 0.769604
O O15 0.750000 0.922884 0.000000
O O16 0.638950 0.000000 0.000000
#
# Coordination Sequence:
#
# PCOD9503574 Si02
#       8
#     8   8  16   8  16   4  16  16
#     4  12  21  39  66  99 143 169 241 292 357 411
#     4  11  21  33  58  90 121 175 218 298 337 389
#     4  12  25  40  65 105 138 177 227 301 370 429
#     4  10  22  37  66 105 134 176 224 295 365 439
#     4  12  25  40  64  95 135 195 235 282 341 433
#     4  10  22  48  60  86 130 202 256 282 326 412
#     4  11  24  38  63  89 137 188 242 281 342 417
#     4  10  20  41  69 100 140 171 224 293 371 441
#
# _framework density 23.369962999999998
#
# number of rings (size 3 to 8) (size 9 to 14) (size 15 to 20)
#    0.000    0.870    6.087    2.348    1.217    1.391 
#    0.000    0.870    0.000    0.522    0.000    0.000 
#    0.000    0.000    0.000    0.000    0.000    0.000 
#
# Total GULP energy -256324.268604 kJ/mol
# GULP energy per Si atom -5572.266709 kJ/mol
# Density = 2.331677 g / cm^3
# Si number density = 23.369963 Si / 1000 Ang^3
#
#
#
# Elastic Constant Matrix: (Units=GPa)
#
#
# Indices 1 2 3 4 5 6 
#
# 1 115.2162 27.3919 25.8389 0.0000 0.0000 0.0000
# 2 27.3919 164.1561 22.2197 0.0000 0.0000 0.0000
# 3 25.8389 22.2197 69.8081 0.0000 0.0000 0.0000
# 4 0.0000 0.0000 0.0000 98.4112 0.0000 0.0000
# 5 0.0000 0.0000 0.0000 0.0000 -11.4968 0.0000
# 6 0.0000 0.0000 0.0000 0.0000 0.0000 9.7908
#
#
#
# Elastic Compliance Matrix: (Units=1/GPa)
#
#
# Indices 1 2 3 4 5 6 
#
# 1 0.009679 -0.001181 -0.003207 0.000000 0.000000 0.000000
# 2 -0.001181 0.006510 -0.001635 0.000000 0.000000 0.000000
# 3 -0.003207 -0.001635 0.016032 0.000000 0.000000 0.000000
# 4 0.000000 0.000000 0.000000 0.010161 0.000000 0.000000
# 5 0.000000 0.000000 0.000000 0.000000 -0.086981 0.000000
# 6 0.000000 0.000000 0.000000 0.000000 0.000000 0.102137
#
#
# Mechanical properties :
#
#
# Convention : Reuss Voigt Hill
#
# Bulk Modulus (GPa) = 49.56361 55.56463 52.56412
# Shear Modulus (GPa) = 65.52187 37.58970 51.55579
#
# Velocity S-wave (km/s) = 5.30072 4.01491 4.70198
# Velocity P-wave (km/s) = 7.66276 6.73204 7.21243
#
# Compressibility (1/GPa) = 0.02017609
#
# Stress axis : x y z
#
# Youngs Moduli (GPa) = 103.31334 153.60622 62.37385
#
# Poissons Ratio (x) = 0.18142 0.20002
# Poissons Ratio (y) = 0.12202 0.10198
# Poissons Ratio (z) = 0.33130 0.25115
#
# Static dielectric constant tensor:
#      x y z
#    x 1.800460 0.000000 0.000000 
#    y 0.000000 1.927950 0.000000 
#    z 0.000000 0.000000 1.873350 
# 
# From -- ./inp_files/20716.got.cif
#   From: 2010.05.17/outbox.cif.g08.bks.cpg/sg67_11_cif.got.tgz:20716.got - 2010.06.03 18:28:57.
