data_PCOD9503876
_publ_section_title
;
Structure prediction by ZEFSAII (Michael W. Deem and Ramdas Pophale) SiO2 
 PCOD9503876
Probable space group: C M M A
;
_chemical_formula_sum "Si O2"
_cell_formula_units_Z 96
_cell_length_a 15.018182
_cell_length_b 14.157520
_cell_length_c 22.607207
_cell_angle_alpha 90.000000
_cell_angle_beta 90.000000
_cell_angle_gamma 90.000000
_cell_volume 4806.749146
_symmetry_space_group_name_H-M "C M M A"
_symmetry_group_IT_number 67
_symmetry_cell_setting 'orthorhombic'
loop_
_space_group_symop_operation_xyz
x,y,z
-x,1/2-y,z
x,-y,-z
-x,1/2+y,-z
-x,-y,-z
x,1/2+y,-z
-x,y,z
x,1/2-y,z
1/2+x,1/2+y,z
1/2-x,-y,z
1/2+x,1/2-y,-z
1/2-x,y,-z
1/2-x,1/2-y,-z
1/2+x,y,-z
1/2-x,1/2+y,z
1/2+x,-y,z
loop_
_atom_site_type_symbol
_atom_site_label
_atom_site_fract_x
_atom_site_fract_y
_atom_site_fract_z
Si Si1 0.500000 0.640548 0.090968
Si Si2 0.000000 0.859786 0.051365
Si Si3 0.664664 0.638597 0.328973
Si Si4 0.396850 0.488903 0.243662
Si Si5 0.000000 0.134925 0.544878
Si Si6 0.136133 0.861915 0.356169
Si Si7 0.500000 0.135320 0.589706
Si Si8 0.646982 0.987361 0.886496
O O1 0.500000 0.750000 0.109697
O O2 0.411432 0.583956 0.110977
O O3 0.500000 0.636395 0.019534
O O4 0.912600 0.914134 0.075680
O O5 0.000000 0.750000 0.069812
O O6 0.655855 0.750000 0.317018
O O7 0.655579 0.578556 0.269596
O O8 0.758750 0.621847 0.359808
O O9 0.585924 0.607805 0.372561
O O10 0.500000 0.514448 0.233441
O O11 0.393997 0.413155 0.296445
O O12 0.356337 0.455244 0.182009
O O13 0.915955 0.107353 0.585231
O O14 0.000000 0.250000 0.541373
O O15 0.000000 0.101211 0.477539
O O16 0.120492 0.750000 0.349604
O O17 0.500000 0.250000 0.587798
O O18 0.750000 0.000000 0.905060
#
# Coordination Sequence:
#
# PCOD9503876 Si02
#       8
#     8   8  16  16   8  16   8  16
#     4  10  23  43  65  94 131 167 205 250 298 350
#     4  10  23  43  65  94 131 167 205 250 298 350
#     4  10  21  37  57  81 111 147 187 235 292 351
#     4  12  22  39  62  84 117 154 190 238 294 347
#     4   9  18  33  54  80 108 142 187 235 287 348
#     4  10  21  37  57  81 111 147 187 235 292 351
#     4   9  18  33  54  80 108 142 187 235 287 348
#     4  11  23  41  65  94 126 164 208 253 301 355
#
# _framework density 19.971917999999999
#
# number of rings (size 3 to 8) (size 9 to 14) (size 15 to 20)
#    0.000    1.667    3.333    2.500    0.000    4.000 
#    0.000    6.667    0.000    2.000    0.000    0.000 
#    0.000    0.000    0.000    0.000    0.000    0.000 
#
# Total GULP energy -268137.308062 kJ/mol
# GULP energy per Si atom -5586.193918 kJ/mol
# Density = 1.992646 g / cm^3
# Si number density = 19.971918 Si / 1000 Ang^3
#
#
#
# Elastic Constant Matrix: (Units=GPa)
#
#
# Indices 1 2 3 4 5 6 
#
# 1 143.2455 18.4363 15.5600 0.0000 0.0000 0.0000
# 2 18.4363 72.7272 -0.6084 0.0000 0.0000 0.0000
# 3 15.5600 -0.6084 76.5915 0.0000 0.0000 0.0000
# 4 0.0000 0.0000 0.0000 16.8840 0.0000 0.0000
# 5 0.0000 0.0000 0.0000 0.0000 8.1308 0.0000
# 6 0.0000 0.0000 0.0000 0.0000 0.0000 17.1405
#
#
#
# Elastic Compliance Matrix: (Units=1/GPa)
#
#
# Indices 1 2 3 4 5 6 
#
# 1 0.007388 -0.001886 -0.001516 0.000000 0.000000 0.000000
# 2 -0.001886 0.014232 0.000496 0.000000 0.000000 0.000000
# 3 -0.001516 0.000496 0.013368 0.000000 0.000000 0.000000
# 4 0.000000 0.000000 0.000000 0.059228 0.000000 0.000000
# 5 0.000000 0.000000 0.000000 0.000000 0.122989 0.000000
# 6 0.000000 0.000000 0.000000 0.000000 0.000000 0.058341
#
#
# Mechanical properties :
#
#
# Convention : Reuss Voigt Hill
#
# Bulk Modulus (GPa) = 34.27262 39.92667 37.09965
# Shear Modulus (GPa) = 17.17720 25.70949 21.44335
#
# Velocity S-wave (km/s) = 2.93587 3.59176 3.28025
# Velocity P-wave (km/s) = 5.35632 6.10212 5.74134
#
# Compressibility (1/GPa) = 0.02917781
#
# Stress axis : x y z
#
# Youngs Moduli (GPa) = 135.34765 70.26334 74.80445
#
# Poissons Ratio (x) = 0.13249 0.11340
# Poissons Ratio (y) = 0.25522 -0.03711
# Poissons Ratio (z) = 0.20518 -0.03486
#
# Static dielectric constant tensor:
#      x y z
#    x 1.712820 0.000000 0.000000 
#    y 0.000000 1.737120 0.000000 
#    z 0.000000 0.000000 1.676990 
# 
# From -- ./inp_files/38597.got.cif
#   From: 2010.05.17/outbox.cif.g08.bks.cpg/sg67_20_cif.got.tgz:38597.got - 2010.06.03 18:28:57.
