data_PCOD9503799
_publ_section_title
;
Structure prediction by ZEFSAII (Michael W. Deem and Ramdas Pophale) SiO2 
 PCOD9503799
Probable space group: C M M A
;
_chemical_formula_sum "Si O2"
_cell_formula_units_Z 96
_cell_length_a 21.516759
_cell_length_b 15.367730
_cell_length_c 12.047714
_cell_angle_alpha 90.000000
_cell_angle_beta 90.000000
_cell_angle_gamma 90.000000
_cell_volume 3983.742203
_symmetry_space_group_name_H-M "C M M A"
_symmetry_group_IT_number 67
_symmetry_cell_setting 'orthorhombic'
loop_
_space_group_symop_operation_xyz
x,y,z
-x,1/2-y,z
x,-y,-z
-x,1/2+y,-z
-x,-y,-z
x,1/2+y,-z
-x,y,z
x,1/2-y,z
1/2+x,1/2+y,z
1/2-x,-y,z
1/2+x,1/2-y,-z
1/2-x,y,-z
1/2-x,1/2-y,-z
1/2+x,y,-z
1/2-x,1/2+y,z
1/2+x,-y,z
loop_
_atom_site_type_symbol
_atom_site_label
_atom_site_fract_x
_atom_site_fract_y
_atom_site_fract_z
Si Si1 0.895508 0.844540 0.877592
Si Si2 0.932708 0.990806 0.735424
Si Si3 0.195555 0.407444 0.564935
Si Si4 0.255889 0.648239 0.214059
Si Si5 0.146804 0.419002 0.914561
Si Si6 0.926626 0.851122 0.539775
O O1 0.916827 0.750000 0.843247
O O2 0.937795 0.919295 0.831794
O O3 0.827727 0.861379 0.819908
O O4 0.889643 0.850856 0.009516
O O5 0.915254 0.928191 0.630957
O O6 0.000000 0.030329 0.711125
O O7 0.886598 0.056650 0.798345
O O8 0.190605 0.500000 0.500000
O O9 0.250000 0.355928 0.500000
O O10 0.227727 0.407385 0.684880
O O11 0.126610 0.367616 0.552864
O O12 0.245804 0.750000 0.239145
O O13 0.213704 0.618874 0.112314
O O14 0.151489 0.500000 0.000000
O O15 0.917974 0.750000 0.578151
O O16 0.000000 0.858640 0.509536
#
# Coordination Sequence:
#
# PCOD9503799 Si02
#       6
#    16  16  16  16  16  16
#     4  10  21  36  58  87 118 155 200 250 306 366
#     4  10  21  37  58  86 120 159 205 252 299 357
#     4  11  24  40  62  92 126 161 205 257 315 381
#     4  11  23  40  62  89 121 156 197 250 313 376
#     4  10  22  37  59  84 116 155 198 248 303 361
#     4  10  21  39  64  92 123 164 213 262 315 378
#
# _framework density 24.097943999999998
#
# number of rings (size 3 to 8) (size 9 to 14) (size 15 to 20)
#    0.000    1.667    0.000    4.000    0.000   17.000 
#    0.000    0.833    0.000    2.500    0.000    0.000 
#    0.000    0.000    0.000    0.000    0.000    0.000 
#
# Total GULP energy -267692.652263 kJ/mol
# GULP energy per Si atom -5576.930255 kJ/mol
# Density = 2.404310 g / cm^3
# Si number density = 24.097944 Si / 1000 Ang^3
#
#
#
# Elastic Constant Matrix: (Units=GPa)
#
#
# Indices 1 2 3 4 5 6 
#
# 1 122.9525 37.8174 27.8739 0.0000 0.0000 0.0000
# 2 37.8174 90.1872 35.8554 0.0000 0.0000 0.0000
# 3 27.8739 35.8554 104.6129 0.0000 0.0000 0.0000
# 4 0.0000 0.0000 0.0000 -10.4270 0.0000 0.0000
# 5 0.0000 0.0000 0.0000 0.0000 15.7958 0.0000
# 6 0.0000 0.0000 0.0000 0.0000 0.0000 64.2463
#
#
#
# Elastic Compliance Matrix: (Units=1/GPa)
#
#
# Indices 1 2 3 4 5 6 
#
# 1 0.009499 -0.003447 -0.001350 0.000000 0.000000 0.000000
# 2 -0.003447 0.014088 -0.003910 0.000000 0.000000 0.000000
# 3 -0.001350 -0.003910 0.011259 0.000000 0.000000 0.000000
# 4 0.000000 0.000000 0.000000 -0.095905 0.000000 0.000000
# 5 0.000000 0.000000 0.000000 0.000000 0.063308 0.000000
# 6 0.000000 0.000000 0.000000 0.000000 0.000000 0.015565
#
#
# Mechanical properties :
#
#
# Convention : Reuss Voigt Hill
#
# Bulk Modulus (GPa) = 57.36279 57.87177 57.61728
# Shear Modulus (GPa) = 121.83747 28.33676 75.08712
#
# Velocity S-wave (km/s) = 7.11822 3.43286 5.58809
# Velocity P-wave (km/s) = 9.56109 6.30714 8.09921
#
# Compressibility (1/GPa) = 0.01743290
#
# Stress axis : x y z
#
# Youngs Moduli (GPa) = 105.27061 70.98316 88.81877
#
# Poissons Ratio (x) = 0.24465 0.11988
# Poissons Ratio (y) = 0.36283 0.34730
# Poissons Ratio (z) = 0.14209 0.27756
#
# Static dielectric constant tensor:
#      x y z
#    x 2.047090 0.000000 0.000000 
#    y 0.000000 1.972680 0.000000 
#    z 0.000000 0.000000 1.992720 
# 
# From -- ./inp_files/21927.got.cif
#   From: 2010.05.17/outbox.cif.g08.bks.cpg/sg67_11_cif.got.tgz:21927.got - 2010.06.03 18:28:57.
