data_PCOD9503892
_publ_section_title
;
Structure prediction by ZEFSAII (Michael W. Deem and Ramdas Pophale) SiO2 
 PCOD9503892
Probable space group: C M M A
;
_chemical_formula_sum "Si O2"
_cell_formula_units_Z 96
_cell_length_a 18.894502
_cell_length_b 14.245669
_cell_length_c 15.297026
_cell_angle_alpha 90.000000
_cell_angle_beta 90.000000
_cell_angle_gamma 90.000000
_cell_volume 4117.421271
_symmetry_space_group_name_H-M "C M M A"
_symmetry_group_IT_number 67
_symmetry_cell_setting 'orthorhombic'
loop_
_space_group_symop_operation_xyz
x,y,z
-x,1/2-y,z
x,-y,-z
-x,1/2+y,-z
-x,-y,-z
x,1/2+y,-z
-x,y,z
x,1/2-y,z
1/2+x,1/2+y,z
1/2-x,-y,z
1/2+x,1/2-y,-z
1/2-x,y,-z
1/2-x,1/2-y,-z
1/2+x,y,-z
1/2-x,1/2+y,z
1/2+x,-y,z
loop_
_atom_site_type_symbol
_atom_site_label
_atom_site_fract_x
_atom_site_fract_y
_atom_site_fract_z
Si Si1 0.578687 0.142509 0.849949
Si Si2 0.374704 0.508243 0.632644
Si Si3 0.297395 0.641449 0.282819
Si Si4 0.921135 0.141319 0.492009
Si Si5 0.331010 0.889830 0.983111
Si Si6 0.863385 0.643805 0.217736
O O1 0.500000 0.098035 0.846021
O O2 0.569800 0.250000 0.822586
O O3 0.643495 0.111315 0.788590
O O4 0.611765 0.143508 0.946511
O O5 0.308112 0.439529 0.647051
O O6 0.369580 0.589872 0.560102
O O7 0.424333 0.426707 0.592117
O O8 0.397508 0.565585 0.719450
O O9 0.309149 0.750000 0.309657
O O10 0.219544 0.638197 0.243680
O O11 0.904034 0.250000 0.474297
O O12 0.000000 0.139523 0.531951
O O13 0.360618 0.872166 0.886158
O O14 0.250000 0.853627 0.000000
O O15 0.326282 0.000000 0.000000
O O16 0.888989 0.750000 0.235966
#
# Coordination Sequence:
#
# PCOD9503892 Si02
#       6
#    16  16  16  16  16  16
#     4  10  21  37  57  85 123 167 219 278 333 391
#     4  11  21  38  66  96 127 161 214 278 330 391
#     4  10  21  37  59  90 128 172 219 274 336 402
#     4  10  23  45  70  95 127 172 220 264 333 425
#     4  11  22  37  63  88 123 177 234 280 337 400
#     4  11  23  38  61  93 130 175 225 278 341 407
#
# _framework density 23.315564999999999
#
# number of rings (size 3 to 8) (size 9 to 14) (size 15 to 20)
#    0.000    1.500    1.667    4.000    2.333    2.333 
#    0.000   10.000    0.000   16.000    0.000    0.000 
#    0.000    0.000    0.000    0.000    0.000    0.000 
#
# Total GULP energy -267566.759226 kJ/mol
# GULP energy per Si atom -5574.307484 kJ/mol
# Density = 2.326250 g / cm^3
# Si number density = 23.315565 Si / 1000 Ang^3
#
#
#
# Elastic Constant Matrix: (Units=GPa)
#
#
# Indices 1 2 3 4 5 6 
#
# 1 62.2278 5.3720 25.3595 0.0000 0.0000 0.0000
# 2 5.3720 176.3890 57.9088 0.0000 0.0000 0.0000
# 3 25.3595 57.9088 95.7818 0.0000 0.0000 0.0000
# 4 0.0000 0.0000 0.0000 29.3015 0.0000 0.0000
# 5 0.0000 0.0000 0.0000 0.0000 2.7902 0.0000
# 6 0.0000 0.0000 0.0000 0.0000 0.0000 -175.9760
#
#
#
# Elastic Compliance Matrix: (Units=1/GPa)
#
#
# Indices 1 2 3 4 5 6 
#
# 1 0.018244 0.001285 -0.005607 0.000000 0.000000 0.000000
# 2 0.001285 0.007164 -0.004671 0.000000 0.000000 0.000000
# 3 -0.005607 -0.004671 0.014749 0.000000 0.000000 0.000000
# 4 0.000000 0.000000 0.000000 0.034128 0.000000 0.000000
# 5 0.000000 0.000000 0.000000 0.000000 0.358400 0.000000
# 6 0.000000 0.000000 0.000000 0.000000 0.000000 -0.005683
#
#
# Mechanical properties :
#
#
# Convention : Reuss Voigt Hill
#
# Bulk Modulus (GPa) = 45.10577 56.85325 50.97951
# Shear Modulus (GPa) = 11.05265 -12.39298 -0.67017
#
# Velocity S-wave (km/s) = 2.17962 -2.30800 -0.53671
# Velocity P-wave (km/s) = 5.07170 4.16350 4.63987
#
# Compressibility (1/GPa) = 0.02217011
#
# Stress axis : x y z
#
# Youngs Moduli (GPa) = 54.81189 139.59091 67.79954
#
# Poissons Ratio (x) = -0.17942 0.38018
# Poissons Ratio (y) = -0.07045 0.31672
# Poissons Ratio (z) = 0.30736 0.65209
#
# Static dielectric constant tensor:
#      x y z
#    x 1.933010 0.000000 0.000000 
#    y 0.000000 1.883720 0.000000 
#    z 0.000000 0.000000 1.954770 
# 
# From -- ./inp_files/29325.got.cif
#   From: 2010.05.17/outbox.cif.g08.bks.cpg/sg67_15_cif.got.tgz:29325.got - 2010.06.03 18:28:57.
