data_PCOD9503246
_publ_section_title
;
Structure prediction by ZEFSAII (Michael W. Deem and Ramdas Pophale) SiO2 
 PCOD9503246
Probable space group: C M M A
;
_chemical_formula_sum "Si O2"
_cell_formula_units_Z 88
_cell_length_a 25.880925
_cell_length_b 9.705635
_cell_length_c 20.627573
_cell_angle_alpha 90.000000
_cell_angle_beta 90.000000
_cell_angle_gamma 90.000000
_cell_volume 5181.456801
_symmetry_space_group_name_H-M "C M M A"
_symmetry_group_IT_number 67
_symmetry_cell_setting 'orthorhombic'
loop_
_space_group_symop_operation_xyz
x,y,z
-x,1/2-y,z
x,-y,-z
-x,1/2+y,-z
-x,-y,-z
x,1/2+y,-z
-x,y,z
x,1/2-y,z
1/2+x,1/2+y,z
1/2-x,-y,z
1/2+x,1/2-y,-z
1/2-x,y,-z
1/2-x,1/2-y,-z
1/2+x,y,-z
1/2-x,1/2+y,z
1/2+x,-y,z
loop_
_atom_site_type_symbol
_atom_site_label
_atom_site_fract_x
_atom_site_fract_y
_atom_site_fract_z
Si Si1 0.000000 0.416122 0.933607
Si Si2 0.317869 0.750000 0.448837
Si Si3 0.800929 0.750000 0.407646
Si Si4 0.442363 0.590876 0.699061
Si Si5 0.599321 0.410130 0.155296
Si Si6 0.302893 0.412980 0.798459
Si Si7 0.839239 0.475305 0.346486
O O1 0.053464 0.448471 0.894780
O O2 0.000000 0.250000 0.942890
O O3 0.000000 0.500000 0.000000
O O4 0.256859 0.750000 0.433857
O O5 0.331942 0.750000 0.524348
O O6 0.335850 0.881565 0.409224
O O7 0.811633 0.617803 0.364254
O O8 0.500000 0.541665 0.688158
O O9 0.438154 0.750000 0.677573
O O10 0.429048 0.589931 0.775130
O O11 0.399006 0.502723 0.665754
O O12 0.615581 0.250000 0.142790
O O13 0.649159 0.510059 0.164438
O O14 0.298384 0.250000 0.815663
O O15 0.250000 0.500000 0.809399
O O16 0.315614 0.419920 0.720969
#
# Coordination Sequence:
#
# PCOD9503246 Si02
#       7
#     8   8   8  16  16  16  16
#     4  10  20  36  60  90 124 162 193 228 267 317
#     4  11  22  36  51  71 107 129 178 225 276 328
#     4  11  22  36  53  71  95 147 174 219 270 338
#     4   9  16  31  56  78 100 134 177 221 265 321
#     4   9  18  34  56  82 114 150 192 229 268 322
#     4  11  22  34  54  82 115 146 179 231 289 337
#     4  11  21  34  52  77 101 135 179 224 276 333
#
# _framework density 16.983640999999999
#
# number of rings (size 3 to 8) (size 9 to 14) (size 15 to 20)
#    0.000    1.818    2.727    2.727    2.545    2.182 
#    0.000    0.455    0.000    3.818    0.000    3.818 
#    0.000    0.000    0.000    0.000    0.000    0.000 
#
# Total GULP energy -245175.369390 kJ/mol
# GULP energy per Si atom -5572.167486 kJ/mol
# Density = 1.694499 g / cm^3
# Si number density = 16.983641 Si / 1000 Ang^3
#
#
#
# Elastic Constant Matrix: (Units=GPa)
#
#
# Indices 1 2 3 4 5 6 
#
# 1 124.7727 50.1045 32.8997 0.0000 0.0000 0.0000
# 2 50.1045 101.7360 35.8433 0.0000 0.0000 0.0000
# 3 32.8997 35.8433 61.5423 0.0000 0.0000 0.0000
# 4 0.0000 0.0000 0.0000 30.1992 0.0000 0.0000
# 5 0.0000 0.0000 0.0000 0.0000 24.3754 0.0000
# 6 0.0000 0.0000 0.0000 0.0000 0.0000 19.0041
#
#
#
# Elastic Compliance Matrix: (Units=1/GPa)
#
#
# Indices 1 2 3 4 5 6 
#
# 1 0.010488 -0.004014 -0.003269 0.000000 0.000000 0.000000
# 2 -0.004014 0.013903 -0.005952 0.000000 0.000000 0.000000
# 3 -0.003269 -0.005952 0.021463 0.000000 0.000000 0.000000
# 4 0.000000 0.000000 0.000000 0.033113 0.000000 0.000000
# 5 0.000000 0.000000 0.000000 0.000000 0.041025 0.000000
# 6 0.000000 0.000000 0.000000 0.000000 0.000000 0.052620
#
#
# Mechanical properties :
#
#
# Convention : Reuss Voigt Hill
#
# Bulk Modulus (GPa) = 51.58599 58.41622 55.00110
# Shear Modulus (GPa) = 24.32572 25.99599 25.16086
#
# Velocity S-wave (km/s) = 3.78868 3.91660 3.85317
# Velocity P-wave (km/s) = 7.04121 7.41102 7.22848
#
# Compressibility (1/GPa) = 0.01938511
#
# Stress axis : x y z
#
# Youngs Moduli (GPa) = 95.34380 71.92732 46.59167
#
# Poissons Ratio (x) = 0.28869 0.15232
# Poissons Ratio (y) = 0.38267 0.27730
# Poissons Ratio (z) = 0.31171 0.42809
#
# Static dielectric constant tensor:
#      x y z
#    x 1.597340 0.000000 0.000000 
#    y 0.000000 1.635500 0.000000 
#    z 0.000000 0.000000 1.560690 
# 
# From -- ./inp_files/36998.got.cif
#   From: 2010.05.17/outbox.cif.g08.bks.cpg/sg67_19_cif.got.tgz:36998.got - 2010.06.03 18:28:57.
