data_PCOD9503549
_publ_section_title
;
Structure prediction by ZEFSAII (Michael W. Deem and Ramdas Pophale) SiO2 
 PCOD9503549
Probable space group: C M M A
;
_chemical_formula_sum "Si O2"
_cell_formula_units_Z 60
_cell_length_a 24.410269
_cell_length_b 14.555354
_cell_length_c 7.802479
_cell_angle_alpha 90.000000
_cell_angle_beta 90.000000
_cell_angle_gamma 90.000000
_cell_volume 2772.221620
_symmetry_space_group_name_H-M "C M M A"
_symmetry_group_IT_number 67
_symmetry_cell_setting 'orthorhombic'
loop_
_space_group_symop_operation_xyz
x,y,z
-x,1/2-y,z
x,-y,-z
-x,1/2+y,-z
-x,-y,-z
x,1/2+y,-z
-x,y,z
x,1/2-y,z
1/2+x,1/2+y,z
1/2-x,-y,z
1/2+x,1/2-y,-z
1/2-x,y,-z
1/2-x,1/2-y,-z
1/2+x,y,-z
1/2-x,1/2+y,z
1/2+x,-y,z
loop_
_atom_site_type_symbol
_atom_site_label
_atom_site_fract_x
_atom_site_fract_y
_atom_site_fract_z
Si Si1 0.399195 0.000000 0.500000
Si Si2 0.000000 0.250000 0.854296
Si Si3 0.421656 0.570637 0.854840
Si Si4 0.690704 0.356551 0.571806
Si Si5 0.188268 0.641645 0.980794
O O1 0.430283 0.016235 0.323424
O O2 0.358846 0.086698 0.497216
O O3 0.952795 0.167559 0.854765
O O4 0.440331 0.500000 0.000000
O O5 0.358006 0.592094 0.907387
O O6 0.686919 0.250000 0.523745
O O7 0.750000 0.388168 0.500000
O O8 0.681025 0.364390 0.775853
O O9 0.187759 0.750000 0.028732
O O10 0.250000 0.606631 0.000000
#
# Coordination Sequence:
#
# PCOD9503549 Si02
#       5
#     8   4  16  16  16
#     4  12  25  41  72 102 146 186 246 306 360 446
#     4  12  30  54  84 100 142 198 250 330 382 436
#     4  12  26  50  75 111 144 191 252 308 377 445
#     4  10  21  37  61 105 154 195 234 288 360 440
#     4  10  20  39  70 106 147 193 233 289 368 447
#
# _framework density 21.643291000000001
#
# number of rings (size 3 to 8) (size 9 to 14) (size 15 to 20)
#    0.000    1.067    4.000    2.400    1.867    3.200 
#    0.000    1.333    0.000    0.000    0.000    0.000 
#    0.000    0.000    0.000    0.000    0.000    0.000 
#
# Total GULP energy -167016.125001 kJ/mol
# GULP energy per Si atom -5567.204167 kJ/mol
# Density = 2.159403 g / cm^3
# Si number density = 21.643291 Si / 1000 Ang^3
#
#
#
# Elastic Constant Matrix: (Units=GPa)
#
#
# Indices 1 2 3 4 5 6 
#
# 1 125.2005 29.4092 40.9031 0.0000 0.0000 0.0000
# 2 29.4092 109.5202 71.6000 0.0000 0.0000 0.0000
# 3 40.9031 71.6000 136.1850 0.0000 0.0000 0.0000
# 4 0.0000 0.0000 0.0000 23.6121 0.0000 0.0000
# 5 0.0000 0.0000 0.0000 0.0000 -22.6605 0.0000
# 6 0.0000 0.0000 0.0000 0.0000 0.0000 -42.8816
#
#
#
# Elastic Compliance Matrix: (Units=1/GPa)
#
#
# Indices 1 2 3 4 5 6 
#
# 1 0.008925 -0.000981 -0.002165 0.000000 0.000000 0.000000
# 2 -0.000981 0.014021 -0.007077 0.000000 0.000000 0.000000
# 3 -0.002165 -0.007077 0.011714 0.000000 0.000000 0.000000
# 4 0.000000 0.000000 0.000000 0.042351 0.000000 0.000000
# 5 0.000000 0.000000 0.000000 0.000000 -0.044130 0.000000
# 6 0.000000 0.000000 0.000000 0.000000 0.000000 -0.023320
#
#
# Mechanical properties :
#
#
# Convention : Reuss Voigt Hill
#
# Bulk Modulus (GPa) = 70.35388 72.74781 71.55084
# Shear Modulus (GPa) = 143.90795 6.88022 75.39408
#
# Velocity S-wave (km/s) = 8.16303 1.78489 5.90851
# Velocity P-wave (km/s) = 11.01923 6.15897 8.92626
#
# Compressibility (1/GPa) = 0.01421386
#
# Stress axis : x y z
#
# Youngs Moduli (GPa) = 112.04608 71.32282 85.37014
#
# Poissons Ratio (x) = 0.07000 0.18479
# Poissons Ratio (y) = 0.10997 0.60414
# Poissons Ratio (z) = 0.24253 0.50473
#
# Static dielectric constant tensor:
#      x y z
#    x 1.829380 0.000000 0.000000 
#    y 0.000000 1.771550 0.000000 
#    z 0.000000 0.000000 1.818790 
# 
# From -- ./inp_files/12030.got.cif
#   From: 2010.05.17/outbox.cif.g08.bks.cpg/sg67_7_cif.got.tgz:12030.got - 2010.06.03 18:28:57.
