data_PCOD9503541
_publ_section_title
;
Structure prediction by ZEFSAII (Michael W. Deem and Ramdas Pophale) SiO2 
 PCOD9503541
Probable space group: C M M A
;
_chemical_formula_sum "Si O2"
_cell_formula_units_Z 100
_cell_length_a 20.445733
_cell_length_b 29.340180
_cell_length_c 7.299228
_cell_angle_alpha 90.000000
_cell_angle_beta 90.000000
_cell_angle_gamma 90.000000
_cell_volume 4378.671743
_symmetry_space_group_name_H-M "C M M A"
_symmetry_group_IT_number 67
_symmetry_cell_setting 'orthorhombic'
loop_
_space_group_symop_operation_xyz
x,y,z
-x,1/2-y,z
x,-y,-z
-x,1/2+y,-z
-x,-y,-z
x,1/2+y,-z
-x,y,z
x,1/2-y,z
1/2+x,1/2+y,z
1/2-x,-y,z
1/2+x,1/2-y,-z
1/2-x,y,-z
1/2-x,1/2-y,-z
1/2+x,y,-z
1/2-x,1/2+y,z
1/2+x,-y,z
loop_
_atom_site_type_symbol
_atom_site_label
_atom_site_fract_x
_atom_site_fract_y
_atom_site_fract_z
Si Si1 0.576645 0.039066 0.265136
Si Si2 0.129215 0.950609 0.847147
Si Si3 0.124114 0.866502 0.322221
Si Si4 0.750000 0.000000 0.000000
Si Si5 0.072196 0.637511 0.917392
Si Si6 0.386978 0.300482 0.634111
Si Si7 0.759935 0.801739 0.219141
O O1 0.500000 0.046245 0.299305
O O2 0.619620 0.079179 0.355585
O O3 0.595801 0.986092 0.291634
O O4 0.593131 0.044998 0.046750
O O5 0.122638 0.897044 0.817955
O O6 0.202426 0.968366 0.880356
O O7 0.093389 0.837601 0.484896
O O8 0.193954 0.842548 0.286434
O O9 0.086275 0.859597 0.131351
O O10 0.079709 0.686059 0.824149
O O11 0.000000 0.618848 0.884362
O O12 0.403672 0.250000 0.573662
O O13 0.309431 0.302767 0.678435
O O14 0.787516 0.750000 0.248795
O O15 0.750000 0.806650 0.000000
#
# Coordination Sequence:
#
# PCOD9503541 Si02
#       7
#    16  16  16   4  16  16  16
#     4   9  17  32  56  85 119 162 206 245 298 364
#     4   9  17  33  56  87 124 161 203 258 306 362
#     4  11  21  37  63  93 123 159 203 259 319 383
#     4   8  16  28  54  96 124 152 200 248 312 376
#     4  11  24  41  63  90 123 171 222 258 307 376
#     4  11  25  42  62  91 126 162 208 270 328 379
#     4  10  20  39  65  90 119 160 208 260 319 383
#
# _framework density 22.837975
#
# number of rings (size 3 to 8) (size 9 to 14) (size 15 to 20)
#    0.000    2.080    1.600    4.320    0.000    7.360 
#    1.440    0.800    0.000    6.240    0.000   12.320 
#    0.000    0.000    0.000    0.000    0.000    0.000 
#
# Total GULP energy -279208.557400 kJ/mol
# GULP energy per Si atom -5584.171148 kJ/mol
# Density = 2.278599 g / cm^3
# Si number density = 22.837975 Si / 1000 Ang^3
#
#
#
# Elastic Constant Matrix: (Units=GPa)
#
#
# Indices 1 2 3 4 5 6 
#
# 1 95.0643 27.0322 -10.1319 0.0000 0.0000 0.0000
# 2 27.0322 128.0816 35.6871 0.0000 0.0000 0.0000
# 3 -10.1319 35.6871 73.7415 0.0000 0.0000 0.0000
# 4 0.0000 0.0000 0.0000 34.7137 0.0000 0.0000
# 5 0.0000 0.0000 0.0000 0.0000 -24.2305 0.0000
# 6 0.0000 0.0000 0.0000 0.0000 0.0000 11.7277
#
#
#
# Elastic Compliance Matrix: (Units=1/GPa)
#
#
# Indices 1 2 3 4 5 6 
#
# 1 0.011839 -0.003412 0.003278 0.000000 0.000000 0.000000
# 2 -0.003412 0.010008 -0.005312 0.000000 0.000000 0.000000
# 3 0.003278 -0.005312 0.016582 0.000000 0.000000 0.000000
# 4 0.000000 0.000000 0.000000 0.028807 0.000000 0.000000
# 5 0.000000 0.000000 0.000000 0.000000 -0.041270 0.000000
# 6 0.000000 0.000000 0.000000 0.000000 0.000000 0.085268
#
#
# Mechanical properties :
#
#
# Convention : Reuss Voigt Hill
#
# Bulk Modulus (GPa) = 36.31579 44.67356 40.49467
# Shear Modulus (GPa) = 38.07950 20.72885 29.40417
#
# Velocity S-wave (km/s) = 4.08778 3.01599 3.59208
# Velocity P-wave (km/s) = 6.18191 5.63310 5.91387
#
# Compressibility (1/GPa) = 0.02753623
#
# Stress axis : x y z
#
# Youngs Moduli (GPa) = 84.46839 99.92309 60.30635
#
# Poissons Ratio (x) = 0.34093 -0.19767
# Poissons Ratio (y) = 0.28820 0.32035
# Poissons Ratio (z) = -0.27687 0.53079
#
# Static dielectric constant tensor:
#      x y z
#    x 1.829240 0.000000 0.000000 
#    y 0.000000 1.926050 0.000000 
#    z 0.000000 0.000000 1.884630 
# 
# From -- ./inp_files/11702.got.cif
#   From: 2010.05.17/outbox.cif.g08.bks.cpg/sg67_6_cif.got.tgz:11702.got - 2010.06.03 18:28:57.
