data_PCOD9503481
_publ_section_title
;
Structure prediction by ZEFSAII (Michael W. Deem and Ramdas Pophale) SiO2 
 PCOD9503481
Probable space group: C M M A
;
_chemical_formula_sum "Si O2"
_cell_formula_units_Z 96
_cell_length_a 14.080390
_cell_length_b 14.972111
_cell_length_c 23.238449
_cell_angle_alpha 90.000000
_cell_angle_beta 90.000000
_cell_angle_gamma 90.000000
_cell_volume 4898.970914
_symmetry_space_group_name_H-M "C M M A"
_symmetry_group_IT_number 67
_symmetry_cell_setting 'orthorhombic'
loop_
_space_group_symop_operation_xyz
x,y,z
-x,1/2-y,z
x,-y,-z
-x,1/2+y,-z
-x,-y,-z
x,1/2+y,-z
-x,y,z
x,1/2-y,z
1/2+x,1/2+y,z
1/2-x,-y,z
1/2+x,1/2-y,-z
1/2-x,y,-z
1/2-x,1/2-y,-z
1/2+x,y,-z
1/2-x,1/2+y,z
1/2+x,-y,z
loop_
_atom_site_type_symbol
_atom_site_label
_atom_site_fract_x
_atom_site_fract_y
_atom_site_fract_z
Si Si1 0.762020 0.854285 0.617330
Si Si2 0.115609 0.250000 0.940350
Si Si3 0.884727 0.595010 0.974081
Si Si4 0.607132 0.645313 0.148449
Si Si5 0.885898 0.750000 0.192973
Si Si6 0.610764 0.992960 0.568666
Si Si7 0.251681 0.392427 0.248401
O O1 0.763715 0.750000 0.599836
O O2 0.849337 0.914824 0.595124
O O3 0.761133 0.860232 0.686389
O O4 0.671607 0.909978 0.593183
O O5 0.146403 0.250000 0.874092
O O6 0.000000 0.250000 0.937789
O O7 0.146050 0.166434 0.978708
O O8 0.848699 0.603138 0.909005
O O9 0.000000 0.606173 0.968707
O O10 0.864499 0.500000 0.000000
O O11 0.500000 0.610454 0.157491
O O12 0.601162 0.750000 0.134788
O O13 0.667190 0.633902 0.205562
O O14 0.842194 0.838535 0.222935
O O15 0.000000 0.750000 0.195963
O O16 0.500000 0.981468 0.581460
O O17 0.623974 0.000000 0.500000
O O18 0.250000 0.500000 0.248755
#
# Coordination Sequence:
#
# PCOD9503481 Si02
#       7
#    16   8  16  16   8  16  16
#     4  11  22  43  68  95 134 180 218 264 322 372
#     4   9  18  35  57  82 114 154 203 260 322 387
#     4   9  17  31  54  84 115 153 202 253 320 399
#     4  10  20  38  63  87 119 161 203 262 331 386
#     4  11  26  45  66  92 127 172 218 272 334 391
#     4  10  23  43  68 103 140 174 218 266 313 373
#     4  12  25  44  63  92 130 165 220 272 313 387
#
# _framework density 19.595952
#
# number of rings (size 3 to 8) (size 9 to 14) (size 15 to 20)
#    0.000    1.667    4.167    1.000    2.333    4.000 
#    0.000    3.333    0.000    0.000    0.000    0.000 
#    0.000    0.000    0.000    0.000    0.000    0.000 
#
# Total GULP energy -268034.190195 kJ/mol
# GULP energy per Si atom -5584.045629 kJ/mol
# Density = 1.955135 g / cm^3
# Si number density = 19.595952 Si / 1000 Ang^3
#
#
#
# Elastic Constant Matrix: (Units=GPa)
#
#
# Indices 1 2 3 4 5 6 
#
# 1 73.3280 13.7325 41.3624 0.0000 0.0000 0.0000
# 2 13.7325 143.6926 37.2412 0.0000 0.0000 0.0000
# 3 41.3624 37.2412 139.5490 0.0000 0.0000 0.0000
# 4 0.0000 0.0000 0.0000 36.6309 0.0000 0.0000
# 5 0.0000 0.0000 0.0000 0.0000 32.9368 0.0000
# 6 0.0000 0.0000 0.0000 0.0000 0.0000 29.8283
#
#
#
# Elastic Compliance Matrix: (Units=1/GPa)
#
#
# Indices 1 2 3 4 5 6 
#
# 1 0.016390 -0.000330 -0.004770 0.000000 0.000000 0.000000
# 2 -0.000330 0.007483 -0.001899 0.000000 0.000000 0.000000
# 3 -0.004770 -0.001899 0.009087 0.000000 0.000000 0.000000
# 4 0.000000 0.000000 0.000000 0.027299 0.000000 0.000000
# 5 0.000000 0.000000 0.000000 0.000000 0.030361 0.000000
# 6 0.000000 0.000000 0.000000 0.000000 0.000000 0.033525
#
#
# Mechanical properties :
#
#
# Convention : Reuss Voigt Hill
#
# Bulk Modulus (GPa) = 52.73949 60.13798 56.43873
# Shear Modulus (GPa) = 34.61079 37.49476 36.05277
#
# Velocity S-wave (km/s) = 4.20720 4.37898 4.29395
# Velocity P-wave (km/s) = 7.11144 7.50486 7.31080
#
# Compressibility (1/GPa) = 0.01896112
#
# Stress axis : x y z
#
# Youngs Moduli (GPa) = 61.01388 133.63522 110.05298
#
# Poissons Ratio (x) = 0.04412 0.52493
# Poissons Ratio (y) = 0.02014 0.20901
# Poissons Ratio (z) = 0.29102 0.25379
#
# Static dielectric constant tensor:
#      x y z
#    x 1.729430 0.000000 0.000000 
#    y 0.000000 1.725560 0.000000 
#    z 0.000000 0.000000 1.658170 
# 
# From -- ./inp_files/38516.got.cif
#   From: 2010.05.17/outbox.cif.g08.bks.cpg/sg67_20_cif.got.tgz:38516.got - 2010.06.03 18:28:57.
