data_PCOD9503207
_publ_section_title
;
Structure prediction by ZEFSAII (Michael W. Deem and Ramdas Pophale) SiO2 
 PCOD9503207
Probable space group: C M M A
;
_chemical_formula_sum "Si O2"
_cell_formula_units_Z 84
_cell_length_a 20.456333
_cell_length_b 15.228710
_cell_length_c 15.282644
_cell_angle_alpha 90.000000
_cell_angle_beta 90.000000
_cell_angle_gamma 90.000000
_cell_volume 4760.903710
_symmetry_space_group_name_H-M "C M M A"
_symmetry_group_IT_number 67
_symmetry_cell_setting 'orthorhombic'
loop_
_space_group_symop_operation_xyz
x,y,z
-x,1/2-y,z
x,-y,-z
-x,1/2+y,-z
-x,-y,-z
x,1/2+y,-z
-x,y,z
x,1/2-y,z
1/2+x,1/2+y,z
1/2-x,-y,z
1/2+x,1/2-y,-z
1/2-x,y,-z
1/2-x,1/2-y,-z
1/2+x,y,-z
1/2-x,1/2+y,z
1/2+x,-y,z
loop_
_atom_site_type_symbol
_atom_site_label
_atom_site_fract_x
_atom_site_fract_y
_atom_site_fract_z
Si Si1 0.286466 0.750000 0.592266
Si Si2 0.888224 0.400028 0.803625
Si Si3 0.924752 0.855071 0.998644
Si Si4 0.750912 0.898621 0.726552
Si Si5 0.000000 0.250000 0.211469
Si Si6 0.426882 0.750000 0.668160
Si Si7 0.111155 0.100725 0.184375
O O1 0.250000 0.750000 0.500000
O O2 0.263013 0.665599 0.646757
O O3 0.366097 0.750000 0.600036
O O4 0.810138 0.389682 0.792497
O O5 0.918749 0.333867 0.732718
O O6 0.906450 0.501410 0.787592
O O7 0.907488 0.375855 0.902050
O O8 0.921339 0.750000 0.986337
O O9 0.883461 0.898861 0.921598
O O10 0.000000 0.881617 0.983240
O O11 0.819308 0.878065 0.772403
O O12 0.750000 0.000000 0.697656
O O13 0.942794 0.327365 0.208225
O O14 0.500000 0.750000 0.629946
#
# Coordination Sequence:
#
# PCOD9503207 Si02
#       7
#     8  16  16  16   4   8  16
#     4  10  21  39  66  91 112 144 178 223 292 355
#     4  10  21  34  56  82 108 153 198 241 285 322
#     4  11  20  32  47  76 113 155 201 242 280 325
#     4   9  21  40  59  86 112 146 190 232 284 345
#     4  12  22  34  48  80 106 160 196 234 284 328
#     4  10  20  36  59  89 116 141 186 239 279 339
#     4  11  21  36  53  74 117 154 196 238 279 332
#
# _framework density 17.643709999999999
#
# number of rings (size 3 to 8) (size 9 to 14) (size 15 to 20)
#    0.000    1.714    2.857    1.714    2.667    1.905 
#    0.000    3.810    4.190    0.000    0.000    4.000 
#    0.000    0.000    0.000    0.000    0.000    0.000 
#
# Total GULP energy -233830.478932 kJ/mol
# GULP energy per Si atom -5567.392356 kJ/mol
# Density = 1.760355 g / cm^3
# Si number density = 17.643710 Si / 1000 Ang^3
#
#
#
# Elastic Constant Matrix: (Units=GPa)
#
#
# Indices 1 2 3 4 5 6 
#
# 1 140.7544 60.6772 57.7232 0.0000 0.0000 0.0000
# 2 60.6772 82.4086 34.0407 0.0000 0.0000 0.0000
# 3 57.7232 34.0407 75.6790 0.0000 0.0000 0.0000
# 4 0.0000 0.0000 0.0000 -47.9174 0.0000 0.0000
# 5 0.0000 0.0000 0.0000 0.0000 16.3451 0.0000
# 6 0.0000 0.0000 0.0000 0.0000 0.0000 30.6182
#
#
#
# Elastic Compliance Matrix: (Units=1/GPa)
#
#
# Indices 1 2 3 4 5 6 
#
# 1 0.012696 -0.006568 -0.006729 0.000000 0.000000 0.000000
# 2 -0.006568 0.018302 -0.003222 0.000000 0.000000 0.000000
# 3 -0.006729 -0.003222 0.019796 0.000000 0.000000 0.000000
# 4 0.000000 0.000000 0.000000 -0.020869 0.000000 0.000000
# 5 0.000000 0.000000 0.000000 0.000000 0.061180 0.000000
# 6 0.000000 0.000000 0.000000 0.000000 0.000000 0.032660
#
#
# Mechanical properties :
#
#
# Convention : Reuss Voigt Hill
#
# Bulk Modulus (GPa) = 56.32586 67.08045 61.70316
# Shear Modulus (GPa) = 30.72729 9.56923 20.14826
#
# Velocity S-wave (km/s) = 4.17771 2.33139 3.38294
# Velocity P-wave (km/s) = 7.43400 6.73418 7.09273
#
# Compressibility (1/GPa) = 0.01775384
#
# Stress axis : x y z
#
# Youngs Moduli (GPa) = 78.76764 54.63920 50.51610
#
# Poissons Ratio (x) = 0.35888 0.33992
# Poissons Ratio (y) = 0.51736 0.16279
# Poissons Ratio (z) = 0.53003 0.17607
#
# Static dielectric constant tensor:
#      x y z
#    x 1.609060 0.000000 0.000000 
#    y 0.000000 1.629280 0.000000 
#    z 0.000000 0.000000 1.574640 
# 
# From -- ./inp_files/29202.got.cif
#   From: 2010.05.17/outbox.cif.g08.bks.cpg/sg67_15_cif.got.tgz:29202.got - 2010.06.03 18:28:57.
