data_PCOD9503512
_publ_section_title
;
Structure prediction by ZEFSAII (Michael W. Deem and Ramdas Pophale) SiO2 
 PCOD9503512
Probable space group: C M M A
;
_chemical_formula_sum "Si O2"
_cell_formula_units_Z 64
_cell_length_a 16.140828
_cell_length_b 15.636993
_cell_length_c 12.109044
_cell_angle_alpha 90.000000
_cell_angle_beta 90.000000
_cell_angle_gamma 90.000000
_cell_volume 3056.250226
_symmetry_space_group_name_H-M "C M M A"
_symmetry_group_IT_number 67
_symmetry_cell_setting 'orthorhombic'
loop_
_space_group_symop_operation_xyz
x,y,z
-x,1/2-y,z
x,-y,-z
-x,1/2+y,-z
-x,-y,-z
x,1/2+y,-z
-x,y,z
x,1/2-y,z
1/2+x,1/2+y,z
1/2-x,-y,z
1/2+x,1/2-y,-z
1/2-x,y,-z
1/2-x,1/2-y,-z
1/2+x,y,-z
1/2-x,1/2+y,z
1/2+x,-y,z
loop_
_atom_site_type_symbol
_atom_site_label
_atom_site_fract_x
_atom_site_fract_y
_atom_site_fract_z
Si Si1 0.399953 0.910957 0.544712
Si Si2 0.667260 0.250000 0.578566
Si Si3 0.594338 0.151318 0.231784
Si Si4 0.651150 0.400417 0.995193
Si Si5 0.399983 0.750000 0.175357
O O1 0.500000 0.913367 0.553605
O O2 0.378535 0.834704 0.463324
O O3 0.363696 0.896590 0.666982
O O4 0.369116 0.000000 0.500000
O O5 0.750000 0.250000 0.500000
O O6 0.657193 0.250000 0.712923
O O7 0.500000 0.121045 0.223028
O O8 0.594012 0.250000 0.266052
O O9 0.628896 0.141968 0.111276
O O10 0.620192 0.335863 0.898215
O O11 0.620250 0.500000 0.000000
O O12 0.750000 0.404364 0.000000
O O13 0.500000 0.750000 0.199974
#
# Coordination Sequence:
#
# PCOD9503512 Si02
#       5
#    16   8  16  16   8
#     4  10  22  42  68  97 130 173 225 281 336 406
#     4  12  28  44  66  98 138 183 220 282 347 410
#     4  10  20  38  68  96 127 174 226 275 332 406
#     4  11  26  44  67 100 141 181 223 281 348 412
#     4  12  27  46  72 103 141 185 234 289 344 417
#
# _framework density 20.940693
#
# number of rings (size 3 to 8) (size 9 to 14) (size 15 to 20)
#    0.000    1.250    2.500    2.250    7.000    2.500 
#    0.000    0.000    0.000    0.000    0.000    0.000 
#    0.000    0.000    0.000    0.000    0.000    0.000 
#
# Total GULP energy -178423.555823 kJ/mol
# GULP energy per Si atom -5575.736119 kJ/mol
# Density = 2.089303 g / cm^3
# Si number density = 20.940693 Si / 1000 Ang^3
#
#
#
# Elastic Constant Matrix: (Units=GPa)
#
#
# Indices 1 2 3 4 5 6 
#
# 1 44.4339 22.2066 27.5321 0.0000 0.0000 0.0000
# 2 22.2066 115.6662 58.4644 0.0000 0.0000 0.0000
# 3 27.5321 58.4644 189.3369 0.0000 0.0000 0.0000
# 4 0.0000 0.0000 0.0000 27.2513 0.0000 0.0000
# 5 0.0000 0.0000 0.0000 0.0000 18.5186 0.0000
# 6 0.0000 0.0000 0.0000 0.0000 0.0000 27.7314
#
#
#
# Elastic Compliance Matrix: (Units=1/GPa)
#
#
# Indices 1 2 3 4 5 6 
#
# 1 0.025970 -0.003646 -0.002650 0.000000 0.000000 0.000000
# 2 -0.003646 0.010756 -0.002791 0.000000 0.000000 0.000000
# 3 -0.002650 -0.002791 0.006529 0.000000 0.000000 0.000000
# 4 0.000000 0.000000 0.000000 0.036695 0.000000 0.000000
# 5 0.000000 0.000000 0.000000 0.000000 0.054000 0.000000
# 6 0.000000 0.000000 0.000000 0.000000 0.000000 0.036060
#
#
# Mechanical properties :
#
#
# Convention : Reuss Voigt Hill
#
# Bulk Modulus (GPa) = 39.87335 62.87146 51.37240
# Shear Modulus (GPa) = 25.43928 30.78251 28.11089
#
# Velocity S-wave (km/s) = 3.48922 3.83820 3.66786
# Velocity P-wave (km/s) = 5.94266 7.05203 6.52098
#
# Compressibility (1/GPa) = 0.02507941
#
# Stress axis : x y z
#
# Youngs Moduli (GPa) = 38.50609 92.96748 153.16542
#
# Poissons Ratio (x) = 0.33898 0.40596
# Poissons Ratio (y) = 0.14040 0.42752
# Poissons Ratio (z) = 0.10206 0.25949
#
# Static dielectric constant tensor:
#      x y z
#    x 1.758710 0.000000 0.000000 
#    y 0.000000 1.754420 0.000000 
#    z 0.000000 0.000000 1.794710 
# 
# From -- ./inp_files/19003.got.cif
#   From: 2010.05.17/outbox.cif.g08.bks.cpg/sg67_10_cif.got.tgz:19003.got - 2010.06.03 18:28:57.
