data_PCOD9503449
_publ_section_title
;
Structure prediction by ZEFSAII (Michael W. Deem and Ramdas Pophale) SiO2 
 PCOD9503449
Probable space group: C M M A
;
_chemical_formula_sum "Si O2"
_cell_formula_units_Z 64
_cell_length_a 17.141168
_cell_length_b 26.999563
_cell_length_c 7.447152
_cell_angle_alpha 90.000000
_cell_angle_beta 90.000000
_cell_angle_gamma 90.000000
_cell_volume 3446.572072
_symmetry_space_group_name_H-M "C M M A"
_symmetry_group_IT_number 67
_symmetry_cell_setting 'orthorhombic'
loop_
_space_group_symop_operation_xyz
x,y,z
-x,1/2-y,z
x,-y,-z
-x,1/2+y,-z
-x,-y,-z
x,1/2+y,-z
-x,y,z
x,1/2-y,z
1/2+x,1/2+y,z
1/2-x,-y,z
1/2+x,1/2-y,-z
1/2-x,y,-z
1/2-x,1/2-y,-z
1/2+x,y,-z
1/2-x,1/2+y,z
1/2+x,-y,z
loop_
_atom_site_type_symbol
_atom_site_label
_atom_site_fract_x
_atom_site_fract_y
_atom_site_fract_z
Si Si1 0.260141 0.806337 0.214199
Si Si2 0.175496 0.601033 0.391954
Si Si3 0.910081 0.133095 0.269239
Si Si4 0.407823 0.943466 0.944762
O O1 0.243858 0.750000 0.268606
O O2 0.205618 0.846165 0.313743
O O3 0.348880 0.822356 0.253258
O O4 0.250000 0.810326 0.000000
O O5 0.250000 0.579795 0.500000
O O6 0.108223 0.608581 0.538700
O O7 0.144954 0.570395 0.224222
O O8 0.000000 0.147705 0.254125
O O9 0.892100 0.093671 0.110893
O O10 0.500000 0.937990 0.899976
O O11 0.394467 0.000000 0.000000
#
# Coordination Sequence:
#
# PCOD9503449 Si02
#       4
#    16  16  16  16
#     4  10  20  38  61  83 114 155 192 234 291 348
#     4  10  21  37  60  86 116 152 192 242 289 344
#     4  10  21  37  60  87 115 151 195 240 285 343
#     4  10  21  39  61  83 117 158 194 238 291 343
#
# _framework density 18.569175999999999
#
# number of rings (size 3 to 8) (size 9 to 14) (size 15 to 20)
#    0.000    2.000    2.500    0.750    0.000    6.000 
#    0.000   17.500    0.000    2.250    0.000    0.000 
#    0.000    0.000    0.000    0.000    0.000    0.000 
#
# Total GULP energy -178637.427764 kJ/mol
# GULP energy per Si atom -5582.419618 kJ/mol
# Density = 1.852691 g / cm^3
# Si number density = 18.569176 Si / 1000 Ang^3
#
#
#
# Elastic Constant Matrix: (Units=GPa)
#
#
# Indices 1 2 3 4 5 6 
#
# 1 72.7605 50.7659 54.4373 0.0000 0.0000 0.0000
# 2 50.7659 77.8710 46.6474 0.0000 0.0000 0.0000
# 3 54.4373 46.6474 133.7934 0.0000 0.0000 0.0000
# 4 0.0000 0.0000 0.0000 9.1791 0.0000 0.0000
# 5 0.0000 0.0000 0.0000 0.0000 30.1998 0.0000
# 6 0.0000 0.0000 0.0000 0.0000 0.0000 24.4764
#
#
#
# Elastic Compliance Matrix: (Units=1/GPa)
#
#
# Indices 1 2 3 4 5 6 
#
# 1 0.029230 -0.015081 -0.006635 0.000000 0.000000 0.000000
# 2 -0.015081 0.024013 -0.002236 0.000000 0.000000 0.000000
# 3 -0.006635 -0.002236 0.010953 0.000000 0.000000 0.000000
# 4 0.000000 0.000000 0.000000 0.108943 0.000000 0.000000
# 5 0.000000 0.000000 0.000000 0.000000 0.033113 0.000000
# 6 0.000000 0.000000 0.000000 0.000000 0.000000 0.040856
#
#
# Mechanical properties :
#
#
# Convention : Reuss Voigt Hill
#
# Bulk Modulus (GPa) = 61.37911 65.34735 63.36323
# Shear Modulus (GPa) = 16.64207 21.60934 19.12571
#
# Velocity S-wave (km/s) = 2.99694 3.41504 3.21280
# Velocity P-wave (km/s) = 6.71577 7.12865 6.92529
#
# Compressibility (1/GPa) = 0.01629219
#
# Stress axis : x y z
#
# Youngs Moduli (GPa) = 34.21119 41.64408 91.29588
#
# Poissons Ratio (x) = 0.62805 0.60574
# Poissons Ratio (y) = 0.51595 0.20414
# Poissons Ratio (z) = 0.22699 0.09312
#
# Static dielectric constant tensor:
#      x y z
#    x 1.630850 0.000000 0.000000 
#    y 0.000000 1.622360 0.000000 
#    z 0.000000 0.000000 1.646810 
# 
# From -- ./inp_files/9632.got.cif
#   From: 2010.05.17/outbox.cif.g08.bks.cpg/sg67_5_cif.got.tgz:9632.got - 2010.06.03 18:28:57.
