data_PCOD9503453
_publ_section_title
;
Structure prediction by ZEFSAII (Michael W. Deem and Ramdas Pophale) SiO2 
 PCOD9503453
Probable space group: C M M A
;
_chemical_formula_sum "Si O2"
_cell_formula_units_Z 64
_cell_length_a 10.612278
_cell_length_b 22.847974
_cell_length_c 11.299954
_cell_angle_alpha 90.000000
_cell_angle_beta 90.000000
_cell_angle_gamma 90.000000
_cell_volume 2739.889132
_symmetry_space_group_name_H-M "C M M A"
_symmetry_group_IT_number 67
_symmetry_cell_setting 'orthorhombic'
loop_
_space_group_symop_operation_xyz
x,y,z
-x,1/2-y,z
x,-y,-z
-x,1/2+y,-z
-x,-y,-z
x,1/2+y,-z
-x,y,z
x,1/2-y,z
1/2+x,1/2+y,z
1/2-x,-y,z
1/2+x,1/2-y,-z
1/2-x,y,-z
1/2-x,1/2-y,-z
1/2+x,y,-z
1/2-x,1/2+y,z
1/2+x,-y,z
loop_
_atom_site_type_symbol
_atom_site_label
_atom_site_fract_x
_atom_site_fract_y
_atom_site_fract_z
Si Si1 0.630351 0.847553 0.964935
Si Si2 0.356994 0.818895 0.703579
Si Si3 0.135989 0.042688 0.145451
Si Si4 0.651550 0.398768 0.597541
O O1 0.500000 0.817130 0.988000
O O2 0.633719 0.903848 0.051621
O O3 0.750000 0.811632 0.000000
O O4 0.639243 0.856563 0.824674
O O5 0.500000 0.825659 0.651850
O O6 0.344238 0.750000 0.730391
O O7 0.235075 0.840830 0.631396
O O8 0.147531 0.065850 0.279537
O O9 0.000000 0.012094 0.135390
O O10 0.250000 0.000000 0.123726
O O11 0.500000 0.392513 0.566293
O O12 0.750000 0.425584 0.500000
#
# Coordination Sequence:
#
# PCOD9503453 Si02
#       4
#    16  16  16  16
#     4  10  20  38  61  92 130 164 204 254 310 373
#     4  10  22  41  66  95 128 168 211 256 311 372
#     4  10  23  42  64  93 128 167 210 256 313 374
#     4  11  24  44  67  93 125 163 211 265 316 372
#
# _framework density 23.358609000000001
#
# number of rings (size 3 to 8) (size 9 to 14) (size 15 to 20)
#    0.000    1.750    2.500    0.750    0.000    5.500 
#    0.000    5.000    0.000    0.000    0.000    0.000 
#    0.000    0.000    0.000    0.000    0.000    0.000 
#
# Total GULP energy -178153.672537 kJ/mol
# GULP energy per Si atom -5567.302267 kJ/mol
# Density = 2.330544 g / cm^3
# Si number density = 23.358609 Si / 1000 Ang^3
#
#
#
# Elastic Constant Matrix: (Units=GPa)
#
#
# Indices 1 2 3 4 5 6 
#
# 1 291.2794 53.6891 53.8587 0.0000 0.0000 0.0000
# 2 53.6891 88.4344 53.4556 0.0000 0.0000 0.0000
# 3 53.8587 53.4556 158.1789 0.0000 0.0000 0.0000
# 4 0.0000 0.0000 0.0000 365.1307 0.0000 0.0000
# 5 0.0000 0.0000 0.0000 0.0000 6.9011 0.0000
# 6 0.0000 0.0000 0.0000 0.0000 0.0000 -59.9871
#
#
#
# Elastic Compliance Matrix: (Units=1/GPa)
#
#
# Indices 1 2 3 4 5 6 
#
# 1 0.003921 -0.001977 -0.000667 0.000000 0.000000 0.000000
# 2 -0.001977 0.015208 -0.004466 0.000000 0.000000 0.000000
# 3 -0.000667 -0.004466 0.008058 0.000000 0.000000 0.000000
# 4 0.000000 0.000000 0.000000 0.002739 0.000000 0.000000
# 5 0.000000 0.000000 0.000000 0.000000 0.144904 0.000000
# 6 0.000000 0.000000 0.000000 0.000000 0.000000 -0.016670
#
#
# Mechanical properties :
#
#
# Convention : Reuss Voigt Hill
#
# Bulk Modulus (GPa) = 77.12171 95.54439 86.33305
# Shear Modulus (GPa) = 28.29616 87.53491 57.91554
#
# Velocity S-wave (km/s) = 3.48427 6.12827 4.98477
# Velocity P-wave (km/s) = 7.01961 9.54287 8.37679
#
# Compressibility (1/GPa) = 0.01296652
#
# Stress axis : x y z
#
# Youngs Moduli (GPa) = 255.04407 65.75527 124.09564
#
# Poissons Ratio (x) = 0.13002 0.08275
# Poissons Ratio (y) = 0.50431 0.55423
# Poissons Ratio (z) = 0.17006 0.29367
#
# Static dielectric constant tensor:
#      x y z
#    x 2.008550 0.000000 0.000000 
#    y 0.000000 1.838070 0.000000 
#    z 0.000000 0.000000 1.950050 
# 
# From -- ./inp_files/16474.got.cif
#   From: 2010.05.17/outbox.cif.g08.bks.cpg/sg67_9_cif.got.tgz:16474.got - 2010.06.03 18:28:57.
