data_PCOD9503709
_publ_section_title
;
Structure prediction by ZEFSAII (Michael W. Deem and Ramdas Pophale) SiO2 
 PCOD9503709
Probable space group: C M M A
;
_chemical_formula_sum "Si O2"
_cell_formula_units_Z 96
_cell_length_a 22.866652
_cell_length_b 14.997412
_cell_length_c 11.938037
_cell_angle_alpha 90.000000
_cell_angle_beta 90.000000
_cell_angle_gamma 90.000000
_cell_volume 4094.037585
_symmetry_space_group_name_H-M "C M M A"
_symmetry_group_IT_number 67
_symmetry_cell_setting 'orthorhombic'
loop_
_space_group_symop_operation_xyz
x,y,z
-x,1/2-y,z
x,-y,-z
-x,1/2+y,-z
-x,-y,-z
x,1/2+y,-z
-x,y,z
x,1/2-y,z
1/2+x,1/2+y,z
1/2-x,-y,z
1/2+x,1/2-y,-z
1/2-x,y,-z
1/2-x,1/2-y,-z
1/2+x,y,-z
1/2-x,1/2+y,z
1/2+x,-y,z
loop_
_atom_site_type_symbol
_atom_site_label
_atom_site_fract_x
_atom_site_fract_y
_atom_site_fract_z
Si Si1 0.860455 0.857916 0.598161
Si Si2 0.655148 0.396359 0.967210
Si Si3 0.649123 0.853174 0.653654
Si Si4 0.566471 0.880863 0.842415
Si Si5 0.936007 0.910415 0.789203
Si Si6 0.759754 0.643545 0.778120
O O1 0.869343 0.750000 0.598116
O O2 0.853044 0.890166 0.471277
O O3 0.914010 0.903520 0.662691
O O4 0.804383 0.876010 0.676577
O O5 0.611739 0.365791 0.867459
O O6 0.716112 0.383823 0.899611
O O7 0.655307 0.500000 0.000000
O O8 0.619595 0.354695 0.073430
O O9 0.666922 0.750000 0.637736
O O10 0.588174 0.853654 0.719307
O O11 0.697970 0.895619 0.735550
O O12 0.500000 0.851783 0.871181
O O13 0.563365 0.988230 0.833565
O O14 0.000000 0.871815 0.802196
O O15 0.754598 0.750000 0.788624
#
# Coordination Sequence:
#
# PCOD9503709 Si02
#       6
#    16  16  16  16  16  16
#     4   9  18  34  56  81 108 139 177 223 273 321
#     4   9  18  35  57  80 108 139 177 225 275 322
#     4  10  21  36  54  77 108 144 179 219 270 326
#     4  10  21  36  53  75 108 148 184 219 266 323
#     4   9  18  34  56  80 106 140 182 225 267 314
#     4   9  18  35  59  83 106 137 179 225 273 325
#
# _framework density 23.448734000000002
#
# number of rings (size 3 to 8) (size 9 to 14) (size 15 to 20)
#    0.000    2.667    0.000    1.000    0.000    7.333 
#    0.000   15.000    0.000    9.000    0.000    0.000 
#    0.000    0.000    0.000    0.000    0.000    0.333 
#
# Total GULP energy -267528.277517 kJ/mol
# GULP energy per Si atom -5573.505782 kJ/mol
# Density = 2.339536 g / cm^3
# Si number density = 23.448734 Si / 1000 Ang^3
#
#
#
# Elastic Constant Matrix: (Units=GPa)
#
#
# Indices 1 2 3 4 5 6 
#
# 1 -392.2685 -91.3489 22.3142 0.0000 0.0000 0.0000
# 2 -91.3489 24.9605 -5.2546 0.0000 0.0000 0.0000
# 3 22.3142 -5.2546 188.9945 0.0000 0.0000 0.0000
# 4 0.0000 0.0000 0.0000 24.4151 0.0000 0.0000
# 5 0.0000 0.0000 0.0000 0.0000 27.2374 0.0000
# 6 0.0000 0.0000 0.0000 0.0000 0.0000 18.8135
#
#
#
# Elastic Compliance Matrix: (Units=1/GPa)
#
#
# Indices 1 2 3 4 5 6 
#
# 1 -0.001376 -0.005032 0.000023 0.000000 0.000000 0.000000
# 2 -0.005032 0.021901 0.001203 0.000000 0.000000 0.000000
# 3 0.000023 0.001203 0.005322 0.000000 0.000000 0.000000
# 4 0.000000 0.000000 0.000000 0.040958 0.000000 0.000000
# 5 0.000000 0.000000 0.000000 0.000000 0.036714 0.000000
# 6 0.000000 0.000000 0.000000 0.000000 0.000000 0.053153
#
#
# Mechanical properties :
#
#
# Convention : Reuss Voigt Hill
#
# Bulk Modulus (GPa) = 54.84042 -36.32135 9.25954
# Shear Modulus (GPa) = 29.34899 7.15825 18.25362
#
# Velocity S-wave (km/s) = 3.54167 1.74910 2.79310
# Velocity P-wave (km/s) = 6.33740 3.38292 3.78936
#
# Compressibility (1/GPa) = 0.01823473
#
# Stress axis : x y z
#
# Youngs Moduli (GPa) = -726.63249 45.65911 187.90141
#
# Poissons Ratio (x) = 0.22975 -0.00424
# Poissons Ratio (y) = -3.65629 -0.22605
# Poissons Ratio (z) = 0.01641 -0.05493
#
# Static dielectric constant tensor:
#      x y z
#    x 1.944860 0.000000 0.000000 
#    y 0.000000 1.934800 0.000000 
#    z 0.000000 0.000000 1.888370 
# 
# From -- ./inp_files/20851.got.cif
#   From: 2010.05.17/outbox.cif.g08.bks.cpg/sg67_11_cif.got.tgz:20851.got - 2010.06.03 18:28:57.
