data_PCOD9503143
_publ_section_title
;
Structure prediction by ZEFSAII (Michael W. Deem and Ramdas Pophale) SiO2 
 PCOD9503143
Probable space group: C M M A
;
_chemical_formula_sum "Si O2"
_cell_formula_units_Z 56
_cell_length_a 14.646067
_cell_length_b 17.179484
_cell_length_c 9.418587
_cell_angle_alpha 90.000000
_cell_angle_beta 90.000000
_cell_angle_gamma 90.000000
_cell_volume 2369.828323
_symmetry_space_group_name_H-M "C M M A"
_symmetry_group_IT_number 67
_symmetry_cell_setting 'orthorhombic'
loop_
_space_group_symop_operation_xyz
x,y,z
-x,1/2-y,z
x,-y,-z
-x,1/2+y,-z
-x,-y,-z
x,1/2+y,-z
-x,y,z
x,1/2-y,z
1/2+x,1/2+y,z
1/2-x,-y,z
1/2+x,1/2-y,-z
1/2-x,y,-z
1/2-x,1/2-y,-z
1/2+x,y,-z
1/2-x,1/2+y,z
1/2+x,-y,z
loop_
_atom_site_type_symbol
_atom_site_label
_atom_site_fract_x
_atom_site_fract_y
_atom_site_fract_z
Si Si1 0.147009 0.553622 0.636898
Si Si2 0.000000 0.163601 0.040350
Si Si3 0.204272 0.661289 0.848235
Si Si4 0.000000 0.052138 0.780538
Si Si5 0.000000 0.658452 0.489938
O O1 0.163125 0.500000 0.500000
O O2 0.224448 0.597125 0.728157
O O3 0.086572 0.623155 0.571437
O O4 0.086294 0.501918 0.743878
O O5 0.094620 0.160702 0.126549
O O6 0.000000 0.250000 0.969812
O O7 0.000000 0.092321 0.931941
O O8 0.231432 0.750000 0.809427
O O9 0.250000 0.643427 0.000000
O O10 0.000000 0.121532 0.665974
O O11 0.000000 0.750000 0.489752
#
# Coordination Sequence:
#
# PCOD9503143 Si02
#       5
#    16   8  16   8   8
#     4   9  18  32  53  83 121 159 199 253 314 367
#     4  10  20  36  58  83 120 166 205 252 310 359
#     4  10  21  37  60  91 124 162 210 256 302 368
#     4   9  18  31  51  84 119 156 204 250 302 371
#     4   9  15  27  53  84 117 160 207 250 297 367
#
# _framework density 23.630405
#
# number of rings (size 3 to 8) (size 9 to 14) (size 15 to 20)
#    0.000    2.571    0.000    4.714    0.000    3.429 
#    0.000    2.857    0.000   17.143    0.000   26.000 
#    0.000   22.857    0.000    0.000    0.000    0.000 
#
# Total GULP energy -156578.380691 kJ/mol
# GULP energy per Si atom -5592.085025 kJ/mol
# Density = 2.357662 g / cm^3
# Si number density = 23.630405 Si / 1000 Ang^3
#
#
#
# Elastic Constant Matrix: (Units=GPa)
#
#
# Indices 1 2 3 4 5 6 
#
# 1 56.5323 16.3796 -0.5063 0.0000 0.0000 0.0000
# 2 16.3796 208.3708 83.9690 0.0000 0.0000 0.0000
# 3 -0.5063 83.9690 118.2304 0.0000 0.0000 0.0000
# 4 0.0000 0.0000 0.0000 45.9778 0.0000 0.0000
# 5 0.0000 0.0000 0.0000 0.0000 -84.2584 0.0000
# 6 0.0000 0.0000 0.0000 0.0000 0.0000 45.2740
#
#
#
# Elastic Compliance Matrix: (Units=1/GPa)
#
#
# Indices 1 2 3 4 5 6 
#
# 1 0.018300 -0.002059 0.001541 0.000000 0.000000 0.000000
# 2 -0.002059 0.006955 -0.004948 0.000000 0.000000 0.000000
# 3 0.001541 -0.004948 0.011979 0.000000 0.000000 0.000000
# 4 0.000000 0.000000 0.000000 0.021750 0.000000 0.000000
# 5 0.000000 0.000000 0.000000 0.000000 -0.011868 0.000000
# 6 0.000000 0.000000 0.000000 0.000000 0.000000 0.022088
#
#
# Mechanical properties :
#
#
# Convention : Reuss Voigt Hill
#
# Bulk Modulus (GPa) = 38.02285 64.75756 51.39021
# Shear Modulus (GPa) = 56.24081 20.28477 38.26279
#
# Velocity S-wave (km/s) = 4.88384 2.93306 4.02832
# Velocity P-wave (km/s) = 6.92301 6.23973 6.59023
#
# Compressibility (1/GPa) = 0.02629997
#
# Stress axis : x y z
#
# Youngs Moduli (GPa) = 54.64624 143.77814 83.47845
#
# Poissons Ratio (x) = 0.29611 -0.12864
# Poissons Ratio (y) = 0.11254 0.41309
# Poissons Ratio (z) = -0.08421 0.71148
#
# Static dielectric constant tensor:
#      x y z
#    x 2.196210 0.000000 0.000000 
#    y 0.000000 1.892730 0.000000 
#    z 0.000000 0.000000 1.877670 
# 
# From -- ./inp_files/9123.got.cif
#   From: 2010.05.17/outbox.cif.g08.bks.cpg/sg67_5_cif.got.tgz:9123.got - 2010.06.03 18:28:57.
