data_PCOD9503726
_publ_section_title
;
Structure prediction by ZEFSAII (Michael W. Deem and Ramdas Pophale) SiO2 
 PCOD9503726
Probable space group: C M M A
;
_chemical_formula_sum "Si O2"
_cell_formula_units_Z 96
_cell_length_a 18.333596
_cell_length_b 9.261241
_cell_length_c 31.664033
_cell_angle_alpha 90.000000
_cell_angle_beta 90.000000
_cell_angle_gamma 90.000000
_cell_volume 5376.294772
_symmetry_space_group_name_H-M "C M M A"
_symmetry_group_IT_number 67
_symmetry_cell_setting 'orthorhombic'
loop_
_space_group_symop_operation_xyz
x,y,z
-x,1/2-y,z
x,-y,-z
-x,1/2+y,-z
-x,-y,-z
x,1/2+y,-z
-x,y,z
x,1/2-y,z
1/2+x,1/2+y,z
1/2-x,-y,z
1/2+x,1/2-y,-z
1/2-x,y,-z
1/2-x,1/2-y,-z
1/2+x,y,-z
1/2-x,1/2+y,z
1/2+x,-y,z
loop_
_atom_site_type_symbol
_atom_site_label
_atom_site_fract_x
_atom_site_fract_y
_atom_site_fract_z
Si Si1 0.827342 0.423282 0.872883
Si Si2 0.585698 0.923059 0.956838
Si Si3 0.411046 0.416123 0.458129
Si Si4 0.913600 0.921502 0.212825
Si Si5 0.672025 0.922935 0.287274
Si Si6 0.414296 0.578393 0.373226
O O1 0.817511 0.250000 0.874130
O O2 0.750000 0.500000 0.868983
O O3 0.867881 0.466753 0.916082
O O4 0.876990 0.455572 0.832186
O O5 0.500000 0.956721 0.949849
O O6 0.591586 0.750000 0.961710
O O7 0.609153 0.000000 0.000000
O O8 0.386468 0.500000 0.500000
O O9 0.500000 0.419010 0.458566
O O10 0.388034 0.250000 0.459115
O O11 0.389092 0.493265 0.414719
O O12 0.901944 0.750000 0.220996
O O13 0.000000 0.946875 0.211253
O O14 0.876293 0.014189 0.249328
O O15 0.679637 0.750000 0.283333
O O16 0.631898 0.954641 0.331632
O O17 0.750000 0.000000 0.286131
O O18 0.500000 0.544625 0.365625
O O19 0.409641 0.750000 0.381513
#
# Coordination Sequence:
#
# PCOD9503726 Si02
#       6
#    16  16  16  16  16  16
#     4  10  21  36  54  78 109 143 177 216 264 317
#     4   9  18  34  55  77 103 137 178 222 266 313
#     4   9  16  26  44  72 104 136 171 213 260 309
#     4  10  21  38  60  83 107 138 177 220 267 320
#     4  11  23  38  56  79 109 143 178 219 268 319
#     4   9  18  33  52  74 102 136 174 216 262 312
#
# _framework density 17.856165000000001
#
# number of rings (size 3 to 8) (size 9 to 14) (size 15 to 20)
#    0.000    2.333    0.000    2.500    0.000    9.333 
#    0.000    3.333    0.000    3.500    0.000    3.500 
#    0.000    0.000    0.000    0.000    0.000    0.000 
#
# Total GULP energy -267941.136561 kJ/mol
# GULP energy per Si atom -5582.107012 kJ/mol
# Density = 1.781552 g / cm^3
# Si number density = 17.856165 Si / 1000 Ang^3
#
#
#
# Elastic Constant Matrix: (Units=GPa)
#
#
# Indices 1 2 3 4 5 6 
#
# 1 98.0174 61.0306 89.3273 0.0000 0.0000 0.0000
# 2 61.0306 66.9572 94.5750 0.0000 0.0000 0.0000
# 3 89.3273 94.5750 193.8113 0.0000 0.0000 0.0000
# 4 0.0000 0.0000 0.0000 36.7174 0.0000 0.0000
# 5 0.0000 0.0000 0.0000 0.0000 -13.6632 0.0000
# 6 0.0000 0.0000 0.0000 0.0000 0.0000 23.6479
#
#
#
# Elastic Compliance Matrix: (Units=1/GPa)
#
#
# Indices 1 2 3 4 5 6 
#
# 1 0.023682 -0.019851 -0.001228 0.000000 0.000000 0.000000
# 2 -0.019851 0.064701 -0.022423 0.000000 0.000000 0.000000
# 3 -0.001228 -0.022423 0.016668 0.000000 0.000000 0.000000
# 4 0.000000 0.000000 0.000000 0.027235 0.000000 0.000000
# 5 0.000000 0.000000 0.000000 0.000000 -0.073190 0.000000
# 6 0.000000 0.000000 0.000000 0.000000 0.000000 0.042287
#
#
# Mechanical properties :
#
#
# Convention : Reuss Voigt Hill
#
# Bulk Modulus (GPa) = 55.41456 94.29464 74.85460
# Shear Modulus (GPa) = 25.71998 16.93063 21.32530
#
# Velocity S-wave (km/s) = 3.79937 3.08257 3.45959
# Velocity P-wave (km/s) = 7.09565 8.09890 7.61382
#
# Compressibility (1/GPa) = 0.01804580
#
# Stress axis : x y z
#
# Youngs Moduli (GPa) = 42.22678 15.45583 59.99679
#
# Poissons Ratio (x) = 0.30681 0.07368
# Poissons Ratio (y) = 0.83824 1.34531
# Poissons Ratio (z) = 0.05186 0.34657
#
# Static dielectric constant tensor:
#      x y z
#    x 1.586370 0.000000 0.000000 
#    y 0.000000 1.597070 0.000000 
#    z 0.000000 0.000000 1.586590 
# 
# From -- ./inp_files/43469.got.cif
#   From: 2010.05.17/outbox.cif.g08.bks.cpg/sg67_22_cif.got.tgz:43469.got - 2010.06.03 18:28:57.
