data_PCOD9503483
_publ_section_title
;
Structure prediction by ZEFSAII (Michael W. Deem and Ramdas Pophale) SiO2 
 PCOD9503483
Probable space group: C M M A
;
_chemical_formula_sum "Si O2"
_cell_formula_units_Z 116
_cell_length_a 31.393766
_cell_length_b 17.720413
_cell_length_c 11.368955
_cell_angle_alpha 90.000000
_cell_angle_beta 90.000000
_cell_angle_gamma 90.000000
_cell_volume 6324.669031
_symmetry_space_group_name_H-M "C M M A"
_symmetry_group_IT_number 67
_symmetry_cell_setting 'orthorhombic'
loop_
_space_group_symop_operation_xyz
x,y,z
-x,1/2-y,z
x,-y,-z
-x,1/2+y,-z
-x,-y,-z
x,1/2+y,-z
-x,y,z
x,1/2-y,z
1/2+x,1/2+y,z
1/2-x,-y,z
1/2+x,1/2-y,-z
1/2-x,y,-z
1/2-x,1/2-y,-z
1/2+x,y,-z
1/2-x,1/2+y,z
1/2+x,-y,z
loop_
_atom_site_type_symbol
_atom_site_label
_atom_site_fract_x
_atom_site_fract_y
_atom_site_fract_z
Si Si1 0.376252 0.338467 0.574247
Si Si2 0.115957 0.660811 0.052973
Si Si3 0.295738 0.085669 0.452841
Si Si4 0.950735 0.052875 0.831054
Si Si5 0.750000 0.000000 0.000000
Si Si6 0.119582 0.929091 0.817279
Si Si7 0.814755 0.568233 0.182017
Si Si8 0.951180 0.917411 0.446455
O O1 0.373973 0.250000 0.597988
O O2 0.334503 0.366324 0.504723
O O3 0.380728 0.385164 0.694891
O O4 0.417320 0.359129 0.496153
O O5 0.110568 0.750000 0.051899
O O6 0.073859 0.616911 0.096539
O O7 0.153939 0.634351 0.139115
O O8 0.126837 0.627443 0.924870
O O9 0.250000 0.112493 0.500000
O O10 0.296886 0.083663 0.311568
O O11 0.301336 0.000000 0.500000
O O12 0.948596 0.075825 0.693749
O O13 0.000000 0.044254 0.864067
O O14 0.923914 0.975627 0.840707
O O15 0.721068 0.051071 0.085409
O O16 0.156014 0.992972 0.813376
O O17 0.000000 0.899375 0.479741
O O18 0.941021 0.000000 0.500000
#
# Coordination Sequence:
#
# PCOD9503483 Si02
#       8
#    16  16  16  16   4  16  16  16
#     4  12  24  38  61  92 128 163 197 248 315 370
#     4  11  24  41  58  87 127 160 198 250 306 359
#     4  11  23  40  64  93 123 159 204 253 299 360
#     4  10  21  38  66  91 115 159 210 251 293 358
#     4  12  20  40  68  96 110 148 218 262 288 356
#     4  11  21  41  61  87 122 161 204 249 299 360
#     4  11  22  39  69  89 115 160 204 253 299 353
#     4  10  20  38  63  89 118 155 200 251 299 360
#
# _framework density 18.340882000000001
#
# number of rings (size 3 to 8) (size 9 to 14) (size 15 to 20)
#    0.000    1.103    4.138    4.552    0.000    4.138 
#    0.000    1.724    0.000    2.483    0.000    0.000 
#    0.000    0.000    0.000    0.000    0.000    0.000 
#
# Total GULP energy -324226.205937 kJ/mol
# GULP energy per Si atom -5590.106999 kJ/mol
# Density = 1.829914 g / cm^3
# Si number density = 18.340882 Si / 1000 Ang^3
#
#
#
# Elastic Constant Matrix: (Units=GPa)
#
#
# Indices 1 2 3 4 5 6 
#
# 1 121.1793 54.2803 48.6642 0.0000 0.0000 0.0000
# 2 54.2803 111.6062 42.6932 0.0000 0.0000 0.0000
# 3 48.6642 42.6932 125.0026 0.0000 0.0000 0.0000
# 4 0.0000 0.0000 0.0000 3.4610 0.0000 0.0000
# 5 0.0000 0.0000 0.0000 0.0000 32.7442 0.0000
# 6 0.0000 0.0000 0.0000 0.0000 0.0000 -11.2122
#
#
#
# Elastic Compliance Matrix: (Units=1/GPa)
#
#
# Indices 1 2 3 4 5 6 
#
# 1 0.011413 -0.004430 -0.002930 0.000000 0.000000 0.000000
# 2 -0.004430 0.012026 -0.002383 0.000000 0.000000 0.000000
# 3 -0.002930 -0.002383 0.009954 0.000000 0.000000 0.000000
# 4 0.000000 0.000000 0.000000 0.288933 0.000000 0.000000
# 5 0.000000 0.000000 0.000000 0.000000 0.030540 0.000000
# 6 0.000000 0.000000 0.000000 0.000000 0.000000 -0.089188
#
#
# Mechanical properties :
#
#
# Convention : Reuss Voigt Hill
#
# Bulk Modulus (GPa) = 71.90205 72.11818 72.01011
# Shear Modulus (GPa) = 17.37316 19.14196 18.25756
#
# Velocity S-wave (km/s) = 3.08106 3.23410 3.15851
# Velocity P-wave (km/s) = 7.20732 7.30426 7.25596
#
# Compressibility (1/GPa) = 0.01390781
#
# Stress axis : x y z
#
# Youngs Moduli (GPa) = 87.61673 83.15230 100.45807
#
# Poissons Ratio (x) = 0.36837 0.29437
# Poissons Ratio (y) = 0.38814 0.23937
# Poissons Ratio (z) = 0.25674 0.19813
#
# Static dielectric constant tensor:
#      x y z
#    x 1.634160 0.000000 0.000000 
#    y 0.000000 1.589250 0.000000 
#    z 0.000000 0.000000 1.632330 
# 
# From -- ./inp_files/23966.got.cif
#   From: 2010.05.17/outbox.cif.g08.bks.cpg/sg67_12_cif.got.tgz:23966.got - 2010.06.03 18:28:57.
