data_PCOD9503842
_publ_section_title
;
Structure prediction by ZEFSAII (Michael W. Deem and Ramdas Pophale) SiO2 
 PCOD9503842
Probable space group: C M M A
;
_chemical_formula_sum "Si O2"
_cell_formula_units_Z 72
_cell_length_a 8.519148
_cell_length_b 15.137204
_cell_length_c 29.648386
_cell_angle_alpha 90.000000
_cell_angle_beta 90.000000
_cell_angle_gamma 90.000000
_cell_volume 3823.339672
_symmetry_space_group_name_H-M "C M M A"
_symmetry_group_IT_number 67
_symmetry_cell_setting 'orthorhombic'
loop_
_space_group_symop_operation_xyz
x,y,z
-x,1/2-y,z
x,-y,-z
-x,1/2+y,-z
-x,-y,-z
x,1/2+y,-z
-x,y,z
x,1/2-y,z
1/2+x,1/2+y,z
1/2-x,-y,z
1/2+x,1/2-y,-z
1/2-x,y,-z
1/2-x,1/2-y,-z
1/2+x,y,-z
1/2-x,1/2+y,z
1/2+x,-y,z
loop_
_atom_site_type_symbol
_atom_site_label
_atom_site_fract_x
_atom_site_fract_y
_atom_site_fract_z
Si Si1 0.811320 0.750000 0.311253
Si Si2 0.689151 0.398823 0.382105
Si Si3 0.189723 0.750000 0.789968
Si Si4 0.689254 0.907598 0.145701
Si Si5 0.188060 0.354051 0.047279
Si Si6 0.311937 0.250000 0.550849
O O1 0.762595 0.661517 0.338768
O O2 0.750335 0.750000 0.260618
O O3 0.000000 0.750000 0.310885
O O4 0.500000 0.401422 0.383737
O O5 0.750000 0.500000 0.381672
O O6 0.749931 0.337824 0.423356
O O7 0.241501 0.666995 0.819804
O O8 0.000000 0.750000 0.788532
O O9 0.500000 0.904887 0.143776
O O10 0.747197 0.893799 0.094266
O O11 0.750000 0.000000 0.162600
O O12 0.229186 0.250000 0.048873
O O13 0.000000 0.360836 0.046551
O O14 0.250000 0.390905 0.000000
O O15 0.500000 0.250000 0.551953
O O16 0.250000 0.250000 0.500000
#
# Coordination Sequence:
#
# PCOD9503842 Si02
#       6
#     8  16   8  16  16   8
#     4   9  21  39  59  84 115 146 185 239 291 340
#     4  10  21  39  61  88 121 157 199 248 296 346
#     4  10  21  39  59  77 106 145 181 220 276 337
#     4  10  21  37  55  77 105 138 174 217 266 323
#     4   9  17  32  53  74 100 133 170 210 257 314
#     4  11  22  38  60  89 126 167 208 249 295 345
#
# _framework density 18.831703999999998
#
# number of rings (size 3 to 8) (size 9 to 14) (size 15 to 20)
#    0.000    2.222    1.111    2.333    0.000    6.222 
#    0.000    8.889    0.000    0.000    0.000    0.000 
#    0.000    0.000    0.000    0.000    0.000    0.000 
#
# Total GULP energy -200824.502460 kJ/mol
# GULP energy per Si atom -5578.458402 kJ/mol
# Density = 1.878884 g / cm^3
# Si number density = 18.831704 Si / 1000 Ang^3
#
#
#
# Elastic Constant Matrix: (Units=GPa)
#
#
# Indices 1 2 3 4 5 6 
#
# 1 35.8852 42.5916 33.8538 0.0000 0.0000 0.0000
# 2 42.5916 189.7688 103.1708 0.0000 0.0000 0.0000
# 3 33.8538 103.1708 183.2605 0.0000 0.0000 0.0000
# 4 0.0000 0.0000 0.0000 29.2412 0.0000 0.0000
# 5 0.0000 0.0000 0.0000 0.0000 34.5167 0.0000
# 6 0.0000 0.0000 0.0000 0.0000 0.0000 27.9802
#
#
#
# Elastic Compliance Matrix: (Units=1/GPa)
#
#
# Indices 1 2 3 4 5 6 
#
# 1 0.039330 -0.007028 -0.003309 0.000000 0.000000 0.000000
# 2 -0.007028 0.008850 -0.003684 0.000000 0.000000 0.000000
# 3 -0.003309 -0.003684 0.008142 0.000000 0.000000 0.000000
# 4 0.000000 0.000000 0.000000 0.034198 0.000000 0.000000
# 5 0.000000 0.000000 0.000000 0.000000 0.028972 0.000000
# 6 0.000000 0.000000 0.000000 0.000000 0.000000 0.035740
#
#
# Mechanical properties :
#
#
# Convention : Reuss Voigt Hill
#
# Bulk Modulus (GPa) = 35.36100 85.34966 60.35533
# Shear Modulus (GPa) = 25.94718 33.63416 29.79067
#
# Velocity S-wave (km/s) = 3.71596 4.23074 3.98168
# Velocity P-wave (km/s) = 6.10158 8.32384 7.29779
#
# Compressibility (1/GPa) = 0.02827975
#
# Stress axis : x y z
#
# Youngs Moduli (GPa) = 25.42600 112.99702 122.82267
#
# Poissons Ratio (x) = 0.79419 0.40637
# Poissons Ratio (y) = 0.17870 0.45246
# Poissons Ratio (z) = 0.08413 0.41626
#
# Static dielectric constant tensor:
#      x y z
#    x 1.647640 0.000000 0.000000 
#    y 0.000000 1.657930 0.000000 
#    z 0.000000 0.000000 1.644990 
# 
# From -- ./inp_files/43158.got.cif
#   From: 2010.05.17/outbox.cif.g08.bks.cpg/sg67_22_cif.got.tgz:43158.got - 2010.06.03 18:28:57.
