data_PCOD9503667
_publ_section_title
;
Structure prediction by ZEFSAII (Michael W. Deem and Ramdas Pophale) SiO2 
 PCOD9503667
Probable space group: C M M A
;
_chemical_formula_sum "Si O2"
_cell_formula_units_Z 112
_cell_length_a 11.363351
_cell_length_b 19.342277
_cell_length_c 27.117856
_cell_angle_alpha 90.000000
_cell_angle_beta 90.000000
_cell_angle_gamma 90.000000
_cell_volume 5960.317166
_symmetry_space_group_name_H-M "C M M A"
_symmetry_group_IT_number 67
_symmetry_cell_setting 'orthorhombic'
loop_
_space_group_symop_operation_xyz
x,y,z
-x,1/2-y,z
x,-y,-z
-x,1/2+y,-z
-x,-y,-z
x,1/2+y,-z
-x,y,z
x,1/2-y,z
1/2+x,1/2+y,z
1/2-x,-y,z
1/2+x,1/2-y,-z
1/2-x,y,-z
1/2-x,1/2-y,-z
1/2+x,y,-z
1/2-x,1/2+y,z
1/2+x,-y,z
loop_
_atom_site_type_symbol
_atom_site_label
_atom_site_fract_x
_atom_site_fract_y
_atom_site_fract_z
Si Si1 0.638486 0.326065 0.165367
Si Si2 0.698852 0.431125 0.888592
Si Si3 0.631055 0.333823 0.355151
Si Si4 0.713636 0.170166 0.736231
Si Si5 0.634912 0.165834 0.469123
Si Si6 0.374762 0.964424 0.220150
Si Si7 0.872128 0.331087 0.028518
O O1 0.500000 0.331473 0.165724
O O2 0.672931 0.250000 0.145980
O O3 0.695493 0.384746 0.132677
O O4 0.687063 0.330006 0.220986
O O5 0.750000 0.500000 0.913277
O O6 0.631976 0.454491 0.838966
O O7 0.629566 0.382148 0.925207
O O8 0.500000 0.357555 0.340546
O O9 0.628710 0.250000 0.354783
O O10 0.728798 0.352243 0.315364
O O11 0.651771 0.354427 0.411783
O O12 0.670317 0.250000 0.732842
O O13 0.627148 0.111115 0.755017
O O14 0.500000 0.144758 0.483936
O O15 0.634351 0.250000 0.471192
O O16 0.750000 0.142772 0.500000
O O17 0.500000 0.999676 0.232255
O O18 0.250000 0.000000 0.233971
O O19 0.867238 0.250000 0.042809
O O20 0.000000 0.340329 0.002200
O O21 0.750000 0.345181 0.000000
#
# Coordination Sequence:
#
# PCOD9503667 Si02
#       7
#    16  16  16  16  16  16  16
#     4   9  17  29  47  73 104 136 169 205 246 295
#     4  10  21  35  55  81 107 135 169 208 251 298
#     4   8  13  22  38  61  90 125 165 209 256 306
#     4   9  17  29  47  72 100 131 170 214 256 298
#     4   8  13  21  33  51  79 118 162 204 249 303
#     4  10  22  38  55  76 106 142 175 207 247 298
#     4  10  22  41  62  82 106 137 172 209 251 300
#
# _framework density 18.790946999999999
#
# number of rings (size 3 to 8) (size 9 to 14) (size 15 to 20)
#    0.000    2.857    0.000    2.143    0.000    9.714 
#    0.000    2.857    0.000    2.571    0.000    0.000 
#    0.000    0.571    0.000    4.429    0.000    4.571 
#
# Total GULP energy -311739.856826 kJ/mol
# GULP energy per Si atom -5566.783158 kJ/mol
# Density = 1.874818 g / cm^3
# Si number density = 18.790947 Si / 1000 Ang^3
#
#
#
# Elastic Constant Matrix: (Units=GPa)
#
#
# Indices 1 2 3 4 5 6 
#
# 1 138.5735 37.0770 39.1902 0.0000 0.0000 0.0000
# 2 37.0770 58.5262 18.8738 0.0000 0.0000 0.0000
# 3 39.1902 18.8738 41.7788 0.0000 0.0000 0.0000
# 4 0.0000 0.0000 0.0000 5.9080 0.0000 0.0000
# 5 0.0000 0.0000 0.0000 0.0000 227.3125 0.0000
# 6 0.0000 0.0000 0.0000 0.0000 0.0000 0.2924
#
#
#
# Elastic Compliance Matrix: (Units=1/GPa)
#
#
# Indices 1 2 3 4 5 6 
#
# 1 0.010604 -0.004108 -0.008091 0.000000 0.000000 0.000000
# 2 -0.004108 0.021592 -0.005900 0.000000 0.000000 0.000000
# 3 -0.008091 -0.005900 0.034191 0.000000 0.000000 0.000000
# 4 0.000000 0.000000 0.000000 0.169261 0.000000 0.000000
# 5 0.000000 0.000000 0.000000 0.000000 0.004399 0.000000
# 6 0.000000 0.000000 0.000000 0.000000 0.000000 3.419774
#
#
# Mechanical properties :
#
#
# Convention : Reuss Voigt Hill
#
# Bulk Modulus (GPa) = 33.12673 47.68450 40.40561
# Shear Modulus (GPa) = 1.34913 56.28508 28.81711
#
# Velocity S-wave (km/s) = 0.84825 5.47890 3.92032
# Velocity P-wave (km/s) = 4.31587 8.09048 6.48393
#
# Compressibility (1/GPa) = 0.03018710
#
# Stress axis : x y z
#
# Youngs Moduli (GPa) = 94.30545 46.31370 29.24780
#
# Poissons Ratio (x) = 0.19028 0.23664
# Poissons Ratio (y) = 0.38745 0.17257
# Poissons Ratio (z) = 0.76301 0.27327
#
# Static dielectric constant tensor:
#      x y z
#    x 1.700000 0.000000 0.000000 
#    y 0.000000 1.671540 0.000000 
#    z 0.000000 0.000000 1.642650 
# 
# From -- ./inp_files/41584.got.cif
#   From: 2010.05.17/outbox.cif.g08.bks.cpg/sg67_21_cif.got.tgz:41584.got - 2010.06.03 18:28:57.
