data_PCOD9503621
_publ_section_title
;
Structure prediction by ZEFSAII (Michael W. Deem and Ramdas Pophale) SiO2 
 PCOD9503621
Probable space group: C M M A
;
_chemical_formula_sum "Si O2"
_cell_formula_units_Z 104
_cell_length_a 21.871144
_cell_length_b 29.705951
_cell_length_c 8.775552
_cell_angle_alpha 90.000000
_cell_angle_beta 90.000000
_cell_angle_gamma 90.000000
_cell_volume 5701.503619
_symmetry_space_group_name_H-M "C M M A"
_symmetry_group_IT_number 67
_symmetry_cell_setting 'orthorhombic'
loop_
_space_group_symop_operation_xyz
x,y,z
-x,1/2-y,z
x,-y,-z
-x,1/2+y,-z
-x,-y,-z
x,1/2+y,-z
-x,y,z
x,1/2-y,z
1/2+x,1/2+y,z
1/2-x,-y,z
1/2+x,1/2-y,-z
1/2-x,y,-z
1/2-x,1/2-y,-z
1/2+x,y,-z
1/2-x,1/2+y,z
1/2+x,-y,z
loop_
_atom_site_type_symbol
_atom_site_label
_atom_site_fract_x
_atom_site_fract_y
_atom_site_fract_z
Si Si1 0.570940 0.383940 0.018850
Si Si2 0.831633 0.380157 0.245856
Si Si3 0.313494 0.481272 0.670530
Si Si4 0.676559 0.198265 0.516418
Si Si5 0.568988 0.522514 0.833903
Si Si6 0.367547 0.199592 0.171324
Si Si7 0.750000 0.167039 0.000000
O O1 0.500000 0.385886 0.978676
O O2 0.583205 0.425226 0.133589
O O3 0.588574 0.338039 0.103178
O O4 0.611612 0.388071 0.867652
O O5 0.814261 0.427187 0.323580
O O6 0.843656 0.340078 0.365607
O O7 0.777725 0.363338 0.134387
O O8 0.314412 0.500000 0.500000
O O9 0.250000 0.500000 0.742542
O O10 0.375197 0.499610 0.747357
O O11 0.663369 0.250000 0.566816
O O12 0.750000 0.194679 0.500000
O O13 0.647975 0.191862 0.348933
O O14 0.500000 0.518188 0.766628
O O15 0.566378 0.500000 0.000000
O O16 0.391916 0.250000 0.154685
O O17 0.304620 0.195229 0.074991
#
# Coordination Sequence:
#
# PCOD9503621 Si02
#       7
#    16  16  16  16  16  16   8
#     4  10  23  42  63  88 115 156 207 257 299 348
#     4  11  23  38  60  88 120 160 200 247 302 359
#     4  11  27  38  57  93 131 162 195 250 311 363
#     4  10  21  37  59  87 124 161 195 240 298 366
#     4  10  21  42  65  85 118 162 207 247 295 366
#     4  10  21  36  60  89 121 156 196 244 301 364
#     4  10  21  34  59  90 118 154 197 244 295 360
#
# _framework density 18.240801999999999
#
# number of rings (size 3 to 8) (size 9 to 14) (size 15 to 20)
#    0.000    1.692    3.077    0.231    8.615    3.385 
#    0.000    0.769    0.000    0.923    0.000    0.000 
#    0.000    0.000    0.000    0.000    0.000    0.000 
#
# Total GULP energy -290206.156513 kJ/mol
# GULP energy per Si atom -5580.887625 kJ/mol
# Density = 1.819929 g / cm^3
# Si number density = 18.240802 Si / 1000 Ang^3
#
#
#
# Elastic Constant Matrix: (Units=GPa)
#
#
# Indices 1 2 3 4 5 6 
#
# 1 55.0661 24.2721 9.9167 0.0000 0.0000 0.0000
# 2 24.2721 138.5922 44.5581 0.0000 0.0000 0.0000
# 3 9.9167 44.5581 60.7972 0.0000 0.0000 0.0000
# 4 0.0000 0.0000 0.0000 5.6543 0.0000 0.0000
# 5 0.0000 0.0000 0.0000 0.0000 -14.4782 0.0000
# 6 0.0000 0.0000 0.0000 0.0000 0.0000 15.3231
#
#
#
# Elastic Compliance Matrix: (Units=1/GPa)
#
#
# Indices 1 2 3 4 5 6 
#
# 1 0.019716 -0.003165 -0.000897 0.000000 0.000000 0.000000
# 2 -0.003165 0.009948 -0.006774 0.000000 0.000000 0.000000
# 3 -0.000897 -0.006774 0.021559 0.000000 0.000000 0.000000
# 4 0.000000 0.000000 0.000000 0.176856 0.000000 0.000000
# 5 0.000000 0.000000 0.000000 0.000000 -0.069069 0.000000
# 6 0.000000 0.000000 0.000000 0.000000 0.000000 0.065261
#
#
# Mechanical properties :
#
#
# Convention : Reuss Voigt Hill
#
# Bulk Modulus (GPa) = 33.83867 45.77217 39.80542
# Shear Modulus (GPa) = 19.54705 13.01375 16.28040
#
# Velocity S-wave (km/s) = 3.27710 2.67393 2.99076
# Velocity P-wave (km/s) = 5.73677 5.88906 5.81341
#
# Compressibility (1/GPa) = 0.02955199
#
# Stress axis : x y z
#
# Youngs Moduli (GPa) = 50.71915 100.52596 46.38368
#
# Poissons Ratio (x) = 0.31814 0.04158
# Poissons Ratio (y) = 0.16051 0.31422
# Poissons Ratio (z) = 0.04547 0.68101
#
# Static dielectric constant tensor:
#      x y z
#    x 1.631090 0.000000 0.000000 
#    y 0.000000 1.642520 0.000000 
#    z 0.000000 0.000000 1.606670 
# 
# From -- ./inp_files/12820.got.cif
#   From: 2010.05.17/outbox.cif.g08.bks.cpg/sg67_7_cif.got.tgz:12820.got - 2010.06.03 18:28:57.
