data_PCOD9503960
_publ_section_title
;
Structure prediction by ZEFSAII (Michael W. Deem and Ramdas Pophale) SiO2 
 PCOD9503960
Probable space group: C M M A
;
_chemical_formula_sum "Si O2"
_cell_formula_units_Z 104
_cell_length_a 9.181133
_cell_length_b 29.063770
_cell_length_c 20.813255
_cell_angle_alpha 90.000000
_cell_angle_beta 90.000000
_cell_angle_gamma 90.000000
_cell_volume 5553.774369
_symmetry_space_group_name_H-M "C M M A"
_symmetry_group_IT_number 67
_symmetry_cell_setting 'orthorhombic'
loop_
_space_group_symop_operation_xyz
x,y,z
-x,1/2-y,z
x,-y,-z
-x,1/2+y,-z
-x,-y,-z
x,1/2+y,-z
-x,y,z
x,1/2-y,z
1/2+x,1/2+y,z
1/2-x,-y,z
1/2+x,1/2-y,-z
1/2-x,y,-z
1/2-x,1/2-y,-z
1/2+x,y,-z
1/2-x,1/2+y,z
1/2+x,-y,z
loop_
_atom_site_type_symbol
_atom_site_label
_atom_site_fract_x
_atom_site_fract_y
_atom_site_fract_z
Si Si1 0.000000 0.032999 0.414671
Si Si2 0.327549 0.194958 0.067879
Si Si3 0.500000 0.427314 0.454110
Si Si4 0.322399 0.144314 0.813608
Si Si5 0.166798 0.451195 0.780863
Si Si6 0.742309 0.579178 0.642706
Si Si7 0.822028 0.750000 0.571168
Si Si8 0.165051 0.821938 0.678240
O O1 0.143295 0.040545 0.374876
O O2 0.000000 0.072511 0.469668
O O3 0.000000 0.981776 0.439965
O O4 0.500000 0.183368 0.066559
O O5 0.315912 0.250000 0.078415
O O6 0.243049 0.168392 0.123896
O O7 0.250000 0.184787 0.000000
O O8 0.640283 0.409325 0.417505
O O9 0.500000 0.142651 0.813428
O O10 0.257198 0.092511 0.808489
O O11 0.272531 0.174603 0.750737
O O12 0.250000 0.500000 0.789184
O O13 0.159323 0.438280 0.705208
O O14 0.000000 0.453577 0.805222
O O15 0.829876 0.624921 0.659014
O O16 0.750000 0.750000 0.500000
O O17 0.776479 0.707400 0.618050
O O18 0.000000 0.750000 0.562613
O O19 0.000000 0.805332 0.685864
#
# Coordination Sequence:
#
# PCOD9503960 Si02
#       8
#     8  16   8  16  16  16   8  16
#     4  11  22  34  50  67 107 133 180 222 295 363
#     4  10  21  38  62  96 135 172 208 248 295 352
#     4  11  22  34  48  77  95 139 174 232 287 359
#     4  10  21  37  62  92 122 162 205 249 303 359
#     4  11  22  36  58  84 116 153 196 249 298 354
#     4  11  21  36  53  75 102 139 182 233 293 353
#     4  10  22  42  60  80 105 142 191 244 303 362
#     4   9  20  39  59  79 107 143 190 238 293 359
#
# _framework density 18.726004
#
# number of rings (size 3 to 8) (size 9 to 14) (size 15 to 20)
#    0.000    1.692    1.538    3.231    3.231    3.385 
#    1.385    0.000    0.000    0.462    0.000    3.231 
#    0.000    0.000    0.000    0.000    0.000    0.000 
#
# Total GULP energy -289753.753170 kJ/mol
# GULP energy per Si atom -5572.187561 kJ/mol
# Density = 1.868338 g / cm^3
# Si number density = 18.726004 Si / 1000 Ang^3
#
#
#
# Elastic Constant Matrix: (Units=GPa)
#
#
# Indices 1 2 3 4 5 6 
#
# 1 115.1328 37.3090 50.8605 0.0000 0.0000 0.0000
# 2 37.3090 81.4809 60.7926 0.0000 0.0000 0.0000
# 3 50.8605 60.7926 136.0365 0.0000 0.0000 0.0000
# 4 0.0000 0.0000 0.0000 28.1257 0.0000 0.0000
# 5 0.0000 0.0000 0.0000 0.0000 27.4326 0.0000
# 6 0.0000 0.0000 0.0000 0.0000 0.0000 25.5237
#
#
#
# Elastic Compliance Matrix: (Units=1/GPa)
#
#
# Indices 1 2 3 4 5 6 
#
# 1 0.010846 -0.002911 -0.002754 0.000000 0.000000 0.000000
# 2 -0.002911 0.019193 -0.007489 0.000000 0.000000 0.000000
# 3 -0.002754 -0.007489 0.011727 0.000000 0.000000 0.000000
# 4 0.000000 0.000000 0.000000 0.035555 0.000000 0.000000
# 5 0.000000 0.000000 0.000000 0.000000 0.036453 0.000000
# 6 0.000000 0.000000 0.000000 0.000000 0.000000 0.039179
#
#
# Mechanical properties :
#
#
# Convention : Reuss Voigt Hill
#
# Bulk Modulus (GPa) = 64.69095 70.06381 67.37738
# Shear Modulus (GPa) = 27.11306 28.46230 27.78768
#
# Velocity S-wave (km/s) = 3.80923 3.90286 3.85633
# Velocity P-wave (km/s) = 7.34630 7.60304 7.47577
#
# Compressibility (1/GPa) = 0.01545811
#
# Stress axis : x y z
#
# Youngs Moduli (GPa) = 92.20338 52.10196 85.27271
#
# Poissons Ratio (x) = 0.15169 0.23482
# Poissons Ratio (y) = 0.26845 0.63857
# Poissons Ratio (z) = 0.25391 0.39017
#
# Static dielectric constant tensor:
#      x y z
#    x 1.665500 0.000000 0.000000 
#    y 0.000000 1.649380 0.000000 
#    z 0.000000 0.000000 1.678700 
# 
# From -- ./inp_files/37593.got.cif
#   From: 2010.05.17/outbox.cif.g08.bks.cpg/sg67_19_cif.got.tgz:37593.got - 2010.06.03 18:28:57.
