data_PCOD9503154
_publ_section_title
;
Structure prediction by ZEFSAII (Michael W. Deem and Ramdas Pophale) SiO2 
 PCOD9503154
Probable space group: C M M A
;
_chemical_formula_sum "Si O2"
_cell_formula_units_Z 96
_cell_length_a 17.806546
_cell_length_b 14.005971
_cell_length_c 20.905189
_cell_angle_alpha 90.000000
_cell_angle_beta 90.000000
_cell_angle_gamma 90.000000
_cell_volume 5213.711634
_symmetry_space_group_name_H-M "C M M A"
_symmetry_group_IT_number 67
_symmetry_cell_setting 'orthorhombic'
loop_
_space_group_symop_operation_xyz
x,y,z
-x,1/2-y,z
x,-y,-z
-x,1/2+y,-z
-x,-y,-z
x,1/2+y,-z
-x,y,z
x,1/2-y,z
1/2+x,1/2+y,z
1/2-x,-y,z
1/2+x,1/2-y,-z
1/2-x,y,-z
1/2-x,1/2-y,-z
1/2+x,y,-z
1/2-x,1/2+y,z
1/2+x,-y,z
loop_
_atom_site_type_symbol
_atom_site_label
_atom_site_fract_x
_atom_site_fract_y
_atom_site_fract_z
Si Si1 0.340795 0.856963 0.011087
Si Si2 0.588966 0.358487 0.599818
Si Si3 0.165591 0.028985 0.663529
Si Si4 0.409529 0.137328 0.220748
Si Si5 0.167354 0.360873 0.530017
Si Si6 0.840498 0.488986 0.891864
O O1 0.369360 0.750000 0.008298
O O2 0.363540 0.919856 0.950605
O O3 0.250000 0.855320 0.000000
O O4 0.360781 0.907745 0.078063
O O5 0.500000 0.357401 0.604452
O O6 0.618443 0.250000 0.608150
O O7 0.621733 0.430412 0.651652
O O8 0.612266 0.388324 0.527859
O O9 0.126180 0.099724 0.713180
O O10 0.165633 0.079154 0.594248
O O11 0.250000 0.000000 0.682688
O O12 0.500000 0.131798 0.222659
O O13 0.389821 0.250000 0.208537
O O14 0.377433 0.062061 0.168678
O O15 0.152755 0.250000 0.545654
O O16 0.250000 0.369258 0.500000
O O17 0.750000 0.500000 0.882763
#
# Coordination Sequence:
#
# PCOD9503154 Si02
#       6
#    16  16  16  16  16  16
#     4   8  14  27  54  90 122 149 185 236 288 334
#     4  10  22  38  57  83 114 146 179 225 290 353
#     4  12  23  37  61  85 109 144 192 241 288 346
#     4  11  25  42  57  78 114 158 199 240 290 348
#     4  10  20  36  58  86 115 140 176 229 289 349
#     4   9  17  33  57  86 116 151 194 240 283 332
#
# _framework density 18.412986
#
# number of rings (size 3 to 8) (size 9 to 14) (size 15 to 20)
#    0.000    2.000    1.667    3.500    0.000    3.333 
#    0.000    4.167    0.000    2.500    0.000    0.000 
#    0.000    0.000    0.000    0.000    0.000    0.000 
#
# Total GULP energy -267510.926422 kJ/mol
# GULP energy per Si atom -5573.144300 kJ/mol
# Density = 1.837108 g / cm^3
# Si number density = 18.412986 Si / 1000 Ang^3
#
#
#
# Elastic Constant Matrix: (Units=GPa)
#
#
# Indices 1 2 3 4 5 6 
#
# 1 61.6742 31.7057 22.4437 0.0000 0.0000 0.0000
# 2 31.7057 114.6298 40.9055 0.0000 0.0000 0.0000
# 3 22.4437 40.9055 71.2045 0.0000 0.0000 0.0000
# 4 0.0000 0.0000 0.0000 24.1336 0.0000 0.0000
# 5 0.0000 0.0000 0.0000 0.0000 7.6044 0.0000
# 6 0.0000 0.0000 0.0000 0.0000 0.0000 23.2475
#
#
#
# Elastic Compliance Matrix: (Units=1/GPa)
#
#
# Indices 1 2 3 4 5 6 
#
# 1 0.019717 -0.004070 -0.003877 0.000000 0.000000 0.000000
# 2 -0.004070 0.011814 -0.005504 0.000000 0.000000 0.000000
# 3 -0.003877 -0.005504 0.018428 0.000000 0.000000 0.000000
# 4 0.000000 0.000000 0.000000 0.041436 0.000000 0.000000
# 5 0.000000 0.000000 0.000000 0.000000 0.131503 0.000000
# 6 0.000000 0.000000 0.000000 0.000000 0.000000 0.043015
#
#
# Mechanical properties :
#
#
# Convention : Reuss Voigt Hill
#
# Bulk Modulus (GPa) = 43.36991 48.62425 45.99708
# Shear Modulus (GPa) = 16.63895 21.16067 18.89981
#
# Velocity S-wave (km/s) = 3.00934 3.39370 3.20728
# Velocity P-wave (km/s) = 5.97327 6.46693 6.22500
#
# Compressibility (1/GPa) = 0.02305746
#
# Stress axis : x y z
#
# Youngs Moduli (GPa) = 50.71646 84.64876 54.26610
#
# Poissons Ratio (x) = 0.34455 0.21037
# Poissons Ratio (y) = 0.20643 0.29866
# Poissons Ratio (z) = 0.19661 0.46588
#
# Static dielectric constant tensor:
#      x y z
#    x 1.609860 0.000000 0.000000 
#    y 0.000000 1.669940 0.000000 
#    z 0.000000 0.000000 1.627150 
# 
# From -- ./inp_files/38464.got.cif
#   From: 2010.05.17/outbox.cif.g08.bks.cpg/sg67_20_cif.got.tgz:38464.got - 2010.06.03 18:28:57.
