data_PCOD9503567
_publ_section_title
;
Structure prediction by ZEFSAII (Michael W. Deem and Ramdas Pophale) SiO2 
 PCOD9503567
Probable space group: C M M A
;
_chemical_formula_sum "Si O2"
_cell_formula_units_Z 92
_cell_length_a 22.834772
_cell_length_b 15.093309
_cell_length_c 13.053730
_cell_angle_alpha 90.000000
_cell_angle_beta 90.000000
_cell_angle_gamma 90.000000
_cell_volume 4498.997673
_symmetry_space_group_name_H-M "C M M A"
_symmetry_group_IT_number 67
_symmetry_cell_setting 'orthorhombic'
loop_
_space_group_symop_operation_xyz
x,y,z
-x,1/2-y,z
x,-y,-z
-x,1/2+y,-z
-x,-y,-z
x,1/2+y,-z
-x,y,z
x,1/2-y,z
1/2+x,1/2+y,z
1/2-x,-y,z
1/2+x,1/2-y,-z
1/2-x,y,-z
1/2-x,1/2-y,-z
1/2+x,y,-z
1/2-x,1/2+y,z
1/2+x,-y,z
loop_
_atom_site_type_symbol
_atom_site_label
_atom_site_fract_x
_atom_site_fract_y
_atom_site_fract_z
Si Si1 0.294356 0.851374 0.595760
Si Si2 0.750000 0.000000 0.249823
Si Si3 0.566610 0.750000 0.925784
Si Si4 0.596934 0.595776 0.465110
Si Si5 0.368443 0.427540 0.760838
Si Si6 0.432898 0.750000 0.171093
Si Si7 0.570378 0.056429 0.099829
Si Si8 0.000000 0.250000 0.431885
O O1 0.289351 0.750000 0.632646
O O2 0.250000 0.861593 0.500000
O O3 0.277946 0.922748 0.680682
O O4 0.358762 0.869776 0.551725
O O5 0.804903 0.046759 0.194770
O O6 0.500000 0.750000 0.882911
O O7 0.594497 0.843731 0.897117
O O8 0.561496 0.750000 0.048890
O O9 0.572756 0.500000 0.500000
O O10 0.633987 0.578265 0.361441
O O11 0.550638 0.671376 0.439019
O O12 0.397087 0.336185 0.797567
O O13 0.412157 0.503165 0.799913
O O14 0.500000 0.750000 0.217608
O O15 0.500000 0.062691 0.090795
O O16 0.589937 0.000000 0.000000
#
# Coordination Sequence:
#
# PCOD9503567 Si02
#       8
#    16   8   8  16  16   8  16   4
#     4  11  21  41  69  89 118 170 230 278 311 373
#     4  12  25  44  65  96 130 178 239 270 331 392
#     4   9  18  39  70  94 123 170 215 266 323 404
#     4  12  24  44  64  92 135 179 217 273 337 397
#     4  12  25  38  66 100 133 172 221 283 329 397
#     4  11  23  40  70 107 130 160 223 289 346 394
#     4  10  20  40  66  96 131 170 212 269 339 404
#     4  12  28  42  58  98 140 176 216 276 356 396
#
# _framework density 20.449000000000002
#
# number of rings (size 3 to 8) (size 9 to 14) (size 15 to 20)
#    0.000    0.870    6.087    1.565    4.870    0.000 
#    1.565    1.304    1.913    1.043    0.000    0.000 
#    0.000    0.000    0.000    0.000    0.000    0.000 
#
# Total GULP energy -256415.200547 kJ/mol
# GULP energy per Si atom -5574.243490 kJ/mol
# Density = 2.040246 g / cm^3
# Si number density = 20.449000 Si / 1000 Ang^3
#
#
#
# Elastic Constant Matrix: (Units=GPa)
#
#
# Indices 1 2 3 4 5 6 
#
# 1 79.5751 41.8328 -10.0419 0.0000 0.0000 0.0000
# 2 41.8328 185.6070 15.3654 0.0000 0.0000 0.0000
# 3 -10.0419 15.3654 14.6592 0.0000 0.0000 0.0000
# 4 0.0000 0.0000 0.0000 48.7048 0.0000 0.0000
# 5 0.0000 0.0000 0.0000 0.0000 13.9839 0.0000
# 6 0.0000 0.0000 0.0000 0.0000 0.0000 35.0342
#
#
#
# Elastic Compliance Matrix: (Units=1/GPa)
#
#
# Indices 1 2 3 4 5 6 
#
# 1 0.017692 -0.005465 0.017848 0.000000 0.000000 0.000000
# 2 -0.005465 0.007588 -0.011697 0.000000 0.000000 0.000000
# 3 0.017848 -0.011697 0.092703 0.000000 0.000000 0.000000
# 4 0.000000 0.000000 0.000000 0.020532 0.000000 0.000000
# 5 0.000000 0.000000 0.000000 0.000000 0.071511 0.000000
# 6 0.000000 0.000000 0.000000 0.000000 0.000000 0.028544
#
#
# Mechanical properties :
#
#
# Convention : Reuss Voigt Hill
#
# Bulk Modulus (GPa) = 8.37840 41.57265 24.97552
# Shear Modulus (GPa) = 18.05167 35.05692 26.55430
#
# Velocity S-wave (km/s) = 2.97436 4.14497 3.60747
# Velocity P-wave (km/s) = 3.98771 6.57889 5.43984
#
# Compressibility (1/GPa) = 0.11935459
#
# Stress axis : x y z
#
# Youngs Moduli (GPa) = 56.52275 131.79074 10.78710
#
# Poissons Ratio (x) = 0.72024 -0.19253
# Poissons Ratio (y) = 0.30890 0.12618
# Poissons Ratio (z) = -1.00880 1.54156
#
# Static dielectric constant tensor:
#      x y z
#    x 1.750800 0.000000 0.000000 
#    y 0.000000 1.736370 0.000000 
#    z 0.000000 0.000000 1.770080 
# 
# From -- ./inp_files/29390.got.cif
#   From: 2010.05.17/outbox.cif.g08.bks.cpg/sg67_15_cif.got.tgz:29390.got - 2010.06.03 18:28:57.
