data_PCOD9503587
_publ_section_title
;
Structure prediction by ZEFSAII (Michael W. Deem and Ramdas Pophale) SiO2 
 PCOD9503587
Probable space group: C M M A
;
_chemical_formula_sum "Si O2"
_cell_formula_units_Z 68
_cell_length_a 19.644429
_cell_length_b 9.589987
_cell_length_c 18.983770
_cell_angle_alpha 90.000000
_cell_angle_beta 90.000000
_cell_angle_gamma 90.000000
_cell_volume 3576.348989
_symmetry_space_group_name_H-M "C M M A"
_symmetry_group_IT_number 67
_symmetry_cell_setting 'orthorhombic'
loop_
_space_group_symop_operation_xyz
x,y,z
-x,1/2-y,z
x,-y,-z
-x,1/2+y,-z
-x,-y,-z
x,1/2+y,-z
-x,y,z
x,1/2-y,z
1/2+x,1/2+y,z
1/2-x,-y,z
1/2+x,1/2-y,-z
1/2-x,y,-z
1/2-x,1/2-y,-z
1/2+x,y,-z
1/2-x,1/2+y,z
1/2+x,-y,z
loop_
_atom_site_type_symbol
_atom_site_label
_atom_site_fract_x
_atom_site_fract_y
_atom_site_fract_z
Si Si1 0.581692 0.250000 0.576262
Si Si2 0.181903 0.417760 0.803677
Si Si3 0.579336 0.084820 0.069080
Si Si4 0.626974 0.533904 0.649596
Si Si5 0.500000 0.750000 0.650521
Si Si6 0.815489 0.250000 0.549292
O O1 0.500000 0.250000 0.568605
O O2 0.607213 0.385983 0.617341
O O3 0.617387 0.250000 0.500009
O O4 0.192363 0.250000 0.799091
O O5 0.250000 0.500000 0.822845
O O6 0.125131 0.444028 0.863106
O O7 0.156729 0.471172 0.727928
O O8 0.500000 0.051580 0.083601
O O9 0.583728 0.250000 0.054373
O O10 0.600780 0.000000 0.000000
O O11 0.559825 0.629511 0.651645
O O12 0.679664 0.614822 0.598832
O O13 0.750000 0.250000 0.500000
#
# Coordination Sequence:
#
# PCOD9503587 Si02
#       6
#     8  16  16  16   4   8
#     4  12  27  41  65 100 128 160 215 282 335 384
#     4  11  25  42  66  93 131 176 213 266 318 388
#     4   9  20  40  68  99 129 167 213 260 316 382
#     4  11  25  43  68  93 130 168 223 265 331 394
#     4  10  20  44  70  90 120 174 212 272 320 394
#     4  11  27  46  68  91 126 181 219 270 333 398
#
# _framework density 19.013804
#
# number of rings (size 3 to 8) (size 9 to 14) (size 15 to 20)
#    0.000    1.412    3.529    0.706    9.882    3.294 
#    0.000    2.353    0.000    0.000    0.000    0.000 
#    0.000    0.000    0.000    0.000    0.000    0.000 
#
# Total GULP energy -189573.974717 kJ/mol
# GULP energy per Si atom -5575.705139 kJ/mol
# Density = 1.897053 g / cm^3
# Si number density = 19.013804 Si / 1000 Ang^3
#
#
#
# Elastic Constant Matrix: (Units=GPa)
#
#
# Indices 1 2 3 4 5 6 
#
# 1 88.4335 30.4945 64.1854 0.0000 0.0000 0.0000
# 2 30.4945 88.0323 56.0155 0.0000 0.0000 0.0000
# 3 64.1854 56.0155 153.5729 0.0000 0.0000 0.0000
# 4 0.0000 0.0000 0.0000 37.7460 0.0000 0.0000
# 5 0.0000 0.0000 0.0000 0.0000 10.8828 0.0000
# 6 0.0000 0.0000 0.0000 0.0000 0.0000 18.3413
#
#
#
# Elastic Compliance Matrix: (Units=1/GPa)
#
#
# Indices 1 2 3 4 5 6 
#
# 1 0.016430 -0.001721 -0.006239 0.000000 0.000000 0.000000
# 2 -0.001721 0.014973 -0.004742 0.000000 0.000000 0.000000
# 3 -0.006239 -0.004742 0.010849 0.000000 0.000000 0.000000
# 4 0.000000 0.000000 0.000000 0.026493 0.000000 0.000000
# 5 0.000000 0.000000 0.000000 0.000000 0.091888 0.000000
# 6 0.000000 0.000000 0.000000 0.000000 0.000000 0.054522
#
#
# Mechanical properties :
#
#
# Convention : Reuss Voigt Hill
#
# Bulk Modulus (GPa) = 59.35767 70.15883 64.75825
# Shear Modulus (GPa) = 20.31078 25.35022 22.83050
#
# Velocity S-wave (km/s) = 3.27190 3.65534 3.46892
# Velocity P-wave (km/s) = 6.74979 7.40232 7.08357
#
# Compressibility (1/GPa) = 0.01684702
#
# Stress axis : x y z
#
# Youngs Moduli (GPa) = 60.86524 66.78634 92.17689
#
# Poissons Ratio (x) = 0.11497 0.57508
# Poissons Ratio (y) = 0.10478 0.43710
# Poissons Ratio (z) = 0.37973 0.31670
#
# Static dielectric constant tensor:
#      x y z
#    x 1.658360 0.000000 0.000000 
#    y 0.000000 1.647160 0.000000 
#    z 0.000000 0.000000 1.641970 
# 
# From -- ./inp_files/31843.got.cif
#   From: 2010.05.17/outbox.cif.g08.bks.cpg/sg67_16_cif.got.tgz:31843.got - 2010.06.03 18:28:57.
