data_PCOD9503486
_publ_section_title
;
Structure prediction by ZEFSAII (Michael W. Deem and Ramdas Pophale) SiO2 
 PCOD9503486
Probable space group: C M M A
;
_chemical_formula_sum "Si O2"
_cell_formula_units_Z 80
_cell_length_a 24.227422
_cell_length_b 8.650722
_cell_length_c 20.782568
_cell_angle_alpha 90.000000
_cell_angle_beta 90.000000
_cell_angle_gamma 90.000000
_cell_volume 4355.708124
_symmetry_space_group_name_H-M "C M M A"
_symmetry_group_IT_number 67
_symmetry_cell_setting 'orthorhombic'
loop_
_space_group_symop_operation_xyz
x,y,z
-x,1/2-y,z
x,-y,-z
-x,1/2+y,-z
-x,-y,-z
x,1/2+y,-z
-x,y,z
x,1/2-y,z
1/2+x,1/2+y,z
1/2-x,-y,z
1/2+x,1/2-y,-z
1/2-x,y,-z
1/2-x,1/2-y,-z
1/2+x,y,-z
1/2-x,1/2+y,z
1/2+x,-y,z
loop_
_atom_site_type_symbol
_atom_site_label
_atom_site_fract_x
_atom_site_fract_y
_atom_site_fract_z
Si Si1 0.383426 0.434552 0.431280
Si Si2 0.688318 0.935503 0.314066
Si Si3 0.000000 0.436473 0.385326
Si Si4 0.000000 0.562190 0.765330
Si Si5 0.381141 0.063500 0.814253
Si Si6 0.810410 0.565859 0.070728
O O1 0.364682 0.500000 0.500000
O O2 0.384354 0.250000 0.432712
O O3 0.344311 0.493752 0.374217
O O4 0.444812 0.498524 0.417366
O O5 0.689074 0.750000 0.320355
O O6 0.655424 0.973583 0.248603
O O7 0.750000 0.000000 0.310933
O O8 0.000000 0.482065 0.309816
O O9 0.000000 0.250000 0.389354
O O10 0.056289 0.512435 0.799632
O O11 0.000000 0.750000 0.765503
O O12 0.380675 0.250000 0.821820
O O13 0.354234 0.987816 0.876561
O O14 0.807175 0.750000 0.067620
O O15 0.750000 0.500000 0.088798
O O16 0.823511 0.500000 0.000000
#
# Coordination Sequence:
#
# PCOD9503486 Si02
#       6
#    16  16   8   8  16  16
#     4  12  25  41  61  88 119 156 200 250 303 360
#     4  11  23  40  62  88 120 157 199 247 301 363
#     4  11  20  40  65  90 119 155 198 246 303 356
#     4   9  18  36  63  90 119 157 193 238 294 349
#     4  10  20  38  63  91 122 157 197 242 294 350
#     4  11  22  38  61  90 123 160 201 246 294 347
#
# _framework density 18.366703000000001
#
# number of rings (size 3 to 8) (size 9 to 14) (size 15 to 20)
#    0.000    1.200    2.000    6.000    0.000    3.600 
#    0.000    3.000    0.000    0.000    0.000    0.000 
#    0.000    0.000    0.000    0.000    0.000    0.000 
#
# Total GULP energy -223707.533099 kJ/mol
# GULP energy per Si atom -5592.688327 kJ/mol
# Density = 1.832490 g / cm^3
# Si number density = 18.366703 Si / 1000 Ang^3
#
#
#
# Elastic Constant Matrix: (Units=GPa)
#
#
# Indices 1 2 3 4 5 6 
#
# 1 142.0659 55.1960 71.5464 0.0000 0.0000 0.0000
# 2 55.1960 101.8302 54.1647 0.0000 0.0000 0.0000
# 3 71.5464 54.1647 117.0635 0.0000 0.0000 0.0000
# 4 0.0000 0.0000 0.0000 28.5509 0.0000 0.0000
# 5 0.0000 0.0000 0.0000 0.0000 42.6661 0.0000
# 6 0.0000 0.0000 0.0000 0.0000 0.0000 20.5848
#
#
#
# Elastic Compliance Matrix: (Units=1/GPa)
#
#
# Indices 1 2 3 4 5 6 
#
# 1 0.010872 -0.003129 -0.005197 0.000000 0.000000 0.000000
# 2 -0.003129 0.013927 -0.004532 0.000000 0.000000 0.000000
# 3 -0.005197 -0.004532 0.013815 0.000000 0.000000 0.000000
# 4 0.000000 0.000000 0.000000 0.035025 0.000000 0.000000
# 5 0.000000 0.000000 0.000000 0.000000 0.023438 0.000000
# 6 0.000000 0.000000 0.000000 0.000000 0.000000 0.048580
#
#
# Mechanical properties :
#
#
# Convention : Reuss Voigt Hill
#
# Bulk Modulus (GPa) = 77.52350 80.30820 78.91585
# Shear Modulus (GPa) = 28.46239 30.36386 29.41313
#
# Velocity S-wave (km/s) = 3.94086 4.07037 4.00614
# Velocity P-wave (km/s) = 7.93773 8.11852 8.02863
#
# Compressibility (1/GPa) = 0.01289931
#
# Stress axis : x y z
#
# Youngs Moduli (GPa) = 91.98112 71.80550 72.38302
#
# Poissons Ratio (x) = 0.22465 0.37617
# Poissons Ratio (y) = 0.28777 0.32801
# Poissons Ratio (z) = 0.47802 0.32539
#
# Static dielectric constant tensor:
#      x y z
#    x 1.609940 0.000000 0.000000 
#    y 0.000000 1.614320 0.000000 
#    z 0.000000 0.000000 1.606270 
# 
# From -- ./inp_files/39513.got.cif
#   From: 2010.05.17/outbox.cif.g08.bks.cpg/sg67_20_cif.got.tgz:39513.got - 2010.06.03 18:28:57.
