data_PCOD9503827
_publ_section_title
;
Structure prediction by ZEFSAII (Michael W. Deem and Ramdas Pophale) SiO2 
 PCOD9503827
Probable space group: C M M A
;
_chemical_formula_sum "Si O2"
_cell_formula_units_Z 84
_cell_length_a 14.402273
_cell_length_b 21.687321
_cell_length_c 15.455491
_cell_angle_alpha 90.000000
_cell_angle_beta 90.000000
_cell_angle_gamma 90.000000
_cell_volume 4827.471884
_symmetry_space_group_name_H-M "C M M A"
_symmetry_group_IT_number 67
_symmetry_cell_setting 'orthorhombic'
loop_
_space_group_symop_operation_xyz
x,y,z
-x,1/2-y,z
x,-y,-z
-x,1/2+y,-z
-x,-y,-z
x,1/2+y,-z
-x,y,z
x,1/2-y,z
1/2+x,1/2+y,z
1/2-x,-y,z
1/2+x,1/2-y,-z
1/2-x,y,-z
1/2-x,1/2-y,-z
1/2+x,y,-z
1/2-x,1/2+y,z
1/2+x,-y,z
loop_
_atom_site_type_symbol
_atom_site_label
_atom_site_fract_x
_atom_site_fract_y
_atom_site_fract_z
Si Si1 0.612511 0.680645 0.922888
Si Si2 0.254502 0.175250 0.598057
Si Si3 0.610716 0.679012 0.250075
Si Si4 0.750000 0.500000 0.000000
Si Si5 0.111534 0.593606 0.914808
Si Si6 0.894129 0.325241 0.735734
O O1 0.500000 0.684172 0.914867
O O2 0.647638 0.750000 0.934990
O O3 0.644086 0.655432 0.829764
O O4 0.630519 0.639811 0.005404
O O5 0.251050 0.250000 0.592869
O O6 0.250000 0.151860 0.500000
O O7 0.342407 0.161231 0.658965
O O8 0.167491 0.154783 0.655756
O O9 0.500000 0.680684 0.259169
O O10 0.641404 0.750000 0.228734
O O11 0.630971 0.631234 0.173157
O O12 0.819476 0.461866 0.062742
O O13 0.000000 0.577867 0.915757
O O14 0.893985 0.250000 0.738482
O O15 0.000000 0.345493 0.725886
#
# Coordination Sequence:
#
# PCOD9503827 Si02
#       6
#    16  16  16   4  16  16
#     4   8  14  27  49  74  98 126 158 198 249 298
#     4   9  17  27  41  67 103 135 164 200 242 299
#     4   9  18  33  53  76 103 138 174 207 251 303
#     4  12  26  36  50  74  98 140 182 206 256 306
#     4  10  21  37  53  72 103 134 169 214 250 299
#     4   8  14  24  39  62  94 127 156 189 236 292
#
# _framework density 17.400411999999999
#
# number of rings (size 3 to 8) (size 9 to 14) (size 15 to 20)
#    0.000    3.048    0.000    2.000    2.667    3.048 
#    0.000    4.762    0.000    0.000    0.000    0.667 
#    0.000    3.048    0.000    0.000    0.000    0.000 
#
# Total GULP energy -233912.931423 kJ/mol
# GULP energy per Si atom -5569.355510 kJ/mol
# Density = 1.736081 g / cm^3
# Si number density = 17.400412 Si / 1000 Ang^3
#
#
#
# Elastic Constant Matrix: (Units=GPa)
#
#
# Indices 1 2 3 4 5 6 
#
# 1 83.1535 35.2055 53.6561 0.0000 0.0000 0.0000
# 2 35.2055 44.2729 42.9732 0.0000 0.0000 0.0000
# 3 53.6561 42.9732 167.7750 0.0000 0.0000 0.0000
# 4 0.0000 0.0000 0.0000 -61.5719 0.0000 0.0000
# 5 0.0000 0.0000 0.0000 0.0000 26.5486 0.0000
# 6 0.0000 0.0000 0.0000 0.0000 0.0000 16.9839
#
#
#
# Elastic Compliance Matrix: (Units=1/GPa)
#
#
# Indices 1 2 3 4 5 6 
#
# 1 0.019177 -0.012372 -0.002964 0.000000 0.000000 0.000000
# 2 -0.012372 0.038043 -0.005787 0.000000 0.000000 0.000000
# 3 -0.002964 -0.005787 0.008391 0.000000 0.000000 0.000000
# 4 0.000000 0.000000 0.000000 -0.016241 0.000000 0.000000
# 5 0.000000 0.000000 0.000000 0.000000 0.037667 0.000000
# 6 0.000000 0.000000 0.000000 0.000000 0.000000 0.058879
#
#
# Mechanical properties :
#
#
# Convention : Reuss Voigt Hill
#
# Bulk Modulus (GPa) = 42.80247 62.09679 52.44963
# Shear Modulus (GPa) = 25.51672 7.28321 16.39997
#
# Velocity S-wave (km/s) = 3.83357 2.04811 3.07335
# Velocity P-wave (km/s) = 6.65184 6.43097 6.54234
#
# Compressibility (1/GPa) = 0.02336314
#
# Stress axis : x y z
#
# Youngs Moduli (GPa) = 52.14685 26.28606 119.18077
#
# Poissons Ratio (x) = 0.32522 0.35324
# Poissons Ratio (y) = 0.64517 0.68975
# Poissons Ratio (z) = 0.15456 0.15213
#
# Static dielectric constant tensor:
#      x y z
#    x 1.648850 0.000000 0.000000 
#    y 0.000000 1.587540 0.000000 
#    z 0.000000 0.000000 1.593770 
# 
# From -- ./inp_files/27383.got.cif
#   From: 2010.05.17/outbox.cif.g08.bks.cpg/sg67_14_cif.got.tgz:27383.got - 2010.06.03 18:28:57.
