data_PCOD9503288
_publ_section_title
;
Structure prediction by ZEFSAII (Michael W. Deem and Ramdas Pophale) SiO2 
 PCOD9503288
Probable space group: C M M A
;
_chemical_formula_sum "Si O2"
_cell_formula_units_Z 116
_cell_length_a 17.215373
_cell_length_b 16.513834
_cell_length_c 20.027894
_cell_angle_alpha 90.000000
_cell_angle_beta 90.000000
_cell_angle_gamma 90.000000
_cell_volume 5693.766275
_symmetry_space_group_name_H-M "C M M A"
_symmetry_group_IT_number 67
_symmetry_cell_setting 'orthorhombic'
loop_
_space_group_symop_operation_xyz
x,y,z
-x,1/2-y,z
x,-y,-z
-x,1/2+y,-z
-x,-y,-z
x,1/2+y,-z
-x,y,z
x,1/2-y,z
1/2+x,1/2+y,z
1/2-x,-y,z
1/2+x,1/2-y,-z
1/2-x,y,-z
1/2-x,1/2-y,-z
1/2+x,y,-z
1/2-x,1/2+y,z
1/2+x,-y,z
loop_
_atom_site_type_symbol
_atom_site_label
_atom_site_fract_x
_atom_site_fract_y
_atom_site_fract_z
Si Si1 0.197566 0.660218 0.434802
Si Si2 0.907037 0.941108 0.138761
Si Si3 0.089028 0.036140 0.609148
Si Si4 0.000000 0.750000 0.832226
Si Si5 0.356712 0.121993 0.824197
Si Si6 0.300630 0.918656 0.322076
Si Si7 0.408229 0.660017 0.733360
Si Si8 0.284271 0.158659 0.074069
O O1 0.161129 0.750000 0.427015
O O2 0.250000 0.662729 0.500000
O O3 0.138832 0.585237 0.444540
O O4 0.251073 0.638829 0.370687
O O5 0.879599 0.886509 0.201763
O O6 0.853789 0.905525 0.080573
O O7 0.000000 0.933555 0.128632
O O8 0.885177 0.032155 0.156745
O O9 0.096115 0.100623 0.670501
O O10 0.000000 0.025705 0.591201
O O11 0.127294 0.953988 0.635367
O O12 0.930453 0.680337 0.831451
O O13 0.327005 0.120059 0.747341
O O14 0.285315 0.143724 0.873210
O O15 0.250000 0.000000 0.307883
O O16 0.500000 0.669205 0.744368
O O17 0.374617 0.750000 0.725364
O O18 0.315007 0.250000 0.085242
O O19 0.250000 0.154568 0.000000
#
# Coordination Sequence:
#
# PCOD9503288 Si02
#       8
#    16  16  16   4  16  16  16  16
#     4  10  23  42  61  87 127 171 217 263 322 394
#     4  11  22  40  69  98 132 167 216 281 330 394
#     4  10  20  36  63  93 121 160 205 265 321 376
#     4  12  28  44  70  98 130 190 224 286 330 390
#     4  12  24  46  68  97 134 177 230 271 334 399
#     4  10  22  39  64  96 127 169 210 266 330 391
#     4   9  17  30  53  91 128 156 191 251 324 376
#     4  11  26  47  67  97 137 178 224 275 333 402
#
# _framework density 20.373158
#
# number of rings (size 3 to 8) (size 9 to 14) (size 15 to 20)
#    0.000    1.517    2.759    2.069    3.862    5.241 
#    1.241    2.069    0.000    0.828    0.000    0.000 
#    0.000    0.000    0.000    0.000    0.000    0.000 
#
# Total GULP energy -323377.525787 kJ/mol
# GULP energy per Si atom -5575.474583 kJ/mol
# Density = 2.032679 g / cm^3
# Si number density = 20.373158 Si / 1000 Ang^3
#
#
#
# Elastic Constant Matrix: (Units=GPa)
#
#
# Indices 1 2 3 4 5 6 
#
# 1 121.5176 31.7406 32.3981 0.0000 0.0000 0.0000
# 2 31.7406 67.1149 16.1405 0.0000 0.0000 0.0000
# 3 32.3981 16.1405 53.8892 0.0000 0.0000 0.0000
# 4 0.0000 0.0000 0.0000 313.0828 0.0000 0.0000
# 5 0.0000 0.0000 0.0000 0.0000 18.2299 0.0000
# 6 0.0000 0.0000 0.0000 0.0000 0.0000 30.9861
#
#
#
# Elastic Compliance Matrix: (Units=1/GPa)
#
#
# Indices 1 2 3 4 5 6 
#
# 1 0.010611 -0.003754 -0.005255 0.000000 0.000000 0.000000
# 2 -0.003754 0.017385 -0.002950 0.000000 0.000000 0.000000
# 3 -0.005255 -0.002950 0.022599 0.000000 0.000000 0.000000
# 4 0.000000 0.000000 0.000000 0.003194 0.000000 0.000000
# 5 0.000000 0.000000 0.000000 0.000000 0.054855 0.000000
# 6 0.000000 0.000000 0.000000 0.000000 0.000000 0.032273
#
#
# Mechanical properties :
#
#
# Convention : Reuss Voigt Hill
#
# Bulk Modulus (GPa) = 37.48558 44.78667 41.13612
# Shear Modulus (GPa) = 28.78079 83.27591 56.02835
#
# Velocity S-wave (km/s) = 3.76264 6.40032 5.24983
# Velocity P-wave (km/s) = 6.10869 8.75498 7.54870
#
# Compressibility (1/GPa) = 0.02667693
#
# Stress axis : x y z
#
# Youngs Moduli (GPa) = 94.24261 57.52145 44.24926
#
# Poissons Ratio (x) = 0.21596 0.23252
# Poissons Ratio (y) = 0.35383 0.13053
# Poissons Ratio (z) = 0.49522 0.16968
#
# Static dielectric constant tensor:
#      x y z
#    x 1.732190 0.000000 0.000000 
#    y 0.000000 1.738930 0.000000 
#    z 0.000000 0.000000 1.750820 
# 
# From -- ./inp_files/34337.got.cif
#   From: 2010.05.17/outbox.cif.g08.bks.cpg/sg67_18_cif.got.tgz:34337.got - 2010.06.03 18:28:57.
