data_PCOD9503762
_publ_section_title
;
Structure prediction by ZEFSAII (Michael W. Deem and Ramdas Pophale) SiO2 
 PCOD9503762
Probable space group: C M M A
;
_chemical_formula_sum "Si O2"
_cell_formula_units_Z 64
_cell_length_a 8.709928
_cell_length_b 40.158810
_cell_length_c 10.348488
_cell_angle_alpha 90.000000
_cell_angle_beta 90.000000
_cell_angle_gamma 90.000000
_cell_volume 3619.697689
_symmetry_space_group_name_H-M "C M M A"
_symmetry_group_IT_number 67
_symmetry_cell_setting 'orthorhombic'
loop_
_space_group_symop_operation_xyz
x,y,z
-x,1/2-y,z
x,-y,-z
-x,1/2+y,-z
-x,-y,-z
x,1/2+y,-z
-x,y,z
x,1/2-y,z
1/2+x,1/2+y,z
1/2-x,-y,z
1/2+x,1/2-y,-z
1/2-x,y,-z
1/2-x,1/2-y,-z
1/2+x,y,-z
1/2-x,1/2+y,z
1/2+x,-y,z
loop_
_atom_site_type_symbol
_atom_site_label
_atom_site_fract_x
_atom_site_fract_y
_atom_site_fract_z
Si Si1 0.316558 0.289191 0.141022
Si Si2 0.183473 0.663064 0.640692
Si Si3 0.684081 0.963450 0.859872
Si Si4 0.815471 0.410327 0.639780
O O1 0.500000 0.293742 0.141146
O O2 0.283988 0.250000 0.163654
O O3 0.241208 0.311640 0.250847
O O4 0.250000 0.297757 0.000000
O O5 0.250000 0.672425 0.500000
O O6 0.246405 0.625995 0.669181
O O7 0.000000 0.662386 0.634917
O O8 0.500000 0.965540 0.868348
O O9 0.724842 0.936847 0.750052
O O10 0.750000 0.000000 0.829280
O O11 0.750000 0.953749 0.000000
O O12 0.750000 0.420514 0.500000
O O13 0.000000 0.407666 0.631986
#
# Coordination Sequence:
#
# PCOD9503762 Si02
#       4
#    16  16  16  16
#     4  10  21  38  59  83 112 145 182 225 272 324
#     4  11  22  37  58  82 111 146 183 227 274 323
#     4  10  21  36  56  80 108 141 178 221 267 319
#     4  10  21  37  56  80 109 142 181 224 270 322
#
# _framework density 17.681034
#
# number of rings (size 3 to 8) (size 9 to 14) (size 15 to 20)
#    0.000    1.750    0.000    6.750    0.000    7.500 
#    0.000    5.000    0.000    0.000    0.000    0.000 
#    0.000    0.000    0.000    0.000    0.000    0.000 
#
# Total GULP energy -178789.229404 kJ/mol
# GULP energy per Si atom -5587.163419 kJ/mol
# Density = 1.764079 g / cm^3
# Si number density = 17.681034 Si / 1000 Ang^3
#
#
#
# Elastic Constant Matrix: (Units=GPa)
#
#
# Indices 1 2 3 4 5 6 
#
# 1 110.6106 72.4840 90.3802 0.0000 0.0000 0.0000
# 2 72.4840 108.6337 134.7676 0.0000 0.0000 0.0000
# 3 90.3802 134.7676 185.7026 0.0000 0.0000 0.0000
# 4 0.0000 0.0000 0.0000 41.6999 0.0000 0.0000
# 5 0.0000 0.0000 0.0000 0.0000 35.5095 0.0000
# 6 0.0000 0.0000 0.0000 0.0000 0.0000 21.4453
#
#
#
# Elastic Compliance Matrix: (Units=1/GPa)
#
#
# Indices 1 2 3 4 5 6 
#
# 1 0.016068 -0.010227 -0.000398 0.000000 0.000000 0.000000
# 2 -0.010227 0.098841 -0.066753 0.000000 0.000000 0.000000
# 3 -0.000398 -0.066753 0.054023 0.000000 0.000000 0.000000
# 4 0.000000 0.000000 0.000000 0.023981 0.000000 0.000000
# 5 0.000000 0.000000 0.000000 0.000000 0.028161 0.000000
# 6 0.000000 0.000000 0.000000 0.000000 0.000000 0.046630
#
#
# Mechanical properties :
#
#
# Convention : Reuss Voigt Hill
#
# Bulk Modulus (GPa) = 70.54785 111.13449 90.84117
# Shear Modulus (GPa) = 11.70449 26.88530 19.29489
#
# Velocity S-wave (km/s) = 2.57569 3.90368 3.30703
# Velocity P-wave (km/s) = 6.98802 9.12743 8.12842
#
# Compressibility (1/GPa) = 0.01417478
#
# Stress axis : x y z
#
# Youngs Moduli (GPa) = 62.23551 10.11724 18.51069
#
# Poissons Ratio (x) = 0.10347 0.00737
# Poissons Ratio (y) = 0.63648 1.23565
# Poissons Ratio (z) = 0.02479 0.67536
#
# Static dielectric constant tensor:
#      x y z
#    x 1.591520 0.000000 0.000000 
#    y 0.000000 1.579710 0.000000 
#    z 0.000000 0.000000 1.577630 
# 
# From -- ./inp_files/15795.got.cif
#   From: 2010.05.17/outbox.cif.g08.bks.cpg/sg67_8_cif.got.tgz:15795.got - 2010.06.03 18:28:57.
