data_PCOD9503406
_publ_section_title
;
Structure prediction by ZEFSAII (Michael W. Deem and Ramdas Pophale) SiO2 
 PCOD9503406
Probable space group: C M M A
;
_chemical_formula_sum "Si O2"
_cell_formula_units_Z 96
_cell_length_a 27.625359
_cell_length_b 19.279313
_cell_length_c 9.246977
_cell_angle_alpha 90.000000
_cell_angle_beta 90.000000
_cell_angle_gamma 90.000000
_cell_volume 4924.920928
_symmetry_space_group_name_H-M "C M M A"
_symmetry_group_IT_number 67
_symmetry_cell_setting 'orthorhombic'
loop_
_space_group_symop_operation_xyz
x,y,z
-x,1/2-y,z
x,-y,-z
-x,1/2+y,-z
-x,-y,-z
x,1/2+y,-z
-x,y,z
x,1/2-y,z
1/2+x,1/2+y,z
1/2-x,-y,z
1/2+x,1/2-y,-z
1/2-x,y,-z
1/2-x,1/2-y,-z
1/2+x,y,-z
1/2-x,1/2+y,z
1/2+x,-y,z
loop_
_atom_site_type_symbol
_atom_site_label
_atom_site_fract_x
_atom_site_fract_y
_atom_site_fract_z
Si Si1 0.400450 0.167021 0.943403
Si Si2 0.799514 0.168746 0.585780
Si Si3 0.944179 0.669078 0.639750
Si Si4 0.555530 0.556164 0.876907
Si Si5 0.298038 0.167633 0.069354
Si Si6 0.392900 0.073683 0.425289
O O1 0.403568 0.250000 0.958293
O O2 0.410450 0.150514 0.776018
O O3 0.439767 0.129507 0.042129
O O4 0.348293 0.141797 0.001844
O O5 0.811017 0.250000 0.553262
O O6 0.750000 0.152220 0.500000
O O7 0.793652 0.162389 0.758588
O O8 0.844256 0.118668 0.553763
O O9 0.935789 0.750000 0.601813
O O10 0.933391 0.619144 0.506899
O O11 0.000000 0.662567 0.686201
O O12 0.500000 0.541715 0.832824
O O13 0.590291 0.559937 0.738726
O O14 0.569241 0.500000 0.000000
O O15 0.298695 0.250000 0.034708
O O16 0.250000 0.136180 0.000000
O O17 0.387296 0.000000 0.500000
#
# Coordination Sequence:
#
# PCOD9503406 Si02
#       6
#    16  16  16  16  16  16
#     4  10  20  37  63  92 124 156 202 259 309 369
#     4  10  22  41  66  93 123 160 205 255 314 378
#     4  10  22  39  61  93 129 166 209 257 314 376
#     4  11  24  42  63  87 121 166 214 259 313 376
#     4   9  18  34  60  93 120 150 195 247 305 367
#     4  12  25  41  63  89 127 166 211 259 315 379
#
# _framework density 19.492699999999999
#
# number of rings (size 3 to 8) (size 9 to 14) (size 15 to 20)
#    0.000    1.667    1.667    2.500    2.333    4.667 
#    0.000    0.000    0.000    0.500    0.000    0.000 
#    0.000    0.000    0.000    0.000    0.000    0.000 
#
# Total GULP energy -267915.479786 kJ/mol
# GULP energy per Si atom -5581.572496 kJ/mol
# Density = 1.944833 g / cm^3
# Si number density = 19.492700 Si / 1000 Ang^3
#
#
#
# Elastic Constant Matrix: (Units=GPa)
#
#
# Indices 1 2 3 4 5 6 
#
# 1 108.2132 39.0973 53.6226 0.0000 0.0000 0.0000
# 2 39.0973 59.7931 56.7108 0.0000 0.0000 0.0000
# 3 53.6226 56.7108 99.9407 0.0000 0.0000 0.0000
# 4 0.0000 0.0000 0.0000 30.4176 0.0000 0.0000
# 5 0.0000 0.0000 0.0000 0.0000 36.0875 0.0000
# 6 0.0000 0.0000 0.0000 0.0000 0.0000 -0.2262
#
#
#
# Elastic Compliance Matrix: (Units=1/GPa)
#
#
# Indices 1 2 3 4 5 6 
#
# 1 0.013034 -0.004092 -0.004671 0.000000 0.000000 0.000000
# 2 -0.004092 0.037500 -0.019083 0.000000 0.000000 0.000000
# 3 -0.004671 -0.019083 0.023341 0.000000 0.000000 0.000000
# 4 0.000000 0.000000 0.000000 0.032876 0.000000 0.000000
# 5 0.000000 0.000000 0.000000 0.000000 0.027710 0.000000
# 6 0.000000 0.000000 0.000000 0.000000 0.000000 -4.420583
#
#
# Mechanical properties :
#
#
# Convention : Reuss Voigt Hill
#
# Bulk Modulus (GPa) = 55.00190 62.97875 58.99032
# Shear Modulus (GPa) = -1.18361 21.15685 9.98662
#
# Velocity S-wave (km/s) = -0.78008 3.29807 2.26592
# Velocity P-wave (km/s) = 5.24085 6.84705 6.09707
#
# Compressibility (1/GPa) = 0.01818119
#
# Stress axis : x y z
#
# Youngs Moduli (GPa) = 76.72040 26.66676 42.84287
#
# Poissons Ratio (x) = 0.10913 0.20013
# Poissons Ratio (y) = 0.31396 0.81759
# Poissons Ratio (z) = 0.35839 0.50889
#
# Static dielectric constant tensor:
#      x y z
#    x 1.722150 0.000000 0.000000 
#    y 0.000000 1.670270 0.000000 
#    z 0.000000 0.000000 1.673660 
# 
# From -- ./inp_files/13713.got.cif
#   From: 2010.05.17/outbox.cif.g08.bks.cpg/sg67_7_cif.got.tgz:13713.got - 2010.06.03 18:28:57.
