data_PCOD9503569
_publ_section_title
;
Structure prediction by ZEFSAII (Michael W. Deem and Ramdas Pophale) SiO2 
 PCOD9503569
Probable space group: C M M A
;
_chemical_formula_sum "Si O2"
_cell_formula_units_Z 72
_cell_length_a 26.151517
_cell_length_b 13.734199
_cell_length_c 8.846719
_cell_angle_alpha 90.000000
_cell_angle_beta 90.000000
_cell_angle_gamma 90.000000
_cell_volume 3177.477290
_symmetry_space_group_name_H-M "C M M A"
_symmetry_group_IT_number 67
_symmetry_cell_setting 'orthorhombic'
loop_
_space_group_symop_operation_xyz
x,y,z
-x,1/2-y,z
x,-y,-z
-x,1/2+y,-z
-x,-y,-z
x,1/2+y,-z
-x,y,z
x,1/2-y,z
1/2+x,1/2+y,z
1/2-x,-y,z
1/2+x,1/2-y,-z
1/2-x,y,-z
1/2-x,1/2-y,-z
1/2+x,y,-z
1/2-x,1/2+y,z
1/2+x,-y,z
loop_
_atom_site_type_symbol
_atom_site_label
_atom_site_fract_x
_atom_site_fract_y
_atom_site_fract_z
Si Si1 0.346739 0.361327 0.488942
Si Si2 0.943425 0.363774 0.729070
Si Si3 0.586888 0.500000 0.000000
Si Si4 0.827071 0.063402 0.188729
Si Si5 0.281965 0.355938 0.202292
O O1 0.352665 0.250000 0.545512
O O2 0.396605 0.382176 0.385870
O O3 0.339635 0.428174 0.633839
O O4 0.297308 0.360650 0.379319
O O5 0.938149 0.250000 0.775807
O O6 0.940221 0.436239 0.871474
O O7 0.000000 0.374578 0.658837
O O8 0.621909 0.423410 0.905893
O O9 0.777791 0.131499 0.168960
O O10 0.808937 0.953773 0.147204
O O11 0.300285 0.250000 0.149492
#
# Coordination Sequence:
#
# PCOD9503569 Si02
#       5
#    16  16   8  16  16
#     4  10  20  40  67  93 120 163 217 267 315 366
#     4  10  23  45  69  92 123 164 213 268 323 376
#     4  12  25  41  64  94 134 172 206 258 322 382
#     4  11  23  38  61  94 129 168 211 256 306 380
#     4  10  21  38  62  90 127 169 208 253 308 366
#
# _framework density 22.659483999999999
#
# number of rings (size 3 to 8) (size 9 to 14) (size 15 to 20)
#    0.000    1.556    2.222    2.333    0.000    7.111 
#    0.000    4.444    0.000    2.667    0.000    0.000 
#    0.000    0.000    0.000    0.000    0.000    0.000 
#
# Total GULP energy -201107.832055 kJ/mol
# GULP energy per Si atom -5586.328668 kJ/mol
# Density = 2.260791 g / cm^3
# Si number density = 22.659484 Si / 1000 Ang^3
#
#
#
# Elastic Constant Matrix: (Units=GPa)
#
#
# Indices 1 2 3 4 5 6 
#
# 1 93.5214 28.1213 26.6537 0.0000 0.0000 0.0000
# 2 28.1213 126.6481 28.9533 0.0000 0.0000 0.0000
# 3 26.6537 28.9533 87.1314 0.0000 0.0000 0.0000
# 4 0.0000 0.0000 0.0000 27.1807 0.0000 0.0000
# 5 0.0000 0.0000 0.0000 0.0000 23.8127 0.0000
# 6 0.0000 0.0000 0.0000 0.0000 0.0000 21.6250
#
#
#
# Elastic Compliance Matrix: (Units=1/GPa)
#
#
# Indices 1 2 3 4 5 6 
#
# 1 0.012166 -0.002003 -0.003056 0.000000 0.000000 0.000000
# 2 -0.002003 0.008875 -0.002336 0.000000 0.000000 0.000000
# 3 -0.003056 -0.002336 0.013188 0.000000 0.000000 0.000000
# 4 0.000000 0.000000 0.000000 0.036791 0.000000 0.000000
# 5 0.000000 0.000000 0.000000 0.000000 0.041994 0.000000
# 6 0.000000 0.000000 0.000000 0.000000 0.000000 0.046243
#
#
# Mechanical properties :
#
#
# Convention : Reuss Voigt Hill
#
# Bulk Modulus (GPa) = 51.44450 52.75083 52.09766
# Shear Modulus (GPa) = 27.69675 29.42853 28.56264
#
# Velocity S-wave (km/s) = 3.49994 3.60770 3.55423
# Velocity P-wave (km/s) = 6.25183 6.37843 6.31544
#
# Compressibility (1/GPa) = 0.01943843
#
# Stress axis : x y z
#
# Youngs Moduli (GPa) = 82.19678 112.67985 75.82561
#
# Poissons Ratio (x) = 0.22566 0.23173
# Poissons Ratio (y) = 0.16462 0.17716
# Poissons Ratio (z) = 0.25120 0.26326
#
# Static dielectric constant tensor:
#      x y z
#    x 1.837050 0.000000 0.000000 
#    y 0.000000 1.876080 0.000000 
#    z 0.000000 0.000000 1.874050 
# 
# From -- ./inp_files/13324.got.cif
#   From: 2010.05.17/outbox.cif.g08.bks.cpg/sg67_7_cif.got.tgz:13324.got - 2010.06.03 18:28:57.
