data_PCOD9503710
_publ_section_title
;
Structure prediction by ZEFSAII (Michael W. Deem and Ramdas Pophale) SiO2 
 PCOD9503710
Probable space group: C M M A
;
_chemical_formula_sum "Si O2"
_cell_formula_units_Z 104
_cell_length_a 7.828187
_cell_length_b 26.740024
_cell_length_c 23.101785
_cell_angle_alpha 90.000000
_cell_angle_beta 90.000000
_cell_angle_gamma 90.000000
_cell_volume 4835.802127
_symmetry_space_group_name_H-M "C M M A"
_symmetry_group_IT_number 67
_symmetry_cell_setting 'orthorhombic'
loop_
_space_group_symop_operation_xyz
x,y,z
-x,1/2-y,z
x,-y,-z
-x,1/2+y,-z
-x,-y,-z
x,1/2+y,-z
-x,y,z
x,1/2-y,z
1/2+x,1/2+y,z
1/2-x,-y,z
1/2+x,1/2-y,-z
1/2-x,y,-z
1/2-x,1/2-y,-z
1/2+x,y,-z
1/2-x,1/2+y,z
1/2+x,-y,z
loop_
_atom_site_type_symbol
_atom_site_label
_atom_site_fract_x
_atom_site_fract_y
_atom_site_fract_z
Si Si1 0.295942 0.162986 0.062645
Si Si2 0.299728 0.304672 0.811538
Si Si3 0.206094 0.555941 0.347711
Si Si4 0.294772 0.250000 0.431872
Si Si5 0.294836 0.554593 0.902046
Si Si6 0.293747 0.141875 0.432394
Si Si7 0.299141 0.414142 0.222526
O O1 0.500000 0.164183 0.069356
O O2 0.221189 0.189576 0.119057
O O3 0.235144 0.104819 0.065783
O O4 0.250000 0.183903 0.000000
O O5 0.500000 0.306244 0.797787
O O6 0.230801 0.250000 0.794181
O O7 0.217915 0.354229 0.784222
O O8 0.250000 0.500000 0.365402
O O9 0.270777 0.597019 0.392877
O O10 0.273802 0.566769 0.282986
O O11 0.000000 0.560486 0.345791
O O12 0.500000 0.250000 0.425617
O O13 0.250000 0.250000 0.500000
O O14 0.230950 0.196316 0.410342
O O15 0.500000 0.557376 0.900935
O O16 0.250000 0.500000 0.925179
O O17 0.227301 0.561074 0.836019
O O18 0.500000 0.142440 0.429044
O O19 0.250000 0.135971 0.500000
O O20 0.500000 0.426141 0.222727
#
# Coordination Sequence:
#
# PCOD9503710 Si02
#       7
#    16  16  16   8  16  16  16
#     4  10  21  36  53  76 106 139 177 217 260 314
#     4  10  21  37  57  80 106 136 172 215 265 320
#     4  10  21  36  54  80 111 144 184 226 271 328
#     4   8  14  28  50  72  98 132 172 220 265 310
#     4   9  18  31  49  72  98 130 169 211 256 308
#     4   9  18  33  53  78 108 142 184 227 273 327
#     4   9  19  36  54  76 104 135 176 218 262 319
#
# _framework density 21.506256
#
# number of rings (size 3 to 8) (size 9 to 14) (size 15 to 20)
#    0.000    2.615    0.000    2.308    0.000    6.462 
#    1.385    3.077    0.000    0.000    0.000    0.000 
#    0.000    0.000    0.000    0.000    0.000    0.000 
#
# Total GULP energy -290169.467148 kJ/mol
# GULP energy per Si atom -5580.182061 kJ/mol
# Density = 2.145731 g / cm^3
# Si number density = 21.506256 Si / 1000 Ang^3
#
#
#
# Elastic Constant Matrix: (Units=GPa)
#
#
# Indices 1 2 3 4 5 6 
#
# 1 26.0789 -12.0975 -1.5960 0.0000 0.0000 0.0000
# 2 -12.0975 133.6008 35.4716 0.0000 0.0000 0.0000
# 3 -1.5960 35.4716 65.8688 0.0000 0.0000 0.0000
# 4 0.0000 0.0000 0.0000 -4.1110 0.0000 0.0000
# 5 0.0000 0.0000 0.0000 0.0000 12.5170 0.0000
# 6 0.0000 0.0000 0.0000 0.0000 0.0000 23.1173
#
#
#
# Elastic Compliance Matrix: (Units=1/GPa)
#
#
# Indices 1 2 3 4 5 6 
#
# 1 0.040101 0.003936 -0.001148 0.000000 0.000000 0.000000
# 2 0.003936 0.009120 -0.004816 0.000000 0.000000 0.000000
# 3 -0.001148 -0.004816 0.017747 0.000000 0.000000 0.000000
# 4 0.000000 0.000000 0.000000 -0.243247 0.000000 0.000000
# 5 0.000000 0.000000 0.000000 0.000000 0.079891 0.000000
# 6 0.000000 0.000000 0.000000 0.000000 0.000000 0.043258
#
#
# Mechanical properties :
#
#
# Convention : Reuss Voigt Hill
#
# Bulk Modulus (GPa) = 15.89520 29.90052 22.89786
# Shear Modulus (GPa) = -177.91096 19.88935 -79.01081
#
# Velocity S-wave (km/s) = -9.10521 3.04438 -6.06781
# Velocity P-wave (km/s) = 10.15543 5.12748 6.19846
#
# Compressibility (1/GPa) = 0.06291208
#
# Stress axis : x y z
#
# Youngs Moduli (GPa) = 24.93727 109.64885 56.34640
#
# Poissons Ratio (x) = -0.43156 0.06468
# Poissons Ratio (y) = -0.09815 0.27136
# Poissons Ratio (z) = 0.02862 0.52806
#
# Static dielectric constant tensor:
#      x y z
#    x 1.781670 0.000000 0.000000 
#    y 0.000000 1.804660 0.000000 
#    z 0.000000 0.000000 1.765300 
# 
# From -- ./inp_files/41038.got.cif
#   From: 2010.05.17/outbox.cif.g08.bks.cpg/sg67_21_cif.got.tgz:41038.got - 2010.06.03 18:28:57.
