data_PCOD9503189
_publ_section_title
;
Structure prediction by ZEFSAII (Michael W. Deem and Ramdas Pophale) SiO2 
 PCOD9503189
Probable space group: C M M A
;
_chemical_formula_sum "Si O2"
_cell_formula_units_Z 104
_cell_length_a 8.186101
_cell_length_b 30.986617
_cell_length_c 20.891123
_cell_angle_alpha 90.000000
_cell_angle_beta 90.000000
_cell_angle_gamma 90.000000
_cell_volume 5299.233411
_symmetry_space_group_name_H-M "C M M A"
_symmetry_group_IT_number 67
_symmetry_cell_setting 'orthorhombic'
loop_
_space_group_symop_operation_xyz
x,y,z
-x,1/2-y,z
x,-y,-z
-x,1/2+y,-z
-x,-y,-z
x,1/2+y,-z
-x,y,z
x,1/2-y,z
1/2+x,1/2+y,z
1/2-x,-y,z
1/2+x,1/2-y,-z
1/2-x,y,-z
1/2-x,1/2-y,-z
1/2+x,y,-z
1/2-x,1/2+y,z
1/2+x,-y,z
loop_
_atom_site_type_symbol
_atom_site_label
_atom_site_fract_x
_atom_site_fract_y
_atom_site_fract_z
Si Si1 0.304486 0.750000 0.928114
Si Si2 0.805012 0.451224 0.571868
Si Si3 0.306644 0.834322 0.141456
Si Si4 0.694605 0.580067 0.072632
Si Si5 0.302363 0.388413 0.315368
Si Si6 0.804749 0.453740 0.794902
Si Si7 0.697073 0.700158 0.276984
O O1 0.500000 0.750000 0.919815
O O2 0.223905 0.791796 0.898185
O O3 0.250000 0.750000 0.000000
O O4 0.750000 0.500000 0.586009
O O5 0.750000 0.440340 0.500000
O O6 0.746222 0.417898 0.625453
O O7 0.000000 0.450792 0.573214
O O8 0.500000 0.842652 0.150112
O O9 0.238570 0.874196 0.100383
O O10 0.237462 0.820452 0.210415
O O11 0.500000 0.582020 0.068947
O O12 0.741264 0.549653 0.132194
O O13 0.750000 0.570442 0.000000
O O14 0.500000 0.387909 0.313509
O O15 0.246744 0.414027 0.250414
O O16 0.243342 0.339154 0.323473
O O17 0.750000 0.500000 0.767745
O O18 0.000000 0.452215 0.796296
O O19 0.500000 0.702560 0.273404
O O20 0.753757 0.750000 0.286567
#
# Coordination Sequence:
#
# PCOD9503189 Si02
#       7
#     8  16  16  16  16  16  16
#     4  12  24  34  50  74 102 138 179 230 291 354
#     4  10  20  36  59  92 129 164 198 235 278 334
#     4  10  20  37  56  76 105 138 180 233 290 351
#     4  11  23  39  58  78 104 142 185 236 292 348
#     4  10  22  38  59  88 122 155 192 237 285 337
#     4  11  23  39  59  84 113 146 189 236 286 346
#     4  10  20  36  59  85 114 149 190 236 286 343
#
# _framework density 19.625481000000001
#
# number of rings (size 3 to 8) (size 9 to 14) (size 15 to 20)
#    0.000    1.538    2.308    3.462    0.000    5.538 
#    0.000    1.538    0.000    0.462    0.000    0.000 
#    0.000    0.000    0.000    0.000    0.000    0.000 
#
# Total GULP energy -290000.643087 kJ/mol
# GULP energy per Si atom -5576.935444 kJ/mol
# Density = 1.958081 g / cm^3
# Si number density = 19.625481 Si / 1000 Ang^3
#
#
#
# Elastic Constant Matrix: (Units=GPa)
#
#
# Indices 1 2 3 4 5 6 
#
# 1 26.1110 7.4359 14.0145 0.0000 0.0000 0.0000
# 2 7.4359 145.6462 60.8473 0.0000 0.0000 0.0000
# 3 14.0145 60.8473 107.1059 0.0000 0.0000 0.0000
# 4 0.0000 0.0000 0.0000 39.6732 0.0000 0.0000
# 5 0.0000 0.0000 0.0000 0.0000 20.1035 0.0000
# 6 0.0000 0.0000 0.0000 0.0000 0.0000 27.2196
#
#
#
# Elastic Compliance Matrix: (Units=1/GPa)
#
#
# Indices 1 2 3 4 5 6 
#
# 1 0.041195 0.000195 -0.005501 0.000000 0.000000 0.000000
# 2 0.000195 0.009004 -0.005140 0.000000 0.000000 0.000000
# 3 -0.005501 -0.005140 0.012977 0.000000 0.000000 0.000000
# 4 0.000000 0.000000 0.000000 0.025206 0.000000 0.000000
# 5 0.000000 0.000000 0.000000 0.000000 0.049743 0.000000
# 6 0.000000 0.000000 0.000000 0.000000 0.000000 0.036738
#
#
# Mechanical properties :
#
#
# Convention : Reuss Voigt Hill
#
# Bulk Modulus (GPa) = 23.65054 49.27316 36.46185
# Shear Modulus (GPa) = 23.82663 30.50362 27.16512
#
# Velocity S-wave (km/s) = 3.48812 3.94672 3.72449
# Velocity P-wave (km/s) = 5.31975 6.77717 6.09220
#
# Compressibility (1/GPa) = 0.04228234
#
# Stress axis : x y z
#
# Youngs Moduli (GPa) = 24.27470 111.06725 77.06136
#
# Poissons Ratio (x) = -0.02166 0.42392
# Poissons Ratio (y) = -0.00473 0.39613
# Poissons Ratio (z) = 0.13354 0.57094
#
# Static dielectric constant tensor:
#      x y z
#    x 1.693000 0.000000 0.000000 
#    y 0.000000 1.711790 0.000000 
#    z 0.000000 0.000000 1.709790 
# 
# From -- ./inp_files/37503.got.cif
#   From: 2010.05.17/outbox.cif.g08.bks.cpg/sg67_19_cif.got.tgz:37503.got - 2010.06.03 18:28:57.
