data_PCOD9503194
_publ_section_title
;
Structure prediction by ZEFSAII (Michael W. Deem and Ramdas Pophale) SiO2 
 PCOD9503194
Probable space group: C M M A
;
_chemical_formula_sum "Si O2"
_cell_formula_units_Z 88
_cell_length_a 10.726782
_cell_length_b 14.616854
_cell_length_c 28.829120
_cell_angle_alpha 90.000000
_cell_angle_beta 90.000000
_cell_angle_gamma 90.000000
_cell_volume 4520.169801
_symmetry_space_group_name_H-M "C M M A"
_symmetry_group_IT_number 67
_symmetry_cell_setting 'orthorhombic'
loop_
_space_group_symop_operation_xyz
x,y,z
-x,1/2-y,z
x,-y,-z
-x,1/2+y,-z
-x,-y,-z
x,1/2+y,-z
-x,y,z
x,1/2-y,z
1/2+x,1/2+y,z
1/2-x,-y,z
1/2+x,1/2-y,-z
1/2-x,y,-z
1/2-x,1/2-y,-z
1/2+x,y,-z
1/2-x,1/2+y,z
1/2+x,-y,z
loop_
_atom_site_type_symbol
_atom_site_label
_atom_site_fract_x
_atom_site_fract_y
_atom_site_fract_z
Si Si1 0.643922 0.933141 0.403003
Si Si2 0.634348 0.400188 0.024100
Si Si3 0.349444 0.353918 0.696120
Si Si4 0.358743 0.860759 0.870205
Si Si5 0.143616 0.861840 0.798888
Si Si6 0.861735 0.750000 0.536109
O O1 0.500000 0.967847 0.404354
O O2 0.679578 0.909852 0.349812
O O3 0.645572 0.839003 0.431427
O O4 0.750000 0.000000 0.421958
O O5 0.500000 0.356019 0.016831
O O6 0.654601 0.404813 0.079079
O O7 0.627608 0.500000 0.000000
O O8 0.750000 0.352541 0.000000
O O9 0.500000 0.348043 0.697153
O O10 0.300844 0.250000 0.691274
O O11 0.316028 0.390607 0.746978
O O12 0.500000 0.880687 0.853049
O O13 0.351317 0.750000 0.876038
O O14 0.247192 0.888791 0.836242
O O15 0.141327 0.750000 0.797784
O O16 0.000000 0.890688 0.808525
O O17 0.750000 0.750000 0.500000
O O18 0.000000 0.750000 0.513757
#
# Coordination Sequence:
#
# PCOD9503194 Si02
#       6
#    16  16  16  16  16   8
#     4  10  20  36  59  86 116 155 199 245 294 346
#     4   9  18  32  48  63  82 114 153 189 232 288
#     4   8  13  27  53  79 105 141 185 224 265 323
#     4   9  17  29  45  68  98 124 149 193 255 311
#     4   8  14  25  46  75 100 127 165 206 246 302
#     4  10  22  40  62  86 118 160 204 248 301 354
#
# _framework density 19.468295000000001
#
# number of rings (size 3 to 8) (size 9 to 14) (size 15 to 20)
#    0.000    3.091    0.909    1.091    0.000    2.182 
#    0.000    2.727    4.000    1.091    0.000    0.000 
#    0.000    0.000    0.000    0.000    0.000    0.000 
#
# Total GULP energy -245144.016958 kJ/mol
# GULP energy per Si atom -5571.454931 kJ/mol
# Density = 1.942398 g / cm^3
# Si number density = 19.468295 Si / 1000 Ang^3
#
#
#
# Elastic Constant Matrix: (Units=GPa)
#
#
# Indices 1 2 3 4 5 6 
#
# 1 150.9314 33.8760 71.4108 0.0000 0.0000 0.0000
# 2 33.8760 68.5747 16.2498 0.0000 0.0000 0.0000
# 3 71.4108 16.2498 91.6220 0.0000 0.0000 0.0000
# 4 0.0000 0.0000 0.0000 19.1192 0.0000 0.0000
# 5 0.0000 0.0000 0.0000 0.0000 26.9189 0.0000
# 6 0.0000 0.0000 0.0000 0.0000 0.0000 4.3610
#
#
#
# Elastic Compliance Matrix: (Units=1/GPa)
#
#
# Indices 1 2 3 4 5 6 
#
# 1 0.011309 -0.003651 -0.008167 0.000000 0.000000 0.000000
# 2 -0.003651 0.016401 -0.000063 0.000000 0.000000 0.000000
# 3 -0.008167 -0.000063 0.017291 0.000000 0.000000 0.000000
# 4 0.000000 0.000000 0.000000 0.052304 0.000000 0.000000
# 5 0.000000 0.000000 0.000000 0.000000 0.037149 0.000000
# 6 0.000000 0.000000 0.000000 0.000000 0.000000 0.229305
#
#
# Mechanical properties :
#
#
# Convention : Reuss Voigt Hill
#
# Bulk Modulus (GPa) = 47.08331 61.57792 54.33061
# Shear Modulus (GPa) = 12.67106 22.71925 17.69516
#
# Velocity S-wave (km/s) = 2.55396 3.41983 3.01810
# Velocity P-wave (km/s) = 5.73882 6.87693 6.33349
#
# Compressibility (1/GPa) = 0.02123895
#
# Stress axis : x y z
#
# Youngs Moduli (GPa) = 88.42487 60.97049 57.83435
#
# Poissons Ratio (x) = 0.22263 0.47232
# Poissons Ratio (y) = 0.32288 0.00364
# Poissons Ratio (z) = 0.72214 0.00384
#
# Static dielectric constant tensor:
#      x y z
#    x 1.699520 0.000000 0.000000 
#    y 0.000000 1.732100 0.000000 
#    z 0.000000 0.000000 1.678340 
# 
# From -- ./inp_files/44045.got.cif
#   From: 2010.05.17/outbox.cif.g08.bks.cpg/sg67_23_cif.got.tgz:44045.got - 2010.06.03 18:28:57.
