data_PCOD9503910
_publ_section_title
;
Structure prediction by ZEFSAII (Michael W. Deem and Ramdas Pophale) SiO2 
 PCOD9503910
Probable space group: C M M A
;
_chemical_formula_sum "Si O2"
_cell_formula_units_Z 72
_cell_length_a 8.738899
_cell_length_b 21.557969
_cell_length_c 20.234055
_cell_angle_alpha 90.000000
_cell_angle_beta 90.000000
_cell_angle_gamma 90.000000
_cell_volume 3811.952578
_symmetry_space_group_name_H-M "C M M A"
_symmetry_group_IT_number 67
_symmetry_cell_setting 'orthorhombic'
loop_
_space_group_symop_operation_xyz
x,y,z
-x,1/2-y,z
x,-y,-z
-x,1/2+y,-z
-x,-y,-z
x,1/2+y,-z
-x,y,z
x,1/2-y,z
1/2+x,1/2+y,z
1/2-x,-y,z
1/2+x,1/2-y,-z
1/2-x,y,-z
1/2-x,1/2-y,-z
1/2+x,y,-z
1/2-x,1/2+y,z
1/2+x,-y,z
loop_
_atom_site_type_symbol
_atom_site_label
_atom_site_fract_x
_atom_site_fract_y
_atom_site_fract_z
Si Si1 0.682647 0.678333 0.790752
Si Si2 0.183310 0.563933 0.709706
Si Si3 0.183798 0.250000 0.426493
Si Si4 0.184498 0.613638 0.573308
Si Si5 0.325938 0.324940 0.932282
O O1 0.500000 0.676510 0.783286
O O2 0.733414 0.750000 0.776456
O O3 0.758637 0.625439 0.746425
O O4 0.728778 0.663707 0.866482
O O5 0.250000 0.500000 0.737730
O O6 0.231867 0.569308 0.632585
O O7 0.000000 0.562753 0.712344
O O8 0.250000 0.250000 0.500000
O O9 0.231664 0.317212 0.401066
O O10 0.000000 0.250000 0.426919
O O11 0.250000 0.602529 0.500000
O O12 0.000000 0.612386 0.567455
O O13 0.500000 0.347594 0.924635
O O14 0.333248 0.250000 0.937973
O O15 0.250000 0.348247 0.000000
#
# Coordination Sequence:
#
# PCOD9503910 Si02
#       5
#    16  16   8  16  16
#     4  10  21  37  58  86 117 150 191 237 283 336
#     4  11  24  40  58  80 111 151 191 236 288 343
#     4   8  14  28  48  74 102 128 163 210 267 326
#     4   9  19  34  55  79 105 139 180 229 282 339
#     4   9  16  28  50  82 118 153 188 230 279 328
#
# _framework density 18.887957
#
# number of rings (size 3 to 8) (size 9 to 14) (size 15 to 20)
#    0.000    2.444    0.000    2.000    1.556    6.222 
#    0.000    2.222    0.000    0.667    0.000    4.667 
#    0.000    0.000    0.000    0.000    0.000    0.000 
#
# Total GULP energy -200598.340445 kJ/mol
# GULP energy per Si atom -5572.176123 kJ/mol
# Density = 1.884497 g / cm^3
# Si number density = 18.887957 Si / 1000 Ang^3
#
#
#
# Elastic Constant Matrix: (Units=GPa)
#
#
# Indices 1 2 3 4 5 6 
#
# 1 50.2948 36.2962 25.4123 0.0000 0.0000 0.0000
# 2 36.2962 112.9290 58.6457 0.0000 0.0000 0.0000
# 3 25.4123 58.6457 98.6291 0.0000 0.0000 0.0000
# 4 0.0000 0.0000 0.0000 4.3930 0.0000 0.0000
# 5 0.0000 0.0000 0.0000 0.0000 28.2428 0.0000
# 6 0.0000 0.0000 0.0000 0.0000 0.0000 18.1655
#
#
#
# Elastic Compliance Matrix: (Units=1/GPa)
#
#
# Indices 1 2 3 4 5 6 
#
# 1 0.026318 -0.007143 -0.002534 0.000000 0.000000 0.000000
# 2 -0.007143 0.014750 -0.006930 0.000000 0.000000 0.000000
# 3 -0.002534 -0.006930 0.014912 0.000000 0.000000 0.000000
# 4 0.000000 0.000000 0.000000 0.227635 0.000000 0.000000
# 5 0.000000 0.000000 0.000000 0.000000 0.035407 0.000000
# 6 0.000000 0.000000 0.000000 0.000000 0.000000 0.055049
#
#
# Mechanical properties :
#
#
# Convention : Reuss Voigt Hill
#
# Bulk Modulus (GPa) = 43.92346 55.84016 49.88181
# Shear Modulus (GPa) = 12.05187 19.59351 15.82269
#
# Velocity S-wave (km/s) = 2.52875 3.22429 2.89747
# Velocity P-wave (km/s) = 5.64192 6.59466 6.13681
#
# Compressibility (1/GPa) = 0.02276688
#
# Stress axis : x y z
#
# Youngs Moduli (GPa) = 37.99708 67.79799 67.05850
#
# Poissons Ratio (x) = 0.48428 0.16990
# Poissons Ratio (y) = 0.27141 0.46471
# Poissons Ratio (z) = 0.09627 0.46983
#
# Static dielectric constant tensor:
#      x y z
#    x 1.648670 0.000000 0.000000 
#    y 0.000000 1.682860 0.000000 
#    z 0.000000 0.000000 1.646770 
# 
# From -- ./inp_files/36735.got.cif
#   From: 2010.05.17/outbox.cif.g08.bks.cpg/sg67_19_cif.got.tgz:36735.got - 2010.06.03 18:28:57.
