data_PCOD9503387
_publ_section_title
;
Structure prediction by ZEFSAII (Michael W. Deem and Ramdas Pophale) SiO2 
 PCOD9503387
Probable space group: C M M A
;
_chemical_formula_sum "Si O2"
_cell_formula_units_Z 80
_cell_length_a 14.376114
_cell_length_b 25.178423
_cell_length_c 10.742471
_cell_angle_alpha 90.000000
_cell_angle_beta 90.000000
_cell_angle_gamma 90.000000
_cell_volume 3888.429447
_symmetry_space_group_name_H-M "C M M A"
_symmetry_group_IT_number 67
_symmetry_cell_setting 'orthorhombic'
loop_
_space_group_symop_operation_xyz
x,y,z
-x,1/2-y,z
x,-y,-z
-x,1/2+y,-z
-x,-y,-z
x,1/2+y,-z
-x,y,z
x,1/2-y,z
1/2+x,1/2+y,z
1/2-x,-y,z
1/2+x,1/2-y,-z
1/2-x,y,-z
1/2-x,1/2-y,-z
1/2+x,y,-z
1/2-x,1/2+y,z
1/2+x,-y,z
loop_
_atom_site_type_symbol
_atom_site_label
_atom_site_fract_x
_atom_site_fract_y
_atom_site_fract_z
Si Si1 0.853036 0.474464 0.121123
Si Si2 0.218515 0.134864 0.641179
Si Si3 0.893879 0.528746 0.373312
Si Si4 0.172534 0.750000 0.892951
Si Si5 0.892912 0.360237 0.175365
Si Si6 0.708133 0.750000 0.641113
O O1 0.750000 0.500000 0.126630
O O2 0.892551 0.488515 0.256910
O O3 0.862671 0.411942 0.098723
O O4 0.898457 0.500000 0.000000
O O5 0.250000 0.130690 0.500000
O O6 0.162918 0.080996 0.667179
O O7 0.314130 0.139075 0.718227
O O8 0.163643 0.191182 0.655778
O O9 0.859208 0.500000 0.500000
O O10 0.000000 0.544982 0.399376
O O11 0.116479 0.804903 0.897987
O O12 0.218114 0.750000 0.754603
O O13 0.250000 0.750000 0.000000
O O14 0.000000 0.365758 0.217962
O O15 0.750000 0.750000 0.500000
#
# Coordination Sequence:
#
# PCOD9503387 Si02
#       6
#    16  16  16   8  16   8
#     4  11  24  40  63  89 125 164 213 260 324 381
#     4  10  20  37  62  89 126 166 213 266 322 384
#     4  11  24  40  61  92 127 166 212 265 325 391
#     4  10  23  39  66  95 126 163 213 268 321 382
#     4  11  23  41  65  95 129 171 219 271 330 396
#     4   8  18  37  59  87 118 161 204 254 312 374
#
# _framework density 20.573858000000001
#
# number of rings (size 3 to 8) (size 9 to 14) (size 15 to 20)
#    0.000    1.600    2.000    2.100    2.800    4.000 
#    0.000    0.500    0.000    9.000    0.000    0.000 
#    0.000    0.000    0.000    0.000    0.000    0.000 
#
# Total GULP energy -222833.821194 kJ/mol
# GULP energy per Si atom -5570.845530 kJ/mol
# Density = 2.052703 g / cm^3
# Si number density = 20.573858 Si / 1000 Ang^3
#
#
#
# Elastic Constant Matrix: (Units=GPa)
#
#
# Indices 1 2 3 4 5 6 
#
# 1 115.7867 44.7854 14.8302 0.0000 0.0000 0.0000
# 2 44.7854 199.4141 33.9291 0.0000 0.0000 0.0000
# 3 14.8302 33.9291 97.7586 0.0000 0.0000 0.0000
# 4 0.0000 0.0000 0.0000 -0.5203 0.0000 0.0000
# 5 0.0000 0.0000 0.0000 0.0000 28.9550 0.0000
# 6 0.0000 0.0000 0.0000 0.0000 0.0000 23.7158
#
#
#
# Elastic Compliance Matrix: (Units=1/GPa)
#
#
# Indices 1 2 3 4 5 6 
#
# 1 0.009509 -0.002009 -0.000745 0.000000 0.000000 0.000000
# 2 -0.002009 0.005754 -0.001692 0.000000 0.000000 0.000000
# 3 -0.000745 -0.001692 0.010930 0.000000 0.000000 0.000000
# 4 0.000000 0.000000 0.000000 -1.921942 0.000000 0.000000
# 5 0.000000 0.000000 0.000000 0.000000 0.034536 0.000000
# 6 0.000000 0.000000 0.000000 0.000000 0.000000 0.042166
#
#
# Mechanical properties :
#
#
# Convention : Reuss Voigt Hill
#
# Bulk Modulus (GPa) = 57.80432 66.67210 62.23821
# Shear Modulus (GPa) = -2.77102 31.72441 14.47670
#
# Velocity S-wave (km/s) = -1.16180 3.93106 2.65551
# Velocity P-wave (km/s) = 5.13393 7.28566 6.30231
#
# Compressibility (1/GPa) = 0.01729975
#
# Stress axis : x y z
#
# Youngs Moduli (GPa) = 105.16336 173.79968 91.49410
#
# Poissons Ratio (x) = 0.34912 0.06820
# Poissons Ratio (y) = 0.21125 0.15483
# Poissons Ratio (z) = 0.07838 0.29411
#
# Static dielectric constant tensor:
#      x y z
#    x 1.746120 0.000000 0.000000 
#    y 0.000000 1.819210 0.000000 
#    z 0.000000 0.000000 1.719280 
# 
# From -- ./inp_files/17997.got.cif
#   From: 2010.05.17/outbox.cif.g08.bks.cpg/sg67_9_cif.got.tgz:17997.got - 2010.06.03 18:28:57.
