data_PCOD9503880
_publ_section_title
;
Structure prediction by ZEFSAII (Michael W. Deem and Ramdas Pophale) SiO2 
 PCOD9503880
Probable space group: C M M A
;
_chemical_formula_sum "Si O2"
_cell_formula_units_Z 96
_cell_length_a 8.563993
_cell_length_b 19.129253
_cell_length_c 31.699639
_cell_angle_alpha 90.000000
_cell_angle_beta 90.000000
_cell_angle_gamma 90.000000
_cell_volume 5193.123265
_symmetry_space_group_name_H-M "C M M A"
_symmetry_group_IT_number 67
_symmetry_cell_setting 'orthorhombic'
loop_
_space_group_symop_operation_xyz
x,y,z
-x,1/2-y,z
x,-y,-z
-x,1/2+y,-z
-x,-y,-z
x,1/2+y,-z
-x,y,z
x,1/2-y,z
1/2+x,1/2+y,z
1/2-x,-y,z
1/2+x,1/2-y,-z
1/2-x,y,-z
1/2-x,1/2-y,-z
1/2+x,y,-z
1/2-x,1/2+y,z
1/2+x,-y,z
loop_
_atom_site_type_symbol
_atom_site_label
_atom_site_fract_x
_atom_site_fract_y
_atom_site_fract_z
Si Si1 0.311539 0.169075 0.044697
Si Si2 0.312758 0.830935 0.546934
Si Si3 0.814062 0.578672 0.623535
Si Si4 0.310733 0.330862 0.298488
Si Si5 0.811459 0.578352 0.218701
Si Si6 0.311254 0.421927 0.123799
O O1 0.500000 0.167367 0.043803
O O2 0.261931 0.250000 0.048068
O O3 0.257332 0.126865 0.085644
O O4 0.250000 0.141072 0.000000
O O5 0.500000 0.836311 0.547228
O O6 0.271340 0.750000 0.557401
O O7 0.250000 0.845108 0.500000
O O8 0.242604 0.883302 0.580986
O O9 0.750000 0.500000 0.626039
O O10 0.752020 0.624488 0.662537
O O11 0.000000 0.576570 0.624570
O O12 0.500000 0.331910 0.300074
O O13 0.260987 0.250000 0.300474
O O14 0.261132 0.368460 0.255060
O O15 0.750000 0.500000 0.226732
O O16 0.762829 0.599725 0.171233
O O17 0.000000 0.575727 0.219364
O O18 0.500000 0.422420 0.123199
O O19 0.250000 0.500000 0.117251
#
# Coordination Sequence:
#
# PCOD9503880 Si02
#       6
#    16  16  16  16  16  16
#     4   9  18  32  49  69  95 128 166 208 254 305
#     4  10  21  39  63  90 120 152 187 228 274 324
#     4  12  25  40  59  83 113 149 189 230 274 323
#     4  10  21  37  57  82 111 142 178 221 269 321
#     4   9  18  33  53  76 103 136 172 212 260 313
#     4   9  18  32  50  73 100 131 168 210 256 307
#
# _framework density 18.485986
#
# number of rings (size 3 to 8) (size 9 to 14) (size 15 to 20)
#    0.000    2.167    0.000    3.000    0.000    7.333 
#    0.000    6.667    0.000    0.000    0.000    7.000 
#    0.000    0.000    0.000    0.000    0.000    0.000 
#
# Total GULP energy -267982.324892 kJ/mol
# GULP energy per Si atom -5582.965102 kJ/mol
# Density = 1.844391 g / cm^3
# Si number density = 18.485986 Si / 1000 Ang^3
#
#
#
# Elastic Constant Matrix: (Units=GPa)
#
#
# Indices 1 2 3 4 5 6 
#
# 1 29.7021 36.7082 39.2935 0.0000 0.0000 0.0000
# 2 36.7082 145.6876 129.2975 0.0000 0.0000 0.0000
# 3 39.2935 129.2975 178.4999 0.0000 0.0000 0.0000
# 4 0.0000 0.0000 0.0000 52.2273 0.0000 0.0000
# 5 0.0000 0.0000 0.0000 0.0000 28.1772 0.0000
# 6 0.0000 0.0000 0.0000 0.0000 0.0000 26.1107
#
#
#
# Elastic Compliance Matrix: (Units=1/GPa)
#
#
# Indices 1 2 3 4 5 6 
#
# 1 0.050644 -0.008026 -0.005335 0.000000 0.000000 0.000000
# 2 -0.008026 0.020492 -0.013076 0.000000 0.000000 0.000000
# 3 -0.005335 -0.013076 0.016249 0.000000 0.000000 0.000000
# 4 0.000000 0.000000 0.000000 0.019147 0.000000 0.000000
# 5 0.000000 0.000000 0.000000 0.000000 0.035490 0.000000
# 6 0.000000 0.000000 0.000000 0.000000 0.000000 0.038298
#
#
# Mechanical properties :
#
#
# Convention : Reuss Voigt Hill
#
# Bulk Modulus (GPa) = 28.97701 84.94313 56.96007
# Shear Modulus (GPa) = 20.43340 31.20907 25.82123
#
# Velocity S-wave (km/s) = 3.32828 4.11330 3.74143
# Velocity P-wave (km/s) = 5.52079 8.28304 7.03874
#
# Compressibility (1/GPa) = 0.03451011
#
# Stress axis : x y z
#
# Youngs Moduli (GPa) = 19.74554 48.80052 61.54396
#
# Poissons Ratio (x) = 0.39168 0.32832
# Poissons Ratio (y) = 0.15848 0.80477
# Poissons Ratio (z) = 0.10534 0.63814
#
# Static dielectric constant tensor:
#      x y z
#    x 1.631710 0.000000 0.000000 
#    y 0.000000 1.608320 0.000000 
#    z 0.000000 0.000000 1.634670 
# 
# From -- ./inp_files/43483.got.cif
#   From: 2010.05.17/outbox.cif.g08.bks.cpg/sg67_22_cif.got.tgz:43483.got - 2010.06.03 18:28:57.
