data_PCOD9503862
_publ_section_title
;
Structure prediction by ZEFSAII (Michael W. Deem and Ramdas Pophale) SiO2 
 PCOD9503862
Probable space group: C M M A
;
_chemical_formula_sum "Si O2"
_cell_formula_units_Z 56
_cell_length_a 15.288028
_cell_length_b 8.683912
_cell_length_c 20.478855
_cell_angle_alpha 90.000000
_cell_angle_beta 90.000000
_cell_angle_gamma 90.000000
_cell_volume 2718.770533
_symmetry_space_group_name_H-M "C M M A"
_symmetry_group_IT_number 67
_symmetry_cell_setting 'orthorhombic'
loop_
_space_group_symop_operation_xyz
x,y,z
-x,1/2-y,z
x,-y,-z
-x,1/2+y,-z
-x,-y,-z
x,1/2+y,-z
-x,y,z
x,1/2-y,z
1/2+x,1/2+y,z
1/2-x,-y,z
1/2+x,1/2-y,-z
1/2-x,y,-z
1/2-x,1/2-y,-z
1/2+x,y,-z
1/2-x,1/2+y,z
1/2+x,-y,z
loop_
_atom_site_type_symbol
_atom_site_label
_atom_site_fract_x
_atom_site_fract_y
_atom_site_fract_z
Si Si1 0.500000 0.565002 0.073106
Si Si2 0.652671 0.067259 0.699274
Si Si3 0.150772 0.934586 0.164605
Si Si4 0.896545 0.578605 0.434839
O O1 0.500000 0.750000 0.073212
O O2 0.585613 0.502601 0.110838
O O3 0.500000 0.500000 0.000000
O O4 0.652302 0.250000 0.708227
O O5 0.750000 0.000000 0.695494
O O6 0.615273 0.988053 0.764309
O O7 0.612271 0.021062 0.630280
O O8 0.153479 0.750000 0.161565
O O9 0.250000 0.000000 0.157814
O O10 0.859295 0.500000 0.500000
O O11 0.858790 0.750000 0.424495
O O12 0.000000 0.595406 0.445899
#
# Coordination Sequence:
#
# PCOD9503862 Si02
#       4
#     8  16  16  16
#     4  12  26  46  70 102 135 172 217 262 316 382
#     4  11  22  38  60  87 119 157 204 254 308 369
#     4  11  23  43  68  98 134 173 216 267 322 380
#     4  10  21  37  56  81 115 154 200 252 310 370
#
# _framework density 20.597545
#
# number of rings (size 3 to 8) (size 9 to 14) (size 15 to 20)
#    0.000    1.143    0.000    9.000    2.000    2.857 
#    0.000    5.714    0.000    0.000    0.000    0.000 
#    0.000    0.000    0.000    0.000    0.000    0.000 
#
# Total GULP energy -156514.598901 kJ/mol
# GULP energy per Si atom -5589.807104 kJ/mol
# Density = 2.055066 g / cm^3
# Si number density = 20.597545 Si / 1000 Ang^3
#
#
#
# Elastic Constant Matrix: (Units=GPa)
#
#
# Indices 1 2 3 4 5 6 
#
# 1 71.3111 43.8261 55.8723 0.0000 0.0000 0.0000
# 2 43.8261 234.1418 84.8168 0.0000 0.0000 0.0000
# 3 55.8723 84.8168 188.9168 0.0000 0.0000 0.0000
# 4 0.0000 0.0000 0.0000 33.7477 0.0000 0.0000
# 5 0.0000 0.0000 0.0000 0.0000 74.0602 0.0000
# 6 0.0000 0.0000 0.0000 0.0000 0.0000 28.4046
#
#
#
# Elastic Compliance Matrix: (Units=1/GPa)
#
#
# Indices 1 2 3 4 5 6 
#
# 1 0.018870 -0.001804 -0.004771 0.000000 0.000000 0.000000
# 2 -0.001804 0.005273 -0.001834 0.000000 0.000000 0.000000
# 3 -0.004771 -0.001834 0.007528 0.000000 0.000000 0.000000
# 4 0.000000 0.000000 0.000000 0.029632 0.000000 0.000000
# 5 0.000000 0.000000 0.000000 0.000000 0.013503 0.000000
# 6 0.000000 0.000000 0.000000 0.000000 0.000000 0.035206
#
#
# Mechanical properties :
#
#
# Convention : Reuss Voigt Hill
#
# Bulk Modulus (GPa) = 67.32584 95.93336 81.62960
# Shear Modulus (GPa) = 37.94265 47.89945 42.92105
#
# Velocity S-wave (km/s) = 4.29662 4.82757 4.56981
# Velocity P-wave (km/s) = 7.57442 8.81760 8.21955
#
# Compressibility (1/GPa) = 0.01485314
#
# Stress axis : x y z
#
# Youngs Moduli (GPa) = 52.99532 189.65096 132.84326
#
# Poissons Ratio (x) = 0.34208 0.63378
# Poissons Ratio (y) = 0.09559 0.24362
# Poissons Ratio (z) = 0.25283 0.34779
#
# Static dielectric constant tensor:
#      x y z
#    x 1.716970 0.000000 0.000000 
#    y 0.000000 1.721700 0.000000 
#    z 0.000000 0.000000 1.745500 
# 
# From -- ./inp_files/31601.got.cif
#   From: 2010.05.17/outbox.cif.g08.bks.cpg/sg67_16_cif.got.tgz:31601.got - 2010.06.03 18:28:57.
