data_PCOD9503448
_publ_section_title
;
Structure prediction by ZEFSAII (Michael W. Deem and Ramdas Pophale) SiO2 
 PCOD9503448
Probable space group: C M M A
;
_chemical_formula_sum "Si O2"
_cell_formula_units_Z 68
_cell_length_a 17.371369
_cell_length_b 14.250633
_cell_length_c 15.111048
_cell_angle_alpha 90.000000
_cell_angle_beta 90.000000
_cell_angle_gamma 90.000000
_cell_volume 3740.785331
_symmetry_space_group_name_H-M "C M M A"
_symmetry_group_IT_number 67
_symmetry_cell_setting 'orthorhombic'
loop_
_space_group_symop_operation_xyz
x,y,z
-x,1/2-y,z
x,-y,-z
-x,1/2+y,-z
-x,-y,-z
x,1/2+y,-z
-x,y,z
x,1/2-y,z
1/2+x,1/2+y,z
1/2-x,-y,z
1/2+x,1/2-y,-z
1/2-x,y,-z
1/2-x,1/2-y,-z
1/2+x,y,-z
1/2-x,1/2+y,z
1/2+x,-y,z
loop_
_atom_site_type_symbol
_atom_site_label
_atom_site_fract_x
_atom_site_fract_y
_atom_site_fract_z
Si Si1 0.250000 0.000000 0.000000
Si Si2 0.686041 0.076677 0.678815
Si Si3 0.168815 0.250000 0.450357
Si Si4 0.408583 0.080645 0.237552
Si Si5 0.263324 0.641192 0.858890
Si Si6 0.090457 0.750000 0.365431
O O1 0.281463 0.076483 0.929423
O O2 0.664614 0.156096 0.608610
O O3 0.723705 0.126047 0.764221
O O4 0.750000 0.000000 0.646478
O O5 0.614601 0.017166 0.716962
O O6 0.250000 0.250000 0.500000
O O7 0.111486 0.250000 0.532579
O O8 0.500000 0.086956 0.218359
O O9 0.350935 0.102669 0.155762
O O10 0.384800 0.159101 0.310353
O O11 0.264597 0.750000 0.882842
O O12 0.000000 0.750000 0.359213
#
# Coordination Sequence:
#
# PCOD9503448 Si02
#       6
#     4  16   8  16  16   8
#     4  12  22  36  62  94 118 136 184 252 284 342
#     4  10  21  36  57  81 117 151 193 236 292 343
#     4  12  22  34  56  84 115 151 200 249 277 330
#     4  10  20  38  61  82 114 157 194 232 285 349
#     4  11  20  37  61  88 112 147 189 233 294 343
#     4  10  22  36  56  84 113 152 200 238 277 332
#
# _framework density 18.178000999999998
#
# number of rings (size 3 to 8) (size 9 to 14) (size 15 to 20)
#    0.000    1.412    5.882    3.176    0.000    4.235 
#    0.000    2.941    0.000    0.000    0.000    0.000 
#    0.000    0.000    0.000    0.000    0.000    0.000 
#
# Total GULP energy -189278.862372 kJ/mol
# GULP energy per Si atom -5567.025364 kJ/mol
# Density = 1.813663 g / cm^3
# Si number density = 18.178001 Si / 1000 Ang^3
#
#
#
# Elastic Constant Matrix: (Units=GPa)
#
#
# Indices 1 2 3 4 5 6 
#
# 1 50.9148 25.6170 17.8156 0.0000 0.0000 0.0000
# 2 25.6170 141.1271 35.9558 0.0000 0.0000 0.0000
# 3 17.8156 35.9558 67.5350 0.0000 0.0000 0.0000
# 4 0.0000 0.0000 0.0000 26.6670 0.0000 0.0000
# 5 0.0000 0.0000 0.0000 0.0000 1.3486 0.0000
# 6 0.0000 0.0000 0.0000 0.0000 0.0000 23.3185
#
#
#
# Elastic Compliance Matrix: (Units=1/GPa)
#
#
# Indices 1 2 3 4 5 6 
#
# 1 0.022685 -0.003000 -0.004387 0.000000 0.000000 0.000000
# 2 -0.003000 0.008595 -0.003784 0.000000 0.000000 0.000000
# 3 -0.004387 -0.003784 0.017979 0.000000 0.000000 0.000000
# 4 0.000000 0.000000 0.000000 0.037500 0.000000 0.000000
# 5 0.000000 0.000000 0.000000 0.000000 0.741501 0.000000
# 6 0.000000 0.000000 0.000000 0.000000 0.000000 0.042884
#
#
# Mechanical properties :
#
#
# Convention : Reuss Voigt Hill
#
# Bulk Modulus (GPa) = 37.15262 46.48377 41.81819
# Shear Modulus (GPa) = 5.54042 22.27938 13.90990
#
# Velocity S-wave (km/s) = 1.74771 3.50469 2.76924
# Velocity P-wave (km/s) = 4.95533 6.48106 5.76885
#
# Compressibility (1/GPa) = 0.02691600
#
# Stress axis : x y z
#
# Youngs Moduli (GPa) = 44.08168 116.35311 55.61975
#
# Poissons Ratio (x) = 0.34906 0.24401
# Poissons Ratio (y) = 0.13225 0.21048
# Poissons Ratio (z) = 0.19339 0.44032
#
# Static dielectric constant tensor:
#      x y z
#    x 1.570770 0.000000 0.000000 
#    y 0.000000 1.673320 0.000000 
#    z 0.000000 0.000000 1.584080 
# 
# From -- ./inp_files/20440.got.cif
#   From: 2010.05.17/outbox.cif.g08.bks.cpg/sg67_11_cif.got.tgz:20440.got - 2010.06.03 18:28:57.
