data_PCOD9503526
_publ_section_title
;
Structure prediction by ZEFSAII (Michael W. Deem and Ramdas Pophale) SiO2 
 PCOD9503526
Probable space group: C M M A
;
_chemical_formula_sum "Si O2"
_cell_formula_units_Z 80
_cell_length_a 18.516761
_cell_length_b 18.205700
_cell_length_c 12.609956
_cell_angle_alpha 90.000000
_cell_angle_beta 90.000000
_cell_angle_gamma 90.000000
_cell_volume 4250.949779
_symmetry_space_group_name_H-M "C M M A"
_symmetry_group_IT_number 67
_symmetry_cell_setting 'orthorhombic'
loop_
_space_group_symop_operation_xyz
x,y,z
-x,1/2-y,z
x,-y,-z
-x,1/2+y,-z
-x,-y,-z
x,1/2+y,-z
-x,y,z
x,1/2-y,z
1/2+x,1/2+y,z
1/2-x,-y,z
1/2+x,1/2-y,-z
1/2-x,y,-z
1/2-x,1/2-y,-z
1/2+x,y,-z
1/2-x,1/2+y,z
1/2+x,-y,z
loop_
_atom_site_type_symbol
_atom_site_label
_atom_site_fract_x
_atom_site_fract_y
_atom_site_fract_z
Si Si1 0.416520 0.074045 0.752038
Si Si2 0.086064 0.921439 0.126740
Si Si3 0.652629 0.162470 0.925350
Si Si4 0.718521 0.424200 0.618302
Si Si5 0.709712 0.835331 0.790070
O O1 0.500000 0.072421 0.723728
O O2 0.395987 0.144849 0.822218
O O3 0.365716 0.071436 0.648388
O O4 0.402912 0.004953 0.832668
O O5 0.132957 0.874708 0.209018
O O6 0.000000 0.909100 0.122697
O O7 0.121049 0.889725 0.017890
O O8 0.650398 0.250000 0.952170
O O9 0.733633 0.143130 0.883906
O O10 0.750000 0.500000 0.666219
O O11 0.750000 0.420827 0.500000
O O12 0.750030 0.356646 0.683157
O O13 0.698684 0.750000 0.801158
#
# Coordination Sequence:
#
# PCOD9503526 Si02
#       5
#    16  16  16  16  16
#     4  10  21  37  57  85 116 146 186 234 282 330
#     4  11  21  34  53  81 115 153 190 227 272 328
#     4  10  21  35  55  81 115 156 193 227 270 328
#     4  10  20  39  62  81 106 142 190 234 280 341
#     4  10  21  37  56  82 113 147 188 232 279 333
#
# _framework density 18.819324000000002
#
# number of rings (size 3 to 8) (size 9 to 14) (size 15 to 20)
#    0.000    1.800    2.000    2.400    0.000    6.400 
#    0.000    5.000    0.000    0.000    0.000    0.000 
#    0.000    0.000    0.000    0.000    0.000    0.000 
#
# Total GULP energy -222728.441719 kJ/mol
# GULP energy per Si atom -5568.211043 kJ/mol
# Density = 1.877649 g / cm^3
# Si number density = 18.819324 Si / 1000 Ang^3
#
#
#
# Elastic Constant Matrix: (Units=GPa)
#
#
# Indices 1 2 3 4 5 6 
#
# 1 111.8858 48.0808 51.6210 0.0000 0.0000 0.0000
# 2 48.0808 55.9809 27.9760 0.0000 0.0000 0.0000
# 3 51.6210 27.9760 81.4956 0.0000 0.0000 0.0000
# 4 0.0000 0.0000 0.0000 32.2637 0.0000 0.0000
# 5 0.0000 0.0000 0.0000 0.0000 24.9369 0.0000
# 6 0.0000 0.0000 0.0000 0.0000 0.0000 13.5047
#
#
#
# Elastic Compliance Matrix: (Units=1/GPa)
#
#
# Indices 1 2 3 4 5 6 
#
# 1 0.016860 -0.011037 -0.006890 0.000000 0.000000 0.000000
# 2 -0.011037 0.028787 -0.002891 0.000000 0.000000 0.000000
# 3 -0.006890 -0.002891 0.017628 0.000000 0.000000 0.000000
# 4 0.000000 0.000000 0.000000 0.030995 0.000000 0.000000
# 5 0.000000 0.000000 0.000000 0.000000 0.040101 0.000000
# 6 0.000000 0.000000 0.000000 0.000000 0.000000 0.074048
#
#
# Mechanical properties :
#
#
# Convention : Reuss Voigt Hill
#
# Bulk Modulus (GPa) = 46.21590 56.07975 51.14783
# Shear Modulus (GPa) = 19.43496 22.25339 20.84417
#
# Velocity S-wave (km/s) = 3.21707 3.44244 3.33166
# Velocity P-wave (km/s) = 6.19761 6.75754 6.48362
#
# Compressibility (1/GPa) = 0.02163757
#
# Stress axis : x y z
#
# Youngs Moduli (GPa) = 59.31312 34.73732 56.72902
#
# Poissons Ratio (x) = 0.38339 0.39089
# Poissons Ratio (y) = 0.65464 0.16401
# Poissons Ratio (z) = 0.40870 0.10043
#
# Static dielectric constant tensor:
#      x y z
#    x 1.661160 0.000000 0.000000 
#    y 0.000000 1.659930 0.000000 
#    z 0.000000 0.000000 1.700380 
# 
# From -- ./inp_files/28405.got.cif
#   From: 2010.05.17/outbox.cif.g08.bks.cpg/sg67_15_cif.got.tgz:28405.got - 2010.06.03 18:28:57.
