data_PCOD9503845
_publ_section_title
;
Structure prediction by ZEFSAII (Michael W. Deem and Ramdas Pophale) SiO2 
 PCOD9503845
Probable space group: C M M A
;
_chemical_formula_sum "Si O2"
_cell_formula_units_Z 80
_cell_length_a 13.823390
_cell_length_b 20.300014
_cell_length_c 12.658293
_cell_angle_alpha 90.000000
_cell_angle_beta 90.000000
_cell_angle_gamma 90.000000
_cell_volume 3552.107023
_symmetry_space_group_name_H-M "C M M A"
_symmetry_group_IT_number 67
_symmetry_cell_setting 'orthorhombic'
loop_
_space_group_symop_operation_xyz
x,y,z
-x,1/2-y,z
x,-y,-z
-x,1/2+y,-z
-x,-y,-z
x,1/2+y,-z
-x,y,z
x,1/2-y,z
1/2+x,1/2+y,z
1/2-x,-y,z
1/2+x,1/2-y,-z
1/2-x,y,-z
1/2-x,1/2-y,-z
1/2+x,y,-z
1/2-x,1/2+y,z
1/2+x,-y,z
loop_
_atom_site_type_symbol
_atom_site_label
_atom_site_fract_x
_atom_site_fract_y
_atom_site_fract_z
Si Si1 0.617069 0.324158 0.541254
Si Si2 0.109520 0.828554 0.296090
Si Si3 0.883197 0.963635 0.606319
Si Si4 0.386082 0.991102 0.162939
Si Si5 0.235970 0.387757 0.887547
O O1 0.500000 0.320665 0.550219
O O2 0.653357 0.250000 0.566698
O O3 0.635958 0.341376 0.418308
O O4 0.650354 0.387621 0.606824
O O5 0.101750 0.750000 0.290541
O O6 0.185118 0.849768 0.207418
O O7 0.000000 0.856309 0.277083
O O8 0.861152 0.002921 0.712965
O O9 0.000000 0.960660 0.602992
O O10 0.852625 0.000000 0.500000
O O11 0.500000 0.990512 0.147130
O O12 0.337968 0.920660 0.141695
O O13 0.335036 0.048841 0.097993
O O14 0.250000 0.352673 0.000000
#
# Coordination Sequence:
#
# PCOD9503845 Si02
#       5
#    16  16  16  16  16
#     4   8  14  27  50  80 112 146 182 220 270 333
#     4   9  18  35  60  86 112 145 185 229 276 330
#     4   9  16  28  50  77 106 142 181 224 275 334
#     4  10  21  37  55  78 109 143 181 225 280 341
#     4  11  23  37  56  80 107 141 185 241 289 328
#
# _framework density 22.521844000000002
#
# number of rings (size 3 to 8) (size 9 to 14) (size 15 to 20)
#    0.000    2.600    0.000    4.200    0.000    6.000 
#    0.000    8.000    0.000    4.200    0.000    0.000 
#    0.000    0.000    0.000    0.000    0.000    0.000 
#
# Total GULP energy -223475.847226 kJ/mol
# GULP energy per Si atom -5586.896181 kJ/mol
# Density = 2.247058 g / cm^3
# Si number density = 22.521844 Si / 1000 Ang^3
#
#
#
# Elastic Constant Matrix: (Units=GPa)
#
#
# Indices 1 2 3 4 5 6 
#
# 1 115.1125 9.0350 -2.1217 0.0000 0.0000 0.0000
# 2 9.0350 58.8854 20.0044 0.0000 0.0000 0.0000
# 3 -2.1217 20.0044 98.2880 0.0000 0.0000 0.0000
# 4 0.0000 0.0000 0.0000 31.4074 0.0000 0.0000
# 5 0.0000 0.0000 0.0000 0.0000 22.5889 0.0000
# 6 0.0000 0.0000 0.0000 0.0000 0.0000 16.8102
#
#
#
# Elastic Compliance Matrix: (Units=1/GPa)
#
#
# Indices 1 2 3 4 5 6 
#
# 1 0.008816 -0.001523 0.000500 0.000000 0.000000 0.000000
# 2 -0.001523 0.018506 -0.003799 0.000000 0.000000 0.000000
# 3 0.000500 -0.003799 0.010958 0.000000 0.000000 0.000000
# 4 0.000000 0.000000 0.000000 0.031840 0.000000 0.000000
# 5 0.000000 0.000000 0.000000 0.000000 0.044270 0.000000
# 6 0.000000 0.000000 0.000000 0.000000 0.000000 0.059488
#
#
# Mechanical properties :
#
#
# Convention : Reuss Voigt Hill
#
# Bulk Modulus (GPa) = 34.91994 36.23572 35.57783
# Shear Modulus (GPa) = 25.89778 30.51919 28.20848
#
# Velocity S-wave (km/s) = 3.39469 3.68515 3.54290
# Velocity P-wave (km/s) = 5.55912 5.85074 5.70679
#
# Compressibility (1/GPa) = 0.02863693
#
# Stress axis : x y z
#
# Youngs Moduli (GPa) = 113.43168 54.03509 91.25522
#
# Poissons Ratio (x) = 0.08227 -0.04565
# Poissons Ratio (y) = 0.17271 0.34672
# Poissons Ratio (z) = -0.05674 0.20530
#
# Static dielectric constant tensor:
#      x y z
#    x 1.865500 0.000000 0.000000 
#    y 0.000000 1.836030 0.000000 
#    z 0.000000 0.000000 1.854070 
# 
# From -- ./inp_files/17910.got.cif
#   From: 2010.05.17/outbox.cif.g08.bks.cpg/sg67_9_cif.got.tgz:17910.got - 2010.06.03 18:28:57.
