data_PCOD9503343
_publ_section_title
;
Structure prediction by ZEFSAII (Michael W. Deem and Ramdas Pophale) SiO2 
 PCOD9503343
Probable space group: C M M A
;
_chemical_formula_sum "Si O2"
_cell_formula_units_Z 72
_cell_length_a 27.891273
_cell_length_b 8.508725
_cell_length_c 14.025666
_cell_angle_alpha 90.000000
_cell_angle_beta 90.000000
_cell_angle_gamma 90.000000
_cell_volume 3328.559440
_symmetry_space_group_name_H-M "C M M A"
_symmetry_group_IT_number 67
_symmetry_cell_setting 'orthorhombic'
loop_
_space_group_symop_operation_xyz
x,y,z
-x,1/2-y,z
x,-y,-z
-x,1/2+y,-z
-x,-y,-z
x,1/2+y,-z
-x,y,z
x,1/2-y,z
1/2+x,1/2+y,z
1/2-x,-y,z
1/2+x,1/2-y,-z
1/2-x,y,-z
1/2-x,1/2-y,-z
1/2+x,y,-z
1/2-x,1/2+y,z
1/2+x,-y,z
loop_
_atom_site_type_symbol
_atom_site_label
_atom_site_fract_x
_atom_site_fract_y
_atom_site_fract_z
Si Si1 0.551363 0.059914 0.609214
Si Si2 0.395197 0.938893 0.108228
Si Si3 0.800036 0.064432 0.791149
Si Si4 0.000000 0.059681 0.109698
Si Si5 0.657825 0.438876 0.607406
O O1 0.500000 0.008571 0.652019
O O2 0.551335 0.250000 0.611000
O O3 0.604137 0.012177 0.643036
O O4 0.550580 0.000000 0.500000
O O5 0.393982 0.750000 0.110837
O O6 0.447701 0.988416 0.149577
O O7 0.347455 0.000135 0.157734
O O8 0.394424 0.000000 0.000000
O O9 0.799682 0.250000 0.796946
O O10 0.750000 0.000000 0.831279
O O11 0.805302 0.009419 0.681812
O O12 0.000000 0.250000 0.110791
O O13 0.000000 0.000000 0.000000
O O14 0.664055 0.500000 0.500000
O O15 0.660425 0.250000 0.608058
#
# Coordination Sequence:
#
# PCOD9503343 Si02
#       5
#    16  16  16   8  16
#     4   8  14  26  47  75 107 144 184 229 283 344
#     4  10  20  39  66  98 131 166 203 246 301 362
#     4  12  26  44  63  87 120 160 209 263 313 367
#     4   8  16  32  60  94 129 164 199 240 292 356
#     4  10  20  37  60  86 118 157 204 255 309 367
#
# _framework density 21.630980000000001
#
# number of rings (size 3 to 8) (size 9 to 14) (size 15 to 20)
#    0.000    2.222    0.000    3.333    0.000    2.667 
#    2.000    4.444    0.000    0.000    0.000    0.000 
#    0.000    0.000    0.000    0.000    0.000    0.000 
#
# Total GULP energy -200933.415859 kJ/mol
# GULP energy per Si atom -5581.483774 kJ/mol
# Density = 2.158175 g / cm^3
# Si number density = 21.630980 Si / 1000 Ang^3
#
#
#
# Elastic Constant Matrix: (Units=GPa)
#
#
# Indices 1 2 3 4 5 6 
#
# 1 217.7958 60.5717 63.0743 0.0000 0.0000 0.0000
# 2 60.5717 82.4599 20.2675 0.0000 0.0000 0.0000
# 3 63.0743 20.2675 64.5878 0.0000 0.0000 0.0000
# 4 0.0000 0.0000 0.0000 23.8633 0.0000 0.0000
# 5 0.0000 0.0000 0.0000 0.0000 33.3478 0.0000
# 6 0.0000 0.0000 0.0000 0.0000 0.0000 24.2774
#
#
#
# Elastic Compliance Matrix: (Units=1/GPa)
#
#
# Indices 1 2 3 4 5 6 
#
# 1 0.007443 -0.003989 -0.006017 0.000000 0.000000 0.000000
# 2 -0.003989 0.015278 -0.000899 0.000000 0.000000 0.000000
# 3 -0.006017 -0.000899 0.021641 0.000000 0.000000 0.000000
# 4 0.000000 0.000000 0.000000 0.041905 0.000000 0.000000
# 5 0.000000 0.000000 0.000000 0.000000 0.029987 0.000000
# 6 0.000000 0.000000 0.000000 0.000000 0.000000 0.041191
#
#
# Mechanical properties :
#
#
# Convention : Reuss Voigt Hill
#
# Bulk Modulus (GPa) = 44.34080 72.51897 58.42989
# Shear Modulus (GPa) = 26.77046 31.02637 28.89841
#
# Velocity S-wave (km/s) = 3.52177 3.79139 3.65906
# Velocity P-wave (km/s) = 6.08937 7.26392 6.70242
#
# Compressibility (1/GPa) = 0.02255259
#
# Stress axis : x y z
#
# Youngs Moduli (GPa) = 134.34747 65.45378 46.20804
#
# Poissons Ratio (x) = 0.26107 0.27805
# Poissons Ratio (y) = 0.53586 0.04154
# Poissons Ratio (z) = 0.80841 0.05885
#
# Static dielectric constant tensor:
#      x y z
#    x 1.844540 0.000000 0.000000 
#    y 0.000000 1.753990 0.000000 
#    z 0.000000 0.000000 1.869510 
# 
# From -- ./inp_files/30547.got.cif
#   From: 2010.05.17/outbox.cif.g08.bks.cpg/sg67_16_cif.got.tgz:30547.got - 2010.06.03 18:28:57.
