data_PCOD9503547
_publ_section_title
;
Structure prediction by ZEFSAII (Michael W. Deem and Ramdas Pophale) SiO2 
 PCOD9503547
Probable space group: C M M A
;
_chemical_formula_sum "Si O2"
_cell_formula_units_Z 112
_cell_length_a 25.603727
_cell_length_b 18.653994
_cell_length_c 12.298409
_cell_angle_alpha 90.000000
_cell_angle_beta 90.000000
_cell_angle_gamma 90.000000
_cell_volume 5873.864889
_symmetry_space_group_name_H-M "C M M A"
_symmetry_group_IT_number 67
_symmetry_cell_setting 'orthorhombic'
loop_
_space_group_symop_operation_xyz
x,y,z
-x,1/2-y,z
x,-y,-z
-x,1/2+y,-z
-x,-y,-z
x,1/2+y,-z
-x,y,z
x,1/2-y,z
1/2+x,1/2+y,z
1/2-x,-y,z
1/2+x,1/2-y,-z
1/2-x,y,-z
1/2-x,1/2-y,-z
1/2+x,y,-z
1/2-x,1/2+y,z
1/2+x,-y,z
loop_
_atom_site_type_symbol
_atom_site_label
_atom_site_fract_x
_atom_site_fract_y
_atom_site_fract_z
Si Si1 0.058107 0.887141 0.709996
Si Si2 0.652819 0.333083 0.849076
Si Si3 0.299029 0.833415 0.580735
Si Si4 0.098390 0.915992 0.477916
Si Si5 0.440767 0.556657 0.759717
Si Si6 0.355262 0.922411 0.942276
Si Si7 0.742011 0.916798 0.789121
O O1 0.105096 0.845248 0.766325
O O2 0.064942 0.888896 0.579824
O O3 0.000000 0.861273 0.738606
O O4 0.062740 0.970162 0.748298
O O5 0.667651 0.250000 0.851766
O O6 0.702572 0.380687 0.814583
O O7 0.636112 0.362451 0.966798
O O8 0.309910 0.750000 0.602887
O O9 0.250000 0.837714 0.500000
O O10 0.348587 0.871434 0.527487
O O11 0.284434 0.874760 0.690344
O O12 0.070991 0.912710 0.360425
O O13 0.109845 0.000000 0.500000
O O14 0.500000 0.574529 0.792503
O O15 0.397762 0.580745 0.846327
O O16 0.297858 0.914613 0.890118
O O17 0.359021 0.000000 0.000000
O O18 0.750000 0.000000 0.760013
#
# Coordination Sequence:
#
# PCOD9503547 Si02
#       7
#    16  16  16  16  16  16  16
#     4  10  21  40  67  95 130 170 214 271 327 383
#     4  12  27  43  64  97 135 170 215 267 327 387
#     4  11  25  40  60  94 136 173 210 263 331 394
#     4  10  21  38  64  97 128 166 221 269 322 389
#     4  10  20  39  67  99 129 165 219 277 325 378
#     4  12  23  42  66  98 127 171 221 267 318 382
#     4  12  24  41  69  95 126 171 220 268 315 385
#
# _framework density 19.067513000000002
#
# number of rings (size 3 to 8) (size 9 to 14) (size 15 to 20)
#    0.000    1.000    4.286    2.143    4.000    6.286 
#    0.000    0.000    0.000    2.143    0.000    0.000 
#    0.000    0.000    0.000    0.000    0.000    0.000 
#
# Total GULP energy -313115.417396 kJ/mol
# GULP energy per Si atom -5591.346739 kJ/mol
# Density = 1.902411 g / cm^3
# Si number density = 19.067513 Si / 1000 Ang^3
#
#
#
# Elastic Constant Matrix: (Units=GPa)
#
#
# Indices 1 2 3 4 5 6 
#
# 1 135.5145 43.4364 42.5626 0.0000 0.0000 0.0000
# 2 43.4364 85.2325 37.5801 0.0000 0.0000 0.0000
# 3 42.5626 37.5801 86.3950 0.0000 0.0000 0.0000
# 4 0.0000 0.0000 0.0000 -13.4228 0.0000 0.0000
# 5 0.0000 0.0000 0.0000 0.0000 18.4420 0.0000
# 6 0.0000 0.0000 0.0000 0.0000 0.0000 -2.7719
#
#
#
# Elastic Compliance Matrix: (Units=1/GPa)
#
#
# Indices 1 2 3 4 5 6 
#
# 1 0.009476 -0.003428 -0.003177 0.000000 0.000000 0.000000
# 2 -0.003428 0.015757 -0.005165 0.000000 0.000000 0.000000
# 3 -0.003177 -0.005165 0.015387 0.000000 0.000000 0.000000
# 4 0.000000 0.000000 0.000000 -0.074500 0.000000 0.000000
# 5 0.000000 0.000000 0.000000 0.000000 0.054224 0.000000
# 6 0.000000 0.000000 0.000000 0.000000 0.000000 -0.360762
#
#
# Mechanical properties :
#
#
# Convention : Reuss Voigt Hill
#
# Bulk Modulus (GPa) = 58.55229 61.58892 60.07060
# Shear Modulus (GPa) = -16.06766 12.68698 -1.69034
#
# Velocity S-wave (km/s) = -2.90603 2.58228 -0.94256
# Velocity P-wave (km/s) = 4.41753 6.42351 5.51253
#
# Compressibility (1/GPa) = 0.01707875
#
# Stress axis : x y z
#
# Youngs Moduli (GPa) = 105.52914 63.46337 64.99141
#
# Poissons Ratio (x) = 0.21758 0.20649
# Poissons Ratio (y) = 0.36179 0.33568
# Poissons Ratio (z) = 0.33528 0.32779
#
# Static dielectric constant tensor:
#      x y z
#    x 1.650580 0.000000 0.000000 
#    y 0.000000 1.635480 0.000000 
#    z 0.000000 0.000000 1.661840 
# 
# From -- ./inp_files/22139.got.cif
#   From: 2010.05.17/outbox.cif.g08.bks.cpg/sg67_12_cif.got.tgz:22139.got - 2010.06.03 18:28:57.
