data_PCOD9503564
_publ_section_title
;
Structure prediction by ZEFSAII (Michael W. Deem and Ramdas Pophale) SiO2 
 PCOD9503564
Probable space group: C M M A
;
_chemical_formula_sum "Si O2"
_cell_formula_units_Z 96
_cell_length_a 24.140430
_cell_length_b 18.169961
_cell_length_c 12.384545
_cell_angle_alpha 90.000000
_cell_angle_beta 90.000000
_cell_angle_gamma 90.000000
_cell_volume 5432.241291
_symmetry_space_group_name_H-M "C M M A"
_symmetry_group_IT_number 67
_symmetry_cell_setting 'orthorhombic'
loop_
_space_group_symop_operation_xyz
x,y,z
-x,1/2-y,z
x,-y,-z
-x,1/2+y,-z
-x,-y,-z
x,1/2+y,-z
-x,y,z
x,1/2-y,z
1/2+x,1/2+y,z
1/2-x,-y,z
1/2+x,1/2-y,-z
1/2-x,y,-z
1/2-x,1/2-y,-z
1/2+x,y,-z
1/2-x,1/2+y,z
1/2+x,-y,z
loop_
_atom_site_type_symbol
_atom_site_label
_atom_site_fract_x
_atom_site_fract_y
_atom_site_fract_z
Si Si1 0.685029 0.662823 0.656560
Si Si2 0.119811 0.584010 0.535687
Si Si3 0.384065 0.161844 0.132434
Si Si4 0.309734 0.584975 0.036611
Si Si5 0.288243 0.925654 0.287646
Si Si6 0.500000 0.660925 0.753512
Si Si7 0.500000 0.089067 0.485981
O O1 0.680113 0.750000 0.647614
O O2 0.654146 0.625974 0.556487
O O3 0.655903 0.639090 0.768576
O O4 0.747868 0.637123 0.666707
O O5 0.113932 0.500000 0.500000
O O6 0.156623 0.577810 0.641866
O O7 0.057514 0.615639 0.539482
O O8 0.381374 0.250000 0.120374
O O9 0.445577 0.143697 0.175297
O O10 0.359830 0.125218 0.024626
O O11 0.306699 0.586185 0.165093
O O12 0.311659 0.500000 0.000000
O O13 0.250000 0.616701 0.000000
O O14 0.250000 0.000000 0.296088
O O15 0.500000 0.750000 0.731004
O O16 0.500000 0.616814 0.639503
O O17 0.500000 0.000000 0.500000
#
# Coordination Sequence:
#
# PCOD9503564 Si02
#       7
#    16  16  16  16  16   8   8
#     4  11  22  36  59  90 118 148 199 253 297 360
#     4  11  23  37  58  84 118 160 198 242 302 360
#     4  10  21  38  63  90 116 152 203 252 298 353
#     4  11  21  36  58  85 119 156 199 244 291 360
#     4  12  22  37  58  86 122 166 196 238 311 372
#     4  10  20  40  66  88 118 160 205 254 304 357
#     4  10  22  36  57  88 117 154 202 254 289 356
#
# _framework density 17.672263000000001
#
# number of rings (size 3 to 8) (size 9 to 14) (size 15 to 20)
#    0.000    1.167    6.667    0.500    0.000    2.333 
#    0.000    1.250    0.000    0.000    0.000    0.000 
#    0.000    0.000    0.000    0.000    0.000    0.000 
#
# Total GULP energy -267728.935376 kJ/mol
# GULP energy per Si atom -5577.686154 kJ/mol
# Density = 1.763204 g / cm^3
# Si number density = 17.672263 Si / 1000 Ang^3
#
#
#
# Elastic Constant Matrix: (Units=GPa)
#
#
# Indices 1 2 3 4 5 6 
#
# 1 159.3388 22.6814 87.1701 0.0000 0.0000 0.0000
# 2 22.6814 40.7825 28.7084 0.0000 0.0000 0.0000
# 3 87.1701 28.7084 126.1198 0.0000 0.0000 0.0000
# 4 0.0000 0.0000 0.0000 27.0122 0.0000 0.0000
# 5 0.0000 0.0000 0.0000 0.0000 27.0454 0.0000
# 6 0.0000 0.0000 0.0000 0.0000 0.0000 7.9708
#
#
#
# Elastic Compliance Matrix: (Units=1/GPa)
#
#
# Indices 1 2 3 4 5 6 
#
# 1 0.010116 -0.000839 -0.006801 0.000000 0.000000 0.000000
# 2 -0.000839 0.029269 -0.006083 0.000000 0.000000 0.000000
# 3 -0.006801 -0.006083 0.014014 0.000000 0.000000 0.000000
# 4 0.000000 0.000000 0.000000 0.037020 0.000000 0.000000
# 5 0.000000 0.000000 0.000000 0.000000 0.036975 0.000000
# 6 0.000000 0.000000 0.000000 0.000000 0.000000 0.125457
#
#
# Mechanical properties :
#
#
# Convention : Reuss Voigt Hill
#
# Bulk Modulus (GPa) = 38.52944 67.04010 52.78477
# Shear Modulus (GPa) = 17.30420 24.91776 21.11098
#
# Velocity S-wave (km/s) = 3.13257 3.75906 3.46002
# Velocity P-wave (km/s) = 5.91046 7.54044 6.77465
#
# Compressibility (1/GPa) = 0.02595418
#
# Stress axis : x y z
#
# Youngs Moduli (GPa) = 98.85415 34.16627 71.35632
#
# Poissons Ratio (x) = 0.02865 0.48529
# Poissons Ratio (y) = 0.08290 0.43404
# Poissons Ratio (z) = 0.67230 0.20783
#
# Static dielectric constant tensor:
#      x y z
#    x 1.649070 0.000000 0.000000 
#    y 0.000000 1.606370 0.000000 
#    z 0.000000 0.000000 1.608700 
# 
# From -- ./inp_files/21996.got.cif
#   From: 2010.05.17/outbox.cif.g08.bks.cpg/sg67_11_cif.got.tgz:21996.got - 2010.06.03 18:28:57.
