data_PCOD9503007
_publ_section_title
;
Structure prediction by ZEFSAII (Michael W. Deem and Ramdas Pophale) SiO2 
 PCOD9503007
Probable space group: C M M A
;
_chemical_formula_sum "Si O2"
_cell_formula_units_Z 80
_cell_length_a 26.643921
_cell_length_b 15.221842
_cell_length_c 8.738113
_cell_angle_alpha 90.000000
_cell_angle_beta 90.000000
_cell_angle_gamma 90.000000
_cell_volume 3543.912607
_symmetry_space_group_name_H-M "C M M A"
_symmetry_group_IT_number 67
_symmetry_cell_setting 'orthorhombic'
loop_
_space_group_symop_operation_xyz
x,y,z
-x,1/2-y,z
x,-y,-z
-x,1/2+y,-z
-x,-y,-z
x,1/2+y,-z
-x,y,z
x,1/2-y,z
1/2+x,1/2+y,z
1/2-x,-y,z
1/2+x,1/2-y,-z
1/2-x,y,-z
1/2-x,1/2-y,-z
1/2+x,y,-z
1/2-x,1/2+y,z
1/2+x,-y,z
loop_
_atom_site_type_symbol
_atom_site_label
_atom_site_fract_x
_atom_site_fract_y
_atom_site_fract_z
Si Si1 0.740069 0.143868 0.821233
Si Si2 0.150360 0.081675 0.382707
Si Si3 0.557634 0.145258 0.795170
Si Si4 0.555361 0.356765 0.156133
Si Si5 0.844222 0.347598 0.690550
O O1 0.732671 0.250000 0.801589
O O2 0.693129 0.095598 0.743958
O O3 0.791098 0.113448 0.738616
O O4 0.750000 0.127547 0.000000
O O5 0.097120 0.090757 0.301087
O O6 0.154123 0.157701 0.509107
O O7 0.155417 0.000000 0.500000
O O8 0.500000 0.130593 0.748968
O O9 0.568057 0.250000 0.778712
O O10 0.561678 0.124880 0.976004
O O11 0.500000 0.389834 0.204569
O O12 0.553491 0.250000 0.172969
O O13 0.604352 0.388813 0.246168
O O14 0.842895 0.250000 0.761043
#
# Coordination Sequence:
#
# PCOD9503007 Si02
#       5
#    16  16  16  16  16
#     4  10  21  40  66  88 109 149 210 270 313 363
#     4  12  25  38  54  84 127 163 195 245 321 392
#     4   9  18  36  62  86 112 155 209 257 298 353
#     4   8  15  31  58  90 118 147 194 253 304 353
#     4  10  20  35  58  86 114 148 195 251 310 371
#
# _framework density 22.573920999999999
#
# number of rings (size 3 to 8) (size 9 to 14) (size 15 to 20)
#    0.000    2.200    0.000    4.800    0.000    7.600 
#    0.000    7.000    0.000    2.400    0.000    0.000 
#    0.000    0.000    0.000    0.000    0.000    0.000 
#
# Total GULP energy -223332.533070 kJ/mol
# GULP energy per Si atom -5583.313327 kJ/mol
# Density = 2.252254 g / cm^3
# Si number density = 22.573921 Si / 1000 Ang^3
#
#
#
# Elastic Constant Matrix: (Units=GPa)
#
#
# Indices 1 2 3 4 5 6 
#
# 1 162.8021 36.6225 79.5955 0.0000 0.0000 0.0000
# 2 36.6225 92.0740 30.1399 0.0000 0.0000 0.0000
# 3 79.5955 30.1399 99.6756 0.0000 0.0000 0.0000
# 4 0.0000 0.0000 0.0000 15.8904 0.0000 0.0000
# 5 0.0000 0.0000 0.0000 0.0000 164.5525 0.0000
# 6 0.0000 0.0000 0.0000 0.0000 0.0000 4.3104
#
#
#
# Elastic Compliance Matrix: (Units=1/GPa)
#
#
# Indices 1 2 3 4 5 6 
#
# 1 0.010273 -0.001555 -0.007733 0.000000 0.000000 0.000000
# 2 -0.001555 0.012289 -0.002475 0.000000 0.000000 0.000000
# 3 -0.007733 -0.002475 0.016956 0.000000 0.000000 0.000000
# 4 0.000000 0.000000 0.000000 0.062931 0.000000 0.000000
# 5 0.000000 0.000000 0.000000 0.000000 0.006077 0.000000
# 6 0.000000 0.000000 0.000000 0.000000 0.000000 0.231994
#
#
# Mechanical properties :
#
#
# Convention : Reuss Voigt Hill
#
# Bulk Modulus (GPa) = 62.52606 71.91862 67.22234
# Shear Modulus (GPa) = 13.53629 50.83027 32.18328
#
# Velocity S-wave (km/s) = 2.45142 4.75038 3.77992
# Velocity P-wave (km/s) = 5.98089 7.87506 6.99241
#
# Compressibility (1/GPa) = 0.01599333
#
# Stress axis : x y z
#
# Youngs Moduli (GPa) = 97.34156 81.37212 58.97504
#
# Poissons Ratio (x) = 0.12650 0.45608
# Poissons Ratio (y) = 0.15133 0.14594
# Poissons Ratio (z) = 0.75279 0.20136
#
# Static dielectric constant tensor:
#      x y z
#    x 1.827470 0.000000 0.000000 
#    y 0.000000 2.023060 0.000000 
#    z 0.000000 0.000000 1.791200 
# 
# From -- ./inp_files/13522.got.cif
#   From: 2010.05.17/outbox.cif.g08.bks.cpg/sg67_7_cif.got.tgz:13522.got - 2010.06.03 18:28:57.
