data_PCOD9503855
_publ_section_title
;
Structure prediction by ZEFSAII (Michael W. Deem and Ramdas Pophale) SiO2 
 PCOD9503855
Probable space group: C M M A
;
_chemical_formula_sum "Si O2"
_cell_formula_units_Z 112
_cell_length_a 14.681992
_cell_length_b 32.744455
_cell_length_c 11.216287
_cell_angle_alpha 90.000000
_cell_angle_beta 90.000000
_cell_angle_gamma 90.000000
_cell_volume 5392.272893
_symmetry_space_group_name_H-M "C M M A"
_symmetry_group_IT_number 67
_symmetry_cell_setting 'orthorhombic'
loop_
_space_group_symop_operation_xyz
x,y,z
-x,1/2-y,z
x,-y,-z
-x,1/2+y,-z
-x,-y,-z
x,1/2+y,-z
-x,y,z
x,1/2-y,z
1/2+x,1/2+y,z
1/2-x,-y,z
1/2+x,1/2-y,-z
1/2-x,y,-z
1/2-x,1/2-y,-z
1/2+x,y,-z
1/2-x,1/2+y,z
1/2+x,-y,z
loop_
_atom_site_type_symbol
_atom_site_label
_atom_site_fract_x
_atom_site_fract_y
_atom_site_fract_z
Si Si1 0.898929 0.668769 0.685480
Si Si2 0.846055 0.151690 0.564567
Si Si3 0.605359 0.422269 0.274061
Si Si4 0.212351 0.702072 0.213324
Si Si5 0.607731 0.358376 0.056537
Si Si6 0.611561 0.997959 0.140180
Si Si7 0.891350 0.407549 0.174852
O O1 0.904086 0.670522 0.543035
O O2 0.817889 0.693203 0.749881
O O3 0.876194 0.621184 0.712765
O O4 0.000000 0.677741 0.735291
O O5 0.750000 0.151246 0.500000
O O6 0.862161 0.106424 0.617443
O O7 0.843338 0.182272 0.676197
O O8 0.500000 0.430302 0.302004
O O9 0.610990 0.392635 0.159402
O O10 0.644007 0.465291 0.225446
O O11 0.199100 0.750000 0.202380
O O12 0.171443 0.678364 0.099675
O O13 0.500000 0.346590 0.043511
O O14 0.641227 0.381052 0.937451
O O15 0.500000 0.000223 0.141066
O O16 0.642625 0.953362 0.182985
O O17 0.637202 0.000000 0.000000
O O18 0.000000 0.411421 0.156283
#
# Coordination Sequence:
#
# PCOD9503855 Si02
#       7
#    16  16  16  16  16  16  16
#     4  10  21  37  56  79 111 153 192 228 279 341
#     4   9  19  35  55  76 104 147 188 236 285 338
#     4   9  15  26  50  82 111 141 182 227 277 330
#     4  10  22  39  60  85 107 136 187 244 291 340
#     4   9  17  32  55  83 116 150 180 223 285 341
#     4   9  14  24  48  84 115 140 179 230 272 315
#     4   9  17  31  52  81 115 151 187 223 270 334
#
# _framework density 20.770462999999999
#
# number of rings (size 3 to 8) (size 9 to 14) (size 15 to 20)
#    0.000    2.714    1.429    0.429    0.000    4.286 
#    0.000    2.143    0.000   16.286    0.000    0.000 
#    0.000    0.000    0.000    0.000    0.000    0.000 
#
# Total GULP energy -312046.710425 kJ/mol
# GULP energy per Si atom -5572.262686 kJ/mol
# Density = 2.072319 g / cm^3
# Si number density = 20.770463 Si / 1000 Ang^3
#
#
#
# Elastic Constant Matrix: (Units=GPa)
#
#
# Indices 1 2 3 4 5 6 
#
# 1 75.0847 40.5014 22.8923 0.0000 0.0000 0.0000
# 2 40.5014 164.0837 19.6297 0.0000 0.0000 0.0000
# 3 22.8923 19.6297 19.7266 0.0000 0.0000 0.0000
# 4 0.0000 0.0000 0.0000 17.0695 0.0000 0.0000
# 5 0.0000 0.0000 0.0000 0.0000 156.3542 0.0000
# 6 0.0000 0.0000 0.0000 0.0000 0.0000 19.2508
#
#
#
# Elastic Compliance Matrix: (Units=1/GPa)
#
#
# Indices 1 2 3 4 5 6 
#
# 1 0.021577 -0.002645 -0.022407 0.000000 0.000000 0.000000
# 2 -0.002645 0.007242 -0.004137 0.000000 0.000000 0.000000
# 3 -0.022407 -0.004137 0.080812 0.000000 0.000000 0.000000
# 4 0.000000 0.000000 0.000000 0.058584 0.000000 0.000000
# 5 0.000000 0.000000 0.000000 0.000000 0.006396 0.000000
# 6 0.000000 0.000000 0.000000 0.000000 0.000000 0.051946
#
#
# Mechanical properties :
#
#
# Convention : Reuss Voigt Hill
#
# Bulk Modulus (GPa) = 19.51109 47.21575 33.36342
# Shear Modulus (GPa) = 16.55520 50.25968 33.40744
#
# Velocity S-wave (km/s) = 2.82628 4.92445 4.01485
# Velocity P-wave (km/s) = 4.47935 7.42396 6.13105
#
# Compressibility (1/GPa) = 0.05125291
#
# Stress axis : x y z
#
# Youngs Moduli (GPa) = 46.34612 138.07756 12.37434
#
# Poissons Ratio (x) = 0.36525 0.27727
# Poissons Ratio (y) = 0.12260 0.05119
# Poissons Ratio (z) = 1.03848 0.57122
#
# Static dielectric constant tensor:
#      x y z
#    x 1.871720 0.000000 0.000000 
#    y 0.000000 1.722000 0.000000 
#    z 0.000000 0.000000 1.774980 
# 
# From -- ./inp_files/18567.got.cif
#   From: 2010.05.17/outbox.cif.g08.bks.cpg/sg67_10_cif.got.tgz:18567.got - 2010.06.03 18:28:57.
