data_PCOD9503946
_publ_section_title
;
Structure prediction by ZEFSAII (Michael W. Deem and Ramdas Pophale) SiO2 
 PCOD9503946
Probable space group: C M M A
;
_chemical_formula_sum "Si O2"
_cell_formula_units_Z 112
_cell_length_a 24.017609
_cell_length_b 15.301809
_cell_length_c 14.400959
_cell_angle_alpha 90.000000
_cell_angle_beta 90.000000
_cell_angle_gamma 90.000000
_cell_volume 5292.537709
_symmetry_space_group_name_H-M "C M M A"
_symmetry_group_IT_number 67
_symmetry_cell_setting 'orthorhombic'
loop_
_space_group_symop_operation_xyz
x,y,z
-x,1/2-y,z
x,-y,-z
-x,1/2+y,-z
-x,-y,-z
x,1/2+y,-z
-x,y,z
x,1/2-y,z
1/2+x,1/2+y,z
1/2-x,-y,z
1/2+x,1/2-y,-z
1/2-x,y,-z
1/2-x,1/2-y,-z
1/2+x,y,-z
1/2-x,1/2+y,z
1/2+x,-y,z
loop_
_atom_site_type_symbol
_atom_site_label
_atom_site_fract_x
_atom_site_fract_y
_atom_site_fract_z
Si Si1 0.247913 0.851898 0.340029
Si Si2 0.862482 0.353241 0.579056
Si Si3 0.770939 0.401483 0.862198
Si Si4 0.373403 0.352738 0.639115
Si Si5 0.562206 0.456225 0.899343
Si Si6 0.435236 0.980637 0.705424
Si Si7 0.162547 0.651519 0.967773
O O1 0.256551 0.750000 0.361940
O O2 0.201809 0.884071 0.411924
O O3 0.219549 0.863870 0.239497
O O4 0.310705 0.886657 0.337533
O O5 0.864877 0.250000 0.605683
O O6 0.879788 0.358409 0.472029
O O7 0.899369 0.413354 0.645382
O O8 0.750000 0.500000 0.852646
O O9 0.718741 0.350794 0.906955
O O10 0.820430 0.397768 0.937095
O O11 0.379294 0.250000 0.666683
O O12 0.416140 0.420278 0.683437
O O13 0.500000 0.418554 0.881352
O O14 0.572527 0.524809 0.816492
O O15 0.612985 0.389424 0.908433
O O16 0.560373 0.500000 0.000000
O O17 0.500000 0.968342 0.683430
O O18 0.148695 0.750000 0.993605
#
# Coordination Sequence:
#
# PCOD9503946 Si02
#       7
#    16  16  16  16  16  16  16
#     4  10  21  37  60  91 127 163 203 253 310 378
#     4  10  23  41  64  94 129 169 210 260 320 380
#     4  11  22  35  56  88 123 163 202 244 303 371
#     4  10  22  41  65  95 131 167 206 261 324 379
#     4  10  23  43  64  86 118 160 205 258 316 370
#     4  11  25  43  65  93 125 165 218 268 314 378
#     4  11  22  37  58  85 121 158 202 256 307 367
#
# _framework density 21.161871999999999
#
# number of rings (size 3 to 8) (size 9 to 14) (size 15 to 20)
#    0.000    1.571    0.000    5.143    6.000    5.429 
#    0.000    4.286    0.000    2.571    0.000    0.000 
#    0.000    0.000    0.000    0.000    0.000    0.000 
#
# Total GULP energy -312856.246473 kJ/mol
# GULP energy per Si atom -5586.718687 kJ/mol
# Density = 2.111371 g / cm^3
# Si number density = 21.161872 Si / 1000 Ang^3
#
#
#
# Elastic Constant Matrix: (Units=GPa)
#
#
# Indices 1 2 3 4 5 6 
#
# 1 90.0505 20.9370 13.1261 0.0000 0.0000 0.0000
# 2 20.9370 51.1976 3.9502 0.0000 0.0000 0.0000
# 3 13.1261 3.9502 70.8933 0.0000 0.0000 0.0000
# 4 0.0000 0.0000 0.0000 17.6895 0.0000 0.0000
# 5 0.0000 0.0000 0.0000 0.0000 19.1358 0.0000
# 6 0.0000 0.0000 0.0000 0.0000 0.0000 -190.1853
#
#
#
# Elastic Compliance Matrix: (Units=1/GPa)
#
#
# Indices 1 2 3 4 5 6 
#
# 1 0.012561 -0.004979 -0.002048 0.000000 0.000000 0.000000
# 2 -0.004979 0.021590 -0.000281 0.000000 0.000000 0.000000
# 3 -0.002048 -0.000281 0.014501 0.000000 0.000000 0.000000
# 4 0.000000 0.000000 0.000000 0.056531 0.000000 0.000000
# 5 0.000000 0.000000 0.000000 0.000000 0.052258 0.000000
# 6 0.000000 0.000000 0.000000 0.000000 0.000000 -0.005258
#
#
# Mechanical properties :
#
#
# Convention : Reuss Voigt Hill
#
# Bulk Modulus (GPa) = 29.38139 32.01867 30.70003
# Shear Modulus (GPa) = 28.06723 -19.06345 4.50189
#
# Velocity S-wave (km/s) = 3.64581 -3.00466 1.46013
# Velocity P-wave (km/s) = 5.62466 1.76803 4.16910
#
# Compressibility (1/GPa) = 0.03403515
#
# Stress axis : x y z
#
# Youngs Moduli (GPa) = 79.61138 46.31793 68.96260
#
# Poissons Ratio (x) = 0.23060 0.14126
# Poissons Ratio (y) = 0.39636 0.01939
# Poissons Ratio (z) = 0.16307 0.01302
#
# Static dielectric constant tensor:
#      x y z
#    x 1.777280 0.000000 0.000000 
#    y 0.000000 1.775060 0.000000 
#    z 0.000000 0.000000 1.787370 
# 
# From -- ./inp_files/27587.got.cif
#   From: 2010.05.17/outbox.cif.g08.bks.cpg/sg67_14_cif.got.tgz:27587.got - 2010.06.03 18:28:57.
