data_PCOD9503073
_publ_section_title
;
Structure prediction by ZEFSAII (Michael W. Deem and Ramdas Pophale) SiO2 
 PCOD9503073
Probable space group: C M M A
;
_chemical_formula_sum "Si O2"
_cell_formula_units_Z 72
_cell_length_a 8.605077
_cell_length_b 31.829205
_cell_length_c 14.524668
_cell_angle_alpha 90.000000
_cell_angle_beta 90.000000
_cell_angle_gamma 90.000000
_cell_volume 3978.201405
_symmetry_space_group_name_H-M "C M M A"
_symmetry_group_IT_number 67
_symmetry_cell_setting 'orthorhombic'
loop_
_space_group_symop_operation_xyz
x,y,z
-x,1/2-y,z
x,-y,-z
-x,1/2+y,-z
-x,-y,-z
x,1/2+y,-z
-x,y,z
x,1/2-y,z
1/2+x,1/2+y,z
1/2-x,-y,z
1/2+x,1/2-y,-z
1/2-x,y,-z
1/2-x,1/2-y,-z
1/2+x,y,-z
1/2-x,1/2+y,z
1/2+x,-y,z
loop_
_atom_site_type_symbol
_atom_site_label
_atom_site_fract_x
_atom_site_fract_y
_atom_site_fract_z
Si Si1 0.814988 0.376899 0.717178
Si Si2 0.313214 0.750000 0.103645
Si Si3 0.186982 0.797668 0.604290
Si Si4 0.685585 0.954593 0.397074
Si Si5 0.687143 0.657425 0.103856
O O1 0.756494 0.335119 0.664310
O O2 0.743242 0.417191 0.667167
O O3 0.757354 0.374055 0.822267
O O4 0.000000 0.378638 0.713066
O O5 0.500000 0.750000 0.103818
O O6 0.265722 0.795585 0.139670
O O7 0.250000 0.750000 0.000000
O O8 0.225471 0.750000 0.636772
O O9 0.250000 0.801380 0.500000
O O10 0.000000 0.801293 0.604428
O O11 0.500000 0.955831 0.400326
O O12 0.750000 0.947146 0.500000
O O13 0.750000 0.000000 0.367045
O O14 0.500000 0.655059 0.102713
O O15 0.750000 0.652402 0.000000
#
# Coordination Sequence:
#
# PCOD9503073 Si02
#       5
#    16   8  16  16  16
#     4  12  24  37  56  84 115 152 194 236 283 341
#     4   8  16  30  50  72 101 138 183 232 282 330
#     4  10  21  37  55  77 110 150 191 235 283 338
#     4  11  22  40  64  91 120 150 185 233 287 344
#     4  10  20  36  55  80 111 150 193 242 292 340
#
# _framework density 18.098633
#
# number of rings (size 3 to 8) (size 9 to 14) (size 15 to 20)
#    0.000    1.556    0.000    6.667    1.556    2.222 
#    0.000    0.000    0.000    0.667    0.000    4.667 
#    0.000    0.000    0.000    0.000    0.000    0.000 
#
# Total GULP energy -201099.406232 kJ/mol
# GULP energy per Si atom -5586.094618 kJ/mol
# Density = 1.805744 g / cm^3
# Si number density = 18.098633 Si / 1000 Ang^3
#
#
#
# Elastic Constant Matrix: (Units=GPa)
#
#
# Indices 1 2 3 4 5 6 
#
# 1 140.5004 70.4895 54.2024 0.0000 0.0000 0.0000
# 2 70.4895 141.7103 91.7343 0.0000 0.0000 0.0000
# 3 54.2024 91.7343 102.2483 0.0000 0.0000 0.0000
# 4 0.0000 0.0000 0.0000 31.6032 0.0000 0.0000
# 5 0.0000 0.0000 0.0000 0.0000 29.7526 0.0000
# 6 0.0000 0.0000 0.0000 0.0000 0.0000 28.8766
#
#
#
# Elastic Compliance Matrix: (Units=1/GPa)
#
#
# Indices 1 2 3 4 5 6 
#
# 1 0.009641 -0.003548 -0.001928 0.000000 0.000000 0.000000
# 2 -0.003548 0.018138 -0.014392 0.000000 0.000000 0.000000
# 3 -0.001928 -0.014392 0.023714 0.000000 0.000000 0.000000
# 4 0.000000 0.000000 0.000000 0.031642 0.000000 0.000000
# 5 0.000000 0.000000 0.000000 0.000000 0.033611 0.000000
# 6 0.000000 0.000000 0.000000 0.000000 0.000000 0.034630
#
#
# Mechanical properties :
#
#
# Convention : Reuss Voigt Hill
#
# Bulk Modulus (GPa) = 85.04980 90.81235 87.93108
# Shear Modulus (GPa) = 25.63694 29.24868 27.44281
#
# Velocity S-wave (km/s) = 3.76774 4.02440 3.89818
# Velocity P-wave (km/s) = 8.12541 8.47819 8.30367
#
# Compressibility (1/GPa) = 0.01175782
#
# Stress axis : x y z
#
# Youngs Moduli (GPa) = 103.72337 55.13319 42.16844
#
# Poissons Ratio (x) = 0.19559 0.08130
# Poissons Ratio (y) = 0.36797 0.60690
# Poissons Ratio (z) = 0.19997 0.79349
#
# Static dielectric constant tensor:
#      x y z
#    x 1.606870 0.000000 0.000000 
#    y 0.000000 1.624990 0.000000 
#    z 0.000000 0.000000 1.609730 
# 
# From -- ./inp_files/25302.got.cif
#   From: 2010.05.17/outbox.cif.g08.bks.cpg/sg67_13_cif.got.tgz:25302.got - 2010.06.03 18:28:57.
