data_PCOD9503789
_publ_section_title
;
Structure prediction by ZEFSAII (Michael W. Deem and Ramdas Pophale) SiO2 
 PCOD9503789
Probable space group: C M M A
;
_chemical_formula_sum "Si O2"
_cell_formula_units_Z 112
_cell_length_a 15.388593
_cell_length_b 14.278659
_cell_length_c 24.559762
_cell_angle_alpha 90.000000
_cell_angle_beta 90.000000
_cell_angle_gamma 90.000000
_cell_volume 5396.478975
_symmetry_space_group_name_H-M "C M M A"
_symmetry_group_IT_number 67
_symmetry_cell_setting 'orthorhombic'
loop_
_space_group_symop_operation_xyz
x,y,z
-x,1/2-y,z
x,-y,-z
-x,1/2+y,-z
-x,-y,-z
x,1/2+y,-z
-x,y,z
x,1/2-y,z
1/2+x,1/2+y,z
1/2-x,-y,z
1/2+x,1/2-y,-z
1/2-x,y,-z
1/2-x,1/2-y,-z
1/2+x,y,-z
1/2-x,1/2+y,z
1/2+x,-y,z
loop_
_atom_site_type_symbol
_atom_site_label
_atom_site_fract_x
_atom_site_fract_y
_atom_site_fract_z
Si Si1 0.897766 0.362803 0.455769
Si Si2 0.103305 0.854049 0.423852
Si Si3 0.906361 0.139127 0.855704
Si Si4 0.291155 0.637547 0.149917
Si Si5 0.099166 0.142852 0.253936
Si Si6 0.900040 0.975794 0.938692
Si Si7 0.845264 0.024119 0.354023
O O1 0.895299 0.250000 0.452190
O O2 0.865620 0.387344 0.516510
O O3 0.844867 0.409551 0.407322
O O4 0.000000 0.391797 0.449242
O O5 0.138752 0.750000 0.412625
O O6 0.000000 0.845566 0.431666
O O7 0.117238 0.927075 0.376269
O O8 0.906628 0.250000 0.866680
O O9 0.809472 0.118336 0.834332
O O10 0.000000 0.118745 0.826508
O O11 0.907223 0.075477 0.908879
O O12 0.299836 0.750000 0.141882
O O13 0.346178 0.609671 0.202621
O O14 0.332682 0.585859 0.097225
O O15 0.125988 0.250000 0.268286
O O16 0.106356 0.077710 0.306347
O O17 0.000000 0.145917 0.235894
O O18 0.000000 0.935875 0.939070
O O19 0.872670 0.000000 0.000000
O O20 0.750000 0.000000 0.333904
#
# Coordination Sequence:
#
# PCOD9503789 Si02
#       7
#    16  16  16  16  16  16  16
#     4   9  18  35  59  83 108 144 192 243 291 339
#     4   9  19  36  57  81 111 148 189 233 283 344
#     4   9  19  36  57  83 118 158 194 230 281 349
#     4  10  21  38  63  92 120 151 194 250 302 350
#     4  10  22  42  66  87 108 142 194 254 306 346
#     4  10  21  36  57  87 123 162 201 245 296 346
#     4  12  24  34  52  83 117 152 186 229 287 355
#
# _framework density 20.754272
#
# number of rings (size 3 to 8) (size 9 to 14) (size 15 to 20)
#    0.000    2.143    0.000    3.857    0.000    8.286 
#    0.000    4.286    0.000    2.571    0.000    4.000 
#    0.000    0.000    0.000    0.000    0.000    0.000 
#
# Total GULP energy -312313.208323 kJ/mol
# GULP energy per Si atom -5577.021577 kJ/mol
# Density = 2.070703 g / cm^3
# Si number density = 20.754272 Si / 1000 Ang^3
#
#
#
# Elastic Constant Matrix: (Units=GPa)
#
#
# Indices 1 2 3 4 5 6 
#
# 1 105.2669 28.5736 45.0158 0.0000 0.0000 0.0000
# 2 28.5736 69.4970 44.8669 0.0000 0.0000 0.0000
# 3 45.0158 44.8669 101.3540 0.0000 0.0000 0.0000
# 4 0.0000 0.0000 0.0000 25.2442 0.0000 0.0000
# 5 0.0000 0.0000 0.0000 0.0000 4836.4464 0.0000
# 6 0.0000 0.0000 0.0000 0.0000 0.0000 30.2000
#
#
#
# Elastic Compliance Matrix: (Units=1/GPa)
#
#
# Indices 1 2 3 4 5 6 
#
# 1 0.011938 -0.002079 -0.004382 0.000000 0.000000 0.000000
# 2 -0.002079 0.020509 -0.008155 0.000000 0.000000 0.000000
# 3 -0.004382 -0.008155 0.015423 0.000000 0.000000 0.000000
# 4 0.000000 0.000000 0.000000 0.039613 0.000000 0.000000
# 5 0.000000 0.000000 0.000000 0.000000 0.000207 0.000000
# 6 0.000000 0.000000 0.000000 0.000000 0.000000 0.033113
#
#
# Mechanical properties :
#
#
# Convention : Reuss Voigt Hill
#
# Bulk Modulus (GPa) = 53.65719 57.00338 55.33029
# Shear Modulus (GPa) = 32.00062 988.88888 510.44475
#
# Velocity S-wave (km/s) = 3.93094 21.85198 15.69971
# Velocity P-wave (km/s) = 6.82002 25.77216 18.85096
#
# Compressibility (1/GPa) = 0.01863683
#
# Stress axis : x y z
#
# Youngs Moduli (GPa) = 83.76729 48.75892 64.83993
#
# Poissons Ratio (x) = 0.10139 0.28410
# Poissons Ratio (y) = 0.17419 0.52879
# Poissons Ratio (z) = 0.36703 0.39764
#
# Static dielectric constant tensor:
#      x y z
#    x 1.823810 0.000000 0.000000 
#    y 0.000000 1.759920 0.000000 
#    z 0.000000 0.000000 1.690770 
# 
# From -- ./inp_files/41911.got.cif
#   From: 2010.05.17/outbox.cif.g08.bks.cpg/sg67_21_cif.got.tgz:41911.got - 2010.06.03 18:28:57.
