data_PCOD9503838
_publ_section_title
;
Structure prediction by ZEFSAII (Michael W. Deem and Ramdas Pophale) SiO2 
 PCOD9503838
Probable space group: C M M A
;
_chemical_formula_sum "Si O2"
_cell_formula_units_Z 64
_cell_length_a 8.642297
_cell_length_b 19.021128
_cell_length_c 21.511277
_cell_angle_alpha 90.000000
_cell_angle_beta 90.000000
_cell_angle_gamma 90.000000
_cell_volume 3536.157889
_symmetry_space_group_name_H-M "C M M A"
_symmetry_group_IT_number 67
_symmetry_cell_setting 'orthorhombic'
loop_
_space_group_symop_operation_xyz
x,y,z
-x,1/2-y,z
x,-y,-z
-x,1/2+y,-z
-x,-y,-z
x,1/2+y,-z
-x,y,z
x,1/2-y,z
1/2+x,1/2+y,z
1/2-x,-y,z
1/2+x,1/2-y,-z
1/2-x,y,-z
1/2-x,1/2-y,-z
1/2+x,y,-z
1/2-x,1/2+y,z
1/2+x,-y,z
loop_
_atom_site_type_symbol
_atom_site_label
_atom_site_fract_x
_atom_site_fract_y
_atom_site_fract_z
Si Si1 0.687183 0.831873 0.319614
Si Si2 0.314852 0.920249 0.063170
Si Si3 0.184647 0.422034 0.567617
Si Si4 0.186619 0.920896 0.800003
O O1 0.500000 0.836884 0.323833
O O2 0.728639 0.750000 0.316981
O O3 0.759635 0.869678 0.379088
O O4 0.736738 0.872449 0.257041
O O5 0.500000 0.922417 0.058690
O O6 0.270487 0.891809 0.131359
O O7 0.250000 0.000000 0.064226
O O8 0.250000 0.886375 0.000000
O O9 0.250000 0.500000 0.581275
O O10 0.250000 0.401393 0.500000
O O11 0.000000 0.425304 0.564924
O O12 0.000000 0.925010 0.798831
O O13 0.250000 0.000000 0.793088
#
# Coordination Sequence:
#
# PCOD9503838 Si02
#       4
#    16  16  16  16
#     4  10  21  37  55  76 105 140 176 214 257 305
#     4   9  15  24  40  65  95 124 159 203 253 303
#     4  11  22  38  60  84 109 136 170 210 254 304
#     4   9  18  31  49  73  99 131 169 210 256 306
#
# _framework density 18.098738000000001
#
# number of rings (size 3 to 8) (size 9 to 14) (size 15 to 20)
#    0.000    2.250    0.000    5.250    0.000    5.000 
#    0.000    0.000    0.000    0.750    0.000    0.000 
#    0.000    0.000    0.000    0.000    0.000    6.750 
#
# Total GULP energy -178473.470254 kJ/mol
# GULP energy per Si atom -5577.295945 kJ/mol
# Density = 1.805754 g / cm^3
# Si number density = 18.098738 Si / 1000 Ang^3
#
#
#
# Elastic Constant Matrix: (Units=GPa)
#
#
# Indices 1 2 3 4 5 6 
#
# 1 59.8575 37.2758 61.0884 0.0000 0.0000 0.0000
# 2 37.2758 81.5996 108.8502 0.0000 0.0000 0.0000
# 3 61.0884 108.8502 205.4771 0.0000 0.0000 0.0000
# 4 0.0000 0.0000 0.0000 -10.7016 0.0000 0.0000
# 5 0.0000 0.0000 0.0000 0.0000 36.1044 0.0000
# 6 0.0000 0.0000 0.0000 0.0000 0.0000 16.0401
#
#
#
# Elastic Compliance Matrix: (Units=1/GPa)
#
#
# Indices 1 2 3 4 5 6 
#
# 1 0.024578 -0.005046 -0.004634 0.000000 0.000000 0.000000
# 2 -0.005046 0.042813 -0.021179 0.000000 0.000000 0.000000
# 3 -0.004634 -0.021179 0.017464 0.000000 0.000000 0.000000
# 4 0.000000 0.000000 0.000000 -0.093444 0.000000 0.000000
# 5 0.000000 0.000000 0.000000 0.000000 0.027697 0.000000
# 6 0.000000 0.000000 0.000000 0.000000 0.000000 0.062344
#
#
# Mechanical properties :
#
#
# Convention : Reuss Voigt Hill
#
# Bulk Modulus (GPa) = 43.22351 84.59590 63.90970
# Shear Modulus (GPa) = 33.13828 17.60322 25.37075
#
# Velocity S-wave (km/s) = 4.28363 3.12207 3.74812
# Velocity P-wave (km/s) = 6.95700 7.73558 7.35660
#
# Compressibility (1/GPa) = 0.02313556
#
# Stress axis : x y z
#
# Youngs Moduli (GPa) = 40.68690 23.35765 57.26051
#
# Poissons Ratio (x) = 0.11787 0.26534
# Poissons Ratio (y) = 0.20531 1.21275
# Poissons Ratio (z) = 0.18854 0.49470
#
# Static dielectric constant tensor:
#      x y z
#    x 1.612530 0.000000 0.000000 
#    y 0.000000 1.575890 0.000000 
#    z 0.000000 0.000000 1.664410 
# 
# From -- ./inp_files/31741.got.cif
#   From: 2010.05.17/outbox.cif.g08.bks.cpg/sg67_16_cif.got.tgz:31741.got - 2010.06.03 18:28:57.
