data_PCOD9503822
_publ_section_title
;
Structure prediction by ZEFSAII (Michael W. Deem and Ramdas Pophale) SiO2 
 PCOD9503822
Probable space group: C M M A
;
_chemical_formula_sum "Si O2"
_cell_formula_units_Z 68
_cell_length_a 7.630482
_cell_length_b 21.331013
_cell_length_c 20.003313
_cell_angle_alpha 90.000000
_cell_angle_beta 90.000000
_cell_angle_gamma 90.000000
_cell_volume 3255.857458
_symmetry_space_group_name_H-M "C M M A"
_symmetry_group_IT_number 67
_symmetry_cell_setting 'orthorhombic'
loop_
_space_group_symop_operation_xyz
x,y,z
-x,1/2-y,z
x,-y,-z
-x,1/2+y,-z
-x,-y,-z
x,1/2+y,-z
-x,y,z
x,1/2-y,z
1/2+x,1/2+y,z
1/2-x,-y,z
1/2+x,1/2-y,-z
1/2-x,y,-z
1/2-x,1/2-y,-z
1/2+x,y,-z
1/2-x,1/2+y,z
1/2+x,-y,z
loop_
_atom_site_type_symbol
_atom_site_label
_atom_site_fract_x
_atom_site_fract_y
_atom_site_fract_z
Si Si1 0.000000 0.750000 0.734252
Si Si2 0.289546 0.680558 0.078177
Si Si3 0.290678 0.929674 0.174262
Si Si4 0.206001 0.572848 0.423201
Si Si5 0.795451 0.854089 0.296176
O O1 0.156511 0.695788 0.731701
O O2 0.500000 0.682427 0.085878
O O3 0.223376 0.750000 0.098038
O O4 0.224735 0.623294 0.122644
O O5 0.250000 0.671767 0.000000
O O6 0.500000 0.924368 0.179455
O O7 0.209338 0.912888 0.245689
O O8 0.250000 0.000000 0.152542
O O9 0.250000 0.500000 0.410806
O O10 0.250000 0.587613 0.500000
O O11 0.274023 0.621003 0.367898
O O12 0.000000 0.577321 0.416376
O O13 0.000000 0.832434 0.300640
#
# Coordination Sequence:
#
# PCOD9503822 Si02
#       5
#     4  16  16  16  16
#     4  12  26  44  70  88 132 174 210 268 326 374
#     4   9  20  38  61  88 122 165 215 262 319 382
#     4  11  23  39  64  94 129 169 211 270 330 382
#     4  10  21  36  64  95 126 165 214 266 323 383
#     4  11  25  43  66  97 128 167 220 261 324 390
#
# _framework density 20.885434
#
# number of rings (size 3 to 8) (size 9 to 14) (size 15 to 20)
#    0.000    1.647    1.176    3.176    4.941    4.235 
#    0.000    2.941    0.000    0.000    0.000    0.000 
#    0.000    0.000    0.000    0.000    0.000    0.000 
#
# Total GULP energy -189345.303090 kJ/mol
# GULP energy per Si atom -5568.979503 kJ/mol
# Density = 2.083790 g / cm^3
# Si number density = 20.885434 Si / 1000 Ang^3
#
#
#
# Elastic Constant Matrix: (Units=GPa)
#
#
# Indices 1 2 3 4 5 6 
#
# 1 93.5156 19.8604 0.4113 0.0000 0.0000 0.0000
# 2 19.8604 131.1482 53.0472 0.0000 0.0000 0.0000
# 3 0.4113 53.0472 69.9929 0.0000 0.0000 0.0000
# 4 0.0000 0.0000 0.0000 -3.2483 0.0000 0.0000
# 5 0.0000 0.0000 0.0000 0.0000 340.8434 0.0000
# 6 0.0000 0.0000 0.0000 0.0000 0.0000 43.8027
#
#
#
# Elastic Compliance Matrix: (Units=1/GPa)
#
#
# Indices 1 2 3 4 5 6 
#
# 1 0.011197 -0.002407 0.001758 0.000000 0.000000 0.000000
# 2 -0.002407 0.011513 -0.008712 0.000000 0.000000 0.000000
# 3 0.001758 -0.008712 0.020879 0.000000 0.000000 0.000000
# 4 0.000000 0.000000 0.000000 -0.307849 0.000000 0.000000
# 5 0.000000 0.000000 0.000000 0.000000 0.002934 0.000000
# 6 0.000000 0.000000 0.000000 0.000000 0.000000 0.022830
#
#
# Mechanical properties :
#
#
# Convention : Reuss Voigt Hill
#
# Bulk Modulus (GPa) = 40.21061 49.03273 44.62167
# Shear Modulus (GPa) = -23.64214 91.03540 33.69663
#
# Velocity S-wave (km/s) = -3.36816 6.60928 4.02108
# Velocity P-wave (km/s) = 2.04175 9.04276 6.55516
#
# Compressibility (1/GPa) = 0.02486906
#
# Stress axis : x y z
#
# Youngs Moduli (GPa) = 89.31118 86.85748 47.89439
#
# Poissons Ratio (x) = 0.20905 -0.08421
# Poissons Ratio (y) = 0.21495 0.41724
# Poissons Ratio (z) = -0.15703 0.75667
#
# Static dielectric constant tensor:
#      x y z
#    x 1.762340 0.000000 0.000000 
#    y 0.000000 1.779800 0.000000 
#    z 0.000000 0.000000 -2.687730 
# 
# From -- ./inp_files/31814.got.cif
#   From: 2010.05.17/outbox.cif.g08.bks.cpg/sg67_16_cif.got.tgz:31814.got - 2010.06.03 18:28:57.
