data_PCOD9503403
_publ_section_title
;
Structure prediction by ZEFSAII (Michael W. Deem and Ramdas Pophale) SiO2 
 PCOD9503403
Probable space group: C M M A
;
_chemical_formula_sum "Si O2"
_cell_formula_units_Z 96
_cell_length_a 24.226224
_cell_length_b 23.312932
_cell_length_c 8.238887
_cell_angle_alpha 90.000000
_cell_angle_beta 90.000000
_cell_angle_gamma 90.000000
_cell_volume 4653.194132
_symmetry_space_group_name_H-M "C M M A"
_symmetry_group_IT_number 67
_symmetry_cell_setting 'orthorhombic'
loop_
_space_group_symop_operation_xyz
x,y,z
-x,1/2-y,z
x,-y,-z
-x,1/2+y,-z
-x,-y,-z
x,1/2+y,-z
-x,y,z
x,1/2-y,z
1/2+x,1/2+y,z
1/2-x,-y,z
1/2+x,1/2-y,-z
1/2-x,y,-z
1/2-x,1/2-y,-z
1/2+x,y,-z
1/2-x,1/2+y,z
1/2+x,-y,z
loop_
_atom_site_type_symbol
_atom_site_label
_atom_site_fract_x
_atom_site_fract_y
_atom_site_fract_z
Si Si1 0.153353 0.917825 0.310588
Si Si2 0.936364 0.079186 0.965244
Si Si3 0.160998 0.531511 0.838874
Si Si4 0.439651 0.313790 0.816919
Si Si5 0.260758 0.358863 0.823795
Si Si6 0.661173 0.184993 0.567633
O O1 0.098146 0.918692 0.201024
O O2 0.203602 0.890002 0.212465
O O3 0.152788 0.872801 0.459411
O O4 0.165652 0.986833 0.310123
O O5 0.000000 0.061682 0.946238
O O6 0.902106 0.045420 0.106401
O O7 0.934940 0.142731 0.037084
O O8 0.193823 0.590238 0.824891
O O9 0.183667 0.500000 0.000000
O O10 0.500000 0.323422 0.737714
O O11 0.438426 0.250000 0.883952
O O12 0.390368 0.317868 0.690678
O O13 0.283291 0.320248 0.677001
O O14 0.250000 0.331067 0.000000
O O15 0.660097 0.250000 0.492237
#
# Coordination Sequence:
#
# PCOD9503403 Si02
#       6
#    16  16  16  16  16  16
#     4  11  24  36  60  90 128 166 202 256 324 387
#     4  10  20  38  64  95 125 162 214 271 325 381
#     4  10  20  37  63  91 122 157 204 263 309 380
#     4   9  18  37  63  85 114 163 219 266 309 371
#     4  12  21  40  66  90 120 166 217 262 316 377
#     4  11  25  43  60  90 132 169 212 267 328 387
#
# _framework density 20.630990000000001
#
# number of rings (size 3 to 8) (size 9 to 14) (size 15 to 20)
#    0.000    1.500    5.000    1.000    0.000    6.667 
#    0.000    1.667    0.000    2.000    0.000    0.000 
#    0.000    0.000    0.000    0.000    0.000    0.000 
#
# Total GULP energy -267218.395625 kJ/mol
# GULP energy per Si atom -5567.049909 kJ/mol
# Density = 2.058403 g / cm^3
# Si number density = 20.630990 Si / 1000 Ang^3
#
#
#
# Elastic Constant Matrix: (Units=GPa)
#
#
# Indices 1 2 3 4 5 6 
#
# 1 85.3060 1.7656 18.5438 0.0000 0.0000 0.0000
# 2 1.7656 97.2075 44.8184 0.0000 0.0000 0.0000
# 3 18.5438 44.8184 74.5832 0.0000 0.0000 0.0000
# 4 0.0000 0.0000 0.0000 26.6599 0.0000 0.0000
# 5 0.0000 0.0000 0.0000 0.0000 14.2586 0.0000
# 6 0.0000 0.0000 0.0000 0.0000 0.0000 -1.3905
#
#
#
# Elastic Compliance Matrix: (Units=1/GPa)
#
#
# Indices 1 2 3 4 5 6 
#
# 1 0.012587 0.001680 -0.004139 0.000000 0.000000 0.000000
# 2 0.001680 0.014454 -0.009103 0.000000 0.000000 0.000000
# 3 -0.004139 -0.009103 0.019907 0.000000 0.000000 0.000000
# 4 0.000000 0.000000 0.000000 0.037510 0.000000 0.000000
# 5 0.000000 0.000000 0.000000 0.000000 0.070133 0.000000
# 6 0.000000 0.000000 0.000000 0.000000 0.000000 -0.719160
#
#
# Mechanical properties :
#
#
# Convention : Reuss Voigt Hill
#
# Bulk Modulus (GPa) = 41.97535 43.03914 42.50725
# Shear Modulus (GPa) = -9.37203 20.70351 5.66574
#
# Velocity S-wave (km/s) = -2.13367 3.17127 1.65897
# Velocity P-wave (km/s) = 3.78416 5.85798 4.93132
#
# Compressibility (1/GPa) = 0.02382350
#
# Stress axis : x y z
#
# Youngs Moduli (GPa) = 79.44403 69.18552 50.23297
#
# Poissons Ratio (x) = -0.11621 0.20792
# Poissons Ratio (y) = -0.13344 0.45728
# Poissons Ratio (z) = 0.32882 0.62981
#
# Static dielectric constant tensor:
#      x y z
#    x 1.771100 0.000000 0.000000 
#    y 0.000000 1.843670 0.000000 
#    z 0.000000 0.000000 1.774450 
# 
# From -- ./inp_files/12649.got.cif
#   From: 2010.05.17/outbox.cif.g08.bks.cpg/sg67_7_cif.got.tgz:12649.got - 2010.06.03 18:28:57.
