data_PCOD9503183
_publ_section_title
;
Structure prediction by ZEFSAII (Michael W. Deem and Ramdas Pophale) SiO2 
 PCOD9503183
Probable space group: C M M A
;
_chemical_formula_sum "Si O2"
_cell_formula_units_Z 88
_cell_length_a 23.674295
_cell_length_b 22.327091
_cell_length_c 8.524263
_cell_angle_alpha 90.000000
_cell_angle_beta 90.000000
_cell_angle_gamma 90.000000
_cell_volume 4505.739071
_symmetry_space_group_name_H-M "C M M A"
_symmetry_group_IT_number 67
_symmetry_cell_setting 'orthorhombic'
loop_
_space_group_symop_operation_xyz
x,y,z
-x,1/2-y,z
x,-y,-z
-x,1/2+y,-z
-x,-y,-z
x,1/2+y,-z
-x,y,z
x,1/2-y,z
1/2+x,1/2+y,z
1/2-x,-y,z
1/2+x,1/2-y,-z
1/2-x,y,-z
1/2-x,1/2-y,-z
1/2+x,y,-z
1/2-x,1/2+y,z
1/2+x,-y,z
loop_
_atom_site_type_symbol
_atom_site_label
_atom_site_fract_x
_atom_site_fract_y
_atom_site_fract_z
Si Si1 0.438151 0.509273 0.686372
Si Si2 0.065097 0.877292 0.086716
Si Si3 0.750000 0.398316 0.000000
Si Si4 0.646677 0.418735 0.810261
Si Si5 0.185169 0.320573 0.442912
Si Si6 0.833752 0.317570 0.788136
O O1 0.442017 0.500000 0.500000
O O2 0.500000 0.486027 0.747326
O O3 0.433126 0.573731 0.771614
O O4 0.381295 0.474325 0.726096
O O5 0.105457 0.822679 0.132243
O O6 0.000000 0.863231 0.056298
O O7 0.097952 0.902574 0.935632
O O8 0.795723 0.433764 0.100043
O O9 0.711459 0.357909 0.117963
O O10 0.663173 0.364104 0.693512
O O11 0.178560 0.250000 0.400960
O O12 0.250000 0.329709 0.500000
O O13 0.155044 0.334239 0.607512
O O14 0.811374 0.250000 0.788995
#
# Coordination Sequence:
#
# PCOD9503183 Si02
#       6
#    16  16   8  16  16  16
#     4  10  21  40  66  88 112 153 201 248 301 363
#     4  10  22  39  60  88 119 153 198 251 304 356
#     4  10  21  34  55  84 116 152 192 240 296 362
#     4  11  21  36  61  85 118 155 201 240 295 356
#     4  10  20  36  59  85 118 157 201 244 290 355
#     4  10  20  36  59  84 116 154 196 241 296 359
#
# _framework density 19.530646999999998
#
# number of rings (size 3 to 8) (size 9 to 14) (size 15 to 20)
#    0.000    1.818    1.818    2.455    0.000    4.727 
#    0.000    8.182    0.000    3.818    0.000    0.000 
#    0.000    0.000    0.000    0.000    0.000    0.000 
#
# Total GULP energy -245036.699950 kJ/mol
# GULP energy per Si atom -5569.015908 kJ/mol
# Density = 1.948619 g / cm^3
# Si number density = 19.530647 Si / 1000 Ang^3
#
#
#
# Elastic Constant Matrix: (Units=GPa)
#
#
# Indices 1 2 3 4 5 6 
#
# 1 152.0701 30.2396 30.6763 0.0000 0.0000 0.0000
# 2 30.2396 42.4644 16.2164 0.0000 0.0000 0.0000
# 3 30.6763 16.2164 69.7453 0.0000 0.0000 0.0000
# 4 0.0000 0.0000 0.0000 18.4406 0.0000 0.0000
# 5 0.0000 0.0000 0.0000 0.0000 -3.8580 0.0000
# 6 0.0000 0.0000 0.0000 0.0000 0.0000 23.7147
#
#
#
# Elastic Compliance Matrix: (Units=1/GPa)
#
#
# Indices 1 2 3 4 5 6 
#
# 1 0.008014 -0.004786 -0.002412 0.000000 0.000000 0.000000
# 2 -0.004786 0.028702 -0.004568 0.000000 0.000000 0.000000
# 3 -0.002412 -0.004568 0.016461 0.000000 0.000000 0.000000
# 4 0.000000 0.000000 0.000000 0.054228 0.000000 0.000000
# 5 0.000000 0.000000 0.000000 0.000000 -0.259205 0.000000
# 6 0.000000 0.000000 0.000000 0.000000 0.000000 0.042168
#
#
# Mechanical properties :
#
#
# Convention : Reuss Voigt Hill
#
# Bulk Modulus (GPa) = 33.73351 46.50492 40.11921
# Shear Modulus (GPa) = -65.60206 20.13597 -22.73305
#
# Velocity S-wave (km/s) = -5.80191 3.21439 -3.41540
# Velocity P-wave (km/s) = 5.25103 6.13509 2.24344
#
# Compressibility (1/GPa) = 0.02964412
#
# Stress axis : x y z
#
# Youngs Moduli (GPa) = 124.77871 34.84096 60.74951
#
# Poissons Ratio (x) = 0.16674 0.14654
# Poissons Ratio (y) = 0.59718 0.27753
# Poissons Ratio (z) = 0.30098 0.15917
#
# Static dielectric constant tensor:
#      x y z
#    x 1.706230 0.000000 0.000000 
#    y 0.000000 1.710800 0.000000 
#    z 0.000000 0.000000 1.778130 
# 
# From -- ./inp_files/12467.got.cif
#   From: 2010.05.17/outbox.cif.g08.bks.cpg/sg67_7_cif.got.tgz:12467.got - 2010.06.03 18:28:57.
