data_PCOD9503244
_publ_section_title
;
Structure prediction by ZEFSAII (Michael W. Deem and Ramdas Pophale) SiO2 
 PCOD9503244
Probable space group: C M M A
;
_chemical_formula_sum "Si O2"
_cell_formula_units_Z 104
_cell_length_a 28.211723
_cell_length_b 9.070936
_cell_length_c 21.351280
_cell_angle_alpha 90.000000
_cell_angle_beta 90.000000
_cell_angle_gamma 90.000000
_cell_volume 5463.936327
_symmetry_space_group_name_H-M "C M M A"
_symmetry_group_IT_number 67
_symmetry_cell_setting 'orthorhombic'
loop_
_space_group_symop_operation_xyz
x,y,z
-x,1/2-y,z
x,-y,-z
-x,1/2+y,-z
-x,-y,-z
x,1/2+y,-z
-x,y,z
x,1/2-y,z
1/2+x,1/2+y,z
1/2-x,-y,z
1/2+x,1/2-y,-z
1/2-x,y,-z
1/2-x,1/2-y,-z
1/2+x,y,-z
1/2-x,1/2+y,z
1/2+x,-y,z
loop_
_atom_site_type_symbol
_atom_site_label
_atom_site_fract_x
_atom_site_fract_y
_atom_site_fract_z
Si Si1 0.123881 0.000000 0.000000
Si Si2 0.131901 0.073453 0.664927
Si Si3 0.555232 0.417846 0.110452
Si Si4 0.198206 0.072018 0.435984
Si Si5 0.127088 0.572537 0.800225
Si Si6 0.446031 0.424954 0.436608
Si Si7 0.298324 0.916353 0.098095
O O1 0.161346 0.915377 0.955724
O O2 0.087913 0.077946 0.951797
O O3 0.141317 0.250000 0.665856
O O4 0.084273 0.047143 0.624971
O O5 0.170362 0.985135 0.624350
O O6 0.127992 0.007992 0.733979
O O7 0.500000 0.456348 0.098231
O O8 0.556304 0.250000 0.134697
O O9 0.581046 0.523724 0.159940
O O10 0.199414 0.250000 0.440393
O O11 0.177962 0.000000 0.500000
O O12 0.250000 0.000000 0.431194
O O13 0.128075 0.750000 0.794070
O O14 0.173083 0.525156 0.841401
O O15 0.428113 0.500000 0.500000
O O16 0.500000 0.474992 0.427291
O O17 0.445517 0.250000 0.447264
O O18 0.283914 0.750000 0.111327
O O19 0.250000 0.000000 0.081926
#
# Coordination Sequence:
#
# PCOD9503244 Si02
#       7
#     8  16  16  16  16  16  16
#     4  10  20  36  60  90 120 146 184 230 280 338
#     4  11  22  37  59  85 114 151 193 239 292 347
#     4  10  21  38  61  87 116 152 191 233 284 340
#     4  11  22  38  59  85 117 151 192 241 295 353
#     4  10  23  41  57  80 114 151 194 240 284 339
#     4   9  19  35  55  81 112 145 183 228 278 335
#     4  10  22  38  58  83 113 148 185 228 278 332
#
# _framework density 19.033898000000001
#
# number of rings (size 3 to 8) (size 9 to 14) (size 15 to 20)
#    0.000    1.846    0.000    4.154    0.000    8.923 
#    0.000    3.077    0.000    0.000    0.000    0.000 
#    0.000    0.000    0.000    0.000    0.000    0.000 
#
# Total GULP energy -289983.904135 kJ/mol
# GULP energy per Si atom -5576.613541 kJ/mol
# Density = 1.899058 g / cm^3
# Si number density = 19.033898 Si / 1000 Ang^3
#
#
#
# Elastic Constant Matrix: (Units=GPa)
#
#
# Indices 1 2 3 4 5 6 
#
# 1 143.6007 52.0116 55.4891 0.0000 0.0000 0.0000
# 2 52.0116 95.8213 53.9963 0.0000 0.0000 0.0000
# 3 55.4891 53.9963 143.9099 0.0000 0.0000 0.0000
# 4 0.0000 0.0000 0.0000 18.9518 0.0000 0.0000
# 5 0.0000 0.0000 0.0000 0.0000 22.4716 0.0000
# 6 0.0000 0.0000 0.0000 0.0000 0.0000 14.9204
#
#
#
# Elastic Compliance Matrix: (Units=1/GPa)
#
#
# Indices 1 2 3 4 5 6 
#
# 1 0.009147 -0.003776 -0.002110 0.000000 0.000000 0.000000
# 2 -0.003776 0.014793 -0.004095 0.000000 0.000000 0.000000
# 3 -0.002110 -0.004095 0.009299 0.000000 0.000000 0.000000
# 4 0.000000 0.000000 0.000000 0.052765 0.000000 0.000000
# 5 0.000000 0.000000 0.000000 0.000000 0.044501 0.000000
# 6 0.000000 0.000000 0.000000 0.000000 0.000000 0.067022
#
#
# Mechanical properties :
#
#
# Convention : Reuss Voigt Hill
#
# Bulk Modulus (GPa) = 75.31550 78.48065 76.89808
# Shear Modulus (GPa) = 22.53132 26.05776 24.29454
#
# Velocity S-wave (km/s) = 3.44430 3.70404 3.57653
# Velocity P-wave (km/s) = 7.44799 7.72106 7.58576
#
# Compressibility (1/GPa) = 0.01327748
#
# Stress axis : x y z
#
# Youngs Moduli (GPa) = 109.32932 67.60007 107.54156
#
# Poissons Ratio (x) = 0.25524 0.22692
# Poissons Ratio (y) = 0.41280 0.44034
# Poissons Ratio (z) = 0.23070 0.27679
#
# Static dielectric constant tensor:
#      x y z
#    x 1.688410 0.000000 0.000000 
#    y 0.000000 1.651610 0.000000 
#    z 0.000000 0.000000 1.655720 
# 
# From -- ./inp_files/39977.got.cif
#   From: 2010.05.17/outbox.cif.g08.bks.cpg/sg67_20_cif.got.tgz:39977.got - 2010.06.03 18:28:57.
