data_PCOD9503690
_publ_section_title
;
Structure prediction by ZEFSAII (Michael W. Deem and Ramdas Pophale) SiO2 
 PCOD9503690
Probable space group: C M M A
;
_chemical_formula_sum "Si O2"
_cell_formula_units_Z 96
_cell_length_a 16.594695
_cell_length_b 24.344527
_cell_length_c 13.199128
_cell_angle_alpha 90.000000
_cell_angle_beta 90.000000
_cell_angle_gamma 90.000000
_cell_volume 5332.315727
_symmetry_space_group_name_H-M "C M M A"
_symmetry_group_IT_number 67
_symmetry_cell_setting 'orthorhombic'
loop_
_space_group_symop_operation_xyz
x,y,z
-x,1/2-y,z
x,-y,-z
-x,1/2+y,-z
-x,-y,-z
x,1/2+y,-z
-x,y,z
x,1/2-y,z
1/2+x,1/2+y,z
1/2-x,-y,z
1/2+x,1/2-y,-z
1/2-x,y,-z
1/2-x,1/2-y,-z
1/2+x,y,-z
1/2-x,1/2+y,z
1/2+x,-y,z
loop_
_atom_site_type_symbol
_atom_site_label
_atom_site_fract_x
_atom_site_fract_y
_atom_site_fract_z
Si Si1 0.096436 0.110803 0.648853
Si Si2 0.000000 0.813219 0.926427
Si Si3 0.092414 0.511534 0.620710
Si Si4 0.352014 0.625607 0.414853
Si Si5 0.000000 0.312491 0.316744
Si Si6 0.769375 0.815654 0.284513
Si Si7 0.679230 0.683251 0.075796
O O1 0.115030 0.046478 0.670296
O O2 0.123474 0.121236 0.532289
O O3 0.145956 0.152433 0.718936
O O4 0.000000 0.117555 0.654925
O O5 0.000000 0.811583 0.804219
O O6 0.088844 0.837394 0.950728
O O7 0.000000 0.750000 0.964672
O O8 0.089505 0.500000 0.500000
O O9 0.150231 0.563722 0.630225
O O10 0.000000 0.526190 0.650439
O O11 0.423539 0.656860 0.359404
O O12 0.274459 0.659995 0.383499
O O13 0.000000 0.250000 0.353074
O O14 0.779374 0.750000 0.289576
O O15 0.711635 0.828734 0.188844
O O16 0.673990 0.750000 0.070727
O O17 0.750000 0.665502 0.000000
#
# Coordination Sequence:
#
# PCOD9503690 Si02
#       7
#    16   8  16  16   8  16  16
#     4  10  21  36  49  69 104 146 180 213 252 301
#     4   9  16  30  52  74  99 131 165 208 260 306
#     4   8  15  30  51  71  95 129 180 226 253 286
#     4  11  18  32  53  75 101 137 177 219 255 296
#     4  11  18  26  47  78 107 137 169 208 252 304
#     4  11  23  35  48  74 109 136 170 215 256 312
#     4   9  18  34  53  74 101 131 168 216 262 311
#
# _framework density 18.003433999999999
#
# number of rings (size 3 to 8) (size 9 to 14) (size 15 to 20)
#    0.000    2.167    3.333    2.000    0.000    3.000 
#    1.500    2.500    0.000    0.000    0.000    2.333 
#    0.000    4.000    0.000    0.000    0.000    0.000 
#
# Total GULP energy -267333.533127 kJ/mol
# GULP energy per Si atom -5569.448607 kJ/mol
# Density = 1.796246 g / cm^3
# Si number density = 18.003434 Si / 1000 Ang^3
#
#
#
# Elastic Constant Matrix: (Units=GPa)
#
#
# Indices 1 2 3 4 5 6 
#
# 1 130.0749 42.9257 26.4925 0.0000 0.0000 0.0000
# 2 42.9257 87.3930 9.2430 0.0000 0.0000 0.0000
# 3 26.4925 9.2430 28.0642 0.0000 0.0000 0.0000
# 4 0.0000 0.0000 0.0000 2.5737 0.0000 0.0000
# 5 0.0000 0.0000 0.0000 0.0000 24.1756 0.0000
# 6 0.0000 0.0000 0.0000 0.0000 0.0000 32.6338
#
#
#
# Elastic Compliance Matrix: (Units=1/GPa)
#
#
# Indices 1 2 3 4 5 6 
#
# 1 0.010965 -0.004446 -0.008887 0.000000 0.000000 0.000000
# 2 -0.004446 0.013658 -0.000301 0.000000 0.000000 0.000000
# 3 -0.008887 -0.000301 0.044121 0.000000 0.000000 0.000000
# 4 0.000000 0.000000 0.000000 0.388552 0.000000 0.000000
# 5 0.000000 0.000000 0.000000 0.000000 0.041364 0.000000
# 6 0.000000 0.000000 0.000000 0.000000 0.000000 0.030643
#
#
# Mechanical properties :
#
#
# Convention : Reuss Voigt Hill
#
# Bulk Modulus (GPa) = 24.11028 44.76161 34.43595
# Shear Modulus (GPa) = 8.76583 23.00134 15.88358
#
# Velocity S-wave (km/s) = 2.20897 3.57824 2.97350
# Velocity P-wave (km/s) = 4.46399 6.47986 5.56398
#
# Compressibility (1/GPa) = 0.04147608
#
# Stress axis : x y z
#
# Youngs Moduli (GPa) = 91.19904 73.21616 22.66498
#
# Poissons Ratio (x) = 0.32551 0.20142
# Poissons Ratio (y) = 0.40546 0.00683
# Poissons Ratio (z) = 0.81046 0.02207
#
# Static dielectric constant tensor:
#      x y z
#    x 1.666830 0.000000 0.000000 
#    y 0.000000 1.620500 0.000000 
#    z 0.000000 0.000000 1.612090 
# 
# From -- ./inp_files/27422.got.cif
#   From: 2010.05.17/outbox.cif.g08.bks.cpg/sg67_14_cif.got.tgz:27422.got - 2010.06.03 18:28:57.
