data_PCOD9503604
_publ_section_title
;
Structure prediction by ZEFSAII (Michael W. Deem and Ramdas Pophale) SiO2 
 PCOD9503604
Probable space group: C M M A
;
_chemical_formula_sum "Si O2"
_cell_formula_units_Z 96
_cell_length_a 19.394127
_cell_length_b 14.074092
_cell_length_c 18.645464
_cell_angle_alpha 90.000000
_cell_angle_beta 90.000000
_cell_angle_gamma 90.000000
_cell_volume 5089.367548
_symmetry_space_group_name_H-M "C M M A"
_symmetry_group_IT_number 67
_symmetry_cell_setting 'orthorhombic'
loop_
_space_group_symop_operation_xyz
x,y,z
-x,1/2-y,z
x,-y,-z
-x,1/2+y,-z
-x,-y,-z
x,1/2+y,-z
-x,y,z
x,1/2-y,z
1/2+x,1/2+y,z
1/2-x,-y,z
1/2+x,1/2-y,-z
1/2-x,y,-z
1/2-x,1/2-y,-z
1/2+x,y,-z
1/2-x,1/2+y,z
1/2+x,-y,z
loop_
_atom_site_type_symbol
_atom_site_label
_atom_site_fract_x
_atom_site_fract_y
_atom_site_fract_z
Si Si1 0.080912 0.988887 0.081379
Si Si2 0.923517 0.136163 0.202082
Si Si3 0.351969 0.136286 0.201418
Si Si4 0.077203 0.865459 0.352295
Si Si5 0.216734 0.365933 0.574929
Si Si6 0.787147 0.634789 0.720723
O O1 0.122260 0.915487 0.130596
O O2 0.000000 0.960314 0.079273
O O3 0.084737 0.087591 0.124918
O O4 0.105302 0.000000 0.000000
O O5 0.920124 0.250000 0.196216
O O6 0.861300 0.102522 0.252245
O O7 0.000000 0.110579 0.229305
O O8 0.353154 0.250000 0.191697
O O9 0.400511 0.114529 0.270163
O O10 0.274969 0.108148 0.226004
O O11 0.075897 0.750000 0.357363
O O12 0.139181 0.897822 0.404560
O O13 0.000000 0.900521 0.367703
O O14 0.214326 0.250000 0.574578
O O15 0.250000 0.395000 0.500000
O O16 0.265726 0.394141 0.641087
O O17 0.788246 0.750000 0.720345
#
# Coordination Sequence:
#
# PCOD9503604 Si02
#       6
#    16  16  16  16  16  16
#     4  10  21  34  49  73  99 123 158 197 237 291
#     4   9  18  34  52  67  91 129 167 201 233 272
#     4   9  17  30  49  72  98 125 155 198 245 285
#     4   8  13  22  38  61  89 123 159 189 226 282
#     4   8  13  22  38  63  96 126 151 191 241 278
#     4   8  15  29  48  69  93 125 165 199 233 285
#
# _framework density 18.862855
#
# number of rings (size 3 to 8) (size 9 to 14) (size 15 to 20)
#    0.000    3.333    0.000    2.500    0.000    2.333 
#    0.000    4.167    0.000    8.000    0.000    9.333 
#    0.000   12.000    0.000    0.833    0.000    0.000 
#
# Total GULP energy -267681.711045 kJ/mol
# GULP energy per Si atom -5576.702313 kJ/mol
# Density = 1.881992 g / cm^3
# Si number density = 18.862855 Si / 1000 Ang^3
#
#
#
# Elastic Constant Matrix: (Units=GPa)
#
#
# Indices 1 2 3 4 5 6 
#
# 1 171.5654 30.0066 110.4880 0.0000 0.0000 0.0000
# 2 30.0066 58.8896 27.5732 0.0000 0.0000 0.0000
# 3 110.4880 27.5732 165.2340 0.0000 0.0000 0.0000
# 4 0.0000 0.0000 0.0000 45.0545 0.0000 0.0000
# 5 0.0000 0.0000 0.0000 0.0000 21.3730 0.0000
# 6 0.0000 0.0000 0.0000 0.0000 0.0000 16.4238
#
#
#
# Elastic Compliance Matrix: (Units=1/GPa)
#
#
# Indices 1 2 3 4 5 6 
#
# 1 0.010502 -0.002238 -0.006649 0.000000 0.000000 0.000000
# 2 -0.002238 0.018897 -0.001657 0.000000 0.000000 0.000000
# 3 -0.006649 -0.001657 0.010775 0.000000 0.000000 0.000000
# 4 0.000000 0.000000 0.000000 0.022195 0.000000 0.000000
# 5 0.000000 0.000000 0.000000 0.000000 0.046788 0.000000
# 6 0.000000 0.000000 0.000000 0.000000 0.000000 0.060887
#
#
# Mechanical properties :
#
#
# Convention : Reuss Voigt Hill
#
# Bulk Modulus (GPa) = 52.39493 81.31382 66.85438
# Shear Modulus (GPa) = 25.31719 31.74500 28.53110
#
# Velocity S-wave (km/s) = 3.66754 4.10681 3.89338
# Velocity P-wave (km/s) = 6.76547 8.10490 7.46528
#
# Compressibility (1/GPa) = 0.01908581
#
# Stress axis : x y z
#
# Youngs Moduli (GPa) = 95.21936 52.91819 92.81127
#
# Poissons Ratio (x) = 0.11843 0.61710
# Poissons Ratio (y) = 0.21310 0.15378
# Poissons Ratio (z) = 0.63311 0.08768
#
# Static dielectric constant tensor:
#      x y z
#    x 1.671240 0.000000 0.000000 
#    y 0.000000 1.705530 0.000000 
#    z 0.000000 0.000000 1.611450 
# 
# From -- ./inp_files/34217.got.cif
#   From: 2010.05.17/outbox.cif.g08.bks.cpg/sg67_18_cif.got.tgz:34217.got - 2010.06.03 18:28:57.
