data_PCOD9503193
_publ_section_title
;
Structure prediction by ZEFSAII (Michael W. Deem and Ramdas Pophale) SiO2 
 PCOD9503193
Probable space group: C M M A
;
_chemical_formula_sum "Si O2"
_cell_formula_units_Z 100
_cell_length_a 7.976584
_cell_length_b 30.875094
_cell_length_c 20.372111
_cell_angle_alpha 90.000000
_cell_angle_beta 90.000000
_cell_angle_gamma 90.000000
_cell_volume 5017.198287
_symmetry_space_group_name_H-M "C M M A"
_symmetry_group_IT_number 67
_symmetry_cell_setting 'orthorhombic'
loop_
_space_group_symop_operation_xyz
x,y,z
-x,1/2-y,z
x,-y,-z
-x,1/2+y,-z
-x,-y,-z
x,1/2+y,-z
-x,y,z
x,1/2-y,z
1/2+x,1/2+y,z
1/2-x,-y,z
1/2+x,1/2-y,-z
1/2-x,y,-z
1/2-x,1/2-y,-z
1/2+x,y,-z
1/2-x,1/2+y,z
1/2+x,-y,z
loop_
_atom_site_type_symbol
_atom_site_label
_atom_site_fract_x
_atom_site_fract_y
_atom_site_fract_z
Si Si1 0.294382 0.067240 0.103778
Si Si2 0.750000 0.000000 0.000000
Si Si3 0.801856 0.548271 0.253204
Si Si4 0.198410 0.332677 0.927020
Si Si5 0.297868 0.635899 0.313268
Si Si6 0.797913 0.701194 0.575503
Si Si7 0.698047 0.796869 0.207755
O O1 0.500000 0.059911 0.096431
O O2 0.241228 0.058315 0.178743
O O3 0.259614 0.116745 0.084905
O O4 0.195607 0.035629 0.054536
O O5 0.750000 0.500000 0.272472
O O6 0.750031 0.586279 0.302483
O O7 0.000000 0.549427 0.248441
O O8 0.280180 0.305683 0.868847
O O9 0.000000 0.328217 0.920059
O O10 0.250000 0.319946 0.000000
O O11 0.500000 0.636513 0.314303
O O12 0.238067 0.663131 0.376381
O O13 0.234168 0.663330 0.250297
O O14 0.739285 0.750000 0.594047
O O15 0.750000 0.693812 0.500000
O O16 0.000000 0.701944 0.579848
O O17 0.500000 0.795253 0.222117
O O18 0.770554 0.750000 0.225617
#
# Coordination Sequence:
#
# PCOD9503193 Si02
#       7
#    16   4  16  16  16  16  16
#     4  10  21  33  49  73 102 134 173 223 281 340
#     4  12  18  36  52  74 102 136 176 232 294 356
#     4  11  22  38  56  81 112 146 189 237 284 338
#     4  11  22  38  54  74 102 137 180 229 285 343
#     4  10  20  36  59  86 116 154 190 231 282 336
#     4   9  18  34  58  90 127 161 194 231 275 333
#     4  10  21  37  57  81 107 141 186 231 279 337
#
# _framework density 19.931442000000001
#
# number of rings (size 3 to 8) (size 9 to 14) (size 15 to 20)
#    0.000    1.760    3.200    1.680    0.000    3.200 
#    0.000    0.000    0.000    3.360    0.000    3.360 
#    0.000    0.000    0.000    0.000    0.000    0.000 
#
# Total GULP energy -278915.891368 kJ/mol
# GULP energy per Si atom -5578.317827 kJ/mol
# Density = 1.988608 g / cm^3
# Si number density = 19.931442 Si / 1000 Ang^3
#
#
#
# Elastic Constant Matrix: (Units=GPa)
#
#
# Indices 1 2 3 4 5 6 
#
# 1 22.7593 13.3891 4.3547 0.0000 0.0000 0.0000
# 2 13.3891 127.7979 67.8994 0.0000 0.0000 0.0000
# 3 4.3547 67.8994 109.7554 0.0000 0.0000 0.0000
# 4 0.0000 0.0000 0.0000 44.2677 0.0000 0.0000
# 5 0.0000 0.0000 0.0000 0.0000 7.5933 0.0000
# 6 0.0000 0.0000 0.0000 0.0000 0.0000 10.6696
#
#
#
# Elastic Compliance Matrix: (Units=1/GPa)
#
#
# Indices 1 2 3 4 5 6 
#
# 1 0.047052 -0.005866 0.001762 0.000000 0.000000 0.000000
# 2 -0.005866 0.012387 -0.007431 0.000000 0.000000 0.000000
# 3 0.001762 -0.007431 0.013638 0.000000 0.000000 0.000000
# 4 0.000000 0.000000 0.000000 0.022590 0.000000 0.000000
# 5 0.000000 0.000000 0.000000 0.000000 0.131696 0.000000
# 6 0.000000 0.000000 0.000000 0.000000 0.000000 0.093724
#
#
# Mechanical properties :
#
#
# Convention : Reuss Voigt Hill
#
# Bulk Modulus (GPa) = 19.99665 47.95548 33.97606
# Shear Modulus (GPa) = 13.85714 24.15073 19.00393
#
# Velocity S-wave (km/s) = 2.63960 3.48471 3.09117
# Velocity P-wave (km/s) = 4.39824 6.34849 5.46113
#
# Compressibility (1/GPa) = 0.05000838
#
# Stress axis : x y z
#
# Youngs Moduli (GPa) = 21.25326 80.72804 73.32383
#
# Poissons Ratio (x) = 0.47352 -0.12918
# Poissons Ratio (y) = 0.12466 0.54484
# Poissons Ratio (z) = -0.03744 0.59986
#
# Static dielectric constant tensor:
#      x y z
#    x 1.744310 0.000000 0.000000 
#    y 0.000000 1.642480 0.000000 
#    z 0.000000 0.000000 1.643070 
# 
# From -- ./inp_files/37574.got.cif
#   From: 2010.05.17/outbox.cif.g08.bks.cpg/sg67_19_cif.got.tgz:37574.got - 2010.06.03 18:28:57.
