data_PCOD9503523
_publ_section_title
;
Structure prediction by ZEFSAII (Michael W. Deem and Ramdas Pophale) SiO2 
 PCOD9503523
Probable space group: C M M A
;
_chemical_formula_sum "Si O2"
_cell_formula_units_Z 116
_cell_length_a 17.814956
_cell_length_b 28.487427
_cell_length_c 12.036593
_cell_angle_alpha 90.000000
_cell_angle_beta 90.000000
_cell_angle_gamma 90.000000
_cell_volume 6108.598133
_symmetry_space_group_name_H-M "C M M A"
_symmetry_group_IT_number 67
_symmetry_cell_setting 'orthorhombic'
loop_
_space_group_symop_operation_xyz
x,y,z
-x,1/2-y,z
x,-y,-z
-x,1/2+y,-z
-x,-y,-z
x,1/2+y,-z
-x,y,z
x,1/2-y,z
1/2+x,1/2+y,z
1/2-x,-y,z
1/2+x,1/2-y,-z
1/2-x,y,-z
1/2-x,1/2-y,-z
1/2+x,y,-z
1/2-x,1/2+y,z
1/2+x,-y,z
loop_
_atom_site_type_symbol
_atom_site_label
_atom_site_fract_x
_atom_site_fract_y
_atom_site_fract_z
Si Si1 0.086030 0.929194 0.363535
Si Si2 0.913381 0.369258 0.847391
Si Si3 0.413184 0.928935 0.052792
Si Si4 0.727269 0.196422 0.129252
Si Si5 0.384810 0.162441 0.792745
Si Si6 0.335671 0.013615 0.765494
Si Si7 0.000000 0.250000 0.177687
Si Si8 0.588725 0.409100 0.616088
O O1 0.088657 0.885833 0.279299
O O2 0.109327 0.914964 0.487260
O O3 0.000000 0.945135 0.372829
O O4 0.128452 0.970553 0.301347
O O5 0.851862 0.329626 0.862756
O O6 0.000000 0.356376 0.875914
O O7 0.892293 0.412883 0.928527
O O8 0.500000 0.942872 0.053102
O O9 0.405024 0.880467 0.123675
O O10 0.368632 0.969512 0.116283
O O11 0.720117 0.250000 0.166248
O O12 0.796437 0.172481 0.193223
O O13 0.750000 0.195687 0.000000
O O14 0.434134 0.208171 0.819875
O O15 0.402919 0.142263 0.670299
O O16 0.356502 0.057645 0.686600
O O17 0.250000 0.000000 0.778944
O O18 0.500000 0.422473 0.630844
#
# Coordination Sequence:
#
# PCOD9503523 Si02
#       8
#    16  16  16  16  16  16   4  16
#     4  10  22  40  61  84 116 163 210 248 299 364
#     4  10  23  41  62  85 121 166 207 248 305 380
#     4  10  20  39  61  87 121 160 202 250 312 367
#     4  11  23  38  59  92 127 157 199 257 317 378
#     4  11  20  36  62  94 124 155 198 263 314 370
#     4  11  23  36  58  92 123 154 201 259 308 367
#     4  12  20  36  66 104 128 150 212 260 318 386
#     4  10  21  40  64  87 120 158 207 258 313 359
#
# _framework density 18.989626999999999
#
# number of rings (size 3 to 8) (size 9 to 14) (size 15 to 20)
#    0.000    1.517    3.448    2.483    3.862    3.034 
#    0.000    2.759    1.517    0.828    0.000    0.000 
#    0.000    0.000    0.000    0.000    0.000    0.000 
#
# Total GULP energy -323198.493683 kJ/mol
# GULP energy per Si atom -5572.387822 kJ/mol
# Density = 1.894641 g / cm^3
# Si number density = 18.989627 Si / 1000 Ang^3
#
#
#
# Elastic Constant Matrix: (Units=GPa)
#
#
# Indices 1 2 3 4 5 6 
#
# 1 93.1826 39.4998 35.9661 0.0000 0.0000 0.0000
# 2 39.4998 67.8196 21.1931 0.0000 0.0000 0.0000
# 3 35.9661 21.1931 103.6919 0.0000 0.0000 0.0000
# 4 0.0000 0.0000 0.0000 8.1092 0.0000 0.0000
# 5 0.0000 0.0000 0.0000 0.0000 17.3281 0.0000
# 6 0.0000 0.0000 0.0000 0.0000 0.0000 11.5245
#
#
#
# Elastic Compliance Matrix: (Units=1/GPa)
#
#
# Indices 1 2 3 4 5 6 
#
# 1 0.015521 -0.007860 -0.003777 0.000000 0.000000 0.000000
# 2 -0.007860 0.019731 -0.001307 0.000000 0.000000 0.000000
# 3 -0.003777 -0.001307 0.011221 0.000000 0.000000 0.000000
# 4 0.000000 0.000000 0.000000 0.123316 0.000000 0.000000
# 5 0.000000 0.000000 0.000000 0.000000 0.057710 0.000000
# 6 0.000000 0.000000 0.000000 0.000000 0.000000 0.086772
#
#
# Mechanical properties :
#
#
# Convention : Reuss Voigt Hill
#
# Bulk Modulus (GPa) = 48.57555 50.89026 49.73291
# Shear Modulus (GPa) = 14.40841 18.59471 16.50156
#
# Velocity S-wave (km/s) = 2.75753 3.13262 2.95104
# Velocity P-wave (km/s) = 5.98116 6.31993 6.15288
#
# Compressibility (1/GPa) = 0.02058649
#
# Stress axis : x y z
#
# Youngs Moduli (GPa) = 64.42812 50.68195 89.11743
#
# Poissons Ratio (x) = 0.39834 0.33662
# Poissons Ratio (y) = 0.50638 0.11644
# Poissons Ratio (z) = 0.24336 0.06622
#
# Static dielectric constant tensor:
#      x y z
#    x 1.673100 0.000000 0.000000 
#    y 0.000000 1.669710 0.000000 
#    z 0.000000 0.000000 1.683730 
# 
# From -- ./inp_files/19962.got.cif
#   From: 2010.05.17/outbox.cif.g08.bks.cpg/sg67_10_cif.got.tgz:19962.got - 2010.06.03 18:28:57.
