data_PCOD9503347
_publ_section_title
;
Structure prediction by ZEFSAII (Michael W. Deem and Ramdas Pophale) SiO2 
 PCOD9503347
Probable space group: C M M A
;
_chemical_formula_sum "Si O2"
_cell_formula_units_Z 104
_cell_length_a 15.571276
_cell_length_b 21.432706
_cell_length_c 14.803865
_cell_angle_alpha 90.000000
_cell_angle_beta 90.000000
_cell_angle_gamma 90.000000
_cell_volume 4940.561676
_symmetry_space_group_name_H-M "C M M A"
_symmetry_group_IT_number 67
_symmetry_cell_setting 'orthorhombic'
loop_
_space_group_symop_operation_xyz
x,y,z
-x,1/2-y,z
x,-y,-z
-x,1/2+y,-z
-x,-y,-z
x,1/2+y,-z
-x,y,z
x,1/2-y,z
1/2+x,1/2+y,z
1/2-x,-y,z
1/2+x,1/2-y,-z
1/2-x,y,-z
1/2-x,1/2-y,-z
1/2+x,y,-z
1/2-x,1/2+y,z
1/2+x,-y,z
loop_
_atom_site_type_symbol
_atom_site_label
_atom_site_fract_x
_atom_site_fract_y
_atom_site_fract_z
Si Si1 0.306768 0.683599 0.304617
Si Si2 0.851464 0.819035 0.167165
Si Si3 0.899275 0.452123 0.757396
Si Si4 0.750000 0.849583 0.500000
Si Si5 0.603259 0.320159 0.965009
Si Si6 0.603217 0.086132 0.806975
Si Si7 0.401023 0.436128 0.444981
O O1 0.354847 0.750000 0.297483
O O2 0.233917 0.682722 0.227296
O O3 0.262447 0.682415 0.402737
O O4 0.363691 0.623619 0.280634
O O5 0.893566 0.750000 0.183767
O O6 0.892294 0.884917 0.196151
O O7 0.846019 0.823185 0.059018
O O8 0.864987 0.514507 0.806062
O O9 0.864904 0.447179 0.655796
O O10 0.000000 0.464910 0.746213
O O11 0.663312 0.889138 0.508556
O O12 0.500000 0.326397 0.984690
O O13 0.615477 0.250000 0.927078
O O14 0.628668 0.373522 0.894708
O O15 0.500000 0.087428 0.807059
O O16 0.401502 0.500000 0.500000
O O17 0.500000 0.413276 0.439758
#
# Coordination Sequence:
#
# PCOD9503347 Si02
#       7
#    16  16  16   8  16  16  16
#     4  11  24  40  61  87 121 163 206 259 315 374
#     4  10  21  38  59  89 123 158 199 249 305 366
#     4  10  20  37  60  87 121 158 199 252 308 367
#     4  12  22  40  64  88 122 167 211 262 321 368
#     4   9  18  35  61  90 122 164 208 247 301 375
#     4  10  22  39  61  90 123 160 206 259 310 369
#     4  10  21  37  59  90 124 162 212 261 313 380
#
# _framework density 21.050236999999999
#
# number of rings (size 3 to 8) (size 9 to 14) (size 15 to 20)
#    0.000    1.846    1.538    2.308    0.000    5.538 
#    0.000    4.615    0.000    3.231    0.000    0.000 
#    0.000    0.000    0.000    0.000    0.000    0.000 
#
# Total GULP energy -289909.302157 kJ/mol
# GULP energy per Si atom -5575.178888 kJ/mol
# Density = 2.100233 g / cm^3
# Si number density = 21.050237 Si / 1000 Ang^3
#
#
#
# Elastic Constant Matrix: (Units=GPa)
#
#
# Indices 1 2 3 4 5 6 
#
# 1 38.8001 24.7041 31.2434 0.0000 0.0000 0.0000
# 2 24.7041 144.1005 58.8304 0.0000 0.0000 0.0000
# 3 31.2434 58.8304 131.0473 0.0000 0.0000 0.0000
# 4 0.0000 0.0000 0.0000 24.1745 0.0000 0.0000
# 5 0.0000 0.0000 0.0000 0.0000 28.3671 0.0000
# 6 0.0000 0.0000 0.0000 0.0000 0.0000 11.8262
#
#
#
# Elastic Compliance Matrix: (Units=1/GPa)
#
#
# Indices 1 2 3 4 5 6 
#
# 1 0.032914 -0.002986 -0.006506 0.000000 0.000000 0.000000
# 2 -0.002986 0.008768 -0.003224 0.000000 0.000000 0.000000
# 3 -0.006506 -0.003224 0.010629 0.000000 0.000000 0.000000
# 4 0.000000 0.000000 0.000000 0.041366 0.000000 0.000000
# 5 0.000000 0.000000 0.000000 0.000000 0.035252 0.000000
# 6 0.000000 0.000000 0.000000 0.000000 0.000000 0.084558
#
#
# Mechanical properties :
#
#
# Convention : Reuss Voigt Hill
#
# Bulk Modulus (GPa) = 37.20613 60.38932 48.79773
# Shear Modulus (GPa) = 20.17108 26.15158 23.16133
#
# Velocity S-wave (km/s) = 3.09890 3.52851 3.32066
# Velocity P-wave (km/s) = 5.52426 6.73431 6.15908
#
# Compressibility (1/GPa) = 0.02687729
#
# Stress axis : x y z
#
# Youngs Moduli (GPa) = 30.38241 114.05314 94.07829
#
# Poissons Ratio (x) = 0.34060 0.61212
# Poissons Ratio (y) = 0.09073 0.30332
# Poissons Ratio (z) = 0.19768 0.36772
#
# Static dielectric constant tensor:
#      x y z
#    x 1.776040 0.000000 0.000000 
#    y 0.000000 1.804060 0.000000 
#    z 0.000000 0.000000 1.740010 
# 
# From -- ./inp_files/28636.got.cif
#   From: 2010.05.17/outbox.cif.g08.bks.cpg/sg67_15_cif.got.tgz:28636.got - 2010.06.03 18:28:57.
