data_PCOD9503155
_publ_section_title
;
Structure prediction by ZEFSAII (Michael W. Deem and Ramdas Pophale) SiO2 
 PCOD9503155
Probable space group: C M M A
;
_chemical_formula_sum "Si O2"
_cell_formula_units_Z 96
_cell_length_a 18.427966
_cell_length_b 25.342252
_cell_length_c 11.919135
_cell_angle_alpha 90.000000
_cell_angle_beta 90.000000
_cell_angle_gamma 90.000000
_cell_volume 5566.309446
_symmetry_space_group_name_H-M "C M M A"
_symmetry_group_IT_number 67
_symmetry_cell_setting 'orthorhombic'
loop_
_space_group_symop_operation_xyz
x,y,z
-x,1/2-y,z
x,-y,-z
-x,1/2+y,-z
-x,-y,-z
x,1/2+y,-z
-x,y,z
x,1/2-y,z
1/2+x,1/2+y,z
1/2-x,-y,z
1/2+x,1/2-y,-z
1/2-x,y,-z
1/2-x,1/2-y,-z
1/2+x,y,-z
1/2-x,1/2+y,z
1/2+x,-y,z
loop_
_atom_site_type_symbol
_atom_site_label
_atom_site_fract_x
_atom_site_fract_y
_atom_site_fract_z
Si Si1 0.083983 0.493668 0.366674
Si Si2 0.350965 0.907488 0.764086
Si Si3 0.679119 0.595081 0.252595
Si Si4 0.819905 0.688043 0.577902
Si Si5 0.337745 0.561328 0.007562
Si Si6 0.414178 0.811123 0.632838
O O1 0.091179 0.500000 0.500000
O O2 0.106823 0.547077 0.302988
O O3 0.136689 0.447629 0.325860
O O4 0.000000 0.481400 0.341328
O O5 0.264930 0.917810 0.750973
O O6 0.372193 0.851619 0.711683
O O7 0.367118 0.910470 0.896559
O O8 0.673867 0.651299 0.314015
O O9 0.647577 0.588767 0.126725
O O10 0.813486 0.750000 0.606212
O O11 0.750000 0.674069 0.500000
O O12 0.887769 0.680167 0.494654
O O13 0.361286 0.500000 0.000000
O O14 0.250000 0.560910 0.000000
O O15 0.500000 0.819242 0.642794
O O16 0.396961 0.750000 0.659501
#
# Coordination Sequence:
#
# PCOD9503155 Si02
#       6
#    16  16  16  16  16  16
#     4  11  24  36  50  79 117 147 182 236 292 344
#     4  11  20  36  59  80 110 151 191 232 278 337
#     4  11  21  35  58  83 109 148 190 235 282 334
#     4  10  20  36  58  86 115 146 188 233 280 343
#     4   9  18  35  54  79 112 149 188 233 278 328
#     4  10  21  37  59  86 116 149 184 230 289 341
#
# _framework density 17.246614999999998
#
# number of rings (size 3 to 8) (size 9 to 14) (size 15 to 20)
#    0.000    1.667    3.333    2.000    0.000    2.667 
#    0.000    3.333    0.000    3.000    0.000    2.333 
#    0.000    0.000    0.000    0.000    0.000    0.000 
#
# Total GULP energy -267848.547672 kJ/mol
# GULP energy per Si atom -5580.178077 kJ/mol
# Density = 1.720736 g / cm^3
# Si number density = 17.246615 Si / 1000 Ang^3
#
#
#
# Elastic Constant Matrix: (Units=GPa)
#
#
# Indices 1 2 3 4 5 6 
#
# 1 69.4854 32.6269 37.5249 0.0000 0.0000 0.0000
# 2 32.6269 88.8079 71.0330 0.0000 0.0000 0.0000
# 3 37.5249 71.0330 127.6772 0.0000 0.0000 0.0000
# 4 0.0000 0.0000 0.0000 7.7798 0.0000 0.0000
# 5 0.0000 0.0000 0.0000 0.0000 7.0352 0.0000
# 6 0.0000 0.0000 0.0000 0.0000 0.0000 20.3118
#
#
#
# Elastic Compliance Matrix: (Units=1/GPa)
#
#
# Indices 1 2 3 4 5 6 
#
# 1 0.017968 -0.004283 -0.002898 0.000000 0.000000 0.000000
# 2 -0.004283 0.021310 -0.010597 0.000000 0.000000 0.000000
# 3 -0.002898 -0.010597 0.014579 0.000000 0.000000 0.000000
# 4 0.000000 0.000000 0.000000 0.128539 0.000000 0.000000
# 5 0.000000 0.000000 0.000000 0.000000 0.142142 0.000000
# 6 0.000000 0.000000 0.000000 0.000000 0.000000 0.049233
#
#
# Mechanical properties :
#
#
# Convention : Reuss Voigt Hill
#
# Bulk Modulus (GPa) = 54.64144 63.14890 58.89517
# Shear Modulus (GPa) = 12.03585 16.67774 14.35679
#
# Velocity S-wave (km/s) = 2.64458 3.11306 2.88834
# Velocity P-wave (km/s) = 6.40908 7.04388 6.73396
#
# Compressibility (1/GPa) = 0.01830113
#
# Stress axis : x y z
#
# Youngs Moduli (GPa) = 55.65556 46.92703 68.59009
#
# Poissons Ratio (x) = 0.20100 0.19876
# Poissons Ratio (y) = 0.23839 0.72683
# Poissons Ratio (z) = 0.16128 0.49727
#
# Static dielectric constant tensor:
#      x y z
#    x 1.590480 0.000000 0.000000 
#    y 0.000000 1.575740 0.000000 
#    z 0.000000 0.000000 1.584400 
# 
# From -- ./inp_files/19676.got.cif
#   From: 2010.05.17/outbox.cif.g08.bks.cpg/sg67_10_cif.got.tgz:19676.got - 2010.06.03 18:28:57.
