data_PCOD9503291
_publ_section_title
;
Structure prediction by ZEFSAII (Michael W. Deem and Ramdas Pophale) SiO2 
 PCOD9503291
Probable space group: C M M A
;
_chemical_formula_sum "Si O2"
_cell_formula_units_Z 72
_cell_length_a 23.197509
_cell_length_b 9.159078
_cell_length_c 18.032826
_cell_angle_alpha 90.000000
_cell_angle_beta 90.000000
_cell_angle_gamma 90.000000
_cell_volume 3831.394766
_symmetry_space_group_name_H-M "C M M A"
_symmetry_group_IT_number 67
_symmetry_cell_setting 'orthorhombic'
loop_
_space_group_symop_operation_xyz
x,y,z
-x,1/2-y,z
x,-y,-z
-x,1/2+y,-z
-x,-y,-z
x,1/2+y,-z
-x,y,z
x,1/2-y,z
1/2+x,1/2+y,z
1/2-x,-y,z
1/2+x,1/2-y,-z
1/2-x,y,-z
1/2-x,1/2-y,-z
1/2+x,y,-z
1/2-x,1/2+y,z
1/2+x,-y,z
loop_
_atom_site_type_symbol
_atom_site_label
_atom_site_fract_x
_atom_site_fract_y
_atom_site_fract_z
Si Si1 0.604909 0.000000 0.500000
Si Si2 0.312319 0.926217 0.924002
Si Si3 0.187407 0.926193 0.371710
Si Si4 0.385511 0.420980 0.221851
Si Si5 0.500000 0.102910 0.413447
Si Si6 0.000000 0.078499 0.271786
O O1 0.648389 0.014413 0.568937
O O2 0.556883 0.895491 0.536682
O O3 0.306604 0.750000 0.931868
O O4 0.352951 0.957587 0.854177
O O5 0.250000 0.000000 0.910647
O O6 0.334165 0.000000 0.000000
O O7 0.189363 0.750000 0.389906
O O8 0.157355 0.940106 0.291709
O O9 0.250000 0.000000 0.371277
O O10 0.400722 0.250000 0.219145
O O11 0.442645 0.512432 0.236075
O O12 0.500000 0.250000 0.365340
O O13 0.500000 0.967697 0.358534
O O14 0.000000 0.250000 0.265112
#
# Coordination Sequence:
#
# PCOD9503291 Si02
#       6
#     8  16  16  16   8   8
#     4  11  23  38  62  88 113 157 202 252 296 351
#     4  10  20  36  64  95 128 163 200 243 296 356
#     4  11  24  41  60  85 119 158 200 249 301 358
#     4  10  22  43  64  86 120 165 203 243 300 359
#     4  11  23  43  66  85 116 158 202 253 302 363
#     4  12  25  39  63  94 119 152 200 255 304 356
#
# _framework density 18.792110999999998
#
# number of rings (size 3 to 8) (size 9 to 14) (size 15 to 20)
#    0.000    1.333    2.222    4.000    0.000    8.000 
#    0.000    0.556    0.000    0.000    0.000    0.000 
#    0.000    0.000    0.000    0.000    0.000    0.000 
#
# Total GULP energy -200683.445739 kJ/mol
# GULP energy per Si atom -5574.540159 kJ/mol
# Density = 1.874934 g / cm^3
# Si number density = 18.792111 Si / 1000 Ang^3
#
#
#
# Elastic Constant Matrix: (Units=GPa)
#
#
# Indices 1 2 3 4 5 6 
#
# 1 159.3778 77.6962 81.2307 0.0000 0.0000 0.0000
# 2 77.6962 84.9939 73.0043 0.0000 0.0000 0.0000
# 3 81.2307 73.0043 156.7057 0.0000 0.0000 0.0000
# 4 0.0000 0.0000 0.0000 25.6378 0.0000 0.0000
# 5 0.0000 0.0000 0.0000 0.0000 13.7588 0.0000
# 6 0.0000 0.0000 0.0000 0.0000 0.0000 42.0529
#
#
#
# Elastic Compliance Matrix: (Units=1/GPa)
#
#
# Indices 1 2 3 4 5 6 
#
# 1 0.011612 -0.009077 -0.001791 0.000000 0.000000 0.000000
# 2 -0.009077 0.026710 -0.007738 0.000000 0.000000 0.000000
# 3 -0.001791 -0.007738 0.010914 0.000000 0.000000 0.000000
# 4 0.000000 0.000000 0.000000 0.039005 0.000000 0.000000
# 5 0.000000 0.000000 0.000000 0.000000 0.072681 0.000000
# 6 0.000000 0.000000 0.000000 0.000000 0.000000 0.023780
#
#
# Mechanical properties :
#
#
# Convention : Reuss Voigt Hill
#
# Bulk Modulus (GPa) = 83.16029 96.10444 89.63237
# Shear Modulus (GPa) = 22.13164 27.56630 24.84897
#
# Velocity S-wave (km/s) = 3.43550 3.83418 3.64030
# Velocity P-wave (km/s) = 7.75150 8.41743 8.09132
#
# Compressibility (1/GPa) = 0.01202497
#
# Stress axis : x y z
#
# Youngs Moduli (GPa) = 86.11765 37.43968 91.62179
#
# Poissons Ratio (x) = 0.33984 0.16405
# Poissons Ratio (y) = 0.78169 0.70897
# Poissons Ratio (z) = 0.15420 0.28971
#
# Static dielectric constant tensor:
#      x y z
#    x 1.631000 0.000000 0.000000 
#    y 0.000000 1.672390 0.000000 
#    z 0.000000 0.000000 1.641060 
# 
# From -- ./inp_files/35373.got.cif
#   From: 2010.05.17/outbox.cif.g08.bks.cpg/sg67_18_cif.got.tgz:35373.got - 2010.06.03 18:28:57.
