data_PCOD9503982
_publ_section_title
;
Structure prediction by ZEFSAII (Michael W. Deem and Ramdas Pophale) SiO2 
 PCOD9503982
Probable space group: C M M A
;
_chemical_formula_sum "Si O2"
_cell_formula_units_Z 80
_cell_length_a 19.325109
_cell_length_b 8.670726
_cell_length_c 26.958241
_cell_angle_alpha 90.000000
_cell_angle_beta 90.000000
_cell_angle_gamma 90.000000
_cell_volume 4517.196325
_symmetry_space_group_name_H-M "C M M A"
_symmetry_group_IT_number 67
_symmetry_cell_setting 'orthorhombic'
loop_
_space_group_symop_operation_xyz
x,y,z
-x,1/2-y,z
x,-y,-z
-x,1/2+y,-z
-x,-y,-z
x,1/2+y,-z
-x,y,z
x,1/2-y,z
1/2+x,1/2+y,z
1/2-x,-y,z
1/2+x,1/2-y,-z
1/2-x,y,-z
1/2-x,1/2-y,-z
1/2+x,y,-z
1/2-x,1/2+y,z
1/2+x,-y,z
loop_
_atom_site_type_symbol
_atom_site_label
_atom_site_fract_x
_atom_site_fract_y
_atom_site_fract_z
Si Si1 0.918495 0.065627 0.946107
Si Si2 0.171989 0.566266 0.857004
Si Si3 0.580290 0.063830 0.447130
Si Si4 0.827643 0.563860 0.354696
Si Si5 0.171760 0.064929 0.754475
O O1 0.910152 0.250000 0.945849
O O2 0.000000 0.030199 0.938764
O O3 0.873350 0.992059 0.902727
O O4 0.898530 0.000000 0.000000
O O5 0.175676 0.750000 0.856064
O O6 0.250000 0.500000 0.861471
O O7 0.141191 0.505996 0.804580
O O8 0.500000 0.016996 0.441088
O O9 0.582430 0.250000 0.448691
O O10 0.625598 0.011122 0.400489
O O11 0.605174 0.000000 0.500000
O O12 0.823931 0.750000 0.356141
O O13 0.750000 0.500000 0.359068
O O14 0.857178 0.523568 0.299947
O O15 0.172994 0.250000 0.759168
O O16 0.250000 0.000000 0.753079
#
# Coordination Sequence:
#
# PCOD9503982 Si02
#       5
#    16  16  16  16  16
#     4  10  21  38  58  79 105 137 172 210 255 305
#     4  11  21  34  54  79 107 137 172 212 253 299
#     4   9  18  33  50  68  93 126 162 199 242 292
#     4   9  18  31  49  72  97 126 161 202 245 292
#     4   9  16  29  48  71  99 130 164 201 248 298
#
# _framework density 17.710099
#
# number of rings (size 3 to 8) (size 9 to 14) (size 15 to 20)
#    0.000    2.400    0.000    4.200    0.000    3.600 
#    0.000    5.000    0.000    3.600    0.000    0.000 
#    0.000    0.000    0.000    0.000    0.000    0.000 
#
# Total GULP energy -223017.882450 kJ/mol
# GULP energy per Si atom -5575.447061 kJ/mol
# Density = 1.766979 g / cm^3
# Si number density = 17.710099 Si / 1000 Ang^3
#
#
#
# Elastic Constant Matrix: (Units=GPa)
#
#
# Indices 1 2 3 4 5 6 
#
# 1 47.3450 29.6305 79.6540 0.0000 0.0000 0.0000
# 2 29.6305 65.8758 63.9537 0.0000 0.0000 0.0000
# 3 79.6540 63.9537 227.3953 0.0000 0.0000 0.0000
# 4 0.0000 0.0000 0.0000 33.4036 0.0000 0.0000
# 5 0.0000 0.0000 0.0000 0.0000 59.9665 0.0000
# 6 0.0000 0.0000 0.0000 0.0000 0.0000 20.0513
#
#
#
# Elastic Compliance Matrix: (Units=1/GPa)
#
#
# Indices 1 2 3 4 5 6 
#
# 1 0.054490 -0.008225 -0.016774 0.000000 0.000000 0.000000
# 2 -0.008225 0.022123 -0.003341 0.000000 0.000000 0.000000
# 3 -0.016774 -0.003341 0.011213 0.000000 0.000000 0.000000
# 4 0.000000 0.000000 0.000000 0.029937 0.000000 0.000000
# 5 0.000000 0.000000 0.000000 0.000000 0.016676 0.000000
# 6 0.000000 0.000000 0.000000 0.000000 0.000000 0.049872
#
#
# Mechanical properties :
#
#
# Convention : Reuss Voigt Hill
#
# Bulk Modulus (GPa) = 32.10625 76.34363 54.22494
# Shear Modulus (GPa) = 19.89084 33.84281 26.86682
#
# Velocity S-wave (km/s) = 3.35496 4.37616 3.89914
# Velocity P-wave (km/s) = 5.75984 8.29068 7.13832
#
# Compressibility (1/GPa) = 0.03114658
#
# Stress axis : x y z
#
# Youngs Moduli (GPa) = 18.35207 45.20200 89.18198
#
# Poissons Ratio (x) = 0.37176 1.49594
# Poissons Ratio (y) = 0.15094 0.29796
# Poissons Ratio (z) = 0.30784 0.15102
#
# Static dielectric constant tensor:
#      x y z
#    x 1.600760 0.000000 0.000000 
#    y 0.000000 1.596630 0.000000 
#    z 0.000000 0.000000 1.633620 
# 
# From -- ./inp_files/43280.got.cif
#   From: 2010.05.17/outbox.cif.g08.bks.cpg/sg67_22_cif.got.tgz:43280.got - 2010.06.03 18:28:57.
