data_PCOD9503454
_publ_section_title
;
Structure prediction by ZEFSAII (Michael W. Deem and Ramdas Pophale) SiO2 
 PCOD9503454
Probable space group: C M M A
;
_chemical_formula_sum "Si O2"
_cell_formula_units_Z 72
_cell_length_a 27.441538
_cell_length_b 9.702282
_cell_length_c 13.239267
_cell_angle_alpha 90.000000
_cell_angle_beta 90.000000
_cell_angle_gamma 90.000000
_cell_volume 3524.895794
_symmetry_space_group_name_H-M "C M M A"
_symmetry_group_IT_number 67
_symmetry_cell_setting 'orthorhombic'
loop_
_space_group_symop_operation_xyz
x,y,z
-x,1/2-y,z
x,-y,-z
-x,1/2+y,-z
-x,-y,-z
x,1/2+y,-z
-x,y,z
x,1/2-y,z
1/2+x,1/2+y,z
1/2-x,-y,z
1/2+x,1/2-y,-z
1/2-x,y,-z
1/2-x,1/2-y,-z
1/2+x,y,-z
1/2-x,1/2+y,z
1/2+x,-y,z
loop_
_atom_site_type_symbol
_atom_site_label
_atom_site_fract_x
_atom_site_fract_y
_atom_site_fract_z
Si Si1 0.878153 0.000000 0.000000
Si Si2 0.945191 0.914933 0.811856
Si Si3 0.791897 0.894354 0.121797
Si Si4 0.103024 0.581684 0.594755
Si Si5 0.200389 0.585707 0.359563
O O1 0.839191 0.898658 0.052256
O O2 0.911607 0.045889 0.093231
O O3 0.947927 0.750000 0.813339
O O4 0.923445 0.948745 0.701493
O O5 0.000000 0.971911 0.823026
O O6 0.765944 0.750000 0.113614
O O7 0.806378 0.912293 0.238389
O O8 0.750000 0.000000 0.100194
O O9 0.079217 0.500000 0.500000
O O10 0.105360 0.750000 0.581246
O O11 0.155792 0.508315 0.603347
O O12 0.201256 0.750000 0.391575
O O13 0.250000 0.500000 0.381435
#
# Coordination Sequence:
#
# PCOD9503454 Si02
#       5
#     8  16  16  16  16
#     4  12  20  38  64  94 128 170 210 254 314 374
#     4  10  23  42  64  92 126 165 211 264 323 382
#     4  10  22  36  57  90 130 171 212 253 301 366
#     4  11  23  42  67  94 125 166 212 264 320 376
#     4  10  20  38  61  92 130 169 211 256 308 370
#
# _framework density 20.426134999999999
#
# number of rings (size 3 to 8) (size 9 to 14) (size 15 to 20)
#    0.000    1.556    2.222    2.667    0.000    4.444 
#    0.000    2.222    0.000    6.000    0.000    0.000 
#    0.000    0.000    0.000    0.000    0.000    0.000 
#
# Total GULP energy -200580.085123 kJ/mol
# GULP energy per Si atom -5571.669031 kJ/mol
# Density = 2.037964 g / cm^3
# Si number density = 20.426135 Si / 1000 Ang^3
#
#
#
# Elastic Constant Matrix: (Units=GPa)
#
#
# Indices 1 2 3 4 5 6 
#
# 1 126.4942 54.0426 58.2884 0.0000 0.0000 0.0000
# 2 54.0426 130.9487 59.4147 0.0000 0.0000 0.0000
# 3 58.2884 59.4147 166.6946 0.0000 0.0000 0.0000
# 4 0.0000 0.0000 0.0000 50.7796 0.0000 0.0000
# 5 0.0000 0.0000 0.0000 0.0000 -1.6400 0.0000
# 6 0.0000 0.0000 0.0000 0.0000 0.0000 28.0008
#
#
#
# Elastic Compliance Matrix: (Units=1/GPa)
#
#
# Indices 1 2 3 4 5 6 
#
# 1 0.010413 -0.003156 -0.002516 0.000000 0.000000 0.000000
# 2 -0.003156 0.010066 -0.002484 0.000000 0.000000 0.000000
# 3 -0.002516 -0.002484 0.007764 0.000000 0.000000 0.000000
# 4 0.000000 0.000000 0.000000 0.019693 0.000000 0.000000
# 5 0.000000 0.000000 0.000000 0.000000 -0.609744 0.000000
# 6 0.000000 0.000000 0.000000 0.000000 0.000000 0.035713
#
#
# Mechanical properties :
#
#
# Convention : Reuss Voigt Hill
#
# Bulk Modulus (GPa) = 83.81732 85.29211 84.55472
# Shear Modulus (GPa) = -9.88525 32.25419 11.18447
#
# Velocity S-wave (km/s) = -2.20228 3.97806 2.34253
# Velocity P-wave (km/s) = 5.88700 7.93391 6.98583
#
# Compressibility (1/GPa) = 0.01193071
#
# Stress axis : x y z
#
# Youngs Moduli (GPa) = 96.03065 99.34216 128.79255
#
# Poissons Ratio (x) = 0.31351 0.32410
# Poissons Ratio (y) = 0.30306 0.31997
# Poissons Ratio (z) = 0.24165 0.24680
#
# Static dielectric constant tensor:
#      x y z
#    x 1.724200 0.000000 0.000000 
#    y 0.000000 1.739700 0.000000 
#    z 0.000000 0.000000 1.840950 
# 
# From -- ./inp_files/30555.got.cif
#   From: 2010.05.17/outbox.cif.g08.bks.cpg/sg67_16_cif.got.tgz:30555.got - 2010.06.03 18:28:57.
