data_PCOD9503456
_publ_section_title
;
Structure prediction by ZEFSAII (Michael W. Deem and Ramdas Pophale) SiO2 
 PCOD9503456
Probable space group: C M M A
;
_chemical_formula_sum "Si O2"
_cell_formula_units_Z 112
_cell_length_a 19.475440
_cell_length_b 26.849985
_cell_length_c 10.727436
_cell_angle_alpha 90.000000
_cell_angle_beta 90.000000
_cell_angle_gamma 90.000000
_cell_volume 5609.540112
_symmetry_space_group_name_H-M "C M M A"
_symmetry_group_IT_number 67
_symmetry_cell_setting 'orthorhombic'
loop_
_space_group_symop_operation_xyz
x,y,z
-x,1/2-y,z
x,-y,-z
-x,1/2+y,-z
-x,-y,-z
x,1/2+y,-z
-x,y,z
x,1/2-y,z
1/2+x,1/2+y,z
1/2-x,-y,z
1/2+x,1/2-y,-z
1/2-x,y,-z
1/2-x,1/2-y,-z
1/2+x,y,-z
1/2-x,1/2+y,z
1/2+x,-y,z
loop_
_atom_site_type_symbol
_atom_site_label
_atom_site_fract_x
_atom_site_fract_y
_atom_site_fract_z
Si Si1 0.921748 0.131453 0.917194
Si Si2 0.832766 0.376619 0.475942
Si Si3 0.302739 0.610263 0.100807
Si Si4 0.791411 0.195130 0.269443
Si Si5 0.078605 0.982414 0.139655
Si Si6 0.867932 0.193257 0.686437
Si Si7 0.183017 0.466798 0.323318
O O1 0.921545 0.077111 0.853653
O O2 0.890943 0.171568 0.820343
O O3 0.000000 0.144846 0.947924
O O4 0.876267 0.119973 0.038999
O O5 0.750000 0.379024 0.500000
O O6 0.837668 0.338050 0.360600
O O7 0.877297 0.351000 0.584803
O O8 0.847615 0.433452 0.435633
O O9 0.280778 0.664939 0.143534
O O10 0.296793 0.574877 0.219879
O O11 0.250000 0.589796 0.000000
O O12 0.819815 0.250000 0.253264
O O13 0.714496 0.198711 0.322014
O O14 0.000000 0.000805 0.150893
O O15 0.126489 0.002098 0.248915
O O16 0.102382 0.000000 0.000000
O O17 0.895462 0.250000 0.665253
O O18 0.250000 0.500000 0.352909
#
# Coordination Sequence:
#
# PCOD9503456 Si02
#       7
#    16  16  16  16  16  16  16
#     4  11  23  38  57  85 121 159 200 245 295 361
#     4   9  20  37  54  84 116 147 190 244 297 346
#     4  11  20  33  54  85 119 149 191 238 294 358
#     4   9  18  32  55  83 110 144 187 237 294 350
#     4  10  21  38  58  80 115 159 198 230 285 362
#     4  10  20  38  62  82 113 157 200 249 297 350
#     4  11  23  34  58  89 118 154 192 247 296 348
#
# _framework density 19.965986000000001
#
# number of rings (size 3 to 8) (size 9 to 14) (size 15 to 20)
#    0.000    1.857    2.857    1.286    4.000    3.143 
#    0.000    0.714    0.000    2.571    0.000    0.000 
#    0.000    0.000    0.000    0.000    0.000    0.000 
#
# Total GULP energy -311936.660546 kJ/mol
# GULP energy per Si atom -5570.297510 kJ/mol
# Density = 1.992054 g / cm^3
# Si number density = 19.965986 Si / 1000 Ang^3
#
#
#
# Elastic Constant Matrix: (Units=GPa)
#
#
# Indices 1 2 3 4 5 6 
#
# 1 44.6988 13.3569 9.1485 0.0000 0.0000 0.0000
# 2 13.3569 87.3731 28.6613 0.0000 0.0000 0.0000
# 3 9.1485 28.6613 53.5593 0.0000 0.0000 0.0000
# 4 0.0000 0.0000 0.0000 -4.1205 0.0000 0.0000
# 5 0.0000 0.0000 0.0000 0.0000 11.6181 0.0000
# 6 0.0000 0.0000 0.0000 0.0000 0.0000 14.0344
#
#
#
# Elastic Compliance Matrix: (Units=1/GPa)
#
#
# Indices 1 2 3 4 5 6 
#
# 1 0.023729 -0.002787 -0.002562 0.000000 0.000000 0.000000
# 2 -0.002787 0.014209 -0.007128 0.000000 0.000000 0.000000
# 3 -0.002562 -0.007128 0.022923 0.000000 0.000000 0.000000
# 4 0.000000 0.000000 0.000000 -0.242692 0.000000 0.000000
# 5 0.000000 0.000000 0.000000 0.000000 0.086073 0.000000
# 6 0.000000 0.000000 0.000000 0.000000 0.000000 0.071254
#
#
# Mechanical properties :
#
#
# Convention : Reuss Voigt Hill
#
# Bulk Modulus (GPa) = 27.84900 31.99606 29.92253
# Shear Modulus (GPa) = 402.61182 13.27070 207.94126
#
# Velocity S-wave (km/s) = 14.21572 2.58091 10.21635
# Velocity P-wave (km/s) = 16.83530 4.99415 12.41710
#
# Compressibility (1/GPa) = 0.03590793
#
# Stress axis : x y z
#
# Youngs Moduli (GPa) = 42.14233 70.37584 43.62469
#
# Poissons Ratio (x) = 0.19615 0.11175
# Poissons Ratio (y) = 0.11746 0.31095
# Poissons Ratio (z) = 0.10795 0.50163
#
# Static dielectric constant tensor:
#      x y z
#    x 1.709510 0.000000 0.000000 
#    y 0.000000 1.772000 0.000000 
#    z 0.000000 0.000000 1.771230 
# 
# From -- ./inp_files/21220.got.cif
#   From: 2010.05.17/outbox.cif.g08.bks.cpg/sg67_11_cif.got.tgz:21220.got - 2010.06.03 18:28:57.
