data_PCOD9503497
_publ_section_title
;
Structure prediction by ZEFSAII (Michael W. Deem and Ramdas Pophale) SiO2 
 PCOD9503497
Probable space group: C M M A
;
_chemical_formula_sum "Si O2"
_cell_formula_units_Z 64
_cell_length_a 15.436640
_cell_length_b 9.871823
_cell_length_c 22.424312
_cell_angle_alpha 90.000000
_cell_angle_beta 90.000000
_cell_angle_gamma 90.000000
_cell_volume 3417.191074
_symmetry_space_group_name_H-M "C M M A"
_symmetry_group_IT_number 67
_symmetry_cell_setting 'orthorhombic'
loop_
_space_group_symop_operation_xyz
x,y,z
-x,1/2-y,z
x,-y,-z
-x,1/2+y,-z
-x,-y,-z
x,1/2+y,-z
-x,y,z
x,1/2-y,z
1/2+x,1/2+y,z
1/2-x,-y,z
1/2+x,1/2-y,-z
1/2-x,y,-z
1/2-x,1/2-y,-z
1/2+x,y,-z
1/2-x,1/2+y,z
1/2+x,-y,z
loop_
_atom_site_type_symbol
_atom_site_label
_atom_site_fract_x
_atom_site_fract_y
_atom_site_fract_z
Si Si1 0.000000 0.093962 0.354900
Si Si2 0.500000 0.411521 0.238516
Si Si3 0.652988 0.987466 0.850963
Si Si4 0.396787 0.750000 0.076013
Si Si5 0.833033 0.085307 0.439054
Si Si6 0.893957 0.750000 0.061227
O O1 0.914957 0.075597 0.395666
O O2 0.000000 0.250000 0.332869
O O3 0.000000 0.990909 0.300391
O O4 0.500000 0.250000 0.246522
O O5 0.416266 0.453397 0.199786
O O6 0.631400 0.123106 0.885797
O O7 0.750000 0.000000 0.826852
O O8 0.642766 0.875712 0.902358
O O9 0.500000 0.750000 0.071668
O O10 0.366256 0.750000 0.007581
O O11 0.817349 0.250000 0.448093
O O12 0.851936 0.000000 0.500000
O O13 0.750000 0.000000 0.414870
O O14 0.000000 0.750000 0.064786
#
# Coordination Sequence:
#
# PCOD9503497 Si02
#       6
#     8   8  16   8  16   8
#     4  10  25  43  65  91 127 169 218 261 301 363
#     4  12  26  47  62  84 122 165 211 260 309 363
#     4  12  24  41  63  89 119 157 203 252 312 376
#     4  11  23  37  67  94 117 159 190 251 318 378
#     4  10  20  38  65 101 138 171 208 255 307 360
#     4  11  21  43  63  88 129 151 194 249 314 386
#
# _framework density 18.728833000000002
#
# number of rings (size 3 to 8) (size 9 to 14) (size 15 to 20)
#    0.000    1.000    3.750    3.375    1.750    8.000 
#    0.000    2.500    0.000    0.000    0.000    0.000 
#    0.000    0.000    0.000    0.000    0.000    0.000 
#
# Total GULP energy -178651.499816 kJ/mol
# GULP energy per Si atom -5582.859369 kJ/mol
# Density = 1.868621 g / cm^3
# Si number density = 18.728833 Si / 1000 Ang^3
#
#
#
# Elastic Constant Matrix: (Units=GPa)
#
#
# Indices 1 2 3 4 5 6 
#
# 1 156.8347 69.9900 76.9569 0.0000 0.0000 0.0000
# 2 69.9900 206.1655 81.8841 0.0000 0.0000 0.0000
# 3 76.9569 81.8841 108.1877 0.0000 0.0000 0.0000
# 4 0.0000 0.0000 0.0000 56.5442 0.0000 0.0000
# 5 0.0000 0.0000 0.0000 0.0000 -10.4949 0.0000
# 6 0.0000 0.0000 0.0000 0.0000 0.0000 25.8154
#
#
#
# Elastic Compliance Matrix: (Units=1/GPa)
#
#
# Indices 1 2 3 4 5 6 
#
# 1 0.009888 -0.000805 -0.006424 0.000000 0.000000 0.000000
# 2 -0.000805 0.007001 -0.004726 0.000000 0.000000 0.000000
# 3 -0.006424 -0.004726 0.017390 0.000000 0.000000 0.000000
# 4 0.000000 0.000000 0.000000 0.017685 0.000000 0.000000
# 5 0.000000 0.000000 0.000000 0.000000 -0.095284 0.000000
# 6 0.000000 0.000000 0.000000 0.000000 0.000000 0.038736
#
#
# Mechanical properties :
#
#
# Convention : Reuss Voigt Hill
#
# Bulk Modulus (GPa) = 96.45115 103.20554 99.82835
# Shear Modulus (GPa) = 219.47210 30.53007 125.00109
#
# Velocity S-wave (km/s) = 10.83690 4.04184 8.17848
# Velocity P-wave (km/s) = 14.42897 8.77535 11.94157
#
# Compressibility (1/GPa) = 0.01036794
#
# Stress axis : x y z
#
# Youngs Moduli (GPa) = 101.13671 142.83908 57.50583
#
# Poissons Ratio (x) = 0.11503 0.36941
# Poissons Ratio (y) = 0.08145 0.27177
# Poissons Ratio (z) = 0.64968 0.67505
#
# Static dielectric constant tensor:
#      x y z
#    x 1.673440 0.000000 0.000000 
#    y 0.000000 1.610380 0.000000 
#    z 0.000000 0.000000 1.609060 
# 
# From -- ./inp_files/40459.got.cif
#   From: 2010.05.17/outbox.cif.g08.bks.cpg/sg67_21_cif.got.tgz:40459.got - 2010.06.03 18:28:57.
