data_PCOD9503971
_publ_section_title
;
Structure prediction by ZEFSAII (Michael W. Deem and Ramdas Pophale) SiO2 
 PCOD9503971
Probable space group: C M M A
;
_chemical_formula_sum "Si O2"
_cell_formula_units_Z 112
_cell_length_a 15.798435
_cell_length_b 15.597023
_cell_length_c 22.802538
_cell_angle_alpha 90.000000
_cell_angle_beta 90.000000
_cell_angle_gamma 90.000000
_cell_volume 5618.740417
_symmetry_space_group_name_H-M "C M M A"
_symmetry_group_IT_number 67
_symmetry_cell_setting 'orthorhombic'
loop_
_space_group_symop_operation_xyz
x,y,z
-x,1/2-y,z
x,-y,-z
-x,1/2+y,-z
-x,-y,-z
x,1/2+y,-z
-x,y,z
x,1/2-y,z
1/2+x,1/2+y,z
1/2-x,-y,z
1/2+x,1/2-y,-z
1/2-x,y,-z
1/2-x,1/2-y,-z
1/2+x,y,-z
1/2-x,1/2+y,z
1/2+x,-y,z
loop_
_atom_site_type_symbol
_atom_site_label
_atom_site_fract_x
_atom_site_fract_y
_atom_site_fract_z
Si Si1 0.092799 0.846006 0.586356
Si Si2 0.596381 0.587930 0.536880
Si Si3 0.207862 0.651564 0.061827
Si Si4 0.732175 0.593712 0.640647
Si Si5 0.597160 0.459245 0.146258
Si Si6 0.800862 0.654688 0.236331
Si Si7 0.854487 0.654204 0.840700
O O1 0.086519 0.750000 0.608376
O O2 0.105468 0.845389 0.516134
O O3 0.176174 0.882167 0.615635
O O4 0.000000 0.888674 0.596653
O O5 0.606589 0.500000 0.500000
O O6 0.500000 0.592854 0.559680
O O7 0.665796 0.593155 0.587139
O O8 0.173083 0.750000 0.056864
O O9 0.143277 0.582320 0.089198
O O10 0.284407 0.655894 0.108053
O O11 0.250000 0.627687 0.000000
O O12 0.750000 0.500000 0.666099
O O13 0.695718 0.647931 0.694006
O O14 0.500000 0.432009 0.147139
O O15 0.646887 0.416833 0.201192
O O16 0.600031 0.563044 0.150152
O O17 0.828857 0.750000 0.216630
O O18 0.702356 0.646982 0.217902
O O19 0.895890 0.750000 0.840819
#
# Coordination Sequence:
#
# PCOD9503971 Si02
#       7
#    16  16  16  16  16  16  16
#     4  10  22  39  58  82 114 148 187 243 302 360
#     4  10  21  38  56  81 118 156 195 241 297 363
#     4   9  18  35  61  89 119 163 213 253 292 350
#     4  12  22  34  61  88 114 155 201 244 303 373
#     4  11  22  37  61  91 125 162 199 253 320 372
#     4  10  22  40  60  85 117 155 203 254 300 367
#     4   9  19  38  60  82 118 164 204 247 299 356
#
# _framework density 19.933292999999999
#
# number of rings (size 3 to 8) (size 9 to 14) (size 15 to 20)
#    0.000    1.857    1.429    4.714    0.000    4.857 
#    0.000    3.571    0.000    3.429    0.000    0.000 
#    0.000    0.000    0.000    0.000    0.000    0.000 
#
# Total GULP energy -312040.241120 kJ/mol
# GULP energy per Si atom -5572.147163 kJ/mol
# Density = 1.988792 g / cm^3
# Si number density = 19.933293 Si / 1000 Ang^3
#
#
#
# Elastic Constant Matrix: (Units=GPa)
#
#
# Indices 1 2 3 4 5 6 
#
# 1 102.8458 43.2613 46.5995 0.0000 0.0000 0.0000
# 2 43.2613 124.2725 20.8502 0.0000 0.0000 0.0000
# 3 46.5995 20.8502 90.2692 0.0000 0.0000 0.0000
# 4 0.0000 0.0000 0.0000 10.6058 0.0000 0.0000
# 5 0.0000 0.0000 0.0000 0.0000 6.9907 0.0000
# 6 0.0000 0.0000 0.0000 0.0000 0.0000 7.7448
#
#
#
# Elastic Compliance Matrix: (Units=1/GPa)
#
#
# Indices 1 2 3 4 5 6 
#
# 1 0.014296 -0.003889 -0.006482 0.000000 0.000000 0.000000
# 2 -0.003889 0.009429 -0.000170 0.000000 0.000000 0.000000
# 3 -0.006482 -0.000170 0.014463 0.000000 0.000000 0.000000
# 4 0.000000 0.000000 0.000000 0.094288 0.000000 0.000000
# 5 0.000000 0.000000 0.000000 0.000000 0.143048 0.000000
# 6 0.000000 0.000000 0.000000 0.000000 0.000000 0.129118
#
#
# Mechanical properties :
#
#
# Convention : Reuss Voigt Hill
#
# Bulk Modulus (GPa) = 58.45770 59.86772 59.16271
# Shear Modulus (GPa) = 11.58944 18.84670 15.21807
#
# Velocity S-wave (km/s) = 2.41386 3.07822 2.76606
# Velocity P-wave (km/s) = 6.09584 6.53706 6.32030
#
# Compressibility (1/GPa) = 0.01710639
#
# Stress axis : x y z
#
# Youngs Moduli (GPa) = 69.94893 106.05249 69.14024
#
# Poissons Ratio (x) = 0.41246 0.44815
# Poissons Ratio (y) = 0.27205 0.01177
# Poissons Ratio (z) = 0.45339 0.01805
#
# Static dielectric constant tensor:
#      x y z
#    x 1.695020 0.000000 0.000000 
#    y 0.000000 1.957830 0.000000 
#    z 0.000000 0.000000 1.704250 
# 
# From -- ./inp_files/41981.got.cif
#   From: 2010.05.17/outbox.cif.g08.bks.cpg/sg67_21_cif.got.tgz:41981.got - 2010.06.03 18:28:57.
