data_PCOD9503268
_publ_section_title
;
Structure prediction by ZEFSAII (Michael W. Deem and Ramdas Pophale) SiO2 
 PCOD9503268
Probable space group: C M M A
;
_chemical_formula_sum "Si O2"
_cell_formula_units_Z 112
_cell_length_a 22.435361
_cell_length_b 14.731311
_cell_length_c 14.478511
_cell_angle_alpha 90.000000
_cell_angle_beta 90.000000
_cell_angle_gamma 90.000000
_cell_volume 4785.180901
_symmetry_space_group_name_H-M "C M M A"
_symmetry_group_IT_number 67
_symmetry_cell_setting 'orthorhombic'
loop_
_space_group_symop_operation_xyz
x,y,z
-x,1/2-y,z
x,-y,-z
-x,1/2+y,-z
-x,-y,-z
x,1/2+y,-z
-x,y,z
x,1/2-y,z
1/2+x,1/2+y,z
1/2-x,-y,z
1/2+x,1/2-y,-z
1/2-x,y,-z
1/2-x,1/2-y,-z
1/2+x,y,-z
1/2-x,1/2+y,z
1/2+x,-y,z
loop_
_atom_site_type_symbol
_atom_site_label
_atom_site_fract_x
_atom_site_fract_y
_atom_site_fract_z
Si Si1 0.131731 0.850990 0.755727
Si Si2 0.878998 0.144877 0.633611
Si Si3 0.733275 0.602757 0.742152
Si Si4 0.431935 0.359229 0.560897
Si Si5 0.436252 0.140720 0.023392
Si Si6 0.434056 0.977552 0.792626
Si Si7 0.192496 0.859619 0.054858
O O1 0.110310 0.750000 0.784425
O O2 0.203106 0.849626 0.754556
O O3 0.105663 0.873417 0.653855
O O4 0.106900 0.935737 0.812322
O O5 0.898193 0.250000 0.645165
O O6 0.809626 0.140027 0.662427
O O7 0.896366 0.113288 0.531073
O O8 0.911484 0.079921 0.705870
O O9 0.750000 0.500000 0.720531
O O10 0.697754 0.607476 0.839463
O O11 0.500000 0.395068 0.563535
O O12 0.436790 0.250000 0.554870
O O13 0.500000 0.114507 0.976109
O O14 0.437393 0.250000 0.030951
O O15 0.437992 0.091459 0.122324
O O16 0.367809 0.117956 0.999496
O O17 0.500000 0.013204 0.772755
O O18 0.195262 0.750000 0.061043
O O19 0.250000 0.892233 0.000000
#
# Coordination Sequence:
#
# PCOD9503268 Si02
#       7
#    16  16  16  16  16  16  16
#     4  11  23  40  59  81 120 170 213 254 298 358
#     4  11  21  37  61  89 121 152 195 257 316 365
#     4  12  23  41  61  88 124 160 207 254 306 371
#     4   9  20  38  59  85 117 157 207 258 310 363
#     4   9  17  32  57  91 130 164 198 253 319 372
#     4  11  21  34  57  89 120 158 202 247 302 362
#     4  10  20  36  61  94 126 160 204 250 304 374
#
# _framework density 23.405594000000001
#
# number of rings (size 3 to 8) (size 9 to 14) (size 15 to 20)
#    0.000    1.571    2.857    2.571    0.000    3.714 
#    0.000    4.286    0.000    1.714    0.000    9.000 
#    0.000    0.000    0.000    0.000    0.000    0.000 
#
# Total GULP energy -312970.425186 kJ/mol
# GULP energy per Si atom -5588.757593 kJ/mol
# Density = 2.335232 g / cm^3
# Si number density = 23.405594 Si / 1000 Ang^3
#
#
#
# Elastic Constant Matrix: (Units=GPa)
#
#
# Indices 1 2 3 4 5 6 
#
# 1 192.6238 11.6522 36.6461 0.0000 0.0000 0.0000
# 2 11.6522 96.5734 23.4454 0.0000 0.0000 0.0000
# 3 36.6461 23.4454 82.2041 0.0000 0.0000 0.0000
# 4 0.0000 0.0000 0.0000 11.6588 0.0000 0.0000
# 5 0.0000 0.0000 0.0000 0.0000 33.3323 0.0000
# 6 0.0000 0.0000 0.0000 0.0000 0.0000 19.6513
#
#
#
# Elastic Compliance Matrix: (Units=1/GPa)
#
#
# Indices 1 2 3 4 5 6 
#
# 1 0.005673 -0.000076 -0.002507 0.000000 0.000000 0.000000
# 2 -0.000076 0.011126 -0.003140 0.000000 0.000000 0.000000
# 3 -0.002507 -0.003140 0.014178 0.000000 0.000000 0.000000
# 4 0.000000 0.000000 0.000000 0.085772 0.000000 0.000000
# 5 0.000000 0.000000 0.000000 0.000000 0.030001 0.000000
# 6 0.000000 0.000000 0.000000 0.000000 0.000000 0.050887
#
#
# Mechanical properties :
#
#
# Convention : Reuss Voigt Hill
#
# Bulk Modulus (GPa) = 51.19829 57.20985 54.20407
# Shear Modulus (GPa) = 23.19184 32.90569 28.04876
#
# Velocity S-wave (km/s) = 3.15122 3.75359 3.46552
# Velocity P-wave (km/s) = 5.92976 6.57889 6.26274
#
# Compressibility (1/GPa) = 0.01953190
#
# Stress axis : x y z
#
# Youngs Moduli (GPa) = 176.27122 89.87843 70.53160
#
# Poissons Ratio (x) = 0.00681 0.17685
# Poissons Ratio (y) = 0.01335 0.22143
# Poissons Ratio (z) = 0.44198 0.28217
#
# Static dielectric constant tensor:
#      x y z
#    x 1.922360 0.000000 0.000000 
#    y 0.000000 1.870850 0.000000 
#    z 0.000000 0.000000 1.892140 
# 
# From -- ./inp_files/30132.got.cif
#   From: 2010.05.17/outbox.cif.g08.bks.cpg/sg67_16_cif.got.tgz:30132.got - 2010.06.03 18:28:57.
