data_PCOD9503413
_publ_section_title
;
Structure prediction by ZEFSAII (Michael W. Deem and Ramdas Pophale) SiO2 
 PCOD9503413
Probable space group: C M M A
;
_chemical_formula_sum "Si O2"
_cell_formula_units_Z 104
_cell_length_a 29.173592
_cell_length_b 16.806797
_cell_length_c 10.786459
_cell_angle_alpha 90.000000
_cell_angle_beta 90.000000
_cell_angle_gamma 90.000000
_cell_volume 5288.758745
_symmetry_space_group_name_H-M "C M M A"
_symmetry_group_IT_number 67
_symmetry_cell_setting 'orthorhombic'
loop_
_space_group_symop_operation_xyz
x,y,z
-x,1/2-y,z
x,-y,-z
-x,1/2+y,-z
-x,-y,-z
x,1/2+y,-z
-x,y,z
x,1/2-y,z
1/2+x,1/2+y,z
1/2-x,-y,z
1/2+x,1/2-y,-z
1/2-x,y,-z
1/2-x,1/2-y,-z
1/2+x,y,-z
1/2-x,1/2+y,z
1/2+x,-y,z
loop_
_atom_site_type_symbol
_atom_site_label
_atom_site_fract_x
_atom_site_fract_y
_atom_site_fract_z
Si Si1 0.500000 0.658782 0.287231
Si Si2 0.244247 0.661431 0.146857
Si Si3 0.902980 0.340610 0.401097
Si Si4 0.000000 0.905867 0.987028
Si Si5 0.847127 0.126151 0.154396
Si Si6 0.835852 0.548301 0.230951
Si Si7 0.096755 0.341383 0.906398
Si Si8 0.141133 0.000000 0.500000
O O1 0.500000 0.750000 0.242911
O O2 0.543919 0.647416 0.372106
O O3 0.500000 0.610393 0.160309
O O4 0.225701 0.750000 0.171987
O O5 0.296574 0.655913 0.189851
O O6 0.209912 0.596006 0.197706
O O7 0.250000 0.650979 0.000000
O O8 0.894895 0.250000 0.449317
O O9 0.879658 0.347179 0.265674
O O10 0.885760 0.417047 0.476854
O O11 0.953231 0.871298 0.047948
O O12 0.000000 0.000000 0.000000
O O13 0.843017 0.030861 0.150203
O O14 0.868462 0.154476 0.024705
O O15 0.879331 0.604300 0.198412
O O16 0.832877 0.517786 0.372008
O O17 0.093141 0.250000 0.866528
#
# Coordination Sequence:
#
# PCOD9503413 Si02
#       8
#     8  16  16   8  16  16  16   8
#     4  10  20  37  64  92 122 163 210 264 328 398
#     4  11  22  36  61  98 132 166 206 257 332 402
#     4  10  21  40  65  90 122 166 216 269 325 387
#     4  12  24  36  60  99 136 170 203 262 347 420
#     4  11  21  37  62  95 128 162 206 263 326 399
#     4  11  24  42  62  89 128 175 216 271 318 381
#     4  12  23  38  62  95 134 167 206 267 339 405
#     4  10  26  45  65  88 124 176 238 269 315 380
#
# _framework density 19.664349000000001
#
# number of rings (size 3 to 8) (size 9 to 14) (size 15 to 20)
#    0.000    1.077    3.077    4.385    2.154    2.154 
#    0.000    6.923    0.000    6.462    0.000    0.000 
#    0.000    0.000    0.000    0.000    0.000    0.000 
#
# Total GULP energy -290382.067308 kJ/mol
# GULP energy per Si atom -5584.270525 kJ/mol
# Density = 1.961959 g / cm^3
# Si number density = 19.664349 Si / 1000 Ang^3
#
#
#
# Elastic Constant Matrix: (Units=GPa)
#
#
# Indices 1 2 3 4 5 6 
#
# 1 101.1210 36.2239 -1.5012 0.0000 0.0000 0.0000
# 2 36.2239 150.9347 20.6511 0.0000 0.0000 0.0000
# 3 -1.5012 20.6511 37.7305 0.0000 0.0000 0.0000
# 4 0.0000 0.0000 0.0000 12.5680 0.0000 0.0000
# 5 0.0000 0.0000 0.0000 0.0000 48.9873 0.0000
# 6 0.0000 0.0000 0.0000 0.0000 0.0000 11.0569
#
#
#
# Elastic Compliance Matrix: (Units=1/GPa)
#
#
# Indices 1 2 3 4 5 6 
#
# 1 0.010961 -0.002908 0.002028 0.000000 0.000000 0.000000
# 2 -0.002908 0.007933 -0.004458 0.000000 0.000000 0.000000
# 3 0.002028 -0.004458 0.029024 0.000000 0.000000 0.000000
# 4 0.000000 0.000000 0.000000 0.079567 0.000000 0.000000
# 5 0.000000 0.000000 0.000000 0.000000 0.020413 0.000000
# 6 0.000000 0.000000 0.000000 0.000000 0.000000 0.090441
#
#
# Mechanical properties :
#
#
# Convention : Reuss Voigt Hill
#
# Bulk Modulus (GPa) = 26.85113 44.50375 35.67744
# Shear Modulus (GPa) = 19.12550 30.14992 24.63771
#
# Velocity S-wave (km/s) = 3.12203 3.91989 3.54349
# Velocity P-wave (km/s) = 5.16532 6.57025 5.90968
#
# Compressibility (1/GPa) = 0.03724238
#
# Stress axis : x y z
#
# Youngs Moduli (GPa) = 91.23283 126.05214 34.45383
#
# Poissons Ratio (x) = 0.36656 -0.06986
# Poissons Ratio (y) = 0.26531 0.15359
# Poissons Ratio (z) = -0.18500 0.56192
#
# Static dielectric constant tensor:
#      x y z
#    x 1.746350 0.000000 0.000000 
#    y 0.000000 1.747300 0.000000 
#    z 0.000000 0.000000 1.702510 
# 
# From -- ./inp_files/23009.got.cif
#   From: 2010.05.17/outbox.cif.g08.bks.cpg/sg67_12_cif.got.tgz:23009.got - 2010.06.03 18:28:57.
