data_PCOD9503432
_publ_section_title
;
Structure prediction by ZEFSAII (Michael W. Deem and Ramdas Pophale) SiO2 
 PCOD9503432
Probable space group: C M M A
;
_chemical_formula_sum "Si O2"
_cell_formula_units_Z 96
_cell_length_a 19.217276
_cell_length_b 18.531382
_cell_length_c 14.373152
_cell_angle_alpha 90.000000
_cell_angle_beta 90.000000
_cell_angle_gamma 90.000000
_cell_volume 5118.605447
_symmetry_space_group_name_H-M "C M M A"
_symmetry_group_IT_number 67
_symmetry_cell_setting 'orthorhombic'
loop_
_space_group_symop_operation_xyz
x,y,z
-x,1/2-y,z
x,-y,-z
-x,1/2+y,-z
-x,-y,-z
x,1/2+y,-z
-x,y,z
x,1/2-y,z
1/2+x,1/2+y,z
1/2-x,-y,z
1/2+x,1/2-y,-z
1/2-x,y,-z
1/2-x,1/2-y,-z
1/2+x,y,-z
1/2-x,1/2+y,z
1/2+x,-y,z
loop_
_atom_site_type_symbol
_atom_site_label
_atom_site_fract_x
_atom_site_fract_y
_atom_site_fract_z
Si Si1 0.173665 0.833350 0.046107
Si Si2 0.677566 0.833549 0.298788
Si Si3 0.078615 0.884859 0.549148
Si Si4 0.579222 0.662307 0.126440
Si Si5 0.578279 0.043068 0.356721
Si Si6 0.704363 0.569018 0.778095
O O1 0.156822 0.750000 0.071224
O O2 0.179386 0.883812 0.135029
O O3 0.250000 0.832600 0.000000
O O4 0.119464 0.859031 0.967404
O O5 0.695622 0.750000 0.281850
O O6 0.637167 0.841471 0.395964
O O7 0.623756 0.857213 0.217279
O O8 0.744895 0.882825 0.286677
O O9 0.090891 0.899688 0.440217
O O10 0.000000 0.855108 0.561622
O O11 0.079183 0.964202 0.596142
O O12 0.500000 0.635936 0.131232
O O13 0.577413 0.750000 0.125578
O O14 0.500000 0.055207 0.320402
O O15 0.637639 0.046225 0.280765
O O16 0.750000 0.500000 0.807967
#
# Coordination Sequence:
#
# PCOD9503432 Si02
#       6
#    16  16  16  16  16  16
#     4  10  20  38  59  78 111 155 194 234 289 347
#     4  11  21  36  59  90 121 151 190 243 296 342
#     4   9  18  37  61  84 113 156 196 234 291 349
#     4   9  18  34  58  85 112 149 194 236 285 349
#     4   9  20  39  60  82 116 156 196 236 284 348
#     4  12  23  37  58  88 117 154 195 241 291 353
#
# _framework density 18.755108
#
# number of rings (size 3 to 8) (size 9 to 14) (size 15 to 20)
#    0.000    2.000    3.333    2.000    0.000    2.667 
#    0.000    2.500    0.000    4.500    0.000    0.000 
#    0.000    0.000    0.000    0.000    0.000    0.000 
#
# Total GULP energy -267913.274203 kJ/mol
# GULP energy per Si atom -5581.526546 kJ/mol
# Density = 1.871242 g / cm^3
# Si number density = 18.755108 Si / 1000 Ang^3
#
#
#
# Elastic Constant Matrix: (Units=GPa)
#
#
# Indices 1 2 3 4 5 6 
#
# 1 87.1189 12.4001 25.5802 0.0000 0.0000 0.0000
# 2 12.4001 43.5548 10.6947 0.0000 0.0000 0.0000
# 3 25.5802 10.6947 53.2823 0.0000 0.0000 0.0000
# 4 0.0000 0.0000 0.0000 31.0714 0.0000 0.0000
# 5 0.0000 0.0000 0.0000 0.0000 24.4555 0.0000
# 6 0.0000 0.0000 0.0000 0.0000 0.0000 16.3071
#
#
#
# Elastic Compliance Matrix: (Units=1/GPa)
#
#
# Indices 1 2 3 4 5 6 
#
# 1 0.013594 -0.002385 -0.006047 0.000000 0.000000 0.000000
# 2 -0.002385 0.024568 -0.003786 0.000000 0.000000 0.000000
# 3 -0.006047 -0.003786 0.022431 0.000000 0.000000 0.000000
# 4 0.000000 0.000000 0.000000 0.032184 0.000000 0.000000
# 5 0.000000 0.000000 0.000000 0.000000 0.040891 0.000000
# 6 0.000000 0.000000 0.000000 0.000000 0.000000 0.061323
#
#
# Mechanical properties :
#
#
# Convention : Reuss Voigt Hill
#
# Bulk Modulus (GPa) = 27.65821 31.25620 29.45721
# Shear Modulus (GPa) = 21.60009 23.38551 22.49280
#
# Velocity S-wave (km/s) = 3.39734 3.53496 3.46683
# Velocity P-wave (km/s) = 5.49256 5.77606 5.63610
#
# Compressibility (1/GPa) = 0.03615562
#
# Stress axis : x y z
#
# Youngs Moduli (GPa) = 73.56328 40.70279 44.58075
#
# Poissons Ratio (x) = 0.09709 0.26960
# Poissons Ratio (y) = 0.17547 0.16879
# Poissons Ratio (z) = 0.44487 0.15411
#
# Static dielectric constant tensor:
#      x y z
#    x 1.639750 0.000000 0.000000 
#    y 0.000000 1.665550 0.000000 
#    z 0.000000 0.000000 1.637060 
# 
# From -- ./inp_files/20858.got.cif
#   From: 2010.05.17/outbox.cif.g08.bks.cpg/sg67_11_cif.got.tgz:20858.got - 2010.06.03 18:28:57.
