data_PCOD9503830
_publ_section_title
;
Structure prediction by ZEFSAII (Michael W. Deem and Ramdas Pophale) SiO2 
 PCOD9503830
Probable space group: C M M A
;
_chemical_formula_sum "Si O2"
_cell_formula_units_Z 72
_cell_length_a 14.766857
_cell_length_b 8.637006
_cell_length_c 30.311605
_cell_angle_alpha 90.000000
_cell_angle_beta 90.000000
_cell_angle_gamma 90.000000
_cell_volume 3865.985523
_symmetry_space_group_name_H-M "C M M A"
_symmetry_group_IT_number 67
_symmetry_cell_setting 'orthorhombic'
loop_
_space_group_symop_operation_xyz
x,y,z
-x,1/2-y,z
x,-y,-z
-x,1/2+y,-z
-x,-y,-z
x,1/2+y,-z
-x,y,z
x,1/2-y,z
1/2+x,1/2+y,z
1/2-x,-y,z
1/2+x,1/2-y,-z
1/2-x,y,-z
1/2-x,1/2-y,-z
1/2+x,y,-z
1/2-x,1/2+y,z
1/2+x,-y,z
loop_
_atom_site_type_symbol
_atom_site_label
_atom_site_fract_x
_atom_site_fract_y
_atom_site_fract_z
Si Si1 0.148827 0.936765 0.641980
Si Si2 0.852847 0.564571 0.545019
Si Si3 0.500000 0.436778 0.190521
Si Si4 0.851324 0.936821 0.119818
Si Si5 0.000000 0.063225 0.950839
Si Si6 0.500000 0.562683 0.288896
O O1 0.152098 0.750000 0.642547
O O2 0.110539 0.979678 0.593358
O O3 0.086334 0.988210 0.682204
O O4 0.250000 0.000000 0.646066
O O5 0.894957 0.500000 0.500000
O O6 0.851556 0.750000 0.541956
O O7 0.750000 0.500000 0.545886
O O8 0.500000 0.250000 0.191858
O O9 0.411430 0.484469 0.162285
O O10 0.500000 0.500703 0.239604
O O11 0.847616 0.750000 0.119796
O O12 0.911427 0.984660 0.077365
O O13 0.750000 0.000000 0.119831
O O14 0.000000 0.250000 0.952049
O O15 0.000000 0.000000 0.000000
O O16 0.500000 0.750000 0.287520
#
# Coordination Sequence:
#
# PCOD9503830 Si02
#       6
#    16  16   8  16   8   8
#     4   9  19  34  51  71  98 129 161 199 246 299
#     4   9  15  25  43  66  91 121 155 192 235 286
#     4   9  20  38  55  74 102 134 168 213 263 308
#     4   9  19  36  56  78 107 141 178 218 261 305
#     4   9  19  35  53  78 114 151 182 217 258 302
#     4  10  21  37  54  74 100 131 166 206 254 308
#
# _framework density 18.62397
#
# number of rings (size 3 to 8) (size 9 to 14) (size 15 to 20)
#    0.000    2.889    0.000    2.667    0.000    4.889 
#    0.000    9.444    0.000    0.000    0.000    0.000 
#    0.000    0.000    0.000    0.000    0.000    0.000 
#
# Total GULP energy -200663.226664 kJ/mol
# GULP energy per Si atom -5573.978518 kJ/mol
# Density = 1.858158 g / cm^3
# Si number density = 18.623970 Si / 1000 Ang^3
#
#
#
# Elastic Constant Matrix: (Units=GPa)
#
#
# Indices 1 2 3 4 5 6 
#
# 1 153.8589 26.6382 102.4529 0.0000 0.0000 0.0000
# 2 26.6382 19.8454 40.8840 0.0000 0.0000 0.0000
# 3 102.4529 40.8840 225.4202 0.0000 0.0000 0.0000
# 4 0.0000 0.0000 0.0000 35.5836 0.0000 0.0000
# 5 0.0000 0.0000 0.0000 0.0000 14.9325 0.0000
# 6 0.0000 0.0000 0.0000 0.0000 0.0000 19.3254
#
#
#
# Elastic Compliance Matrix: (Units=1/GPa)
#
#
# Indices 1 2 3 4 5 6 
#
# 1 0.009797 -0.006350 -0.003301 0.000000 0.000000 0.000000
# 2 -0.006350 0.084564 -0.012451 0.000000 0.000000 0.000000
# 3 -0.003301 -0.012451 0.008195 0.000000 0.000000 0.000000
# 4 0.000000 0.000000 0.000000 0.028103 0.000000 0.000000
# 5 0.000000 0.000000 0.000000 0.000000 0.066968 0.000000
# 6 0.000000 0.000000 0.000000 0.000000 0.000000 0.051745
#
#
# Mechanical properties :
#
#
# Convention : Reuss Voigt Hill
#
# Bulk Modulus (GPa) = 17.13755 82.11939 49.62847
# Shear Modulus (GPa) = 15.97311 29.24492 22.60901
#
# Velocity S-wave (km/s) = 2.93177 3.96698 3.48799
# Velocity P-wave (km/s) = 4.54777 8.07290 6.55187
#
# Compressibility (1/GPa) = 0.05835139
#
# Stress axis : x y z
#
# Youngs Moduli (GPa) = 102.07265 11.82541 122.02965
#
# Poissons Ratio (x) = 0.07509 0.40283
# Poissons Ratio (y) = 0.64813 1.51942
# Poissons Ratio (z) = 0.33695 0.14724
#
# Static dielectric constant tensor:
#      x y z
#    x 1.658080 0.000000 0.000000 
#    y 0.000000 1.633720 0.000000 
#    z 0.000000 0.000000 1.653530 
# 
# From -- ./inp_files/45165.got.cif
#   From: 2010.05.17/outbox.cif.g08.bks.cpg/sg67_23_cif.got.tgz:45165.got - 2010.06.03 18:28:57.
