data_PCOD9503041
_publ_section_title
;
Structure prediction by ZEFSAII (Michael W. Deem and Ramdas Pophale) SiO2 
 PCOD9503041
Probable space group: C M M A
;
_chemical_formula_sum "Si O2"
_cell_formula_units_Z 96
_cell_length_a 19.465864
_cell_length_b 17.196885
_cell_length_c 13.325416
_cell_angle_alpha 90.000000
_cell_angle_beta 90.000000
_cell_angle_gamma 90.000000
_cell_volume 4460.712650
_symmetry_space_group_name_H-M "C M M A"
_symmetry_group_IT_number 67
_symmetry_cell_setting 'orthorhombic'
loop_
_space_group_symop_operation_xyz
x,y,z
-x,1/2-y,z
x,-y,-z
-x,1/2+y,-z
-x,-y,-z
x,1/2+y,-z
-x,y,z
x,1/2-y,z
1/2+x,1/2+y,z
1/2-x,-y,z
1/2+x,1/2-y,-z
1/2-x,y,-z
1/2-x,1/2-y,-z
1/2+x,y,-z
1/2-x,1/2+y,z
1/2+x,-y,z
loop_
_atom_site_type_symbol
_atom_site_label
_atom_site_fract_x
_atom_site_fract_y
_atom_site_fract_z
Si Si1 0.581181 0.658722 0.552685
Si Si2 0.703876 0.158986 0.097704
Si Si3 0.421121 0.587512 0.001189
Si Si4 0.667814 0.412579 0.624013
Si Si5 0.685447 0.090002 0.311855
Si Si6 0.074969 0.839140 0.783175
O O1 0.500000 0.640674 0.556864
O O2 0.588045 0.750000 0.524682
O O3 0.622495 0.604752 0.473869
O O4 0.621127 0.642883 0.656691
O O5 0.717713 0.250000 0.119804
O O6 0.710406 0.107921 0.198622
O O7 0.750000 0.137248 0.000000
O O8 0.626253 0.144767 0.061236
O O9 0.500000 0.587015 0.965099
O O10 0.420639 0.611897 0.116646
O O11 0.393294 0.500000 0.000000
O O12 0.664722 0.500834 0.665744
O O13 0.748427 0.394036 0.617864
O O14 0.634431 0.358453 0.707740
O O15 0.077970 0.750000 0.814060
O O16 0.000000 0.853148 0.734242
#
# Coordination Sequence:
#
# PCOD9503041 Si02
#       6
#    16  16  16  16  16  16
#     4  11  25  44  67  96 129 168 215 267 326 392
#     4  11  24  41  63  92 127 170 216 262 320 388
#     4  10  21  37  58  85 118 159 206 258 320 386
#     4  11  23  41  64  92 125 164 209 261 321 382
#     4  11  25  42  63  94 128 166 214 266 320 381
#     4  10  20  35  59  90 120 155 206 264 318 377
#
# _framework density 21.521225000000001
#
# number of rings (size 3 to 8) (size 9 to 14) (size 15 to 20)
#    0.000    1.333    0.000    5.000    0.000   12.667 
#    0.000    0.000    0.000    0.000    0.000    0.000 
#    0.000    0.000    0.000    0.000    0.000    0.000 
#
# Total GULP energy -268213.796625 kJ/mol
# GULP energy per Si atom -5587.787430 kJ/mol
# Density = 2.147224 g / cm^3
# Si number density = 21.521225 Si / 1000 Ang^3
#
#
#
# Elastic Constant Matrix: (Units=GPa)
#
#
# Indices 1 2 3 4 5 6 
#
# 1 91.9536 35.7597 34.4745 0.0000 0.0000 0.0000
# 2 35.7597 83.9613 37.7565 0.0000 0.0000 0.0000
# 3 34.4745 37.7565 96.5672 0.0000 0.0000 0.0000
# 4 0.0000 0.0000 0.0000 35.6315 0.0000 0.0000
# 5 0.0000 0.0000 0.0000 0.0000 28.2203 0.0000
# 6 0.0000 0.0000 0.0000 0.0000 0.0000 30.6440
#
#
#
# Elastic Compliance Matrix: (Units=1/GPa)
#
#
# Indices 1 2 3 4 5 6 
#
# 1 0.013798 -0.004443 -0.003189 0.000000 0.000000 0.000000
# 2 -0.004443 0.015882 -0.004623 0.000000 0.000000 0.000000
# 3 -0.003189 -0.004623 0.013302 0.000000 0.000000 0.000000
# 4 0.000000 0.000000 0.000000 0.028065 0.000000 0.000000
# 5 0.000000 0.000000 0.000000 0.000000 0.035436 0.000000
# 6 0.000000 0.000000 0.000000 0.000000 0.000000 0.032633
#
#
# Mechanical properties :
#
#
# Convention : Reuss Voigt Hill
#
# Bulk Modulus (GPa) = 54.13811 54.27373 54.20592
# Shear Modulus (GPa) = 29.44948 29.86526 29.65737
#
# Velocity S-wave (km/s) = 3.70319 3.72924 3.71624
# Velocity P-wave (km/s) = 6.59508 6.61940 6.60725
#
# Compressibility (1/GPa) = 0.01847128
#
# Stress axis : x y z
#
# Youngs Moduli (GPa) = 72.47231 62.96609 75.17875
#
# Poissons Ratio (x) = 0.27974 0.23974
# Poissons Ratio (y) = 0.32198 0.34758
# Poissons Ratio (z) = 0.23111 0.29112
#
# Static dielectric constant tensor:
#      x y z
#    x 1.779490 0.000000 0.000000 
#    y 0.000000 1.773830 0.000000 
#    z 0.000000 0.000000 1.819110 
# 
# From -- ./inp_files/29270.got.cif
#   From: 2010.05.17/outbox.cif.g08.bks.cpg/sg67_15_cif.got.tgz:29270.got - 2010.06.03 18:28:57.
