data_PCOD9503345
_publ_section_title
;
Structure prediction by ZEFSAII (Michael W. Deem and Ramdas Pophale) SiO2 
 PCOD9503345
Probable space group: C M M A
;
_chemical_formula_sum "Si O2"
_cell_formula_units_Z 96
_cell_length_a 15.799418
_cell_length_b 17.705023
_cell_length_c 17.677749
_cell_angle_alpha 90.000000
_cell_angle_beta 90.000000
_cell_angle_gamma 90.000000
_cell_volume 4944.980094
_symmetry_space_group_name_H-M "C M M A"
_symmetry_group_IT_number 67
_symmetry_cell_setting 'orthorhombic'
loop_
_space_group_symop_operation_xyz
x,y,z
-x,1/2-y,z
x,-y,-z
-x,1/2+y,-z
-x,-y,-z
x,1/2+y,-z
-x,y,z
x,1/2-y,z
1/2+x,1/2+y,z
1/2-x,-y,z
1/2+x,1/2-y,-z
1/2-x,y,-z
1/2-x,1/2-y,-z
1/2+x,y,-z
1/2-x,1/2+y,z
1/2+x,-y,z
loop_
_atom_site_type_symbol
_atom_site_label
_atom_site_fract_x
_atom_site_fract_y
_atom_site_fract_z
Si Si1 0.778480 0.159095 0.160826
Si Si2 0.591749 0.160258 0.113597
Si Si3 0.404816 0.934436 0.448288
Si Si4 0.097853 0.578874 0.957886
Si Si5 0.328624 0.164807 0.440453
Si Si6 0.772744 0.084009 0.316264
O O1 0.786760 0.250000 0.146571
O O2 0.680286 0.134762 0.148813
O O3 0.838992 0.110202 0.105827
O O4 0.795725 0.138643 0.247641
O O5 0.500000 0.129341 0.140866
O O6 0.589640 0.250000 0.123878
O O7 0.597255 0.139891 0.025302
O O8 0.500000 0.956252 0.428481
O O9 0.403065 0.865231 0.506770
O O10 0.350469 0.920769 0.374490
O O11 0.363981 0.000000 0.500000
O O12 0.000000 0.569969 0.930706
O O13 0.121923 0.500000 0.000000
O O14 0.341269 0.250000 0.415436
O O15 0.250000 0.162093 0.500000
O O16 0.304104 0.115692 0.367704
O O17 0.750000 0.000000 0.288842
#
# Coordination Sequence:
#
# PCOD9503345 Si02
#       6
#    16  16  16  16  16  16
#     4  11  24  39  60  92 126 163 203 249 312 377
#     4   9  19  38  61  84 115 156 201 248 296 353
#     4  10  20  37  60  87 117 151 199 252 300 356
#     4  10  22  39  61  89 120 157 205 254 299 356
#     4   9  18  34  58  83 111 149 194 240 288 353
#     4  11  22  37  59  86 118 160 198 245 304 367
#
# _framework density 19.413627000000002
#
# number of rings (size 3 to 8) (size 9 to 14) (size 15 to 20)
#    0.000    2.000    1.667    1.500    2.333    4.667 
#    0.000    1.667    0.000    2.000    0.000    0.000 
#    0.000    0.000    0.000    0.000    0.000    0.000 
#
# Total GULP energy -267501.084885 kJ/mol
# GULP energy per Si atom -5572.939268 kJ/mol
# Density = 1.936944 g / cm^3
# Si number density = 19.413627 Si / 1000 Ang^3
#
#
#
# Elastic Constant Matrix: (Units=GPa)
#
#
# Indices 1 2 3 4 5 6 
#
# 1 114.4513 31.0561 58.0865 0.0000 0.0000 0.0000
# 2 31.0561 64.1699 23.2183 0.0000 0.0000 0.0000
# 3 58.0865 23.2183 91.8939 0.0000 0.0000 0.0000
# 4 0.0000 0.0000 0.0000 34.1672 0.0000 0.0000
# 5 0.0000 0.0000 0.0000 0.0000 12.0048 0.0000
# 6 0.0000 0.0000 0.0000 0.0000 0.0000 18.4506
#
#
#
# Elastic Compliance Matrix: (Units=1/GPa)
#
#
# Indices 1 2 3 4 5 6 
#
# 1 0.013674 -0.003841 -0.007673 0.000000 0.000000 0.000000
# 2 -0.003841 0.018231 -0.002178 0.000000 0.000000 0.000000
# 3 -0.007673 -0.002178 0.016282 0.000000 0.000000 0.000000
# 4 0.000000 0.000000 0.000000 0.029268 0.000000 0.000000
# 5 0.000000 0.000000 0.000000 0.000000 0.083300 0.000000
# 6 0.000000 0.000000 0.000000 0.000000 0.000000 0.054199
#
#
# Mechanical properties :
#
#
# Convention : Reuss Voigt Hill
#
# Bulk Modulus (GPa) = 48.07095 55.02632 51.54864
# Shear Modulus (GPa) = 20.05842 23.46814 21.76328
#
# Velocity S-wave (km/s) = 3.21785 3.48062 3.35181
# Velocity P-wave (km/s) = 6.21460 6.67523 6.44903
#
# Compressibility (1/GPa) = 0.02080258
#
# Stress axis : x y z
#
# Youngs Moduli (GPa) = 73.13297 54.85200 61.41636
#
# Poissons Ratio (x) = 0.21071 0.47122
# Poissons Ratio (y) = 0.28094 0.13377
# Poissons Ratio (z) = 0.56112 0.11947
#
# Static dielectric constant tensor:
#      x y z
#    x 1.725140 0.000000 0.000000 
#    y 0.000000 1.740080 0.000000 
#    z 0.000000 0.000000 1.643110 
# 
# From -- ./inp_files/27166.got.cif
#   From: 2010.05.17/outbox.cif.g08.bks.cpg/sg67_14_cif.got.tgz:27166.got - 2010.06.03 18:28:57.
