data_PCOD9503311
_publ_section_title
;
Structure prediction by ZEFSAII (Michael W. Deem and Ramdas Pophale) SiO2 
 PCOD9503311
Probable space group: C M M A
;
_chemical_formula_sum "Si O2"
_cell_formula_units_Z 96
_cell_length_a 25.576895
_cell_length_b 20.719287
_cell_length_c 9.287298
_cell_angle_alpha 90.000000
_cell_angle_beta 90.000000
_cell_angle_gamma 90.000000
_cell_volume 4921.664526
_symmetry_space_group_name_H-M "C M M A"
_symmetry_group_IT_number 67
_symmetry_cell_setting 'orthorhombic'
loop_
_space_group_symop_operation_xyz
x,y,z
-x,1/2-y,z
x,-y,-z
-x,1/2+y,-z
-x,-y,-z
x,1/2+y,-z
-x,y,z
x,1/2-y,z
1/2+x,1/2+y,z
1/2-x,-y,z
1/2+x,1/2-y,-z
1/2-x,y,-z
1/2-x,1/2-y,-z
1/2+x,y,-z
1/2-x,1/2+y,z
1/2+x,-y,z
loop_
_atom_site_type_symbol
_atom_site_label
_atom_site_fract_x
_atom_site_fract_y
_atom_site_fract_z
Si Si1 0.894233 0.494256 0.838248
Si Si2 0.562621 0.873621 0.295747
Si Si3 0.437550 0.432740 0.420961
Si Si4 0.801358 0.083628 0.902334
Si Si5 0.151259 0.821103 0.872232
Si Si6 0.250235 0.174082 0.330625
O O1 0.914364 0.558971 0.764122
O O2 0.914161 0.435936 0.737665
O O3 0.832284 0.480012 0.851089
O O4 0.914993 0.500000 0.000000
O O5 0.500000 0.871068 0.279934
O O6 0.575268 0.875965 0.466752
O O7 0.594768 0.823595 0.201515
O O8 0.421827 0.500000 0.500000
O O9 0.500000 0.434779 0.407581
O O10 0.785909 0.127111 0.765206
O O11 0.750000 0.073567 0.000000
O O12 0.839718 0.125305 0.005879
O O13 0.162331 0.750000 0.933448
O O14 0.193248 0.832146 0.744191
O O15 0.265352 0.250000 0.317438
O O16 0.250000 0.157801 0.500000
#
# Coordination Sequence:
#
# PCOD9503311 Si02
#       6
#    16  16  16  16  16  16
#     4  11  20  34  55  82 109 149 184 225 276 340
#     4  10  21  38  56  81 114 146 190 235 280 337
#     4   8  17  33  53  75 104 137 177 228 273 322
#     4  10  21  37  53  79 118 148 181 231 286 337
#     4  10  20  37  58  81 109 147 188 229 287 341
#     4   9  19  36  60  85 108 142 190 235 275 330
#
# _framework density 19.505596000000001
#
# number of rings (size 3 to 8) (size 9 to 14) (size 15 to 20)
#    0.000    2.333    1.667    2.000    2.333    4.000 
#    0.000    0.000    0.000    1.000    0.000    0.000 
#    0.000    0.000    0.000    0.000    0.000    0.000 
#
# Total GULP energy -267361.931921 kJ/mol
# GULP energy per Si atom -5570.040248 kJ/mol
# Density = 1.946120 g / cm^3
# Si number density = 19.505596 Si / 1000 Ang^3
#
#
#
# Elastic Constant Matrix: (Units=GPa)
#
#
# Indices 1 2 3 4 5 6 
#
# 1 51.0231 9.1747 22.9431 0.0000 0.0000 0.0000
# 2 9.1747 41.2729 16.8052 0.0000 0.0000 0.0000
# 3 22.9431 16.8052 125.9189 0.0000 0.0000 0.0000
# 4 0.0000 0.0000 0.0000 23.6763 0.0000 0.0000
# 5 0.0000 0.0000 0.0000 0.0000 26.9473 0.0000
# 6 0.0000 0.0000 0.0000 0.0000 0.0000 11.1567
#
#
#
# Elastic Compliance Matrix: (Units=1/GPa)
#
#
# Indices 1 2 3 4 5 6 
#
# 1 0.021793 -0.003413 -0.003515 0.000000 0.000000 0.000000
# 2 -0.003413 0.026156 -0.002869 0.000000 0.000000 0.000000
# 3 -0.003515 -0.002869 0.008965 0.000000 0.000000 0.000000
# 4 0.000000 0.000000 0.000000 0.042236 0.000000 0.000000
# 5 0.000000 0.000000 0.000000 0.000000 0.037109 0.000000
# 6 0.000000 0.000000 0.000000 0.000000 0.000000 0.089632
#
#
# Mechanical properties :
#
#
# Convention : Reuss Voigt Hill
#
# Bulk Modulus (GPa) = 26.79570 35.11789 30.95679
# Shear Modulus (GPa) = 19.38536 23.64219 21.51378
#
# Velocity S-wave (km/s) = 3.15594 3.48526 3.32468
# Velocity P-wave (km/s) = 5.20069 5.85142 5.53563
#
# Compressibility (1/GPa) = 0.03731942
#
# Stress axis : x y z
#
# Youngs Moduli (GPa) = 45.88542 38.23238 111.54464
#
# Poissons Ratio (x) = 0.13049 0.39212
# Poissons Ratio (y) = 0.15662 0.32001
# Poissons Ratio (z) = 0.16130 0.10968
#
# Static dielectric constant tensor:
#      x y z
#    x 1.692470 0.000000 0.000000 
#    y 0.000000 1.746860 0.000000 
#    z 0.000000 0.000000 1.704300 
# 
# From -- ./inp_files/11441.got.cif
#   From: 2010.05.17/outbox.cif.g08.bks.cpg/sg67_6_cif.got.tgz:11441.got - 2010.06.03 18:28:57.
