data_PCOD9503328
_publ_section_title
;
Structure prediction by ZEFSAII (Michael W. Deem and Ramdas Pophale) SiO2 
 PCOD9503328
Probable space group: C M M A
;
_chemical_formula_sum "Si O2"
_cell_formula_units_Z 64
_cell_length_a 24.221953
_cell_length_b 16.602413
_cell_length_c 8.710130
_cell_angle_alpha 90.000000
_cell_angle_beta 90.000000
_cell_angle_gamma 90.000000
_cell_volume 3502.716653
_symmetry_space_group_name_H-M "C M M A"
_symmetry_group_IT_number 67
_symmetry_cell_setting 'orthorhombic'
loop_
_space_group_symop_operation_xyz
x,y,z
-x,1/2-y,z
x,-y,-z
-x,1/2+y,-z
-x,-y,-z
x,1/2+y,-z
-x,y,z
x,1/2-y,z
1/2+x,1/2+y,z
1/2-x,-y,z
1/2+x,1/2-y,-z
1/2-x,y,-z
1/2-x,1/2-y,-z
1/2+x,y,-z
1/2-x,1/2+y,z
1/2+x,-y,z
loop_
_atom_site_type_symbol
_atom_site_label
_atom_site_fract_x
_atom_site_fract_y
_atom_site_fract_z
Si Si1 0.500000 0.847303 0.348444
Si Si2 0.116799 0.156503 0.204635
Si Si3 0.685250 0.012626 0.680000
Si Si4 0.000000 0.152391 0.708067
Si Si5 0.899703 0.577293 0.104302
O O1 0.500000 0.750000 0.337804
O O2 0.443216 0.873284 0.267079
O O3 0.500000 0.868777 0.527604
O O4 0.122636 0.250000 0.243947
O O5 0.164013 0.101406 0.276724
O O6 0.117613 0.142705 0.022309
O O7 0.649562 0.953375 0.787259
O O8 0.674172 0.000000 0.500000
O O9 0.750000 0.000000 0.708007
O O10 0.947466 0.113951 0.791706
O O11 0.000000 0.250000 0.722238
O O12 0.917025 0.500000 0.000000
#
# Coordination Sequence:
#
# PCOD9503328 Si02
#       5
#     8  16  16   8  16
#     4   9  19  33  54  82 113 142 176 223 276 324
#     4  10  20  37  59  85 114 147 184 230 279 330
#     4  10  22  41  60  80 110 148 189 233 279 330
#     4  11  20  33  53  82 115 148 185 227 271 330
#     4  10  21  35  55  81 112 147 184 227 280 334
#
# _framework density 18.271533000000002
#
# number of rings (size 3 to 8) (size 9 to 14) (size 15 to 20)
#    0.000    2.000    0.000    3.375    0.000    8.500 
#    0.000   13.750    0.000    0.000    0.000    0.000 
#    0.000    0.000    0.000    0.000    0.000    0.000 
#
# Total GULP energy -178636.996766 kJ/mol
# GULP energy per Si atom -5582.406149 kJ/mol
# Density = 1.822995 g / cm^3
# Si number density = 18.271533 Si / 1000 Ang^3
#
#
#
# Elastic Constant Matrix: (Units=GPa)
#
#
# Indices 1 2 3 4 5 6 
#
# 1 130.9463 75.8548 92.2827 0.0000 0.0000 0.0000
# 2 75.8548 73.0433 49.0321 0.0000 0.0000 0.0000
# 3 92.2827 49.0321 147.2867 0.0000 0.0000 0.0000
# 4 0.0000 0.0000 0.0000 20.8209 0.0000 0.0000
# 5 0.0000 0.0000 0.0000 0.0000 31.4926 0.0000
# 6 0.0000 0.0000 0.0000 0.0000 0.0000 26.6843
#
#
#
# Elastic Compliance Matrix: (Units=1/GPa)
#
#
# Indices 1 2 3 4 5 6 
#
# 1 0.026873 -0.021383 -0.009719 0.000000 0.000000 0.000000
# 2 -0.021383 0.034645 0.001864 0.000000 0.000000 0.000000
# 3 -0.009719 0.001864 0.012258 0.000000 0.000000 0.000000
# 4 0.000000 0.000000 0.000000 0.048029 0.000000 0.000000
# 5 0.000000 0.000000 0.000000 0.000000 0.031754 0.000000
# 6 0.000000 0.000000 0.000000 0.000000 0.000000 0.037475
#
#
# Mechanical properties :
#
#
# Convention : Reuss Voigt Hill
#
# Bulk Modulus (GPa) = 65.35574 87.29061 76.32318
# Shear Modulus (GPa) = 19.63795 24.73999 22.18897
#
# Velocity S-wave (km/s) = 3.28195 3.68369 3.48861
# Velocity P-wave (km/s) = 7.08579 8.12223 7.62165
#
# Compressibility (1/GPa) = 0.01530087
#
# Stress axis : x y z
#
# Youngs Moduli (GPa) = 37.21257 28.86388 81.57861
#
# Poissons Ratio (x) = 0.61720 0.79283
# Poissons Ratio (y) = 0.79572 -0.15207
# Poissons Ratio (z) = 0.36165 -0.05381
#
# Static dielectric constant tensor:
#      x y z
#    x 1.612660 0.000000 0.000000 
#    y 0.000000 1.638940 0.000000 
#    z 0.000000 0.000000 1.621180 
# 
# From -- ./inp_files/9380.got.cif
#   From: 2010.05.17/outbox.cif.g08.bks.cpg/sg67_5_cif.got.tgz:9380.got - 2010.06.03 18:28:57.
