data_PCOD9503881
_publ_section_title
;
Structure prediction by ZEFSAII (Michael W. Deem and Ramdas Pophale) SiO2 
 PCOD9503881
Probable space group: C M M A
;
_chemical_formula_sum "Si O2"
_cell_formula_units_Z 64
_cell_length_a 8.442006
_cell_length_b 28.561983
_cell_length_c 14.581275
_cell_angle_alpha 90.000000
_cell_angle_beta 90.000000
_cell_angle_gamma 90.000000
_cell_volume 3515.843325
_symmetry_space_group_name_H-M "C M M A"
_symmetry_group_IT_number 67
_symmetry_cell_setting 'orthorhombic'
loop_
_space_group_symop_operation_xyz
x,y,z
-x,1/2-y,z
x,-y,-z
-x,1/2+y,-z
-x,-y,-z
x,1/2+y,-z
-x,y,z
x,1/2-y,z
1/2+x,1/2+y,z
1/2-x,-y,z
1/2+x,1/2-y,-z
1/2-x,y,-z
1/2-x,1/2-y,-z
1/2+x,y,-z
1/2-x,1/2+y,z
1/2+x,-y,z
loop_
_atom_site_type_symbol
_atom_site_label
_atom_site_fract_x
_atom_site_fract_y
_atom_site_fract_z
Si Si1 0.189394 0.446804 0.101917
Si Si2 0.310066 0.197529 0.093839
Si Si3 0.190197 0.127417 0.751905
Si Si4 0.690101 0.697170 0.395531
O O1 0.250000 0.500000 0.111563
O O2 0.247574 0.417660 0.191387
O O3 0.000000 0.445372 0.099357
O O4 0.250000 0.431009 0.000000
O O5 0.500000 0.198664 0.092666
O O6 0.246788 0.250000 0.098887
O O7 0.257631 0.168458 0.179329
O O8 0.250000 0.176037 0.000000
O O9 0.248410 0.150617 0.656994
O O10 0.000000 0.123465 0.747839
O O11 0.500000 0.696534 0.392691
O O12 0.741395 0.750000 0.360225
O O13 0.750000 0.695185 0.500000
#
# Coordination Sequence:
#
# PCOD9503881 Si02
#       4
#    16  16  16  16
#     4  11  22  38  58  82 112 146 186 230 278 330
#     4   9  18  30  44  66  99 137 173 209 252 306
#     4  11  21  34  54  79 107 142 183 226 274 327
#     4  10  21  37  57  82 112 147 187 231 278 328
#
# _framework density 18.203313999999999
#
# number of rings (size 3 to 8) (size 9 to 14) (size 15 to 20)
#    0.000    1.750    0.000    6.000    0.000    6.500 
#    0.000    2.500    0.000    0.750    0.000    5.250 
#    0.000    0.000    0.000    0.000    0.000    0.000 
#
# Total GULP energy -178212.031420 kJ/mol
# GULP energy per Si atom -5569.125982 kJ/mol
# Density = 1.816188 g / cm^3
# Si number density = 18.203314 Si / 1000 Ang^3
#
#
#
# Elastic Constant Matrix: (Units=GPa)
#
#
# Indices 1 2 3 4 5 6 
#
# 1 74.2448 40.2709 26.0548 0.0000 0.0000 0.0000
# 2 40.2709 121.2295 52.7407 0.0000 0.0000 0.0000
# 3 26.0548 52.7407 87.9235 0.0000 0.0000 0.0000
# 4 0.0000 0.0000 0.0000 35.7428 0.0000 0.0000
# 5 0.0000 0.0000 0.0000 0.0000 31.1576 0.0000
# 6 0.0000 0.0000 0.0000 0.0000 0.0000 -47.7430
#
#
#
# Elastic Compliance Matrix: (Units=1/GPa)
#
#
# Indices 1 2 3 4 5 6 
#
# 1 0.016737 -0.004604 -0.002198 0.000000 0.000000 0.000000
# 2 -0.004604 0.012428 -0.006091 0.000000 0.000000 0.000000
# 3 -0.002198 -0.006091 0.015678 0.000000 0.000000 0.000000
# 4 0.000000 0.000000 0.000000 0.027978 0.000000 0.000000
# 5 0.000000 0.000000 0.000000 0.000000 0.032095 0.000000
# 6 0.000000 0.000000 0.000000 0.000000 0.000000 -0.020945
#
#
# Mechanical properties :
#
#
# Convention : Reuss Voigt Hill
#
# Bulk Modulus (GPa) = 52.47008 57.94784 55.20896
# Shear Modulus (GPa) = 43.06313 14.78692 28.92502
#
# Velocity S-wave (km/s) = 4.86910 2.85321 3.99055
# Velocity P-wave (km/s) = 7.77804 6.53890 7.18523
#
# Compressibility (1/GPa) = 0.01905848
#
# Stress axis : x y z
#
# Youngs Moduli (GPa) = 59.74625 80.46516 63.78197
#
# Poissons Ratio (x) = 0.37042 0.14022
# Poissons Ratio (y) = 0.27504 0.38847
# Poissons Ratio (z) = 0.13135 0.49008
#
# Static dielectric constant tensor:
#      x y z
#    x 1.624040 0.000000 0.000000 
#    y 0.000000 1.670930 0.000000 
#    z 0.000000 0.000000 1.632350 
# 
# From -- ./inp_files/15791.got.cif
#   From: 2010.05.17/outbox.cif.g08.bks.cpg/sg67_8_cif.got.tgz:15791.got - 2010.06.03 18:28:57.
