data_PCOD9503711
_publ_section_title
;
Structure prediction by ZEFSAII (Michael W. Deem and Ramdas Pophale) SiO2 
 PCOD9503711
Probable space group: C M M A
;
_chemical_formula_sum "Si O2"
_cell_formula_units_Z 80
_cell_length_a 14.866744
_cell_length_b 11.023262
_cell_length_c 23.987884
_cell_angle_alpha 90.000000
_cell_angle_beta 90.000000
_cell_angle_gamma 90.000000
_cell_volume 3931.134771
_symmetry_space_group_name_H-M "C M M A"
_symmetry_group_IT_number 67
_symmetry_cell_setting 'orthorhombic'
loop_
_space_group_symop_operation_xyz
x,y,z
-x,1/2-y,z
x,-y,-z
-x,1/2+y,-z
-x,-y,-z
x,1/2+y,-z
-x,y,z
x,1/2-y,z
1/2+x,1/2+y,z
1/2-x,-y,z
1/2+x,1/2-y,-z
1/2-x,y,-z
1/2-x,1/2-y,-z
1/2+x,y,-z
1/2-x,1/2+y,z
1/2+x,-y,z
loop_
_atom_site_type_symbol
_atom_site_label
_atom_site_fract_x
_atom_site_fract_y
_atom_site_fract_z
Si Si1 0.890758 0.885313 0.153881
Si Si2 0.892355 0.117229 0.223883
Si Si3 0.892697 0.382234 0.468132
Si Si4 0.185707 0.115116 0.346515
Si Si5 0.850485 0.381132 0.974368
O O1 0.870223 0.750000 0.176685
O O2 0.849792 0.893958 0.092187
O O3 0.000000 0.891370 0.148148
O O4 0.860028 0.998305 0.191172
O O5 0.858838 0.250000 0.203566
O O6 0.869064 0.108231 0.289038
O O7 0.000000 0.118050 0.218051
O O8 0.856314 0.500000 0.500000
O O9 0.858340 0.250000 0.487756
O O10 0.873078 0.391416 0.402480
O O11 0.000000 0.381102 0.476274
O O12 0.229895 0.250000 0.347092
O O13 0.250000 0.000000 0.347610
O O14 0.892457 0.250000 0.987146
O O15 0.895125 0.500000 0.000000
O O16 0.750000 0.377374 0.000000
#
# Coordination Sequence:
#
# PCOD9503711 Si02
#       5
#    16  16  16  16  16
#     4   9  18  33  53  77 103 130 165 213 264 308
#     4   9  18  35  58  80 102 134 177 221 264 312
#     4   9  18  34  56  80 106 140 183 228 271 315
#     4  10  21  36  53  77 110 145 180 219 265 317
#     4   9  18  33  50  70  98 131 165 201 247 305
#
# _framework density 20.350358
#
# number of rings (size 3 to 8) (size 9 to 14) (size 15 to 20)
#    0.000    2.800    0.000    0.600    0.000    5.600 
#    3.600    2.000    0.000    6.000    0.000    0.000 
#    0.000    0.000    0.000    0.000    0.000    0.000 
#
# Total GULP energy -222984.199875 kJ/mol
# GULP energy per Si atom -5574.604997 kJ/mol
# Density = 2.030404 g / cm^3
# Si number density = 20.350358 Si / 1000 Ang^3
#
#
#
# Elastic Constant Matrix: (Units=GPa)
#
#
# Indices 1 2 3 4 5 6 
#
# 1 52.1519 25.0987 8.1521 0.0000 0.0000 0.0000
# 2 25.0987 255.2805 97.0194 0.0000 0.0000 0.0000
# 3 8.1521 97.0194 90.3714 0.0000 0.0000 0.0000
# 4 0.0000 0.0000 0.0000 42.4466 0.0000 0.0000
# 5 0.0000 0.0000 0.0000 0.0000 28.0573 0.0000
# 6 0.0000 0.0000 0.0000 0.0000 0.0000 1.7954
#
#
#
# Elastic Compliance Matrix: (Units=1/GPa)
#
#
# Indices 1 2 3 4 5 6 
#
# 1 0.020142 -0.002179 0.000522 0.000000 0.000000 0.000000
# 2 -0.002179 0.006853 -0.007160 0.000000 0.000000 0.000000
# 3 0.000522 -0.007160 0.018705 0.000000 0.000000 0.000000
# 4 0.000000 0.000000 0.000000 0.023559 0.000000 0.000000
# 5 0.000000 0.000000 0.000000 0.000000 0.035641 0.000000
# 6 0.000000 0.000000 0.000000 0.000000 0.000000 0.556974
#
#
# Mechanical properties :
#
#
# Convention : Reuss Voigt Hill
#
# Bulk Modulus (GPa) = 35.63045 73.14934 54.38990
# Shear Modulus (GPa) = 7.25834 32.29544 19.77689
#
# Velocity S-wave (km/s) = 1.89062 3.98800 3.12079
# Velocity P-wave (km/s) = 4.72360 7.56496 6.30639
#
# Compressibility (1/GPa) = 0.02806588
#
# Stress axis : x y z
#
# Youngs Moduli (GPa) = 49.64833 145.92700 53.46049
#
# Poissons Ratio (x) = 0.31793 -0.02791
# Poissons Ratio (y) = 0.10817 0.38279
# Poissons Ratio (z) = -0.02592 1.04488
#
# Static dielectric constant tensor:
#      x y z
#    x 1.699300 0.000000 0.000000 
#    y 0.000000 1.806100 0.000000 
#    z 0.000000 0.000000 1.679280 
# 
# From -- ./inp_files/41781.got.cif
#   From: 2010.05.17/outbox.cif.g08.bks.cpg/sg67_21_cif.got.tgz:41781.got - 2010.06.03 18:28:57.
