data_PCOD9503578
_publ_section_title
;
Structure prediction by ZEFSAII (Michael W. Deem and Ramdas Pophale) SiO2 
 PCOD9503578
Probable space group: C M M A
;
_chemical_formula_sum "Si O2"
_cell_formula_units_Z 84
_cell_length_a 14.348349
_cell_length_b 20.250503
_cell_length_c 14.363341
_cell_angle_alpha 90.000000
_cell_angle_beta 90.000000
_cell_angle_gamma 90.000000
_cell_volume 4173.430810
_symmetry_space_group_name_H-M "C M M A"
_symmetry_group_IT_number 67
_symmetry_cell_setting 'orthorhombic'
loop_
_space_group_symop_operation_xyz
x,y,z
-x,1/2-y,z
x,-y,-z
-x,1/2+y,-z
-x,-y,-z
x,1/2+y,-z
-x,y,z
x,1/2-y,z
1/2+x,1/2+y,z
1/2-x,-y,z
1/2+x,1/2-y,-z
1/2-x,y,-z
1/2-x,1/2-y,-z
1/2+x,y,-z
1/2-x,1/2+y,z
1/2+x,-y,z
loop_
_atom_site_type_symbol
_atom_site_label
_atom_site_fract_x
_atom_site_fract_y
_atom_site_fract_z
Si Si1 0.855432 0.868922 0.246164
Si Si2 0.886441 0.936631 0.062094
Si Si3 0.000000 0.750000 0.201547
Si Si4 0.000000 0.433486 0.618184
Si Si5 0.000000 0.089589 0.399162
Si Si6 0.609821 0.177508 0.926410
Si Si7 0.648633 0.828015 0.286496
O O1 0.844493 0.922750 0.163468
O O2 0.758095 0.842564 0.284968
O O3 0.918389 0.808611 0.206535
O O4 0.911867 0.902939 0.329106
O O5 0.000000 0.938073 0.073941
O O6 0.856176 0.875036 0.999293
O O7 0.862341 0.000000 0.000000
O O8 0.000000 0.411716 0.510879
O O9 0.000000 0.512518 0.628290
O O10 0.910901 0.127653 0.356679
O O11 0.500000 0.183267 0.946978
O O12 0.652958 0.250000 0.935464
O O13 0.617768 0.156576 0.819475
O O14 0.630587 0.750000 0.302771
#
# Coordination Sequence:
#
# PCOD9503578 Si02
#       7
#    16  16   4   8   8  16  16
#     4  11  23  42  70  98 138 178 229 274 344 421
#     4  10  21  35  60  95 132 179 226 274 331 400
#     4  10  20  42  62  94 142 178 220 274 338 416
#     4  10  26  48  69 100 127 185 214 281 362 407
#     4  11  25  48  73  93 139 167 232 288 345 417
#     4   9  19  34  58  87 128 170 218 264 330 389
#     4  11  23  42  69 104 131 181 226 285 343 399
#
# _framework density 20.127324999999999
#
# number of rings (size 3 to 8) (size 9 to 14) (size 15 to 20)
#    0.000    1.714    3.810    0.286    4.000    2.286 
#    6.857    5.714    0.000    0.000    0.000    0.000 
#    0.000    0.000    0.000    0.000    0.000    0.000 
#
# Total GULP energy -234101.865108 kJ/mol
# GULP energy per Si atom -5573.853931 kJ/mol
# Density = 2.008151 g / cm^3
# Si number density = 20.127325 Si / 1000 Ang^3
#
#
#
# Elastic Constant Matrix: (Units=GPa)
#
#
# Indices 1 2 3 4 5 6 
#
# 1 101.6022 31.7485 23.3993 0.0000 0.0000 0.0000
# 2 31.7485 40.6452 46.3888 0.0000 0.0000 0.0000
# 3 23.3993 46.3888 81.4677 0.0000 0.0000 0.0000
# 4 0.0000 0.0000 0.0000 17.3332 0.0000 0.0000
# 5 0.0000 0.0000 0.0000 0.0000 -24.6615 0.0000
# 6 0.0000 0.0000 0.0000 0.0000 0.0000 13.8600
#
#
#
# Elastic Compliance Matrix: (Units=1/GPa)
#
#
# Indices 1 2 3 4 5 6 
#
# 1 0.014079 -0.018228 0.006336 0.000000 0.000000 0.000000
# 2 -0.018228 0.093871 -0.048216 0.000000 0.000000 0.000000
# 3 0.006336 -0.048216 0.037910 0.000000 0.000000 0.000000
# 4 0.000000 0.000000 0.000000 0.057693 0.000000 0.000000
# 5 0.000000 0.000000 0.000000 0.000000 -0.040549 0.000000
# 6 0.000000 0.000000 0.000000 0.000000 0.000000 0.072150
#
#
# Mechanical properties :
#
#
# Convention : Reuss Voigt Hill
#
# Bulk Modulus (GPa) = 38.99732 47.42092 43.20912
# Shear Modulus (GPa) = 13.73939 9.45158 11.59549
#
# Velocity S-wave (km/s) = 2.61554 2.16935 2.40283
# Velocity P-wave (km/s) = 5.34217 5.46685 5.40487
#
# Compressibility (1/GPa) = 0.02564279
#
# Stress axis : x y z
#
# Youngs Moduli (GPa) = 71.02686 10.65297 26.37854
#
# Poissons Ratio (x) = 0.19419 -0.16712
# Poissons Ratio (y) = 1.29471 1.27185
# Poissons Ratio (z) = -0.45000 0.51364
#
# Static dielectric constant tensor:
#      x y z
#    x 1.748480 0.000000 0.000000 
#    y 0.000000 1.783160 0.000000 
#    z 0.000000 0.000000 1.683070 
# 
# From -- ./inp_files/27102.got.cif
#   From: 2010.05.17/outbox.cif.g08.bks.cpg/sg67_14_cif.got.tgz:27102.got - 2010.06.03 18:28:57.
