data_PCOD9503165
_publ_section_title
;
Structure prediction by ZEFSAII (Michael W. Deem and Ramdas Pophale) SiO2 
 PCOD9503165
Probable space group: C M M A
;
_chemical_formula_sum "Si O2"
_cell_formula_units_Z 80
_cell_length_a 9.632624
_cell_length_b 18.359690
_cell_length_c 24.878842
_cell_angle_alpha 90.000000
_cell_angle_beta 90.000000
_cell_angle_gamma 90.000000
_cell_volume 4399.872730
_symmetry_space_group_name_H-M "C M M A"
_symmetry_group_IT_number 67
_symmetry_cell_setting 'orthorhombic'
loop_
_space_group_symop_operation_xyz
x,y,z
-x,1/2-y,z
x,-y,-z
-x,1/2+y,-z
-x,-y,-z
x,1/2+y,-z
-x,y,z
x,1/2-y,z
1/2+x,1/2+y,z
1/2-x,-y,z
1/2+x,1/2-y,-z
1/2-x,y,-z
1/2-x,1/2-y,-z
1/2+x,y,-z
1/2-x,1/2+y,z
1/2+x,-y,z
loop_
_atom_site_type_symbol
_atom_site_label
_atom_site_fract_x
_atom_site_fract_y
_atom_site_fract_z
Si Si1 0.657885 0.071855 0.736420
Si Si2 0.771361 0.913393 0.620744
Si Si3 0.000000 0.080056 0.470546
Si Si4 0.167877 0.422489 0.144723
Si Si5 0.500000 0.663988 0.579325
Si Si6 0.836023 0.837779 0.053836
O O1 0.500000 0.046239 0.736852
O O2 0.678443 0.112182 0.679663
O O3 0.682262 0.108568 0.794232
O O4 0.750000 0.000000 0.736404
O O5 0.871813 0.908193 0.569578
O O6 0.632647 0.871710 0.606843
O O7 0.750000 0.000000 0.625669
O O8 0.000000 0.138331 0.517688
O O9 0.000000 0.000000 0.500000
O O10 0.250000 0.500000 0.143258
O O11 0.249019 0.372463 0.102531
O O12 0.000000 0.429726 0.134072
O O13 0.500000 0.750000 0.583843
O O14 0.834849 0.750000 0.057993
O O15 0.000000 0.860260 0.052362
O O16 0.750000 0.857740 0.000000
#
# Coordination Sequence:
#
# PCOD9503165 Si02
#       6
#    16  16   8  16   8  16
#     4   9  19  34  57  90 117 153 198 249 297 345
#     4  11  21  39  64  89 119 155 206 251 297 367
#     4  12  22  38  64  96 118 152 209 257 298 373
#     4  10  20  36  58  87 123 155 198 247 300 356
#     4  12  28  42  58  92 128 156 191 255 323 363
#     4  10  21  38  60  87 118 156 202 249 301 359
#
# _framework density 18.182344000000001
#
# number of rings (size 3 to 8) (size 9 to 14) (size 15 to 20)
#    0.000    1.600    3.000    1.800    4.200    4.000 
#    0.000    3.000    0.000    1.200    0.000    0.000 
#    0.000    0.000    0.000    0.000    0.000    0.000 
#
# Total GULP energy -222830.481163 kJ/mol
# GULP energy per Si atom -5570.762029 kJ/mol
# Density = 1.814096 g / cm^3
# Si number density = 18.182344 Si / 1000 Ang^3
#
#
#
# Elastic Constant Matrix: (Units=GPa)
#
#
# Indices 1 2 3 4 5 6 
#
# 1 169.4127 46.2229 96.9022 0.0000 0.0000 0.0000
# 2 46.2229 61.8563 41.3717 0.0000 0.0000 0.0000
# 3 96.9022 41.3717 180.2907 0.0000 0.0000 0.0000
# 4 0.0000 0.0000 0.0000 31.8954 0.0000 0.0000
# 5 0.0000 0.0000 0.0000 0.0000 38.0197 0.0000
# 6 0.0000 0.0000 0.0000 0.0000 0.0000 20.6985
#
#
#
# Elastic Compliance Matrix: (Units=1/GPa)
#
#
# Indices 1 2 3 4 5 6 
#
# 1 0.009404 -0.004308 -0.004066 0.000000 0.000000 0.000000
# 2 -0.004308 0.021071 -0.002520 0.000000 0.000000 0.000000
# 3 -0.004066 -0.002520 0.008310 0.000000 0.000000 0.000000
# 4 0.000000 0.000000 0.000000 0.031352 0.000000 0.000000
# 5 0.000000 0.000000 0.000000 0.000000 0.026302 0.000000
# 6 0.000000 0.000000 0.000000 0.000000 0.000000 0.048313
#
#
# Mechanical properties :
#
#
# Convention : Reuss Voigt Hill
#
# Bulk Modulus (GPa) = 58.83061 86.72816 72.77938
# Shear Modulus (GPa) = 29.03524 33.26025 31.14775
#
# Velocity S-wave (km/s) = 4.00045 4.28163 4.14342
# Velocity P-wave (km/s) = 7.33241 8.49975 7.93757
#
# Compressibility (1/GPa) = 0.01699795
#
# Stress axis : x y z
#
# Youngs Moduli (GPa) = 106.34205 47.45887 120.33559
#
# Poissons Ratio (x) = 0.20444 0.48925
# Poissons Ratio (y) = 0.45809 0.30323
# Poissons Ratio (z) = 0.43236 0.11959
#
# Static dielectric constant tensor:
#      x y z
#    x 1.638210 0.000000 0.000000 
#    y 0.000000 1.591780 0.000000 
#    z 0.000000 0.000000 1.675900 
# 
# From -- ./inp_files/43360.got.cif
#   From: 2010.05.17/outbox.cif.g08.bks.cpg/sg67_22_cif.got.tgz:43360.got - 2010.06.03 18:28:57.
