data_PCOD9503488
_publ_section_title
;
Structure prediction by ZEFSAII (Michael W. Deem and Ramdas Pophale) SiO2 
 PCOD9503488
Probable space group: C M M A
;
_chemical_formula_sum "Si O2"
_cell_formula_units_Z 100
_cell_length_a 15.791022
_cell_length_b 20.995013
_cell_length_c 14.109169
_cell_angle_alpha 90.000000
_cell_angle_beta 90.000000
_cell_angle_gamma 90.000000
_cell_volume 4677.651065
_symmetry_space_group_name_H-M "C M M A"
_symmetry_group_IT_number 67
_symmetry_cell_setting 'orthorhombic'
loop_
_space_group_symop_operation_xyz
x,y,z
-x,1/2-y,z
x,-y,-z
-x,1/2+y,-z
-x,-y,-z
x,1/2+y,-z
-x,y,z
x,1/2-y,z
1/2+x,1/2+y,z
1/2-x,-y,z
1/2+x,1/2-y,-z
1/2-x,y,-z
1/2-x,1/2-y,-z
1/2+x,y,-z
1/2-x,1/2+y,z
1/2+x,-y,z
loop_
_atom_site_type_symbol
_atom_site_label
_atom_site_fract_x
_atom_site_fract_y
_atom_site_fract_z
Si Si1 0.500000 0.250000 0.876427
Si Si2 0.901046 0.971430 0.800934
Si Si3 0.599270 0.412402 0.080784
Si Si4 0.844795 0.030116 0.402836
Si Si5 0.179296 0.680662 0.214339
Si Si6 0.293485 0.176460 0.602181
Si Si7 0.844293 0.849781 0.890129
O O1 0.424765 0.304470 0.878704
O O2 0.889239 0.992763 0.693249
O O3 0.852015 0.906410 0.814641
O O4 0.000000 0.960949 0.818902
O O5 0.870077 0.019740 0.881586
O O6 0.500000 0.416144 0.056249
O O7 0.613223 0.368823 0.173088
O O8 0.647323 0.382009 0.992659
O O9 0.843936 0.108335 0.402381
O O10 0.880699 0.000000 0.500000
O O11 0.750000 0.000000 0.397161
O O12 0.139083 0.750000 0.218465
O O13 0.223694 0.667941 0.315015
O O14 0.256120 0.681705 0.137853
O O15 0.330863 0.250000 0.619721
O O16 0.250000 0.180102 0.500000
#
# Coordination Sequence:
#
# PCOD9503488 Si02
#       7
#     4  16  16  16  16  16  16
#     4  12  24  40  68  96 126 174 214 268 326 376
#     4  11  24  42  61  90 126 168 210 257 320 384
#     4  11  25  41  61  89 132 176 211 257 315 377
#     4  11  21  37  65  92 120 159 209 260 318 380
#     4  11  24  39  65  99 123 163 217 266 314 381
#     4  10  20  38  63  93 125 158 204 263 326 381
#     4  12  23  41  65  92 128 167 215 264 316 379
#
# _framework density 21.378250999999999
#
# number of rings (size 3 to 8) (size 9 to 14) (size 15 to 20)
#    0.000    0.960    5.600    1.920    1.120    2.560 
#    0.000    1.600    0.000    0.000    0.000    0.000 
#    0.000    0.000    0.000    0.000    0.000    0.000 
#
# Total GULP energy -278375.273472 kJ/mol
# GULP energy per Si atom -5567.505469 kJ/mol
# Density = 2.132959 g / cm^3
# Si number density = 21.378251 Si / 1000 Ang^3
#
#
#
# Elastic Constant Matrix: (Units=GPa)
#
#
# Indices 1 2 3 4 5 6 
#
# 1 28.3087 -2.8299 3.4030 0.0000 0.0000 0.0000
# 2 -2.8299 95.5807 31.3674 0.0000 0.0000 0.0000
# 3 3.4030 31.3674 134.7175 0.0000 0.0000 0.0000
# 4 0.0000 0.0000 0.0000 176.6570 0.0000 0.0000
# 5 0.0000 0.0000 0.0000 0.0000 11.3490 0.0000
# 6 0.0000 0.0000 0.0000 0.0000 0.0000 11.4639
#
#
#
# Elastic Compliance Matrix: (Units=1/GPa)
#
#
# Indices 1 2 3 4 5 6 
#
# 1 0.035620 0.001462 -0.001240 0.000000 0.000000 0.000000
# 2 0.001462 0.011388 -0.002688 0.000000 0.000000 0.000000
# 3 -0.001240 -0.002688 0.008080 0.000000 0.000000 0.000000
# 4 0.000000 0.000000 0.000000 0.005661 0.000000 0.000000
# 5 0.000000 0.000000 0.000000 0.000000 0.088113 0.000000
# 6 0.000000 0.000000 0.000000 0.000000 0.000000 0.087230
#
#
# Mechanical properties :
#
#
# Convention : Reuss Voigt Hill
#
# Bulk Modulus (GPa) = 19.93849 35.83199 27.88524
# Shear Modulus (GPa) = 19.39908 55.00509 37.20208
#
# Velocity S-wave (km/s) = 3.01561 5.07792 4.17608
# Velocity P-wave (km/s) = 4.63379 7.15386 6.02701
#
# Compressibility (1/GPa) = 0.05015425
#
# Stress axis : x y z
#
# Youngs Moduli (GPa) = 28.07410 87.81226 123.75865
#
# Poissons Ratio (x) = -0.12834 0.15347
# Poissons Ratio (y) = -0.04103 0.33272
# Poissons Ratio (z) = 0.03481 0.23608
#
# Static dielectric constant tensor:
#      x y z
#    x 1.767660 0.000000 0.000000 
#    y 0.000000 1.859480 0.000000 
#    z 0.000000 0.000000 1.786460 
# 
# From -- ./inp_files/28639.got.cif
#   From: 2010.05.17/outbox.cif.g08.bks.cpg/sg67_15_cif.got.tgz:28639.got - 2010.06.03 18:28:57.
