data_PCOD9503129
_publ_section_title
;
Structure prediction by ZEFSAII (Michael W. Deem and Ramdas Pophale) SiO2 
 PCOD9503129
Probable space group: C M M A
;
_chemical_formula_sum "Si O2"
_cell_formula_units_Z 72
_cell_length_a 8.512169
_cell_length_b 14.722650
_cell_length_c 30.366422
_cell_angle_alpha 90.000000
_cell_angle_beta 90.000000
_cell_angle_gamma 90.000000
_cell_volume 3805.571170
_symmetry_space_group_name_H-M "C M M A"
_symmetry_group_IT_number 67
_symmetry_cell_setting 'orthorhombic'
loop_
_space_group_symop_operation_xyz
x,y,z
-x,1/2-y,z
x,-y,-z
-x,1/2+y,-z
-x,-y,-z
x,1/2+y,-z
-x,y,z
x,1/2-y,z
1/2+x,1/2+y,z
1/2-x,-y,z
1/2+x,1/2-y,-z
1/2-x,y,-z
1/2-x,1/2-y,-z
1/2+x,y,-z
1/2-x,1/2+y,z
1/2+x,-y,z
loop_
_atom_site_type_symbol
_atom_site_label
_atom_site_fract_x
_atom_site_fract_y
_atom_site_fract_z
Si Si1 0.808084 0.750000 0.788830
Si Si2 0.188994 0.750000 0.450611
Si Si3 0.188995 0.250000 0.312305
Si Si4 0.687961 0.396167 0.954574
Si Si5 0.189701 0.102206 0.141963
Si Si6 0.311309 0.397448 0.379523
O O1 0.757038 0.750000 0.738362
O O2 0.756780 0.663500 0.817503
O O3 0.000000 0.750000 0.788335
O O4 0.250000 0.750000 0.500000
O O5 0.238571 0.661323 0.422478
O O6 0.000000 0.750000 0.451600
O O7 0.249994 0.338442 0.338337
O O8 0.000000 0.250000 0.313451
O O9 0.500000 0.396093 0.956813
O O10 0.750000 0.500000 0.954026
O O11 0.735978 0.359924 0.906465
O O12 0.750000 0.354529 0.000000
O O13 0.000000 0.101031 0.142276
O O14 0.250000 0.000000 0.145947
O O15 0.500000 0.398402 0.378232
O O16 0.250000 0.500000 0.380005
#
# Coordination Sequence:
#
# PCOD9503129 Si02
#       6
#     8   8   8  16  16  16
#     4   9  19  36  55  75 101 133 169 207 259 321
#     4   9  20  36  55  82 118 155 190 229 270 315
#     4  10  20  36  58  81 106 140 180 228 280 328
#     4   9  15  24  42  65  90 121 156 194 239 291
#     4   9  18  33  51  71  97 129 163 202 249 305
#     4  10  21  38  58  83 114 149 189 231 274 322
#
# _framework density 18.919632
#
# number of rings (size 3 to 8) (size 9 to 14) (size 15 to 20)
#    0.000    2.667    0.000    3.000    0.000    4.889 
#    0.000    7.778    0.000    0.000    0.000    0.000 
#    0.000    0.000    0.000    0.000    0.000    0.000 
#
# Total GULP energy -200733.846808 kJ/mol
# GULP energy per Si atom -5575.940189 kJ/mol
# Density = 1.887657 g / cm^3
# Si number density = 18.919632 Si / 1000 Ang^3
#
#
#
# Elastic Constant Matrix: (Units=GPa)
#
#
# Indices 1 2 3 4 5 6 
#
# 1 35.9598 28.1004 40.4876 0.0000 0.0000 0.0000
# 2 28.1004 155.1061 101.7002 0.0000 0.0000 0.0000
# 3 40.4876 101.7002 229.5752 0.0000 0.0000 0.0000
# 4 0.0000 0.0000 0.0000 13.1745 0.0000 0.0000
# 5 0.0000 0.0000 0.0000 0.0000 24.6954 0.0000
# 6 0.0000 0.0000 0.0000 0.0000 0.0000 14.2985
#
#
#
# Elastic Compliance Matrix: (Units=1/GPa)
#
#
# Indices 1 2 3 4 5 6 
#
# 1 0.035867 -0.003313 -0.004858 0.000000 0.000000 0.000000
# 2 -0.003313 0.009392 -0.003577 0.000000 0.000000 0.000000
# 3 -0.004858 -0.003577 0.006797 0.000000 0.000000 0.000000
# 4 0.000000 0.000000 0.000000 0.075904 0.000000 0.000000
# 5 0.000000 0.000000 0.000000 0.000000 0.040493 0.000000
# 6 0.000000 0.000000 0.000000 0.000000 0.000000 0.069938
#
#
# Mechanical properties :
#
#
# Convention : Reuss Voigt Hill
#
# Bulk Modulus (GPa) = 35.01140 84.57972 59.79556
# Shear Modulus (GPa) = 18.42249 27.12385 22.77317
#
# Velocity S-wave (km/s) = 3.12384 3.79045 3.47317
# Velocity P-wave (km/s) = 5.61753 7.99740 6.91068
#
# Compressibility (1/GPa) = 0.02856213
#
# Stress axis : x y z
#
# Youngs Moduli (GPa) = 27.88061 106.46843 147.12361
#
# Poissons Ratio (x) = 0.35270 0.71472
# Poissons Ratio (y) = 0.09236 0.52620
# Poissons Ratio (z) = 0.13544 0.38079
#
# Static dielectric constant tensor:
#      x y z
#    x 1.642760 0.000000 0.000000 
#    y 0.000000 1.695190 0.000000 
#    z 0.000000 0.000000 1.673250 
# 
# From -- ./inp_files/45166.got.cif
#   From: 2010.05.17/outbox.cif.g08.bks.cpg/sg67_23_cif.got.tgz:45166.got - 2010.06.03 18:28:57.
