data_PCOD9503737
_publ_section_title
;
Structure prediction by ZEFSAII (Michael W. Deem and Ramdas Pophale) SiO2 
 PCOD9503737
Probable space group: C M M A
;
_chemical_formula_sum "Si O2"
_cell_formula_units_Z 84
_cell_length_a 13.484718
_cell_length_b 13.927329
_cell_length_c 21.552500
_cell_angle_alpha 90.000000
_cell_angle_beta 90.000000
_cell_angle_gamma 90.000000
_cell_volume 4047.691058
_symmetry_space_group_name_H-M "C M M A"
_symmetry_group_IT_number 67
_symmetry_cell_setting 'orthorhombic'
loop_
_space_group_symop_operation_xyz
x,y,z
-x,1/2-y,z
x,-y,-z
-x,1/2+y,-z
-x,-y,-z
x,1/2+y,-z
-x,y,z
x,1/2-y,z
1/2+x,1/2+y,z
1/2-x,-y,z
1/2+x,1/2-y,-z
1/2-x,y,-z
1/2-x,1/2-y,-z
1/2+x,y,-z
1/2-x,1/2+y,z
1/2+x,-y,z
loop_
_atom_site_type_symbol
_atom_site_label
_atom_site_fract_x
_atom_site_fract_y
_atom_site_fract_z
Si Si1 0.384356 0.863182 0.585023
Si Si2 0.108904 0.140983 0.982745
Si Si3 0.291320 0.098430 0.897822
Si Si4 0.183685 0.855508 0.765721
Si Si5 0.387665 0.563336 0.726471
Si Si6 0.250000 0.500000 0.500000
O O1 0.500000 0.868356 0.565811
O O2 0.355596 0.750000 0.584527
O O3 0.378934 0.904639 0.654887
O O4 0.317333 0.930045 0.542006
O O5 0.107863 0.250000 0.007923
O O6 0.194285 0.140985 0.931328
O O7 0.000000 0.118385 0.958325
O O8 0.137048 0.080551 0.043754
O O9 0.339946 0.147255 0.839093
O O10 0.250000 0.000000 0.871152
O O11 0.160950 0.750000 0.738766
O O12 0.301755 0.876712 0.760540
O O13 0.133481 0.949233 0.735149
O O14 0.500000 0.583730 0.747720
#
# Coordination Sequence:
#
# PCOD9503737 Si02
#       6
#    16  16  16  16  16   4
#     4  10  22  40  62  92 131 170 206 250 300 348
#     4  10  21  36  55  78 104 142 187 232 294 368
#     4  11  21  37  55  77 112 143 183 240 297 355
#     4  11  22  39  61  87 117 152 198 253 308 357
#     4  10  22  41  61  86 120 160 204 245 294 356
#     4  12  20  36  68 100 132 164 216 250 292 344
#
# _framework density 20.752571
#
# number of rings (size 3 to 8) (size 9 to 14) (size 15 to 20)
#    0.000    1.524    1.905    5.714    0.000    4.571 
#    0.000    0.952    0.000    2.286    0.000    0.000 
#    0.000    0.000    0.000    0.000    0.000    0.000 
#
# Total GULP energy -234305.085402 kJ/mol
# GULP energy per Si atom -5578.692510 kJ/mol
# Density = 2.070534 g / cm^3
# Si number density = 20.752571 Si / 1000 Ang^3
#
#
#
# Elastic Constant Matrix: (Units=GPa)
#
#
# Indices 1 2 3 4 5 6 
#
# 1 78.7855 5.8799 32.1576 0.0000 0.0000 0.0000
# 2 5.8799 135.1451 40.4431 0.0000 0.0000 0.0000
# 3 32.1576 40.4431 81.3890 0.0000 0.0000 0.0000
# 4 0.0000 0.0000 0.0000 36.9718 0.0000 0.0000
# 5 0.0000 0.0000 0.0000 0.0000 -24.2347 0.0000
# 6 0.0000 0.0000 0.0000 0.0000 0.0000 37.0493
#
#
#
# Elastic Compliance Matrix: (Units=1/GPa)
#
#
# Indices 1 2 3 4 5 6 
#
# 1 0.015339 0.001347 -0.006730 0.000000 0.000000 0.000000
# 2 0.001347 0.008810 -0.004910 0.000000 0.000000 0.000000
# 3 -0.006730 -0.004910 0.017385 0.000000 0.000000 0.000000
# 4 0.000000 0.000000 0.000000 0.027048 0.000000 0.000000
# 5 0.000000 0.000000 0.000000 0.000000 -0.041263 0.000000
# 6 0.000000 0.000000 0.000000 0.000000 0.000000 0.026991
#
#
# Mechanical properties :
#
#
# Convention : Reuss Voigt Hill
#
# Bulk Modulus (GPa) = 47.73613 50.25343 48.99478
# Shear Modulus (GPa) = 61.06551 24.41321 42.73936
#
# Velocity S-wave (km/s) = 5.43041 3.43358 4.54306
# Velocity P-wave (km/s) = 7.89757 6.32356 7.15399
#
# Compressibility (1/GPa) = 0.02094849
#
# Stress axis : x y z
#
# Youngs Moduli (GPa) = 65.19312 113.50484 57.51941
#
# Poissons Ratio (x) = -0.15284 0.38709
# Poissons Ratio (y) = -0.08779 0.28242
# Poissons Ratio (z) = 0.43873 0.55730
#
# Static dielectric constant tensor:
#      x y z
#    x 1.755060 0.000000 0.000000 
#    y 0.000000 1.839500 0.000000 
#    z 0.000000 0.000000 1.707650 
# 
# From -- ./inp_files/38300.got.cif
#   From: 2010.05.17/outbox.cif.g08.bks.cpg/sg67_20_cif.got.tgz:38300.got - 2010.06.03 18:28:57.
