data_PCOD9503357
_publ_section_title
;
Structure prediction by ZEFSAII (Michael W. Deem and Ramdas Pophale) SiO2 
 PCOD9503357
Probable space group: C M M A
;
_chemical_formula_sum "Si O2"
_cell_formula_units_Z 96
_cell_length_a 16.187789
_cell_length_b 14.633172
_cell_length_c 19.492259
_cell_angle_alpha 90.000000
_cell_angle_beta 90.000000
_cell_angle_gamma 90.000000
_cell_volume 4617.300986
_symmetry_space_group_name_H-M "C M M A"
_symmetry_group_IT_number 67
_symmetry_cell_setting 'orthorhombic'
loop_
_space_group_symop_operation_xyz
x,y,z
-x,1/2-y,z
x,-y,-z
-x,1/2+y,-z
-x,-y,-z
x,1/2+y,-z
-x,y,z
x,1/2-y,z
1/2+x,1/2+y,z
1/2-x,-y,z
1/2+x,1/2-y,-z
1/2-x,y,-z
1/2-x,1/2-y,-z
1/2+x,y,-z
1/2-x,1/2+y,z
1/2+x,-y,z
loop_
_atom_site_type_symbol
_atom_site_label
_atom_site_fract_x
_atom_site_fract_y
_atom_site_fract_z
Si Si1 0.910220 0.361233 0.660536
Si Si2 0.671225 0.856256 0.184505
Si Si3 0.867779 0.356468 0.812703
Si Si4 0.906476 0.861401 0.671286
Si Si5 0.247296 0.861569 0.579031
Si Si6 0.096538 0.008643 0.078368
O O1 0.907128 0.250000 0.660593
O O2 0.904778 0.388464 0.740265
O O3 0.829624 0.391697 0.619212
O O4 0.000000 0.387843 0.631980
O O5 0.650857 0.750000 0.173136
O O6 0.768949 0.862877 0.196689
O O7 0.622882 0.887801 0.252450
O O8 0.646765 0.915922 0.119862
O O9 0.889327 0.250000 0.822822
O O10 0.893934 0.416552 0.877214
O O11 0.906768 0.750000 0.670384
O O12 0.836205 0.890493 0.617765
O O13 0.000000 0.891848 0.657220
O O14 0.247496 0.750000 0.580404
O O15 0.250000 0.889599 0.500000
O O16 0.000000 0.034424 0.077425
O O17 0.124753 0.000000 0.000000
#
# Coordination Sequence:
#
# PCOD9503357 Si02
#       6
#    16  16  16  16  16  16
#     4   9  16  28  48  74 106 147 194 238 283 340
#     4  10  20  37  61  85 113 152 198 245 291 344
#     4  10  20  37  61  85 113 152 198 245 291 344
#     4   9  16  28  48  74 106 147 194 238 283 340
#     4   9  16  26  42  71 111 148 187 237 290 342
#     4  11  25  41  57  85 121 152 191 241 293 355
#
# _framework density 20.791367000000001
#
# number of rings (size 3 to 8) (size 9 to 14) (size 15 to 20)
#    0.000    2.333    1.667    1.500    0.000    4.667 
#    0.000    6.667    0.000    0.000    0.000    2.333 
#    0.000    4.000    0.000    0.333    0.000    0.000 
#
# Total GULP energy -268271.970421 kJ/mol
# GULP energy per Si atom -5588.999384 kJ/mol
# Density = 2.074404 g / cm^3
# Si number density = 20.791367 Si / 1000 Ang^3
#
#
#
# Elastic Constant Matrix: (Units=GPa)
#
#
# Indices 1 2 3 4 5 6 
#
# 1 145.8045 19.3314 80.7693 0.0000 0.0000 0.0000
# 2 19.3314 61.8520 20.2473 0.0000 0.0000 0.0000
# 3 80.7693 20.2473 163.2416 0.0000 0.0000 0.0000
# 4 0.0000 0.0000 0.0000 38.0862 0.0000 0.0000
# 5 0.0000 0.0000 0.0000 0.0000 3.5174 0.0000
# 6 0.0000 0.0000 0.0000 0.0000 0.0000 10.0121
#
#
#
# Elastic Compliance Matrix: (Units=1/GPa)
#
#
# Indices 1 2 3 4 5 6 
#
# 1 0.009580 -0.001504 -0.004554 0.000000 0.000000 0.000000
# 2 -0.001504 0.017088 -0.001375 0.000000 0.000000 0.000000
# 3 -0.004554 -0.001375 0.008550 0.000000 0.000000 0.000000
# 4 0.000000 0.000000 0.000000 0.026256 0.000000 0.000000
# 5 0.000000 0.000000 0.000000 0.000000 0.284299 0.000000
# 6 0.000000 0.000000 0.000000 0.000000 0.000000 0.099880
#
#
# Mechanical properties :
#
#
# Convention : Reuss Voigt Hill
#
# Bulk Modulus (GPa) = 49.13477 67.95490 58.54483
# Shear Modulus (GPa) = 10.69971 27.02647 18.86309
#
# Velocity S-wave (km/s) = 2.27099 3.60931 3.01534
# Velocity P-wave (km/s) = 5.52812 7.07987 6.35157
#
# Compressibility (1/GPa) = 0.02035219
#
# Stress axis : x y z
#
# Youngs Moduli (GPa) = 104.37943 58.52113 116.96432
#
# Poissons Ratio (x) = 0.08799 0.53263
# Poissons Ratio (y) = 0.15695 0.16088
# Poissons Ratio (z) = 0.47532 0.08049
#
# Static dielectric constant tensor:
#      x y z
#    x 1.741960 0.000000 0.000000 
#    y 0.000000 1.799920 0.000000 
#    z 0.000000 0.000000 1.692160 
# 
# From -- ./inp_files/38424.got.cif
#   From: 2010.05.17/outbox.cif.g08.bks.cpg/sg67_20_cif.got.tgz:38424.got - 2010.06.03 18:28:57.
