data_PCOD9503468
_publ_section_title
;
Structure prediction by ZEFSAII (Michael W. Deem and Ramdas Pophale) SiO2 
 PCOD9503468
Probable space group: C M M A
;
_chemical_formula_sum "Si O2"
_cell_formula_units_Z 96
_cell_length_a 14.606998
_cell_length_b 15.935665
_cell_length_c 20.719180
_cell_angle_alpha 90.000000
_cell_angle_beta 90.000000
_cell_angle_gamma 90.000000
_cell_volume 4822.849666
_symmetry_space_group_name_H-M "C M M A"
_symmetry_group_IT_number 67
_symmetry_cell_setting 'orthorhombic'
loop_
_space_group_symop_operation_xyz
x,y,z
-x,1/2-y,z
x,-y,-z
-x,1/2+y,-z
-x,-y,-z
x,1/2+y,-z
-x,y,z
x,1/2-y,z
1/2+x,1/2+y,z
1/2-x,-y,z
1/2+x,1/2-y,-z
1/2-x,y,-z
1/2-x,1/2-y,-z
1/2+x,y,-z
1/2-x,1/2+y,z
1/2+x,-y,z
loop_
_atom_site_type_symbol
_atom_site_label
_atom_site_fract_x
_atom_site_fract_y
_atom_site_fract_z
Si Si1 0.761278 0.902110 0.395396
Si Si2 0.899297 0.750000 0.899383
Si Si3 0.249719 0.845716 0.747254
Si Si4 0.104742 0.350262 0.492461
Si Si5 0.390364 0.420746 0.834441
Si Si6 0.890765 0.889810 0.142051
Si Si7 0.845336 0.750000 0.038078
O O1 0.774255 0.857951 0.327083
O O2 0.844527 0.887528 0.444998
O O3 0.669794 0.870894 0.431952
O O4 0.750000 0.000000 0.383511
O O5 0.859757 0.839657 0.876807
O O6 0.000000 0.750000 0.868827
O O7 0.908632 0.750000 0.975767
O O8 0.217640 0.750000 0.756843
O O9 0.168804 0.908310 0.769786
O O10 0.335176 0.862126 0.794483
O O11 0.104252 0.250000 0.500094
O O12 0.000000 0.379339 0.485181
O O13 0.500000 0.418851 0.823374
O O14 0.371299 0.510856 0.866550
O O15 0.860117 0.830749 0.083170
O O16 0.000000 0.879209 0.150264
O O17 0.750000 0.750000 0.000000
#
# Coordination Sequence:
#
# PCOD9503468 Si02
#       7
#    16   8  16  16  16  16   8
#     4  11  23  38  60  91 125 162 208 263 315 377
#     4  10  20  38  62  88 120 158 204 251 309 371
#     4  12  23  40  65  90 125 168 214 262 320 380
#     4  10  21  40  63  88 122 163 208 258 315 378
#     4  10  22  41  65  93 128 168 213 269 321 378
#     4  11  24  43  65  93 131 169 214 266 318 380
#     4  12  24  40  64  92 124 168 209 255 313 374
#
# _framework density 19.905244
#
# number of rings (size 3 to 8) (size 9 to 14) (size 15 to 20)
#    0.000    1.167    1.667    6.250    0.000    3.333 
#    0.000    3.333    0.000    0.000    0.000    0.000 
#    0.000    0.000    0.000    0.000    0.000    0.000 
#
# Total GULP energy -268002.377642 kJ/mol
# GULP energy per Si atom -5583.382868 kJ/mol
# Density = 1.985994 g / cm^3
# Si number density = 19.905244 Si / 1000 Ang^3
#
#
#
# Elastic Constant Matrix: (Units=GPa)
#
#
# Indices 1 2 3 4 5 6 
#
# 1 110.2342 12.9131 32.1648 0.0000 0.0000 0.0000
# 2 12.9131 116.4248 32.0377 0.0000 0.0000 0.0000
# 3 32.1648 32.0377 130.3774 0.0000 0.0000 0.0000
# 4 0.0000 0.0000 0.0000 24.6054 0.0000 0.0000
# 5 0.0000 0.0000 0.0000 0.0000 11.2434 0.0000
# 6 0.0000 0.0000 0.0000 0.0000 0.0000 22.7717
#
#
#
# Elastic Compliance Matrix: (Units=1/GPa)
#
#
# Indices 1 2 3 4 5 6 
#
# 1 0.009797 -0.000452 -0.002306 0.000000 0.000000 0.000000
# 2 -0.000452 0.009233 -0.002157 0.000000 0.000000 0.000000
# 3 -0.002306 -0.002157 0.008769 0.000000 0.000000 0.000000
# 4 0.000000 0.000000 0.000000 0.040641 0.000000 0.000000
# 5 0.000000 0.000000 0.000000 0.000000 0.088941 0.000000
# 6 0.000000 0.000000 0.000000 0.000000 0.000000 0.043914
#
#
# Mechanical properties :
#
#
# Convention : Reuss Voigt Hill
#
# Bulk Modulus (GPa) = 55.65227 56.80751 56.22989
# Shear Modulus (GPa) = 23.02916 30.38551 26.70733
#
# Velocity S-wave (km/s) = 3.40507 3.91129 3.66693
# Velocity P-wave (km/s) = 6.59383 6.99990 6.79990
#
# Compressibility (1/GPa) = 0.01796872
#
# Stress axis : x y z
#
# Youngs Moduli (GPa) = 102.06776 108.30691 114.03739
#
# Poissons Ratio (x) = 0.04897 0.26297
# Poissons Ratio (y) = 0.04615 0.24601
# Poissons Ratio (z) = 0.23537 0.23365
#
# Static dielectric constant tensor:
#      x y z
#    x 1.239870 0.000000 0.000000 
#    y 0.000000 1.730590 0.000000 
#    z 0.000000 0.000000 1.676640 
# 
# From -- ./inp_files/38552.got.cif
#   From: 2010.05.17/outbox.cif.g08.bks.cpg/sg67_20_cif.got.tgz:38552.got - 2010.06.03 18:28:57.
