data_PCOD9503156
_publ_section_title
;
Structure prediction by ZEFSAII (Michael W. Deem and Ramdas Pophale) SiO2 
 PCOD9503156
Probable space group: C M M A
;
_chemical_formula_sum "Si O2"
_cell_formula_units_Z 96
_cell_length_a 23.981648
_cell_length_b 18.473118
_cell_length_c 12.435753
_cell_angle_alpha 90.000000
_cell_angle_beta 90.000000
_cell_angle_gamma 90.000000
_cell_volume 5509.235230
_symmetry_space_group_name_H-M "C M M A"
_symmetry_group_IT_number 67
_symmetry_cell_setting 'orthorhombic'
loop_
_space_group_symop_operation_xyz
x,y,z
-x,1/2-y,z
x,-y,-z
-x,1/2+y,-z
-x,-y,-z
x,1/2+y,-z
-x,y,z
x,1/2-y,z
1/2+x,1/2+y,z
1/2-x,-y,z
1/2+x,1/2-y,-z
1/2-x,y,-z
1/2-x,1/2-y,-z
1/2+x,y,-z
1/2-x,1/2+y,z
1/2+x,-y,z
loop_
_atom_site_type_symbol
_atom_site_label
_atom_site_fract_x
_atom_site_fract_y
_atom_site_fract_z
Si Si1 0.934731 0.665169 0.871206
Si Si2 0.065573 0.929142 0.073187
Si Si3 0.868526 0.405044 0.319690
Si Si4 0.434657 0.164079 0.482453
Si Si5 0.746566 0.912461 0.624371
Si Si6 0.875066 0.575807 0.299976
O O1 0.923255 0.750000 0.859527
O O2 0.897842 0.619605 0.789367
O O3 0.000000 0.652489 0.844996
O O4 0.926759 0.638013 0.992628
O O5 0.103771 0.923091 0.177677
O O6 0.000000 0.933490 0.105075
O O7 0.077220 0.000000 0.000000
O O8 0.898197 0.365187 0.418651
O O9 0.802891 0.386975 0.318397
O O10 0.875206 0.491371 0.334721
O O11 0.500000 0.151075 0.504178
O O12 0.426487 0.250000 0.469766
O O13 0.415428 0.121657 0.376382
O O14 0.750000 0.888167 0.500000
O O15 0.687740 0.895109 0.679618
O O16 0.750000 0.000000 0.622988
#
# Coordination Sequence:
#
# PCOD9503156 Si02
#       6
#    16  16  16  16  16  16
#     4  10  21  37  59  86 118 154 187 233 298 350
#     4  10  20  36  58  86 116 149 196 242 282 341
#     4  11  20  36  61  84 113 150 193 240 282 343
#     4  11  24  37  52  83 122 152 185 236 297 355
#     4   9  18  35  57  84 113 147 188 235 284 337
#     4  11  21  37  62  85 112 152 196 239 285 337
#
# _framework density 17.425284999999999
#
# number of rings (size 3 to 8) (size 9 to 14) (size 15 to 20)
#    0.000    1.667    3.333    2.000    0.000    4.667 
#    0.000    5.000    0.000    1.000    0.000    0.000 
#    0.000    0.000    0.000    0.000    0.000    0.000 
#
# Total GULP energy -267920.747536 kJ/mol
# GULP energy per Si atom -5581.682240 kJ/mol
# Density = 1.738562 g / cm^3
# Si number density = 17.425285 Si / 1000 Ang^3
#
#
#
# Elastic Constant Matrix: (Units=GPa)
#
#
# Indices 1 2 3 4 5 6 
#
# 1 121.1884 49.7371 66.0452 0.0000 0.0000 0.0000
# 2 49.7371 55.2575 20.9471 0.0000 0.0000 0.0000
# 3 66.0452 20.9471 98.1569 0.0000 0.0000 0.0000
# 4 0.0000 0.0000 0.0000 16.2905 0.0000 0.0000
# 5 0.0000 0.0000 0.0000 0.0000 19.3065 0.0000
# 6 0.0000 0.0000 0.0000 0.0000 0.0000 10.8782
#
#
#
# Elastic Compliance Matrix: (Units=1/GPa)
#
#
# Indices 1 2 3 4 5 6 
#
# 1 0.019329 -0.013565 -0.010111 0.000000 0.000000 0.000000
# 2 -0.013565 0.029210 0.002894 0.000000 0.000000 0.000000
# 3 -0.010111 0.002894 0.016373 0.000000 0.000000 0.000000
# 4 0.000000 0.000000 0.000000 0.061385 0.000000 0.000000
# 5 0.000000 0.000000 0.000000 0.000000 0.051796 0.000000
# 6 0.000000 0.000000 0.000000 0.000000 0.000000 0.091927
#
#
# Mechanical properties :
#
#
# Convention : Reuss Voigt Hill
#
# Bulk Modulus (GPa) = 42.82991 60.89575 51.86283
# Shear Modulus (GPa) = 15.65593 18.48660 17.07126
#
# Velocity S-wave (km/s) = 3.00068 3.26069 3.13339
# Velocity P-wave (km/s) = 6.05293 7.01418 6.55121
#
# Compressibility (1/GPa) = 0.02334817
#
# Stress axis : x y z
#
# Youngs Moduli (GPa) = 51.73542 34.23470 61.07510
#
# Poissons Ratio (x) = 0.46440 0.61752
# Poissons Ratio (y) = 0.70180 -0.17674
# Poissons Ratio (z) = 0.52309 -0.09907
#
# Static dielectric constant tensor:
#      x y z
#    x 1.618240 0.000000 0.000000 
#    y 0.000000 1.593160 0.000000 
#    z 0.000000 0.000000 1.570980 
# 
# From -- ./inp_files/19607.got.cif
#   From: 2010.05.17/outbox.cif.g08.bks.cpg/sg67_10_cif.got.tgz:19607.got - 2010.06.03 18:28:57.
