data_PCOD9503614
_publ_section_title
;
Structure prediction by ZEFSAII (Michael W. Deem and Ramdas Pophale) SiO2 
 PCOD9503614
Probable space group: C M M A
;
_chemical_formula_sum "Si O2"
_cell_formula_units_Z 80
_cell_length_a 26.190587
_cell_length_b 9.800140
_cell_length_c 16.858320
_cell_angle_alpha 90.000000
_cell_angle_beta 90.000000
_cell_angle_gamma 90.000000
_cell_volume 4327.048921
_symmetry_space_group_name_H-M "C M M A"
_symmetry_group_IT_number 67
_symmetry_cell_setting 'orthorhombic'
loop_
_space_group_symop_operation_xyz
x,y,z
-x,1/2-y,z
x,-y,-z
-x,1/2+y,-z
-x,-y,-z
x,1/2+y,-z
-x,y,z
x,1/2-y,z
1/2+x,1/2+y,z
1/2-x,-y,z
1/2+x,1/2-y,-z
1/2-x,y,-z
1/2-x,1/2-y,-z
1/2+x,y,-z
1/2-x,1/2+y,z
1/2+x,-y,z
loop_
_atom_site_type_symbol
_atom_site_label
_atom_site_fract_x
_atom_site_fract_y
_atom_site_fract_z
Si Si1 0.704280 0.750000 0.893763
Si Si2 0.408662 0.087248 0.577202
Si Si3 0.824887 0.250000 0.071603
Si Si4 0.797924 0.405278 0.352211
Si Si5 0.441883 0.408603 0.275014
Si Si6 0.844833 0.007556 0.184339
O O1 0.764297 0.750000 0.910205
O O2 0.689379 0.883172 0.845263
O O3 0.673262 0.750000 0.976710
O O4 0.420204 0.250000 0.572204
O O5 0.347674 0.073805 0.593090
O O6 0.422646 0.000000 0.500000
O O7 0.434694 0.012485 0.651846
O O8 0.847760 0.381749 0.114823
O O9 0.780926 0.250000 0.359551
O O10 0.750000 0.500000 0.369572
O O11 0.818496 0.429765 0.262731
O O12 0.500000 0.417241 0.246080
O O13 0.432402 0.250000 0.299281
O O14 0.399758 0.451175 0.210879
#
# Coordination Sequence:
#
# PCOD9503614 Si02
#       6
#     8  16   8  16  16  16
#     4  11  22  36  57  87 120 163 189 229 285 343
#     4  10  22  39  58  86 119 150 189 239 290 343
#     4  11  22  36  57  87 126 153 193 231 285 347
#     4  10  21  34  54  81 114 157 199 235 280 339
#     4  10  22  41  64  86 110 150 198 242 292 342
#     4  11  21  37  57  85 117 155 196 243 284 338
#
# _framework density 18.488351999999999
#
# number of rings (size 3 to 8) (size 9 to 14) (size 15 to 20)
#    0.000    1.600    2.000    3.000    2.800    4.400 
#    0.000    2.000    0.000    3.600    0.000    0.000 
#    0.000    0.000    0.000    0.000    0.000    0.000 
#
# Total GULP energy -223434.208560 kJ/mol
# GULP energy per Si atom -5585.855214 kJ/mol
# Density = 1.844627 g / cm^3
# Si number density = 18.488352 Si / 1000 Ang^3
#
#
#
# Elastic Constant Matrix: (Units=GPa)
#
#
# Indices 1 2 3 4 5 6 
#
# 1 75.7788 35.6970 1.8082 0.0000 0.0000 0.0000
# 2 35.6970 111.2881 16.1548 0.0000 0.0000 0.0000
# 3 1.8082 16.1548 56.7350 0.0000 0.0000 0.0000
# 4 0.0000 0.0000 0.0000 26.2750 0.0000 0.0000
# 5 0.0000 0.0000 0.0000 0.0000 9.2034 0.0000
# 6 0.0000 0.0000 0.0000 0.0000 0.0000 -10.2545
#
#
#
# Elastic Compliance Matrix: (Units=1/GPa)
#
#
# Indices 1 2 3 4 5 6 
#
# 1 0.015596 -0.005143 0.000967 0.000000 0.000000 0.000000
# 2 -0.005143 0.011069 -0.002988 0.000000 0.000000 0.000000
# 3 0.000967 -0.002988 0.018446 0.000000 0.000000 0.000000
# 4 0.000000 0.000000 0.000000 0.038059 0.000000 0.000000
# 5 0.000000 0.000000 0.000000 0.000000 0.108655 0.000000
# 6 0.000000 0.000000 0.000000 0.000000 0.000000 -0.097518
#
#
# Mechanical properties :
#
#
# Convention : Reuss Voigt Hill
#
# Bulk Modulus (GPa) = 32.48476 39.01354 35.74915
# Shear Modulus (GPa) = 42.05389 17.72091 29.88740
#
# Velocity S-wave (km/s) = 4.77447 3.09931 4.02500
# Velocity P-wave (km/s) = 6.92839 5.82710 6.40147
#
# Compressibility (1/GPa) = 0.03078367
#
# Stress axis : x y z
#
# Youngs Moduli (GPa) = 64.11925 90.34151 54.21303
#
# Poissons Ratio (x) = 0.46463 -0.05244
# Poissons Ratio (y) = 0.32977 0.16198
# Poissons Ratio (z) = -0.06203 0.26993
#
# Static dielectric constant tensor:
#      x y z
#    x 1.623030 0.000000 0.000000 
#    y 0.000000 1.575630 0.000000 
#    z 0.000000 0.000000 1.623370 
# 
# From -- ./inp_files/35813.got.cif
#   From: 2010.05.17/outbox.cif.g08.bks.cpg/sg67_18_cif.got.tgz:35813.got - 2010.06.03 18:28:57.
