data_PCOD9503047
_publ_section_title
;
Structure prediction by ZEFSAII (Michael W. Deem and Ramdas Pophale) SiO2 
 PCOD9503047
Probable space group: C M M A
;
_chemical_formula_sum "Si O2"
_cell_formula_units_Z 96
_cell_length_a 15.558682
_cell_length_b 15.161394
_cell_length_c 21.506460
_cell_angle_alpha 90.000000
_cell_angle_beta 90.000000
_cell_angle_gamma 90.000000
_cell_volume 5073.186978
_symmetry_space_group_name_H-M "C M M A"
_symmetry_group_IT_number 67
_symmetry_cell_setting 'orthorhombic'
loop_
_space_group_symop_operation_xyz
x,y,z
-x,1/2-y,z
x,-y,-z
-x,1/2+y,-z
-x,-y,-z
x,1/2+y,-z
-x,y,z
x,1/2-y,z
1/2+x,1/2+y,z
1/2-x,-y,z
1/2+x,1/2-y,-z
1/2-x,y,-z
1/2-x,1/2-y,-z
1/2+x,y,-z
1/2-x,1/2+y,z
1/2+x,-y,z
loop_
_atom_site_type_symbol
_atom_site_label
_atom_site_fract_x
_atom_site_fract_y
_atom_site_fract_z
Si Si1 0.399946 0.351404 0.834798
Si Si2 0.648127 0.649412 0.500000
Si Si3 0.602153 0.000000 0.402253
Si Si4 0.250000 0.393956 0.071226
Si Si5 0.104310 0.000000 0.262137
Si Si6 0.399945 0.648596 0.834798
O O1 0.500000 0.372270 0.851072
O O2 0.396940 0.250000 0.814777
O O3 0.334791 0.363953 0.891718
O O4 0.371961 0.415329 0.778992
O O5 0.612208 0.750000 0.500000
O O6 0.750000 0.657422 0.500000
O O7 0.625310 0.587810 0.558974
O O8 0.625310 0.587810 0.441026
O O9 0.500000 1.000000 0.398213
O O10 0.638027 0.000000 0.332303
O O11 0.250000 0.500000 0.071534
O O12 0.334792 0.363953 0.108282
O O13 0.250000 0.363298 0.000000
O O14 0.128039 0.915330 0.221007
O O15 0.000000 0.000000 0.265736
O O16 0.500000 0.627731 0.851072
O O17 0.396940 0.750000 0.814776
#
# Coordination Sequence:
#
# PCOD9503047 Si02
#       6
#    16  16  16  16  16  16
#     4  10  21  39  61  84 116 155 192 239 294 344
#     4  10  21  38  55  79 118 154 187 229 278 337
#     4  10  20  35  60  86 109 146 189 237 287 327
#     4  11  23  39  61  88 117 153 196 240 289 347
#     4   9  19  37  58  84 116 146 186 236 285 342
#     4  10  21  39  61  84 116 155 192 239 294 344
#
# _framework density 18.923017000000002
#
# number of rings (size 3 to 8) (size 9 to 14) (size 15 to 20)
#    0.000    2.000    1.667    2.500    0.000    4.667 
#    6.000    6.667    0.000    0.000    0.000    0.000 
#    0.000    0.000    0.000    0.000    0.000    0.000 
#
# Total GULP energy -267780.240255 kJ/mol
# GULP energy per Si atom -5578.755005 kJ/mol
# Density = 1.887995 g / cm^3
# Si number density = 18.923017 Si / 1000 Ang^3
#
#
#
# Elastic Constant Matrix: (Units=GPa)
#
#
# Indices 1 2 3 4 5 6 
#
# 1 83.3690 37.8281 57.4641 0.0000 0.0000 0.0000
# 2 37.8281 156.4181 85.3314 0.0000 0.0000 0.0000
# 3 57.4641 85.3314 194.0034 0.0000 0.0000 0.0000
# 4 0.0000 0.0000 0.0000 -16.4232 0.0000 0.0000
# 5 0.0000 0.0000 0.0000 0.0000 36.7675 0.0000
# 6 0.0000 0.0000 0.0000 0.0000 0.0000 39.2404
#
#
#
# Elastic Compliance Matrix: (Units=1/GPa)
#
#
# Indices 1 2 3 4 5 6 
#
# 1 0.015379 -0.001624 -0.003841 0.000000 0.000000 0.000000
# 2 -0.001624 0.008583 -0.003294 0.000000 0.000000 0.000000
# 3 -0.003841 -0.003294 0.007741 0.000000 0.000000 0.000000
# 4 0.000000 0.000000 0.000000 -0.060889 0.000000 0.000000
# 5 0.000000 0.000000 0.000000 0.000000 0.027198 0.000000
# 6 0.000000 0.000000 0.000000 0.000000 0.000000 0.025484
#
#
# Mechanical properties :
#
#
# Convention : Reuss Voigt Hill
#
# Bulk Modulus (GPa) = 70.49639 88.33752 79.41696
# Shear Modulus (GPa) = 109.30735 28.79472 69.05104
#
# Velocity S-wave (km/s) = 7.60852 3.90510 6.04729
# Velocity P-wave (km/s) = 10.70147 8.19250 9.52991
#
# Compressibility (1/GPa) = 0.01418512
#
# Stress axis : x y z
#
# Youngs Moduli (GPa) = 65.02259 116.51063 129.17878
#
# Poissons Ratio (x) = 0.18920 0.49619
# Poissons Ratio (y) = 0.10559 0.42554
# Poissons Ratio (z) = 0.24976 0.38380
#
# Static dielectric constant tensor:
#      x y z
#    x 1.668640 0.000000 0.000000 
#    y 0.000000 1.676700 0.000000 
#    z 0.000000 0.000000 1.651010 
# 
# From -- ./inp_files/38432.got.cif
#   From: 2010.05.17/outbox.cif.g08.bks.cpg/sg67_20_cif.got.tgz:38432.got - 2010.06.03 18:28:57.
