data_PCOD9503494
_publ_section_title
;
Structure prediction by ZEFSAII (Michael W. Deem and Ramdas Pophale) SiO2 
 PCOD9503494
Probable space group: C M M A
;
_chemical_formula_sum "Si O2"
_cell_formula_units_Z 80
_cell_length_a 10.853323
_cell_length_b 24.755701
_cell_length_c 12.501073
_cell_angle_alpha 90.000000
_cell_angle_beta 90.000000
_cell_angle_gamma 90.000000
_cell_volume 3358.808533
_symmetry_space_group_name_H-M "C M M A"
_symmetry_group_IT_number 67
_symmetry_cell_setting 'orthorhombic'
loop_
_space_group_symop_operation_xyz
x,y,z
-x,1/2-y,z
x,-y,-z
-x,1/2+y,-z
-x,-y,-z
x,1/2+y,-z
-x,y,z
x,1/2-y,z
1/2+x,1/2+y,z
1/2-x,-y,z
1/2+x,1/2-y,-z
1/2-x,y,-z
1/2-x,1/2-y,-z
1/2+x,y,-z
1/2-x,1/2+y,z
1/2+x,-y,z
loop_
_atom_site_type_symbol
_atom_site_label
_atom_site_fract_x
_atom_site_fract_y
_atom_site_fract_z
Si Si1 0.361754 0.155301 0.420081
Si Si2 0.000000 0.312038 0.184225
Si Si3 0.634075 0.559112 0.942461
Si Si4 0.731614 0.310913 0.200062
Si Si5 0.000000 0.186163 0.929283
Si Si6 0.137534 0.037984 0.688257
O O1 0.500000 0.166026 0.462039
O O2 0.250000 0.164797 0.500000
O O3 0.334365 0.189233 0.313995
O O4 0.357842 0.093529 0.377351
O O5 0.132986 0.337489 0.213660
O O6 0.000000 0.250000 0.228167
O O7 0.000000 0.311372 0.056171
O O8 0.500000 0.583925 0.964549
O O9 0.649699 0.550376 0.815526
O O10 0.627471 0.500000 0.000000
O O11 0.750000 0.585332 0.000000
O O12 0.758403 0.250000 0.160853
O O13 0.628006 0.334756 0.122006
O O14 0.000000 0.250000 0.893971
O O15 0.000000 0.014037 0.673292
O O16 0.250000 0.000000 0.656660
#
# Coordination Sequence:
#
# PCOD9503494 Si02
#       6
#    16   8  16  16   8  16
#     4  11  26  45  64  87 121 159 211 272 317 360
#     4   9  18  32  59  97 130 165 205 245 296 372
#     4   9  15  27  53  84 114 149 182 224 287 349
#     4  10  20  38  64  92 129 168 206 253 308 369
#     4   9  16  32  61  91 126 171 205 241 304 370
#     4  10  21  39  63  88 120 155 195 249 305 369
#
# _framework density 23.817969999999999
#
# number of rings (size 3 to 8) (size 9 to 14) (size 15 to 20)
#    0.000    2.200    3.000    0.600    1.400    4.000 
#    0.000    4.000    0.000    0.000    0.000    0.000 
#    0.000    0.000    0.000    0.000    0.000    0.000 
#
# Total GULP energy -223584.072468 kJ/mol
# GULP energy per Si atom -5589.601812 kJ/mol
# Density = 2.376376 g / cm^3
# Si number density = 23.817970 Si / 1000 Ang^3
#
#
#
# Elastic Constant Matrix: (Units=GPa)
#
#
# Indices 1 2 3 4 5 6 
#
# 1 252.2885 29.0656 26.9312 0.0000 0.0000 0.0000
# 2 29.0656 47.6143 -8.5200 0.0000 0.0000 0.0000
# 3 26.9312 -8.5200 49.6788 0.0000 0.0000 0.0000
# 4 0.0000 0.0000 0.0000 17.0977 0.0000 0.0000
# 5 0.0000 0.0000 0.0000 0.0000 43.9392 0.0000
# 6 0.0000 0.0000 0.0000 0.0000 0.0000 35.1575
#
#
#
# Elastic Compliance Matrix: (Units=1/GPa)
#
#
# Indices 1 2 3 4 5 6 
#
# 1 0.004693 -0.003425 -0.003131 0.000000 0.000000 0.000000
# 2 -0.003425 0.024167 0.006001 0.000000 0.000000 0.000000
# 3 -0.003131 0.006001 0.022856 0.000000 0.000000 0.000000
# 4 0.000000 0.000000 0.000000 0.058488 0.000000 0.000000
# 5 0.000000 0.000000 0.000000 0.000000 0.022759 0.000000
# 6 0.000000 0.000000 0.000000 0.000000 0.000000 0.028443
#
#
# Mechanical properties :
#
#
# Convention : Reuss Voigt Hill
#
# Bulk Modulus (GPa) = 19.76072 49.39281 34.57677
# Shear Modulus (GPa) = 27.87335 39.37920 33.62627
#
# Velocity S-wave (km/s) = 3.42463 4.07054 3.76147
# Velocity P-wave (km/s) = 4.89408 6.54790 5.78044
#
# Compressibility (1/GPa) = 0.05060544
#
# Stress axis : x y z
#
# Youngs Moduli (GPa) = 213.10473 41.37950 43.75228
#
# Poissons Ratio (x) = 0.14172 0.13700
# Poissons Ratio (y) = 0.72984 -0.26257
# Poissons Ratio (z) = 0.66727 -0.24833
#
# Static dielectric constant tensor:
#      x y z
#    x 1.964190 0.000000 0.000000 
#    y 0.000000 2.912440 0.000000 
#    z 0.000000 0.000000 1.834940 
# 
# From -- ./inp_files/16803.got.cif
#   From: 2010.05.17/outbox.cif.g08.bks.cpg/sg67_9_cif.got.tgz:16803.got - 2010.06.03 18:28:57.
