data_PCOD9503613
_publ_section_title
;
Structure prediction by ZEFSAII (Michael W. Deem and Ramdas Pophale) SiO2 
 PCOD9503613
Probable space group: C M M A
;
_chemical_formula_sum "Si O2"
_cell_formula_units_Z 112
_cell_length_a 14.283042
_cell_length_b 31.868964
_cell_length_c 11.791146
_cell_angle_alpha 90.000000
_cell_angle_beta 90.000000
_cell_angle_gamma 90.000000
_cell_volume 5367.161651
_symmetry_space_group_name_H-M "C M M A"
_symmetry_group_IT_number 67
_symmetry_cell_setting 'orthorhombic'
loop_
_space_group_symop_operation_xyz
x,y,z
-x,1/2-y,z
x,-y,-z
-x,1/2+y,-z
-x,-y,-z
x,1/2+y,-z
-x,y,z
x,1/2-y,z
1/2+x,1/2+y,z
1/2-x,-y,z
1/2+x,1/2-y,-z
1/2-x,y,-z
1/2-x,1/2-y,-z
1/2+x,y,-z
1/2-x,1/2+y,z
1/2+x,-y,z
loop_
_atom_site_type_symbol
_atom_site_label
_atom_site_fract_x
_atom_site_fract_y
_atom_site_fract_z
Si Si1 0.113172 0.203598 0.676867
Si Si2 0.111286 0.396614 0.292464
Si Si3 0.894124 0.880284 0.951577
Si Si4 0.113029 0.038528 0.914497
Si Si5 0.277117 0.455891 0.320683
Si Si6 0.387629 0.118114 0.450176
Si Si7 0.151752 0.795457 0.064288
O O1 0.134416 0.250000 0.626923
O O2 0.138848 0.162025 0.608411
O O3 0.158894 0.201649 0.800654
O O4 0.000000 0.202165 0.692923
O O5 0.139446 0.372445 0.177055
O O6 0.176911 0.436780 0.286891
O O7 0.130523 0.377099 0.415594
O O8 0.000000 0.405404 0.293385
O O9 0.000000 0.894946 0.935274
O O10 0.853352 0.918332 0.024819
O O11 0.895079 0.837455 0.020101
O O12 0.163507 0.035790 0.793507
O O13 0.000000 0.039626 0.895719
O O14 0.132400 0.000000 0.000000
O O15 0.250000 0.500000 0.375845
O O16 0.332578 0.421522 0.396603
O O17 0.500000 0.111595 0.433965
O O18 0.106643 0.750000 0.039998
O O19 0.250000 0.795332 0.000000
#
# Coordination Sequence:
#
# PCOD9503613 Si02
#       7
#    16  16  16  16  16  16  16
#     4   9  18  36  64  92 117 151 199 255 312 370
#     4  10  24  42  58  83 124 165 205 253 303 361
#     4  10  21  37  59  85 116 160 197 234 300 364
#     4  10  22  41  64  94 126 154 197 256 315 372
#     4  12  25  39  62  91 119 159 211 253 308 371
#     4  10  22  42  65  91 121 158 208 264 314 361
#     4  10  21  34  53  87 124 153 189 238 296 361
#
# _framework density 20.867640999999999
#
# number of rings (size 3 to 8) (size 9 to 14) (size 15 to 20)
#    0.000    1.857    0.000    3.000    4.000    8.000 
#    0.000    2.143    0.000    4.714    0.000    0.000 
#    0.000    0.000    0.000    0.000    0.000    0.000 
#
# Total GULP energy -312374.535644 kJ/mol
# GULP energy per Si atom -5578.116708 kJ/mol
# Density = 2.082015 g / cm^3
# Si number density = 20.867641 Si / 1000 Ang^3
#
#
#
# Elastic Constant Matrix: (Units=GPa)
#
#
# Indices 1 2 3 4 5 6 
#
# 1 68.1395 31.4543 31.3444 0.0000 0.0000 0.0000
# 2 31.4543 169.5053 81.5519 0.0000 0.0000 0.0000
# 3 31.3444 81.5519 133.6506 0.0000 0.0000 0.0000
# 4 0.0000 0.0000 0.0000 12.2460 0.0000 0.0000
# 5 0.0000 0.0000 0.0000 0.0000 11.7139 0.0000
# 6 0.0000 0.0000 0.0000 0.0000 0.0000 25.6182
#
#
#
# Elastic Compliance Matrix: (Units=1/GPa)
#
#
# Indices 1 2 3 4 5 6 
#
# 1 0.016801 -0.001730 -0.002885 0.000000 0.000000 0.000000
# 2 -0.001730 0.008529 -0.004799 0.000000 0.000000 0.000000
# 3 -0.002885 -0.004799 0.011087 0.000000 0.000000 0.000000
# 4 0.000000 0.000000 0.000000 0.081659 0.000000 0.000000
# 5 0.000000 0.000000 0.000000 0.000000 0.085369 0.000000
# 6 0.000000 0.000000 0.000000 0.000000 0.000000 0.039035
#
#
# Mechanical properties :
#
#
# Convention : Reuss Voigt Hill
#
# Bulk Modulus (GPa) = 56.84821 73.33294 65.09057
# Shear Modulus (GPa) = 18.71464 25.04528 21.87996
#
# Velocity S-wave (km/s) = 2.99795 3.46814 3.24159
# Velocity P-wave (km/s) = 6.26778 7.15930 6.72832
#
# Compressibility (1/GPa) = 0.01759070
#
# Stress axis : x y z
#
# Youngs Moduli (GPa) = 59.51913 117.24314 90.19641
#
# Poissons Ratio (x) = 0.20281 0.26020
# Poissons Ratio (y) = 0.10296 0.43283
# Poissons Ratio (z) = 0.17170 0.56262
#
# Static dielectric constant tensor:
#      x y z
#    x 1.770240 0.000000 0.000000 
#    y 0.000000 1.754570 0.000000 
#    z 0.000000 0.000000 1.754880 
# 
# From -- ./inp_files/18583.got.cif
#   From: 2010.05.17/outbox.cif.g08.bks.cpg/sg67_10_cif.got.tgz:18583.got - 2010.06.03 18:28:57.
