data_PCOD9503708
_publ_section_title
;
Structure prediction by ZEFSAII (Michael W. Deem and Ramdas Pophale) SiO2 
 PCOD9503708
Probable space group: C M M A
;
_chemical_formula_sum "Si O2"
_cell_formula_units_Z 80
_cell_length_a 18.843152
_cell_length_b 8.485711
_cell_length_c 27.471086
_cell_angle_alpha 90.000000
_cell_angle_beta 90.000000
_cell_angle_gamma 90.000000
_cell_volume 4392.559133
_symmetry_space_group_name_H-M "C M M A"
_symmetry_group_IT_number 67
_symmetry_cell_setting 'orthorhombic'
loop_
_space_group_symop_operation_xyz
x,y,z
-x,1/2-y,z
x,-y,-z
-x,1/2+y,-z
-x,-y,-z
x,1/2+y,-z
-x,y,z
x,1/2-y,z
1/2+x,1/2+y,z
1/2-x,-y,z
1/2+x,1/2-y,-z
1/2-x,y,-z
1/2-x,1/2-y,-z
1/2+x,y,-z
1/2-x,1/2+y,z
1/2+x,-y,z
loop_
_atom_site_type_symbol
_atom_site_label
_atom_site_fract_x
_atom_site_fract_y
_atom_site_fract_z
Si Si1 0.418097 0.059171 0.144011
Si Si2 0.669229 0.440723 0.238321
Si Si3 0.829996 0.437577 0.052746
Si Si4 0.331539 0.061191 0.449645
Si Si5 0.331162 0.940237 0.655415
O O1 0.500000 0.010524 0.145019
O O2 0.415596 0.250000 0.142969
O O3 0.377340 0.005779 0.192759
O O4 0.378964 0.996266 0.096349
O O5 0.670685 0.250000 0.237669
O O6 0.750000 0.500000 0.233477
O O7 0.640008 0.490354 0.291735
O O8 0.828118 0.250000 0.051530
O O9 0.750000 0.500000 0.060505
O O10 0.854101 0.500000 0.000000
O O11 0.330221 0.250000 0.451726
O O12 0.362792 0.010559 0.397014
O O13 0.364558 0.000000 0.500000
O O14 0.250000 0.000000 0.449170
O O15 0.330836 0.750000 0.655080
O O16 0.250000 0.000000 0.655520
#
# Coordination Sequence:
#
# PCOD9503708 Si02
#       5
#    16  16  16  16  16
#     4  10  21  36  53  75 104 135 166 202 245 291
#     4   9  17  30  48  68  91 122 159 198 239 284
#     4  11  22  38  60  83 107 134 166 202 239 283
#     4   9  14  19  28  44  70 103 137 174 218 271
#     4   8  14  23  35  53  77 107 144 184 226 273
#
# _framework density 18.212617999999999
#
# number of rings (size 3 to 8) (size 9 to 14) (size 15 to 20)
#    0.000    2.600    0.000    4.200    0.000    4.000 
#    0.000    0.000    0.000    0.000    0.000    0.000 
#    0.000    0.800    0.000    0.600    0.000    8.000 
#
# Total GULP energy -222776.480014 kJ/mol
# GULP energy per Si atom -5569.412000 kJ/mol
# Density = 1.817117 g / cm^3
# Si number density = 18.212618 Si / 1000 Ang^3
#
#
#
# Elastic Constant Matrix: (Units=GPa)
#
#
# Indices 1 2 3 4 5 6 
#
# 1 49.2983 17.0179 83.0071 0.0000 0.0000 0.0000
# 2 17.0179 33.0518 39.3196 0.0000 0.0000 0.0000
# 3 83.0071 39.3196 249.6370 0.0000 0.0000 0.0000
# 4 0.0000 0.0000 0.0000 31.0120 0.0000 0.0000
# 5 0.0000 0.0000 0.0000 0.0000 -3.9289 0.0000
# 6 0.0000 0.0000 0.0000 0.0000 0.0000 11.5127
#
#
#
# Elastic Compliance Matrix: (Units=1/GPa)
#
#
# Indices 1 2 3 4 5 6 
#
# 1 0.047352 -0.006953 -0.014650 0.000000 0.000000 0.000000
# 2 -0.006953 0.038253 -0.003713 0.000000 0.000000 0.000000
# 3 -0.014650 -0.003713 0.009462 0.000000 0.000000 0.000000
# 4 0.000000 0.000000 0.000000 0.032246 0.000000 0.000000
# 5 0.000000 0.000000 0.000000 0.000000 -0.254525 0.000000
# 6 0.000000 0.000000 0.000000 0.000000 0.000000 0.086861
#
#
# Mechanical properties :
#
#
# Convention : Reuss Voigt Hill
#
# Bulk Modulus (GPa) = 22.50488 67.85292 45.17890
# Shear Modulus (GPa) = 199.27150 20.56199 109.91675
#
# Velocity S-wave (km/s) = 10.47146 3.36370 7.77708
# Velocity P-wave (km/s) = 12.59308 7.24036 10.27152
#
# Compressibility (1/GPa) = 0.04443481
#
# Stress axis : x y z
#
# Youngs Moduli (GPa) = 21.11841 26.14190 105.68651
#
# Poissons Ratio (x) = 0.18176 1.54830
# Poissons Ratio (y) = 0.14683 0.39243
# Poissons Ratio (z) = 0.30938 0.09707
#
# Static dielectric constant tensor:
#      x y z
#    x 1.474490 0.000000 0.000000 
#    y 0.000000 1.622790 0.000000 
#    z 0.000000 0.000000 1.702070 
# 
# From -- ./inp_files/43219.got.cif
#   From: 2010.05.17/outbox.cif.g08.bks.cpg/sg67_22_cif.got.tgz:43219.got - 2010.06.03 18:28:57.
