data_PCOD9503072
_publ_section_title
;
Structure prediction by ZEFSAII (Michael W. Deem and Ramdas Pophale) SiO2 
 PCOD9503072
Probable space group: C M M A
;
_chemical_formula_sum "Si O2"
_cell_formula_units_Z 80
_cell_length_a 27.144478
_cell_length_b 14.578647
_cell_length_c 9.305337
_cell_angle_alpha 90.000000
_cell_angle_beta 90.000000
_cell_angle_gamma 90.000000
_cell_volume 3682.398803
_symmetry_space_group_name_H-M "C M M A"
_symmetry_group_IT_number 67
_symmetry_cell_setting 'orthorhombic'
loop_
_space_group_symop_operation_xyz
x,y,z
-x,1/2-y,z
x,-y,-z
-x,1/2+y,-z
-x,-y,-z
x,1/2+y,-z
-x,y,z
x,1/2-y,z
1/2+x,1/2+y,z
1/2-x,-y,z
1/2+x,1/2-y,-z
1/2-x,y,-z
1/2-x,1/2-y,-z
1/2+x,y,-z
1/2-x,1/2+y,z
1/2+x,-y,z
loop_
_atom_site_type_symbol
_atom_site_label
_atom_site_fract_x
_atom_site_fract_y
_atom_site_fract_z
Si Si1 0.500000 0.638617 0.901180
Si Si2 0.707364 0.143795 0.598596
Si Si3 0.201153 0.637884 0.918965
Si Si4 0.407395 0.361448 0.903343
Si Si5 0.097974 0.600477 0.568007
Si Si6 0.000000 0.102268 0.568366
O O1 0.500000 0.750000 0.887817
O O2 0.500000 0.599956 0.740261
O O3 0.451952 0.612091 0.993184
O O4 0.721117 0.250000 0.621858
O O5 0.750000 0.103834 0.500000
O O6 0.705079 0.102053 0.756487
O O7 0.651803 0.142463 0.540084
O O8 0.201473 0.750000 0.920588
O O9 0.146039 0.613082 0.968654
O O10 0.250000 0.607968 0.000000
O O11 0.408640 0.250000 0.887793
O O12 0.411041 0.398643 0.740133
O O13 0.101891 0.500000 0.500000
O O14 0.050578 0.644852 0.491527
O O15 0.000000 0.000000 0.500000
#
# Coordination Sequence:
#
# PCOD9503072 Si02
#       6
#     8  16  16  16  16   8
#     4  10  21  36  60  89 109 137 188 242 286 336
#     4   9  18  32  52  79 110 144 182 231 289 338
#     4   8  14  26  46  72 102 134 167 209 268 332
#     4   9  18  34  55  81 112 142 179 235 292 333
#     4  10  20  36  55  78 110 154 197 228 276 343
#     4  10  23  40  54  79 115 151 188 230 287 344
#
# _framework density 21.724969000000002
#
# number of rings (size 3 to 8) (size 9 to 14) (size 15 to 20)
#    0.000    2.800    0.000    2.400    0.000    3.600 
#    0.000   12.000    0.000    0.000    0.000    1.400 
#    0.000    0.000    0.000    0.000    0.000    3.200 
#
# Total GULP energy -223095.267941 kJ/mol
# GULP energy per Si atom -5577.381699 kJ/mol
# Density = 2.167552 g / cm^3
# Si number density = 21.724969 Si / 1000 Ang^3
#
#
#
# Elastic Constant Matrix: (Units=GPa)
#
#
# Indices 1 2 3 4 5 6 
#
# 1 247.8637 2.8905 118.7364 0.0000 0.0000 0.0000
# 2 2.8905 69.0674 21.4414 0.0000 0.0000 0.0000
# 3 118.7364 21.4414 125.3460 0.0000 0.0000 0.0000
# 4 0.0000 0.0000 0.0000 15.7021 0.0000 0.0000
# 5 0.0000 0.0000 0.0000 0.0000 42.3663 0.0000
# 6 0.0000 0.0000 0.0000 0.0000 0.0000 3.8806
#
#
#
# Elastic Compliance Matrix: (Units=1/GPa)
#
#
# Indices 1 2 3 4 5 6 
#
# 1 0.007648 0.002037 -0.007593 0.000000 0.000000 0.000000
# 2 0.002037 0.015833 -0.004638 0.000000 0.000000 0.000000
# 3 -0.007593 -0.004638 0.015964 0.000000 0.000000 0.000000
# 4 0.000000 0.000000 0.000000 0.063686 0.000000 0.000000
# 5 0.000000 0.000000 0.000000 0.000000 0.023604 0.000000
# 6 0.000000 0.000000 0.000000 0.000000 0.000000 0.257691
#
#
# Mechanical properties :
#
#
# Convention : Reuss Voigt Hill
#
# Bulk Modulus (GPa) = 52.47409 80.93486 66.70447
# Shear Modulus (GPa) = 12.16049 32.33706 22.24877
#
# Velocity S-wave (km/s) = 2.36846 3.86226 3.20364
# Velocity P-wave (km/s) = 5.62901 7.56469 6.66747
#
# Compressibility (1/GPa) = 0.01905702
#
# Stress axis : x y z
#
# Youngs Moduli (GPa) = 130.74820 63.15824 62.63945
#
# Poissons Ratio (x) = -0.12867 0.47565
# Poissons Ratio (y) = -0.26637 0.29054
# Poissons Ratio (z) = 0.99283 0.29294
#
# Static dielectric constant tensor:
#      x y z
#    x 1.835890 0.000000 0.000000 
#    y 0.000000 1.881860 0.000000 
#    z 0.000000 0.000000 1.761880 
# 
# From -- ./inp_files/13555.got.cif
#   From: 2010.05.17/outbox.cif.g08.bks.cpg/sg67_7_cif.got.tgz:13555.got - 2010.06.03 18:28:57.
