data_PCOD9503757
_publ_section_title
;
Structure prediction by ZEFSAII (Michael W. Deem and Ramdas Pophale) SiO2 
 PCOD9503757
Probable space group: C M M A
;
_chemical_formula_sum "Si O2"
_cell_formula_units_Z 72
_cell_length_a 15.964204
_cell_length_b 8.912142
_cell_length_c 25.607683
_cell_angle_alpha 90.000000
_cell_angle_beta 90.000000
_cell_angle_gamma 90.000000
_cell_volume 3643.339577
_symmetry_space_group_name_H-M "C M M A"
_symmetry_group_IT_number 67
_symmetry_cell_setting 'orthorhombic'
loop_
_space_group_symop_operation_xyz
x,y,z
-x,1/2-y,z
x,-y,-z
-x,1/2+y,-z
-x,-y,-z
x,1/2+y,-z
-x,y,z
x,1/2-y,z
1/2+x,1/2+y,z
1/2-x,-y,z
1/2+x,1/2-y,-z
1/2-x,y,-z
1/2-x,1/2-y,-z
1/2+x,y,-z
1/2-x,1/2+y,z
1/2+x,-y,z
loop_
_atom_site_type_symbol
_atom_site_label
_atom_site_fract_x
_atom_site_fract_y
_atom_site_fract_z
Si Si1 0.337869 0.068920 0.624812
Si Si2 0.500000 0.431368 0.557335
Si Si3 0.899970 0.581935 0.155449
Si Si4 0.399118 0.927767 0.261268
Si Si5 0.842435 0.428330 0.051871
O O1 0.333240 0.250000 0.623896
O O2 0.416699 0.023835 0.589211
O O3 0.357096 0.023449 0.684679
O O4 0.250000 0.000000 0.607507
O O5 0.500000 0.250000 0.554335
O O6 0.500000 0.500000 0.500000
O O7 0.866490 0.750000 0.145832
O O8 0.868515 0.515204 0.210150
O O9 0.883197 0.477090 0.106103
O O10 0.000000 0.591402 0.160946
O O11 0.500000 0.947393 0.266809
O O12 0.384869 0.750000 0.253889
O O13 0.838888 0.250000 0.046429
O O14 0.750000 0.500000 0.054118
O O15 0.883705 0.500000 0.000000
#
# Coordination Sequence:
#
# PCOD9503757 Si02
#       5
#    16   8  16  16  16
#     4  10  21  38  61  89 121 158 202 249 299 358
#     4  10  22  42  64  88 122 164 203 246 299 352
#     4  10  21  36  55  83 116 148 187 236 285 341
#     4   9  17  34  58  80 109 152 194 236 291 352
#     4  11  22  38  58  78 105 143 187 236 291 351
#
# _framework density 19.762087999999999
#
# number of rings (size 3 to 8) (size 9 to 14) (size 15 to 20)
#    0.000    2.000    1.111    3.333    0.000    4.889 
#    0.000    4.444    0.000    0.000    0.000    0.000 
#    0.000    0.000    0.000    0.000    0.000    0.000 
#
# Total GULP energy -201040.185479 kJ/mol
# GULP energy per Si atom -5584.449597 kJ/mol
# Density = 1.971711 g / cm^3
# Si number density = 19.762088 Si / 1000 Ang^3
#
#
#
# Elastic Constant Matrix: (Units=GPa)
#
#
# Indices 1 2 3 4 5 6 
#
# 1 80.1992 34.9445 58.8179 0.0000 0.0000 0.0000
# 2 34.9445 97.6422 60.0435 0.0000 0.0000 0.0000
# 3 58.8179 60.0435 166.8358 0.0000 0.0000 0.0000
# 4 0.0000 0.0000 0.0000 43.7718 0.0000 0.0000
# 5 0.0000 0.0000 0.0000 0.0000 178.4881 0.0000
# 6 0.0000 0.0000 0.0000 0.0000 0.0000 26.1212
#
#
#
# Elastic Compliance Matrix: (Units=1/GPa)
#
#
# Indices 1 2 3 4 5 6 
#
# 1 0.017554 -0.003181 -0.005044 0.000000 0.000000 0.000000
# 2 -0.003181 0.013728 -0.003820 0.000000 0.000000 0.000000
# 3 -0.005044 -0.003820 0.009147 0.000000 0.000000 0.000000
# 4 0.000000 0.000000 0.000000 0.022846 0.000000 0.000000
# 5 0.000000 0.000000 0.000000 0.000000 0.005603 0.000000
# 6 0.000000 0.000000 0.000000 0.000000 0.000000 0.038283
#
#
# Mechanical properties :
#
#
# Convention : Reuss Voigt Hill
#
# Bulk Modulus (GPa) = 61.19508 72.47655 66.83582
# Shear Modulus (GPa) = 36.57749 62.40098 49.48923
#
# Velocity S-wave (km/s) = 4.30687 5.62536 5.00968
# Velocity P-wave (km/s) = 7.46761 8.88521 8.20708
#
# Compressibility (1/GPa) = 0.01634118
#
# Stress axis : x y z
#
# Youngs Moduli (GPa) = 56.96686 72.84121 109.32777
#
# Poissons Ratio (x) = 0.23168 0.55145
# Poissons Ratio (y) = 0.18119 0.41758
# Poissons Ratio (z) = 0.28734 0.27822
#
# Static dielectric constant tensor:
#      x y z
#    x 1.715140 0.000000 0.000000 
#    y 0.000000 1.682290 0.000000 
#    z 0.000000 0.000000 1.694540 
# 
# From -- ./inp_files/42116.got.cif
#   From: 2010.05.17/outbox.cif.g08.bks.cpg/sg67_22_cif.got.tgz:42116.got - 2010.06.03 18:28:57.
