data_PCOD9503378
_publ_section_title
;
Structure prediction by ZEFSAII (Michael W. Deem and Ramdas Pophale) SiO2 
 PCOD9503378
Probable space group: C M M A
;
_chemical_formula_sum "Si O2"
_cell_formula_units_Z 96
_cell_length_a 15.487573
_cell_length_b 19.039858
_cell_length_c 17.007370
_cell_angle_alpha 90.000000
_cell_angle_beta 90.000000
_cell_angle_gamma 90.000000
_cell_volume 5015.153516
_symmetry_space_group_name_H-M "C M M A"
_symmetry_group_IT_number 67
_symmetry_cell_setting 'orthorhombic'
loop_
_space_group_symop_operation_xyz
x,y,z
-x,1/2-y,z
x,-y,-z
-x,1/2+y,-z
-x,-y,-z
x,1/2+y,-z
-x,y,z
x,1/2-y,z
1/2+x,1/2+y,z
1/2-x,-y,z
1/2+x,1/2-y,-z
1/2-x,y,-z
1/2-x,1/2-y,-z
1/2+x,y,-z
1/2-x,1/2+y,z
1/2+x,-y,z
loop_
_atom_site_type_symbol
_atom_site_label
_atom_site_fract_x
_atom_site_fract_y
_atom_site_fract_z
Si Si1 0.850422 0.076423 0.982446
Si Si2 0.397614 0.171331 0.872738
Si Si3 0.743550 0.915871 0.408281
Si Si4 0.597493 0.832990 0.665455
Si Si5 0.401107 0.928553 0.807464
Si Si6 0.605421 0.074618 0.725372
O O1 0.857489 0.086779 0.889765
O O2 0.750000 0.073042 0.000000
O O3 0.885493 0.133281 0.043626
O O4 0.890480 0.000000 0.000000
O O5 0.500000 0.176725 0.860933
O O6 0.360124 0.250000 0.872553
O O7 0.368031 0.124416 0.798681
O O8 0.750000 0.894934 0.500000
O O9 0.826408 0.876851 0.373212
O O10 0.659190 0.903179 0.352515
O O11 0.750000 0.000000 0.406793
O O12 0.500000 0.850666 0.636066
O O13 0.609883 0.750000 0.657538
O O14 0.599907 0.859267 0.754966
O O15 0.500000 0.947009 0.826797
O O16 0.370640 0.995684 0.755825
O O17 0.500000 0.076918 0.713148
#
# Coordination Sequence:
#
# PCOD9503378 Si02
#       6
#    16  16  16  16  16  16
#     4  11  23  34  54  87 122 160 205 258 306 364
#     4  10  22  39  58  83 118 161 208 258 310 366
#     4  11  24  40  66 100 131 164 208 264 325 391
#     4  10  23  43  66  93 127 167 211 263 323 385
#     4  10  20  37  62  87 116 163 215 259 312 376
#     4  10  21  39  64  91 124 166 213 263 320 386
#
# _framework density 19.141985999999999
#
# number of rings (size 3 to 8) (size 9 to 14) (size 15 to 20)
#    0.000    1.667    3.333    0.500    2.333    3.333 
#    0.000    3.333    0.000    2.000    0.000    0.000 
#    0.000    0.000    0.000    0.000    0.000    0.000 
#
# Total GULP energy -267471.687995 kJ/mol
# GULP energy per Si atom -5572.326833 kJ/mol
# Density = 1.909842 g / cm^3
# Si number density = 19.141986 Si / 1000 Ang^3
#
#
#
# Elastic Constant Matrix: (Units=GPa)
#
#
# Indices 1 2 3 4 5 6 
#
# 1 86.3125 34.2813 68.3185 0.0000 0.0000 0.0000
# 2 34.2813 89.3746 34.5181 0.0000 0.0000 0.0000
# 3 68.3185 34.5181 146.8678 0.0000 0.0000 0.0000
# 4 0.0000 0.0000 0.0000 19.4784 0.0000 0.0000
# 5 0.0000 0.0000 0.0000 0.0000 13.4410 0.0000
# 6 0.0000 0.0000 0.0000 0.0000 0.0000 20.1449
#
#
#
# Elastic Compliance Matrix: (Units=1/GPa)
#
#
# Indices 1 2 3 4 5 6 
#
# 1 0.019823 -0.004446 -0.008176 0.000000 0.000000 0.000000
# 2 -0.004446 0.013303 -0.001059 0.000000 0.000000 0.000000
# 3 -0.008176 -0.001059 0.010861 0.000000 0.000000 0.000000
# 4 0.000000 0.000000 0.000000 0.051339 0.000000 0.000000
# 5 0.000000 0.000000 0.000000 0.000000 0.074399 0.000000
# 6 0.000000 0.000000 0.000000 0.000000 0.000000 0.049640
#
#
# Mechanical properties :
#
#
# Convention : Reuss Voigt Hill
#
# Bulk Modulus (GPa) = 60.14669 66.31008 63.22838
# Shear Modulus (GPa) = 19.82010 22.97532 21.39771
#
# Velocity S-wave (km/s) = 3.22129 3.46823 3.34704
# Velocity P-wave (km/s) = 6.73240 7.12422 6.93108
#
# Compressibility (1/GPa) = 0.01662602
#
# Stress axis : x y z
#
# Youngs Moduli (GPa) = 50.44561 75.17132 92.07241
#
# Poissons Ratio (x) = 0.33419 0.75281
# Poissons Ratio (y) = 0.22427 0.09746
# Poissons Ratio (z) = 0.41246 0.07957
#
# Static dielectric constant tensor:
#      x y z
#    x 1.698220 0.000000 0.000000 
#    y 0.000000 1.690660 0.000000 
#    z 0.000000 0.000000 2.064490 
# 
# From -- ./inp_files/27132.got.cif
#   From: 2010.05.17/outbox.cif.g08.bks.cpg/sg67_14_cif.got.tgz:27132.got - 2010.06.03 18:28:57.
