data_PCOD9503949
_publ_section_title
;
Structure prediction by ZEFSAII (Michael W. Deem and Ramdas Pophale) SiO2 
 PCOD9503949
Probable space group: C M M A
;
_chemical_formula_sum "Si O2"
_cell_formula_units_Z 104
_cell_length_a 26.742615
_cell_length_b 8.640892
_cell_length_c 22.824248
_cell_angle_alpha 90.000000
_cell_angle_beta 90.000000
_cell_angle_gamma 90.000000
_cell_volume 5274.228324
_symmetry_space_group_name_H-M "C M M A"
_symmetry_group_IT_number 67
_symmetry_cell_setting 'orthorhombic'
loop_
_space_group_symop_operation_xyz
x,y,z
-x,1/2-y,z
x,-y,-z
-x,1/2+y,-z
-x,-y,-z
x,1/2+y,-z
-x,y,z
x,1/2-y,z
1/2+x,1/2+y,z
1/2-x,-y,z
1/2+x,1/2-y,-z
1/2-x,y,-z
1/2-x,1/2-y,-z
1/2+x,y,-z
1/2-x,1/2+y,z
1/2+x,-y,z
loop_
_atom_site_type_symbol
_atom_site_label
_atom_site_fract_x
_atom_site_fract_y
_atom_site_fract_z
Si Si1 0.657880 0.934965 0.438366
Si Si2 0.904099 0.433730 0.736614
Si Si3 0.500000 0.065374 0.064973
Si Si4 0.304542 0.436438 0.934045
Si Si5 0.697479 0.564387 0.312357
Si Si6 0.905445 0.564303 0.865492
Si Si7 0.945097 0.937046 0.617170
O O1 0.656874 0.750000 0.442670
O O2 0.690214 0.974662 0.381260
O O3 0.601446 0.990153 0.422516
O O4 0.675295 0.000000 0.500000
O O5 0.909903 0.250000 0.738246
O O6 0.847691 0.482950 0.720711
O O7 0.914269 0.505604 0.799725
O O8 0.936335 0.501927 0.682951
O O9 0.500000 0.250000 0.065195
O O10 0.450114 0.004135 0.096176
O O11 0.500000 0.000000 0.000000
O O12 0.302070 0.250000 0.936399
O O13 0.250000 0.500000 0.915155
O O14 0.351032 0.481044 0.892167
O O15 0.313507 0.500000 0.000000
O O16 0.693671 0.750000 0.305983
O O17 0.750000 0.500000 0.291530
O O18 0.907537 0.750000 0.866597
O O19 0.942806 0.750000 0.619339
O O20 0.000000 0.983917 0.595910
#
# Coordination Sequence:
#
# PCOD9503949 Si02
#       7
#    16  16   8  16  16  16  16
#     4   9  19  34  53  80 113 148 190 237 288 349
#     4  11  23  38  58  86 117 149 191 242 291 347
#     4  12  26  44  66  94 126 164 207 254 307 366
#     4  10  21  37  61  88 117 153 193 237 290 347
#     4  10  21  39  60  83 114 153 195 239 295 355
#     4  11  24  42  63  89 122 163 204 248 302 359
#     4   9  19  37  58  78 108 151 191 234 290 348
#
# _framework density 19.718525
#
# number of rings (size 3 to 8) (size 9 to 14) (size 15 to 20)
#    0.000    1.846    0.000    5.308    1.077    8.308 
#    0.000    3.077    0.000    0.000    0.000    0.000 
#    0.000    0.000    0.000    0.000    0.000    0.000 
#
# Total GULP energy -290519.799669 kJ/mol
# GULP energy per Si atom -5586.919224 kJ/mol
# Density = 1.967364 g / cm^3
# Si number density = 19.718525 Si / 1000 Ang^3
#
#
#
# Elastic Constant Matrix: (Units=GPa)
#
#
# Indices 1 2 3 4 5 6 
#
# 1 60.6343 4.4183 -12.1258 0.0000 0.0000 0.0000
# 2 4.4183 40.2956 4.5008 0.0000 0.0000 0.0000
# 3 -12.1258 4.5008 71.3813 0.0000 0.0000 0.0000
# 4 0.0000 0.0000 0.0000 26.0843 0.0000 0.0000
# 5 0.0000 0.0000 0.0000 0.0000 -5.3935 0.0000
# 6 0.0000 0.0000 0.0000 0.0000 0.0000 20.0798
#
#
#
# Elastic Compliance Matrix: (Units=1/GPa)
#
#
# Indices 1 2 3 4 5 6 
#
# 1 0.017270 -0.002237 0.003075 0.000000 0.000000 0.000000
# 2 -0.002237 0.025282 -0.001974 0.000000 0.000000 0.000000
# 3 0.003075 -0.001974 0.014656 0.000000 0.000000 0.000000
# 4 0.000000 0.000000 0.000000 0.038337 0.000000 0.000000
# 5 0.000000 0.000000 0.000000 0.000000 -0.185407 0.000000
# 6 0.000000 0.000000 0.000000 0.000000 0.000000 0.049801
#
#
# Mechanical properties :
#
#
# Convention : Reuss Voigt Hill
#
# Bulk Modulus (GPa) = 18.20304 18.43309 18.31807
# Shear Modulus (GPa) = -256.73472 19.85531 -118.43970
#
# Velocity S-wave (km/s) = -11.42289 3.17667 -7.75858
# Velocity P-wave (km/s) = 12.83453 4.77738 8.42323
#
# Compressibility (1/GPa) = 0.05493587
#
# Stress axis : x y z
#
# Youngs Moduli (GPa) = 57.90313 39.55325 68.23113
#
# Poissons Ratio (x) = 0.08848 -0.20980
# Poissons Ratio (y) = 0.12953 0.13470
# Poissons Ratio (z) = -0.17804 0.07808
#
# Static dielectric constant tensor:
#      x y z
#    x 1.680740 0.000000 0.000000 
#    y 0.000000 1.645600 0.000000 
#    z 0.000000 0.000000 1.670400 
# 
# From -- ./inp_files/39943.got.cif
#   From: 2010.05.17/outbox.cif.g08.bks.cpg/sg67_20_cif.got.tgz:39943.got - 2010.06.03 18:28:57.
