data_PCOD9503457
_publ_section_title
;
Structure prediction by ZEFSAII (Michael W. Deem and Ramdas Pophale) SiO2 
 PCOD9503457
Probable space group: C M M A
;
_chemical_formula_sum "Si O2"
_cell_formula_units_Z 96
_cell_length_a 19.593059
_cell_length_b 17.618638
_cell_length_c 15.333090
_cell_angle_alpha 90.000000
_cell_angle_beta 90.000000
_cell_angle_gamma 90.000000
_cell_volume 5293.028879
_symmetry_space_group_name_H-M "C M M A"
_symmetry_group_IT_number 67
_symmetry_cell_setting 'orthorhombic'
loop_
_space_group_symop_operation_xyz
x,y,z
-x,1/2-y,z
x,-y,-z
-x,1/2+y,-z
-x,-y,-z
x,1/2+y,-z
-x,y,z
x,1/2-y,z
1/2+x,1/2+y,z
1/2-x,-y,z
1/2+x,1/2-y,-z
1/2-x,y,-z
1/2-x,1/2-y,-z
1/2+x,y,-z
1/2-x,1/2+y,z
1/2+x,-y,z
loop_
_atom_site_type_symbol
_atom_site_label
_atom_site_fract_x
_atom_site_fract_y
_atom_site_fract_z
Si Si1 0.680832 0.093263 0.740805
Si Si2 0.420814 0.158732 0.392595
Si Si3 0.422904 0.341148 0.879553
Si Si4 0.663143 0.586388 0.765717
Si Si5 0.581502 0.840552 0.921680
Si Si6 0.320980 0.841113 0.451235
O O1 0.628754 0.133306 0.805977
O O2 0.758692 0.114282 0.764702
O O3 0.671406 0.117345 0.640540
O O4 0.668578 0.003769 0.753081
O O5 0.500000 0.135712 0.392388
O O6 0.418083 0.250000 0.381496
O O7 0.378902 0.121417 0.314441
O O8 0.382596 0.141101 0.482982
O O9 0.500000 0.369357 0.862390
O O10 0.425531 0.250000 0.880638
O O11 0.403329 0.363474 0.978366
O O12 0.624742 0.611857 0.853100
O O13 0.500000 0.850602 0.907837
O O14 0.595205 0.750000 0.911193
O O15 0.319548 0.750000 0.436222
O O16 0.250000 0.861255 0.500000
#
# Coordination Sequence:
#
# PCOD9503457 Si02
#       6
#    16  16  16  16  16  16
#     4  11  24  38  55  84 121 156 190 233 290 350
#     4  10  21  38  61  88 113 142 192 251 294 339
#     4   9  20  39  61  85 113 150 197 245 291 342
#     4  11  23  37  54  85 120 155 190 231 291 349
#     4   9  19  38  63  87 113 149 195 246 294 340
#     4  10  20  38  62  83 109 151 196 238 288 348
#
# _framework density 18.137063000000001
#
# number of rings (size 3 to 8) (size 9 to 14) (size 15 to 20)
#    0.000    2.000    1.667    2.500    0.000    7.333 
#    0.000    7.500    0.000    0.000    0.000    0.000 
#    0.000    0.000    0.000    0.000    0.000    0.000 
#
# Total GULP energy -268012.666321 kJ/mol
# GULP energy per Si atom -5583.597215 kJ/mol
# Density = 1.809578 g / cm^3
# Si number density = 18.137063 Si / 1000 Ang^3
#
#
#
# Elastic Constant Matrix: (Units=GPa)
#
#
# Indices 1 2 3 4 5 6 
#
# 1 143.7622 48.0893 113.2074 0.0000 0.0000 0.0000
# 2 48.0893 28.7124 58.1298 0.0000 0.0000 0.0000
# 3 113.2074 58.1298 183.3520 0.0000 0.0000 0.0000
# 4 0.0000 0.0000 0.0000 -117.0323 0.0000 0.0000
# 5 0.0000 0.0000 0.0000 0.0000 34.6192 0.0000
# 6 0.0000 0.0000 0.0000 0.0000 0.0000 26.2366
#
#
#
# Elastic Compliance Matrix: (Units=1/GPa)
#
#
# Indices 1 2 3 4 5 6 
#
# 1 0.016837 -0.019972 -0.004063 0.000000 0.000000 0.000000
# 2 -0.019972 0.120940 -0.026011 0.000000 0.000000 0.000000
# 3 -0.004063 -0.026011 0.016209 0.000000 0.000000 0.000000
# 4 0.000000 0.000000 0.000000 -0.008545 0.000000 0.000000
# 5 0.000000 0.000000 0.000000 0.000000 0.028886 0.000000
# 6 0.000000 0.000000 0.000000 0.000000 0.000000 0.038115
#
#
# Mechanical properties :
#
#
# Convention : Reuss Voigt Hill
#
# Bulk Modulus (GPa) = 18.55557 88.29773 53.42665
# Shear Modulus (GPa) = 15.12860 -2.14197 6.49332
#
# Velocity S-wave (km/s) = 2.89126 -1.08791 1.89418
# Velocity P-wave (km/s) = 4.62588 6.87104 5.85705
#
# Compressibility (1/GPa) = 0.05389216
#
# Stress axis : x y z
#
# Youngs Moduli (GPa) = 59.39450 8.26857 61.69223
#
# Poissons Ratio (x) = 0.16514 0.25068
# Poissons Ratio (y) = 1.18624 1.60469
# Poissons Ratio (z) = 0.24135 0.21508
#
# Static dielectric constant tensor:
#      x y z
#    x 1.615110 0.000000 0.000000 
#    y 0.000000 1.618660 0.000000 
#    z 0.000000 0.000000 1.594900 
# 
# From -- ./inp_files/29319.got.cif
#   From: 2010.05.17/outbox.cif.g08.bks.cpg/sg67_15_cif.got.tgz:29319.got - 2010.06.03 18:28:57.
