data_PCOD9503012
_publ_section_title
;
Structure prediction by ZEFSAII (Michael W. Deem and Ramdas Pophale) SiO2 
 PCOD9503012
Probable space group: C M M A
;
_chemical_formula_sum "Si O2"
_cell_formula_units_Z 52
_cell_length_a 7.867756
_cell_length_b 14.930139
_cell_length_c 18.259133
_cell_angle_alpha 90.000000
_cell_angle_beta 90.000000
_cell_angle_gamma 90.000000
_cell_volume 2144.839929
_symmetry_space_group_name_H-M "C M M A"
_symmetry_group_IT_number 67
_symmetry_cell_setting 'orthorhombic'
loop_
_space_group_symop_operation_xyz
x,y,z
-x,1/2-y,z
x,-y,-z
-x,1/2+y,-z
-x,-y,-z
x,1/2+y,-z
-x,y,z
x,1/2-y,z
1/2+x,1/2+y,z
1/2-x,-y,z
1/2+x,1/2-y,-z
1/2-x,y,-z
1/2-x,1/2-y,-z
1/2+x,y,-z
1/2-x,1/2+y,z
1/2+x,-y,z
loop_
_atom_site_type_symbol
_atom_site_label
_atom_site_fract_x
_atom_site_fract_y
_atom_site_fract_z
Si Si1 0.300530 0.149501 0.102170
Si Si2 0.750000 0.500000 0.000000
Si Si3 0.701417 0.105398 0.578900
Si Si4 0.296042 0.105075 0.736748
O O1 0.500000 0.131762 0.084792
O O2 0.254633 0.250000 0.080349
O O3 0.280213 0.143942 0.189413
O O4 0.192167 0.074430 0.060194
O O5 0.500000 0.111160 0.582759
O O6 0.750000 0.144276 0.500000
O O7 0.766165 0.140518 0.657393
O O8 0.750000 0.000000 0.577133
O O9 0.500000 0.116152 0.740768
O O10 0.250000 0.000000 0.737630
#
# Coordination Sequence:
#
# PCOD9503012 Si02
#       4
#    16   4  16  16
#     4  11  25  43  65  95 129 164 205 254 310 373
#     4  12  24  44  72  96 124 164 200 252 314 382
#     4   9  16  26  45  78 116 157 203 252 302 355
#     4  10  20  35  58  87 123 165 209 257 309 366
#
# _framework density 24.244232
#
# number of rings (size 3 to 8) (size 9 to 14) (size 15 to 20)
#    0.000    1.846    1.538    3.692    0.000    5.538 
#    0.000    0.000    0.000    0.923    0.000    0.000 
#    0.000    0.000    0.000    0.000    0.000    0.000 
#
# Total GULP energy -144967.662469 kJ/mol
# GULP energy per Si atom -5575.679326 kJ/mol
# Density = 2.418905 g / cm^3
# Si number density = 24.244232 Si / 1000 Ang^3
#
#
#
# Elastic Constant Matrix: (Units=GPa)
#
#
# Indices 1 2 3 4 5 6 
#
# 1 63.9736 15.6702 25.4110 0.0000 0.0000 0.0000
# 2 15.6702 141.5936 62.8116 0.0000 0.0000 0.0000
# 3 25.4110 62.8116 268.9291 0.0000 0.0000 0.0000
# 4 0.0000 0.0000 0.0000 -77.0822 0.0000 0.0000
# 5 0.0000 0.0000 0.0000 0.0000 6.0185 0.0000
# 6 0.0000 0.0000 0.0000 0.0000 0.0000 -4.7225
#
#
#
# Elastic Compliance Matrix: (Units=1/GPa)
#
#
# Indices 1 2 3 4 5 6 
#
# 1 0.016440 -0.001261 -0.001259 0.000000 0.000000 0.000000
# 2 -0.001261 0.007975 -0.001744 0.000000 0.000000 0.000000
# 3 -0.001259 -0.001744 0.004245 0.000000 0.000000 0.000000
# 4 0.000000 0.000000 0.000000 -0.012973 0.000000 0.000000
# 5 0.000000 0.000000 0.000000 0.000000 0.166154 0.000000
# 6 0.000000 0.000000 0.000000 0.000000 0.000000 -0.211754
#
#
# Mechanical properties :
#
#
# Convention : Reuss Voigt Hill
#
# Bulk Modulus (GPa) = 49.66860 75.80910 62.73885
# Shear Modulus (GPa) = -340.74955 9.54968 -165.59993
#
# Velocity S-wave (km/s) = -11.86819 1.98683 -8.27364
# Velocity P-wave (km/s) = 12.93344 6.04980 8.08312
#
# Compressibility (1/GPa) = 0.02013345
#
# Stress axis : x y z
#
# Youngs Moduli (GPa) = 60.82585 125.38403 235.59066
#
# Poissons Ratio (x) = 0.15811 0.29659
# Poissons Ratio (y) = 0.07670 0.41078
# Poissons Ratio (z) = 0.07658 0.21862
#
# Static dielectric constant tensor:
#      x y z
#    x 1.959790 0.000000 0.000000 
#    y 0.000000 1.868470 0.000000 
#    z 0.000000 0.000000 1.989880 
# 
# From -- ./inp_files/36479.got.cif
#   From: 2010.05.17/outbox.cif.g08.bks.cpg/sg67_19_cif.got.tgz:36479.got - 2010.06.03 18:28:57.
