data_PCOD9503733
_publ_section_title
;
Structure prediction by ZEFSAII (Michael W. Deem and Ramdas Pophale) SiO2 
 PCOD9503733
Probable space group: C M M A
;
_chemical_formula_sum "Si O2"
_cell_formula_units_Z 84
_cell_length_a 10.623060
_cell_length_b 15.388646
_cell_length_c 26.633461
_cell_angle_alpha 90.000000
_cell_angle_beta 90.000000
_cell_angle_gamma 90.000000
_cell_volume 4353.891981
_symmetry_space_group_name_H-M "C M M A"
_symmetry_group_IT_number 67
_symmetry_cell_setting 'orthorhombic'
loop_
_space_group_symop_operation_xyz
x,y,z
-x,1/2-y,z
x,-y,-z
-x,1/2+y,-z
-x,-y,-z
x,1/2+y,-z
-x,y,z
x,1/2-y,z
1/2+x,1/2+y,z
1/2-x,-y,z
1/2+x,1/2-y,-z
1/2-x,y,-z
1/2-x,1/2-y,-z
1/2+x,y,-z
1/2-x,1/2+y,z
1/2+x,-y,z
loop_
_atom_site_type_symbol
_atom_site_label
_atom_site_fract_x
_atom_site_fract_y
_atom_site_fract_z
Si Si1 0.747833 0.645016 0.853239
Si Si2 0.363172 0.647144 0.467305
Si Si3 0.500000 0.604748 0.083436
Si Si4 0.645802 0.927958 0.359917
Si Si5 0.500000 0.250000 0.005432
Si Si6 0.500000 0.593460 0.911886
Si Si7 0.643682 0.354546 0.750023
O O1 0.734794 0.750000 0.854980
O O2 0.625615 0.603969 0.878544
O O3 0.767182 0.617103 0.795457
O O4 0.874515 0.621399 0.883630
O O5 0.500000 0.609724 0.480784
O O6 0.367805 0.750000 0.477394
O O7 0.250000 0.609579 0.500000
O O8 0.345543 0.634883 0.407830
O O9 0.500000 0.504192 0.066324
O O10 0.500000 0.673788 0.038514
O O11 0.500000 0.959196 0.358366
O O12 0.673365 0.886034 0.305802
O O13 0.750000 0.000000 0.368627
O O14 0.500000 0.327514 0.048629
O O15 0.500000 0.381795 0.761784
O O16 0.645191 0.250000 0.749711
#
# Coordination Sequence:
#
# PCOD9503733 Si02
#       7
#    16  16   8  16   4   8  16
#     4  11  21  44  67  95 128 167 207 262 317 379
#     4   9  18  34  57  81 109 150 202 252 298 354
#     4  12  25  43  73  94 125 173 219 250 308 386
#     4  10  21  36  54  83 120 155 195 248 300 356
#     4  12  26  50  68  96 136 170 214 266 306 372
#     4  12  27  43  67 100 133 165 205 268 324 364
#     4   9  18  36  66  89 112 156 205 246 297 363
#
# _framework density 19.293082999999999
#
# number of rings (size 3 to 8) (size 9 to 14) (size 15 to 20)
#    0.000    1.714    2.857    1.429    0.000    6.476 
#    1.714    3.810    0.000    1.143    0.000    0.000 
#    0.000    0.000    0.000    0.000    0.000    0.000 
#
# Total GULP energy -233816.005106 kJ/mol
# GULP energy per Si atom -5567.047741 kJ/mol
# Density = 1.924917 g / cm^3
# Si number density = 19.293083 Si / 1000 Ang^3
#
#
#
# Elastic Constant Matrix: (Units=GPa)
#
#
# Indices 1 2 3 4 5 6 
#
# 1 122.8329 24.5570 76.4120 0.0000 0.0000 0.0000
# 2 24.5570 86.6372 23.0718 0.0000 0.0000 0.0000
# 3 76.4120 23.0718 123.7101 0.0000 0.0000 0.0000
# 4 0.0000 0.0000 0.0000 -36.1545 0.0000 0.0000
# 5 0.0000 0.0000 0.0000 0.0000 -143.5496 0.0000
# 6 0.0000 0.0000 0.0000 0.0000 0.0000 5.7541
#
#
#
# Elastic Compliance Matrix: (Units=1/GPa)
#
#
# Indices 1 2 3 4 5 6 
#
# 1 0.013451 -0.001684 -0.007994 0.000000 0.000000 0.000000
# 2 -0.001684 0.012356 -0.001264 0.000000 0.000000 0.000000
# 3 -0.007994 -0.001264 0.013257 0.000000 0.000000 0.000000
# 4 0.000000 0.000000 0.000000 -0.027659 0.000000 0.000000
# 5 0.000000 0.000000 0.000000 0.000000 -0.006966 0.000000
# 6 0.000000 0.000000 0.000000 0.000000 0.000000 0.173788
#
#
# Mechanical properties :
#
#
# Convention : Reuss Voigt Hill
#
# Bulk Modulus (GPa) = 58.20898 64.58465 61.39681
# Shear Modulus (GPa) = 24.29093 -20.84737 1.72178
#
# Velocity S-wave (km/s) = 3.55216 -3.29076 0.94571
# Velocity P-wave (km/s) = 6.86004 4.37144 5.75194
#
# Compressibility (1/GPa) = 0.01717948
#
# Stress axis : x y z
#
# Youngs Moduli (GPa) = 74.34543 80.92998 75.43210
#
# Poissons Ratio (x) = 0.13626 0.60301
# Poissons Ratio (y) = 0.12518 0.09538
# Poissons Ratio (z) = 0.59432 0.10233
#
# Static dielectric constant tensor:
#      x y z
#    x 1.684250 0.000000 0.000000 
#    y 0.000000 1.668190 0.000000 
#    z 0.000000 0.000000 1.670230 
# 
# From -- ./inp_files/41433.got.cif
#   From: 2010.05.17/outbox.cif.g08.bks.cpg/sg67_21_cif.got.tgz:41433.got - 2010.06.03 18:28:57.
