data_PCOD9503896
_publ_section_title
;
Structure prediction by ZEFSAII (Michael W. Deem and Ramdas Pophale) SiO2 
 PCOD9503896
Probable space group: C M M A
;
_chemical_formula_sum "Si O2"
_cell_formula_units_Z 80
_cell_length_a 18.358512
_cell_length_b 10.135032
_cell_length_c 24.833248
_cell_angle_alpha 90.000000
_cell_angle_beta 90.000000
_cell_angle_gamma 90.000000
_cell_volume 4620.576103
_symmetry_space_group_name_H-M "C M M A"
_symmetry_group_IT_number 67
_symmetry_cell_setting 'orthorhombic'
loop_
_space_group_symop_operation_xyz
x,y,z
-x,1/2-y,z
x,-y,-z
-x,1/2+y,-z
-x,-y,-z
x,1/2+y,-z
-x,y,z
x,1/2-y,z
1/2+x,1/2+y,z
1/2-x,-y,z
1/2+x,1/2-y,-z
1/2-x,y,-z
1/2-x,1/2-y,-z
1/2+x,y,-z
1/2-x,1/2+y,z
1/2+x,-y,z
loop_
_atom_site_type_symbol
_atom_site_label
_atom_site_fract_x
_atom_site_fract_y
_atom_site_fract_z
Si Si1 0.837136 0.480735 0.612489
Si Si2 0.582531 0.909926 0.834034
Si Si3 0.089009 0.902539 0.047375
Si Si4 0.086584 0.250000 0.546838
Si Si5 0.818879 0.094797 0.732752
Si Si6 0.414453 0.750000 0.417568
O O1 0.750000 0.500000 0.604631
O O2 0.872854 0.377140 0.571381
O O3 0.850064 0.427135 0.672904
O O4 0.875465 0.620699 0.604961
O O5 0.500000 0.959439 0.828842
O O6 0.579442 0.750000 0.836176
O O7 0.612506 0.948520 0.892867
O O8 0.628024 0.943327 0.781458
O O9 0.110934 0.750000 0.038411
O O10 0.000000 0.903027 0.048683
O O11 0.112507 0.000000 0.000000
O O12 0.092354 0.250000 0.482395
O O13 0.000000 0.250000 0.560558
O O14 0.800333 0.250000 0.738145
O O15 0.750000 0.000000 0.736310
O O16 0.500000 0.750000 0.404358
#
# Coordination Sequence:
#
# PCOD9503896 Si02
#       6
#    16  16  16   8  16   8
#     4  11  23  39  61  85 111 148 191 229 271 330
#     4   8  15  29  50  77 103 134 179 221 260 316
#     4   8  13  23  42  68 100 133 167 212 262 310
#     4  11  23  41  61  87 115 147 184 223 276 337
#     4  10  21  37  58  79 106 141 180 225 269 320
#     4  11  25  41  59  85 121 147 174 229 288 327
#
# _framework density 17.313858
#
# number of rings (size 3 to 8) (size 9 to 14) (size 15 to 20)
#    0.000    2.400    1.000    3.000    4.200    5.600 
#    0.000    1.000    0.000    1.800    0.000    4.200 
#    0.000    0.000    0.000    0.000    0.000    0.000 
#
# Total GULP energy -222980.262978 kJ/mol
# GULP energy per Si atom -5574.506574 kJ/mol
# Density = 1.727445 g / cm^3
# Si number density = 17.313858 Si / 1000 Ang^3
#
#
#
# Elastic Constant Matrix: (Units=GPa)
#
#
# Indices 1 2 3 4 5 6 
#
# 1 67.1187 40.3196 49.3260 0.0000 0.0000 0.0000
# 2 40.3196 101.3294 35.6388 0.0000 0.0000 0.0000
# 3 49.3260 35.6388 97.7377 0.0000 0.0000 0.0000
# 4 0.0000 0.0000 0.0000 29.7543 0.0000 0.0000
# 5 0.0000 0.0000 0.0000 0.0000 -0.8194 0.0000
# 6 0.0000 0.0000 0.0000 0.0000 0.0000 18.8237
#
#
#
# Elastic Compliance Matrix: (Units=1/GPa)
#
#
# Indices 1 2 3 4 5 6 
#
# 1 0.027339 -0.006912 -0.011277 0.000000 0.000000 0.000000
# 2 -0.006912 0.013068 -0.001277 0.000000 0.000000 0.000000
# 3 -0.011277 -0.001277 0.016388 0.000000 0.000000 0.000000
# 4 0.000000 0.000000 0.000000 0.033609 0.000000 0.000000
# 5 0.000000 0.000000 0.000000 0.000000 -1.220363 0.000000
# 6 0.000000 0.000000 0.000000 0.000000 0.000000 0.053125
#
#
# Mechanical properties :
#
#
# Convention : Reuss Voigt Hill
#
# Bulk Modulus (GPa) = 55.97934 57.41718 56.69826
# Shear Modulus (GPa) = -4.84520 18.94513 7.04997
#
# Velocity S-wave (km/s) = -1.67467 3.31149 2.02007
# Velocity P-wave (km/s) = 5.35378 6.91779 6.18541
#
# Compressibility (1/GPa) = 0.01786373
#
# Stress axis : x y z
#
# Youngs Moduli (GPa) = 36.57843 76.52156 61.01966
#
# Poissons Ratio (x) = 0.52892 0.68810
# Poissons Ratio (y) = 0.25283 0.07791
# Poissons Ratio (z) = 0.41249 0.09770
#
# Static dielectric constant tensor:
#      x y z
#    x 1.583010 0.000000 0.000000 
#    y 0.000000 1.572940 0.000000 
#    z 0.000000 0.000000 1.608150 
# 
# From -- ./inp_files/40600.got.cif
#   From: 2010.05.17/outbox.cif.g08.bks.cpg/sg67_21_cif.got.tgz:40600.got - 2010.06.03 18:28:57.
