data_PCOD9503458
_publ_section_title
;
Structure prediction by ZEFSAII (Michael W. Deem and Ramdas Pophale) SiO2 
 PCOD9503458
Probable space group: C M M A
;
_chemical_formula_sum "Si O2"
_cell_formula_units_Z 104
_cell_length_a 9.629321
_cell_length_b 26.607067
_cell_length_c 21.973930
_cell_angle_alpha 90.000000
_cell_angle_beta 90.000000
_cell_angle_gamma 90.000000
_cell_volume 5629.896416
_symmetry_space_group_name_H-M "C M M A"
_symmetry_group_IT_number 67
_symmetry_cell_setting 'orthorhombic'
loop_
_space_group_symop_operation_xyz
x,y,z
-x,1/2-y,z
x,-y,-z
-x,1/2+y,-z
-x,-y,-z
x,1/2+y,-z
-x,y,z
x,1/2-y,z
1/2+x,1/2+y,z
1/2-x,-y,z
1/2+x,1/2-y,-z
1/2-x,y,-z
1/2-x,1/2-y,-z
1/2+x,y,-z
1/2-x,1/2+y,z
1/2+x,-y,z
loop_
_atom_site_type_symbol
_atom_site_label
_atom_site_fract_x
_atom_site_fract_y
_atom_site_fract_z
Si Si1 0.660549 0.545709 0.832178
Si Si2 0.000000 0.690270 0.330218
Si Si3 0.836614 0.805844 0.854278
Si Si4 0.500000 0.605825 0.583580
Si Si5 0.000000 0.051542 0.461860
Si Si6 0.237036 0.131763 0.741567
Si Si7 0.670737 0.398698 0.936299
Si Si8 0.227907 0.056911 0.358427
O O1 0.500000 0.533166 0.847440
O O2 0.750000 0.500000 0.805651
O O3 0.659096 0.590991 0.783797
O O4 0.754661 0.563191 0.889452
O O5 0.132397 0.667667 0.294736
O O6 0.000000 0.750000 0.331698
O O7 0.000000 0.663695 0.396171
O O8 0.772429 0.750000 0.855480
O O9 0.816153 0.833477 0.789742
O O10 0.792484 0.844119 0.907292
O O11 0.000000 0.800674 0.862987
O O12 0.500000 0.595087 0.512179
O O13 0.629662 0.578890 0.615356
O O14 0.128667 0.053781 0.416445
O O15 0.000000 0.000000 0.500000
O O16 0.318403 0.096582 0.693308
O O17 0.500000 0.404189 0.939081
O O18 0.750000 0.404190 0.000000
O O19 0.250000 0.000000 0.335679
#
# Coordination Sequence:
#
# PCOD9503458 Si02
#       8
#    16   8  16   8   8  16  16  16
#     4  11  22  39  60  85 124 164 197 246 298 362
#     4  10  20  38  62  84 112 152 198 249 300 352
#     4   9  19  36  58  82 115 154 193 250 314 363
#     4  10  22  36  56  82 118 150 197 242 297 357
#     4  12  22  36  58  82 120 159 201 242 300 363
#     4  10  21  36  57  86 118 149 201 243 300 363
#     4  10  21  38  60  88 120 158 207 255 299 358
#     4  11  21  35  55  85 116 157 192 243 295 357
#
# _framework density 18.472808000000001
#
# number of rings (size 3 to 8) (size 9 to 14) (size 15 to 20)
#    0.000    1.692    2.308    2.308    1.077    1.231 
#    2.769    1.538    0.000    8.308    0.000    0.000 
#    0.000    0.000    0.000    0.000    0.000    0.000 
#
# Total GULP energy -289837.591337 kJ/mol
# GULP energy per Si atom -5573.799833 kJ/mol
# Density = 1.843076 g / cm^3
# Si number density = 18.472808 Si / 1000 Ang^3
#
#
#
# Elastic Constant Matrix: (Units=GPa)
#
#
# Indices 1 2 3 4 5 6 
#
# 1 90.9040 33.7079 28.7365 0.0000 0.0000 0.0000
# 2 33.7079 126.0225 39.2626 0.0000 0.0000 0.0000
# 3 28.7365 39.2626 112.7605 0.0000 0.0000 0.0000
# 4 0.0000 0.0000 0.0000 17.7437 0.0000 0.0000
# 5 0.0000 0.0000 0.0000 0.0000 40.0970 0.0000
# 6 0.0000 0.0000 0.0000 0.0000 0.0000 23.2412
#
#
#
# Elastic Compliance Matrix: (Units=1/GPa)
#
#
# Indices 1 2 3 4 5 6 
#
# 1 0.012726 -0.002685 -0.002308 0.000000 0.000000 0.000000
# 2 -0.002685 0.009467 -0.002612 0.000000 0.000000 0.000000
# 3 -0.002308 -0.002612 0.010366 0.000000 0.000000 0.000000
# 4 0.000000 0.000000 0.000000 0.056358 0.000000 0.000000
# 5 0.000000 0.000000 0.000000 0.000000 0.024940 0.000000
# 6 0.000000 0.000000 0.000000 0.000000 0.000000 0.043027
#
#
# Mechanical properties :
#
#
# Convention : Reuss Voigt Hill
#
# Bulk Modulus (GPa) = 57.64147 59.23345 58.43746
# Shear Modulus (GPa) = 28.10932 31.41504 29.76218
#
# Velocity S-wave (km/s) = 3.90508 4.12832 4.01825
# Velocity P-wave (km/s) = 7.18359 7.40668 7.29599
#
# Compressibility (1/GPa) = 0.01734862
#
# Stress axis : x y z
#
# Youngs Moduli (GPa) = 78.58038 105.63002 96.46768
#
# Poissons Ratio (x) = 0.28358 0.22268
# Poissons Ratio (y) = 0.21096 0.25199
# Poissons Ratio (z) = 0.18139 0.27592
#
# Static dielectric constant tensor:
#      x y z
#    x 1.632290 0.000000 0.000000 
#    y 0.000000 1.709680 0.000000 
#    z 0.000000 0.000000 1.635460 
# 
# From -- ./inp_files/37368.got.cif
#   From: 2010.05.17/outbox.cif.g08.bks.cpg/sg67_19_cif.got.tgz:37368.got - 2010.06.03 18:28:57.
