data_PCOD9503271
_publ_section_title
;
Structure prediction by ZEFSAII (Michael W. Deem and Ramdas Pophale) SiO2 
 PCOD9503271
Probable space group: C M M A
;
_chemical_formula_sum "Si O2"
_cell_formula_units_Z 100
_cell_length_a 19.527583
_cell_length_b 9.255317
_cell_length_c 28.897905
_cell_angle_alpha 90.000000
_cell_angle_beta 90.000000
_cell_angle_gamma 90.000000
_cell_volume 5222.833122
_symmetry_space_group_name_H-M "C M M A"
_symmetry_group_IT_number 67
_symmetry_cell_setting 'orthorhombic'
loop_
_space_group_symop_operation_xyz
x,y,z
-x,1/2-y,z
x,-y,-z
-x,1/2+y,-z
-x,-y,-z
x,1/2+y,-z
-x,y,z
x,1/2-y,z
1/2+x,1/2+y,z
1/2-x,-y,z
1/2+x,1/2-y,-z
1/2-x,y,-z
1/2-x,1/2-y,-z
1/2+x,y,-z
1/2-x,1/2+y,z
1/2+x,-y,z
loop_
_atom_site_type_symbol
_atom_site_label
_atom_site_fract_x
_atom_site_fract_y
_atom_site_fract_z
Si Si1 0.881167 0.492745 0.600333
Si Si2 0.081582 0.410849 0.301414
Si Si3 0.324172 0.075666 0.865178
Si Si4 0.642116 0.250000 0.535400
Si Si5 0.000000 0.250000 0.600302
Si Si6 0.918813 0.421500 0.789901
Si Si7 0.578458 0.922661 0.048552
Si Si8 0.799866 0.750000 0.436124
O O1 0.880721 0.568072 0.650149
O O2 0.889776 0.609188 0.559367
O O3 0.814913 0.395628 0.591209
O O4 0.941203 0.376281 0.601124
O O5 0.095082 0.250000 0.282615
O O6 0.097027 0.529041 0.262555
O O7 0.000000 0.420216 0.311079
O O8 0.317786 0.250000 0.861196
O O9 0.366508 0.041975 0.912135
O O10 0.250000 0.000000 0.865400
O O11 0.370704 0.010936 0.824144
O O12 0.721972 0.250000 0.548712
O O13 0.647252 0.250000 0.480041
O O14 0.908879 0.250000 0.795592
O O15 0.000000 0.453314 0.797795
O O16 0.500000 0.961247 0.062738
O O17 0.580008 0.750000 0.041735
O O18 0.592701 0.000000 0.000000
#
# Coordination Sequence:
#
# PCOD9503271 Si02
#       8
#    16  16  16   8   4  16  16   8
#     4  11  21  38  63  88 122 154 192 246 301 357
#     4  10  20  36  62  89 119 154 194 236 295 367
#     4  11  23  40  60  85 127 169 210 261 316 371
#     4  11  22  43  63  85 114 160 210 241 287 357
#     4  10  24  36  58  94 124 154 182 242 314 358
#     4  10  22  38  64  94 119 157 204 252 305 367
#     4   9  19  36  60  89 120 161 210 264 313 367
#     4  10  24  40  63  87 115 156 205 251 286 340
#
# _framework density 19.146695999999999
#
# number of rings (size 3 to 8) (size 9 to 14) (size 15 to 20)
#    0.000    1.760    1.600    2.400    2.240    4.800 
#    0.000   11.200    0.000    0.000    0.000    0.000 
#    0.000    0.000    0.000    0.000    0.000    0.000 
#
# Total GULP energy -278570.460749 kJ/mol
# GULP energy per Si atom -5571.409215 kJ/mol
# Density = 1.910312 g / cm^3
# Si number density = 19.146696 Si / 1000 Ang^3
#
#
#
# Elastic Constant Matrix: (Units=GPa)
#
#
# Indices 1 2 3 4 5 6 
#
# 1 70.8289 41.1634 45.6694 0.0000 0.0000 0.0000
# 2 41.1634 101.6376 35.2597 0.0000 0.0000 0.0000
# 3 45.6694 35.2597 98.9871 0.0000 0.0000 0.0000
# 4 0.0000 0.0000 0.0000 39.8438 0.0000 0.0000
# 5 0.0000 0.0000 0.0000 0.0000 14.7440 0.0000
# 6 0.0000 0.0000 0.0000 0.0000 0.0000 34.3496
#
#
#
# Elastic Compliance Matrix: (Units=1/GPa)
#
#
# Indices 1 2 3 4 5 6 
#
# 1 0.023364 -0.006530 -0.008453 0.000000 0.000000 0.000000
# 2 -0.006530 0.013051 -0.001636 0.000000 0.000000 0.000000
# 3 -0.008453 -0.001636 0.014585 0.000000 0.000000 0.000000
# 4 0.000000 0.000000 0.000000 0.025098 0.000000 0.000000
# 5 0.000000 0.000000 0.000000 0.000000 0.067824 0.000000
# 6 0.000000 0.000000 0.000000 0.000000 0.000000 0.029112
#
#
# Mechanical properties :
#
#
# Convention : Reuss Voigt Hill
#
# Bulk Modulus (GPa) = 56.30167 57.29317 56.79742
# Shear Modulus (GPa) = 23.56327 27.74490 25.65408
#
# Velocity S-wave (km/s) = 3.51190 3.81079 3.66439
# Velocity P-wave (km/s) = 6.77597 7.02503 6.90163
#
# Compressibility (1/GPa) = 0.01776146
#
# Stress axis : x y z
#
# Youngs Moduli (GPa) = 42.80063 76.62187 68.56212
#
# Poissons Ratio (x) = 0.50033 0.57959
# Poissons Ratio (y) = 0.27948 0.11218
# Poissons Ratio (z) = 0.36181 0.12537
#
# Static dielectric constant tensor:
#      x y z
#    x 1.651490 0.000000 0.000000 
#    y 0.000000 1.662080 0.000000 
#    z 0.000000 0.000000 1.662310 
# 
# From -- ./inp_files/44713.got.cif
#   From: 2010.05.17/outbox.cif.g08.bks.cpg/sg67_23_cif.got.tgz:44713.got - 2010.06.03 18:28:57.
