data_PCOD9503765
_publ_section_title
;
Structure prediction by ZEFSAII (Michael W. Deem and Ramdas Pophale) SiO2 
 PCOD9503765
Probable space group: C M M A
;
_chemical_formula_sum "Si O2"
_cell_formula_units_Z 112
_cell_length_a 14.340507
_cell_length_b 13.808085
_cell_length_c 26.026124
_cell_angle_alpha 90.000000
_cell_angle_beta 90.000000
_cell_angle_gamma 90.000000
_cell_volume 5153.561372
_symmetry_space_group_name_H-M "C M M A"
_symmetry_group_IT_number 67
_symmetry_cell_setting 'orthorhombic'
loop_
_space_group_symop_operation_xyz
x,y,z
-x,1/2-y,z
x,-y,-z
-x,1/2+y,-z
-x,-y,-z
x,1/2+y,-z
-x,y,z
x,1/2-y,z
1/2+x,1/2+y,z
1/2-x,-y,z
1/2+x,1/2-y,-z
1/2-x,y,-z
1/2-x,1/2-y,-z
1/2+x,y,-z
1/2-x,1/2+y,z
1/2+x,-y,z
loop_
_atom_site_type_symbol
_atom_site_label
_atom_site_fract_x
_atom_site_fract_y
_atom_site_fract_z
Si Si1 0.609450 0.559672 0.305179
Si Si2 0.696769 0.640255 0.205152
Si Si3 0.111353 0.979529 0.885038
Si Si4 0.855753 0.145403 0.516135
Si Si5 0.394982 0.968734 0.415576
Si Si6 0.744512 0.362574 0.060795
Si Si7 0.105495 0.860158 0.247198
O O1 0.500000 0.587762 0.301874
O O2 0.664810 0.620998 0.263395
O O3 0.647106 0.571324 0.363086
O O4 0.616800 0.446889 0.287971
O O5 0.672051 0.750000 0.189522
O O6 0.645807 0.559876 0.170581
O O7 0.809164 0.632944 0.207185
O O8 0.153119 0.891996 0.919239
O O9 0.000000 0.991734 0.886786
O O10 0.169062 0.070816 0.908793
O O11 0.893677 0.250000 0.530676
O O12 0.750000 0.154750 0.500000
O O13 0.899593 0.103104 0.463973
O O14 0.855573 0.066959 0.561004
O O15 0.500000 0.993899 0.400157
O O16 0.724278 0.250000 0.069704
O O17 0.750000 0.381381 0.000000
O O18 0.111024 0.750000 0.268482
O O19 0.000000 0.870971 0.225250
#
# Coordination Sequence:
#
# PCOD9503765 Si02
#       7
#    16  16  16  16  16  16  16
#     4  10  22  38  58  87 121 161 209 263 321 386
#     4  11  24  41  62  91 129 174 222 272 329 395
#     4  11  24  43  69 101 139 185 233 281 336 400
#     4  10  21  36  56  81 110 148 194 248 314 384
#     4  10  21  37  57  83 114 148 195 254 314 380
#     4  10  24  46  72 106 144 181 228 284 340 398
#     4   9  20  39  61  86 118 160 210 263 322 391
#
# _framework density 21.732543
#
# number of rings (size 3 to 8) (size 9 to 14) (size 15 to 20)
#    0.000    1.857    0.000    3.857    4.000    8.000 
#    0.000    7.143    0.000    0.000    0.000    0.000 
#    0.000    0.000    0.000    0.000    0.000    0.000 
#
# Total GULP energy -312465.890273 kJ/mol
# GULP energy per Si atom -5579.748041 kJ/mol
# Density = 2.168308 g / cm^3
# Si number density = 21.732543 Si / 1000 Ang^3
#
#
#
# Elastic Constant Matrix: (Units=GPa)
#
#
# Indices 1 2 3 4 5 6 
#
# 1 131.0862 29.9185 25.3746 0.0000 0.0000 0.0000
# 2 29.9185 124.5960 31.5121 0.0000 0.0000 0.0000
# 3 25.3746 31.5121 128.7480 0.0000 0.0000 0.0000
# 4 0.0000 0.0000 0.0000 10.4532 0.0000 0.0000
# 5 0.0000 0.0000 0.0000 0.0000 24.1467 0.0000
# 6 0.0000 0.0000 0.0000 0.0000 0.0000 26.1487
#
#
#
# Elastic Compliance Matrix: (Units=1/GPa)
#
#
# Indices 1 2 3 4 5 6 
#
# 1 0.008246 -0.001672 -0.001216 0.000000 0.000000 0.000000
# 2 -0.001672 0.008895 -0.001847 0.000000 0.000000 0.000000
# 3 -0.001216 -0.001847 0.008459 0.000000 0.000000 0.000000
# 4 0.000000 0.000000 0.000000 0.095664 0.000000 0.000000
# 5 0.000000 0.000000 0.000000 0.000000 0.041414 0.000000
# 6 0.000000 0.000000 0.000000 0.000000 0.000000 0.038243
#
#
# Mechanical properties :
#
#
# Convention : Reuss Voigt Hill
#
# Bulk Modulus (GPa) = 62.00423 62.00453 62.00438
# Shear Modulus (GPa) = 23.17310 31.99139 27.58225
#
# Velocity S-wave (km/s) = 3.26895 3.84089 3.56640
# Velocity P-wave (km/s) = 6.54527 6.94713 6.74919
#
# Compressibility (1/GPa) = 0.01612793
#
# Stress axis : x y z
#
# Youngs Moduli (GPa) = 121.27637 112.42538 118.21876
#
# Poissons Ratio (x) = 0.18803 0.14373
# Poissons Ratio (y) = 0.20283 0.21840
# Poissons Ratio (z) = 0.14744 0.20770
#
# Static dielectric constant tensor:
#      x y z
#    x 1.837700 0.000000 0.000000 
#    y 0.000000 1.849120 0.000000 
#    z 0.000000 0.000000 1.898270 
# 
# From -- ./inp_files/41947.got.cif
#   From: 2010.05.17/outbox.cif.g08.bks.cpg/sg67_21_cif.got.tgz:41947.got - 2010.06.03 18:28:57.
