data_PCOD9503693
_publ_section_title
;
Structure prediction by ZEFSAII (Michael W. Deem and Ramdas Pophale) SiO2 
 PCOD9503693
Probable space group: C M M A
;
_chemical_formula_sum "Si O2"
_cell_formula_units_Z 80
_cell_length_a 26.709093
_cell_length_b 9.408325
_cell_length_c 16.242170
_cell_angle_alpha 90.000000
_cell_angle_beta 90.000000
_cell_angle_gamma 90.000000
_cell_volume 4081.459612
_symmetry_space_group_name_H-M "C M M A"
_symmetry_group_IT_number 67
_symmetry_cell_setting 'orthorhombic'
loop_
_space_group_symop_operation_xyz
x,y,z
-x,1/2-y,z
x,-y,-z
-x,1/2+y,-z
-x,-y,-z
x,1/2+y,-z
-x,y,z
x,1/2-y,z
1/2+x,1/2+y,z
1/2-x,-y,z
1/2+x,1/2-y,-z
1/2-x,y,-z
1/2-x,1/2-y,-z
1/2+x,y,-z
1/2-x,1/2+y,z
1/2+x,-y,z
loop_
_atom_site_type_symbol
_atom_site_label
_atom_site_fract_x
_atom_site_fract_y
_atom_site_fract_z
Si Si1 0.940194 0.909193 0.157382
Si Si2 0.500000 0.423167 0.411841
Si Si3 0.617609 0.000000 0.000000
Si Si4 0.704183 0.408926 0.884450
Si Si5 0.411877 0.921012 0.314204
Si Si6 0.299682 0.419428 0.693489
O O1 0.928931 0.750000 0.189731
O O2 0.000000 0.924835 0.152926
O O3 0.916714 0.921503 0.066625
O O4 0.919388 0.027123 0.219946
O O5 0.500000 0.250000 0.415280
O O6 0.500000 0.500000 0.500000
O O7 0.548301 0.485734 0.364301
O O8 0.655884 0.914268 0.058147
O O9 0.722999 0.250000 0.879243
O O10 0.750000 0.500000 0.915546
O O11 0.694083 0.456496 0.790683
O O12 0.420598 0.750000 0.320247
O O13 0.354709 0.950355 0.342503
O O14 0.291742 0.250000 0.686905
O O15 0.250000 0.500000 0.663075
#
# Coordination Sequence:
#
# PCOD9503693 Si02
#       6
#    16   8   8  16  16  16
#     4  11  24  39  56  82 114 158 213 265 319 380
#     4  12  26  46  74 109 138 165 202 244 302 371
#     4  12  22  36  54  76 112 160 214 270 322 372
#     4  10  21  36  51  74 107 151 206 266 321 369
#     4  11  22  41  67  95 130 169 207 256 315 375
#     4   9  19  36  58  87 121 163 214 261 315 375
#
# _framework density 19.600829999999998
#
# number of rings (size 3 to 8) (size 9 to 14) (size 15 to 20)
#    0.000    1.400    3.000    2.700    0.000    4.800 
#    0.000    0.000    0.000    0.600    0.000    4.200 
#    0.000    0.000    0.000    0.000    0.000    0.000 
#
# Total GULP energy -223068.603998 kJ/mol
# GULP energy per Si atom -5576.715100 kJ/mol
# Density = 1.955622 g / cm^3
# Si number density = 19.600830 Si / 1000 Ang^3
#
#
#
# Elastic Constant Matrix: (Units=GPa)
#
#
# Indices 1 2 3 4 5 6 
#
# 1 156.0395 70.7999 31.6691 0.0000 0.0000 0.0000
# 2 70.7999 98.2596 26.3262 0.0000 0.0000 0.0000
# 3 31.6691 26.3262 52.3854 0.0000 0.0000 0.0000
# 4 0.0000 0.0000 0.0000 27.9493 0.0000 0.0000
# 5 0.0000 0.0000 0.0000 0.0000 -0.6832 0.0000
# 6 0.0000 0.0000 0.0000 0.0000 0.0000 21.3896
#
#
#
# Elastic Compliance Matrix: (Units=1/GPa)
#
#
# Indices 1 2 3 4 5 6 
#
# 1 0.009855 -0.006361 -0.002761 0.000000 0.000000 0.000000
# 2 -0.006361 0.015867 -0.004128 0.000000 0.000000 0.000000
# 3 -0.002761 -0.004128 0.022833 0.000000 0.000000 0.000000
# 4 0.000000 0.000000 0.000000 0.035779 0.000000 0.000000
# 5 0.000000 0.000000 0.000000 0.000000 -1.463769 0.000000
# 6 0.000000 0.000000 0.000000 0.000000 0.000000 0.046752
#
#
# Mechanical properties :
#
#
# Convention : Reuss Voigt Hill
#
# Bulk Modulus (GPa) = 45.34310 62.69718 54.02014
# Shear Modulus (GPa) = -3.84962 21.59043 8.87041
#
# Velocity S-wave (km/s) = -1.40295 3.32249 2.12964
# Velocity P-wave (km/s) = 4.53422 6.83923 5.80234
#
# Compressibility (1/GPa) = 0.02205407
#
# Stress axis : x y z
#
# Youngs Moduli (GPa) = 101.46746 63.02470 43.79620
#
# Poissons Ratio (x) = 0.40093 0.12092
# Poissons Ratio (y) = 0.64548 0.18079
# Poissons Ratio (z) = 0.28016 0.26017
#
# Static dielectric constant tensor:
#      x y z
#    x 1.698680 0.000000 0.000000 
#    y 0.000000 1.678580 0.000000 
#    z 0.000000 0.000000 1.713630 
# 
# From -- ./inp_files/35798.got.cif
#   From: 2010.05.17/outbox.cif.g08.bks.cpg/sg67_18_cif.got.tgz:35798.got - 2010.06.03 18:28:57.
