data_PCOD9503769
_publ_section_title
;
Structure prediction by ZEFSAII (Michael W. Deem and Ramdas Pophale) SiO2 
 PCOD9503769
Probable space group: C M M A
;
_chemical_formula_sum "Si O2"
_cell_formula_units_Z 88
_cell_length_a 9.069289
_cell_length_b 16.714801
_cell_length_c 30.324838
_cell_angle_alpha 90.000000
_cell_angle_beta 90.000000
_cell_angle_gamma 90.000000
_cell_volume 4596.983460
_symmetry_space_group_name_H-M "C M M A"
_symmetry_group_IT_number 67
_symmetry_cell_setting 'orthorhombic'
loop_
_space_group_symop_operation_xyz
x,y,z
-x,1/2-y,z
x,-y,-z
-x,1/2+y,-z
-x,-y,-z
x,1/2+y,-z
-x,y,z
x,1/2-y,z
1/2+x,1/2+y,z
1/2-x,-y,z
1/2+x,1/2-y,-z
1/2-x,y,-z
1/2-x,1/2-y,-z
1/2+x,y,-z
1/2-x,1/2+y,z
1/2+x,-y,z
loop_
_atom_site_type_symbol
_atom_site_label
_atom_site_fract_x
_atom_site_fract_y
_atom_site_fract_z
Si Si1 0.821575 0.250000 0.048024
Si Si2 0.821633 0.412948 0.100455
Si Si3 0.825277 0.415510 0.624684
Si Si4 0.829660 0.343496 0.292877
Si Si5 0.666225 0.654811 0.457060
Si Si6 0.176381 0.584192 0.798336
O O1 0.780087 0.333705 0.072548
O O2 0.000000 0.250000 0.045429
O O3 0.750000 0.250000 0.000000
O O4 0.750000 0.500000 0.088802
O O5 0.780178 0.394951 0.151592
O O6 0.000000 0.421626 0.097596
O O7 0.750000 0.500000 0.615979
O O8 0.774420 0.388030 0.673078
O O9 0.758399 0.359070 0.587079
O O10 0.000000 0.419176 0.621838
O O11 0.825825 0.250000 0.302934
O O12 0.788244 0.357043 0.241799
O O13 0.000000 0.371478 0.298692
O O14 0.500000 0.622117 0.452894
O O15 0.653829 0.750000 0.463237
O O16 0.750000 0.621489 0.500000
O O17 0.250000 0.500000 0.787424
O O18 0.000000 0.575680 0.799250
#
# Coordination Sequence:
#
# PCOD9503769 Si02
#       6
#     8  16  16  16  16  16
#     4  10  22  38  58  84 116 154 198 246 297 356
#     4   9  19  36  58  84 115 153 196 243 296 353
#     4  12  25  40  58  80 111 149 189 232 279 331
#     4  10  21  36  56  83 113 147 185 227 277 336
#     4  10  21  39  63  89 116 145 181 226 277 334
#     4   9  18  33  55  81 110 145 186 230 280 337
#
# _framework density 19.142987999999999
#
# number of rings (size 3 to 8) (size 9 to 14) (size 15 to 20)
#    0.000    2.000    0.000    3.273    1.273    7.273 
#    0.000    3.636    0.000    0.000    0.000    0.000 
#    0.000    0.000    0.000    0.000    0.000    0.000 
#
# Total GULP energy -245450.565775 kJ/mol
# GULP energy per Si atom -5578.421949 kJ/mol
# Density = 1.909942 g / cm^3
# Si number density = 19.142988 Si / 1000 Ang^3
#
#
#
# Elastic Constant Matrix: (Units=GPa)
#
#
# Indices 1 2 3 4 5 6 
#
# 1 92.3680 35.7446 48.0686 0.0000 0.0000 0.0000
# 2 35.7446 60.1599 37.1135 0.0000 0.0000 0.0000
# 3 48.0686 37.1135 89.7135 0.0000 0.0000 0.0000
# 4 0.0000 0.0000 0.0000 18.2333 0.0000 0.0000
# 5 0.0000 0.0000 0.0000 0.0000 20.0126 0.0000
# 6 0.0000 0.0000 0.0000 0.0000 0.0000 21.8834
#
#
#
# Elastic Compliance Matrix: (Units=1/GPa)
#
#
# Indices 1 2 3 4 5 6 
#
# 1 0.016394 -0.005802 -0.006383 0.000000 0.000000 0.000000
# 2 -0.005802 0.024372 -0.006973 0.000000 0.000000 0.000000
# 3 -0.006383 -0.006973 0.017452 0.000000 0.000000 0.000000
# 4 0.000000 0.000000 0.000000 0.054845 0.000000 0.000000
# 5 0.000000 0.000000 0.000000 0.000000 0.049968 0.000000
# 6 0.000000 0.000000 0.000000 0.000000 0.000000 0.045697
#
#
# Mechanical properties :
#
#
# Convention : Reuss Voigt Hill
#
# Bulk Modulus (GPa) = 50.25437 53.78829 52.02133
# Shear Modulus (GPa) = 19.71000 20.11351 19.91175
#
# Velocity S-wave (km/s) = 3.21225 3.24496 3.22865
# Velocity P-wave (km/s) = 6.32986 6.49607 6.41350
#
# Compressibility (1/GPa) = 0.01989877
#
# Stress axis : x y z
#
# Youngs Moduli (GPa) = 60.99949 41.03072 57.30130
#
# Poissons Ratio (x) = 0.23808 0.36577
# Poissons Ratio (y) = 0.35395 0.39959
# Poissons Ratio (z) = 0.38938 0.28613
#
# Static dielectric constant tensor:
#      x y z
#    x 1.688480 0.000000 0.000000 
#    y 0.000000 1.675280 0.000000 
#    z 0.000000 0.000000 1.664130 
# 
# From -- ./inp_files/45224.got.cif
#   From: 2010.05.17/outbox.cif.g08.bks.cpg/sg67_23_cif.got.tgz:45224.got - 2010.06.03 18:28:57.
