data_PCOD9503004
_publ_section_title
;
Structure prediction by ZEFSAII (Michael W. Deem and Ramdas Pophale) SiO2 
 PCOD9503004
Probable space group: C M M A
;
_chemical_formula_sum "Si O2"
_cell_formula_units_Z 80
_cell_length_a 14.068764
_cell_length_b 25.707318
_cell_length_c 10.730498
_cell_angle_alpha 90.000000
_cell_angle_beta 90.000000
_cell_angle_gamma 90.000000
_cell_volume 3880.901251
_symmetry_space_group_name_H-M "C M M A"
_symmetry_group_IT_number 67
_symmetry_cell_setting 'orthorhombic'
loop_
_space_group_symop_operation_xyz
x,y,z
-x,1/2-y,z
x,-y,-z
-x,1/2+y,-z
-x,-y,-z
x,1/2+y,-z
-x,y,z
x,1/2-y,z
1/2+x,1/2+y,z
1/2-x,-y,z
1/2+x,1/2-y,-z
1/2-x,y,-z
1/2-x,1/2-y,-z
1/2+x,y,-z
1/2-x,1/2+y,z
1/2+x,-y,z
loop_
_atom_site_type_symbol
_atom_site_label
_atom_site_fract_x
_atom_site_fract_y
_atom_site_fract_z
Si Si1 0.887174 0.468945 0.116890
Si Si2 0.211149 0.136196 0.639030
Si Si3 0.885297 0.525177 0.366809
Si Si4 0.173583 0.750000 0.890023
Si Si5 0.892574 0.357106 0.180106
Si Si6 0.702728 0.750000 0.638505
O O1 0.854390 0.487795 0.252859
O O2 0.876251 0.407754 0.096631
O O3 0.000000 0.478974 0.121249
O O4 0.848939 0.500000 0.000000
O O5 0.250000 0.132966 0.500000
O O6 0.153370 0.083204 0.659330
O O7 0.306012 0.139827 0.723005
O O8 0.156717 0.192235 0.650930
O O9 0.856703 0.500000 0.500000
O O10 0.000000 0.527958 0.369713
O O11 0.115073 0.803185 0.892969
O O12 0.222933 0.750000 0.753315
O O13 0.250000 0.750000 0.000000
O O14 0.000000 0.361431 0.234913
O O15 0.750000 0.750000 0.500000
#
# Coordination Sequence:
#
# PCOD9503004 Si02
#       6
#    16  16  16   8  16   8
#     4   9  19  35  54  79 112 148 190 239 291 356
#     4  10  20  35  58  85 116 154 200 252 303 360
#     4  10  21  37  57  83 117 155 196 248 308 366
#     4  10  21  37  60  89 116 149 199 252 297 354
#     4  10  21  38  60  86 119 161 205 250 309 379
#     4   8  18  37  55  79 116 151 186 240 300 356
#
# _framework density 20.613769999999999
#
# number of rings (size 3 to 8) (size 9 to 14) (size 15 to 20)
#    0.000    2.400    0.000    1.500    0.000    8.400 
#    0.000    1.500    0.000    9.000    0.000    0.000 
#    0.000    0.000    0.000    0.000    0.000    0.000 
#
# Total GULP energy -222845.695781 kJ/mol
# GULP energy per Si atom -5571.142395 kJ/mol
# Density = 2.056685 g / cm^3
# Si number density = 20.613770 Si / 1000 Ang^3
#
#
#
# Elastic Constant Matrix: (Units=GPa)
#
#
# Indices 1 2 3 4 5 6 
#
# 1 90.2558 37.4417 22.1159 0.0000 0.0000 0.0000
# 2 37.4417 206.9604 54.1005 0.0000 0.0000 0.0000
# 3 22.1159 54.1005 101.7953 0.0000 0.0000 0.0000
# 4 0.0000 0.0000 0.0000 20.3075 0.0000 0.0000
# 5 0.0000 0.0000 0.0000 0.0000 -12.2646 0.0000
# 6 0.0000 0.0000 0.0000 0.0000 0.0000 28.1380
#
#
#
# Elastic Compliance Matrix: (Units=1/GPa)
#
#
# Indices 1 2 3 4 5 6 
#
# 1 0.012233 -0.001763 -0.001721 0.000000 0.000000 0.000000
# 2 -0.001763 0.005866 -0.002734 0.000000 0.000000 0.000000
# 3 -0.001721 -0.002734 0.011651 0.000000 0.000000 0.000000
# 4 0.000000 0.000000 0.000000 0.049243 0.000000 0.000000
# 5 0.000000 0.000000 0.000000 0.000000 -0.081536 0.000000
# 6 0.000000 0.000000 0.000000 0.000000 0.000000 0.035539
#
#
# Mechanical properties :
#
#
# Convention : Reuss Voigt Hill
#
# Bulk Modulus (GPa) = 57.76103 69.59197 63.67650
# Shear Modulus (GPa) = 97.65172 26.25975 61.95573
#
# Velocity S-wave (km/s) = 6.89020 3.57304 5.48824
# Velocity P-wave (km/s) = 9.55936 7.13129 8.43317
#
# Compressibility (1/GPa) = 0.01731271
#
# Stress axis : x y z
#
# Youngs Moduli (GPa) = 81.74818 170.48584 85.83255
#
# Poissons Ratio (x) = 0.30062 0.14768
# Poissons Ratio (y) = 0.14415 0.23469
# Poissons Ratio (z) = 0.14065 0.46615
#
# Static dielectric constant tensor:
#      x y z
#    x 1.741540 0.000000 0.000000 
#    y 0.000000 1.797190 0.000000 
#    z 0.000000 0.000000 1.683870 
# 
# From -- ./inp_files/17996.got.cif
#   From: 2010.05.17/outbox.cif.g08.bks.cpg/sg67_9_cif.got.tgz:17996.got - 2010.06.03 18:28:57.
