data_PCOD9503184
_publ_section_title
;
Structure prediction by ZEFSAII (Michael W. Deem and Ramdas Pophale) SiO2 
 PCOD9503184
Probable space group: C M M A
;
_chemical_formula_sum "Si O2"
_cell_formula_units_Z 100
_cell_length_a 21.256164
_cell_length_b 9.280276
_cell_length_c 26.672554
_cell_angle_alpha 90.000000
_cell_angle_beta 90.000000
_cell_angle_gamma 90.000000
_cell_volume 5261.509850
_symmetry_space_group_name_H-M "C M M A"
_symmetry_group_IT_number 67
_symmetry_cell_setting 'orthorhombic'
loop_
_space_group_symop_operation_xyz
x,y,z
-x,1/2-y,z
x,-y,-z
-x,1/2+y,-z
-x,-y,-z
x,1/2+y,-z
-x,y,z
x,1/2-y,z
1/2+x,1/2+y,z
1/2-x,-y,z
1/2+x,1/2-y,-z
1/2-x,y,-z
1/2-x,1/2-y,-z
1/2+x,y,-z
1/2-x,1/2+y,z
1/2+x,-y,z
loop_
_atom_site_type_symbol
_atom_site_label
_atom_site_fract_x
_atom_site_fract_y
_atom_site_fract_z
Si Si1 0.927524 0.422826 0.054101
Si Si2 0.313520 0.420117 0.233518
Si Si3 0.296053 0.250000 0.574970
Si Si4 0.893817 0.978546 0.590121
Si Si5 0.500000 0.250000 0.562490
Si Si6 0.069617 0.923775 0.299000
Si Si7 0.840684 0.750000 0.459756
Si Si8 0.684290 0.921876 0.886502
O O1 0.916800 0.250000 0.050140
O O2 0.874707 0.498782 0.087974
O O3 0.000000 0.443222 0.072240
O O4 0.923753 0.500000 0.000000
O O5 0.306470 0.250000 0.243631
O O6 0.250000 0.500000 0.248880
O O7 0.374544 0.474864 0.263092
O O8 0.321677 0.436950 0.173714
O O9 0.329070 0.390154 0.597517
O O10 0.221273 0.250000 0.575506
O O11 0.316573 0.250000 0.516359
O O12 0.945078 0.873845 0.566761
O O13 0.917369 0.031427 0.644033
O O14 0.880306 0.110590 0.553706
O O15 0.069140 0.750000 0.296685
O O16 0.000000 0.975986 0.284216
O O17 0.685826 0.750000 0.898212
O O18 0.750000 0.000000 0.901189
#
# Coordination Sequence:
#
# PCOD9503184 Si02
#       8
#    16  16   8  16   4  16   8  16
#     4  10  21  37  58  85 120 158 204 254 302 358
#     4   9  20  38  58  88 118 151 196 245 297 354
#     4  10  24  40  61  93 121 144 193 243 288 350
#     4  11  21  40  62  84 122 153 191 241 289 347
#     4  10  24  40  58  86 120 150 198 242 282 338
#     4  10  20  38  63  84 114 155 200 236 288 358
#     4  11  22  41  65  89 116 158 190 233 299 355
#     4  10  20  36  59  84 121 159 197 249 302 357
#
# _framework density 19.005952000000001
#
# number of rings (size 3 to 8) (size 9 to 14) (size 15 to 20)
#    0.000    1.920    1.600    1.920    0.000    5.440 
#    2.880    9.600    0.000    0.000    0.000    0.000 
#    0.000    0.000    0.000    0.000    0.000    0.000 
#
# Total GULP energy -278650.902656 kJ/mol
# GULP energy per Si atom -5573.018053 kJ/mol
# Density = 1.896269 g / cm^3
# Si number density = 19.005952 Si / 1000 Ang^3
#
#
#
# Elastic Constant Matrix: (Units=GPa)
#
#
# Indices 1 2 3 4 5 6 
#
# 1 181.1384 72.5902 59.4742 0.0000 0.0000 0.0000
# 2 72.5902 103.6556 31.8558 0.0000 0.0000 0.0000
# 3 59.4742 31.8558 40.5774 0.0000 0.0000 0.0000
# 4 0.0000 0.0000 0.0000 13.2507 0.0000 0.0000
# 5 0.0000 0.0000 0.0000 0.0000 68.2763 0.0000
# 6 0.0000 0.0000 0.0000 0.0000 0.0000 35.0176
#
#
#
# Elastic Compliance Matrix: (Units=1/GPa)
#
#
# Indices 1 2 3 4 5 6 
#
# 1 0.011704 -0.003854 -0.014129 0.000000 0.000000 0.000000
# 2 -0.003854 0.013984 -0.005329 0.000000 0.000000 0.000000
# 3 -0.014129 -0.005329 0.049537 0.000000 0.000000 0.000000
# 4 0.000000 0.000000 0.000000 0.075468 0.000000 0.000000
# 5 0.000000 0.000000 0.000000 0.000000 0.014646 0.000000
# 6 0.000000 0.000000 0.000000 0.000000 0.000000 0.028557
#
#
# Mechanical properties :
#
#
# Convention : Reuss Voigt Hill
#
# Bulk Modulus (GPa) = 34.96467 72.57908 53.77187
# Shear Modulus (GPa) = 19.99553 34.07234 27.03393
#
# Velocity S-wave (km/s) = 3.24708 4.23865 3.77555
# Velocity P-wave (km/s) = 5.70041 7.88830 6.88186
#
# Compressibility (1/GPa) = 0.02860030
#
# Stress axis : x y z
#
# Youngs Moduli (GPa) = 85.43841 71.50853 20.18690
#
# Poissons Ratio (x) = 0.27562 0.28522
# Poissons Ratio (y) = 0.32931 0.10758
# Poissons Ratio (z) = 1.20717 0.38109
#
# Static dielectric constant tensor:
#      x y z
#    x 1.661790 0.000000 0.000000 
#    y 0.000000 1.649420 0.000000 
#    z 0.000000 0.000000 1.643230 
# 
# From -- ./inp_files/44729.got.cif
#   From: 2010.05.17/outbox.cif.g08.bks.cpg/sg67_23_cif.got.tgz:44729.got - 2010.06.03 18:28:57.
