data_PCOD9503922
_publ_section_title
;
Structure prediction by ZEFSAII (Michael W. Deem and Ramdas Pophale) SiO2 
 PCOD9503922
Probable space group: C M M A
;
_chemical_formula_sum "Si O2"
_cell_formula_units_Z 64
_cell_length_a 23.954608
_cell_length_b 16.231886
_cell_length_c 8.567381
_cell_angle_alpha 90.000000
_cell_angle_beta 90.000000
_cell_angle_gamma 90.000000
_cell_volume 3331.241614
_symmetry_space_group_name_H-M "C M M A"
_symmetry_group_IT_number 67
_symmetry_cell_setting 'orthorhombic'
loop_
_space_group_symop_operation_xyz
x,y,z
-x,1/2-y,z
x,-y,-z
-x,1/2+y,-z
-x,-y,-z
x,1/2+y,-z
-x,y,z
x,1/2-y,z
1/2+x,1/2+y,z
1/2-x,-y,z
1/2+x,1/2-y,-z
1/2-x,y,-z
1/2-x,1/2-y,-z
1/2+x,y,-z
1/2-x,1/2+y,z
1/2+x,-y,z
loop_
_atom_site_type_symbol
_atom_site_label
_atom_site_fract_x
_atom_site_fract_y
_atom_site_fract_z
Si Si1 0.500000 0.914189 0.398075
Si Si2 0.107739 0.154293 0.222115
Si Si3 0.684191 0.014239 0.680622
Si Si4 0.000000 0.157242 0.718179
Si Si5 0.900491 0.578495 0.100288
O O1 0.444948 0.896632 0.294310
O O2 0.500000 0.846046 0.533007
O O3 0.500000 0.000000 0.500000
O O4 0.104583 0.250000 0.267038
O O5 0.162609 0.105770 0.279249
O O6 0.108839 0.145596 0.034422
O O7 0.651949 0.953634 0.799796
O O8 0.668504 0.000000 0.500000
O O9 0.750000 0.000000 0.696962
O O10 0.946352 0.110311 0.781719
O O11 0.000000 0.250000 0.777799
O O12 0.920656 0.500000 0.000000
#
# Coordination Sequence:
#
# PCOD9503922 Si02
#       5
#     8  16  16   8  16
#     4  12  23  38  61  88 121 161 196 233 293 364
#     4  11  22  38  60  91 124 156 196 251 302 348
#     4  10  22  42  64  84 113 156 204 247 296 361
#     4  12  22  34  54  86 118 149 189 237 283 338
#     4  10  21  37  59  84 117 158 196 236 293 359
#
# _framework density 19.212054999999999
#
# number of rings (size 3 to 8) (size 9 to 14) (size 15 to 20)
#    0.000    1.250    0.000    8.250    0.000    4.500 
#    0.000    7.500    0.000    0.000    0.000    0.000 
#    0.000    0.000    0.000    0.000    0.000    0.000 
#
# Total GULP energy -178631.402225 kJ/mol
# GULP energy per Si atom -5582.231320 kJ/mol
# Density = 1.916833 g / cm^3
# Si number density = 19.212055 Si / 1000 Ang^3
#
#
#
# Elastic Constant Matrix: (Units=GPa)
#
#
# Indices 1 2 3 4 5 6 
#
# 1 87.2686 59.3018 49.1655 0.0000 0.0000 0.0000
# 2 59.3018 115.4512 31.6507 0.0000 0.0000 0.0000
# 3 49.1655 31.6507 128.8543 0.0000 0.0000 0.0000
# 4 0.0000 0.0000 0.0000 20.8137 0.0000 0.0000
# 5 0.0000 0.0000 0.0000 0.0000 2.0641 0.0000
# 6 0.0000 0.0000 0.0000 0.0000 0.0000 11.8470
#
#
#
# Elastic Compliance Matrix: (Units=1/GPa)
#
#
# Indices 1 2 3 4 5 6 
#
# 1 0.020922 -0.009176 -0.005729 0.000000 0.000000 0.000000
# 2 -0.009176 0.013311 0.000231 0.000000 0.000000 0.000000
# 3 -0.005729 0.000231 0.009890 0.000000 0.000000 0.000000
# 4 0.000000 0.000000 0.000000 0.048045 0.000000 0.000000
# 5 0.000000 0.000000 0.000000 0.000000 0.484476 0.000000
# 6 0.000000 0.000000 0.000000 0.000000 0.000000 0.084410
#
#
# Mechanical properties :
#
#
# Convention : Reuss Voigt Hill
#
# Bulk Modulus (GPa) = 67.67694 67.97891 67.82792
# Shear Modulus (GPa) = 7.19087 19.70870 13.44978
#
# Velocity S-wave (km/s) = 1.93675 3.20636 2.64875
# Velocity P-wave (km/s) = 6.34855 7.01199 6.68850
#
# Compressibility (1/GPa) = 0.01477608
#
# Stress axis : x y z
#
# Youngs Moduli (GPa) = 47.79694 75.12323 101.11424
#
# Poissons Ratio (x) = 0.68933 0.57928
# Poissons Ratio (y) = 0.43858 -0.02340
# Poissons Ratio (z) = 0.27383 -0.01739
#
# Static dielectric constant tensor:
#      x y z
#    x 1.641990 0.000000 0.000000 
#    y 0.000000 1.698300 0.000000 
#    z 0.000000 0.000000 1.694080 
# 
# From -- ./inp_files/8226.got.cif
#   From: 2010.05.17/outbox.cif.g08.bks.cpg/sg67_5_cif.got.tgz:8226.got - 2010.06.03 18:28:57.
