data_PCOD9503032
_publ_section_title
;
Structure prediction by ZEFSAII (Michael W. Deem and Ramdas Pophale) SiO2 
 PCOD9503032
Probable space group: C M M A
;
_chemical_formula_sum "Si O2"
_cell_formula_units_Z 112
_cell_length_a 13.785398
_cell_length_b 28.622220
_cell_length_c 13.474507
_cell_angle_alpha 90.000000
_cell_angle_beta 90.000000
_cell_angle_gamma 90.000000
_cell_volume 5316.618634
_symmetry_space_group_name_H-M "C M M A"
_symmetry_group_IT_number 67
_symmetry_cell_setting 'orthorhombic'
loop_
_space_group_symop_operation_xyz
x,y,z
-x,1/2-y,z
x,-y,-z
-x,1/2+y,-z
-x,-y,-z
x,1/2+y,-z
-x,y,z
x,1/2-y,z
1/2+x,1/2+y,z
1/2-x,-y,z
1/2+x,1/2-y,-z
1/2-x,y,-z
1/2-x,1/2-y,-z
1/2+x,y,-z
1/2-x,1/2+y,z
1/2+x,-y,z
loop_
_atom_site_type_symbol
_atom_site_label
_atom_site_fract_x
_atom_site_fract_y
_atom_site_fract_z
Si Si1 0.609959 0.396635 0.359130
Si Si2 0.608879 0.619542 0.098927
Si Si3 0.884490 0.048669 0.444934
Si Si4 0.193310 0.698932 0.793467
Si Si5 0.728086 0.445902 0.764066
Si Si6 0.387673 0.804959 0.923704
Si Si7 0.693400 0.301986 0.400740
O O1 0.500000 0.412126 0.342821
O O2 0.640243 0.414532 0.468696
O O3 0.677226 0.417902 0.273491
O O4 0.619591 0.341196 0.365833
O O5 0.500000 0.601048 0.088867
O O6 0.618601 0.658578 0.184134
O O7 0.679932 0.579552 0.140843
O O8 0.628412 0.653398 0.003829
O O9 0.836724 0.054539 0.337257
O O10 0.000000 0.049742 0.429720
O O11 0.859953 0.000000 0.500000
O O12 0.156664 0.750000 0.822605
O O13 0.296759 0.691006 0.849478
O O14 0.222137 0.698967 0.680301
O O15 0.750000 0.500000 0.785636
O O16 0.500000 0.810578 0.887267
O O17 0.382592 0.750000 0.958307
O O18 0.650481 0.250000 0.407673
O O19 0.750000 0.313853 0.500000
#
# Coordination Sequence:
#
# PCOD9503032 Si02
#       7
#    16  16  16  16  16  16  16
#     4  11  23  37  58  87 121 164 215 265 316 370
#     4  11  23  38  59  91 126 161 205 260 324 384
#     4  10  20  35  59  88 115 154 210 270 324 378
#     4  10  20  37  64  95 125 163 209 254 306 371
#     4  12  23  38  60  84 122 166 208 270 330 388
#     4   9  19  38  67 100 130 159 202 265 325 374
#     4  10  21  39  61  87 128 172 207 244 298 372
#
# _framework density 21.066020999999999
#
# number of rings (size 3 to 8) (size 9 to 14) (size 15 to 20)
#    0.000    1.571    2.857    2.571    0.000    3.429 
#    0.000    1.429    0.000    4.286    0.000    5.000 
#    0.000    0.000    0.000    0.000    0.000    0.000 
#
# Total GULP energy -312377.225901 kJ/mol
# GULP energy per Si atom -5578.164748 kJ/mol
# Density = 2.101807 g / cm^3
# Si number density = 21.066021 Si / 1000 Ang^3
#
#
#
# Elastic Constant Matrix: (Units=GPa)
#
#
# Indices 1 2 3 4 5 6 
#
# 1 66.9806 27.2491 11.0862 0.0000 0.0000 0.0000
# 2 27.2491 126.8411 15.4812 0.0000 0.0000 0.0000
# 3 11.0862 15.4812 64.0703 0.0000 0.0000 0.0000
# 4 0.0000 0.0000 0.0000 34.0177 0.0000 0.0000
# 5 0.0000 0.0000 0.0000 0.0000 13.1968 0.0000
# 6 0.0000 0.0000 0.0000 0.0000 0.0000 322.4591
#
#
#
# Elastic Compliance Matrix: (Units=1/GPa)
#
#
# Indices 1 2 3 4 5 6 
#
# 1 0.016623 -0.003318 -0.002075 0.000000 0.000000 0.000000
# 2 -0.003318 0.008786 -0.001549 0.000000 0.000000 0.000000
# 3 -0.002075 -0.001549 0.016341 0.000000 0.000000 0.000000
# 4 0.000000 0.000000 0.000000 0.029396 0.000000 0.000000
# 5 0.000000 0.000000 0.000000 0.000000 0.075776 0.000000
# 6 0.000000 0.000000 0.000000 0.000000 0.000000 0.003101
#
#
# Mechanical properties :
#
#
# Convention : Reuss Voigt Hill
#
# Bulk Modulus (GPa) = 35.88455 40.61387 38.24921
# Shear Modulus (GPa) = 28.86922 87.53975 58.20449
#
# Velocity S-wave (km/s) = 3.70593 6.45331 5.26209
# Velocity P-wave (km/s) = 5.94838 8.65148 7.42399
#
# Compressibility (1/GPa) = 0.02786715
#
# Stress axis : x y z
#
# Youngs Moduli (GPa) = 60.15820 113.82156 61.19553
#
# Poissons Ratio (x) = 0.37764 0.12696
# Poissons Ratio (y) = 0.19960 0.09478
# Poissons Ratio (z) = 0.12480 0.17628
#
# Static dielectric constant tensor:
#      x y z
#    x 1.785950 0.000000 0.000000 
#    y 0.000000 1.879260 0.000000 
#    z 0.000000 0.000000 1.770370 
# 
# From -- ./inp_files/27866.got.cif
#   From: 2010.05.17/outbox.cif.g08.bks.cpg/sg67_14_cif.got.tgz:27866.got - 2010.06.03 18:28:57.
