data_PCOD9503490
_publ_section_title
;
Structure prediction by ZEFSAII (Michael W. Deem and Ramdas Pophale) SiO2 
 PCOD9503490
Probable space group: C M M A
;
_chemical_formula_sum "Si O2"
_cell_formula_units_Z 76
_cell_length_a 13.854174
_cell_length_b 22.258491
_cell_length_c 12.299401
_cell_angle_alpha 90.000000
_cell_angle_beta 90.000000
_cell_angle_gamma 90.000000
_cell_volume 3792.803274
_symmetry_space_group_name_H-M "C M M A"
_symmetry_group_IT_number 67
_symmetry_cell_setting 'orthorhombic'
loop_
_space_group_symop_operation_xyz
x,y,z
-x,1/2-y,z
x,-y,-z
-x,1/2+y,-z
-x,-y,-z
x,1/2+y,-z
-x,y,z
x,1/2-y,z
1/2+x,1/2+y,z
1/2-x,-y,z
1/2+x,1/2-y,-z
1/2-x,y,-z
1/2-x,1/2-y,-z
1/2+x,y,-z
1/2-x,1/2+y,z
1/2+x,-y,z
loop_
_atom_site_type_symbol
_atom_site_label
_atom_site_fract_x
_atom_site_fract_y
_atom_site_fract_z
Si Si1 0.000000 0.500000 0.500000
Si Si2 0.608257 0.750000 0.283396
Si Si3 0.113243 0.177185 0.928529
Si Si4 0.250000 0.148213 0.500000
Si Si5 0.309276 0.362074 0.836849
Si Si6 0.890486 0.750000 0.456191
Si Si7 0.333715 0.548432 0.341520
O O1 0.917882 0.516983 0.591781
O O2 0.500000 0.750000 0.238073
O O3 0.661348 0.807809 0.240733
O O4 0.602400 0.750000 0.412771
O O5 0.130248 0.250000 0.925346
O O6 0.193609 0.143789 0.854949
O O7 0.000000 0.167179 0.902762
O O8 0.138838 0.152945 0.049001
O O9 0.173865 0.191002 0.563659
O O10 0.303388 0.104745 0.583215
O O11 0.346101 0.422230 0.777843
O O12 0.000000 0.750000 0.411469
O O13 0.250000 0.500000 0.333671
#
# Coordination Sequence:
#
# PCOD9503490 Si02
#       7
#     4   8  16   8  16   8  16
#     4  12  26  44  72  96 118 180 250 296 334 398
#     4  11  19  30  57  98 124 159 214 256 334 414
#     4  10  20  38  64 100 139 175 215 269 349 431
#     4  11  21  40  60  86 133 161 204 276 334 407
#     4  11  21  38  65  92 136 171 215 280 334 416
#     4  10  23  35  59  93 126 163 204 271 341 410
#     4  12  26  45  65  92 128 176 233 285 341 403
#
# _framework density 20.037949000000001
#
# number of rings (size 3 to 8) (size 9 to 14) (size 15 to 20)
#    0.000    1.053    6.316    1.263    4.421    0.000 
#    1.895    2.105    0.000    1.263    0.000    0.000 
#    0.000    0.000    0.000    0.000    0.000    0.000 
#
# Total GULP energy -211546.506664 kJ/mol
# GULP energy per Si atom -5567.013333 kJ/mol
# Density = 1.999234 g / cm^3
# Si number density = 20.037949 Si / 1000 Ang^3
#
#
#
# Elastic Constant Matrix: (Units=GPa)
#
#
# Indices 1 2 3 4 5 6 
#
# 1 126.1606 28.1008 29.1134 0.0000 0.0000 0.0000
# 2 28.1008 70.6911 18.1992 0.0000 0.0000 0.0000
# 3 29.1134 18.1992 65.9970 0.0000 0.0000 0.0000
# 4 0.0000 0.0000 0.0000 196.3125 0.0000 0.0000
# 5 0.0000 0.0000 0.0000 0.0000 26.1859 0.0000
# 6 0.0000 0.0000 0.0000 0.0000 0.0000 180.1788
#
#
#
# Elastic Compliance Matrix: (Units=1/GPa)
#
#
# Indices 1 2 3 4 5 6 
#
# 1 0.009330 -0.002852 -0.003329 0.000000 0.000000 0.000000
# 2 -0.002852 0.016099 -0.003181 0.000000 0.000000 0.000000
# 3 -0.003329 -0.003181 0.017498 0.000000 0.000000 0.000000
# 4 0.000000 0.000000 0.000000 0.005094 0.000000 0.000000
# 5 0.000000 0.000000 0.000000 0.000000 0.038188 0.000000
# 6 0.000000 0.000000 0.000000 0.000000 0.000000 0.005550
#
#
# Mechanical properties :
#
#
# Convention : Reuss Voigt Hill
#
# Bulk Modulus (GPa) = 41.31896 45.96395 43.64145
# Shear Modulus (GPa) = 42.17588 93.03114 67.60351
#
# Velocity S-wave (km/s) = 4.59279 6.82116 5.81472
# Velocity P-wave (km/s) = 6.98499 9.22095 8.17973
#
# Compressibility (1/GPa) = 0.02420197
#
# Stress axis : x y z
#
# Youngs Moduli (GPa) = 107.18260 62.11702 57.14883
#
# Poissons Ratio (x) = 0.17714 0.19027
# Poissons Ratio (y) = 0.30565 0.18181
# Poissons Ratio (z) = 0.35685 0.19762
#
# Static dielectric constant tensor:
#      x y z
#    x 1.741050 0.000000 0.000000 
#    y 0.000000 1.773860 0.000000 
#    z 0.000000 0.000000 1.761460 
# 
# From -- ./inp_files/27014.got.cif
#   From: 2010.05.17/outbox.cif.g08.bks.cpg/sg67_14_cif.got.tgz:27014.got - 2010.06.03 18:28:57.
