data_PCOD9503968
_publ_section_title
;
Structure prediction by ZEFSAII (Michael W. Deem and Ramdas Pophale) SiO2 
 PCOD9503968
Probable space group: C M M A
;
_chemical_formula_sum "Si O2"
_cell_formula_units_Z 68
_cell_length_a 19.377618
_cell_length_b 24.125652
_cell_length_c 6.996340
_cell_angle_alpha 90.000000
_cell_angle_beta 90.000000
_cell_angle_gamma 90.000000
_cell_volume 3270.772638
_symmetry_space_group_name_H-M "C M M A"
_symmetry_group_IT_number 67
_symmetry_cell_setting 'orthorhombic'
loop_
_space_group_symop_operation_xyz
x,y,z
-x,1/2-y,z
x,-y,-z
-x,1/2+y,-z
-x,-y,-z
x,1/2+y,-z
-x,y,z
x,1/2-y,z
1/2+x,1/2+y,z
1/2-x,-y,z
1/2+x,1/2-y,-z
1/2-x,y,-z
1/2-x,1/2-y,-z
1/2+x,y,-z
1/2-x,1/2+y,z
1/2+x,-y,z
loop_
_atom_site_type_symbol
_atom_site_label
_atom_site_fract_x
_atom_site_fract_y
_atom_site_fract_z
Si Si1 0.000000 0.500000 0.000000
Si Si2 0.917491 0.634961 0.307288
Si Si3 0.189764 0.132328 0.365525
Si Si4 0.362540 0.558595 0.026754
Si Si5 0.797432 0.250000 0.187364
Si Si6 0.079791 0.750000 0.086268
O O1 0.061520 0.538462 0.903834
O O2 0.880090 0.634502 0.510299
O O3 0.907153 0.695169 0.211087
O O4 0.000000 0.623199 0.313908
O O5 0.879988 0.591097 0.168285
O O6 0.250000 0.108644 0.500000
O O7 0.175730 0.097511 0.175590
O O8 0.212579 0.193975 0.304254
O O9 0.325442 0.500000 0.000000
O O10 0.750000 0.250000 0.000000
O O11 0.874344 0.250000 0.101762
O O12 0.000000 0.750000 0.032057
#
# Coordination Sequence:
#
# PCOD9503968 Si02
#       6
#     4  16  16  16   8   8
#     4   8  20  44  74 100 124 190 234 280 344 412
#     4  11  22  41  69 101 137 176 230 292 349 418
#     4  12  27  42  70 103 139 184 234 290 353 421
#     4  10  22  44  71  96 138 178 235 277 344 410
#     4  12  24  45  74  91 141 189 231 273 360 439
#     4  10  21  37  65 100 134 171 221 288 352 401
#
# _framework density 20.790195000000001
#
# number of rings (size 3 to 8) (size 9 to 14) (size 15 to 20)
#    0.706    0.471    3.529    2.471    1.647    1.882 
#    0.000    5.882    0.000    0.000    0.000    0.000 
#    0.000    0.000    0.000    0.000    0.000    0.000 
#
# Total GULP energy -189407.897834 kJ/mol
# GULP energy per Si atom -5570.820525 kJ/mol
# Density = 2.074288 g / cm^3
# Si number density = 20.790195 Si / 1000 Ang^3
#
#
#
# Elastic Constant Matrix: (Units=GPa)
#
#
# Indices 1 2 3 4 5 6 
#
# 1 71.3140 27.8143 30.9470 0.0000 0.0000 0.0000
# 2 27.8143 126.3603 43.7425 0.0000 0.0000 0.0000
# 3 30.9470 43.7425 94.4616 0.0000 0.0000 0.0000
# 4 0.0000 0.0000 0.0000 -12.0933 0.0000 0.0000
# 5 0.0000 0.0000 0.0000 0.0000 34.3274 0.0000
# 6 0.0000 0.0000 0.0000 0.0000 0.0000 -14.0553
#
#
#
# Elastic Compliance Matrix: (Units=1/GPa)
#
#
# Indices 1 2 3 4 5 6 
#
# 1 0.016818 -0.002137 -0.004520 0.000000 0.000000 0.000000
# 2 -0.002137 0.009696 -0.003790 0.000000 0.000000 0.000000
# 3 -0.004520 -0.003790 0.013822 0.000000 0.000000 0.000000
# 4 0.000000 0.000000 0.000000 -0.082690 0.000000 0.000000
# 5 0.000000 0.000000 0.000000 0.000000 0.029131 0.000000
# 6 0.000000 0.000000 0.000000 0.000000 0.000000 -0.071148
#
#
# Mechanical properties :
#
#
# Convention : Reuss Voigt Hill
#
# Bulk Modulus (GPa) = 51.43563 55.23818 53.33690
# Shear Modulus (GPa) = -87.72588 14.27788 -36.72400
#
# Velocity S-wave (km/s) = -6.50288 2.62345 -4.20743
# Velocity P-wave (km/s) = 5.62042 5.98362 1.45164
#
# Compressibility (1/GPa) = 0.01944178
#
# Stress axis : x y z
#
# Youngs Moduli (GPa) = 59.46182 103.13240 72.34766
#
# Poissons Ratio (x) = 0.22041 0.32701
# Poissons Ratio (y) = 0.12708 0.27419
# Poissons Ratio (z) = 0.26877 0.39086
#
# Static dielectric constant tensor:
#      x y z
#    x 2.013540 0.000000 0.000000 
#    y 0.000000 1.758040 0.000000 
#    z 0.000000 0.000000 1.736790 
# 
# From -- ./inp_files/2941.got.cif
#   From: 2010.05.17/outbox.cif.g08.bks.cpg/sg67_2_cif.got.tgz:2941.got - 2010.06.03 18:28:57.
