data_PCOD9503815
_publ_section_title
;
Structure prediction by ZEFSAII (Michael W. Deem and Ramdas Pophale) SiO2 
 PCOD9503815
Probable space group: C M M A
;
_chemical_formula_sum "Si O2"
_cell_formula_units_Z 88
_cell_length_a 25.858831
_cell_length_b 10.459701
_cell_length_c 16.241260
_cell_angle_alpha 90.000000
_cell_angle_beta 90.000000
_cell_angle_gamma 90.000000
_cell_volume 4392.865201
_symmetry_space_group_name_H-M "C M M A"
_symmetry_group_IT_number 67
_symmetry_cell_setting 'orthorhombic'
loop_
_space_group_symop_operation_xyz
x,y,z
-x,1/2-y,z
x,-y,-z
-x,1/2+y,-z
-x,-y,-z
x,1/2+y,-z
-x,y,z
x,1/2-y,z
1/2+x,1/2+y,z
1/2-x,-y,z
1/2+x,1/2-y,-z
1/2-x,y,-z
1/2-x,1/2-y,-z
1/2+x,y,-z
1/2-x,1/2+y,z
1/2+x,-y,z
loop_
_atom_site_type_symbol
_atom_site_label
_atom_site_fract_x
_atom_site_fract_y
_atom_site_fract_z
Si Si1 0.000000 0.903054 0.076132
Si Si2 0.682258 0.750000 0.403520
Si Si3 0.639031 0.993532 0.679520
Si Si4 0.304071 0.250000 0.398330
Si Si5 0.779207 0.886310 0.088155
Si Si6 0.938594 0.897187 0.434423
Si Si7 0.886695 0.398900 0.849592
O O1 0.054741 0.926968 0.122825
O O2 0.000000 0.750000 0.054910
O O3 0.000000 0.000000 0.000000
O O4 0.656235 0.624936 0.362781
O O5 0.682734 0.750000 0.503688
O O6 0.743004 0.750000 0.384605
O O7 0.673472 0.878105 0.643096
O O8 0.581802 0.950282 0.651108
O O9 0.635495 0.987973 0.777452
O O10 0.771832 0.750000 0.130716
O O11 0.840930 0.905763 0.081870
O O12 0.750000 0.000000 0.133588
O O13 0.750000 0.878205 0.000000
O O14 0.922975 0.750000 0.448108
O O15 0.000000 0.898848 0.437935
O O16 0.917943 0.000000 0.500000
O O17 0.887231 0.250000 0.820923
#
# Coordination Sequence:
#
# PCOD9503815 Si02
#       7
#     8   8  16   8  16  16  16
#     4  10  24  46  76 100 133 171 226 270 331 417
#     4  11  26  40  65  97 132 177 226 282 335 377
#     4  12  23  41  64  94 130 173 223 273 327 394
#     4  11  22  44  67  91 132 181 228 270 331 409
#     4   9  19  36  61  92 124 160 202 252 314 386
#     4  10  21  36  60  89 121 165 216 268 319 378
#     4  10  22  43  67  96 129 176 216 268 329 397
#
# _framework density 20.032484
#
# number of rings (size 3 to 8) (size 9 to 14) (size 15 to 20)
#    0.000    1.636    1.818    2.182    5.091    2.909 
#    3.273    0.000    0.000    0.000    0.000    0.000 
#    0.000    0.000    0.000    0.000    0.000    0.000 
#
# Total GULP energy -245159.892106 kJ/mol
# GULP energy per Si atom -5571.815730 kJ/mol
# Density = 1.998689 g / cm^3
# Si number density = 20.032484 Si / 1000 Ang^3
#
#
#
# Elastic Constant Matrix: (Units=GPa)
#
#
# Indices 1 2 3 4 5 6 
#
# 1 127.8781 63.6025 42.7995 0.0000 0.0000 0.0000
# 2 63.6025 161.8304 40.7196 0.0000 0.0000 0.0000
# 3 42.7995 40.7196 83.3781 0.0000 0.0000 0.0000
# 4 0.0000 0.0000 0.0000 20.6282 0.0000 0.0000
# 5 0.0000 0.0000 0.0000 0.0000 14.1101 0.0000
# 6 0.0000 0.0000 0.0000 0.0000 0.0000 17.2578
#
#
#
# Elastic Compliance Matrix: (Units=1/GPa)
#
#
# Indices 1 2 3 4 5 6 
#
# 1 0.010745 -0.003232 -0.003937 0.000000 0.000000 0.000000
# 2 -0.003232 0.008017 -0.002256 0.000000 0.000000 0.000000
# 3 -0.003937 -0.002256 0.015116 0.000000 0.000000 0.000000
# 4 0.000000 0.000000 0.000000 0.048477 0.000000 0.000000
# 5 0.000000 0.000000 0.000000 0.000000 0.070871 0.000000
# 6 0.000000 0.000000 0.000000 0.000000 0.000000 0.057945
#
#
# Mechanical properties :
#
#
# Convention : Reuss Voigt Hill
#
# Bulk Modulus (GPa) = 66.54427 74.14776 70.34602
# Shear Modulus (GPa) = 21.27355 25.46355 23.36855
#
# Velocity S-wave (km/s) = 3.26230 3.56913 3.41916
# Velocity P-wave (km/s) = 6.89060 7.35385 7.12599
#
# Compressibility (1/GPa) = 0.01502759
#
# Stress axis : x y z
#
# Youngs Moduli (GPa) = 93.06299 124.72795 66.15321
#
# Poissons Ratio (x) = 0.40318 0.26045
# Poissons Ratio (y) = 0.30083 0.14926
# Poissons Ratio (z) = 0.36640 0.28141
#
# Static dielectric constant tensor:
#      x y z
#    x 1.740570 0.000000 0.000000 
#    y 0.000000 1.762130 0.000000 
#    z 0.000000 0.000000 1.675320 
# 
# From -- ./inp_files/29960.got.cif
#   From: 2010.05.17/outbox.cif.g08.bks.cpg/sg67_15_cif.got.tgz:29960.got - 2010.06.03 18:28:57.
