data_PCOD9503089
_publ_section_title
;
Structure prediction by ZEFSAII (Michael W. Deem and Ramdas Pophale) SiO2 
 PCOD9503089
Probable space group: C M M A
;
_chemical_formula_sum "Si O2"
_cell_formula_units_Z 72
_cell_length_a 14.774853
_cell_length_b 8.400915
_cell_length_c 27.218836
_cell_angle_alpha 90.000000
_cell_angle_beta 90.000000
_cell_angle_gamma 90.000000
_cell_volume 3378.464097
_symmetry_space_group_name_H-M "C M M A"
_symmetry_group_IT_number 67
_symmetry_cell_setting 'orthorhombic'
loop_
_space_group_symop_operation_xyz
x,y,z
-x,1/2-y,z
x,-y,-z
-x,1/2+y,-z
-x,-y,-z
x,1/2+y,-z
-x,y,z
x,1/2-y,z
1/2+x,1/2+y,z
1/2-x,-y,z
1/2+x,1/2-y,-z
1/2-x,y,-z
1/2-x,1/2-y,-z
1/2+x,y,-z
1/2-x,1/2+y,z
1/2+x,-y,z
loop_
_atom_site_type_symbol
_atom_site_label
_atom_site_fract_x
_atom_site_fract_y
_atom_site_fract_z
Si Si1 0.354358 0.442690 0.157327
Si Si2 0.645693 0.441119 0.263440
Si Si3 0.500000 0.057696 0.555518
Si Si4 0.352572 0.059902 0.632651
Si Si5 0.645607 0.059309 0.051270
O O1 0.356113 0.250000 0.157360
O O2 0.250000 0.500000 0.157338
O O3 0.393055 0.493215 0.210332
O O4 0.393005 0.493623 0.104330
O O5 0.643452 0.250000 0.265301
O O6 0.750000 0.500000 0.263142
O O7 0.608321 0.504994 0.314677
O O8 0.500000 0.250000 0.555126
O O9 0.413333 0.004133 0.587240
O O10 0.500000 0.000000 0.500000
O O11 0.351436 0.250000 0.633007
O O12 0.250000 0.000000 0.628271
O O13 0.644745 0.250000 0.049982
O O14 0.750000 0.000000 0.051503
O O15 0.605005 0.000000 0.000000
#
# Coordination Sequence:
#
# PCOD9503089 Si02
#       5
#    16  16   8  16  16
#     4   8  14  21  30  46  71 102 142 189 238 287
#     4   9  15  25  42  65  90 121 159 202 249 301
#     4  10  24  42  60  82 112 144 177 212 253 300
#     4  10  20  36  56  81 109 140 174 214 258 304
#     4   9  14  19  25  36  58  93 136 184 232 283
#
# _framework density 21.31146
#
# number of rings (size 3 to 8) (size 9 to 14) (size 15 to 20)
#    0.000    2.889    0.000    4.000    0.000    4.000 
#    0.000    2.222    0.000    0.000    0.000    0.000 
#    0.000    0.000    0.000    1.000    0.000   14.444 
#
# Total GULP energy -200615.648873 kJ/mol
# GULP energy per Si atom -5572.656913 kJ/mol
# Density = 2.126295 g / cm^3
# Si number density = 21.311460 Si / 1000 Ang^3
#
#
#
# Elastic Constant Matrix: (Units=GPa)
#
#
# Indices 1 2 3 4 5 6 
#
# 1 86.6237 9.9531 64.2380 0.0000 0.0000 0.0000
# 2 9.9531 38.8752 41.0799 0.0000 0.0000 0.0000
# 3 64.2380 41.0799 293.9176 0.0000 0.0000 0.0000
# 4 0.0000 0.0000 0.0000 34.5041 0.0000 0.0000
# 5 0.0000 0.0000 0.0000 0.0000-1659.8861 0.0000
# 6 0.0000 0.0000 0.0000 0.0000 0.0000 -1.8699
#
#
#
# Elastic Compliance Matrix: (Units=1/GPa)
#
#
# Indices 1 2 3 4 5 6 
#
# 1 0.013783 -0.000405 -0.002956 0.000000 0.000000 0.000000
# 2 -0.000405 0.030193 -0.004131 0.000000 0.000000 0.000000
# 3 -0.002956 -0.004131 0.004626 0.000000 0.000000 0.000000
# 4 0.000000 0.000000 0.000000 0.028982 0.000000 0.000000
# 5 0.000000 0.000000 0.000000 0.000000 -0.000602 0.000000
# 6 0.000000 0.000000 0.000000 0.000000 0.000000 -0.534802
#
#
# Mechanical properties :
#
#
# Convention : Reuss Voigt Hill
#
# Bulk Modulus (GPa) = 29.74749 72.21762 50.98256
# Shear Modulus (GPa) = -11.58397 -305.17399 -158.37898
#
# Velocity S-wave (km/s) = -2.33396 -11.97948 -8.63005
# Velocity P-wave (km/s) = 2.59338 12.54527 8.67923
#
# Compressibility (1/GPa) = 0.03361628
#
# Stress axis : x y z
#
# Youngs Moduli (GPa) = 72.55528 33.12046 216.18287
#
# Poissons Ratio (x) = 0.01343 0.63896
# Poissons Ratio (y) = 0.02942 0.89312
# Poissons Ratio (z) = 0.21445 0.13683
#
# Static dielectric constant tensor:
#      x y z
#    x 1.164200 0.000000 0.000000 
#    y 0.000000 1.725760 0.000000 
#    z 0.000000 0.000000 1.840360 
# 
# From -- ./inp_files/44245.got.cif
#   From: 2010.05.17/outbox.cif.g08.bks.cpg/sg67_23_cif.got.tgz:44245.got - 2010.06.03 18:28:57.
