data_PCOD9503844
_publ_section_title
;
Structure prediction by ZEFSAII (Michael W. Deem and Ramdas Pophale) SiO2 
 PCOD9503844
Probable space group: C M M A
;
_chemical_formula_sum "Si O2"
_cell_formula_units_Z 96
_cell_length_a 24.212285
_cell_length_b 8.606456
_cell_length_c 26.737138
_cell_angle_alpha 90.000000
_cell_angle_beta 90.000000
_cell_angle_gamma 90.000000
_cell_volume 5571.537369
_symmetry_space_group_name_H-M "C M M A"
_symmetry_group_IT_number 67
_symmetry_cell_setting 'orthorhombic'
loop_
_space_group_symop_operation_xyz
x,y,z
-x,1/2-y,z
x,-y,-z
-x,1/2+y,-z
-x,-y,-z
x,1/2+y,-z
-x,y,z
x,1/2-y,z
1/2+x,1/2+y,z
1/2-x,-y,z
1/2+x,1/2-y,-z
1/2-x,y,-z
1/2-x,1/2-y,-z
1/2+x,y,-z
1/2-x,1/2+y,z
1/2+x,-y,z
loop_
_atom_site_type_symbol
_atom_site_label
_atom_site_fract_x
_atom_site_fract_y
_atom_site_fract_z
Si Si1 0.000000 0.436081 0.712911
Si Si2 0.188265 0.936587 0.646626
Si Si3 0.118296 0.563263 0.445352
Si Si4 0.687324 0.435759 0.949029
Si Si5 0.687658 0.437596 0.838720
Si Si6 0.000000 0.061261 0.596844
Si Si7 0.383292 0.062289 0.743666
O O1 0.000000 0.489675 0.654703
O O2 0.944558 0.496659 0.738619
O O3 0.000000 0.250000 0.712754
O O4 0.189467 0.750000 0.644637
O O5 0.151762 0.984136 0.694666
O O6 0.250000 0.000000 0.651632
O O7 0.159455 0.001525 0.596937
O O8 0.132196 0.500000 0.500000
O O9 0.119540 0.750000 0.445577
O O10 0.056157 0.510884 0.430242
O O11 0.688887 0.250000 0.952408
O O12 0.750000 0.500000 0.948364
O O13 0.665335 0.480715 0.894101
O O14 0.660734 0.500000 0.000000
O O15 0.690765 0.250000 0.837203
O O16 0.750000 0.500000 0.832907
O O17 0.648915 0.489774 0.793422
O O18 0.000000 0.250000 0.596823
O O19 0.386023 0.250000 0.744357
#
# Coordination Sequence:
#
# PCOD9503844 Si02
#       7
#     8  16  16  16  16   8  16
#     4  11  21  36  58  82 104 133 170 209 258 305
#     4  11  23  38  57  80 105 138 173 208 253 305
#     4  11  22  39  59  82 109 136 169 210 254 304
#     4   9  15  24  40  64  97 136 174 212 252 297
#     4   9  18  31  48  73 106 141 176 213 256 304
#     4   9  19  36  58  82 107 132 162 206 255 301
#     4  10  21  37  55  78 106 136 172 212 257 308
#
# _framework density 17.230432
#
# number of rings (size 3 to 8) (size 9 to 14) (size 15 to 20)
#    0.000    2.000    1.667    3.000    0.000    2.333 
#    0.000    2.917    0.000    0.000    0.000    0.583 
#    0.000    0.000    0.000    0.000    0.000    0.000 
#
# Total GULP energy -267835.901980 kJ/mol
# GULP energy per Si atom -5579.914625 kJ/mol
# Density = 1.719122 g / cm^3
# Si number density = 17.230432 Si / 1000 Ang^3
#
#
#
# Elastic Constant Matrix: (Units=GPa)
#
#
# Indices 1 2 3 4 5 6 
#
# 1 121.3118 29.3770 79.2939 0.0000 0.0000 0.0000
# 2 29.3770 35.5709 41.1923 0.0000 0.0000 0.0000
# 3 79.2939 41.1923 190.9414 0.0000 0.0000 0.0000
# 4 0.0000 0.0000 0.0000 -21.0889 0.0000 0.0000
# 5 0.0000 0.0000 0.0000 0.0000 -11.6359 0.0000
# 6 0.0000 0.0000 0.0000 0.0000 0.0000 14.5752
#
#
#
# Elastic Compliance Matrix: (Units=1/GPa)
#
#
# Indices 1 2 3 4 5 6 
#
# 1 0.012086 -0.005558 -0.003820 0.000000 0.000000 0.000000
# 2 -0.005558 0.040031 -0.006328 0.000000 0.000000 0.000000
# 3 -0.003820 -0.006328 0.008189 0.000000 0.000000 0.000000
# 4 0.000000 0.000000 0.000000 -0.047418 0.000000 0.000000
# 5 0.000000 0.000000 0.000000 0.000000 -0.085941 0.000000
# 6 0.000000 0.000000 0.000000 0.000000 0.000000 0.068610
#
#
# Mechanical properties :
#
#
# Convention : Reuss Voigt Hill
#
# Bulk Modulus (GPa) = 34.60920 71.95007 53.27964
# Shear Modulus (GPa) = 136.61682 9.56747 73.09215
#
# Velocity S-wave (km/s) = 8.91405 2.35896 6.52016
# Velocity P-wave (km/s) = 11.22839 7.01910 9.36335
#
# Compressibility (1/GPa) = 0.02889405
#
# Stress axis : x y z
#
# Youngs Moduli (GPa) = 82.74009 24.98078 122.11858
#
# Poissons Ratio (x) = 0.13884 0.46650
# Poissons Ratio (y) = 0.45985 0.77276
# Poissons Ratio (z) = 0.31607 0.15808
#
# Static dielectric constant tensor:
#      x y z
#    x 1.545980 0.000000 0.000000 
#    y 0.000000 1.580880 0.000000 
#    z 0.000000 0.000000 1.614110 
# 
# From -- ./inp_files/42570.got.cif
#   From: 2010.05.17/outbox.cif.g08.bks.cpg/sg67_22_cif.got.tgz:42570.got - 2010.06.03 18:28:57.
