data_PCOD9503223
_publ_section_title
;
Structure prediction by ZEFSAII (Michael W. Deem and Ramdas Pophale) SiO2 
 PCOD9503223
Probable space group: C M M A
;
_chemical_formula_sum "Si O2"
_cell_formula_units_Z 96
_cell_length_a 15.743117
_cell_length_b 24.665652
_cell_length_c 12.579276
_cell_angle_alpha 90.000000
_cell_angle_beta 90.000000
_cell_angle_gamma 90.000000
_cell_volume 4884.712067
_symmetry_space_group_name_H-M "C M M A"
_symmetry_group_IT_number 67
_symmetry_cell_setting 'orthorhombic'
loop_
_space_group_symop_operation_xyz
x,y,z
-x,1/2-y,z
x,-y,-z
-x,1/2+y,-z
-x,-y,-z
x,1/2+y,-z
-x,y,z
x,1/2-y,z
1/2+x,1/2+y,z
1/2-x,-y,z
1/2+x,1/2-y,-z
1/2-x,y,-z
1/2-x,1/2-y,-z
1/2+x,y,-z
1/2-x,1/2+y,z
1/2+x,-y,z
loop_
_atom_site_type_symbol
_atom_site_label
_atom_site_fract_x
_atom_site_fract_y
_atom_site_fract_z
Si Si1 0.399579 0.133881 0.149648
Si Si2 0.849472 0.250000 0.532021
Si Si3 0.650683 0.367840 0.528005
Si Si4 0.899132 0.556640 0.335588
Si Si5 0.897087 0.937169 0.721979
Si Si6 0.651684 0.058854 0.966023
Si Si7 0.603617 0.250000 0.221324
O O1 0.500000 0.137110 0.170497
O O2 0.362922 0.093550 0.239858
O O3 0.367006 0.194830 0.164363
O O4 0.387635 0.106644 0.035981
O O5 0.750000 0.250000 0.500000
O O6 0.885264 0.307290 0.489900
O O7 0.862534 0.250000 0.658532
O O8 0.750000 0.365709 0.500000
O O9 0.613609 0.411563 0.445030
O O10 0.635125 0.389909 0.645406
O O11 0.867507 0.495088 0.327235
O O12 0.000000 0.552014 0.318898
O O13 0.862866 0.933763 0.841535
O O14 0.000000 0.935567 0.724461
O O15 0.750000 0.058298 0.000000
O O16 0.615104 0.000000 0.000000
O O17 0.500000 0.250000 0.225503
#
# Coordination Sequence:
#
# PCOD9503223 Si02
#       7
#    16   8  16  16  16  16   8
#     4  10  20  37  62  88 113 148 197 250 294 339
#     4  10  22  38  57  84 117 160 195 242 293 354
#     4  11  24  38  60  87 123 159 198 243 296 356
#     4  10  20  36  60  86 117 152 192 242 295 352
#     4  11  24  40  59  89 126 161 194 240 306 366
#     4  11  24  38  61  88 122 157 201 247 295 355
#     4  10  20  36  64  90 110 144 203 258 286 335
#
# _framework density 19.653155000000002
#
# number of rings (size 3 to 8) (size 9 to 14) (size 15 to 20)
#    0.000    1.500    3.333    1.500    2.333    4.000 
#    0.000    1.250    0.000    0.000    0.000    0.000 
#    0.000    0.000    0.000    0.000    0.000    0.000 
#
# Total GULP energy -268037.913312 kJ/mol
# GULP energy per Si atom -5584.123194 kJ/mol
# Density = 1.960842 g / cm^3
# Si number density = 19.653155 Si / 1000 Ang^3
#
#
#
# Elastic Constant Matrix: (Units=GPa)
#
#
# Indices 1 2 3 4 5 6 
#
# 1 34.5492 11.7007 5.2508 0.0000 0.0000 0.0000
# 2 11.7007 176.6343 93.0081 0.0000 0.0000 0.0000
# 3 5.2508 93.0081 157.8569 0.0000 0.0000 0.0000
# 4 0.0000 0.0000 0.0000 -30.8192 0.0000 0.0000
# 5 0.0000 0.0000 0.0000 0.0000 30.0160 0.0000
# 6 0.0000 0.0000 0.0000 0.0000 0.0000 16.2494
#
#
#
# Elastic Compliance Matrix: (Units=1/GPa)
#
#
# Indices 1 2 3 4 5 6 
#
# 1 0.029615 -0.002092 0.000248 0.000000 0.000000 0.000000
# 2 -0.002092 0.008356 -0.004853 0.000000 0.000000 0.000000
# 3 0.000248 -0.004853 0.009186 0.000000 0.000000 0.000000
# 4 0.000000 0.000000 0.000000 -0.032447 0.000000 0.000000
# 5 0.000000 0.000000 0.000000 0.000000 0.033316 0.000000
# 6 0.000000 0.000000 0.000000 0.000000 0.000000 0.061541
#
#
# Mechanical properties :
#
#
# Convention : Reuss Voigt Hill
#
# Bulk Modulus (GPa) = 29.62005 65.43997 47.53001
# Shear Modulus (GPa) = 37.25342 20.36129 28.80735
#
# Velocity S-wave (km/s) = 4.35851 3.22224 3.83271
# Velocity P-wave (km/s) = 6.35869 6.87121 6.61991
#
# Compressibility (1/GPa) = 0.03376091
#
# Stress axis : x y z
#
# Youngs Moduli (GPa) = 33.76654 119.67953 108.85825
#
# Poissons Ratio (x) = 0.25039 -0.02695
# Poissons Ratio (y) = 0.07064 0.52834
# Poissons Ratio (z) = -0.00836 0.58086
#
# Static dielectric constant tensor:
#      x y z
#    x 1.713420 0.000000 0.000000 
#    y 0.000000 1.723730 0.000000 
#    z 0.000000 0.000000 1.395290 
# 
# From -- ./inp_files/19705.got.cif
#   From: 2010.05.17/outbox.cif.g08.bks.cpg/sg67_10_cif.got.tgz:19705.got - 2010.06.03 18:28:57.
