data_PCOD9503841
_publ_section_title
;
Structure prediction by ZEFSAII (Michael W. Deem and Ramdas Pophale) SiO2 
 PCOD9503841
Probable space group: C M M A
;
_chemical_formula_sum "Si O2"
_cell_formula_units_Z 96
_cell_length_a 14.654352
_cell_length_b 18.761977
_cell_length_c 16.987874
_cell_angle_alpha 90.000000
_cell_angle_beta 90.000000
_cell_angle_gamma 90.000000
_cell_volume 4670.724480
_symmetry_space_group_name_H-M "C M M A"
_symmetry_group_IT_number 67
_symmetry_cell_setting 'orthorhombic'
loop_
_space_group_symop_operation_xyz
x,y,z
-x,1/2-y,z
x,-y,-z
-x,1/2+y,-z
-x,-y,-z
x,1/2+y,-z
-x,y,z
x,1/2-y,z
1/2+x,1/2+y,z
1/2-x,-y,z
1/2+x,1/2-y,-z
1/2-x,y,-z
1/2-x,1/2-y,-z
1/2+x,y,-z
1/2-x,1/2+y,z
1/2+x,-y,z
loop_
_atom_site_type_symbol
_atom_site_label
_atom_site_fract_x
_atom_site_fract_y
_atom_site_fract_z
Si Si1 0.611747 0.669348 0.351000
Si Si2 0.611718 0.105520 0.320304
Si Si3 0.389713 0.172108 0.158601
Si Si4 0.355405 0.020201 0.085019
Si Si5 0.610994 0.582880 0.506455
Si Si6 0.105504 0.457514 0.250325
O O1 0.500000 0.673593 0.350131
O O2 0.645728 0.750000 0.346044
O O3 0.638114 0.629376 0.431520
O O4 0.643127 0.617393 0.280289
O O5 0.500000 0.105651 0.320061
O O6 0.638145 0.157506 0.249329
O O7 0.640158 0.116267 0.410090
O O8 0.644626 0.026950 0.293654
O O9 0.500000 0.172856 0.157548
O O10 0.356832 0.250000 0.132308
O O11 0.363694 0.103434 0.107066
O O12 0.250000 0.000000 0.083094
O O13 0.392941 0.974753 0.158246
O O14 0.394813 0.000000 0.000000
O O15 0.639582 0.500000 0.500000
O O16 0.500000 0.581695 0.506329
O O17 0.000000 0.456633 0.275544
#
# Coordination Sequence:
#
# PCOD9503841 Si02
#       6
#    16  16  16  16  16  16
#     4   9  16  24  36  61  98 133 164 201 242 287
#     4   8  13  22  40  65  93 128 165 201 246 296
#     4   9  18  33  54  80 108 135 169 218 266 301
#     4  10  21  37  55  77 101 129 167 206 253 320
#     4   9  13  19  34  59  95 135 167 196 240 295
#     4   9  16  29  48  68  94 129 165 204 249 300
#
# _framework density 20.553556
#
# number of rings (size 3 to 8) (size 9 to 14) (size 15 to 20)
#    0.000    3.000    1.667    1.500    0.000    2.000 
#    0.000    6.667    0.000    2.000    0.000    9.333 
#    0.000    6.667    0.000    0.000    0.000    0.000 
#
# Total GULP energy -267622.463061 kJ/mol
# GULP energy per Si atom -5575.467980 kJ/mol
# Density = 2.050678 g / cm^3
# Si number density = 20.553556 Si / 1000 Ang^3
#
#
#
# Elastic Constant Matrix: (Units=GPa)
#
#
# Indices 1 2 3 4 5 6 
#
# 1 51.1885 9.5296 -6.7005 0.0000 0.0000 0.0000
# 2 9.5296 189.2065 90.9848 0.0000 0.0000 0.0000
# 3 -6.7005 90.9848 137.1919 0.0000 0.0000 0.0000
# 4 0.0000 0.0000 0.0000 35.1452 0.0000 0.0000
# 5 0.0000 0.0000 0.0000 0.0000 15.2588 0.0000
# 6 0.0000 0.0000 0.0000 0.0000 0.0000 4.8802
#
#
#
# Elastic Compliance Matrix: (Units=1/GPa)
#
#
# Indices 1 2 3 4 5 6 
#
# 1 0.020265 -0.002197 0.002447 0.000000 0.000000 0.000000
# 2 -0.002197 0.007998 -0.005412 0.000000 0.000000 0.000000
# 3 0.002447 -0.005412 0.010998 0.000000 0.000000 0.000000
# 4 0.000000 0.000000 0.000000 0.028453 0.000000 0.000000
# 5 0.000000 0.000000 0.000000 0.000000 0.065536 0.000000
# 6 0.000000 0.000000 0.000000 0.000000 0.000000 0.204908
#
#
# Mechanical properties :
#
#
# Convention : Reuss Voigt Hill
#
# Bulk Modulus (GPa) = 34.55816 62.80167 48.67991
# Shear Modulus (GPa) = 13.96149 29.97504 21.96826
#
# Velocity S-wave (km/s) = 2.60912 3.82303 3.27284
# Velocity P-wave (km/s) = 5.09184 7.07876 6.16586
#
# Compressibility (1/GPa) = 0.02893673
#
# Stress axis : x y z
#
# Youngs Moduli (GPa) = 49.34613 125.02696 90.92895
#
# Poissons Ratio (x) = 0.27473 -0.22251
# Poissons Ratio (y) = 0.10843 0.49208
# Poissons Ratio (z) = -0.12075 0.67661
#
# Static dielectric constant tensor:
#      x y z
#    x 1.926640 0.000000 0.000000 
#    y 0.000000 1.739050 0.000000 
#    z 0.000000 0.000000 1.743520 
# 
# From -- ./inp_files/34213.got.cif
#   From: 2010.05.17/outbox.cif.g08.bks.cpg/sg67_18_cif.got.tgz:34213.got - 2010.06.03 18:28:57.
