data_PCOD9503746
_publ_section_title
;
Structure prediction by ZEFSAII (Michael W. Deem and Ramdas Pophale) SiO2 
 PCOD9503746
Probable space group: C M M A
;
_chemical_formula_sum "Si O2"
_cell_formula_units_Z 80
_cell_length_a 8.744498
_cell_length_b 18.614354
_cell_length_c 26.324847
_cell_angle_alpha 90.000000
_cell_angle_beta 90.000000
_cell_angle_gamma 90.000000
_cell_volume 4284.979094
_symmetry_space_group_name_H-M "C M M A"
_symmetry_group_IT_number 67
_symmetry_cell_setting 'orthorhombic'
loop_
_space_group_symop_operation_xyz
x,y,z
-x,1/2-y,z
x,-y,-z
-x,1/2+y,-z
-x,-y,-z
x,1/2+y,-z
-x,y,z
x,1/2-y,z
1/2+x,1/2+y,z
1/2-x,-y,z
1/2+x,1/2-y,-z
1/2-x,y,-z
1/2-x,1/2-y,-z
1/2+x,y,-z
1/2-x,1/2+y,z
1/2+x,-y,z
loop_
_atom_site_type_symbol
_atom_site_label
_atom_site_fract_x
_atom_site_fract_y
_atom_site_fract_z
Si Si1 0.682352 0.079769 0.150003
Si Si2 0.184608 0.665941 0.754975
Si Si3 0.315316 0.079638 0.653575
Si Si4 0.182712 0.165372 0.055383
Si Si5 0.684393 0.666431 0.445768
O O1 0.500000 0.076431 0.149287
O O2 0.739069 0.126249 0.197794
O O3 0.743181 0.117631 0.099030
O O4 0.750000 0.000000 0.154055
O O5 0.224579 0.750000 0.753682
O O6 0.228088 0.626936 0.702508
O O7 0.000000 0.660866 0.760283
O O8 0.500000 0.076288 0.652721
O O9 0.264768 0.118395 0.601604
O O10 0.250000 0.000000 0.657595
O O11 0.214719 0.250000 0.065188
O O12 0.000000 0.155855 0.055223
O O13 0.250000 0.147944 0.000000
O O14 0.500000 0.664169 0.447935
O O15 0.729069 0.750000 0.437893
O O16 0.750000 0.642736 0.500000
#
# Coordination Sequence:
#
# PCOD9503746 Si02
#       5
#    16  16  16  16  16
#     4  12  25  40  59  85 118 153 191 235 284 337
#     4  10  21  39  62  85 111 146 187 231 282 339
#     4  10  21  36  55  80 111 146 183 226 277 333
#     4  10  21  39  63  90 120 154 193 236 282 334
#     4   9  18  34  55  78 105 140 183 228 274 327
#
# _framework density 18.669868999999998
#
# number of rings (size 3 to 8) (size 9 to 14) (size 15 to 20)
#    0.000    1.800    0.000    4.200    0.000   10.400 
#    0.000    4.000    0.000    3.600    0.000    0.000 
#    0.000    0.000    0.000    0.000    0.000    0.000 
#
# Total GULP energy -223571.361658 kJ/mol
# GULP energy per Si atom -5589.284041 kJ/mol
# Density = 1.862738 g / cm^3
# Si number density = 18.669869 Si / 1000 Ang^3
#
#
#
# Elastic Constant Matrix: (Units=GPa)
#
#
# Indices 1 2 3 4 5 6 
#
# 1 54.3384 66.5129 69.0998 0.0000 0.0000 0.0000
# 2 66.5129 168.4128 135.4621 0.0000 0.0000 0.0000
# 3 69.0998 135.4621 196.8274 0.0000 0.0000 0.0000
# 4 0.0000 0.0000 0.0000 -67.2899 0.0000 0.0000
# 5 0.0000 0.0000 0.0000 0.0000 34.3305 0.0000
# 6 0.0000 0.0000 0.0000 0.0000 0.0000 32.0100
#
#
#
# Elastic Compliance Matrix: (Units=1/GPa)
#
#
# Indices 1 2 3 4 5 6 
#
# 1 0.039526 -0.009966 -0.007017 0.000000 0.000000 0.000000
# 2 -0.009966 0.015813 -0.007385 0.000000 0.000000 0.000000
# 3 -0.007017 -0.007385 0.012626 0.000000 0.000000 0.000000
# 4 0.000000 0.000000 0.000000 -0.014861 0.000000 0.000000
# 5 0.000000 0.000000 0.000000 0.000000 0.029129 0.000000
# 6 0.000000 0.000000 0.000000 0.000000 0.000000 0.031240
#
#
# Mechanical properties :
#
#
# Convention : Reuss Voigt Hill
#
# Bulk Modulus (GPa) = 52.00243 106.85869 79.43056
# Shear Modulus (GPa) = 29.65271 9.71037 19.68154
#
# Velocity S-wave (km/s) = 3.98963 2.28306 3.25035
# Velocity P-wave (km/s) = 7.00978 8.01935 7.53150
#
# Compressibility (1/GPa) = 0.01922987
#
# Stress axis : x y z
#
# Youngs Moduli (GPa) = 25.30010 63.23748 79.19891
#
# Poissons Ratio (x) = 0.63021 0.55577
# Poissons Ratio (y) = 0.25214 0.58485
# Poissons Ratio (z) = 0.17754 0.46698
#
# Static dielectric constant tensor:
#      x y z
#    x 1.630040 0.000000 0.000000 
#    y 0.000000 1.616490 0.000000 
#    z 0.000000 0.000000 1.617370 
# 
# From -- ./inp_files/43298.got.cif
#   From: 2010.05.17/outbox.cif.g08.bks.cpg/sg67_22_cif.got.tgz:43298.got - 2010.06.03 18:28:57.
