data_PCOD9503273
_publ_section_title
;
Structure prediction by ZEFSAII (Michael W. Deem and Ramdas Pophale) SiO2 
 PCOD9503273
Probable space group: C M M A
;
_chemical_formula_sum "Si O2"
_cell_formula_units_Z 96
_cell_length_a 31.476236
_cell_length_b 21.389840
_cell_length_c 7.634125
_cell_angle_alpha 90.000000
_cell_angle_beta 90.000000
_cell_angle_gamma 90.000000
_cell_volume 5139.839949
_symmetry_space_group_name_H-M "C M M A"
_symmetry_group_IT_number 67
_symmetry_cell_setting 'orthorhombic'
loop_
_space_group_symop_operation_xyz
x,y,z
-x,1/2-y,z
x,-y,-z
-x,1/2+y,-z
-x,-y,-z
x,1/2+y,-z
-x,y,z
x,1/2-y,z
1/2+x,1/2+y,z
1/2-x,-y,z
1/2+x,1/2-y,-z
1/2-x,y,-z
1/2-x,1/2-y,-z
1/2+x,y,-z
1/2-x,1/2+y,z
1/2+x,-y,z
loop_
_atom_site_type_symbol
_atom_site_label
_atom_site_fract_x
_atom_site_fract_y
_atom_site_fract_z
Si Si1 0.391271 0.180920 0.985760
Si Si2 0.167866 0.874990 0.705535
Si Si3 0.848731 0.378714 0.701450
Si Si4 0.245041 0.572818 0.210005
Si Si5 0.950301 0.935919 0.885579
Si Si6 0.380164 0.508416 0.302524
O O1 0.410343 0.250000 0.971285
O O2 0.367295 0.173762 0.171862
O O3 0.354855 0.172150 0.837092
O O4 0.425941 0.125772 0.954506
O O5 0.150504 0.866208 0.507462
O O6 0.218300 0.883028 0.709453
O O7 0.152276 0.942840 0.780939
O O8 0.800837 0.400016 0.742568
O O9 0.876979 0.438539 0.762045
O O10 0.250000 0.500000 0.268470
O O11 0.250000 0.573733 0.000000
O O12 0.925320 0.957862 0.711180
O O13 0.000000 0.923951 0.864273
O O14 0.945436 0.000000 0.000000
O O15 0.365482 0.500000 0.500000
#
# Coordination Sequence:
#
# PCOD9503273 Si02
#       6
#    16  16  16  16  16  16
#     4  11  24  41  60  82 116 158 199 242 290 349
#     4  10  21  35  55  86 116 154 199 241 291 345
#     4  11  20  35  57  84 118 155 197 240 293 343
#     4  11  20  30  55  89 123 156 192 248 300 343
#     4  10  20  36  62  91 118 145 184 239 298 358
#     4   9  18  32  55  86 119 149 186 236 290 350
#
# _framework density 18.677624000000002
#
# number of rings (size 3 to 8) (size 9 to 14) (size 15 to 20)
#    0.000    1.667    5.000    0.500    0.000    2.000 
#    0.000    1.667    0.000    2.000    0.000    2.333 
#    0.000    0.000    0.000    0.000    0.000    0.000 
#
# Total GULP energy -267256.184527 kJ/mol
# GULP energy per Si atom -5567.837178 kJ/mol
# Density = 1.863511 g / cm^3
# Si number density = 18.677624 Si / 1000 Ang^3
#
#
#
# Elastic Constant Matrix: (Units=GPa)
#
#
# Indices 1 2 3 4 5 6 
#
# 1 101.5107 34.9549 7.9314 0.0000 0.0000 0.0000
# 2 34.9549 95.5943 15.8105 0.0000 0.0000 0.0000
# 3 7.9314 15.8105 62.8249 0.0000 0.0000 0.0000
# 4 0.0000 0.0000 0.0000 2.6272 0.0000 0.0000
# 5 0.0000 0.0000 0.0000 0.0000 19.4156 0.0000
# 6 0.0000 0.0000 0.0000 0.0000 0.0000 14.0246
#
#
#
# Elastic Compliance Matrix: (Units=1/GPa)
#
#
# Indices 1 2 3 4 5 6 
#
# 1 0.011280 -0.004058 -0.000403 0.000000 0.000000 0.000000
# 2 -0.004058 0.012375 -0.002602 0.000000 0.000000 0.000000
# 3 -0.000403 -0.002602 0.016623 0.000000 0.000000 0.000000
# 4 0.000000 0.000000 0.000000 0.380627 0.000000 0.000000
# 5 0.000000 0.000000 0.000000 0.000000 0.051505 0.000000
# 6 0.000000 0.000000 0.000000 0.000000 0.000000 0.071303
#
#
# Mechanical properties :
#
#
# Convention : Reuss Voigt Hill
#
# Bulk Modulus (GPa) = 38.23747 41.92483 40.08115
# Shear Modulus (GPa) = 8.82525 20.62903 14.72714
#
# Velocity S-wave (km/s) = 2.17607 3.32697 2.81105
# Velocity P-wave (km/s) = 5.17982 6.10358 5.66057
#
# Compressibility (1/GPa) = 0.02615236
#
# Stress axis : x y z
#
# Youngs Moduli (GPa) = 88.65239 80.80766 60.15786
#
# Poissons Ratio (x) = 0.32792 0.02423
# Poissons Ratio (y) = 0.35975 0.15653
# Poissons Ratio (z) = 0.03571 0.21026
#
# Static dielectric constant tensor:
#      x y z
#    x 1.643270 0.000000 0.000000 
#    y 0.000000 1.710210 0.000000 
#    z 0.000000 0.000000 1.679230 
# 
# From -- ./inp_files/13736.got.cif
#   From: 2010.05.17/outbox.cif.g08.bks.cpg/sg67_7_cif.got.tgz:13736.got - 2010.06.03 18:28:57.
