data_PCOD9503624
_publ_section_title
;
Structure prediction by ZEFSAII (Michael W. Deem and Ramdas Pophale) SiO2 
 PCOD9503624
Probable space group: C M M A
;
_chemical_formula_sum "Si O2"
_cell_formula_units_Z 88
_cell_length_a 10.700316
_cell_length_b 15.067401
_cell_length_c 29.039553
_cell_angle_alpha 90.000000
_cell_angle_beta 90.000000
_cell_angle_gamma 90.000000
_cell_volume 4681.929578
_symmetry_space_group_name_H-M "C M M A"
_symmetry_group_IT_number 67
_symmetry_cell_setting 'orthorhombic'
loop_
_space_group_symop_operation_xyz
x,y,z
-x,1/2-y,z
x,-y,-z
-x,1/2+y,-z
-x,-y,-z
x,1/2+y,-z
-x,y,z
x,1/2-y,z
1/2+x,1/2+y,z
1/2-x,-y,z
1/2+x,1/2-y,-z
1/2-x,y,-z
1/2-x,1/2-y,-z
1/2+x,y,-z
1/2-x,1/2+y,z
1/2+x,-y,z
loop_
_atom_site_type_symbol
_atom_site_label
_atom_site_fract_x
_atom_site_fract_y
_atom_site_fract_z
Si Si1 0.143374 0.071042 0.901757
Si Si2 0.358850 0.857446 0.798452
Si Si3 0.858836 0.570902 0.630569
Si Si4 0.643244 0.750000 0.961737
Si Si5 0.136473 0.855656 0.529958
Si Si6 0.362500 0.856148 0.267662
O O1 0.156717 0.097949 0.848155
O O2 0.156501 0.161592 0.930823
O O3 0.000000 0.038190 0.908615
O O4 0.250000 0.000000 0.913933
O O5 0.500000 0.875630 0.781579
O O6 0.349556 0.750000 0.804238
O O7 0.252251 0.888215 0.763265
O O8 0.750000 0.500000 0.629211
O O9 0.846953 0.628221 0.584261
O O10 0.846441 0.622851 0.678527
O O11 0.000000 0.532495 0.630068
O O12 0.500000 0.750000 0.980162
O O13 0.750000 0.750000 0.000000
O O14 0.133321 0.750000 0.522459
O O15 0.250000 0.892643 0.500000
O O16 0.000000 0.891599 0.516454
O O17 0.500000 0.890452 0.253161
O O18 0.364612 0.750000 0.262660
#
# Coordination Sequence:
#
# PCOD9503624 Si02
#       6
#    16  16  16   8  16  16
#     4  10  21  38  60  86 118 155 194 237 288 343
#     4   9  17  33  56  79 107 145 184 224 273 328
#     4  10  21  35  50  70 101 136 167 205 257 312
#     4  10  22  42  64  86 118 158 196 240 291 342
#     4   9  18  34  55  75  94 122 162 207 254 306
#     4   9  18  33  53  76 102 136 178 221 262 310
#
# _framework density 18.795670000000001
#
# number of rings (size 3 to 8) (size 9 to 14) (size 15 to 20)
#    0.000    2.545    0.909    0.545    0.000    6.545 
#    0.000    7.273    0.000    5.455    0.000    0.000 
#    0.000    0.000    0.000    0.000    0.000    0.000 
#
# Total GULP energy -245388.894785 kJ/mol
# GULP energy per Si atom -5577.020336 kJ/mol
# Density = 1.875289 g / cm^3
# Si number density = 18.795670 Si / 1000 Ang^3
#
#
#
# Elastic Constant Matrix: (Units=GPa)
#
#
# Indices 1 2 3 4 5 6 
#
# 1 186.8787 55.9272 92.6154 0.0000 0.0000 0.0000
# 2 55.9272 56.1997 11.3436 0.0000 0.0000 0.0000
# 3 92.6154 11.3436 85.7829 0.0000 0.0000 0.0000
# 4 0.0000 0.0000 0.0000 -17.6444 0.0000 0.0000
# 5 0.0000 0.0000 0.0000 0.0000 39.0845 0.0000
# 6 0.0000 0.0000 0.0000 0.0000 0.0000 22.7367
#
#
#
# Elastic Compliance Matrix: (Units=1/GPa)
#
#
# Indices 1 2 3 4 5 6 
#
# 1 0.019229 -0.015355 -0.018730 0.000000 0.000000 0.000000
# 2 -0.015355 0.030543 0.012539 0.000000 0.000000 0.000000
# 3 -0.018730 0.012539 0.030221 0.000000 0.000000 0.000000
# 4 0.000000 0.000000 0.000000 -0.056675 0.000000 0.000000
# 5 0.000000 0.000000 0.000000 0.000000 0.025586 0.000000
# 6 0.000000 0.000000 0.000000 0.000000 0.000000 0.043982
#
#
# Mechanical properties :
#
#
# Convention : Reuss Voigt Hill
#
# Bulk Modulus (GPa) = 27.09935 72.07040 49.58488
# Shear Modulus (GPa) = 33.72096 20.10037 26.91067
#
# Velocity S-wave (km/s) = 4.24025 3.27374 3.78795
# Velocity P-wave (km/s) = 6.19856 7.26066 6.75053
#
# Compressibility (1/GPa) = 0.03690126
#
# Stress axis : x y z
#
# Youngs Moduli (GPa) = 52.00611 32.74060 33.09000
#
# Poissons Ratio (x) = 0.50273 0.61976
# Poissons Ratio (y) = 0.79854 -0.41491
# Poissons Ratio (z) = 0.97405 -0.41053
#
# Static dielectric constant tensor:
#      x y z
#    x 1.678590 0.000000 0.000000 
#    y 0.000000 1.642620 0.000000 
#    z 0.000000 0.000000 1.629370 
# 
# From -- ./inp_files/41815.got.cif
#   From: 2010.05.17/outbox.cif.g08.bks.cpg/sg67_21_cif.got.tgz:41815.got - 2010.06.03 18:28:57.
