data_PCOD9503439
_publ_section_title
;
Structure prediction by ZEFSAII (Michael W. Deem and Ramdas Pophale) SiO2 
 PCOD9503439
Probable space group: C M M A
;
_chemical_formula_sum "Si O2"
_cell_formula_units_Z 88
_cell_length_a 16.015139
_cell_length_b 25.164769
_cell_length_c 10.926506
_cell_angle_alpha 90.000000
_cell_angle_beta 90.000000
_cell_angle_gamma 90.000000
_cell_volume 4403.570656
_symmetry_space_group_name_H-M "C M M A"
_symmetry_group_IT_number 67
_symmetry_cell_setting 'orthorhombic'
loop_
_space_group_symop_operation_xyz
x,y,z
-x,1/2-y,z
x,-y,-z
-x,1/2+y,-z
-x,-y,-z
x,1/2+y,-z
-x,y,z
x,1/2-y,z
1/2+x,1/2+y,z
1/2-x,-y,z
1/2+x,1/2-y,-z
1/2-x,y,-z
1/2-x,1/2-y,-z
1/2+x,y,-z
1/2-x,1/2+y,z
1/2+x,-y,z
loop_
_atom_site_type_symbol
_atom_site_label
_atom_site_fract_x
_atom_site_fract_y
_atom_site_fract_z
Si Si1 0.600018 0.687977 0.451562
Si Si2 0.344790 0.810639 0.724605
Si Si3 0.500000 0.628061 0.833194
Si Si4 0.500000 0.004841 0.148278
Si Si5 0.673058 0.530546 0.133073
Si Si6 0.500000 0.689686 0.075935
Si Si7 0.665048 0.649660 0.208529
O O1 0.500000 0.681257 0.472133
O O2 0.611498 0.750000 0.409922
O O3 0.650255 0.682603 0.577995
O O4 0.633864 0.647740 0.349576
O O5 0.369084 0.750000 0.750575
O O6 0.416166 0.847935 0.777636
O O7 0.254355 0.821573 0.781778
O O8 0.500000 0.565822 0.819377
O O9 0.500000 0.644722 0.973850
O O10 0.415791 0.978755 0.194547
O O11 0.500000 0.000000 0.000000
O O12 0.750000 0.500000 0.194844
O O13 0.682223 0.594017 0.138044
O O14 0.668076 0.500000 0.000000
O O15 0.500000 0.750000 0.028022
O O16 0.586657 0.680206 0.147953
#
# Coordination Sequence:
#
# PCOD9503439 Si02
#       7
#    16  16   8   8  16   8  16
#     4  10  20  39  67  96 130 168 208 258 318 390
#     4  11  23  41  64  95 131 172 210 252 314 394
#     4  12  24  41  62  87 126 174 217 256 316 387
#     4  10  20  38  60  81 108 152 211 262 302 351
#     4  10  21  39  60  87 119 159 213 261 309 369
#     4  12  24  37  56  94 138 168 201 257 318 386
#     4  12  23  38  66  96 126 165 214 267 321 372
#
# _framework density 19.983782000000001
#
# number of rings (size 3 to 8) (size 9 to 14) (size 15 to 20)
#    0.000    1.091    1.818    6.818    0.000    3.636 
#    0.000    1.818    0.000    8.727    0.000    0.000 
#    0.000    0.000    0.000    0.000    0.000    0.000 
#
# Total GULP energy -245462.519673 kJ/mol
# GULP energy per Si atom -5578.693629 kJ/mol
# Density = 1.993830 g / cm^3
# Si number density = 19.983782 Si / 1000 Ang^3
#
#
#
# Elastic Constant Matrix: (Units=GPa)
#
#
# Indices 1 2 3 4 5 6 
#
# 1 112.5433 -1.8732 3.1603 0.0000 0.0000 0.0000
# 2 -1.8732 57.3857 4.8059 0.0000 0.0000 0.0000
# 3 3.1603 4.8059 44.1303 0.0000 0.0000 0.0000
# 4 0.0000 0.0000 0.0000 39.6066 0.0000 0.0000
# 5 0.0000 0.0000 0.0000 0.0000 -37.3139 0.0000
# 6 0.0000 0.0000 0.0000 0.0000 0.0000 37.2898
#
#
#
# Elastic Compliance Matrix: (Units=1/GPa)
#
#
# Indices 1 2 3 4 5 6 
#
# 1 0.008910 0.000347 -0.000676 0.000000 0.000000 0.000000
# 2 0.000347 0.017600 -0.001942 0.000000 0.000000 0.000000
# 3 -0.000676 -0.001942 0.022920 0.000000 0.000000 0.000000
# 4 0.000000 0.000000 0.000000 0.025248 0.000000 0.000000
# 5 0.000000 0.000000 0.000000 0.000000 -0.026800 0.000000
# 6 0.000000 0.000000 0.000000 0.000000 0.000000 0.026817
#
#
# Mechanical properties :
#
#
# Convention : Reuss Voigt Hill
#
# Bulk Modulus (GPa) = 22.27662 25.13836 23.70749
# Shear Modulus (GPa) = 53.07904 21.78092 37.42998
#
# Velocity S-wave (km/s) = 5.15933 3.30499 4.33253
# Velocity P-wave (km/s) = 6.83104 5.21255 6.07593
#
# Compressibility (1/GPa) = 0.04489011
#
# Stress axis : x y z
#
# Youngs Moduli (GPa) = 112.23047 56.81854 43.63000
#
# Poissons Ratio (x) = -0.01974 0.02949
# Poissons Ratio (y) = -0.03900 0.08471
# Poissons Ratio (z) = 0.07586 0.11032
#
# Static dielectric constant tensor:
#      x y z
#    x 1.753910 0.000000 0.000000 
#    y 0.000000 1.676180 0.000000 
#    z 0.000000 0.000000 1.738830 
# 
# From -- ./inp_files/18156.got.cif
#   From: 2010.05.17/outbox.cif.g08.bks.cpg/sg67_10_cif.got.tgz:18156.got - 2010.06.03 18:28:57.
