data_PCOD9503654
_publ_section_title
;
Structure prediction by ZEFSAII (Michael W. Deem and Ramdas Pophale) SiO2 
 PCOD9503654
Probable space group: C M M A
;
_chemical_formula_sum "Si O2"
_cell_formula_units_Z 112
_cell_length_a 14.304700
_cell_length_b 25.992014
_cell_length_c 13.698559
_cell_angle_alpha 90.000000
_cell_angle_beta 90.000000
_cell_angle_gamma 90.000000
_cell_volume 5093.233313
_symmetry_space_group_name_H-M "C M M A"
_symmetry_group_IT_number 67
_symmetry_cell_setting 'orthorhombic'
loop_
_space_group_symop_operation_xyz
x,y,z
-x,1/2-y,z
x,-y,-z
-x,1/2+y,-z
-x,-y,-z
x,1/2+y,-z
-x,y,z
x,1/2-y,z
1/2+x,1/2+y,z
1/2-x,-y,z
1/2+x,1/2-y,-z
1/2-x,y,-z
1/2-x,1/2-y,-z
1/2+x,y,-z
1/2-x,1/2+y,z
1/2+x,-y,z
loop_
_atom_site_type_symbol
_atom_site_label
_atom_site_fract_x
_atom_site_fract_y
_atom_site_fract_z
Si Si1 0.101823 0.381935 0.807202
Si Si2 0.359050 0.693401 0.978255
Si Si3 0.603791 0.194708 0.798415
Si Si4 0.753714 0.362604 0.639477
Si Si5 0.361233 0.504563 0.887229
Si Si6 0.611407 0.310333 0.514385
Si Si7 0.106653 0.418452 0.275003
O O1 0.105731 0.349061 0.905415
O O2 0.183424 0.362627 0.736577
O O3 0.114054 0.440788 0.839898
O O4 0.000000 0.375459 0.759766
O O5 0.371870 0.750000 0.933309
O O6 0.250000 0.685216 0.000000
O O7 0.402940 0.693540 0.084349
O O8 0.500000 0.199086 0.754940
O O9 0.653767 0.250000 0.779406
O O10 0.629936 0.136059 0.776279
O O11 0.672079 0.320719 0.612712
O O12 0.833802 0.348724 0.559132
O O13 0.691452 0.415700 0.645600
O O14 0.250000 0.500000 0.892808
O O15 0.390380 0.461063 0.809356
O O16 0.395390 0.500000 0.000000
O O17 0.500000 0.320390 0.521982
O O18 0.622224 0.250000 0.486917
O O19 0.000000 0.418069 0.314707
#
# Coordination Sequence:
#
# PCOD9503654 Si02
#       7
#    16  16  16  16  16  16  16
#     4  12  25  39  62  95 133 177 227 285 342 401
#     4  10  21  35  53  79 117 167 218 267 324 387
#     4   9  18  32  50  76 114 160 208 258 314 379
#     4  11  22  40  64  97 132 164 205 265 333 397
#     4  11  24  42  65  92 133 188 246 296 343 384
#     4  10  23  45  73 102 134 175 218 264 331 420
#     4  11  22  38  63  94 130 175 228 285 338 395
#
# _framework density 21.989958999999999
#
# number of rings (size 3 to 8) (size 9 to 14) (size 15 to 20)
#    0.000    1.429    1.429    4.286    2.000    5.429 
#    0.000    1.429    0.000    6.857    0.000   12.000 
#    0.000    0.000    0.000    0.000    0.000    0.000 
#
# Total GULP energy -311888.930026 kJ/mol
# GULP energy per Si atom -5569.445179 kJ/mol
# Density = 2.193991 g / cm^3
# Si number density = 21.989959 Si / 1000 Ang^3
#
#
#
# Elastic Constant Matrix: (Units=GPa)
#
#
# Indices 1 2 3 4 5 6 
#
# 1 166.3875 29.0138 19.0147 0.0000 0.0000 0.0000
# 2 29.0138 131.8758 56.1877 0.0000 0.0000 0.0000
# 3 19.0147 56.1877 79.1630 0.0000 0.0000 0.0000
# 4 0.0000 0.0000 0.0000 30.4873 0.0000 0.0000
# 5 0.0000 0.0000 0.0000 0.0000 67.5940 0.0000
# 6 0.0000 0.0000 0.0000 0.0000 0.0000 25.3418
#
#
#
# Elastic Compliance Matrix: (Units=1/GPa)
#
#
# Indices 1 2 3 4 5 6 
#
# 1 0.006281 -0.001060 -0.000757 0.000000 0.000000 0.000000
# 2 -0.001060 0.011049 -0.007588 0.000000 0.000000 0.000000
# 3 -0.000757 -0.007588 0.018199 0.000000 0.000000 0.000000
# 4 0.000000 0.000000 0.000000 0.032801 0.000000 0.000000
# 5 0.000000 0.000000 0.000000 0.000000 0.014794 0.000000
# 6 0.000000 0.000000 0.000000 0.000000 0.000000 0.039461
#
#
# Mechanical properties :
#
#
# Convention : Reuss Voigt Hill
#
# Bulk Modulus (GPa) = 59.80236 65.09539 62.44887
# Shear Modulus (GPa) = 34.02136 42.89864 38.46000
#
# Velocity S-wave (km/s) = 3.93763 4.42161 4.18662
# Velocity P-wave (km/s) = 6.92297 7.46553 7.19936
#
# Compressibility (1/GPa) = 0.01672175
#
# Stress axis : x y z
#
# Youngs Moduli (GPa) = 159.20272 90.50735 54.94682
#
# Poissons Ratio (x) = 0.09589 0.04158
# Poissons Ratio (y) = 0.16868 0.41692
# Poissons Ratio (z) = 0.12047 0.68674
#
# Static dielectric constant tensor:
#      x y z
#    x 1.952360 0.000000 0.000000 
#    y 0.000000 1.782250 0.000000 
#    z 0.000000 0.000000 1.926240 
# 
# From -- ./inp_files/27572.got.cif
#   From: 2010.05.17/outbox.cif.g08.bks.cpg/sg67_14_cif.got.tgz:27572.got - 2010.06.03 18:28:57.
