data_PCOD9503297
_publ_section_title
;
Structure prediction by ZEFSAII (Michael W. Deem and Ramdas Pophale) SiO2 
 PCOD9503297
Probable space group: C M M A
;
_chemical_formula_sum "Si O2"
_cell_formula_units_Z 112
_cell_length_a 14.042721
_cell_length_b 27.292076
_cell_length_c 16.027174
_cell_angle_alpha 90.000000
_cell_angle_beta 90.000000
_cell_angle_gamma 90.000000
_cell_volume 6142.494712
_symmetry_space_group_name_H-M "C M M A"
_symmetry_group_IT_number 67
_symmetry_cell_setting 'orthorhombic'
loop_
_space_group_symop_operation_xyz
x,y,z
-x,1/2-y,z
x,-y,-z
-x,1/2+y,-z
-x,-y,-z
x,1/2+y,-z
-x,y,z
x,1/2-y,z
1/2+x,1/2+y,z
1/2-x,-y,z
1/2+x,1/2-y,-z
1/2-x,y,-z
1/2-x,1/2-y,-z
1/2+x,y,-z
1/2-x,1/2+y,z
1/2+x,-y,z
loop_
_atom_site_type_symbol
_atom_site_label
_atom_site_fract_x
_atom_site_fract_y
_atom_site_fract_z
Si Si1 0.265893 0.444607 0.138324
Si Si2 0.251688 0.111074 0.702632
Si Si3 0.614228 0.803608 0.038034
Si Si4 0.386777 0.428257 0.425920
Si Si5 0.887384 0.540816 0.613758
Si Si6 0.613384 0.588949 0.010053
Si Si7 0.111221 0.807081 0.764236
O O1 0.250000 0.500000 0.167443
O O2 0.294444 0.407520 0.211407
O O3 0.168751 0.426503 0.093652
O O4 0.344718 0.442882 0.065287
O O5 0.175883 0.109115 0.627551
O O6 0.328635 0.069029 0.682069
O O7 0.312784 0.159935 0.716061
O O8 0.500000 0.802027 0.032311
O O9 0.648087 0.750000 0.008767
O O10 0.641317 0.853982 0.993274
O O11 0.634326 0.809253 0.136752
O O12 0.500000 0.419529 0.417183
O O13 0.365573 0.483181 0.392080
O O14 0.365755 0.433555 0.524364
O O15 0.000000 0.544967 0.626933
O O16 0.500000 0.584939 0.018279
O O17 0.116125 0.750000 0.739972
O O18 0.000000 0.823035 0.753732
#
# Coordination Sequence:
#
# PCOD9503297 Si02
#       7
#    16  16  16  16  16  16  16
#     4  11  24  35  46  74 106 133 175 216 248 306
#     4  12  20  32  55  79 105 135 175 215 264 316
#     4   8  14  29  54  77  94 119 164 220 267 300
#     4   9  19  34  51  77 113 145 173 208 252 309
#     4   9  18  33  54  80 107 138 176 216 260 304
#     4  10  20  37  53  66  97 142 176 208 258 306
#     4   9  18  33  53  80 108 129 163 223 279 313
#
# _framework density 18.233633999999999
#
# number of rings (size 3 to 8) (size 9 to 14) (size 15 to 20)
#    0.000    2.286    1.429    4.714    0.000    3.429 
#    0.000    2.143    0.000    2.143    0.000    2.000 
#    0.000    0.000    0.000    0.143    0.000    0.000 
#
# Total GULP energy -312310.261880 kJ/mol
# GULP energy per Si atom -5576.968962 kJ/mol
# Density = 1.819213 g / cm^3
# Si number density = 18.233634 Si / 1000 Ang^3
#
#
#
# Elastic Constant Matrix: (Units=GPa)
#
#
# Indices 1 2 3 4 5 6 
#
# 1 64.9787 11.8909 3.0870 0.0000 0.0000 0.0000
# 2 11.8909 67.0374 4.7732 0.0000 0.0000 0.0000
# 3 3.0870 4.7732 26.9625 0.0000 0.0000 0.0000
# 4 0.0000 0.0000 0.0000 -658.0585 0.0000 0.0000
# 5 0.0000 0.0000 0.0000 0.0000 13.2478 0.0000
# 6 0.0000 0.0000 0.0000 0.0000 0.0000 25.4317
#
#
#
# Elastic Compliance Matrix: (Units=1/GPa)
#
#
# Indices 1 2 3 4 5 6 
#
# 1 0.015954 -0.002734 -0.001343 0.000000 0.000000 0.000000
# 2 -0.002734 0.015576 -0.002444 0.000000 0.000000 0.000000
# 3 -0.001343 -0.002444 0.037675 0.000000 0.000000 0.000000
# 4 0.000000 0.000000 0.000000 -0.001520 0.000000 0.000000
# 5 0.000000 0.000000 0.000000 0.000000 0.075484 0.000000
# 6 0.000000 0.000000 0.000000 0.000000 0.000000 0.039321
#
#
# Mechanical properties :
#
#
# Convention : Reuss Voigt Hill
#
# Bulk Modulus (GPa) = 17.80545 22.05340 19.92943
# Shear Modulus (GPa) = 23.33681 -114.59397 -45.62858
#
# Velocity S-wave (km/s) = 3.58142 -7.93625 -5.00787
# Velocity P-wave (km/s) = 5.18541 8.47688 4.74179
#
# Compressibility (1/GPa) = 0.05616256
#
# Stress axis : x y z
#
# Youngs Moduli (GPa) = 62.68096 64.20097 26.54276
#
# Poissons Ratio (x) = 0.17554 0.03563
# Poissons Ratio (y) = 0.17138 0.06488
# Poissons Ratio (z) = 0.08415 0.15693
#
# Static dielectric constant tensor:
#      x y z
#    x 1.639380 0.000000 0.000000 
#    y 0.000000 1.643830 0.000000 
#    z 0.000000 0.000000 1.618260 
# 
# From -- ./inp_files/27731.got.cif
#   From: 2010.05.17/outbox.cif.g08.bks.cpg/sg67_14_cif.got.tgz:27731.got - 2010.06.03 18:28:57.
