data_PCOD9503645
_publ_section_title
;
Structure prediction by ZEFSAII (Michael W. Deem and Ramdas Pophale) SiO2 
 PCOD9503645
Probable space group: C M M A
;
_chemical_formula_sum "Si O2"
_cell_formula_units_Z 104
_cell_length_a 20.904753
_cell_length_b 7.640942
_cell_length_c 30.377733
_cell_angle_alpha 90.000000
_cell_angle_beta 90.000000
_cell_angle_gamma 90.000000
_cell_volume 4852.296205
_symmetry_space_group_name_H-M "C M M A"
_symmetry_group_IT_number 67
_symmetry_cell_setting 'orthorhombic'
loop_
_space_group_symop_operation_xyz
x,y,z
-x,1/2-y,z
x,-y,-z
-x,1/2+y,-z
-x,-y,-z
x,1/2+y,-z
-x,y,z
x,1/2-y,z
1/2+x,1/2+y,z
1/2-x,-y,z
1/2+x,1/2-y,-z
1/2-x,y,-z
1/2-x,1/2-y,-z
1/2+x,y,-z
1/2-x,1/2+y,z
1/2+x,-y,z
loop_
_atom_site_type_symbol
_atom_site_label
_atom_site_fract_x
_atom_site_fract_y
_atom_site_fract_z
Si Si1 0.928948 0.538897 0.704090
Si Si2 0.174139 0.039452 0.877739
Si Si3 0.817593 0.540219 0.641818
Si Si4 0.500000 0.958441 0.448355
Si Si5 0.927679 0.540509 0.193614
Si Si6 0.859555 0.539463 0.551034
Si Si7 0.571738 0.039945 0.051467
O O1 0.929765 0.750000 0.700645
O O2 0.875508 0.471491 0.671008
O O3 0.916343 0.495620 0.754961
O O4 0.000000 0.474882 0.692710
O O5 0.171639 0.250000 0.877688
O O6 0.131210 0.976192 0.836209
O O7 0.131639 0.976605 0.919526
O O8 0.250000 0.000000 0.877659
O O9 0.824261 0.750000 0.639537
O O10 0.750000 0.500000 0.663142
O O11 0.817827 0.472470 0.591467
O O12 0.500000 0.750000 0.439938
O O13 0.430727 0.024699 0.435096
O O14 0.500000 0.000000 0.500000
O O15 0.930336 0.750000 0.187582
O O16 0.000000 0.474130 0.182710
O O17 0.844413 0.500000 0.500000
O O18 0.860531 0.750000 0.551726
O O19 0.500000 0.975527 0.064475
O O20 0.569882 0.250000 0.056546
O O21 0.580299 0.000000 0.000000
#
# Coordination Sequence:
#
# PCOD9503645 Si02
#       7
#    16  16  16   8  16  16  16
#     4   9  19  36  58  81 103 131 170 214 258 305
#     4  10  21  35  52  77 109 144 178 216 264 317
#     4  10  22  37  53  75 104 138 170 204 251 305
#     4   8  14  26  46  70  94 118 152 196 240 282
#     4   9  18  35  58  80 103 134 173 215 260 309
#     4   9  18  32  51  74  99 130 166 205 248 295
#     4   9  18  34  55  77 103 139 184 228 269 313
#
# _framework density 21.433150000000001
#
# number of rings (size 3 to 8) (size 9 to 14) (size 15 to 20)
#    0.000    2.769    0.000    0.462    1.077    5.538 
#    0.000    6.154    0.000    4.615    0.000    0.000 
#    0.000    0.000    0.000    0.000    0.000    0.000 
#
# Total GULP energy -289779.155155 kJ/mol
# GULP energy per Si atom -5572.676061 kJ/mol
# Density = 2.138437 g / cm^3
# Si number density = 21.433150 Si / 1000 Ang^3
#
#
#
# Elastic Constant Matrix: (Units=GPa)
#
#
# Indices 1 2 3 4 5 6 
#
# 1 215.1381 6.7467 120.5245 0.0000 0.0000 0.0000
# 2 6.7467 42.9521 4.3449 0.0000 0.0000 0.0000
# 3 120.5245 4.3449 125.8772 0.0000 0.0000 0.0000
# 4 0.0000 0.0000 0.0000 16.3714 0.0000 0.0000
# 5 0.0000 0.0000 0.0000 0.0000 55.4271 0.0000
# 6 0.0000 0.0000 0.0000 0.0000 0.0000 20.5942
#
#
#
# Elastic Compliance Matrix: (Units=1/GPa)
#
#
# Indices 1 2 3 4 5 6 
#
# 1 0.010042 -0.000607 -0.009594 0.000000 0.000000 0.000000
# 2 -0.000607 0.023400 -0.000227 0.000000 0.000000 0.000000
# 3 -0.009594 -0.000227 0.017138 0.000000 0.000000 0.000000
# 4 0.000000 0.000000 0.000000 0.061082 0.000000 0.000000
# 5 0.000000 0.000000 0.000000 0.000000 0.018042 0.000000
# 6 0.000000 0.000000 0.000000 0.000000 0.000000 0.048557
#
#
# Mechanical properties :
#
#
# Convention : Reuss Voigt Hill
#
# Bulk Modulus (GPa) = 33.64164 71.91107 52.77635
# Shear Modulus (GPa) = 23.92063 35.30196 29.61130
#
# Velocity S-wave (km/s) = 3.34437 4.06282 3.72097
# Velocity P-wave (km/s) = 5.53563 7.45874 6.56795
#
# Compressibility (1/GPa) = 0.02972507
#
# Stress axis : x y z
#
# Youngs Moduli (GPa) = 99.58249 42.73505 58.34966
#
# Poissons Ratio (x) = 0.02593 0.55980
# Poissons Ratio (y) = 0.06043 0.01322
# Poissons Ratio (z) = 0.95539 0.00969
#
# Static dielectric constant tensor:
#      x y z
#    x 1.827050 0.000000 0.000000 
#    y 0.000000 1.754900 0.000000 
#    z 0.000000 0.000000 1.761190 
# 
# From -- ./inp_files/45923.got.cif
#   From: 2010.05.17/outbox.cif.g08.bks.cpg/sg67_23_cif.got.tgz:45923.got - 2010.06.03 18:28:57.
