data_PCOD9503501
_publ_section_title
;
Structure prediction by ZEFSAII (Michael W. Deem and Ramdas Pophale) SiO2 
 PCOD9503501
Probable space group: C M M A
;
_chemical_formula_sum "Si O2"
_cell_formula_units_Z 84
_cell_length_a 15.050952
_cell_length_b 19.139503
_cell_length_c 14.158514
_cell_angle_alpha 90.000000
_cell_angle_beta 90.000000
_cell_angle_gamma 90.000000
_cell_volume 4078.611143
_symmetry_space_group_name_H-M "C M M A"
_symmetry_group_IT_number 67
_symmetry_cell_setting 'orthorhombic'
loop_
_space_group_symop_operation_xyz
x,y,z
-x,1/2-y,z
x,-y,-z
-x,1/2+y,-z
-x,-y,-z
x,1/2+y,-z
-x,y,z
x,1/2-y,z
1/2+x,1/2+y,z
1/2-x,-y,z
1/2+x,1/2-y,-z
1/2-x,y,-z
1/2-x,1/2-y,-z
1/2+x,y,-z
1/2-x,1/2+y,z
1/2+x,-y,z
loop_
_atom_site_type_symbol
_atom_site_label
_atom_site_fract_x
_atom_site_fract_y
_atom_site_fract_z
Si Si1 0.107789 0.087879 0.770675
Si Si2 0.157272 0.145268 0.964892
Si Si3 0.253661 0.915571 0.611059
Si Si4 0.500000 0.250000 0.995364
Si Si5 0.896093 0.052179 0.117753
Si Si6 0.104563 0.166979 0.275023
O O1 0.145215 0.138099 0.852690
O O2 0.158433 0.102153 0.672839
O O3 0.000000 0.092913 0.763324
O O4 0.132127 0.011332 0.813881
O O5 0.250000 0.173730 0.000000
O O6 0.076255 0.190368 0.999623
O O7 0.147834 0.071016 0.018403
O O8 0.250000 0.899203 0.500000
O O9 0.171538 0.872854 0.655526
O O10 0.250000 0.000000 0.618901
O O11 0.885198 0.122924 0.179103
O O12 0.000000 0.039464 0.100575
O O13 0.122736 0.250000 0.264885
O O14 0.000000 0.160274 0.302617
#
# Coordination Sequence:
#
# PCOD9503501 Si02
#       6
#    16  16  16   4  16  16
#     4  11  23  44  66  99 138 178 231 291 348 410
#     4  12  25  40  67  95 136 189 234 278 337 406
#     4  11  24  43  69 100 131 174 232 293 355 426
#     4  12  26  48  54  98 150 184 240 280 326 428
#     4  10  20  38  65  96 132 175 221 275 333 404
#     4  10  22  40  66  97 133 173 223 284 348 414
#
# _framework density 20.595245999999999
#
# number of rings (size 3 to 8) (size 9 to 14) (size 15 to 20)
#    0.000    1.143    3.810    2.000    1.333    3.429 
#    5.143    1.905    0.000    0.000    0.000    0.000 
#    0.000    0.000    0.000    0.000    0.000    0.000 
#
# Total GULP energy -233957.215594 kJ/mol
# GULP energy per Si atom -5570.409895 kJ/mol
# Density = 2.054837 g / cm^3
# Si number density = 20.595246 Si / 1000 Ang^3
#
#
#
# Elastic Constant Matrix: (Units=GPa)
#
#
# Indices 1 2 3 4 5 6 
#
# 1 140.6428 32.2538 56.6651 0.0000 0.0000 0.0000
# 2 32.2538 92.2457 13.9745 0.0000 0.0000 0.0000
# 3 56.6651 13.9745 147.5646 0.0000 0.0000 0.0000
# 4 0.0000 0.0000 0.0000 1300.8240 0.0000 0.0000
# 5 0.0000 0.0000 0.0000 0.0000 9.3295 0.0000
# 6 0.0000 0.0000 0.0000 0.0000 0.0000 27.5687
#
#
#
# Elastic Compliance Matrix: (Units=1/GPa)
#
#
# Indices 1 2 3 4 5 6 
#
# 1 0.009015 -0.002666 -0.003209 0.000000 0.000000 0.000000
# 2 -0.002666 0.011787 -0.000093 0.000000 0.000000 0.000000
# 3 -0.003209 -0.000093 0.008018 0.000000 0.000000 0.000000
# 4 0.000000 0.000000 0.000000 0.000769 0.000000 0.000000
# 5 0.000000 0.000000 0.000000 0.000000 0.107187 0.000000
# 6 0.000000 0.000000 0.000000 0.000000 0.000000 0.036273
#
#
# Mechanical properties :
#
#
# Convention : Reuss Voigt Hill
#
# Bulk Modulus (GPa) = 59.22737 65.13776 62.18257
# Shear Modulus (GPa) = 26.23143 286.04840 156.13991
#
# Velocity S-wave (km/s) = 3.57272 11.79797 8.71655
# Velocity P-wave (km/s) = 6.77047 14.74061 11.47007
#
# Compressibility (1/GPa) = 0.01688409
#
# Stress axis : x y z
#
# Youngs Moduli (GPa) = 110.93204 84.84118 124.72278
#
# Poissons Ratio (x) = 0.22617 0.40025
# Poissons Ratio (y) = 0.29572 0.01154
# Poissons Ratio (z) = 0.35600 0.00785
#
# Static dielectric constant tensor:
#      x y z
#    x 1.487820 0.000000 0.000000 
#    y 0.000000 1.834630 0.000000 
#    z 0.000000 0.000000 1.757780 
# 
# From -- ./inp_files/27043.got.cif
#   From: 2010.05.17/outbox.cif.g08.bks.cpg/sg67_14_cif.got.tgz:27043.got - 2010.06.03 18:28:57.
