data_PCOD9503342
_publ_section_title
;
Structure prediction by ZEFSAII (Michael W. Deem and Ramdas Pophale) SiO2 
 PCOD9503342
Probable space group: C M M A
;
_chemical_formula_sum "Si O2"
_cell_formula_units_Z 84
_cell_length_a 19.898977
_cell_length_b 16.146105
_cell_length_c 12.015924
_cell_angle_alpha 90.000000
_cell_angle_beta 90.000000
_cell_angle_gamma 90.000000
_cell_volume 3860.607902
_symmetry_space_group_name_H-M "C M M A"
_symmetry_group_IT_number 67
_symmetry_cell_setting 'orthorhombic'
loop_
_space_group_symop_operation_xyz
x,y,z
-x,1/2-y,z
x,-y,-z
-x,1/2+y,-z
-x,-y,-z
x,1/2+y,-z
-x,y,z
x,1/2-y,z
1/2+x,1/2+y,z
1/2-x,-y,z
1/2+x,1/2-y,-z
1/2-x,y,-z
1/2-x,1/2-y,-z
1/2+x,y,-z
1/2-x,1/2+y,z
1/2+x,-y,z
loop_
_atom_site_type_symbol
_atom_site_label
_atom_site_fract_x
_atom_site_fract_y
_atom_site_fract_z
Si Si1 0.095160 0.403095 0.155459
Si Si2 0.500000 0.250000 0.787784
Si Si3 0.926812 0.568229 0.298025
Si Si4 0.243467 0.155689 0.157722
Si Si5 0.215941 0.910559 0.386015
Si Si6 0.110945 0.847677 0.077084
O O1 0.058507 0.323286 0.206473
O O2 0.077994 0.482635 0.228522
O O3 0.175810 0.395893 0.153462
O O4 0.078637 0.399021 0.023471
O O5 0.864409 0.576853 0.382043
O O6 0.919231 0.634525 0.198003
O O7 0.000000 0.575109 0.351388
O O8 0.227276 0.250000 0.127886
O O9 0.267235 0.149506 0.285109
O O10 0.309622 0.130574 0.088684
O O11 0.250000 0.881977 0.500000
O O12 0.250000 0.000000 0.362509
O O13 0.104118 0.750000 0.051153
#
# Coordination Sequence:
#
# PCOD9503342 Si02
#       6
#    16   4  16  16  16  16
#     4  12  21  36  55  86 126 164 206 241 290 350
#     4  12  24  32  56  84 130 174 200 238 298 352
#     4  11  24  38  60  91 124 158 201 246 303 365
#     4  10  20  37  60  86 115 158 206 253 293 347
#     4  10  21  41  65  85 113 148 198 258 307 360
#     4  10  22  36  57  87 124 169 207 243 288 345
#
# _framework density 21.758232
#
# number of rings (size 3 to 8) (size 9 to 14) (size 15 to 20)
#    0.000    1.333    4.762    1.143    1.333    3.048 
#    0.000    3.810    2.095    0.000    0.000    0.000 
#    0.000    0.000    0.000    0.000    0.000    0.000 
#
# Total GULP energy -234089.961014 kJ/mol
# GULP energy per Si atom -5573.570500 kJ/mol
# Density = 2.170871 g / cm^3
# Si number density = 21.758232 Si / 1000 Ang^3
#
#
#
# Elastic Constant Matrix: (Units=GPa)
#
#
# Indices 1 2 3 4 5 6 
#
# 1 169.8158 6.0545 34.4219 0.0000 0.0000 0.0000
# 2 6.0545 48.5807 14.8139 0.0000 0.0000 0.0000
# 3 34.4219 14.8139 82.2276 0.0000 0.0000 0.0000
# 4 0.0000 0.0000 0.0000 16.0327 0.0000 0.0000
# 5 0.0000 0.0000 0.0000 0.0000 -1.8528 0.0000
# 6 0.0000 0.0000 0.0000 0.0000 0.0000 25.1492
#
#
#
# Elastic Compliance Matrix: (Units=1/GPa)
#
#
# Indices 1 2 3 4 5 6 
#
# 1 0.006435 0.000021 -0.002697 0.000000 0.000000 0.000000
# 2 0.000021 0.021781 -0.003933 0.000000 0.000000 0.000000
# 3 -0.002697 -0.003933 0.013999 0.000000 0.000000 0.000000
# 4 0.000000 0.000000 0.000000 0.062372 0.000000 0.000000
# 5 0.000000 0.000000 0.000000 0.000000 -0.539714 0.000000
# 6 0.000000 0.000000 0.000000 0.000000 0.000000 0.039763
#
#
# Mechanical properties :
#
#
# Convention : Reuss Voigt Hill
#
# Bulk Modulus (GPa) = 34.48769 45.68941 40.08855
# Shear Modulus (GPa) = -13.42354 24.22142 5.39894
#
# Velocity S-wave (km/s) = -2.48652 3.34010 1.57693
# Velocity P-wave (km/s) = 2.76425 5.99327 4.66692
#
# Compressibility (1/GPa) = 0.02899585
#
# Stress axis : x y z
#
# Youngs Moduli (GPa) = 155.40575 45.91177 71.43351
#
# Poissons Ratio (x) = -0.00094 0.19269
# Poissons Ratio (y) = -0.00320 0.28092
# Poissons Ratio (z) = 0.41919 0.18055
#
# Static dielectric constant tensor:
#      x y z
#    x 1.845730 0.000000 0.000000 
#    y 0.000000 1.774510 0.000000 
#    z 0.000000 0.000000 1.819360 
# 
# From -- ./inp_files/20778.got.cif
#   From: 2010.05.17/outbox.cif.g08.bks.cpg/sg67_11_cif.got.tgz:20778.got - 2010.06.03 18:28:57.
