data_PCOD9503562
_publ_section_title
;
Structure prediction by ZEFSAII (Michael W. Deem and Ramdas Pophale) SiO2 
 PCOD9503562
Probable space group: C M M A
;
_chemical_formula_sum "Si O2"
_cell_formula_units_Z 104
_cell_length_a 27.053075
_cell_length_b 21.715922
_cell_length_c 8.989277
_cell_angle_alpha 90.000000
_cell_angle_beta 90.000000
_cell_angle_gamma 90.000000
_cell_volume 5281.042625
_symmetry_space_group_name_H-M "C M M A"
_symmetry_group_IT_number 67
_symmetry_cell_setting 'orthorhombic'
loop_
_space_group_symop_operation_xyz
x,y,z
-x,1/2-y,z
x,-y,-z
-x,1/2+y,-z
-x,-y,-z
x,1/2+y,-z
-x,y,z
x,1/2-y,z
1/2+x,1/2+y,z
1/2-x,-y,z
1/2+x,1/2-y,-z
1/2-x,y,-z
1/2-x,1/2-y,-z
1/2+x,y,-z
1/2-x,1/2+y,z
1/2+x,-y,z
loop_
_atom_site_type_symbol
_atom_site_label
_atom_site_fract_x
_atom_site_fract_y
_atom_site_fract_z
Si Si1 0.162055 0.013063 0.823594
Si Si2 0.946536 0.490300 0.178348
Si Si3 0.187150 0.387757 0.339883
Si Si4 0.553448 0.750000 0.477032
Si Si5 0.702083 0.867861 0.686967
Si Si6 0.419547 0.349272 0.760882
Si Si7 0.942296 0.250000 0.992397
Si Si8 0.365141 0.750000 0.726743
O O1 0.190708 0.075096 0.792555
O O2 0.104755 0.021058 0.771739
O O3 0.184755 0.955979 0.731842
O O4 0.162106 0.000000 0.000000
O O5 0.939690 0.418197 0.217301
O O6 0.000000 0.511928 0.237148
O O7 0.947823 0.500000 0.000000
O O8 0.239364 0.355832 0.304900
O O9 0.186927 0.388721 0.519385
O O10 0.138862 0.354356 0.274605
O O11 0.500000 0.750000 0.554656
O O12 0.556812 0.810095 0.372284
O O13 0.600953 0.750000 0.580453
O O14 0.669570 0.809477 0.728273
O O15 0.431156 0.309761 0.906830
O O16 0.904329 0.250000 0.858666
O O17 0.000000 0.250000 0.950690
#
# Coordination Sequence:
#
# PCOD9503562 Si02
#       8
#    16  16  16   8  16  16   8   8
#     4  10  22  39  66  96 129 165 214 263 312 380
#     4   9  18  33  58  89 122 158 199 254 317 363
#     4  10  22  41  70  90 126 169 212 261 319 371
#     4  11  21  40  65  88 124 168 213 258 305 370
#     4  11  24  43  62  94 130 174 213 257 318 378
#     4  10  20  40  65  95 117 163 217 259 303 387
#     4  11  25  42  64  88 127 169 207 253 321 387
#     4  12  27  41  60  94 133 165 207 266 313 377
#
# _framework density 19.693082
#
# number of rings (size 3 to 8) (size 9 to 14) (size 15 to 20)
#    0.000    1.692    1.538    3.000    6.462    4.923 
#    0.000    1.538    0.000    1.846    0.000    0.000 
#    0.000    0.000    0.000    0.000    0.000    0.000 
#
# Total GULP energy -290328.898354 kJ/mol
# GULP energy per Si atom -5583.248045 kJ/mol
# Density = 1.964826 g / cm^3
# Si number density = 19.693082 Si / 1000 Ang^3
#
#
#
# Elastic Constant Matrix: (Units=GPa)
#
#
# Indices 1 2 3 4 5 6 
#
# 1 163.8237 35.2042 43.7267 0.0000 0.0000 0.0000
# 2 35.2042 44.4698 10.5522 0.0000 0.0000 0.0000
# 3 43.7267 10.5522 54.3883 0.0000 0.0000 0.0000
# 4 0.0000 0.0000 0.0000 11.8931 0.0000 0.0000
# 5 0.0000 0.0000 0.0000 0.0000 38.3446 0.0000
# 6 0.0000 0.0000 0.0000 0.0000 0.0000 22.1997
#
#
#
# Elastic Compliance Matrix: (Units=1/GPa)
#
#
# Indices 1 2 3 4 5 6 
#
# 1 0.008941 -0.005632 -0.006096 0.000000 0.000000 0.000000
# 2 -0.005632 0.027120 -0.000734 0.000000 0.000000 0.000000
# 3 -0.006096 -0.000734 0.023430 0.000000 0.000000 0.000000
# 4 0.000000 0.000000 0.000000 0.084082 0.000000 0.000000
# 5 0.000000 0.000000 0.000000 0.000000 0.026079 0.000000
# 6 0.000000 0.000000 0.000000 0.000000 0.000000 0.045046
#
#
# Mechanical properties :
#
#
# Convention : Reuss Voigt Hill
#
# Bulk Modulus (GPa) = 28.92889 49.07201 39.00045
# Shear Modulus (GPa) = 19.90890 26.03407 22.97148
#
# Velocity S-wave (km/s) = 3.18301 3.63986 3.41907
# Velocity P-wave (km/s) = 5.31324 6.52972 5.95264
#
# Compressibility (1/GPa) = 0.03456752
#
# Stress axis : x y z
#
# Youngs Moduli (GPa) = 111.83830 36.87351 42.68088
#
# Poissons Ratio (x) = 0.20767 0.26018
# Poissons Ratio (y) = 0.62987 0.03132
# Poissons Ratio (z) = 0.68177 0.02706
#
# Static dielectric constant tensor:
#      x y z
#    x 1.716360 0.000000 0.000000 
#    y 0.000000 1.649430 0.000000 
#    z 0.000000 0.000000 1.679460 
# 
# From -- ./inp_files/13849.got.cif
#   From: 2010.05.17/outbox.cif.g08.bks.cpg/sg67_7_cif.got.tgz:13849.got - 2010.06.03 18:28:57.
