data_PCOD9503445
_publ_section_title
;
Structure prediction by ZEFSAII (Michael W. Deem and Ramdas Pophale) SiO2 
 PCOD9503445
Probable space group: C M M A
;
_chemical_formula_sum "Si O2"
_cell_formula_units_Z 48
_cell_length_a 18.575218
_cell_length_b 9.474989
_cell_length_c 13.668029
_cell_angle_alpha 90.000000
_cell_angle_beta 90.000000
_cell_angle_gamma 90.000000
_cell_volume 2405.572916
_symmetry_space_group_name_H-M "C M M A"
_symmetry_group_IT_number 67
_symmetry_cell_setting 'orthorhombic'
loop_
_space_group_symop_operation_xyz
x,y,z
-x,1/2-y,z
x,-y,-z
-x,1/2+y,-z
-x,-y,-z
x,1/2+y,-z
-x,y,z
x,1/2-y,z
1/2+x,1/2+y,z
1/2-x,-y,z
1/2+x,1/2-y,-z
1/2-x,y,-z
1/2-x,1/2-y,-z
1/2+x,y,-z
1/2-x,1/2+y,z
1/2+x,-y,z
loop_
_atom_site_type_symbol
_atom_site_label
_atom_site_fract_x
_atom_site_fract_y
_atom_site_fract_z
Si Si1 0.342927 0.750000 0.459423
Si Si2 0.338703 0.750000 0.902823
Si Si3 0.622238 0.750000 0.677810
Si Si4 0.250000 0.000000 0.500000
Si Si5 0.500000 0.453172 0.274729
Si Si6 0.500000 0.250000 0.095152
Si Si7 0.000000 0.750000 0.638058
Si Si8 0.250000 0.000000 0.000000
O O1 0.336644 0.750000 0.577463
O O2 0.301339 0.896068 0.435629
O O3 0.425900 0.750000 0.425068
O O4 0.342104 0.750000 0.784518
O O5 0.420019 0.750000 0.948465
O O6 0.298578 0.891758 0.937288
O O7 0.569735 0.615193 0.676034
O O8 0.500000 0.387966 0.166060
O O9 0.500000 0.616001 0.291731
#
# Coordination Sequence:
#
# PCOD9503445 Si02
#       8
#     8   8   8   4   8   4   4   4
#     4  11  22  35  54  75 108 148 190 231 276 318
#     4   9  20  37  59  83 113 140 179 224 276 337
#     4   9  18  36  54  75 108 149 178 223 281 328
#     4  10  24  38  44  74 116 146 184 234 276 322
#     4   8  17  31  53  82 110 133 184 236 272 307
#     4   8  18  41  60  79 114 156 182 221 278 330
#     4  12  20  33  60  87 104 146 204 239 256 312
#     4  10  20  38  60  90 112 138 180 226 276 342
#
# _framework density 19.953665000000001
#
# number of rings (size 3 to 8) (size 9 to 14) (size 15 to 20)
#    0.000    3.000    0.000    3.000    0.000    4.000 
#    0.000   16.667    0.000    0.000    0.000    0.000 
#    0.000    0.000    0.000    0.000    0.000    0.000 
#
# Total GULP energy -133623.087258 kJ/mol
# GULP energy per Si atom -5567.628636 kJ/mol
# Density = 1.990825 g / cm^3
# Si number density = 19.953665 Si / 1000 Ang^3
#
#
#
# Elastic Constant Matrix: (Units=GPa)
#
#
# Indices 1 2 3 4 5 6 
#
# 1 144.4359 72.6850 30.1267 0.0000 0.0000 0.0000
# 2 72.6850 195.9794 37.7765 0.0000 0.0000 0.0000
# 3 30.1267 37.7765 63.3211 0.0000 0.0000 0.0000
# 4 0.0000 0.0000 0.0000 -3.5176 0.0000 0.0000
# 5 0.0000 0.0000 0.0000 0.0000 19.9236 0.0000
# 6 0.0000 0.0000 0.0000 0.0000 0.0000 49.8178
#
#
#
# Elastic Compliance Matrix: (Units=1/GPa)
#
#
# Indices 1 2 3 4 5 6 
#
# 1 0.008862 -0.002795 -0.002549 0.000000 0.000000 0.000000
# 2 -0.002795 0.006647 -0.002636 0.000000 0.000000 0.000000
# 3 -0.002549 -0.002636 0.018578 0.000000 0.000000 0.000000
# 4 0.000000 0.000000 0.000000 -0.284283 0.000000 0.000000
# 5 0.000000 0.000000 0.000000 0.000000 0.050192 0.000000
# 6 0.000000 0.000000 0.000000 0.000000 0.000000 0.020073
#
#
# Mechanical properties :
#
#
# Convention : Reuss Voigt Hill
#
# Bulk Modulus (GPa) = 55.16537 76.10141 65.63339
# Shear Modulus (GPa) = -31.65973 30.78795 -0.43589
#
# Velocity S-wave (km/s) = -3.98761 3.93233 -0.46789
# Velocity P-wave (km/s) = 2.55055 7.67069 5.71598
#
# Compressibility (1/GPa) = 0.01812732
#
# Stress axis : x y z
#
# Youngs Moduli (GPa) = 112.84361 150.43456 53.82851
#
# Poissons Ratio (x) = 0.42053 0.13718
# Poissons Ratio (y) = 0.31545 0.14188
# Poissons Ratio (z) = 0.28759 0.39651
#
# Static dielectric constant tensor:
#      x y z
#    x 1.782500 0.000000 0.000000 
#    y 0.000000 1.753060 0.000000 
#    z 0.000000 0.000000 1.683600 
# 
# From -- ./inp_files/24511.got.cif
#   From: 2010.05.17/outbox.cif.g08.bks.cpg/sg67_13_cif.got.tgz:24511.got - 2010.06.03 18:28:57.
