data_PCOD9503557
_publ_section_title
;
Structure prediction by ZEFSAII (Michael W. Deem and Ramdas Pophale) SiO2 
 PCOD9503557
Probable space group: C M M A
;
_chemical_formula_sum "Si O2"
_cell_formula_units_Z 60
_cell_length_a 30.669299
_cell_length_b 10.043368
_cell_length_c 9.952880
_cell_angle_alpha 90.000000
_cell_angle_beta 90.000000
_cell_angle_gamma 90.000000
_cell_volume 3065.716515
_symmetry_space_group_name_H-M "C M M A"
_symmetry_group_IT_number 67
_symmetry_cell_setting 'orthorhombic'
loop_
_space_group_symop_operation_xyz
x,y,z
-x,1/2-y,z
x,-y,-z
-x,1/2+y,-z
-x,-y,-z
x,1/2+y,-z
-x,y,z
x,1/2-y,z
1/2+x,1/2+y,z
1/2-x,-y,z
1/2+x,1/2-y,-z
1/2-x,y,-z
1/2-x,1/2-y,-z
1/2+x,y,-z
1/2-x,1/2+y,z
1/2+x,-y,z
loop_
_atom_site_type_symbol
_atom_site_label
_atom_site_fract_x
_atom_site_fract_y
_atom_site_fract_z
Si Si1 0.854866 0.500000 0.000000
Si Si2 0.791314 0.250000 0.401669
Si Si3 0.408317 0.592281 0.738643
Si Si4 0.794683 0.750000 0.916066
Si Si5 0.153169 0.000000 0.500000
Si Si6 0.500000 0.993824 0.794742
Si Si7 0.500000 0.250000 0.987515
O O1 0.885881 0.541664 0.123558
O O2 0.823994 0.378222 0.045765
O O3 0.750000 0.250000 0.500000
O O4 0.782819 0.250000 0.241976
O O5 0.818142 0.382348 0.437270
O O6 0.414332 0.750000 0.750824
O O7 0.376228 0.560326 0.617375
O O8 0.454640 0.521928 0.716787
O O9 0.750000 0.750000 0.000000
O O10 0.500000 0.868554 0.897271
O O11 0.500000 0.132492 0.872413
#
# Coordination Sequence:
#
# PCOD9503557 Si02
#       7
#     8   8  16   8   8   8   4
#     4  12  25  43  72 102 142 178 226 299 351 416
#     4  12  28  48  74 101 138 184 236 287 362 438
#     4  12  25  45  72 104 146 186 240 292 349 416
#     4  12  28  45  70 106 136 174 232 293 365 421
#     4  12  27  47  72 102 142 192 232 285 357 430
#     4  11  24  41  70 107 144 193 239 294 347 413
#     4  10  20  40  64 102 142 178 246 282 354 404
#
# _framework density 19.571280000000002
#
# number of rings (size 3 to 8) (size 9 to 14) (size 15 to 20)
#    0.000    0.267    6.667    2.400    3.733    4.800 
#    0.000    0.000    0.000    0.000    0.000    0.000 
#    0.000    0.000    0.000    0.000    0.000    0.000 
#
# Total GULP energy -167293.694099 kJ/mol
# GULP energy per Si atom -5576.456470 kJ/mol
# Density = 1.952673 g / cm^3
# Si number density = 19.571280 Si / 1000 Ang^3
#
#
#
# Elastic Constant Matrix: (Units=GPa)
#
#
# Indices 1 2 3 4 5 6 
#
# 1 127.3917 30.4399 57.2378 0.0000 0.0000 0.0000
# 2 30.4399 142.6843 24.5081 0.0000 0.0000 0.0000
# 3 57.2378 24.5081 139.6345 0.0000 0.0000 0.0000
# 4 0.0000 0.0000 0.0000 32.0275 0.0000 0.0000
# 5 0.0000 0.0000 0.0000 0.0000 -223.4135 0.0000
# 6 0.0000 0.0000 0.0000 0.0000 0.0000 37.4153
#
#
#
# Elastic Compliance Matrix: (Units=1/GPa)
#
#
# Indices 1 2 3 4 5 6 
#
# 1 0.009908 -0.001460 -0.003805 0.000000 0.000000 0.000000
# 2 -0.001460 0.007442 -0.000708 0.000000 0.000000 0.000000
# 3 -0.003805 -0.000708 0.008846 0.000000 0.000000 0.000000
# 4 0.000000 0.000000 0.000000 0.031223 0.000000 0.000000
# 5 0.000000 0.000000 0.000000 0.000000 -0.004476 0.000000
# 6 0.000000 0.000000 0.000000 0.000000 0.000000 0.026727
#
#
# Mechanical properties :
#
#
# Convention : Reuss Voigt Hill
#
# Bulk Modulus (GPa) = 70.17827 70.45356 70.31591
# Shear Modulus (GPa) = 51.88567 -10.95916 20.46326
#
# Velocity S-wave (km/s) = 5.15448 -2.36892 3.23704
# Velocity P-wave (km/s) = 8.44752 5.34736 7.06947
#
# Compressibility (1/GPa) = 0.01424943
#
# Stress axis : x y z
#
# Youngs Moduli (GPa) = 100.92377 134.38090 113.05087
#
# Poissons Ratio (x) = 0.19623 0.43019
# Poissons Ratio (y) = 0.14737 0.07999
# Poissons Ratio (z) = 0.38405 0.09508
#
# Static dielectric constant tensor:
#      x y z
#    x 1.976860 0.000000 0.000000 
#    y 0.000000 1.637640 0.000000 
#    z 0.000000 0.000000 1.649190 
# 
# From -- ./inp_files/22601.got.cif
#   From: 2010.05.17/outbox.cif.g08.bks.cpg/sg67_12_cif.got.tgz:22601.got - 2010.06.03 18:28:57.
