data_PCOD9503302
_publ_section_title
;
Structure prediction by ZEFSAII (Michael W. Deem and Ramdas Pophale) SiO2 
 PCOD9503302
Probable space group: C M M A
;
_chemical_formula_sum "Si O2"
_cell_formula_units_Z 116
_cell_length_a 24.077611
_cell_length_b 29.646597
_cell_length_c 8.923446
_cell_angle_alpha 90.000000
_cell_angle_beta 90.000000
_cell_angle_gamma 90.000000
_cell_volume 6369.727353
_symmetry_space_group_name_H-M "C M M A"
_symmetry_group_IT_number 67
_symmetry_cell_setting 'orthorhombic'
loop_
_space_group_symop_operation_xyz
x,y,z
-x,1/2-y,z
x,-y,-z
-x,1/2+y,-z
-x,-y,-z
x,1/2+y,-z
-x,y,z
x,1/2-y,z
1/2+x,1/2+y,z
1/2-x,-y,z
1/2+x,1/2-y,-z
1/2-x,y,-z
1/2-x,1/2-y,-z
1/2+x,y,-z
1/2-x,1/2+y,z
1/2+x,-y,z
loop_
_atom_site_type_symbol
_atom_site_label
_atom_site_fract_x
_atom_site_fract_y
_atom_site_fract_z
Si Si1 0.105386 0.023390 0.848142
Si Si2 0.500000 0.250000 0.289029
Si Si3 0.094159 0.671240 0.307734
Si Si4 0.560670 0.926888 0.571435
Si Si5 0.284905 0.878708 0.235313
Si Si6 0.665361 0.962671 0.383602
Si Si7 0.165742 0.118039 0.904359
Si Si8 0.314219 0.800099 0.449048
O O1 0.064204 0.041022 0.718360
O O2 0.140288 0.068459 0.882718
O O3 0.145367 0.987830 0.766000
O O4 0.083451 0.000000 0.000000
O O5 0.548726 0.210072 0.291884
O O6 0.069693 0.624792 0.377668
O O7 0.121305 0.655009 0.150623
O O8 0.143485 0.687579 0.418184
O O9 0.500000 0.932028 0.500739
O O10 0.611111 0.941309 0.464451
O O11 0.293986 0.923211 0.334500
O O12 0.219642 0.874621 0.200682
O O13 0.313419 0.837958 0.323112
O O14 0.314490 0.880209 0.074574
O O15 0.686722 0.000000 0.500000
O O16 0.328593 0.750000 0.393297
O O17 0.250000 0.799311 0.500000
#
# Coordination Sequence:
#
# PCOD9503302 Si02
#       8
#    16   4  16  16  16  16  16  16
#     4  10  20  37  56  83 125 163 207 248 291 366
#     4  12  24  40  74  92 116 162 210 268 312 366
#     4  11  21  40  63  93 120 159 206 251 313 376
#     4  10  21  37  59  84 119 158 208 262 308 352
#     4  11  21  40  62  89 127 171 197 252 317 367
#     4  10  21  35  58  89 125 168 205 253 301 366
#     4  10  23  39  60  88 130 165 202 247 310 377
#     4  11  22  38  63  93 124 153 198 258 314 382
#
# _framework density 18.211141000000001
#
# number of rings (size 3 to 8) (size 9 to 14) (size 15 to 20)
#    0.000    1.517    5.517    0.000    0.000    3.310 
#    1.241    4.138    1.517    0.828    0.000    0.000 
#    0.000    0.000    0.000    0.000    0.000    0.000 
#
# Total GULP energy -323059.967534 kJ/mol
# GULP energy per Si atom -5569.999440 kJ/mol
# Density = 1.816969 g / cm^3
# Si number density = 18.211141 Si / 1000 Ang^3
#
#
#
# Elastic Constant Matrix: (Units=GPa)
#
#
# Indices 1 2 3 4 5 6 
#
# 1 94.5070 33.1435 33.1684 0.0000 0.0000 0.0000
# 2 33.1435 131.6698 40.1340 0.0000 0.0000 0.0000
# 3 33.1684 40.1340 59.2103 0.0000 0.0000 0.0000
# 4 0.0000 0.0000 0.0000 18.0972 0.0000 0.0000
# 5 0.0000 0.0000 0.0000 0.0000 8.2076 0.0000
# 6 0.0000 0.0000 0.0000 0.0000 0.0000 8.8400
#
#
#
# Elastic Compliance Matrix: (Units=1/GPa)
#
#
# Indices 1 2 3 4 5 6 
#
# 1 0.013362 -0.001364 -0.006561 0.000000 0.000000 0.000000
# 2 -0.001364 0.009712 -0.005819 0.000000 0.000000 0.000000
# 3 -0.006561 -0.005819 0.024508 0.000000 0.000000 0.000000
# 4 0.000000 0.000000 0.000000 0.055257 0.000000 0.000000
# 5 0.000000 0.000000 0.000000 0.000000 0.121839 0.000000
# 6 0.000000 0.000000 0.000000 0.000000 0.000000 0.113122
#
#
# Mechanical properties :
#
#
# Convention : Reuss Voigt Hill
#
# Bulk Modulus (GPa) = 49.76277 55.36431 52.56354
# Shear Modulus (GPa) = 13.44139 18.95836 16.19987
#
# Velocity S-wave (km/s) = 2.71972 3.23000 2.98578
# Velocity P-wave (km/s) = 6.10306 6.66167 6.38847
#
# Compressibility (1/GPa) = 0.02009534
#
# Stress axis : x y z
#
# Youngs Moduli (GPa) = 74.83877 102.96914 40.80242
#
# Poissons Ratio (x) = 0.14042 0.26770
# Poissons Ratio (y) = 0.10205 0.23742
# Poissons Ratio (z) = 0.49100 0.59916
#
# Static dielectric constant tensor:
#      x y z
#    x 1.639650 0.000000 0.000000 
#    y 0.000000 1.632060 0.000000 
#    z 0.000000 0.000000 1.615740 
# 
# From -- ./inp_files/12910.got.cif
#   From: 2010.05.17/outbox.cif.g08.bks.cpg/sg67_7_cif.got.tgz:12910.got - 2010.06.03 18:28:57.
