data_PCOD9503115
_publ_section_title
;
Structure prediction by ZEFSAII (Michael W. Deem and Ramdas Pophale) SiO2 
 PCOD9503115
Probable space group: C M M A
;
_chemical_formula_sum "Si O2"
_cell_formula_units_Z 96
_cell_length_a 8.635069
_cell_length_b 26.249145
_cell_length_c 24.065779
_cell_angle_alpha 90.000000
_cell_angle_beta 90.000000
_cell_angle_gamma 90.000000
_cell_volume 5454.825956
_symmetry_space_group_name_H-M "C M M A"
_symmetry_group_IT_number 67
_symmetry_cell_setting 'orthorhombic'
loop_
_space_group_symop_operation_xyz
x,y,z
-x,1/2-y,z
x,-y,-z
-x,1/2+y,-z
-x,-y,-z
x,1/2+y,-z
-x,y,z
x,1/2-y,z
1/2+x,1/2+y,z
1/2-x,-y,z
1/2+x,1/2-y,-z
1/2-x,y,-z
1/2-x,1/2-y,-z
1/2+x,y,-z
1/2-x,1/2+y,z
1/2+x,-y,z
loop_
_atom_site_type_symbol
_atom_site_label
_atom_site_fract_x
_atom_site_fract_y
_atom_site_fract_z
Si Si1 0.185394 0.750000 0.367787
Si Si2 0.813576 0.847981 0.177813
Si Si3 0.686238 0.809220 0.940900
Si Si4 0.814561 0.250000 0.243037
Si Si5 0.813931 0.444381 0.242755
Si Si6 0.313171 0.344650 0.562189
Si Si7 0.813948 0.554987 0.628354
O O1 0.252087 0.750000 0.305710
O O2 0.246491 0.700621 0.400401
O O3 0.000000 0.750000 0.366315
O O4 0.766213 0.840534 0.113437
O O5 0.747235 0.800026 0.211706
O O6 0.752686 0.899775 0.204786
O O7 0.000000 0.846409 0.180628
O O8 0.500000 0.809446 0.943295
O O9 0.735998 0.750000 0.933538
O O10 0.750000 0.827383 0.000000
O O11 0.000000 0.250000 0.243322
O O12 0.750000 0.500000 0.227161
O O13 0.767271 0.435427 0.307403
O O14 0.000000 0.444321 0.240088
O O15 0.500000 0.341727 0.562052
O O16 0.250000 0.340199 0.500000
O O17 0.265264 0.398547 0.589374
O O18 0.750000 0.500000 0.611302
O O19 0.000000 0.552647 0.627405
#
# Coordination Sequence:
#
# PCOD9503115 Si02
#       7
#     8  16  16   8  16  16  16
#     4  12  25  41  60  81 108 146 185 228 280 332
#     4  11  21  36  56  83 117 150 187 234 280 330
#     4   9  18  33  52  77 112 150 188 229 275 328
#     4  12  24  37  56  85 116 148 183 226 279 338
#     4  10  20  36  57  83 111 147 189 232 283 337
#     4  11  23  40  59  82 111 145 184 227 272 329
#     4   9  20  37  58  81 109 140 177 225 276 327
#
# _framework density 17.599094000000001
#
# number of rings (size 3 to 8) (size 9 to 14) (size 15 to 20)
#    0.000    1.667    0.833    4.250    0.000    5.000 
#    0.000    1.667    0.000    0.500    0.000    3.500 
#    0.000    0.000    0.000    0.000    0.000    0.000 
#
# Total GULP energy -268190.326828 kJ/mol
# GULP energy per Si atom -5587.298476 kJ/mol
# Density = 1.755904 g / cm^3
# Si number density = 17.599094 Si / 1000 Ang^3
#
#
#
# Elastic Constant Matrix: (Units=GPa)
#
#
# Indices 1 2 3 4 5 6 
#
# 1 71.4831 43.0613 46.0437 0.0000 0.0000 0.0000
# 2 43.0613 121.9995 85.7137 0.0000 0.0000 0.0000
# 3 46.0437 85.7137 149.4938 0.0000 0.0000 0.0000
# 4 0.0000 0.0000 0.0000-9878.7081 0.0000 0.0000
# 5 0.0000 0.0000 0.0000 0.0000 28.0629 0.0000
# 6 0.0000 0.0000 0.0000 0.0000 0.0000 32.6962
#
#
#
# Elastic Compliance Matrix: (Units=1/GPa)
#
#
# Indices 1 2 3 4 5 6 
#
# 1 0.018695 -0.004275 -0.003307 0.000000 0.000000 0.000000
# 2 -0.004275 0.014704 -0.007114 0.000000 0.000000 0.000000
# 3 -0.003307 -0.007114 0.011786 0.000000 0.000000 0.000000
# 4 0.000000 0.000000 0.000000 -0.000101 0.000000 0.000000
# 5 0.000000 0.000000 0.000000 0.000000 0.035634 0.000000
# 6 0.000000 0.000000 0.000000 0.000000 0.000000 0.030585
#
#
# Mechanical properties :
#
#
# Convention : Reuss Voigt Hill
#
# Bulk Modulus (GPa) = 63.31767 76.95708 70.13738
# Shear Modulus (GPa) = 34.25641 -1952.37928 -959.06143
#
# Velocity S-wave (km/s) = 4.41669 -33.34324 -23.36947
# Velocity P-wave (km/s) = 7.87816 37.92808 26.23427
#
# Compressibility (1/GPa) = 0.01579338
#
# Stress axis : x y z
#
# Youngs Moduli (GPa) = 53.49126 68.01005 84.84385
#
# Poissons Ratio (x) = 0.29077 0.28054
# Poissons Ratio (y) = 0.22870 0.60355
# Poissons Ratio (z) = 0.17687 0.48380
#
# Static dielectric constant tensor:
#      x y z
#    x 1.594440 0.000000 0.000000 
#    y 0.000000 1.569740 0.000000 
#    z 0.000000 0.000000 1.587300 
# 
# From -- ./inp_files/40856.got.cif
#   From: 2010.05.17/outbox.cif.g08.bks.cpg/sg67_21_cif.got.tgz:40856.got - 2010.06.03 18:28:57.
