data_PCOD9503407
_publ_section_title
;
Structure prediction by ZEFSAII (Michael W. Deem and Ramdas Pophale) SiO2 
 PCOD9503407
Probable space group: C M M A
;
_chemical_formula_sum "Si O2"
_cell_formula_units_Z 112
_cell_length_a 16.956046
_cell_length_b 22.065838
_cell_length_c 14.686897
_cell_angle_alpha 90.000000
_cell_angle_beta 90.000000
_cell_angle_gamma 90.000000
_cell_volume 5495.093174
_symmetry_space_group_name_H-M "C M M A"
_symmetry_group_IT_number 67
_symmetry_cell_setting 'orthorhombic'
loop_
_space_group_symop_operation_xyz
x,y,z
-x,1/2-y,z
x,-y,-z
-x,1/2+y,-z
-x,-y,-z
x,1/2+y,-z
-x,y,z
x,1/2-y,z
1/2+x,1/2+y,z
1/2-x,-y,z
1/2+x,1/2-y,-z
1/2-x,y,-z
1/2-x,1/2-y,-z
1/2+x,y,-z
1/2-x,1/2+y,z
1/2+x,-y,z
loop_
_atom_site_type_symbol
_atom_site_label
_atom_site_fract_x
_atom_site_fract_y
_atom_site_fract_z
Si Si1 0.094911 0.886886 0.827953
Si Si2 0.909814 0.409620 0.462828
Si Si3 0.838632 0.179940 0.336523
Si Si4 0.156625 0.990317 0.699752
Si Si5 0.087279 0.178663 0.795284
Si Si6 0.171655 0.384085 0.650353
Si Si7 0.096491 0.179648 0.990112
O O1 0.123644 0.833096 0.761420
O O2 0.133987 0.947039 0.783694
O O3 0.117966 0.866003 0.928908
O O4 0.000000 0.893390 0.822515
O O5 0.900518 0.346330 0.408945
O O6 0.883516 0.460720 0.389782
O O7 0.853741 0.402566 0.549584
O O8 0.000000 0.420028 0.490388
O O9 0.819009 0.250000 0.350163
O O10 0.762974 0.135351 0.346675
O O11 0.250000 0.000000 0.683215
O O12 0.136726 0.060710 0.711352
O O13 0.080523 0.250000 0.812526
O O14 0.130400 0.171406 0.700046
O O15 0.000000 0.152247 0.787230
O O16 0.125906 0.157784 0.890687
O O17 0.120501 0.250000 0.008555
O O18 0.000000 0.180132 0.985962
#
# Coordination Sequence:
#
# PCOD9503407 Si02
#       7
#    16  16  16  16  16  16  16
#     4  10  20  37  63  93 119 152 201 251 298 352
#     4  11  25  41  61  89 115 153 207 254 297 357
#     4  11  23  38  58  87 122 157 197 245 306 370
#     4  11  22  40  62  84 118 158 194 245 302 362
#     4   9  19  36  58  88 123 160 204 246 289 351
#     4  12  23  38  61  83 121 161 199 246 300 357
#     4   8  15  32  60  90 122 158 195 242 296 349
#
# _framework density 20.381819
#
# number of rings (size 3 to 8) (size 9 to 14) (size 15 to 20)
#    0.000    1.714    2.857    4.714    0.000    6.857 
#    0.000    1.429    0.000    6.000    0.000    0.000 
#    0.000    0.000    0.000    0.000    0.000    0.000 
#
# Total GULP energy -311908.144027 kJ/mol
# GULP energy per Si atom -5569.788286 kJ/mol
# Density = 2.033543 g / cm^3
# Si number density = 20.381819 Si / 1000 Ang^3
#
#
#
# Elastic Constant Matrix: (Units=GPa)
#
#
# Indices 1 2 3 4 5 6 
#
# 1 67.4959 7.9439 1.6818 0.0000 0.0000 0.0000
# 2 7.9439 86.5571 -1.0636 0.0000 0.0000 0.0000
# 3 1.6818 -1.0636 33.0564 0.0000 0.0000 0.0000
# 4 0.0000 0.0000 0.0000 17.0315 0.0000 0.0000
# 5 0.0000 0.0000 0.0000 0.0000 -43.2572 0.0000
# 6 0.0000 0.0000 0.0000 0.0000 0.0000 27.9118
#
#
#
# Elastic Compliance Matrix: (Units=1/GPa)
#
#
# Indices 1 2 3 4 5 6 
#
# 1 0.014999 -0.001386 -0.000808 0.000000 0.000000 0.000000
# 2 -0.001386 0.011686 0.000447 0.000000 0.000000 0.000000
# 3 -0.000808 0.000447 0.030307 0.000000 0.000000 0.000000
# 4 0.000000 0.000000 0.000000 0.058715 0.000000 0.000000
# 5 0.000000 0.000000 0.000000 0.000000 -0.023118 0.000000
# 6 0.000000 0.000000 0.000000 0.000000 0.000000 0.035827
#
#
# Mechanical properties :
#
#
# Convention : Reuss Voigt Hill
#
# Bulk Modulus (GPa) = 18.69287 22.69263 20.69275
# Shear Modulus (GPa) = 33.39045 12.24037 22.81541
#
# Velocity S-wave (km/s) = 4.05192 2.45328 3.34937
# Velocity P-wave (km/s) = 5.57512 4.37981 5.01322
#
# Compressibility (1/GPa) = 0.05349632
#
# Stress axis : x y z
#
# Youngs Moduli (GPa) = 66.67097 85.57392 32.99586
#
# Poissons Ratio (x) = 0.11865 0.02665
# Poissons Ratio (y) = 0.09244 -0.01473
# Poissons Ratio (z) = 0.05385 -0.03821
#
# Static dielectric constant tensor:
#      x y z
#    x 1.804760 0.000000 0.000000 
#    y 0.000000 1.816680 0.000000 
#    z 0.000000 0.000000 1.730600 
# 
# From -- ./inp_files/27530.got.cif
#   From: 2010.05.17/outbox.cif.g08.bks.cpg/sg67_14_cif.got.tgz:27530.got - 2010.06.03 18:28:57.
