data_PCOD9503027
_publ_section_title
;
Structure prediction by ZEFSAII (Michael W. Deem and Ramdas Pophale) SiO2 
 PCOD9503027
Probable space group: C M M A
;
_chemical_formula_sum "Si O2"
_cell_formula_units_Z 80
_cell_length_a 9.689667
_cell_length_b 15.207116
_cell_length_c 24.244421
_cell_angle_alpha 90.000000
_cell_angle_beta 90.000000
_cell_angle_gamma 90.000000
_cell_volume 3572.461258
_symmetry_space_group_name_H-M "C M M A"
_symmetry_group_IT_number 67
_symmetry_cell_setting 'orthorhombic'
loop_
_space_group_symop_operation_xyz
x,y,z
-x,1/2-y,z
x,-y,-z
-x,1/2+y,-z
-x,-y,-z
x,1/2+y,-z
-x,y,z
x,1/2-y,z
1/2+x,1/2+y,z
1/2-x,-y,z
1/2+x,1/2-y,-z
1/2-x,y,-z
1/2-x,1/2-y,-z
1/2+x,y,-z
1/2-x,1/2+y,z
1/2+x,-y,z
loop_
_atom_site_type_symbol
_atom_site_label
_atom_site_fract_x
_atom_site_fract_y
_atom_site_fract_z
Si Si1 0.289467 0.856185 0.629121
Si Si2 0.841217 0.912755 0.248478
Si Si3 0.340195 0.357722 0.053473
Si Si4 0.343094 0.648651 0.154244
Si Si5 0.000000 0.142523 0.536899
Si Si6 0.000000 0.357926 0.410529
O O1 0.292892 0.750000 0.628461
O O2 0.345352 0.884722 0.687776
O O3 0.371408 0.884554 0.574564
O O4 0.134191 0.887664 0.621600
O O5 0.747609 0.851614 0.209820
O O6 0.000000 0.919383 0.229183
O O7 0.750000 0.000000 0.245386
O O8 0.500000 0.387776 0.051944
O O9 0.346393 0.250000 0.055033
O O10 0.254635 0.390508 0.106692
O O11 0.250000 0.381516 0.000000
O O12 0.500000 0.612076 0.159913
O O13 0.361048 0.750000 0.138176
O O14 0.000000 0.250000 0.534074
O O15 0.000000 0.112319 0.474058
O O16 0.000000 0.250000 0.411391
#
# Coordination Sequence:
#
# PCOD9503027 Si02
#       6
#    16  16  16  16   8   8
#     4  10  20  35  59  87 114 146 185 232 284 342
#     4  12  26  42  59  79 111 153 196 244 294 345
#     4   9  16  28  50  83 122 158 192 234 285 336
#     4  10  21  37  60  89 119 152 194 241 288 342
#     4   9  16  32  55  87 117 143 180 227 282 339
#     4   9  18  30  55  89 119 143 176 227 282 339
#
# _framework density 22.393525
#
# number of rings (size 3 to 8) (size 9 to 14) (size 15 to 20)
#    0.000    2.000    1.000    3.000    2.800    6.800 
#    0.000    0.000    0.000    4.200    0.000    4.200 
#    0.000    0.000    0.000    0.000    0.000    0.000 
#
# Total GULP energy -223286.945334 kJ/mol
# GULP energy per Si atom -5582.173633 kJ/mol
# Density = 2.234256 g / cm^3
# Si number density = 22.393525 Si / 1000 Ang^3
#
#
#
# Elastic Constant Matrix: (Units=GPa)
#
#
# Indices 1 2 3 4 5 6 
#
# 1 240.8532 13.9879 63.4872 0.0000 0.0000 0.0000
# 2 13.9879 27.0381 2.3197 0.0000 0.0000 0.0000
# 3 63.4872 2.3197 91.3552 0.0000 0.0000 0.0000
# 4 0.0000 0.0000 0.0000 -90.0194 0.0000 0.0000
# 5 0.0000 0.0000 0.0000 0.0000 33.6578 0.0000
# 6 0.0000 0.0000 0.0000 0.0000 0.0000 -527.7645
#
#
#
# Elastic Compliance Matrix: (Units=1/GPa)
#
#
# Indices 1 2 3 4 5 6 
#
# 1 0.005234 -0.002401 -0.003576 0.000000 0.000000 0.000000
# 2 -0.002401 0.038167 0.000699 0.000000 0.000000 0.000000
# 3 -0.003576 0.000699 0.013414 0.000000 0.000000 0.000000
# 4 0.000000 0.000000 0.000000 -0.011109 0.000000 0.000000
# 5 0.000000 0.000000 0.000000 0.000000 0.029711 0.000000
# 6 0.000000 0.000000 0.000000 0.000000 0.000000 -0.001895
#
#
# Mechanical properties :
#
#
# Convention : Reuss Voigt Hill
#
# Bulk Modulus (GPa) = 21.61744 57.64846 39.63295
# Shear Modulus (GPa) = 50.25233 -98.19511 -23.97139
#
# Velocity S-wave (km/s) = 4.74229 -6.62910 -3.27534
# Velocity P-wave (km/s) = 6.29763 5.72661 1.85284
#
# Compressibility (1/GPa) = 0.04625895
#
# Stress axis : x y z
#
# Youngs Moduli (GPa) = 191.05584 26.20070 74.54915
#
# Poissons Ratio (x) = 0.06291 0.26662
# Poissons Ratio (y) = 0.45872 -0.05214
# Poissons Ratio (z) = 0.68330 -0.01832
#
# Static dielectric constant tensor:
#      x y z
#    x 1.789420 0.000000 0.000000 
#    y 0.000000 1.936870 0.000000 
#    z 0.000000 0.000000 1.790010 
# 
# From -- ./inp_files/40597.got.cif
#   From: 2010.05.17/outbox.cif.g08.bks.cpg/sg67_21_cif.got.tgz:40597.got - 2010.06.03 18:28:57.
