data_PCOD9503011
_publ_section_title
;
Structure prediction by ZEFSAII (Michael W. Deem and Ramdas Pophale) SiO2 
 PCOD9503011
Probable space group: C M M A
;
_chemical_formula_sum "Si O2"
_cell_formula_units_Z 116
_cell_length_a 26.981964
_cell_length_b 8.674871
_cell_length_c 23.927262
_cell_angle_alpha 90.000000
_cell_angle_beta 90.000000
_cell_angle_gamma 90.000000
_cell_volume 5600.535945
_symmetry_space_group_name_H-M "C M M A"
_symmetry_group_IT_number 67
_symmetry_cell_setting 'orthorhombic'
loop_
_space_group_symop_operation_xyz
x,y,z
-x,1/2-y,z
x,-y,-z
-x,1/2+y,-z
-x,-y,-z
x,1/2+y,-z
-x,y,z
x,1/2-y,z
1/2+x,1/2+y,z
1/2-x,-y,z
1/2+x,1/2-y,-z
1/2-x,y,-z
1/2-x,1/2-y,-z
1/2+x,y,-z
1/2-x,1/2+y,z
1/2+x,-y,z
loop_
_atom_site_type_symbol
_atom_site_label
_atom_site_fract_x
_atom_site_fract_y
_atom_site_fract_z
Si Si1 0.000000 0.250000 0.898270
Si Si2 0.144214 0.930442 0.559657
Si Si3 0.555807 0.435511 0.739841
Si Si4 0.441679 0.927814 0.616157
Si Si5 0.907662 0.079691 0.943812
Si Si6 0.156935 0.933022 0.783270
Si Si7 0.196899 0.066101 0.893634
Si Si8 0.804490 0.566746 0.331980
O O1 0.045143 0.383350 0.904115
O O2 0.155472 0.750000 0.562081
O O3 0.157947 0.000000 0.500000
O O4 0.086741 0.963497 0.573184
O O5 0.169408 0.020072 0.610603
O O6 0.500000 0.478139 0.757238
O O7 0.557739 0.250000 0.731065
O O8 0.565800 0.515744 0.680105
O O9 0.598424 0.474330 0.784065
O O10 0.500000 0.933159 0.606220
O O11 0.424924 0.750000 0.610771
O O12 0.891447 0.250000 0.962564
O O13 0.855869 0.009773 0.920467
O O14 0.925905 0.000000 0.000000
O O15 0.162687 0.750000 0.790863
O O16 0.189129 0.019741 0.828960
O O17 0.172273 0.982064 0.721279
O O18 0.199413 0.250000 0.898060
O O19 0.250000 0.000000 0.913852
O O20 0.805515 0.750000 0.323714
O O21 0.750000 0.500000 0.336298
#
# Coordination Sequence:
#
# PCOD9503011 Si02
#       8
#     4  16  16  16  16  16  16  16
#     4   8  18  40  70  98 138 172 234 274 336 392
#     4  12  25  42  62  87 118 153 195 247 306 372
#     4   9  18  34  57  84 118 156 198 248 305 371
#     4  10  20  35  58  87 118 152 192 237 295 361
#     4   9  20  38  67  97 132 175 223 274 335 385
#     4  11  22  39  63  91 125 166 213 262 319 381
#     4  11  24  42  61  91 132 176 223 276 331 391
#     4  12  25  43  66  90 116 151 198 249 311 380
#
# _framework density 20.712304
#
# number of rings (size 3 to 8) (size 9 to 14) (size 15 to 20)
#    0.414    1.103    1.379    4.345    0.000    3.310 
#    1.241    2.759    0.000    0.000    0.000    0.000 
#    0.000    0.000    0.000    0.000    0.000    0.000 
#
# Total GULP energy -322967.073406 kJ/mol
# GULP energy per Si atom -5568.397817 kJ/mol
# Density = 2.066516 g / cm^3
# Si number density = 20.712304 Si / 1000 Ang^3
#
#
#
# Elastic Constant Matrix: (Units=GPa)
#
#
# Indices 1 2 3 4 5 6 
#
# 1 92.3712 14.2546 16.2748 0.0000 0.0000 0.0000
# 2 14.2546 41.4289 -2.1467 0.0000 0.0000 0.0000
# 3 16.2748 -2.1467 27.5928 0.0000 0.0000 0.0000
# 4 0.0000 0.0000 0.0000 7.2739 0.0000 0.0000
# 5 0.0000 0.0000 0.0000 0.0000 11.5285 0.0000
# 6 0.0000 0.0000 0.0000 0.0000 0.0000 31.5895
#
#
#
# Elastic Compliance Matrix: (Units=1/GPa)
#
#
# Indices 1 2 3 4 5 6 
#
# 1 0.012998 -0.004889 -0.008047 0.000000 0.000000 0.000000
# 2 -0.004889 0.026075 0.004912 0.000000 0.000000 0.000000
# 3 -0.008047 0.004912 0.041370 0.000000 0.000000 0.000000
# 4 0.000000 0.000000 0.000000 0.137477 0.000000 0.000000
# 5 0.000000 0.000000 0.000000 0.000000 0.086741 0.000000
# 6 0.000000 0.000000 0.000000 0.000000 0.000000 0.031656
#
#
# Mechanical properties :
#
#
# Convention : Reuss Voigt Hill
#
# Bulk Modulus (GPa) = 15.52920 24.23980 19.88450
# Shear Modulus (GPa) = 13.37506 18.94574 16.16040
#
# Velocity S-wave (km/s) = 2.54393 3.02770 2.79629
# Velocity P-wave (km/s) = 4.01779 4.89399 4.47737
#
# Compressibility (1/GPa) = 0.06439481
#
# Stress axis : x y z
#
# Youngs Moduli (GPa) = 76.93385 38.35159 24.17222
#
# Poissons Ratio (x) = 0.18751 0.19451
# Poissons Ratio (y) = 0.37615 -0.11874
# Poissons Ratio (z) = 0.61909 -0.18840
#
# Static dielectric constant tensor:
#      x y z
#    x 1.811650 0.000000 0.000000 
#    y 0.000000 1.618530 0.000000 
#    z 0.000000 0.000000 1.744340 
# 
# From -- ./inp_files/42851.got.cif
#   From: 2010.05.17/outbox.cif.g08.bks.cpg/sg67_22_cif.got.tgz:42851.got - 2010.06.03 18:28:57.
