data_PCOD9503338
_publ_section_title
;
Structure prediction by ZEFSAII (Michael W. Deem and Ramdas Pophale) SiO2 
 PCOD9503338
Probable space group: C M M A
;
_chemical_formula_sum "Si O2"
_cell_formula_units_Z 68
_cell_length_a 17.797115
_cell_length_b 20.358820
_cell_length_c 9.996186
_cell_angle_alpha 90.000000
_cell_angle_beta 90.000000
_cell_angle_gamma 90.000000
_cell_volume 3621.900688
_symmetry_space_group_name_H-M "C M M A"
_symmetry_group_IT_number 67
_symmetry_cell_setting 'orthorhombic'
loop_
_space_group_symop_operation_xyz
x,y,z
-x,1/2-y,z
x,-y,-z
-x,1/2+y,-z
-x,-y,-z
x,1/2+y,-z
-x,y,z
x,1/2-y,z
1/2+x,1/2+y,z
1/2-x,-y,z
1/2+x,1/2-y,-z
1/2-x,y,-z
1/2-x,1/2-y,-z
1/2+x,y,-z
1/2-x,1/2+y,z
1/2+x,-y,z
loop_
_atom_site_type_symbol
_atom_site_label
_atom_site_fract_x
_atom_site_fract_y
_atom_site_fract_z
Si Si1 0.173675 0.893197 0.688230
Si Si2 0.917999 0.572083 0.939266
Si Si3 0.410296 0.750000 0.733030
Si Si4 0.696729 0.650529 0.885223
Si Si5 0.663633 0.750000 0.448025
Si Si6 0.250000 0.000000 0.500000
O O1 0.108868 0.920140 0.786362
O O2 0.247601 0.881623 0.778856
O O3 0.154761 0.819912 0.630174
O O4 0.197347 0.949594 0.583738
O O5 0.000000 0.604548 0.954170
O O6 0.924324 0.500000 0.000000
O O7 0.852693 0.602342 0.027460
O O8 0.500000 0.750000 0.755375
O O9 0.364683 0.808944 0.802667
O O10 0.391054 0.750000 0.575705
O O11 0.750000 0.682812 0.000000
O O12 0.750000 0.750000 0.500000
#
# Coordination Sequence:
#
# PCOD9503338 Si02
#       6
#    16  16   8  16   8   4
#     4  11  22  38  64  87 119 160 210 252 312 373
#     4  10  22  39  58  86 123 155 194 256 318 371
#     4  12  23  36  58  88 117 153 198 249 304 369
#     4  10  20  37  60  84 111 151 195 250 305 368
#     4  12  22  42  59  84 127 168 201 258 314 367
#     4  12  20  34  60  92 108 154 216 256 288 378
#
# _framework density 18.774673
#
# number of rings (size 3 to 8) (size 9 to 14) (size 15 to 20)
#    0.000    1.176    3.529    2.471    0.000    7.059 
#    0.000    1.765    0.000    0.000    0.000    0.000 
#    0.000    0.000    0.000    0.000    0.000    0.000 
#
# Total GULP energy -189299.078357 kJ/mol
# GULP energy per Si atom -5567.619952 kJ/mol
# Density = 1.873194 g / cm^3
# Si number density = 18.774673 Si / 1000 Ang^3
#
#
#
# Elastic Constant Matrix: (Units=GPa)
#
#
# Indices 1 2 3 4 5 6 
#
# 1 125.0805 38.0229 43.9734 0.0000 0.0000 0.0000
# 2 38.0229 116.1780 66.4631 0.0000 0.0000 0.0000
# 3 43.9734 66.4631 121.1063 0.0000 0.0000 0.0000
# 4 0.0000 0.0000 0.0000 39.2616 0.0000 0.0000
# 5 0.0000 0.0000 0.0000 0.0000 37.4914 0.0000
# 6 0.0000 0.0000 0.0000 0.0000 0.0000 17.1052
#
#
#
# Elastic Compliance Matrix: (Units=1/GPa)
#
#
# Indices 1 2 3 4 5 6 
#
# 1 0.009373 -0.001633 -0.002507 0.000000 0.000000 0.000000
# 2 -0.001633 0.012831 -0.006449 0.000000 0.000000 0.000000
# 3 -0.002507 -0.006449 0.012706 0.000000 0.000000 0.000000
# 4 0.000000 0.000000 0.000000 0.025470 0.000000 0.000000
# 5 0.000000 0.000000 0.000000 0.000000 0.026673 0.000000
# 6 0.000000 0.000000 0.000000 0.000000 0.000000 0.058462
#
#
# Mechanical properties :
#
#
# Convention : Reuss Voigt Hill
#
# Bulk Modulus (GPa) = 72.81949 73.25375 73.03662
# Shear Modulus (GPa) = 29.19358 33.03198 31.11278
#
# Velocity S-wave (km/s) = 3.94756 4.19906 4.07525
# Velocity P-wave (km/s) = 7.72320 7.91274 7.81855
#
# Compressibility (1/GPa) = 0.01373259
#
# Stress axis : x y z
#
# Youngs Moduli (GPa) = 106.69314 77.93480 78.70021
#
# Poissons Ratio (x) = 0.12730 0.19728
# Poissons Ratio (y) = 0.17428 0.50751
# Poissons Ratio (z) = 0.26746 0.50258
#
# Static dielectric constant tensor:
#      x y z
#    x 1.651580 0.000000 0.000000 
#    y 0.000000 1.742030 0.000000 
#    z 0.000000 0.000000 1.682950 
# 
# From -- ./inp_files/9546.got.cif
#   From: 2010.05.17/outbox.cif.g08.bks.cpg/sg67_5_cif.got.tgz:9546.got - 2010.06.03 18:28:57.
