data_PCOD9503351
_publ_section_title
;
Structure prediction by ZEFSAII (Michael W. Deem and Ramdas Pophale) SiO2 
 PCOD9503351
Probable space group: C M M A
;
_chemical_formula_sum "Si O2"
_cell_formula_units_Z 68
_cell_length_a 10.172175
_cell_length_b 14.293229
_cell_length_c 20.241251
_cell_angle_alpha 90.000000
_cell_angle_beta 90.000000
_cell_angle_gamma 90.000000
_cell_volume 2942.940795
_symmetry_space_group_name_H-M "C M M A"
_symmetry_group_IT_number 67
_symmetry_cell_setting 'orthorhombic'
loop_
_space_group_symop_operation_xyz
x,y,z
-x,1/2-y,z
x,-y,-z
-x,1/2+y,-z
-x,-y,-z
x,1/2+y,-z
-x,y,z
x,1/2-y,z
1/2+x,1/2+y,z
1/2-x,-y,z
1/2+x,1/2-y,-z
1/2-x,y,-z
1/2-x,1/2-y,-z
1/2+x,y,-z
1/2-x,1/2+y,z
1/2+x,-y,z
loop_
_atom_site_type_symbol
_atom_site_label
_atom_site_fract_x
_atom_site_fract_y
_atom_site_fract_z
Si Si1 0.747281 0.888472 0.300478
Si Si2 0.000000 0.750000 0.293840
Si Si3 0.149746 0.863852 0.058478
Si Si4 0.858712 0.141564 0.160085
Si Si5 0.855696 0.360735 0.448121
O O1 0.883754 0.831996 0.294475
O O2 0.659247 0.858643 0.238383
O O3 0.690029 0.868780 0.372863
O O4 0.750000 0.000000 0.294831
O O5 0.139722 0.750000 0.058079
O O6 0.226146 0.893844 0.125011
O O7 0.000000 0.898323 0.052295
O O8 0.250000 0.889579 0.000000
O O9 0.865674 0.250000 0.138286
O O10 0.000000 0.097967 0.141753
O O11 0.866394 0.250000 0.462234
O O12 0.750000 0.397739 0.500000
O O13 0.000000 0.403031 0.456094
#
# Coordination Sequence:
#
# PCOD9503351 Si02
#       5
#    16   4  16  16  16
#     4  12  27  44  71 104 143 194 244 302 373 444
#     4  12  28  48  76 108 160 186 256 318 370 438
#     4   9  17  29  51  85 125 173 233 292 359 438
#     4  10  20  37  60  88 132 182 233 298 367 429
#     4  10  22  42  68  98 139 190 241 301 375 439
#
# _framework density 23.10614
#
# number of rings (size 3 to 8) (size 9 to 14) (size 15 to 20)
#    0.000    1.647    2.353    1.412    6.588    5.176 
#    0.000    1.176    0.000    0.706    0.000    3.294 
#    0.000    0.000    0.000    0.000    0.000    0.000 
#
# Total GULP energy -189369.358902 kJ/mol
# GULP energy per Si atom -5569.687027 kJ/mol
# Density = 2.305355 g / cm^3
# Si number density = 23.106140 Si / 1000 Ang^3
#
#
#
# Elastic Constant Matrix: (Units=GPa)
#
#
# Indices 1 2 3 4 5 6 
#
# 1 260.3081 36.2292 82.3403 0.0000 0.0000 0.0000
# 2 36.2292 118.0670 -11.4001 0.0000 0.0000 0.0000
# 3 82.3403 -11.4001 125.5127 0.0000 0.0000 0.0000
# 4 0.0000 0.0000 0.0000 -247.1724 0.0000 0.0000
# 5 0.0000 0.0000 0.0000 0.0000 5.6441 0.0000
# 6 0.0000 0.0000 0.0000 0.0000 0.0000 -2.8975
#
#
#
# Elastic Compliance Matrix: (Units=1/GPa)
#
#
# Indices 1 2 3 4 5 6 
#
# 1 0.005264 -0.001966 -0.003632 0.000000 0.000000 0.000000
# 2 -0.001966 0.009279 0.002133 0.000000 0.000000 0.000000
# 3 -0.003632 0.002133 0.010544 0.000000 0.000000 0.000000
# 4 0.000000 0.000000 0.000000 -0.004046 0.000000 0.000000
# 5 0.000000 0.000000 0.000000 0.000000 0.177175 0.000000
# 6 0.000000 0.000000 0.000000 0.000000 0.000000 -0.345123
#
#
# Mechanical properties :
#
#
# Convention : Reuss Voigt Hill
#
# Bulk Modulus (GPa) = 55.07851 79.80294 67.44072
# Shear Modulus (GPa) = -37.33452 -22.43726 -29.88589
#
# Velocity S-wave (km/s) = -4.02404 -3.11955 -3.60031
# Velocity P-wave (km/s) = 1.51604 4.65157 3.45944
#
# Compressibility (1/GPa) = 0.01815590
#
# Stress axis : x y z
#
# Youngs Moduli (GPa) = 189.96651 107.77089 94.84326
#
# Poissons Ratio (x) = 0.21188 0.34447
# Poissons Ratio (y) = 0.37347 -0.20226
# Poissons Ratio (z) = 0.68995 -0.22983
#
# Static dielectric constant tensor:
#      x y z
#    x 1.870440 0.000000 0.000000 
#    y 0.000000 1.884430 0.000000 
#    z 0.000000 0.000000 1.873910 
# 
# From -- ./inp_files/36661.got.cif
#   From: 2010.05.17/outbox.cif.g08.bks.cpg/sg67_19_cif.got.tgz:36661.got - 2010.06.03 18:28:57.
