data_PCOD9503281
_publ_section_title
;
Structure prediction by ZEFSAII (Michael W. Deem and Ramdas Pophale) SiO2 
 PCOD9503281
Probable space group: C M M A
;
_chemical_formula_sum "Si O2"
_cell_formula_units_Z 72
_cell_length_a 20.484771
_cell_length_b 8.586530
_cell_length_c 19.955295
_cell_angle_alpha 90.000000
_cell_angle_beta 90.000000
_cell_angle_gamma 90.000000
_cell_volume 3509.998714
_symmetry_space_group_name_H-M "C M M A"
_symmetry_group_IT_number 67
_symmetry_cell_setting 'orthorhombic'
loop_
_space_group_symop_operation_xyz
x,y,z
-x,1/2-y,z
x,-y,-z
-x,1/2+y,-z
-x,-y,-z
x,1/2+y,-z
-x,y,z
x,1/2-y,z
1/2+x,1/2+y,z
1/2-x,-y,z
1/2+x,1/2-y,-z
1/2-x,y,-z
1/2-x,1/2-y,-z
1/2+x,y,-z
1/2-x,1/2+y,z
1/2+x,-y,z
loop_
_atom_site_type_symbol
_atom_site_label
_atom_site_fract_x
_atom_site_fract_y
_atom_site_fract_z
Si Si1 0.821581 0.937216 0.074855
Si Si2 0.924071 0.061921 0.811111
Si Si3 0.817134 0.065901 0.287349
Si Si4 0.856004 0.937985 0.424117
Si Si5 0.000000 0.435795 0.574434
O O1 0.818421 0.750000 0.073749
O O2 0.880650 0.984257 0.124129
O O3 0.750000 0.000000 0.095607
O O4 0.833375 0.000000 0.000000
O O5 0.925560 0.250000 0.808652
O O6 0.000000 0.008919 0.811424
O O7 0.880555 0.003673 0.749127
O O8 0.817762 0.250000 0.281311
O O9 0.750000 0.000000 0.256590
O O10 0.816280 0.015932 0.365121
O O11 0.849060 0.750000 0.424653
O O12 0.929687 0.982895 0.400401
O O13 0.844929 0.000000 0.500000
O O14 0.000000 0.500000 0.500000
O O15 0.000000 0.250000 0.574131
#
# Coordination Sequence:
#
# PCOD9503281 Si02
#       5
#    16  16  16  16   8
#     4  10  20  36  62  94 128 168 209 252 301 359
#     4  10  23  43  65  91 126 166 207 255 311 367
#     4  12  26  43  63  89 120 161 208 257 313 374
#     4  10  20  37  60  89 121 158 200 251 310 371
#     4   8  16  30  52  80 112 148 183 226 287 350
#
# _framework density 20.512829
#
# number of rings (size 3 to 8) (size 9 to 14) (size 15 to 20)
#    0.000    1.778    0.000    4.667    1.556    5.778 
#    0.000    2.222    0.000    0.000    0.000    0.000 
#    0.000    0.000    0.000    0.000    0.000    0.000 
#
# Total GULP energy -200855.115475 kJ/mol
# GULP energy per Si atom -5579.308763 kJ/mol
# Density = 2.046614 g / cm^3
# Si number density = 20.512829 Si / 1000 Ang^3
#
#
#
# Elastic Constant Matrix: (Units=GPa)
#
#
# Indices 1 2 3 4 5 6 
#
# 1 196.8881 34.6751 75.2785 0.0000 0.0000 0.0000
# 2 34.6751 31.0213 24.2517 0.0000 0.0000 0.0000
# 3 75.2785 24.2517 129.3259 0.0000 0.0000 0.0000
# 4 0.0000 0.0000 0.0000 26.8896 0.0000 0.0000
# 5 0.0000 0.0000 0.0000 0.0000 44.4146 0.0000
# 6 0.0000 0.0000 0.0000 0.0000 0.0000 20.1928
#
#
#
# Elastic Compliance Matrix: (Units=1/GPa)
#
#
# Indices 1 2 3 4 5 6 
#
# 1 0.007294 -0.005664 -0.003183 0.000000 0.000000 0.000000
# 2 -0.005664 0.042172 -0.004611 0.000000 0.000000 0.000000
# 3 -0.003183 -0.004611 0.010450 0.000000 0.000000 0.000000
# 4 0.000000 0.000000 0.000000 0.037189 0.000000 0.000000
# 5 0.000000 0.000000 0.000000 0.000000 0.022515 0.000000
# 6 0.000000 0.000000 0.000000 0.000000 0.000000 0.049523
#
#
# Mechanical properties :
#
#
# Convention : Reuss Voigt Hill
#
# Bulk Modulus (GPa) = 30.30454 69.51623 49.91039
# Shear Modulus (GPa) = 24.14762 33.16807 28.65785
#
# Velocity S-wave (km/s) = 3.43475 4.02549 3.74179
# Velocity P-wave (km/s) = 5.52590 7.45445 6.56141
#
# Compressibility (1/GPa) = 0.03299835
#
# Stress axis : x y z
#
# Youngs Moduli (GPa) = 137.10453 23.71236 95.69249
#
# Poissons Ratio (x) = 0.13431 0.30463
# Poissons Ratio (y) = 0.77657 0.44127
# Poissons Ratio (z) = 0.43646 0.10935
#
# Static dielectric constant tensor:
#      x y z
#    x 1.813980 0.000000 0.000000 
#    y 0.000000 1.685450 0.000000 
#    z 0.000000 0.000000 1.733750 
# 
# From -- ./inp_files/39226.got.cif
#   From: 2010.05.17/outbox.cif.g08.bks.cpg/sg67_20_cif.got.tgz:39226.got - 2010.06.03 18:28:57.
