data_PCOD9503056
_publ_section_title
;
Structure prediction by ZEFSAII (Michael W. Deem and Ramdas Pophale) SiO2 
 PCOD9503056
Probable space group: C M M A
;
_chemical_formula_sum "Si O2"
_cell_formula_units_Z 52
_cell_length_a 14.756439
_cell_length_b 28.772003
_cell_length_c 5.379221
_cell_angle_alpha 90.000000
_cell_angle_beta 90.000000
_cell_angle_gamma 90.000000
_cell_volume 2283.868271
_symmetry_space_group_name_H-M "C M M A"
_symmetry_group_IT_number 67
_symmetry_cell_setting 'orthorhombic'
loop_
_space_group_symop_operation_xyz
x,y,z
-x,1/2-y,z
x,-y,-z
-x,1/2+y,-z
-x,-y,-z
x,1/2+y,-z
-x,y,z
x,1/2-y,z
1/2+x,1/2+y,z
1/2-x,-y,z
1/2+x,1/2-y,-z
1/2-x,y,-z
1/2-x,1/2-y,-z
1/2+x,y,-z
1/2-x,1/2+y,z
1/2+x,-y,z
loop_
_atom_site_type_symbol
_atom_site_label
_atom_site_fract_x
_atom_site_fract_y
_atom_site_fract_z
Si Si1 0.639488 0.303574 0.496780
Si Si2 0.902654 0.455969 0.819521
Si Si3 0.640403 0.856054 0.004527
Si Si4 0.250000 0.000000 0.500000
O O1 0.610859 0.250000 0.510951
O O2 0.750000 0.303667 0.500000
O O3 0.610904 0.327287 0.239071
O O4 0.610659 0.332383 0.739119
O O5 0.890839 0.408792 0.972198
O O6 0.816454 0.465939 0.649699
O O7 0.000000 0.453552 0.683977
O O8 0.904674 0.500000 0.000000
O O9 0.750000 0.856042 0.000000
#
# Coordination Sequence:
#
# PCOD9503056 Si02
#       4
#    16  16  16   4
#     4   9  18  33  58  93 130 169 224 278 333 398
#     4  11  26  44  66  99 137 177 226 283 342 414
#     4  10  20  35  62  93 129 177 219 276 337 401
#     4  12  24  44  72  96 130 180 224 280 342 414
#
# _framework density 22.768386
#
# number of rings (size 3 to 8) (size 9 to 14) (size 15 to 20)
#    0.000    1.846    0.000    3.692   10.769    3.692 
#    0.000    0.000    0.000    5.538    0.000    0.000 
#    0.000    0.000    0.000    0.000    0.000    0.000 
#
# Total GULP energy -145503.978445 kJ/mol
# GULP energy per Si atom -5596.306863 kJ/mol
# Density = 2.271656 g / cm^3
# Si number density = 22.768386 Si / 1000 Ang^3
#
#
#
# Elastic Constant Matrix: (Units=GPa)
#
#
# Indices 1 2 3 4 5 6 
#
# 1 140.2534 32.2942 47.7652 0.0000 0.0000 0.0000
# 2 32.2942 231.9782 109.2198 0.0000 0.0000 0.0000
# 3 47.7652 109.2198 166.6901 0.0000 0.0000 0.0000
# 4 0.0000 0.0000 0.0000 40.0020 0.0000 0.0000
# 5 0.0000 0.0000 0.0000 0.0000 -11.5666 0.0000
# 6 0.0000 0.0000 0.0000 0.0000 0.0000 -517.6029
#
#
#
# Elastic Compliance Matrix: (Units=1/GPa)
#
#
# Indices 1 2 3 4 5 6 
#
# 1 0.007901 -0.000049 -0.002232 0.000000 0.000000 0.000000
# 2 -0.000049 0.006234 -0.004071 0.000000 0.000000 0.000000
# 3 -0.002232 -0.004071 0.009306 0.000000 0.000000 0.000000
# 4 0.000000 0.000000 0.000000 0.024999 0.000000 0.000000
# 5 0.000000 0.000000 0.000000 0.000000 -0.086456 0.000000
# 6 0.000000 0.000000 0.000000 0.000000 0.000000 -0.001932
#
#
# Mechanical properties :
#
#
# Convention : Reuss Voigt Hill
#
# Bulk Modulus (GPa) = 93.12789 101.94222 97.53505
# Shear Modulus (GPa) = -211.28774 -74.52399 -142.90587
#
# Velocity S-wave (km/s) = -9.64366 -5.72734 -7.93103
# Velocity P-wave (km/s) = 9.11094 1.06501 6.39824
#
# Compressibility (1/GPa) = 0.01073792
#
# Stress axis : x y z
#
# Youngs Moduli (GPa) = 126.56011 160.40666 107.45798
#
# Poissons Ratio (x) = 0.00788 0.23984
# Poissons Ratio (y) = 0.00622 0.43743
# Poissons Ratio (z) = 0.28248 0.65297
#
# Static dielectric constant tensor:
#      x y z
#    x 2.237690 0.000000 0.000000 
#    y 0.000000 1.778780 0.000000 
#    z 0.000000 0.000000 1.823150 
# 
# From -- ./inp_files/1418.got.cif
#   From: 2010.05.17/outbox.cif.g08.bks.cpg/sg67_1_cif.got.tgz:1418.got - 2010.06.03 18:28:57.
