data_PCOD9503647
_publ_section_title
;
Structure prediction by ZEFSAII (Michael W. Deem and Ramdas Pophale) SiO2 
 PCOD9503647
Probable space group: C M M A
;
_chemical_formula_sum "Si O2"
_cell_formula_units_Z 112
_cell_length_a 24.453806
_cell_length_b 19.972768
_cell_length_c 11.641640
_cell_angle_alpha 90.000000
_cell_angle_beta 90.000000
_cell_angle_gamma 90.000000
_cell_volume 5685.895650
_symmetry_space_group_name_H-M "C M M A"
_symmetry_group_IT_number 67
_symmetry_cell_setting 'orthorhombic'
loop_
_space_group_symop_operation_xyz
x,y,z
-x,1/2-y,z
x,-y,-z
-x,1/2+y,-z
-x,-y,-z
x,1/2+y,-z
-x,y,z
x,1/2-y,z
1/2+x,1/2+y,z
1/2-x,-y,z
1/2+x,1/2-y,-z
1/2-x,y,-z
1/2-x,1/2-y,-z
1/2+x,y,-z
1/2-x,1/2+y,z
1/2+x,-y,z
loop_
_atom_site_type_symbol
_atom_site_label
_atom_site_fract_x
_atom_site_fract_y
_atom_site_fract_z
Si Si1 0.345309 0.076154 0.977659
Si Si2 0.937867 0.672598 0.401026
Si Si3 0.174311 0.827333 0.768887
Si Si4 0.255341 0.077176 0.363252
Si Si5 0.562871 0.638536 0.348720
Si Si6 0.136106 0.391860 0.772889
Si Si7 0.561935 0.019902 0.824929
O O1 0.321210 0.125119 0.881288
O O2 0.405884 0.059083 0.926322
O O3 0.344632 0.116594 0.096452
O O4 0.321885 0.000000 0.000000
O O5 0.936278 0.750000 0.435790
O O6 0.921793 0.633630 0.517004
O O7 0.901438 0.661786 0.289839
O O8 0.000000 0.653495 0.372741
O O9 0.191627 0.750000 0.785494
O O10 0.210766 0.869663 0.680221
O O11 0.111939 0.825860 0.720085
O O12 0.250000 0.076201 0.500000
O O13 0.313221 0.098661 0.311584
O O14 0.250000 0.000000 0.321906
O O15 0.500000 0.666421 0.343370
O O16 0.560200 0.567730 0.285380
O O17 0.098804 0.457802 0.787845
O O18 0.500000 0.002213 0.856738
#
# Coordination Sequence:
#
# PCOD9503647 Si02
#       7
#    16  16  16  16  16  16  16
#     4   9  20  38  59  84 115 154 193 236 293 348
#     4  10  21  35  52  78 113 151 187 228 285 349
#     4  11  23  40  63  91 119 150 198 250 294 347
#     4  11  24  41  61  86 119 158 197 241 296 354
#     4   9  18  35  59  85 115 148 183 232 294 354
#     4  11  22  36  57  80 111 152 193 238 286 341
#     4   9  18  34  59  90 117 146 191 241 290 347
#
# _framework density 19.697863000000002
#
# number of rings (size 3 to 8) (size 9 to 14) (size 15 to 20)
#    0.000    2.000    0.000    4.286    0.000    7.714 
#    0.000    5.714    0.000    0.000    0.000    0.000 
#    0.000    0.000    0.000    0.000    0.000    0.000 
#
# Total GULP energy -312006.414010 kJ/mol
# GULP energy per Si atom -5571.543107 kJ/mol
# Density = 1.965303 g / cm^3
# Si number density = 19.697863 Si / 1000 Ang^3
#
#
#
# Elastic Constant Matrix: (Units=GPa)
#
#
# Indices 1 2 3 4 5 6 
#
# 1 61.9131 27.6368 18.8162 0.0000 0.0000 0.0000
# 2 27.6368 78.8585 29.5314 0.0000 0.0000 0.0000
# 3 18.8162 29.5314 106.5952 0.0000 0.0000 0.0000
# 4 0.0000 0.0000 0.0000 8.3620 0.0000 0.0000
# 5 0.0000 0.0000 0.0000 0.0000 -39.4663 0.0000
# 6 0.0000 0.0000 0.0000 0.0000 0.0000 10.6146
#
#
#
# Elastic Compliance Matrix: (Units=1/GPa)
#
#
# Indices 1 2 3 4 5 6 
#
# 1 0.019426 -0.006163 -0.001722 0.000000 0.000000 0.000000
# 2 -0.006163 0.016104 -0.003374 0.000000 0.000000 0.000000
# 3 -0.001722 -0.003374 0.010620 0.000000 0.000000 0.000000
# 4 0.000000 0.000000 0.000000 0.119589 0.000000 0.000000
# 5 0.000000 0.000000 0.000000 0.000000 -0.025338 0.000000
# 6 0.000000 0.000000 0.000000 0.000000 0.000000 0.094210
#
#
# Mechanical properties :
#
#
# Convention : Reuss Voigt Hill
#
# Bulk Modulus (GPa) = 42.31354 44.37060 43.34207
# Shear Modulus (GPa) = 18.86750 7.32755 13.09753
#
# Velocity S-wave (km/s) = 3.09826 1.93082 2.58140
# Velocity P-wave (km/s) = 5.85892 5.24835 5.56202
#
# Compressibility (1/GPa) = 0.02363310
#
# Stress axis : x y z
#
# Youngs Moduli (GPa) = 51.47719 62.09507 94.16357
#
# Poissons Ratio (x) = 0.38271 0.16211
# Poissons Ratio (y) = 0.31727 0.31767
# Poissons Ratio (z) = 0.08862 0.20949
#
# Static dielectric constant tensor:
#      x y z
#    x 1.746120 0.000000 0.000000 
#    y 0.000000 1.698220 0.000000 
#    z 0.000000 0.000000 1.711300 
# 
# From -- ./inp_files/23136.got.cif
#   From: 2010.05.17/outbox.cif.g08.bks.cpg/sg67_12_cif.got.tgz:23136.got - 2010.06.03 18:28:57.
