data_PCOD9503784
_publ_section_title
;
Structure prediction by ZEFSAII (Michael W. Deem and Ramdas Pophale) SiO2 
 PCOD9503784
Probable space group: C M M A
;
_chemical_formula_sum "Si O2"
_cell_formula_units_Z 68
_cell_length_a 17.355671
_cell_length_b 17.397916
_cell_length_c 9.924200
_cell_angle_alpha 90.000000
_cell_angle_beta 90.000000
_cell_angle_gamma 90.000000
_cell_volume 2996.637062
_symmetry_space_group_name_H-M "C M M A"
_symmetry_group_IT_number 67
_symmetry_cell_setting 'orthorhombic'
loop_
_space_group_symop_operation_xyz
x,y,z
-x,1/2-y,z
x,-y,-z
-x,1/2+y,-z
-x,-y,-z
x,1/2+y,-z
-x,y,z
x,1/2-y,z
1/2+x,1/2+y,z
1/2-x,-y,z
1/2+x,1/2-y,-z
1/2-x,y,-z
1/2-x,1/2-y,-z
1/2+x,y,-z
1/2-x,1/2+y,z
1/2+x,-y,z
loop_
_atom_site_type_symbol
_atom_site_label
_atom_site_fract_x
_atom_site_fract_y
_atom_site_fract_z
Si Si1 0.643796 0.167693 0.033801
Si Si2 0.229739 0.662358 0.307427
Si Si3 0.000000 0.250000 0.865725
Si Si4 0.671054 0.453594 0.810632
Si Si5 0.587899 0.437928 0.379562
O O1 0.651755 0.250000 0.956620
O O2 0.567188 0.184010 0.119145
O O3 0.641739 0.096176 0.935460
O O4 0.708658 0.161906 0.147296
O O5 0.243147 0.750000 0.347026
O O6 0.302361 0.605598 0.307684
O O7 0.155913 0.625541 0.381910
O O8 0.750000 0.500000 0.840406
O O9 0.608678 0.512470 0.753654
O O10 0.594326 0.500000 0.500000
O O11 0.500000 0.407955 0.381335
#
# Coordination Sequence:
#
# PCOD9503784 Si02
#       5
#    16  16   4  16  16
#     4   9  19  34  56  87 120 147 185 226 280 336
#     4  10  21  37  63  85 113 151 188 232 278 341
#     4   8  20  32  54  90 118 160 176 236 276 326
#     4  10  21  36  57  86 118 152 185 230 287 338
#     4  10  24  42  59  80 112 151 193 242 286 332
#
# _framework density 22.692104
#
# number of rings (size 3 to 8) (size 9 to 14) (size 15 to 20)
#    0.706    1.647    0.000    1.412    3.294   13.176 
#    0.000    4.706    0.000    2.824    0.000    0.000 
#    0.000    0.000    0.000    0.000    0.000    0.000 
#
# Total GULP energy -189280.393905 kJ/mol
# GULP energy per Si atom -5567.070409 kJ/mol
# Density = 2.264046 g / cm^3
# Si number density = 22.692104 Si / 1000 Ang^3
#
#
#
# Elastic Constant Matrix: (Units=GPa)
#
#
# Indices 1 2 3 4 5 6 
#
# 1 32.4522 -9.6586 -21.8011 0.0000 0.0000 0.0000
# 2 -9.6586 118.1915 7.9427 0.0000 0.0000 0.0000
# 3 -21.8011 7.9427 70.2210 0.0000 0.0000 0.0000
# 4 0.0000 0.0000 0.0000 19.4930 0.0000 0.0000
# 5 0.0000 0.0000 0.0000 0.0000 10.7826 0.0000
# 6 0.0000 0.0000 0.0000 0.0000 0.0000 37.9331
#
#
#
# Elastic Compliance Matrix: (Units=1/GPa)
#
#
# Indices 1 2 3 4 5 6 
#
# 1 0.039616 0.002429 0.012024 0.000000 0.000000 0.000000
# 2 0.002429 0.008675 -0.000227 0.000000 0.000000 0.000000
# 3 0.012024 -0.000227 0.018000 0.000000 0.000000 0.000000
# 4 0.000000 0.000000 0.000000 0.051300 0.000000 0.000000
# 5 0.000000 0.000000 0.000000 0.000000 0.092742 0.000000
# 6 0.000000 0.000000 0.000000 0.000000 0.000000 0.026362
#
#
# Mechanical properties :
#
#
# Convention : Reuss Voigt Hill
#
# Bulk Modulus (GPa) = 10.55485 19.31452 14.93469
# Shear Modulus (GPa) = 20.84881 29.93385 25.39133
#
# Velocity S-wave (km/s) = 3.03441 3.63592 3.34870
# Velocity P-wave (km/s) = 4.11561 5.11436 4.64192
#
# Compressibility (1/GPa) = 0.09474319
#
# Stress axis : x y z
#
# Youngs Moduli (GPa) = 25.24264 115.27879 55.55684
#
# Poissons Ratio (x) = -0.28005 -0.66804
# Poissons Ratio (y) = -0.06132 0.01261
# Poissons Ratio (z) = -0.30353 0.02617
#
# Static dielectric constant tensor:
#      x y z
#    x 1.859120 0.000000 0.000000 
#    y 0.000000 1.927420 0.000000 
#    z 0.000000 0.000000 1.907120 
# 
# From -- ./inp_files/19161.got.cif
#   From: 2010.05.17/outbox.cif.g08.bks.cpg/sg67_10_cif.got.tgz:19161.got - 2010.06.03 18:28:57.
