data_PCOD9503135
_publ_section_title
;
Structure prediction by ZEFSAII (Michael W. Deem and Ramdas Pophale) SiO2 
 PCOD9503135
Probable space group: C M M A
;
_chemical_formula_sum "Si O2"
_cell_formula_units_Z 104
_cell_length_a 22.121124
_cell_length_b 8.424655
_cell_length_c 29.828500
_cell_angle_alpha 90.000000
_cell_angle_beta 90.000000
_cell_angle_gamma 90.000000
_cell_volume 5558.923911
_symmetry_space_group_name_H-M "C M M A"
_symmetry_group_IT_number 67
_symmetry_cell_setting 'orthorhombic'
loop_
_space_group_symop_operation_xyz
x,y,z
-x,1/2-y,z
x,-y,-z
-x,1/2+y,-z
-x,-y,-z
x,1/2+y,-z
-x,y,z
x,1/2-y,z
1/2+x,1/2+y,z
1/2-x,-y,z
1/2+x,1/2-y,-z
1/2-x,y,-z
1/2-x,1/2-y,-z
1/2+x,y,-z
1/2-x,1/2+y,z
1/2+x,-y,z
loop_
_atom_site_type_symbol
_atom_site_label
_atom_site_fract_x
_atom_site_fract_y
_atom_site_fract_z
Si Si1 0.682369 0.559337 0.954356
Si Si2 0.605070 0.566414 0.119829
Si Si3 0.000000 0.443104 0.052009
Si Si4 0.573188 0.930146 0.547099
Si Si5 0.684227 0.061601 0.196124
Si Si6 0.183642 0.559572 0.702295
Si Si7 0.069346 0.560683 0.644036
O O1 0.677100 0.750000 0.949785
O O2 0.750000 0.500000 0.958635
O O3 0.661870 0.461209 0.911686
O O4 0.649783 0.500000 0.000000
O O5 0.591209 0.750000 0.128963
O O6 0.554918 0.503719 0.084645
O O7 0.626635 0.485869 0.165694
O O8 0.000000 0.250000 0.049722
O O9 0.000000 0.500000 0.000000
O O10 0.500000 0.927620 0.543936
O O11 0.594258 0.750000 0.552476
O O12 0.595667 0.000000 0.500000
O O13 0.585838 0.025918 0.592308
O O14 0.688137 0.250000 0.198176
O O15 0.750000 0.000000 0.179014
O O16 0.677280 0.992293 0.245992
O O17 0.184634 0.750000 0.700044
O O18 0.250000 0.500000 0.686645
O O19 0.124642 0.500824 0.674856
O O20 0.066287 0.750000 0.650391
O O21 0.000000 0.498996 0.652179
#
# Coordination Sequence:
#
# PCOD9503135 Si02
#       7
#    16  16   8  16  16  16  16
#     4  11  21  34  52  78 106 134 164 203 251 300
#     4  11  22  39  58  80 106 137 175 214 258 309
#     4  10  24  42  62  82 108 146 182 216 257 314
#     4   9  16  26  44  72 107 146 187 234 286 339
#     4  11  22  38  60  85 111 141 177 223 272 324
#     4  10  20  36  58  82 111 148 189 233 283 343
#     4   9  18  33  53  79 110 146 189 235 285 339
#
# _framework density 18.708656999999999
#
# number of rings (size 3 to 8) (size 9 to 14) (size 15 to 20)
#    0.000    1.846    0.000    6.462    0.000    5.538 
#    1.385    0.000    0.000    0.462    0.000    3.231 
#    0.000    0.000    0.000    0.000    0.000    0.000 
#
# Total GULP energy -289476.071808 kJ/mol
# GULP energy per Si atom -5566.847535 kJ/mol
# Density = 1.866608 g / cm^3
# Si number density = 18.708657 Si / 1000 Ang^3
#
#
#
# Elastic Constant Matrix: (Units=GPa)
#
#
# Indices 1 2 3 4 5 6 
#
# 1 104.9791 13.8552 66.3117 0.0000 0.0000 0.0000
# 2 13.8552 42.5747 5.9841 0.0000 0.0000 0.0000
# 3 66.3117 5.9841 101.0953 0.0000 0.0000 0.0000
# 4 0.0000 0.0000 0.0000 18.2343 0.0000 0.0000
# 5 0.0000 0.0000 0.0000 0.0000 24.2532 0.0000
# 6 0.0000 0.0000 0.0000 0.0000 0.0000 12.3950
#
#
#
# Elastic Compliance Matrix: (Units=1/GPa)
#
#
# Indices 1 2 3 4 5 6 
#
# 1 0.016907 -0.003976 -0.010854 0.000000 0.000000 0.000000
# 2 -0.003976 0.024620 0.001151 0.000000 0.000000 0.000000
# 3 -0.010854 0.001151 0.016943 0.000000 0.000000 0.000000
# 4 0.000000 0.000000 0.000000 0.054842 0.000000 0.000000
# 5 0.000000 0.000000 0.000000 0.000000 0.041232 0.000000
# 6 0.000000 0.000000 0.000000 0.000000 0.000000 0.080677
#
#
# Mechanical properties :
#
#
# Convention : Reuss Voigt Hill
#
# Bulk Modulus (GPa) = 32.14316 46.77231 39.45774
# Shear Modulus (GPa) = 18.31827 21.80970 20.06399
#
# Velocity S-wave (km/s) = 3.13251 3.41802 3.27837
# Velocity P-wave (km/s) = 5.50469 6.37431 5.95539
#
# Compressibility (1/GPa) = 0.03111081
#
# Stress axis : x y z
#
# Youngs Moduli (GPa) = 59.14755 40.61668 59.02040
#
# Poissons Ratio (x) = 0.16151 0.64063
# Poissons Ratio (y) = 0.23519 -0.06793
# Poissons Ratio (z) = 0.64201 -0.04675
#
# Static dielectric constant tensor:
#      x y z
#    x 1.691770 0.000000 0.000000 
#    y 0.000000 1.615780 0.000000 
#    z 0.000000 0.000000 1.663450 
# 
# From -- ./inp_files/45921.got.cif
#   From: 2010.05.17/outbox.cif.g08.bks.cpg/sg67_23_cif.got.tgz:45921.got - 2010.06.03 18:28:57.
