data_PCOD9503811
_publ_section_title
;
Structure prediction by ZEFSAII (Michael W. Deem and Ramdas Pophale) SiO2 
 PCOD9503811
Probable space group: C M M A
;
_chemical_formula_sum "Si O2"
_cell_formula_units_Z 112
_cell_length_a 14.946267
_cell_length_b 14.589672
_cell_length_c 25.300843
_cell_angle_alpha 90.000000
_cell_angle_beta 90.000000
_cell_angle_gamma 90.000000
_cell_volume 5517.130494
_symmetry_space_group_name_H-M "C M M A"
_symmetry_group_IT_number 67
_symmetry_cell_setting 'orthorhombic'
loop_
_space_group_symop_operation_xyz
x,y,z
-x,1/2-y,z
x,-y,-z
-x,1/2+y,-z
-x,-y,-z
x,1/2+y,-z
-x,y,z
x,1/2-y,z
1/2+x,1/2+y,z
1/2-x,-y,z
1/2+x,1/2-y,-z
1/2-x,y,-z
1/2-x,1/2-y,-z
1/2+x,y,-z
1/2-x,1/2+y,z
1/2+x,-y,z
loop_
_atom_site_type_symbol
_atom_site_label
_atom_site_fract_x
_atom_site_fract_y
_atom_site_fract_z
Si Si1 0.899282 0.907228 0.566653
Si Si2 0.728016 0.638553 0.758773
Si Si3 0.602648 0.521572 0.203227
Si Si4 0.254840 0.647790 0.638945
Si Si5 0.605875 0.645758 0.992637
Si Si6 0.398265 0.376791 0.451380
Si Si7 0.350801 0.485147 0.913071
O O1 0.828398 0.902561 0.613096
O O2 0.869229 0.858130 0.512008
O O3 0.000000 0.875484 0.579491
O O4 0.903173 0.013967 0.553492
O O5 0.722677 0.750000 0.767331
O O6 0.651176 0.577417 0.787120
O O7 0.825528 0.596530 0.774701
O O8 0.714744 0.616538 0.696398
O O9 0.500000 0.525387 0.224406
O O10 0.597105 0.535481 0.140090
O O11 0.220624 0.750000 0.647771
O O12 0.332246 0.651100 0.595028
O O13 0.500000 0.648504 0.002827
O O14 0.637501 0.750000 0.984270
O O15 0.647700 0.595593 0.043470
O O16 0.619537 0.577242 0.943533
O O17 0.500000 0.344550 0.444783
O O18 0.250000 0.500000 0.895370
#
# Coordination Sequence:
#
# PCOD9503811 Si02
#       7
#    16  16  16  16  16  16  16
#     4   9  19  35  56  84 115 149 191 236 288 361
#     4  10  25  46  63  93 130 161 214 280 329 384
#     4  11  24  45  71  95 123 172 223 270 329 380
#     4  11  23  37  56  82 116 153 191 243 308 367
#     4  10  21  36  59  95 134 172 209 247 306 376
#     4   9  19  35  56  84 115 149 191 236 288 361
#     4  11  21  39  62  90 131 166 211 268 305 365
#
# _framework density 20.300407
#
# number of rings (size 3 to 8) (size 9 to 14) (size 15 to 20)
#    0.000    1.857    1.429    4.286    4.000    6.857 
#    0.000    4.286    0.000    0.000    0.000    0.000 
#    0.000    0.000    0.000    0.000    0.000    0.000 
#
# Total GULP energy -312212.971881 kJ/mol
# GULP energy per Si atom -5575.231641 kJ/mol
# Density = 2.025420 g / cm^3
# Si number density = 20.300407 Si / 1000 Ang^3
#
#
#
# Elastic Constant Matrix: (Units=GPa)
#
#
# Indices 1 2 3 4 5 6 
#
# 1 84.6111 0.1450 -0.8849 0.0000 0.0000 0.0000
# 2 0.1450 97.3907 10.3321 0.0000 0.0000 0.0000
# 3 -0.8849 10.3321 75.3496 0.0000 0.0000 0.0000
# 4 0.0000 0.0000 0.0000 21.5650 0.0000 0.0000
# 5 0.0000 0.0000 0.0000 0.0000 5.9370 0.0000
# 6 0.0000 0.0000 0.0000 0.0000 0.0000 22.9931
#
#
#
# Elastic Compliance Matrix: (Units=1/GPa)
#
#
# Indices 1 2 3 4 5 6 
#
# 1 0.011820 -0.000033 0.000143 0.000000 0.000000 0.000000
# 2 -0.000033 0.010420 -0.001429 0.000000 0.000000 0.000000
# 3 0.000143 -0.001429 0.013469 0.000000 0.000000 0.000000
# 4 0.000000 0.000000 0.000000 0.046371 0.000000 0.000000
# 5 0.000000 0.000000 0.000000 0.000000 0.168436 0.000000
# 6 0.000000 0.000000 0.000000 0.000000 0.000000 0.043491
#
#
# Mechanical properties :
#
#
# Convention : Reuss Voigt Hill
#
# Bulk Modulus (GPa) = 30.23724 30.72618 30.48171
# Shear Modulus (GPa) = 16.25125 26.61631 21.43378
#
# Velocity S-wave (km/s) = 2.83245 3.62487 3.25288
# Velocity P-wave (km/s) = 5.06204 5.71736 5.39965
#
# Compressibility (1/GPa) = 0.03307181
#
# Stress axis : x y z
#
# Youngs Moduli (GPa) = 84.59999 95.97311 74.24387
#
# Poissons Ratio (x) = 0.00315 -0.01064
# Poissons Ratio (y) = 0.00277 0.10610
# Poissons Ratio (z) = -0.01213 0.13716
#
# Static dielectric constant tensor:
#      x y z
#    x 1.739940 0.000000 0.000000 
#    y 0.000000 1.790420 0.000000 
#    z 0.000000 0.000000 1.768140 
# 
# From -- ./inp_files/41953.got.cif
#   From: 2010.05.17/outbox.cif.g08.bks.cpg/sg67_21_cif.got.tgz:41953.got - 2010.06.03 18:28:57.
