data_PCOD9503826
_publ_section_title
;
Structure prediction by ZEFSAII (Michael W. Deem and Ramdas Pophale) SiO2 
 PCOD9503826
Probable space group: C M M A
;
_chemical_formula_sum "Si O2"
_cell_formula_units_Z 80
_cell_length_a 14.411641
_cell_length_b 19.282127
_cell_length_c 13.363402
_cell_angle_alpha 90.000000
_cell_angle_beta 90.000000
_cell_angle_gamma 90.000000
_cell_volume 3713.516922
_symmetry_space_group_name_H-M "C M M A"
_symmetry_group_IT_number 67
_symmetry_cell_setting 'orthorhombic'
loop_
_space_group_symop_operation_xyz
x,y,z
-x,1/2-y,z
x,-y,-z
-x,1/2+y,-z
-x,-y,-z
x,1/2+y,-z
-x,y,z
x,1/2-y,z
1/2+x,1/2+y,z
1/2-x,-y,z
1/2+x,1/2-y,-z
1/2-x,y,-z
1/2-x,1/2-y,-z
1/2+x,y,-z
1/2-x,1/2+y,z
1/2+x,-y,z
loop_
_atom_site_type_symbol
_atom_site_label
_atom_site_fract_x
_atom_site_fract_y
_atom_site_fract_z
Si Si1 0.612373 0.325903 0.824176
Si Si2 0.886685 0.326739 0.607832
Si Si3 0.386980 0.118037 0.608834
Si Si4 0.145435 0.526615 0.896106
Si Si5 0.894222 0.527340 0.321487
O O1 0.500000 0.326457 0.826666
O O2 0.645007 0.250000 0.855346
O O3 0.639700 0.341629 0.709380
O O4 0.643867 0.390540 0.889824
O O5 0.852994 0.250000 0.637326
O O6 0.861848 0.343605 0.492772
O O7 0.854046 0.395520 0.667027
O O8 0.000000 0.323869 0.615062
O O9 0.500000 0.114955 0.609841
O O10 0.352870 0.038414 0.619016
O O11 0.250000 0.500000 0.892905
O O12 0.102917 0.497127 0.793583
O O13 0.103922 0.500000 0.000000
O O14 0.000000 0.533411 0.359390
#
# Coordination Sequence:
#
# PCOD9503826 Si02
#       5
#    16  16  16  16  16
#     4   9  17  31  54  82 104 125 164 216 256 283
#     4   9  15  23  39  68 103 130 153 187 234 290
#     4   8  13  23  43  70  98 126 157 195 238 285
#     4  10  21  37  53  70  94 129 169 205 252 311
#     4   9  17  29  47  70  94 124 163 204 244 288
#
# _framework density 21.542921
#
# number of rings (size 3 to 8) (size 9 to 14) (size 15 to 20)
#    0.000    3.000    0.000    3.000    0.000    6.400 
#    0.000    4.000    0.000   12.000    0.000    7.000 
#    0.000    0.000    0.000    0.000    0.000    0.000 
#
# Total GULP energy -223176.546570 kJ/mol
# GULP energy per Si atom -5579.413664 kJ/mol
# Density = 2.149389 g / cm^3
# Si number density = 21.542921 Si / 1000 Ang^3
#
#
#
# Elastic Constant Matrix: (Units=GPa)
#
#
# Indices 1 2 3 4 5 6 
#
# 1 61.0317 18.4371 -12.1908 0.0000 0.0000 0.0000
# 2 18.4371 242.4453 44.8153 0.0000 0.0000 0.0000
# 3 -12.1908 44.8153 47.7006 0.0000 0.0000 0.0000
# 4 0.0000 0.0000 0.0000 17.6432 0.0000 0.0000
# 5 0.0000 0.0000 0.0000 0.0000 -3.1251 0.0000
# 6 0.0000 0.0000 0.0000 0.0000 0.0000 11.8006
#
#
#
# Elastic Compliance Matrix: (Units=1/GPa)
#
#
# Indices 1 2 3 4 5 6 
#
# 1 0.018707 -0.002791 0.007403 0.000000 0.000000 0.000000
# 2 -0.002791 0.005408 -0.005794 0.000000 0.000000 0.000000
# 3 0.007403 -0.005794 0.028300 0.000000 0.000000 0.000000
# 4 0.000000 0.000000 0.000000 0.056679 0.000000 0.000000
# 5 0.000000 0.000000 0.000000 0.000000 -0.319986 0.000000
# 6 0.000000 0.000000 0.000000 0.000000 0.000000 0.084741
#
#
# Mechanical properties :
#
#
# Convention : Reuss Voigt Hill
#
# Bulk Modulus (GPa) = 19.97988 50.36676 35.17332
# Shear Modulus (GPa) = -46.68385 25.27146 -10.70619
#
# Velocity S-wave (km/s) = -4.66017 3.42873 -2.23170
# Velocity P-wave (km/s) = 4.43415 6.25343 3.11799
#
# Compressibility (1/GPa) = 0.05005035
#
# Stress axis : x y z
#
# Youngs Moduli (GPa) = 53.45653 184.91423 35.33601
#
# Poissons Ratio (x) = 0.51610 -0.26160
# Poissons Ratio (y) = 0.14920 0.20474
# Poissons Ratio (z) = -0.39574 1.07141
#
# Static dielectric constant tensor:
#      x y z
#    x 1.913720 0.000000 0.000000 
#    y 0.000000 1.804420 0.000000 
#    z 0.000000 0.000000 1.769160 
# 
# From -- ./inp_files/28364.got.cif
#   From: 2010.05.17/outbox.cif.g08.bks.cpg/sg67_15_cif.got.tgz:28364.got - 2010.06.03 18:28:57.
