data_PCOD9503176
_publ_section_title
;
Structure prediction by ZEFSAII (Michael W. Deem and Ramdas Pophale) SiO2 
 PCOD9503176
Probable space group: C M M A
;
_chemical_formula_sum "Si O2"
_cell_formula_units_Z 64
_cell_length_a 17.280294
_cell_length_b 9.966880
_cell_length_c 18.880497
_cell_angle_alpha 90.000000
_cell_angle_beta 90.000000
_cell_angle_gamma 90.000000
_cell_volume 3251.799641
_symmetry_space_group_name_H-M "C M M A"
_symmetry_group_IT_number 67
_symmetry_cell_setting 'orthorhombic'
loop_
_space_group_symop_operation_xyz
x,y,z
-x,1/2-y,z
x,-y,-z
-x,1/2+y,-z
-x,-y,-z
x,1/2+y,-z
-x,y,z
x,1/2-y,z
1/2+x,1/2+y,z
1/2-x,-y,z
1/2+x,1/2-y,-z
1/2-x,y,-z
1/2-x,1/2-y,-z
1/2+x,y,-z
1/2-x,1/2+y,z
1/2+x,-y,z
loop_
_atom_site_type_symbol
_atom_site_label
_atom_site_fract_x
_atom_site_fract_y
_atom_site_fract_z
Si Si1 0.905635 0.905318 0.934892
Si Si2 0.159092 0.523764 0.342301
Si Si3 0.907366 0.901276 0.192153
Si Si4 0.908357 0.250000 0.392493
Si Si5 0.593773 0.250000 0.443978
O O1 0.879672 0.750000 0.938351
O O2 0.000000 0.902363 0.936812
O O3 0.883925 0.983801 0.863175
O O4 0.880525 0.000000 0.000000
O O5 0.250000 0.500000 0.348500
O O6 0.136124 0.582800 0.266196
O O7 0.119436 0.381009 0.352529
O O8 0.126897 0.621847 0.402856
O O9 0.894713 0.750000 0.163372
O O10 0.000000 0.913791 0.204834
O O11 0.881003 0.250000 0.474212
O O12 0.000000 0.250000 0.395514
O O13 0.500000 0.250000 0.440128
#
# Coordination Sequence:
#
# PCOD9503176 Si02
#       5
#    16  16  16   8   8
#     4   9  17  30  52  86 123 157 201 255 304 352
#     4  12  25  40  61  91 126 163 204 256 312 370
#     4  10  20  36  59  83 116 164 209 249 299 364
#     4  11  25  41  65  93 120 155 206 263 311 368
#     4  11  23  45  67  87 118 163 208 251 311 380
#
# _framework density 19.68141
#
# number of rings (size 3 to 8) (size 9 to 14) (size 15 to 20)
#    0.000    1.500    1.250    4.500    1.750    8.000 
#    0.000    0.000    0.000    0.750    0.000    3.500 
#    0.000    0.000    0.000    0.000    0.000    0.000 
#
# Total GULP energy -178827.138820 kJ/mol
# GULP energy per Si atom -5588.348088 kJ/mol
# Density = 1.963661 g / cm^3
# Si number density = 19.681410 Si / 1000 Ang^3
#
#
#
# Elastic Constant Matrix: (Units=GPa)
#
#
# Indices 1 2 3 4 5 6 
#
# 1 41.0977 19.7715 13.7809 0.0000 0.0000 0.0000
# 2 19.7715 156.8920 24.4901 0.0000 0.0000 0.0000
# 3 13.7809 24.4901 61.5378 0.0000 0.0000 0.0000
# 4 0.0000 0.0000 0.0000 40.8264 0.0000 0.0000
# 5 0.0000 0.0000 0.0000 0.0000 -26.4996 0.0000
# 6 0.0000 0.0000 0.0000 0.0000 0.0000 26.3606
#
#
#
# Elastic Compliance Matrix: (Units=1/GPa)
#
#
# Indices 1 2 3 4 5 6 
#
# 1 0.027304 -0.002651 -0.005060 0.000000 0.000000 0.000000
# 2 -0.002651 0.007053 -0.002213 0.000000 0.000000 0.000000
# 3 -0.005060 -0.002213 0.018264 0.000000 0.000000 0.000000
# 4 0.000000 0.000000 0.000000 0.024494 0.000000 0.000000
# 5 0.000000 0.000000 0.000000 0.000000 -0.037736 0.000000
# 6 0.000000 0.000000 0.000000 0.000000 0.000000 0.037935
#
#
# Mechanical properties :
#
#
# Convention : Reuss Voigt Hill
#
# Bulk Modulus (GPa) = 30.51223 41.73473 36.12348
# Shear Modulus (GPa) = 46.25902 21.56983 33.91443
#
# Velocity S-wave (km/s) = 4.85334 3.31410 4.15561
# Velocity P-wave (km/s) = 6.85152 5.99129 6.43579
#
# Compressibility (1/GPa) = 0.03277374
#
# Stress axis : x y z
#
# Youngs Moduli (GPa) = 36.62440 141.77580 54.75241
#
# Poissons Ratio (x) = 0.37586 0.27702
# Poissons Ratio (y) = 0.09710 0.12118
# Poissons Ratio (z) = 0.18530 0.31380
#
# Static dielectric constant tensor:
#      x y z
#    x 0.709600 0.000000 0.000000 
#    y 0.000000 1.708530 0.000000 
#    z 0.000000 0.000000 1.669930 
# 
# From -- ./inp_files/31768.got.cif
#   From: 2010.05.17/outbox.cif.g08.bks.cpg/sg67_16_cif.got.tgz:31768.got - 2010.06.03 18:28:57.
