data_PCOD9503712
_publ_section_title
;
Structure prediction by ZEFSAII (Michael W. Deem and Ramdas Pophale) SiO2 
 PCOD9503712
Probable space group: C M M A
;
_chemical_formula_sum "Si O2"
_cell_formula_units_Z 56
_cell_length_a 22.107275
_cell_length_b 9.232715
_cell_length_c 13.273875
_cell_angle_alpha 90.000000
_cell_angle_beta 90.000000
_cell_angle_gamma 90.000000
_cell_volume 2709.332876
_symmetry_space_group_name_H-M "C M M A"
_symmetry_group_IT_number 67
_symmetry_cell_setting 'orthorhombic'
loop_
_space_group_symop_operation_xyz
x,y,z
-x,1/2-y,z
x,-y,-z
-x,1/2+y,-z
-x,-y,-z
x,1/2+y,-z
-x,y,z
x,1/2-y,z
1/2+x,1/2+y,z
1/2-x,-y,z
1/2+x,1/2-y,-z
1/2-x,y,-z
1/2-x,1/2-y,-z
1/2+x,y,-z
1/2-x,1/2+y,z
1/2+x,-y,z
loop_
_atom_site_type_symbol
_atom_site_label
_atom_site_fract_x
_atom_site_fract_y
_atom_site_fract_z
Si Si1 0.104414 0.000000 0.000000
Si Si2 0.413020 0.750000 0.145299
Si Si3 0.070488 0.250000 0.388223
Si Si4 0.750000 0.000000 0.365586
Si Si5 0.354398 0.000000 0.500000
Si Si6 0.714674 0.750000 0.229478
Si Si7 0.809707 0.250000 0.928785
O O1 0.148547 0.110169 0.941880
O O2 0.070726 0.893941 0.919821
O O3 0.428514 0.750000 0.264481
O O4 0.339735 0.750000 0.150575
O O5 0.104368 0.111131 0.437142
O O6 0.000000 0.250000 0.417434
O O7 0.803728 0.923670 0.428710
O O8 0.712901 0.889461 0.298119
O O9 0.779775 0.750000 0.179458
O O10 0.750000 0.250000 0.000000
#
# Coordination Sequence:
#
# PCOD9503712 Si02
#       7
#     8   8   8   8   8   8   8
#     4  10  21  36  53  86 126 164 205 253 300 372
#     4  11  22  40  60  89 123 161 212 248 310 359
#     4  12  26  47  68  89 121 168 220 260 303 367
#     4  11  22  36  61  94 134 155 196 252 318 389
#     4  11  23  44  64  96 127 163 202 258 322 371
#     4  12  20  31  54  90 133 169 195 239 309 383
#     4  11  20  27  50  83 126 167 199 235 302 377
#
# _framework density 20.669295000000002
#
# number of rings (size 3 to 8) (size 9 to 14) (size 15 to 20)
#    0.000    0.857    5.714    3.429    0.000    2.286 
#    0.000    0.714    0.000    0.000    0.000    0.000 
#    0.000    0.000    0.000    0.000    0.000    0.000 
#
# Total GULP energy -156005.761413 kJ/mol
# GULP energy per Si atom -5571.634336 kJ/mol
# Density = 2.062225 g / cm^3
# Si number density = 20.669295 Si / 1000 Ang^3
#
#
#
# Elastic Constant Matrix: (Units=GPa)
#
#
# Indices 1 2 3 4 5 6 
#
# 1 133.5798 40.4020 43.0084 0.0000 0.0000 0.0000
# 2 40.4020 133.1891 54.1129 0.0000 0.0000 0.0000
# 3 43.0084 54.1129 111.3795 0.0000 0.0000 0.0000
# 4 0.0000 0.0000 0.0000 19.4982 0.0000 0.0000
# 5 0.0000 0.0000 0.0000 0.0000 9.4593 0.0000
# 6 0.0000 0.0000 0.0000 0.0000 0.0000 -10.3652
#
#
#
# Elastic Compliance Matrix: (Units=1/GPa)
#
#
# Indices 1 2 3 4 5 6 
#
# 1 0.008817 -0.001609 -0.002623 0.000000 0.000000 0.000000
# 2 -0.001609 0.009648 -0.004066 0.000000 0.000000 0.000000
# 3 -0.002623 -0.004066 0.011967 0.000000 0.000000 0.000000
# 4 0.000000 0.000000 0.000000 0.051287 0.000000 0.000000
# 5 0.000000 0.000000 0.000000 0.000000 0.105716 0.000000
# 6 0.000000 0.000000 0.000000 0.000000 0.000000 -0.096476
#
#
# Mechanical properties :
#
#
# Convention : Reuss Voigt Hill
#
# Bulk Modulus (GPa) = 72.27621 72.57724 72.42673
# Shear Modulus (GPa) = 44.57617 19.76012 32.16815
#
# Velocity S-wave (km/s) = 4.64900 3.09530 3.94931
# Velocity P-wave (km/s) = 7.99133 6.92563 7.47749
#
# Compressibility (1/GPa) = 0.01383581
#
# Stress axis : x y z
#
# Youngs Moduli (GPa) = 113.41288 103.64571 83.56496
#
# Poissons Ratio (x) = 0.16676 0.21920
# Poissons Ratio (y) = 0.18248 0.33980
# Poissons Ratio (z) = 0.29749 0.42145
#
# Static dielectric constant tensor:
#      x y z
#    x 1.722100 0.000000 0.000000 
#    y 0.000000 1.792950 0.000000 
#    z 0.000000 0.000000 1.832520 
# 
# From -- ./inp_files/30463.got.cif
#   From: 2010.05.17/outbox.cif.g08.bks.cpg/sg67_16_cif.got.tgz:30463.got - 2010.06.03 18:28:57.
