data_PCOD9503723
_publ_section_title
;
Structure prediction by ZEFSAII (Michael W. Deem and Ramdas Pophale) SiO2 
 PCOD9503723
Probable space group: C M M A
;
_chemical_formula_sum "Si O2"
_cell_formula_units_Z 64
_cell_length_a 19.584614
_cell_length_b 5.308193
_cell_length_c 30.913339
_cell_angle_alpha 90.000000
_cell_angle_beta 90.000000
_cell_angle_gamma 90.000000
_cell_volume 3213.717056
_symmetry_space_group_name_H-M "C M M A"
_symmetry_group_IT_number 67
_symmetry_cell_setting 'orthorhombic'
loop_
_space_group_symop_operation_xyz
x,y,z
-x,1/2-y,z
x,-y,-z
-x,1/2+y,-z
-x,-y,-z
x,1/2+y,-z
-x,y,z
x,1/2-y,z
1/2+x,1/2+y,z
1/2-x,-y,z
1/2+x,1/2-y,-z
1/2-x,y,-z
1/2-x,1/2-y,-z
1/2+x,y,-z
1/2-x,1/2+y,z
1/2+x,-y,z
loop_
_atom_site_type_symbol
_atom_site_label
_atom_site_fract_x
_atom_site_fract_y
_atom_site_fract_z
Si Si1 0.714926 0.750000 0.572928
Si Si2 0.206104 0.250000 0.804792
Si Si3 0.726204 0.750000 0.331632
Si Si4 0.424229 0.250000 0.684289
Si Si5 0.421741 0.250000 0.029208
Si Si6 0.923796 0.250000 0.743459
Si Si7 0.924045 0.250000 0.529268
Si Si8 0.794175 0.750000 0.092289
O O1 0.750000 0.500000 0.554631
O O2 0.730438 0.750000 0.624035
O O3 0.635466 0.750000 0.563918
O O4 0.250000 0.500000 0.795640
O O5 0.136648 0.250000 0.777670
O O6 0.191513 0.250000 0.856297
O O7 0.750000 0.500000 0.307541
O O8 0.646050 0.750000 0.342673
O O9 0.500000 0.250000 0.663102
O O10 0.419731 0.500589 0.713601
O O11 0.500000 0.250000 0.046095
O O12 0.364096 0.250000 0.065678
O O13 0.413747 0.500000 0.000000
O O14 0.000000 0.250000 0.763339
O O15 0.917338 0.500000 0.500000
O O16 0.000000 0.250000 0.548450
O O17 0.750000 0.500000 0.082213
#
# Coordination Sequence:
#
# PCOD9503723 Si02
#       8
#     8   8   8   8   8   8   8   8
#     4  10  21  37  55  82 113 143 181 223 266 317
#     4  10  21  36  54  80 111 142 177 219 271 326
#     4  10  21  37  55  80 110 142 183 221 264 319
#     4  10  21  37  56  80 110 141 178 224 268 316
#     4  10  21  36  54  78 106 138 181 228 272 319
#     4  10  21  36  56  82 109 141 180 221 269 324
#     4  10  21  37  58  84 113 146 183 224 272 322
#     4  10  21  36  54  78 108 141 179 221 268 327
#
# _framework density 19.914636000000002
#
# number of rings (size 3 to 8) (size 9 to 14) (size 15 to 20)
#    0.000    2.000    0.000    3.000    0.000    6.500 
#    0.000    5.000    0.000    9.000    0.000    0.000 
#    0.000    0.000    0.000    0.000    0.000    0.000 
#
# Total GULP energy -178743.805707 kJ/mol
# GULP energy per Si atom -5585.743928 kJ/mol
# Density = 1.986931 g / cm^3
# Si number density = 19.914636 Si / 1000 Ang^3
#
#
#
# Elastic Constant Matrix: (Units=GPa)
#
#
# Indices 1 2 3 4 5 6 
#
# 1 208.7233 46.5194 77.4733 0.0000 0.0000 0.0000
# 2 46.5194 180.8012 24.6236 0.0000 0.0000 0.0000
# 3 77.4733 24.6236 65.8039 0.0000 0.0000 0.0000
# 4 0.0000 0.0000 0.0000 -8.0902 0.0000 0.0000
# 5 0.0000 0.0000 0.0000 0.0000 43.2564 0.0000
# 6 0.0000 0.0000 0.0000 0.0000 0.0000 26.1054
#
#
#
# Elastic Compliance Matrix: (Units=1/GPa)
#
#
# Indices 1 2 3 4 5 6 
#
# 1 0.008642 -0.000883 -0.009844 0.000000 0.000000 0.000000
# 2 -0.000883 0.005918 -0.001175 0.000000 0.000000 0.000000
# 3 -0.009844 -0.001175 0.027226 0.000000 0.000000 0.000000
# 4 0.000000 0.000000 0.000000 -0.123606 0.000000 0.000000
# 5 0.000000 0.000000 0.000000 0.000000 0.023118 0.000000
# 6 0.000000 0.000000 0.000000 0.000000 0.000000 0.038306
#
#
# Mechanical properties :
#
#
# Convention : Reuss Voigt Hill
#
# Bulk Modulus (GPa) = 55.61089 83.61790 69.61439
# Shear Modulus (GPa) = 531.89415 32.70179 282.29797
#
# Velocity S-wave (km/s) = 16.36053 4.05668 11.91897
# Velocity P-wave (km/s) = 19.61822 8.00134 14.98159
#
# Compressibility (1/GPa) = 0.01798209
#
# Stress axis : x y z
#
# Youngs Moduli (GPa) = 115.72034 168.97230 36.73003
#
# Poissons Ratio (x) = 0.14917 0.36156
# Poissons Ratio (y) = 0.10216 0.04316
# Poissons Ratio (z) = 1.13911 0.19857
#
# Static dielectric constant tensor:
#      x y z
#    x 1.700820 0.000000 0.000000 
#    y 0.000000 1.675510 0.000000 
#    z 0.000000 0.000000 1.683410 
# 
# From -- ./inp_files/45745.got.cif
#   From: 2010.05.17/outbox.cif.g08.bks.cpg/sg67_23_cif.got.tgz:45745.got - 2010.06.03 18:28:57.
