data_PCOD9503974
_publ_section_title
;
Structure prediction by ZEFSAII (Michael W. Deem and Ramdas Pophale) SiO2 
 PCOD9503974
Probable space group: C M M A
;
_chemical_formula_sum "Si O2"
_cell_formula_units_Z 64
_cell_length_a 8.070112
_cell_length_b 26.118480
_cell_length_c 12.949346
_cell_angle_alpha 90.000000
_cell_angle_beta 90.000000
_cell_angle_gamma 90.000000
_cell_volume 2729.450963
_symmetry_space_group_name_H-M "C M M A"
_symmetry_group_IT_number 67
_symmetry_cell_setting 'orthorhombic'
loop_
_space_group_symop_operation_xyz
x,y,z
-x,1/2-y,z
x,-y,-z
-x,1/2+y,-z
-x,-y,-z
x,1/2+y,-z
-x,y,z
x,1/2-y,z
1/2+x,1/2+y,z
1/2-x,-y,z
1/2+x,1/2-y,-z
1/2-x,y,-z
1/2-x,1/2-y,-z
1/2+x,y,-z
1/2-x,1/2+y,z
1/2+x,-y,z
loop_
_atom_site_type_symbol
_atom_site_label
_atom_site_fract_x
_atom_site_fract_y
_atom_site_fract_z
Si Si1 0.698581 0.555149 0.835833
Si Si2 0.308097 0.333420 0.888449
Si Si3 0.695228 0.304881 0.334433
Si Si4 0.198920 0.915327 0.390800
O O1 0.500000 0.561134 0.842716
O O2 0.750000 0.500000 0.877548
O O3 0.780589 0.605091 0.885350
O O4 0.751726 0.557655 0.714836
O O5 0.500000 0.321610 0.873856
O O6 0.212531 0.311736 0.789299
O O7 0.250000 0.314664 0.000000
O O8 0.500000 0.304077 0.358816
O O9 0.768787 0.250000 0.365130
O O10 0.766472 0.356871 0.382506
O O11 0.250000 0.937968 0.500000
O O12 0.000000 0.913629 0.387657
#
# Coordination Sequence:
#
# PCOD9503974 Si02
#       4
#    16  16  16  16
#     4  10  21  38  57  80 109 141 179 222 268 316
#     4  11  22  37  57  81 109 141 178 220 267 319
#     4   9  19  37  57  78 108 144 181 223 269 316
#     4   9  19  34  53  78 109 143 179 220 265 315
#
# _framework density 23.447939000000002
#
# number of rings (size 3 to 8) (size 9 to 14) (size 15 to 20)
#    0.000    2.250    0.000    4.500    0.000    7.500 
#    0.000    5.000    0.000    0.000    0.000    0.000 
#    0.000    0.000    0.000    0.000    0.000    0.000 
#
# Total GULP energy -178859.445251 kJ/mol
# GULP energy per Si atom -5589.357664 kJ/mol
# Density = 2.339457 g / cm^3
# Si number density = 23.447939 Si / 1000 Ang^3
#
#
#
# Elastic Constant Matrix: (Units=GPa)
#
#
# Indices 1 2 3 4 5 6 
#
# 1 33.2350 -5.1221 -14.2220 0.0000 0.0000 0.0000
# 2 -5.1221 115.3930 -8.5102 0.0000 0.0000 0.0000
# 3 -14.2220 -8.5102 109.5680 0.0000 0.0000 0.0000
# 4 0.0000 0.0000 0.0000 1.1849 0.0000 0.0000
# 5 0.0000 0.0000 0.0000 0.0000 20.0769 0.0000
# 6 0.0000 0.0000 0.0000 0.0000 0.0000 -125.2714
#
#
#
# Elastic Compliance Matrix: (Units=1/GPa)
#
#
# Indices 1 2 3 4 5 6 
#
# 1 0.032205 0.001748 0.004316 0.000000 0.000000 0.000000
# 2 0.001748 0.008811 0.000911 0.000000 0.000000 0.000000
# 3 0.004316 0.000911 0.009758 0.000000 0.000000 0.000000
# 4 0.000000 0.000000 0.000000 0.843976 0.000000 0.000000
# 5 0.000000 0.000000 0.000000 0.000000 0.049808 0.000000
# 6 0.000000 0.000000 0.000000 0.000000 0.000000 -0.007983
#
#
# Mechanical properties :
#
#
# Convention : Reuss Voigt Hill
#
# Bulk Modulus (GPa) = 15.45030 22.49859 18.97445
# Shear Modulus (GPa) = 5.29549 -1.73190 1.78179
#
# Velocity S-wave (km/s) = 1.50443 -0.86036 0.87266
# Velocity P-wave (km/s) = 3.10181 2.93752 3.02078
#
# Compressibility (1/GPa) = 0.06472365
#
# Stress axis : x y z
#
# Youngs Moduli (GPa) = 31.05106 113.49679 102.48265
#
# Poissons Ratio (x) = -0.19837 -0.44231
# Poissons Ratio (y) = -0.05427 -0.09338
# Poissons Ratio (z) = -0.13402 -0.10342
#
# Static dielectric constant tensor:
#      x y z
#    x 1.822400 0.000000 0.000000 
#    y 0.000000 1.928970 0.000000 
#    z 0.000000 0.000000 1.880630 
# 
# From -- ./inp_files/15792.got.cif
#   From: 2010.05.17/outbox.cif.g08.bks.cpg/sg67_8_cif.got.tgz:15792.got - 2010.06.03 18:28:57.
