data_PCOD9503511
_publ_section_title
;
Structure prediction by ZEFSAII (Michael W. Deem and Ramdas Pophale) SiO2 
 PCOD9503511
Probable space group: C M M A
;
_chemical_formula_sum "Si O2"
_cell_formula_units_Z 72
_cell_length_a 9.822375
_cell_length_b 15.401295
_cell_length_c 25.539994
_cell_angle_alpha 90.000000
_cell_angle_beta 90.000000
_cell_angle_gamma 90.000000
_cell_volume 3863.621206
_symmetry_space_group_name_H-M "C M M A"
_symmetry_group_IT_number 67
_symmetry_cell_setting 'orthorhombic'
loop_
_space_group_symop_operation_xyz
x,y,z
-x,1/2-y,z
x,-y,-z
-x,1/2+y,-z
-x,-y,-z
x,1/2+y,-z
-x,y,z
x,1/2-y,z
1/2+x,1/2+y,z
1/2-x,-y,z
1/2+x,1/2-y,-z
1/2-x,y,-z
1/2-x,1/2-y,-z
1/2+x,y,-z
1/2-x,1/2+y,z
1/2+x,-y,z
loop_
_atom_site_type_symbol
_atom_site_label
_atom_site_fract_x
_atom_site_fract_y
_atom_site_fract_z
Si Si1 0.500000 0.750000 0.288525
Si Si2 0.000000 0.110615 0.790759
Si Si3 0.500000 0.410929 0.787448
Si Si4 0.500000 0.750000 0.697684
Si Si5 0.231834 0.750000 0.627520
Si Si6 0.834583 0.250000 0.053662
Si Si7 0.254274 0.099919 0.866746
Si Si8 0.331738 0.085401 0.554772
O O1 0.500000 0.662207 0.255682
O O2 0.628620 0.750000 0.325074
O O3 0.000000 0.170469 0.739464
O O4 0.875089 0.122741 0.830916
O O5 0.000000 0.011099 0.770525
O O6 0.626868 0.396917 0.824694
O O7 0.374802 0.750000 0.657338
O O8 0.200499 0.834060 0.592165
O O9 0.787791 0.333466 0.087392
O O10 0.000000 0.250000 0.047042
O O11 0.750000 0.250000 0.000000
O O12 0.250000 0.000000 0.886136
O O13 0.500000 0.075081 0.549270
O O14 0.250000 0.101749 0.500000
O O15 0.250000 0.000000 0.575187
#
# Coordination Sequence:
#
# PCOD9503511 Si02
#       8
#     4   8   8   4   8   8  16  16
#     4  12  22  40  61  94 127 174 204 262 316 382
#     4  10  22  40  64  95 123 165 219 262 309 364
#     4  10  20  38  68  89 123 167 215 260 307 370
#     4  12  26  38  59  96 135 176 206 262 320 376
#     4  12  27  41  63  95 140 171 211 256 329 385
#     4  12  26  42  63  95 129 167 202 257 325 383
#     4  10  21  41  67  94 122 165 215 262 310 372
#     4  11  24  45  72  98 124 168 218 268 319 382
#
# _framework density 18.635368
#
# number of rings (size 3 to 8) (size 9 to 14) (size 15 to 20)
#    0.000    1.111    2.222    4.333    4.667    2.222 
#    0.000    1.111    0.000    0.000    0.000    0.000 
#    0.000    0.000    0.000    0.000    0.000    0.000 
#
# Total GULP energy -200760.622192 kJ/mol
# GULP energy per Si atom -5576.683950 kJ/mol
# Density = 1.859295 g / cm^3
# Si number density = 18.635368 Si / 1000 Ang^3
#
#
#
# Elastic Constant Matrix: (Units=GPa)
#
#
# Indices 1 2 3 4 5 6 
#
# 1 208.9851 79.8763 66.0433 0.0000 0.0000 0.0000
# 2 79.8763 178.5604 119.6680 0.0000 0.0000 0.0000
# 3 66.0433 119.6680 106.4650 0.0000 0.0000 0.0000
# 4 0.0000 0.0000 0.0000 29.2001 0.0000 0.0000
# 5 0.0000 0.0000 0.0000 0.0000 84.4441 0.0000
# 6 0.0000 0.0000 0.0000 0.0000 0.0000 22.8508
#
#
#
# Elastic Compliance Matrix: (Units=1/GPa)
#
#
# Indices 1 2 3 4 5 6 
#
# 1 0.005978 -0.000766 -0.002847 0.000000 0.000000 0.000000
# 2 -0.000766 0.022799 -0.025151 0.000000 0.000000 0.000000
# 3 -0.002847 -0.025151 0.039429 0.000000 0.000000 0.000000
# 4 0.000000 0.000000 0.000000 0.034246 0.000000 0.000000
# 5 0.000000 0.000000 0.000000 0.000000 0.011842 0.000000
# 6 0.000000 0.000000 0.000000 0.000000 0.000000 0.043762
#
#
# Mechanical properties :
#
#
# Convention : Reuss Voigt Hill
#
# Bulk Modulus (GPa) = 93.65797 113.90954 103.78375
# Shear Modulus (GPa) = 22.81619 42.52719 32.67169
#
# Velocity S-wave (km/s) = 3.50287 4.78228 4.19168
# Velocity P-wave (km/s) = 8.16868 9.57872 8.90166
#
# Compressibility (1/GPa) = 0.01067715
#
# Stress axis : x y z
#
# Youngs Moduli (GPa) = 167.29368 43.86248 25.36204
#
# Poissons Ratio (x) = 0.03358 0.07222
# Poissons Ratio (y) = 0.12809 0.63788
# Poissons Ratio (z) = 0.47635 1.10318
#
# Static dielectric constant tensor:
#      x y z
#    x 1.618110 0.000000 0.000000 
#    y 0.000000 1.788310 0.000000 
#    z 0.000000 0.000000 1.593600 
# 
# From -- ./inp_files/43183.got.cif
#   From: 2010.05.17/outbox.cif.g08.bks.cpg/sg67_22_cif.got.tgz:43183.got - 2010.06.03 18:28:57.
