data_PCOD9503278
_publ_section_title
;
Structure prediction by ZEFSAII (Michael W. Deem and Ramdas Pophale) SiO2 
 PCOD9503278
Probable space group: C M M A
;
_chemical_formula_sum "Si O2"
_cell_formula_units_Z 96
_cell_length_a 25.658629
_cell_length_b 18.428680
_cell_length_c 10.418775
_cell_angle_alpha 90.000000
_cell_angle_beta 90.000000
_cell_angle_gamma 90.000000
_cell_volume 4926.566342
_symmetry_space_group_name_H-M "C M M A"
_symmetry_group_IT_number 67
_symmetry_cell_setting 'orthorhombic'
loop_
_space_group_symop_operation_xyz
x,y,z
-x,1/2-y,z
x,-y,-z
-x,1/2+y,-z
-x,-y,-z
x,1/2+y,-z
-x,y,z
x,1/2-y,z
1/2+x,1/2+y,z
1/2-x,-y,z
1/2+x,1/2-y,-z
1/2-x,y,-z
1/2-x,1/2-y,-z
1/2+x,y,-z
1/2-x,1/2+y,z
1/2+x,-y,z
loop_
_atom_site_type_symbol
_atom_site_label
_atom_site_fract_x
_atom_site_fract_y
_atom_site_fract_z
Si Si1 0.895453 0.165794 0.798543
Si Si2 0.558648 0.169359 0.472357
Si Si3 0.440065 0.479727 0.144702
Si Si4 0.615368 0.054926 0.617934
Si Si5 0.212460 0.835788 0.622036
Si Si6 0.720043 0.662941 0.875870
O O1 0.904548 0.250000 0.834356
O O2 0.900203 0.163281 0.643700
O O3 0.936190 0.107220 0.846682
O O4 0.839216 0.140322 0.849602
O O5 0.500000 0.163717 0.418319
O O6 0.563833 0.250000 0.528654
O O7 0.568327 0.106755 0.572939
O O8 0.500000 0.502627 0.167669
O O9 0.402285 0.513658 0.253229
O O10 0.425061 0.500000 0.000000
O O11 0.664214 0.109359 0.627830
O O12 0.624862 0.000000 0.500000
O O13 0.196679 0.750000 0.618654
O O14 0.250000 0.848097 0.500000
O O15 0.246302 0.848795 0.749148
O O16 0.716177 0.750000 0.892945
O O17 0.750000 0.632741 0.000000
#
# Coordination Sequence:
#
# PCOD9503278 Si02
#       6
#    16  16  16  16  16  16
#     4  10  20  38  66  93 120 161 215 259 308 378
#     4  10  20  36  62  94 122 157 213 267 310 371
#     4  11  26  45  63  91 131 169 208 263 328 384
#     4  12  24  39  62  91 127 167 208 255 319 382
#     4  10  22  41  64  90 125 165 208 260 316 370
#     4   9  19  36  61  90 118 154 199 250 303 363
#
# _framework density 19.486190000000001
#
# number of rings (size 3 to 8) (size 9 to 14) (size 15 to 20)
#    0.000    1.667    1.667    2.500    2.333    4.667 
#    0.000    0.833    0.000    2.000    0.000    0.000 
#    0.000    0.000    0.000    0.000    0.000    0.000 
#
# Total GULP energy -267796.104297 kJ/mol
# GULP energy per Si atom -5579.085506 kJ/mol
# Density = 1.944184 g / cm^3
# Si number density = 19.486190 Si / 1000 Ang^3
#
#
#
# Elastic Constant Matrix: (Units=GPa)
#
#
# Indices 1 2 3 4 5 6 
#
# 1 91.5982 30.0362 50.0567 0.0000 0.0000 0.0000
# 2 30.0362 95.0780 47.8945 0.0000 0.0000 0.0000
# 3 50.0567 47.8945 118.0593 0.0000 0.0000 0.0000
# 4 0.0000 0.0000 0.0000 13.4645 0.0000 0.0000
# 5 0.0000 0.0000 0.0000 0.0000 9.1018 0.0000
# 6 0.0000 0.0000 0.0000 0.0000 0.0000 30.5131
#
#
#
# Elastic Compliance Matrix: (Units=1/GPa)
#
#
# Indices 1 2 3 4 5 6 
#
# 1 0.014467 -0.001861 -0.005379 0.000000 0.000000 0.000000
# 2 -0.001861 0.013458 -0.004671 0.000000 0.000000 0.000000
# 3 -0.005379 -0.004671 0.012646 0.000000 0.000000 0.000000
# 4 0.000000 0.000000 0.000000 0.074270 0.000000 0.000000
# 5 0.000000 0.000000 0.000000 0.000000 0.109868 0.000000
# 6 0.000000 0.000000 0.000000 0.000000 0.000000 0.032773
#
#
# Mechanical properties :
#
#
# Convention : Reuss Voigt Hill
#
# Bulk Modulus (GPa) = 59.70154 62.30115 61.00135
# Shear Modulus (GPa) = 17.42849 22.39907 19.91378
#
# Velocity S-wave (km/s) = 2.99390 3.39408 3.20025
# Velocity P-wave (km/s) = 6.53113 6.88485 6.71032
#
# Compressibility (1/GPa) = 0.01674999
#
# Stress axis : x y z
#
# Youngs Moduli (GPa) = 69.12310 74.30303 79.07663
#
# Poissons Ratio (x) = 0.13825 0.42536
# Poissons Ratio (y) = 0.12861 0.36936
# Poissons Ratio (z) = 0.37182 0.34707
#
# Static dielectric constant tensor:
#      x y z
#    x 1.716090 0.000000 0.000000 
#    y 0.000000 1.692760 0.000000 
#    z 0.000000 0.000000 1.689950 
# 
# From -- ./inp_files/13731.got.cif
#   From: 2010.05.17/outbox.cif.g08.bks.cpg/sg67_7_cif.got.tgz:13731.got - 2010.06.03 18:28:57.
