data_PCOD9503630
_publ_section_title
;
Structure prediction by ZEFSAII (Michael W. Deem and Ramdas Pophale) SiO2 
 PCOD9503630
Probable space group: C M M A
;
_chemical_formula_sum "Si O2"
_cell_formula_units_Z 116
_cell_length_a 7.627523
_cell_length_b 25.770145
_cell_length_c 28.189615
_cell_angle_alpha 90.000000
_cell_angle_beta 90.000000
_cell_angle_gamma 90.000000
_cell_volume 5541.017638
_symmetry_space_group_name_H-M "C M M A"
_symmetry_group_IT_number 67
_symmetry_cell_setting 'orthorhombic'
loop_
_space_group_symop_operation_xyz
x,y,z
-x,1/2-y,z
x,-y,-z
-x,1/2+y,-z
-x,-y,-z
x,1/2+y,-z
-x,y,z
x,1/2-y,z
1/2+x,1/2+y,z
1/2-x,-y,z
1/2+x,1/2-y,-z
1/2-x,y,-z
1/2-x,1/2-y,-z
1/2+x,y,-z
1/2-x,1/2+y,z
1/2+x,-y,z
loop_
_atom_site_type_symbol
_atom_site_label
_atom_site_fract_x
_atom_site_fract_y
_atom_site_fract_z
Si Si1 0.298363 0.165549 0.189471
Si Si2 0.790480 0.556627 0.845004
Si Si3 0.204132 0.163450 0.605732
Si Si4 0.288124 0.308523 0.292761
Si Si5 0.712941 0.692988 0.915313
Si Si6 0.500000 0.750000 0.417388
Si Si7 0.205506 0.441652 0.444191
Si Si8 0.699091 0.418919 0.947632
O O1 0.500000 0.183882 0.189732
O O2 0.291372 0.103735 0.183734
O O3 0.218503 0.179876 0.240121
O O4 0.225338 0.186868 0.139571
O O5 0.750000 0.500000 0.826108
O O6 0.715609 0.560404 0.899120
O O7 0.000000 0.565199 0.845235
O O8 0.257251 0.157904 0.661493
O O9 0.343410 0.204079 0.584081
O O10 0.208117 0.107320 0.581345
O O11 0.000000 0.182442 0.604127
O O12 0.500000 0.310748 0.288707
O O13 0.235773 0.250000 0.305671
O O14 0.500000 0.689470 0.915864
O O15 0.763557 0.750000 0.932987
O O16 0.782496 0.643499 0.943509
O O17 0.250000 0.500000 0.427150
O O18 0.250000 0.439984 0.500000
O O19 0.000000 0.434585 0.438523
O O20 0.500000 0.434759 0.943237
O O21 0.750000 0.435634 0.000000
#
# Coordination Sequence:
#
# PCOD9503630 Si02
#       8
#    16  16  16  16  16   4  16  16
#     4   9  17  32  54  80 105 138 178 218 262 320
#     4  10  21  37  54  74  98 128 163 211 268 321
#     4  11  22  40  64  93 133 171 218 271 322 386
#     4   9  17  32  57  84 117 157 193 233 287 342
#     4   9  17  30  50  74 102 132 168 206 247 301
#     4  12  22  40  62  92 134 180 220 258 334 390
#     4  11  22  41  68  98 128 170 223 275 328 385
#     4  10  21  35  51  71  96 123 161 203 252 312
#
# _framework density 20.934782999999999
#
# number of rings (size 3 to 8) (size 9 to 14) (size 15 to 20)
#    0.000    2.069    1.379    3.103    0.000    4.138 
#    1.241    2.414    0.000    0.828    0.000    0.000 
#    0.000    0.000    0.000    0.000    0.000    0.000 
#
# Total GULP energy -322999.289500 kJ/mol
# GULP energy per Si atom -5568.953267 kJ/mol
# Density = 2.088713 g / cm^3
# Si number density = 20.934783 Si / 1000 Ang^3
#
#
#
# Elastic Constant Matrix: (Units=GPa)
#
#
# Indices 1 2 3 4 5 6 
#
# 1 87.7697 1.1830 1.6716 0.0000 0.0000 0.0000
# 2 1.1830 98.7799 30.5039 0.0000 0.0000 0.0000
# 3 1.6716 30.5039 71.0488 0.0000 0.0000 0.0000
# 4 0.0000 0.0000 0.0000 -72.1311 0.0000 0.0000
# 5 0.0000 0.0000 0.0000 0.0000 2.7125 0.0000
# 6 0.0000 0.0000 0.0000 0.0000 0.0000 21.3585
#
#
#
# Elastic Compliance Matrix: (Units=1/GPa)
#
#
# Indices 1 2 3 4 5 6 
#
# 1 0.011399 -0.000062 -0.000242 0.000000 0.000000 0.000000
# 2 -0.000062 0.011671 -0.005009 0.000000 0.000000 0.000000
# 3 -0.000242 -0.005009 0.016231 0.000000 0.000000 0.000000
# 4 0.000000 0.000000 0.000000 -0.013864 0.000000 0.000000
# 5 0.000000 0.000000 0.000000 0.000000 0.368661 0.000000
# 6 0.000000 0.000000 0.000000 0.000000 0.000000 0.046820
#
#
# Mechanical properties :
#
#
# Convention : Reuss Voigt Hill
#
# Bulk Modulus (GPa) = 34.87302 36.03505 35.45404
# Shear Modulus (GPa) = 10.84357 5.33732 8.09044
#
# Velocity S-wave (km/s) = 2.27836 1.59845 1.96799
# Velocity P-wave (km/s) = 4.85956 4.54501 4.70491
#
# Compressibility (1/GPa) = 0.02867546
#
# Stress axis : x y z
#
# Youngs Moduli (GPa) = 87.72788 85.68105 61.60961
#
# Poissons Ratio (x) = 0.00530 0.01488
# Poissons Ratio (y) = 0.00543 0.30863
# Poissons Ratio (z) = 0.02120 0.42921
#
# Static dielectric constant tensor:
#      x y z
#    x 1.750090 0.000000 0.000000 
#    y 0.000000 1.752700 0.000000 
#    z 0.000000 0.000000 1.771430 
# 
# From -- ./inp_files/43802.got.cif
#   From: 2010.05.17/outbox.cif.g08.bks.cpg/sg67_22_cif.got.tgz:43802.got - 2010.06.03 18:28:57.
