data_PCOD9503703
_publ_section_title
;
Structure prediction by ZEFSAII (Michael W. Deem and Ramdas Pophale) SiO2 
 PCOD9503703
Probable space group: C M M A
;
_chemical_formula_sum "Si O2"
_cell_formula_units_Z 96
_cell_length_a 29.608126
_cell_length_b 8.632248
_cell_length_c 21.141987
_cell_angle_alpha 90.000000
_cell_angle_beta 90.000000
_cell_angle_gamma 90.000000
_cell_volume 5403.568118
_symmetry_space_group_name_H-M "C M M A"
_symmetry_group_IT_number 67
_symmetry_cell_setting 'orthorhombic'
loop_
_space_group_symop_operation_xyz
x,y,z
-x,1/2-y,z
x,-y,-z
-x,1/2+y,-z
-x,-y,-z
x,1/2+y,-z
-x,y,z
x,1/2-y,z
1/2+x,1/2+y,z
1/2-x,-y,z
1/2+x,1/2-y,-z
1/2-x,y,-z
1/2-x,1/2-y,-z
1/2+x,y,-z
1/2-x,1/2+y,z
1/2+x,-y,z
loop_
_atom_site_type_symbol
_atom_site_label
_atom_site_fract_x
_atom_site_fract_y
_atom_site_fract_z
Si Si1 0.950150 0.938219 0.384329
Si Si2 0.449166 0.436487 0.235551
Si Si3 0.199856 0.063954 0.068720
Si Si4 0.300472 0.064145 0.307730
Si Si5 0.854406 0.437005 0.566701
Si Si6 0.142581 0.935049 0.809758
O O1 0.950567 0.750000 0.387357
O O2 0.944400 0.977545 0.310068
O O3 0.906058 0.992224 0.421520
O O4 0.000000 0.992664 0.405287
O O5 0.500000 0.480242 0.215972
O O6 0.445436 0.250000 0.231991
O O7 0.408987 0.511716 0.196708
O O8 0.202051 0.250000 0.065887
O O9 0.166101 0.017127 0.124640
O O10 0.250000 0.000000 0.082574
O O11 0.186464 0.000000 0.000000
O O12 0.299496 0.250000 0.306515
O O13 0.324444 0.015010 0.373242
O O14 0.250000 0.000000 0.303720
O O15 0.329921 0.006491 0.248784
O O16 0.837619 0.500000 0.500000
O O17 0.854688 0.250000 0.565144
O O18 0.145222 0.750000 0.805347
#
# Coordination Sequence:
#
# PCOD9503703 Si02
#       6
#    16  16  16  16  16  16
#     4   8  14  29  52  75 101 133 170 213 263 320
#     4   9  17  32  56  82 109 144 183 222 268 322
#     4  10  21  36  55  82 114 149 183 220 266 317
#     4  11  23  39  57  78 104 138 182 227 275 326
#     4  10  21  36  53  74 102 138 177 221 271 325
#     4  11  22  35  56  86 116 144 178 223 272 318
#
# _framework density 17.766038999999999
#
# number of rings (size 3 to 8) (size 9 to 14) (size 15 to 20)
#    0.000    2.167    1.667    3.500    0.000    6.333 
#    0.000    1.667    0.000    0.500    0.000    0.000 
#    0.000    0.000    0.000    0.000    0.000    0.000 
#
# Total GULP energy -267915.150440 kJ/mol
# GULP energy per Si atom -5581.565634 kJ/mol
# Density = 1.772560 g / cm^3
# Si number density = 17.766039 Si / 1000 Ang^3
#
#
#
# Elastic Constant Matrix: (Units=GPa)
#
#
# Indices 1 2 3 4 5 6 
#
# 1 127.3844 31.4535 78.2220 0.0000 0.0000 0.0000
# 2 31.4535 27.6493 33.9904 0.0000 0.0000 0.0000
# 3 78.2220 33.9904 123.9725 0.0000 0.0000 0.0000
# 4 0.0000 0.0000 0.0000 25.1889 0.0000 0.0000
# 5 0.0000 0.0000 0.0000 0.0000 17.6559 0.0000
# 6 0.0000 0.0000 0.0000 0.0000 0.0000 24.6017
#
#
#
# Elastic Compliance Matrix: (Units=1/GPa)
#
#
# Indices 1 2 3 4 5 6 
#
# 1 0.013781 -0.007523 -0.006632 0.000000 0.000000 0.000000
# 2 -0.007523 0.058663 -0.011337 0.000000 0.000000 0.000000
# 3 -0.006632 -0.011337 0.015359 0.000000 0.000000 0.000000
# 4 0.000000 0.000000 0.000000 0.039700 0.000000 0.000000
# 5 0.000000 0.000000 0.000000 0.000000 0.056638 0.000000
# 6 0.000000 0.000000 0.000000 0.000000 0.000000 0.040648
#
#
# Mechanical properties :
#
#
# Convention : Reuss Voigt Hill
#
# Bulk Modulus (GPa) = 27.16104 62.92646 45.04375
# Shear Modulus (GPa) = 17.35833 22.51200 19.93517
#
# Velocity S-wave (km/s) = 3.12917 3.56355 3.35340
# Velocity P-wave (km/s) = 5.32701 7.24074 6.35631
#
# Compressibility (1/GPa) = 0.03681744
#
# Stress axis : x y z
#
# Youngs Moduli (GPa) = 72.56624 17.04661 65.10665
#
# Poissons Ratio (x) = 0.12824 0.43181
# Poissons Ratio (y) = 0.54593 0.73812
# Poissons Ratio (z) = 0.48128 0.19326
#
# Static dielectric constant tensor:
#      x y z
#    x 1.609060 0.000000 0.000000 
#    y 0.000000 1.604340 0.000000 
#    z 0.000000 0.000000 1.590010 
# 
# From -- ./inp_files/37212.got.cif
#   From: 2010.05.17/outbox.cif.g08.bks.cpg/sg67_19_cif.got.tgz:37212.got - 2010.06.03 18:28:57.
