data_PCOD9503951
_publ_section_title
;
Structure prediction by ZEFSAII (Michael W. Deem and Ramdas Pophale) SiO2 
 PCOD9503951
Probable space group: C M M A
;
_chemical_formula_sum "Si O2"
_cell_formula_units_Z 64
_cell_length_a 17.663236
_cell_length_b 14.334413
_cell_length_c 11.751201
_cell_angle_alpha 90.000000
_cell_angle_beta 90.000000
_cell_angle_gamma 90.000000
_cell_volume 2975.311491
_symmetry_space_group_name_H-M "C M M A"
_symmetry_group_IT_number 67
_symmetry_cell_setting 'orthorhombic'
loop_
_space_group_symop_operation_xyz
x,y,z
-x,1/2-y,z
x,-y,-z
-x,1/2+y,-z
-x,-y,-z
x,1/2+y,-z
-x,y,z
x,1/2-y,z
1/2+x,1/2+y,z
1/2-x,-y,z
1/2+x,1/2-y,-z
1/2-x,y,-z
1/2-x,1/2-y,-z
1/2+x,y,-z
1/2-x,1/2+y,z
1/2+x,-y,z
loop_
_atom_site_type_symbol
_atom_site_label
_atom_site_fract_x
_atom_site_fract_y
_atom_site_fract_z
Si Si1 0.123507 0.645666 0.728839
Si Si2 0.085271 0.566660 0.249192
Si Si3 0.274925 0.139976 0.125336
Si Si4 0.663764 0.889060 0.516728
O O1 0.100613 0.750000 0.772491
O O2 0.083048 0.546663 0.748863
O O3 0.208099 0.627426 0.781037
O O4 0.121792 0.651057 0.592221
O O5 0.147615 0.590644 0.156397
O O6 0.120826 0.615881 0.363119
O O7 0.000000 0.600454 0.231289
O O8 0.289648 0.250000 0.122223
O O9 0.250000 0.110681 0.000000
O O10 0.750000 0.854709 0.500000
O O11 0.667787 0.000000 0.500000
#
# Coordination Sequence:
#
# PCOD9503951 Si02
#       4
#    16  16  16  16
#     4  10  21  37  61  90 126 173 216 251 302 381
#     4  11  23  39  63  96 130 162 205 266 325 373
#     4  10  22  42  67  92 118 161 216 263 309 373
#     4   9  17  33  58  89 122 165 210 254 306 372
#
# _framework density 21.510352999999999
#
# number of rings (size 3 to 8) (size 9 to 14) (size 15 to 20)
#    0.000    2.000    2.500    0.750    0.000    9.000 
#    0.000    2.500    0.000    4.500    0.000    0.000 
#    0.000    0.000    0.000    0.000    0.000    0.000 
#
# Total GULP energy -178257.059559 kJ/mol
# GULP energy per Si atom -5570.533111 kJ/mol
# Density = 2.146139 g / cm^3
# Si number density = 21.510353 Si / 1000 Ang^3
#
#
#
# Elastic Constant Matrix: (Units=GPa)
#
#
# Indices 1 2 3 4 5 6 
#
# 1 138.0883 41.9493 68.5728 0.0000 0.0000 0.0000
# 2 41.9493 93.5569 28.3104 0.0000 0.0000 0.0000
# 3 68.5728 28.3104 112.4283 0.0000 0.0000 0.0000
# 4 0.0000 0.0000 0.0000 25.2181 0.0000 0.0000
# 5 0.0000 0.0000 0.0000 0.0000 9.8510 0.0000
# 6 0.0000 0.0000 0.0000 0.0000 0.0000 -95.1521
#
#
#
# Elastic Compliance Matrix: (Units=1/GPa)
#
#
# Indices 1 2 3 4 5 6 
#
# 1 0.011209 -0.003201 -0.006030 0.000000 0.000000 0.000000
# 2 -0.003201 0.012484 -0.001191 0.000000 0.000000 0.000000
# 3 -0.006030 -0.001191 0.012873 0.000000 0.000000 0.000000
# 4 0.000000 0.000000 0.000000 0.039654 0.000000 0.000000
# 5 0.000000 0.000000 0.000000 0.000000 0.101513 0.000000
# 6 0.000000 0.000000 0.000000 0.000000 0.000000 -0.010509
#
#
# Mechanical properties :
#
#
# Convention : Reuss Voigt Hill
#
# Bulk Modulus (GPa) = 63.61194 69.08207 66.34700
# Shear Modulus (GPa) = 25.86530 1.66612 13.76571
#
# Velocity S-wave (km/s) = 3.47141 0.88105 2.53248
# Velocity P-wave (km/s) = 6.76051 5.76372 6.28192
#
# Compressibility (1/GPa) = 0.01572032
#
# Stress axis : x y z
#
# Youngs Moduli (GPa) = 89.21540 80.09956 77.68384
#
# Poissons Ratio (x) = 0.25640 0.46847
# Poissons Ratio (y) = 0.28558 0.09255
# Poissons Ratio (z) = 0.53801 0.09542
#
# Static dielectric constant tensor:
#      x y z
#    x 1.774030 0.000000 0.000000 
#    y 0.000000 1.945950 0.000000 
#    z 0.000000 0.000000 1.797420 
# 
# From -- ./inp_files/17494.got.cif
#   From: 2010.05.17/outbox.cif.g08.bks.cpg/sg67_9_cif.got.tgz:17494.got - 2010.06.03 18:28:57.
