data_PCOD9503339
_publ_section_title
;
Structure prediction by ZEFSAII (Michael W. Deem and Ramdas Pophale) SiO2 
 PCOD9503339
Probable space group: C M M A
;
_chemical_formula_sum "Si O2"
_cell_formula_units_Z 72
_cell_length_a 9.318524
_cell_length_b 26.886678
_cell_length_c 14.491503
_cell_angle_alpha 90.000000
_cell_angle_beta 90.000000
_cell_angle_gamma 90.000000
_cell_volume 3630.761363
_symmetry_space_group_name_H-M "C M M A"
_symmetry_group_IT_number 67
_symmetry_cell_setting 'orthorhombic'
loop_
_space_group_symop_operation_xyz
x,y,z
-x,1/2-y,z
x,-y,-z
-x,1/2+y,-z
-x,-y,-z
x,1/2+y,-z
-x,y,z
x,1/2-y,z
1/2+x,1/2+y,z
1/2-x,-y,z
1/2+x,1/2-y,-z
1/2-x,y,-z
1/2-x,1/2-y,-z
1/2+x,y,-z
1/2-x,1/2+y,z
1/2+x,-y,z
loop_
_atom_site_type_symbol
_atom_site_label
_atom_site_fract_x
_atom_site_fract_y
_atom_site_fract_z
Si Si1 0.327092 0.350477 0.707917
Si Si2 0.165712 0.691435 0.904862
Si Si3 0.834662 0.052039 0.918471
Si Si4 0.333574 0.947569 0.700978
Si Si5 0.671861 0.250000 0.597158
O O1 0.500000 0.357803 0.706790
O O2 0.286777 0.339068 0.814985
O O3 0.250297 0.398929 0.665427
O O4 0.291843 0.300200 0.652795
O O5 0.171786 0.750000 0.878588
O O6 0.000000 0.678607 0.922641
O O7 0.250000 0.686605 0.000000
O O8 0.835503 0.064423 0.810869
O O9 0.000000 0.048558 0.947285
O O10 0.750000 0.000000 0.914046
O O11 0.750000 0.080548 0.000000
O O12 0.500000 0.951545 0.670899
O O13 0.250000 0.000000 0.686163
O O14 0.500000 0.250000 0.585089
O O15 0.750000 0.250000 0.500000
#
# Coordination Sequence:
#
# PCOD9503339 Si02
#       5
#    16  16  16  16   8
#     4  10  20  37  60  84 117 157 194 235 288 346
#     4   9  17  31  51  77 112 154 196 237 283 338
#     4   9  16  26  41  62  93 135 185 236 279 321
#     4  10  21  35  52  78 111 149 194 238 285 339
#     4  10  22  42  67  94 120 148 185 232 291 352
#
# _framework density 19.830551
#
# number of rings (size 3 to 8) (size 9 to 14) (size 15 to 20)
#    0.000    2.444    1.111    2.000    0.000    5.333 
#    0.000    4.444    0.000    0.667    0.000    4.667 
#    0.000    0.000    0.000    0.000    0.000    0.000 
#
# Total GULP energy -200510.339682 kJ/mol
# GULP energy per Si atom -5569.731658 kJ/mol
# Density = 1.978542 g / cm^3
# Si number density = 19.830551 Si / 1000 Ang^3
#
#
#
# Elastic Constant Matrix: (Units=GPa)
#
#
# Indices 1 2 3 4 5 6 
#
# 1 99.3145 79.1954 28.4644 0.0000 0.0000 0.0000
# 2 79.1954 162.0634 30.8184 0.0000 0.0000 0.0000
# 3 28.4644 30.8184 47.3478 0.0000 0.0000 0.0000
# 4 0.0000 0.0000 0.0000 -1.1094 0.0000 0.0000
# 5 0.0000 0.0000 0.0000 0.0000 25.0742 0.0000
# 6 0.0000 0.0000 0.0000 0.0000 0.0000 21.2475
#
#
#
# Elastic Compliance Matrix: (Units=1/GPa)
#
#
# Indices 1 2 3 4 5 6 
#
# 1 0.017767 -0.007591 -0.005741 0.000000 0.000000 0.000000
# 2 -0.007591 0.010285 -0.002131 0.000000 0.000000 0.000000
# 3 -0.005741 -0.002131 0.025959 0.000000 0.000000 0.000000
# 4 0.000000 0.000000 0.000000 -0.901349 0.000000 0.000000
# 5 0.000000 0.000000 0.000000 0.000000 0.039882 0.000000
# 6 0.000000 0.000000 0.000000 0.000000 0.000000 0.047064
#
#
# Mechanical properties :
#
#
# Convention : Reuss Voigt Hill
#
# Bulk Modulus (GPa) = 43.31603 65.07577 54.19590
# Shear Modulus (GPa) = -6.92740 20.39228 6.73244
#
# Velocity S-wave (km/s) = -1.87106 3.21023 1.84455
# Velocity P-wave (km/s) = 4.15002 6.82847 5.65025
#
# Compressibility (1/GPa) = 0.02308614
#
# Stress axis : x y z
#
# Youngs Moduli (GPa) = 56.28325 97.22880 38.52298
#
# Poissons Ratio (x) = 0.73803 0.22114
# Poissons Ratio (y) = 0.42723 0.08210
# Poissons Ratio (z) = 0.32310 0.20721
#
# Static dielectric constant tensor:
#      x y z
#    x 1.692460 0.000000 0.000000 
#    y 0.000000 1.750470 0.000000 
#    z 0.000000 0.000000 1.734780 
# 
# From -- ./inp_files/25096.got.cif
#   From: 2010.05.17/outbox.cif.g08.bks.cpg/sg67_13_cif.got.tgz:25096.got - 2010.06.03 18:28:57.
