data_PCOD9503817
_publ_section_title
;
Structure prediction by ZEFSAII (Michael W. Deem and Ramdas Pophale) SiO2 
 PCOD9503817
Probable space group: C M M A
;
_chemical_formula_sum "Si O2"
_cell_formula_units_Z 56
_cell_length_a 17.321031
_cell_length_b 9.943206
_cell_length_c 15.345712
_cell_angle_alpha 90.000000
_cell_angle_beta 90.000000
_cell_angle_gamma 90.000000
_cell_volume 2642.939486
_symmetry_space_group_name_H-M "C M M A"
_symmetry_group_IT_number 67
_symmetry_cell_setting 'orthorhombic'
loop_
_space_group_symop_operation_xyz
x,y,z
-x,1/2-y,z
x,-y,-z
-x,1/2+y,-z
-x,-y,-z
x,1/2+y,-z
-x,y,z
x,1/2-y,z
1/2+x,1/2+y,z
1/2-x,-y,z
1/2+x,1/2-y,-z
1/2-x,y,-z
1/2-x,1/2-y,-z
1/2+x,y,-z
1/2-x,1/2+y,z
1/2+x,-y,z
loop_
_atom_site_type_symbol
_atom_site_label
_atom_site_fract_x
_atom_site_fract_y
_atom_site_fract_z
Si Si1 0.414558 0.750000 0.311920
Si Si2 0.115436 0.250000 0.112776
Si Si3 0.907299 0.250000 0.712392
Si Si4 0.698676 0.250000 0.113981
Si Si5 0.363779 0.000000 0.000000
Si Si6 0.657351 0.495657 0.398819
O O1 0.500000 0.750000 0.349248
O O2 0.417673 0.750000 0.208409
O O3 0.370015 0.876287 0.346998
O O4 0.209102 0.250000 0.125648
O O5 0.094891 0.111000 0.062144
O O6 0.855586 0.250000 0.800673
O O7 0.881059 0.374411 0.653197
O O8 0.000000 0.250000 0.729912
O O9 0.679871 0.389460 0.061645
O O10 0.633433 0.500000 0.500000
O O11 0.750000 0.500000 0.396949
#
# Coordination Sequence:
#
# PCOD9503817 Si02
#       6
#     8   8   8   8   8  16
#     4  12  26  42  63  96 134 169 206 255 320 381
#     4  11  20  37  61  87 120 160 209 258 307 366
#     4  12  26  42  63  96 134 169 206 255 320 381
#     4  11  20  37  61  87 120 160 209 258 307 366
#     4  10  21  36  61  90 115 156 213 264 305 358
#     4  11  24  44  69  95 124 165 216 263 310 370
#
# _framework density 21.188528999999999
#
# number of rings (size 3 to 8) (size 9 to 14) (size 15 to 20)
#    0.000    0.857    0.000    9.429    0.000    5.714 
#    0.000    4.286    0.000    0.000    0.000    0.000 
#    0.000    0.000    0.000    0.000    0.000    0.000 
#
# Total GULP energy -156365.914485 kJ/mol
# GULP energy per Si atom -5584.496946 kJ/mol
# Density = 2.114030 g / cm^3
# Si number density = 21.188529 Si / 1000 Ang^3
#
#
#
# Elastic Constant Matrix: (Units=GPa)
#
#
# Indices 1 2 3 4 5 6 
#
# 1 104.5980 39.7760 62.8629 0.0000 0.0000 0.0000
# 2 39.7760 223.3773 83.3259 0.0000 0.0000 0.0000
# 3 62.8629 83.3259 170.7892 0.0000 0.0000 0.0000
# 4 0.0000 0.0000 0.0000 45.2681 0.0000 0.0000
# 5 0.0000 0.0000 0.0000 0.0000 44.3340 0.0000
# 6 0.0000 0.0000 0.0000 0.0000 0.0000 33.1889
#
#
#
# Elastic Compliance Matrix: (Units=1/GPa)
#
#
# Indices 1 2 3 4 5 6 
#
# 1 0.012345 -0.000615 -0.004244 0.000000 0.000000 0.000000
# 2 -0.000615 0.005503 -0.002459 0.000000 0.000000 0.000000
# 3 -0.004244 -0.002459 0.008617 0.000000 0.000000 0.000000
# 4 0.000000 0.000000 0.000000 0.022091 0.000000 0.000000
# 5 0.000000 0.000000 0.000000 0.000000 0.022556 0.000000
# 6 0.000000 0.000000 0.000000 0.000000 0.000000 0.030131
#
#
# Mechanical properties :
#
#
# Convention : Reuss Voigt Hill
#
# Bulk Modulus (GPa) = 84.53109 96.74377 90.63743
# Shear Modulus (GPa) = 41.72917 45.41150 43.57034
#
# Velocity S-wave (km/s) = 4.44263 4.63451 4.53958
# Velocity P-wave (km/s) = 8.14232 8.62530 8.38729
#
# Compressibility (1/GPa) = 0.01182997
#
# Stress axis : x y z
#
# Youngs Moduli (GPa) = 81.00608 181.70569 116.05427
#
# Poissons Ratio (x) = 0.11178 0.49249
# Poissons Ratio (y) = 0.04983 0.28533
# Poissons Ratio (z) = 0.34376 0.44674
#
# Static dielectric constant tensor:
#      x y z
#    x 1.749330 0.000000 0.000000 
#    y 0.000000 1.776680 0.000000 
#    z 0.000000 0.000000 1.754230 
# 
# From -- ./inp_files/24655.got.cif
#   From: 2010.05.17/outbox.cif.g08.bks.cpg/sg67_13_cif.got.tgz:24655.got - 2010.06.03 18:28:57.
