data_PCOD9503318
_publ_section_title
;
Structure prediction by ZEFSAII (Michael W. Deem and Ramdas Pophale) SiO2 
 PCOD9503318
Probable space group: C M M A
;
_chemical_formula_sum "Si O2"
_cell_formula_units_Z 80
_cell_length_a 26.668616
_cell_length_b 13.976893
_cell_length_c 11.063859
_cell_angle_alpha 90.000000
_cell_angle_beta 90.000000
_cell_angle_gamma 90.000000
_cell_volume 4123.991399
_symmetry_space_group_name_H-M "C M M A"
_symmetry_group_IT_number 67
_symmetry_cell_setting 'orthorhombic'
loop_
_space_group_symop_operation_xyz
x,y,z
-x,1/2-y,z
x,-y,-z
-x,1/2+y,-z
-x,-y,-z
x,1/2+y,-z
-x,y,z
x,1/2-y,z
1/2+x,1/2+y,z
1/2-x,-y,z
1/2+x,1/2-y,-z
1/2-x,y,-z
1/2-x,1/2-y,-z
1/2+x,y,-z
1/2-x,1/2+y,z
1/2+x,-y,z
loop_
_atom_site_type_symbol
_atom_site_label
_atom_site_fract_x
_atom_site_fract_y
_atom_site_fract_z
Si Si1 0.944104 0.026576 0.699356
Si Si2 0.198587 0.635545 0.430750
Si Si3 0.410866 0.860596 0.474563
Si Si4 0.693210 0.143093 0.952642
Si Si5 0.160712 0.040994 0.814326
O O1 0.934433 0.112465 0.604143
O O2 0.897822 0.027609 0.788982
O O3 0.000000 0.031345 0.749018
O O4 0.936400 0.930561 0.620495
O O5 0.199993 0.750000 0.406168
O O6 0.250000 0.610680 0.500000
O O7 0.148873 0.618138 0.512432
O O8 0.188418 0.581537 0.304658
O O9 0.417446 0.750000 0.445907
O O10 0.681391 0.250000 0.908883
O O11 0.684301 0.059866 0.855801
O O12 0.750000 0.140813 0.000000
O O13 0.664126 0.113716 0.073823
#
# Coordination Sequence:
#
# PCOD9503318 Si02
#       5
#    16  16  16  16  16
#     4  10  21  35  52  77 107 142 185 230 274 321
#     4   9  18  32  54  87 122 151 180 220 272 332
#     4   9  18  33  52  76 110 150 186 218 260 326
#     4  10  22  40  61  83 107 140 182 226 274 334
#     4  10  20  37  59  81 109 145 184 229 277 329
#
# _framework density 19.398682000000001
#
# number of rings (size 3 to 8) (size 9 to 14) (size 15 to 20)
#    0.000    2.400    0.000    3.000    0.000    6.400 
#    0.000   13.000    0.000    1.800    0.000    0.000 
#    0.000    0.000    0.000    0.000    0.000    0.000 
#
# Total GULP energy -223424.204450 kJ/mol
# GULP energy per Si atom -5585.605111 kJ/mol
# Density = 1.935453 g / cm^3
# Si number density = 19.398682 Si / 1000 Ang^3
#
#
#
# Elastic Constant Matrix: (Units=GPa)
#
#
# Indices 1 2 3 4 5 6 
#
# 1 129.7553 50.8215 39.7610 0.0000 0.0000 0.0000
# 2 50.8215 87.5756 24.4061 0.0000 0.0000 0.0000
# 3 39.7610 24.4061 52.1857 0.0000 0.0000 0.0000
# 4 0.0000 0.0000 0.0000 21.2621 0.0000 0.0000
# 5 0.0000 0.0000 0.0000 0.0000 11.6576 0.0000
# 6 0.0000 0.0000 0.0000 0.0000 0.0000 14.1870
#
#
#
# Elastic Compliance Matrix: (Units=1/GPa)
#
#
# Indices 1 2 3 4 5 6 
#
# 1 0.011652 -0.004930 -0.006572 0.000000 0.000000 0.000000
# 2 -0.004930 0.015216 -0.003360 0.000000 0.000000 0.000000
# 3 -0.006572 -0.003360 0.025741 0.000000 0.000000 0.000000
# 4 0.000000 0.000000 0.000000 0.047032 0.000000 0.000000
# 5 0.000000 0.000000 0.000000 0.000000 0.085781 0.000000
# 6 0.000000 0.000000 0.000000 0.000000 0.000000 0.070487
#
#
# Mechanical properties :
#
#
# Convention : Reuss Voigt Hill
#
# Bulk Modulus (GPa) = 43.69698 55.49930 49.59814
# Shear Modulus (GPa) = 17.04967 19.72321 18.38644
#
# Velocity S-wave (km/s) = 2.96786 3.19208 3.08201
# Velocity P-wave (km/s) = 5.85823 6.50060 6.18776
#
# Compressibility (1/GPa) = 0.02288488
#
# Stress axis : x y z
#
# Youngs Moduli (GPa) = 85.82499 65.71993 38.84878
#
# Poissons Ratio (x) = 0.32401 0.25531
# Poissons Ratio (y) = 0.42313 0.13053
# Poissons Ratio (z) = 0.56403 0.22081
#
# Static dielectric constant tensor:
#      x y z
#    x 1.684950 0.000000 0.000000 
#    y 0.000000 1.697370 0.000000 
#    z 0.000000 0.000000 1.683020 
# 
# From -- ./inp_files/22748.got.cif
#   From: 2010.05.17/outbox.cif.g08.bks.cpg/sg67_12_cif.got.tgz:22748.got - 2010.06.03 18:28:57.
