data_PCOD9503967
_publ_section_title
;
Structure prediction by ZEFSAII (Michael W. Deem and Ramdas Pophale) SiO2 
 PCOD9503967
Probable space group: C M M A
;
_chemical_formula_sum "Si O2"
_cell_formula_units_Z 68
_cell_length_a 21.777848
_cell_length_b 15.413279
_cell_length_c 9.303618
_cell_angle_alpha 90.000000
_cell_angle_beta 90.000000
_cell_angle_gamma 90.000000
_cell_volume 3122.927286
_symmetry_space_group_name_H-M "C M M A"
_symmetry_group_IT_number 67
_symmetry_cell_setting 'orthorhombic'
loop_
_space_group_symop_operation_xyz
x,y,z
-x,1/2-y,z
x,-y,-z
-x,1/2+y,-z
-x,-y,-z
x,1/2+y,-z
-x,y,z
x,1/2-y,z
1/2+x,1/2+y,z
1/2-x,-y,z
1/2+x,1/2-y,-z
1/2-x,y,-z
1/2-x,1/2-y,-z
1/2+x,y,-z
1/2-x,1/2+y,z
1/2+x,-y,z
loop_
_atom_site_type_symbol
_atom_site_label
_atom_site_fract_x
_atom_site_fract_y
_atom_site_fract_z
Si Si1 0.744438 0.349137 0.788660
Si Si2 0.887933 0.655339 0.289034
Si Si3 0.430288 0.516592 0.160295
Si Si4 0.147666 0.591198 0.582320
Si Si5 0.750000 0.500000 0.000000
O O1 0.731694 0.250000 0.837627
O O2 0.817605 0.358179 0.766451
O O3 0.709172 0.365204 0.640478
O O4 0.722255 0.427927 0.890749
O O5 0.908271 0.750000 0.242428
O O6 0.928602 0.578606 0.229794
O O7 0.884694 0.648104 0.461046
O O8 0.500000 0.548808 0.144449
O O9 0.393867 0.573718 0.276852
O O10 0.404157 0.500000 0.000000
O O11 0.159911 0.500000 0.500000
#
# Coordination Sequence:
#
# PCOD9503967 Si02
#       5
#    16  16  16  16   4
#     4  11  24  38  60  94 133 166 202 251 310 379
#     4  10  22  39  61  91 123 159 201 251 309 366
#     4  10  23  42  62  86 118 162 210 256 309 367
#     4  10  21  37  64  91 122 165 204 253 305 370
#     4  12  22  36  54  86 130 168 208 240 300 364
#
# _framework density 21.774442000000001
#
# number of rings (size 3 to 8) (size 9 to 14) (size 15 to 20)
#    0.000    1.647    0.000    4.588    6.588    9.412 
#    0.000    1.176    0.000    4.941    0.000    0.000 
#    0.000    0.000    0.000    0.000    0.000    0.000 
#
# Total GULP energy -189727.438751 kJ/mol
# GULP energy per Si atom -5580.218787 kJ/mol
# Density = 2.172488 g / cm^3
# Si number density = 21.774442 Si / 1000 Ang^3
#
#
#
# Elastic Constant Matrix: (Units=GPa)
#
#
# Indices 1 2 3 4 5 6 
#
# 1 49.2993 13.7251 22.5680 0.0000 0.0000 0.0000
# 2 13.7251 102.7181 18.8889 0.0000 0.0000 0.0000
# 3 22.5680 18.8889 133.7196 0.0000 0.0000 0.0000
# 4 0.0000 0.0000 0.0000 3.6694 0.0000 0.0000
# 5 0.0000 0.0000 0.0000 0.0000 -3.9474 0.0000
# 6 0.0000 0.0000 0.0000 0.0000 0.0000 42.0321
#
#
#
# Elastic Compliance Matrix: (Units=1/GPa)
#
#
# Indices 1 2 3 4 5 6 
#
# 1 0.022532 -0.002373 -0.003468 0.000000 0.000000 0.000000
# 2 -0.002373 0.010245 -0.001047 0.000000 0.000000 0.000000
# 3 -0.003468 -0.001047 0.008211 0.000000 0.000000 0.000000
# 4 0.000000 0.000000 0.000000 0.272525 0.000000 0.000000
# 5 0.000000 0.000000 0.000000 0.000000 -0.253332 0.000000
# 6 0.000000 0.000000 0.000000 0.000000 0.000000 0.023791
#
#
# Mechanical properties :
#
#
# Convention : Reuss Voigt Hill
#
# Bulk Modulus (GPa) = 36.74582 44.01124 40.37853
# Shear Modulus (GPa) = 46.80811 23.72116 35.26464
#
# Velocity S-wave (km/s) = 4.64150 3.30419 4.02872
# Velocity P-wave (km/s) = 6.75551 5.90027 6.34232
#
# Compressibility (1/GPa) = 0.02721398
#
# Stress axis : x y z
#
# Youngs Moduli (GPa) = 44.38065 97.60912 121.78173
#
# Poissons Ratio (x) = 0.23164 0.42229
# Poissons Ratio (y) = 0.10532 0.12746
# Poissons Ratio (z) = 0.15389 0.10216
#
# Static dielectric constant tensor:
#      x y z
#    x 1.797580 0.000000 0.000000 
#    y 0.000000 1.790230 0.000000 
#    z 0.000000 0.000000 1.829200 
# 
# From -- ./inp_files/10792.got.cif
#   From: 2010.05.17/outbox.cif.g08.bks.cpg/sg67_6_cif.got.tgz:10792.got - 2010.06.03 18:28:57.
