data_PCOD9503395
_publ_section_title
;
Structure prediction by ZEFSAII (Michael W. Deem and Ramdas Pophale) SiO2 
 PCOD9503395
Probable space group: C M M A
;
_chemical_formula_sum "Si O2"
_cell_formula_units_Z 108
_cell_length_a 14.184415
_cell_length_b 21.967144
_cell_length_c 16.412592
_cell_angle_alpha 90.000000
_cell_angle_beta 90.000000
_cell_angle_gamma 90.000000
_cell_volume 5114.017379
_symmetry_space_group_name_H-M "C M M A"
_symmetry_group_IT_number 67
_symmetry_cell_setting 'orthorhombic'
loop_
_space_group_symop_operation_xyz
x,y,z
-x,1/2-y,z
x,-y,-z
-x,1/2+y,-z
-x,-y,-z
x,1/2+y,-z
-x,y,z
x,1/2-y,z
1/2+x,1/2+y,z
1/2-x,-y,z
1/2+x,1/2-y,-z
1/2-x,y,-z
1/2-x,1/2-y,-z
1/2+x,y,-z
1/2-x,1/2+y,z
1/2+x,-y,z
loop_
_atom_site_type_symbol
_atom_site_label
_atom_site_fract_x
_atom_site_fract_y
_atom_site_fract_z
Si Si1 0.750000 0.000000 0.500000
Si Si2 0.390684 0.140188 0.308719
Si Si3 0.639046 0.680599 0.514953
Si Si4 0.229774 0.856138 0.093798
Si Si5 0.329319 0.250000 0.205537
Si Si6 0.888995 0.454545 0.827855
Si Si7 0.388438 0.905032 0.203452
Si Si8 0.893642 0.080444 0.391924
O O1 0.818640 0.040036 0.441812
O O2 0.500000 0.156097 0.289170
O O3 0.380914 0.139910 0.405338
O O4 0.330405 0.196075 0.275229
O O5 0.369361 0.078404 0.259545
O O6 0.605274 0.750000 0.526174
O O7 0.750000 0.683350 0.500000
O O8 0.599902 0.644523 0.438321
O O9 0.169677 0.803162 0.135105
O O10 0.172677 0.918498 0.107256
O O11 0.324813 0.861650 0.148117
O O12 0.250000 0.845160 0.000000
O O13 0.870451 0.525762 0.824809
O O14 0.000000 0.446193 0.844149
O O15 0.500000 0.891828 0.195879
O O16 0.364274 0.905863 0.299234
O O17 0.000000 0.052463 0.389712
#
# Coordination Sequence:
#
# PCOD9503395 Si02
#       8
#     4  16  16  16   8  16  16  16
#     4  12  26  40  70  94 126 172 230 282 308 370
#     4  10  20  37  62  93 122 159 208 266 323 368
#     4  11  24  38  60  92 129 169 219 272 320 374
#     4  11  24  41  67  97 126 163 207 262 325 390
#     4  10  22  38  66  90 127 160 204 262 319 381
#     4   9  21  39  65  95 123 158 206 265 320 376
#     4  10  24  44  63  89 131 174 212 257 317 392
#     4  11  26  43  62  94 133 177 220 268 329 384
#
# _framework density 21.118428000000002
#
# number of rings (size 3 to 8) (size 9 to 14) (size 15 to 20)
#    0.000    1.630    1.481    1.556    8.296    3.259 
#    0.000    1.852    0.000    1.778    0.000    0.000 
#    0.000    0.000    0.000    0.000    0.000    0.000 
#
# Total GULP energy -300776.896194 kJ/mol
# GULP energy per Si atom -5569.942522 kJ/mol
# Density = 2.107036 g / cm^3
# Si number density = 21.118428 Si / 1000 Ang^3
#
#
#
# Elastic Constant Matrix: (Units=GPa)
#
#
# Indices 1 2 3 4 5 6 
#
# 1 73.2398 3.6953 12.9590 0.0000 0.0000 0.0000
# 2 3.6953 17.2507 -5.4909 0.0000 0.0000 0.0000
# 3 12.9590 -5.4909 82.6076 0.0000 0.0000 0.0000
# 4 0.0000 0.0000 0.0000 17.3427 0.0000 0.0000
# 5 0.0000 0.0000 0.0000 0.0000 -12.7283 0.0000
# 6 0.0000 0.0000 0.0000 0.0000 0.0000 -1.9116
#
#
#
# Elastic Compliance Matrix: (Units=1/GPa)
#
#
# Indices 1 2 3 4 5 6 
#
# 1 0.014290 -0.003856 -0.002498 0.000000 0.000000 0.000000
# 2 -0.003856 0.060262 0.004611 0.000000 0.000000 0.000000
# 3 -0.002498 0.004611 0.012804 0.000000 0.000000 0.000000
# 4 0.000000 0.000000 0.000000 0.057661 0.000000 0.000000
# 5 0.000000 0.000000 0.000000 0.000000 -0.078565 0.000000
# 6 0.000000 0.000000 0.000000 0.000000 0.000000 -0.523115
#
#
# Mechanical properties :
#
#
# Convention : Reuss Voigt Hill
#
# Bulk Modulus (GPa) = 11.92339 21.71388 16.81864
# Shear Modulus (GPa) = -11.75866 11.33619 -0.21123
#
# Velocity S-wave (km/s) = -2.36221 2.31939 -0.31661
# Velocity P-wave (km/s) = 1.33486 4.18055 2.80136
#
# Compressibility (1/GPa) = 0.08386874
#
# Stress axis : x y z
#
# Youngs Moduli (GPa) = 69.97722 16.59413 78.10189
#
# Poissons Ratio (x) = 0.06399 0.19511
# Poissons Ratio (y) = 0.26986 -0.36010
# Poissons Ratio (z) = 0.17481 -0.07651
#
# Static dielectric constant tensor:
#      x y z
#    x 1.827920 0.000000 0.000000 
#    y 0.000000 1.662280 0.000000 
#    z 0.000000 0.000000 1.752420 
# 
# From -- ./inp_files/27612.got.cif
#   From: 2010.05.17/outbox.cif.g08.bks.cpg/sg67_14_cif.got.tgz:27612.got - 2010.06.03 18:28:57.
