data_PCOD9503313
_publ_section_title
;
Structure prediction by ZEFSAII (Michael W. Deem and Ramdas Pophale) SiO2 
 PCOD9503313
Probable space group: C M M A
;
_chemical_formula_sum "Si O2"
_cell_formula_units_Z 80
_cell_length_a 27.651141
_cell_length_b 15.762637
_cell_length_c 8.526905
_cell_angle_alpha 90.000000
_cell_angle_beta 90.000000
_cell_angle_gamma 90.000000
_cell_volume 3716.493311
_symmetry_space_group_name_H-M "C M M A"
_symmetry_group_IT_number 67
_symmetry_cell_setting 'orthorhombic'
loop_
_space_group_symop_operation_xyz
x,y,z
-x,1/2-y,z
x,-y,-z
-x,1/2+y,-z
-x,-y,-z
x,1/2+y,-z
-x,y,z
x,1/2-y,z
1/2+x,1/2+y,z
1/2-x,-y,z
1/2+x,1/2-y,-z
1/2-x,y,-z
1/2-x,1/2-y,-z
1/2+x,y,-z
1/2-x,1/2+y,z
1/2+x,-y,z
loop_
_atom_site_type_symbol
_atom_site_label
_atom_site_fract_x
_atom_site_fract_y
_atom_site_fract_z
Si Si1 0.302969 0.104673 0.686767
Si Si2 0.000000 0.082271 0.114178
Si Si3 0.500000 0.654383 0.801583
Si Si4 0.096885 0.351623 0.659720
Si Si5 0.591351 0.850916 0.295842
Si Si6 0.301219 0.900423 0.682126
O O1 0.353091 0.135734 0.761216
O O2 0.302665 0.128409 0.501212
O O3 0.249978 0.131088 0.750179
O O4 0.302011 0.002439 0.687635
O O5 0.048974 0.096337 0.212903
O O6 0.000000 0.156906 0.986511
O O7 0.000000 0.000000 0.000000
O O8 0.500000 0.750000 0.736141
O O9 0.450634 0.613438 0.743170
O O10 0.096006 0.250000 0.658324
O O11 0.093985 0.378889 0.478369
O O12 0.146737 0.374295 0.745031
O O13 0.580192 0.750000 0.288321
#
# Coordination Sequence:
#
# PCOD9503313 Si02
#       6
#    16   8   8  16  16  16
#     4   8  15  27  49  79 112 149 174 213 277 332
#     4  12  27  40  54  78 106 145 194 232 280 334
#     4  10  21  38  55  76 107 146 181 225 279 327
#     4   9  18  32  57  85 111 143 182 225 279 333
#     4  10  20  37  58  82 111 145 182 230 280 337
#     4   8  14  27  47  80 120 142 171 221 274 324
#
# _framework density 21.525669000000001
#
# number of rings (size 3 to 8) (size 9 to 14) (size 15 to 20)
#    0.000    2.800    0.000    2.700    2.800    2.400 
#    0.000    5.000    0.000    1.200    0.000    4.200 
#    0.000    0.000    0.000    0.000    0.000    0.000 
#
# Total GULP energy -222740.799121 kJ/mol
# GULP energy per Si atom -5568.519978 kJ/mol
# Density = 2.147668 g / cm^3
# Si number density = 21.525669 Si / 1000 Ang^3
#
#
#
# Elastic Constant Matrix: (Units=GPa)
#
#
# Indices 1 2 3 4 5 6 
#
# 1 250.3811 29.1199 50.8454 0.0000 0.0000 0.0000
# 2 29.1199 49.2423 8.4349 0.0000 0.0000 0.0000
# 3 50.8454 8.4349 27.6446 0.0000 0.0000 0.0000
# 4 0.0000 0.0000 0.0000 8.8314 0.0000 0.0000
# 5 0.0000 0.0000 0.0000 0.0000 -19.8980 0.0000
# 6 0.0000 0.0000 0.0000 0.0000 0.0000 30.7634
#
#
#
# Elastic Compliance Matrix: (Units=1/GPa)
#
#
# Indices 1 2 3 4 5 6 
#
# 1 0.006540 -0.001907 -0.011448 0.000000 0.000000 0.000000
# 2 -0.001907 0.021984 -0.003201 0.000000 0.000000 0.000000
# 3 -0.011448 -0.003201 0.058205 0.000000 0.000000 0.000000
# 4 0.000000 0.000000 0.000000 0.113233 0.000000 0.000000
# 5 0.000000 0.000000 0.000000 0.000000 -0.050256 0.000000
# 6 0.000000 0.000000 0.000000 0.000000 0.000000 0.032506
#
#
# Mechanical properties :
#
#
# Convention : Reuss Voigt Hill
#
# Bulk Modulus (GPa) = 18.65007 56.00762 37.32885
# Shear Modulus (GPa) = 21.44134 19.86388 20.65261
#
# Velocity S-wave (km/s) = 3.15950 3.04106 3.10085
# Velocity P-wave (km/s) = 4.68965 6.19727 5.49541
#
# Compressibility (1/GPa) = 0.05361910
#
# Stress axis : x y z
#
# Youngs Moduli (GPa) = 152.89672 45.48848 17.18064
#
# Poissons Ratio (x) = 0.08674 0.19668
# Poissons Ratio (y) = 0.29154 0.05499
# Poissons Ratio (z) = 1.75030 0.14559
#
# Static dielectric constant tensor:
#      x y z
#    x 1.878490 0.000000 0.000000 
#    y 0.000000 1.831050 0.000000 
#    z 0.000000 0.000000 1.768180 
# 
# From -- ./inp_files/13551.got.cif
#   From: 2010.05.17/outbox.cif.g08.bks.cpg/sg67_7_cif.got.tgz:13551.got - 2010.06.03 18:28:57.
