data_PCOD9503888
_publ_section_title
;
Structure prediction by ZEFSAII (Michael W. Deem and Ramdas Pophale) SiO2 
 PCOD9503888
Probable space group: C M M A
;
_chemical_formula_sum "Si O2"
_cell_formula_units_Z 112
_cell_length_a 16.002962
_cell_length_b 22.743408
_cell_length_c 14.782560
_cell_angle_alpha 90.000000
_cell_angle_beta 90.000000
_cell_angle_gamma 90.000000
_cell_volume 5380.288535
_symmetry_space_group_name_H-M "C M M A"
_symmetry_group_IT_number 67
_symmetry_cell_setting 'orthorhombic'
loop_
_space_group_symop_operation_xyz
x,y,z
-x,1/2-y,z
x,-y,-z
-x,1/2+y,-z
-x,-y,-z
x,1/2+y,-z
-x,y,z
x,1/2-y,z
1/2+x,1/2+y,z
1/2-x,-y,z
1/2+x,1/2-y,-z
1/2-x,y,-z
1/2-x,1/2-y,-z
1/2+x,y,-z
1/2-x,1/2+y,z
1/2+x,-y,z
loop_
_atom_site_type_symbol
_atom_site_label
_atom_site_fract_x
_atom_site_fract_y
_atom_site_fract_z
Si Si1 0.594378 0.179765 0.871980
Si Si2 0.405821 0.057532 0.447892
Si Si3 0.405714 0.344123 0.083695
Si Si4 0.094863 0.015110 0.904205
Si Si5 0.232697 0.342682 0.774940
Si Si6 0.671674 0.028665 0.272593
Si Si7 0.822591 0.186082 0.573820
O O1 0.500000 0.157111 0.850115
O O2 0.590753 0.250000 0.865556
O O3 0.672614 0.161635 0.810150
O O4 0.611622 0.164931 0.977408
O O5 0.500000 0.063738 0.481864
O O6 0.401642 0.039279 0.342565
O O7 0.366962 0.123292 0.447210
O O8 0.369217 0.000000 0.500000
O O9 0.500000 0.321221 0.102575
O O10 0.409774 0.414349 0.099423
O O11 0.333098 0.320044 0.148927
O O12 0.142598 0.993832 0.815830
O O13 0.000000 0.991439 0.904155
O O14 0.135200 0.000000 0.000000
O O15 0.207804 0.410079 0.761374
O O16 0.214800 0.316449 0.675698
O O17 0.750000 0.000000 0.322184
O O18 0.868827 0.250000 0.567016
O O19 0.750000 0.188214 0.500000
#
# Coordination Sequence:
#
# PCOD9503888 Si02
#       7
#    16  16  16  16  16  16  16
#     4  10  21  37  57  83 118 160 206 255 304 365
#     4  10  23  42  67  95 125 162 204 255 317 382
#     4   9  19  35  55  84 120 155 200 255 307 364
#     4   9  18  33  52  75 114 160 197 244 298 350
#     4  10  21  37  60  87 119 162 205 253 316 374
#     4  10  22  35  56  88 118 153 202 253 299 366
#     4  10  23  42  66  95 127 162 207 261 318 380
#
# _framework density 20.816727
#
# number of rings (size 3 to 8) (size 9 to 14) (size 15 to 20)
#    0.000    2.286    0.000    1.286    6.000    5.714 
#    0.000    1.429    0.000    0.857    0.000    0.000 
#    0.000    0.000    0.000    0.000    0.000    0.000 
#
# Total GULP energy -311864.211391 kJ/mol
# GULP energy per Si atom -5569.003775 kJ/mol
# Density = 2.076935 g / cm^3
# Si number density = 20.816727 Si / 1000 Ang^3
#
#
#
# Elastic Constant Matrix: (Units=GPa)
#
#
# Indices 1 2 3 4 5 6 
#
# 1 92.8801 39.6032 50.9619 0.0000 0.0000 0.0000
# 2 39.6032 97.3438 39.6055 0.0000 0.0000 0.0000
# 3 50.9619 39.6055 86.9044 0.0000 0.0000 0.0000
# 4 0.0000 0.0000 0.0000 51.2812 0.0000 0.0000
# 5 0.0000 0.0000 0.0000 0.0000 -394.5402 0.0000
# 6 0.0000 0.0000 0.0000 0.0000 0.0000 36.3423
#
#
#
# Elastic Compliance Matrix: (Units=1/GPa)
#
#
# Indices 1 2 3 4 5 6 
#
# 1 0.016775 -0.003465 -0.008258 0.000000 0.000000 0.000000
# 2 -0.003465 0.013327 -0.004042 0.000000 0.000000 0.000000
# 3 -0.008258 -0.004042 0.018191 0.000000 0.000000 0.000000
# 4 0.000000 0.000000 0.000000 0.019500 0.000000 0.000000
# 5 0.000000 0.000000 0.000000 0.000000 -0.002535 0.000000
# 6 0.000000 0.000000 0.000000 0.000000 0.000000 0.027516
#
#
# Mechanical properties :
#
#
# Convention : Reuss Voigt Hill
#
# Bulk Modulus (GPa) = 59.65092 59.71882 59.68487
# Shear Modulus (GPa) = 38.49336 -51.58617 -6.54640
#
# Velocity S-wave (km/s) = 4.30485 -4.98346 -1.77528
# Velocity P-wave (km/s) = 7.30934 2.08879 4.95295
#
# Compressibility (1/GPa) = 0.01676420
#
# Stress axis : x y z
#
# Youngs Moduli (GPa) = 59.61256 75.03605 54.97082
#
# Poissons Ratio (x) = 0.25999 0.45395
# Poissons Ratio (y) = 0.20655 0.22218
# Poissons Ratio (z) = 0.49228 0.30328
#
# Static dielectric constant tensor:
#      x y z
#    x 1.773210 0.000000 0.000000 
#    y 0.000000 1.807220 0.000000 
#    z 0.000000 0.000000 1.747170 
# 
# From -- ./inp_files/27492.got.cif
#   From: 2010.05.17/outbox.cif.g08.bks.cpg/sg67_14_cif.got.tgz:27492.got - 2010.06.03 18:28:57.
