data_PCOD9503300
_publ_section_title
;
Structure prediction by ZEFSAII (Michael W. Deem and Ramdas Pophale) SiO2 
 PCOD9503300
Probable space group: C M M A
;
_chemical_formula_sum "Si O2"
_cell_formula_units_Z 96
_cell_length_a 17.118093
_cell_length_b 31.149828
_cell_length_c 9.813227
_cell_angle_alpha 90.000000
_cell_angle_beta 90.000000
_cell_angle_gamma 90.000000
_cell_volume 5232.664372
_symmetry_space_group_name_H-M "C M M A"
_symmetry_group_IT_number 67
_symmetry_cell_setting 'orthorhombic'
loop_
_space_group_symop_operation_xyz
x,y,z
-x,1/2-y,z
x,-y,-z
-x,1/2+y,-z
-x,-y,-z
x,1/2+y,-z
-x,y,z
x,1/2-y,z
1/2+x,1/2+y,z
1/2-x,-y,z
1/2+x,1/2-y,-z
1/2-x,y,-z
1/2-x,1/2-y,-z
1/2+x,y,-z
1/2-x,1/2+y,z
1/2+x,-y,z
loop_
_atom_site_type_symbol
_atom_site_label
_atom_site_fract_x
_atom_site_fract_y
_atom_site_fract_z
Si Si1 0.413791 0.003751 0.663166
Si Si2 0.093880 0.798707 0.238422
Si Si3 0.341089 0.141932 0.470410
Si Si4 0.814551 0.071563 0.750633
Si Si5 0.907960 0.125048 0.960311
Si Si6 0.132444 0.597569 0.741508
O O1 0.500000 0.985825 0.699890
O O2 0.410529 0.052946 0.709979
O O3 0.405818 0.000000 0.500000
O O4 0.343404 0.976639 0.727828
O O5 0.122507 0.750000 0.222823
O O6 0.123919 0.820656 0.377345
O O7 0.114925 0.829965 0.112119
O O8 0.000000 0.797782 0.243985
O O9 0.250000 0.150663 0.500000
O O10 0.346823 0.099173 0.377392
O O11 0.378130 0.129861 0.614849
O O12 0.856142 0.089606 0.884511
O O13 0.723252 0.082749 0.752292
O O14 0.000000 0.118313 0.933202
O O15 0.892946 0.120393 0.119956
#
# Coordination Sequence:
#
# PCOD9503300 Si02
#       6
#    16  16  16  16  16  16
#     4  11  22  34  53  82 115 148 188 232 274 319
#     4   9  19  37  60  82 108 146 184 219 274 347
#     4   9  19  34  56  82 111 143 180 227 272 327
#     4  10  20  37  56  76 109 154 190 221 271 332
#     4  10  21  37  56  80 111 145 185 232 280 329
#     4  11  21  35  56  83 112 146 188 235 277 318
#
# _framework density 18.346294
#
# number of rings (size 3 to 8) (size 9 to 14) (size 15 to 20)
#    0.000    2.000    1.667    2.000    0.000    3.667 
#    0.000    4.167    0.000   15.000    0.000    0.000 
#    0.000    0.000    0.000    0.000    0.000    0.000 
#
# Total GULP energy -267769.282122 kJ/mol
# GULP energy per Si atom -5578.526711 kJ/mol
# Density = 1.830454 g / cm^3
# Si number density = 18.346294 Si / 1000 Ang^3
#
#
#
# Elastic Constant Matrix: (Units=GPa)
#
#
# Indices 1 2 3 4 5 6 
#
# 1 39.2212 16.2011 13.4594 0.0000 0.0000 0.0000
# 2 16.2011 109.2439 47.2392 0.0000 0.0000 0.0000
# 3 13.4594 47.2392 123.1617 0.0000 0.0000 0.0000
# 4 0.0000 0.0000 0.0000 14.2379 0.0000 0.0000
# 5 0.0000 0.0000 0.0000 0.0000 24.6608 0.0000
# 6 0.0000 0.0000 0.0000 0.0000 0.0000 15.2635
#
#
#
# Elastic Compliance Matrix: (Units=1/GPa)
#
#
# Indices 1 2 3 4 5 6 
#
# 1 0.027463 -0.003327 -0.001725 0.000000 0.000000 0.000000
# 2 -0.003327 0.011377 -0.004000 0.000000 0.000000 0.000000
# 3 -0.001725 -0.004000 0.009842 0.000000 0.000000 0.000000
# 4 0.000000 0.000000 0.000000 0.070235 0.000000 0.000000
# 5 0.000000 0.000000 0.000000 0.000000 0.040550 0.000000
# 6 0.000000 0.000000 0.000000 0.000000 0.000000 0.065516
#
#
# Mechanical properties :
#
#
# Convention : Reuss Voigt Hill
#
# Bulk Modulus (GPa) = 32.70365 47.26958 39.98661
# Shear Modulus (GPa) = 19.74104 23.81424 21.77764
#
# Velocity S-wave (km/s) = 3.28384 3.60674 3.44907
# Velocity P-wave (km/s) = 5.67825 6.57008 6.14038
#
# Compressibility (1/GPa) = 0.03057763
#
# Stress axis : x y z
#
# Youngs Moduli (GPa) = 36.41314 87.89727 101.60329
#
# Poissons Ratio (x) = 0.29241 0.17529
# Poissons Ratio (y) = 0.12114 0.40642
# Poissons Ratio (z) = 0.06282 0.35160
#
# Static dielectric constant tensor:
#      x y z
#    x 1.649650 0.000000 0.000000 
#    y 0.000000 1.616730 0.000000 
#    z 0.000000 0.000000 1.632480 
# 
# From -- ./inp_files/11484.got.cif
#   From: 2010.05.17/outbox.cif.g08.bks.cpg/sg67_6_cif.got.tgz:11484.got - 2010.06.03 18:28:57.
