data_PCOD9503060
_publ_section_title
;
Structure prediction by ZEFSAII (Michael W. Deem and Ramdas Pophale) SiO2 
 PCOD9503060
Probable space group: C M M A
;
_chemical_formula_sum "Si O2"
_cell_formula_units_Z 52
_cell_length_a 9.961991
_cell_length_b 13.903267
_cell_length_c 17.327946
_cell_angle_alpha 90.000000
_cell_angle_beta 90.000000
_cell_angle_gamma 90.000000
_cell_volume 2399.993657
_symmetry_space_group_name_H-M "C M M A"
_symmetry_group_IT_number 67
_symmetry_cell_setting 'orthorhombic'
loop_
_space_group_symop_operation_xyz
x,y,z
-x,1/2-y,z
x,-y,-z
-x,1/2+y,-z
-x,-y,-z
x,1/2+y,-z
-x,y,z
x,1/2-y,z
1/2+x,1/2+y,z
1/2-x,-y,z
1/2+x,1/2-y,-z
1/2-x,y,-z
1/2-x,1/2-y,-z
1/2+x,y,-z
1/2-x,1/2+y,z
1/2+x,-y,z
loop_
_atom_site_type_symbol
_atom_site_label
_atom_site_fract_x
_atom_site_fract_y
_atom_site_fract_z
Si Si1 0.774268 0.390854 0.701460
Si Si2 0.500000 0.074079 0.175442
Si Si3 0.000000 0.866431 0.995864
Si Si4 0.000000 0.648025 0.780132
Si Si5 0.647414 0.750000 0.569352
Si Si6 0.250000 0.000000 0.000000
O O1 0.750000 0.500000 0.679860
O O2 0.632005 0.351495 0.728168
O O3 0.833764 0.337727 0.628368
O O4 0.872398 0.389709 0.775540
O O5 0.500000 0.112209 0.088643
O O6 0.500000 0.957177 0.180040
O O7 0.000000 0.750000 0.987318
O O8 0.137685 0.922117 0.967283
O O9 0.000000 0.750000 0.825249
O O10 0.500000 0.750000 0.535375
O O11 0.750000 0.750000 0.500000
#
# Coordination Sequence:
#
# PCOD9503060 Si02
#       6
#    16   8   8   8   8   4
#     4  10  22  41  62  90 128 159 214 278 330 390
#     4  10  23  41  64 102 129 170 221 276 335 403
#     4  11  25  46  77 102 147 195 234 288 358 411
#     4  10  20  35  63  94 131 159 201 281 339 386
#     4  12  26  42  62  86 124 172 216 263 336 412
#     4  10  26  50  68 108 152 186 244 282 336 460
#
# _framework density 21.666725
#
# number of rings (size 3 to 8) (size 9 to 14) (size 15 to 20)
#    0.000    1.538    3.077    0.462   10.769    0.615 
#    0.000    4.615    0.000    0.000    0.000    0.000 
#    0.000    0.000    0.000    0.000    0.000    0.000 
#
# Total GULP energy -144961.588784 kJ/mol
# GULP energy per Si atom -5575.445722 kJ/mol
# Density = 2.161741 g / cm^3
# Si number density = 21.666725 Si / 1000 Ang^3
#
#
#
# Elastic Constant Matrix: (Units=GPa)
#
#
# Indices 1 2 3 4 5 6 
#
# 1 201.6594 45.8640 45.1902 0.0000 0.0000 0.0000
# 2 45.8640 168.1964 28.1643 0.0000 0.0000 0.0000
# 3 45.1902 28.1643 111.2955 0.0000 0.0000 0.0000
# 4 0.0000 0.0000 0.0000 1.6762 0.0000 0.0000
# 5 0.0000 0.0000 0.0000 0.0000 0.7109 0.0000
# 6 0.0000 0.0000 0.0000 0.0000 0.0000 58.0400
#
#
#
# Elastic Compliance Matrix: (Units=1/GPa)
#
#
# Indices 1 2 3 4 5 6 
#
# 1 0.005683 -0.001215 -0.002000 0.000000 0.000000 0.000000
# 2 -0.001215 0.006468 -0.001144 0.000000 0.000000 0.000000
# 3 -0.002000 -0.001144 0.010087 0.000000 0.000000 0.000000
# 4 0.000000 0.000000 0.000000 0.596600 0.000000 0.000000
# 5 0.000000 0.000000 0.000000 0.000000 1.406673 0.000000
# 6 0.000000 0.000000 0.000000 0.000000 0.000000 0.017229
#
#
# Mechanical properties :
#
#
# Convention : Reuss Voigt Hill
#
# Bulk Modulus (GPa) = 73.95928 79.95425 76.95676
# Shear Modulus (GPa) = 2.43195 36.21426 19.32310
#
# Velocity S-wave (km/s) = 1.06060 4.09274 2.98960
# Velocity P-wave (km/s) = 5.97569 7.70169 6.89293
#
# Compressibility (1/GPa) = 0.01352095
#
# Stress axis : x y z
#
# Youngs Moduli (GPa) = 175.95143 154.60307 99.14083
#
# Poissons Ratio (x) = 0.18781 0.19831
# Poissons Ratio (y) = 0.21375 0.11337
# Poissons Ratio (z) = 0.35195 0.17680
#
# Static dielectric constant tensor:
#      x y z
#    x 1.786560 0.000000 0.000000 
#    y 0.000000 1.898290 0.000000 
#    z 0.000000 0.000000 1.729160 
# 
# From -- ./inp_files/36508.got.cif
#   From: 2010.05.17/outbox.cif.g08.bks.cpg/sg67_19_cif.got.tgz:36508.got - 2010.06.03 18:28:57.
