data_PCOD9503825
_publ_section_title
;
Structure prediction by ZEFSAII (Michael W. Deem and Ramdas Pophale) SiO2 
 PCOD9503825
Probable space group: C M M A
;
_chemical_formula_sum "Si O2"
_cell_formula_units_Z 104
_cell_length_a 8.754464
_cell_length_b 31.053157
_cell_length_c 23.853793
_cell_angle_alpha 90.000000
_cell_angle_beta 90.000000
_cell_angle_gamma 90.000000
_cell_volume 6484.742961
_symmetry_space_group_name_H-M "C M M A"
_symmetry_group_IT_number 67
_symmetry_cell_setting 'orthorhombic'
loop_
_space_group_symop_operation_xyz
x,y,z
-x,1/2-y,z
x,-y,-z
-x,1/2+y,-z
-x,-y,-z
x,1/2+y,-z
-x,y,z
x,1/2-y,z
1/2+x,1/2+y,z
1/2-x,-y,z
1/2+x,1/2-y,-z
1/2-x,y,-z
1/2-x,1/2-y,-z
1/2+x,y,-z
1/2-x,1/2+y,z
1/2+x,-y,z
loop_
_atom_site_type_symbol
_atom_site_label
_atom_site_fract_x
_atom_site_fract_y
_atom_site_fract_z
Si Si1 0.817096 0.163460 0.389021
Si Si2 0.317285 0.750000 0.561705
Si Si3 0.685948 0.699563 0.182365
Si Si4 0.818656 0.926751 0.559119
Si Si5 0.182381 0.867518 0.272056
Si Si6 0.674147 0.197769 0.942711
Si Si7 0.815691 0.954108 0.684601
O O1 0.748604 0.207703 0.409578
O O2 0.788185 0.124231 0.432022
O O3 0.736068 0.152120 0.331117
O O4 0.000000 0.165856 0.380844
O O5 0.500000 0.750000 0.561674
O O6 0.250000 0.750000 0.500000
O O7 0.500000 0.698192 0.183257
O O8 0.727405 0.750000 0.194528
O O9 0.751744 0.664520 0.224922
O O10 0.739470 0.688374 0.118921
O O11 0.750000 0.941755 0.500000
O O12 0.766793 0.946649 0.618943
O O13 0.000000 0.933274 0.556093
O O14 0.252066 0.915629 0.276666
O O15 0.000000 0.869645 0.267987
O O16 0.500000 0.182847 0.942918
O O17 0.673241 0.250000 0.945093
O O18 0.750000 0.182179 0.000000
O O19 0.000000 0.952950 0.685569
O O20 0.750000 0.000000 0.702193
#
# Coordination Sequence:
#
# PCOD9503825 Si02
#       7
#    16   8  16  16  16  16  16
#     4  10  21  37  52  67  91 126 161 201 250 294
#     4  12  24  36  50  70  92 120 161 204 245 296
#     4   9  18  32  49  70 101 142 179 210 249 295
#     4   9  19  33  51  72  94 119 149 186 235 294
#     4  11  22  35  52  75 101 129 165 209 252 298
#     4   8  14  25  42  65  95 133 174 211 248 288
#     4  10  21  38  56  75  98 126 160 198 249 306
#
# _framework density 16.037645000000001
#
# number of rings (size 3 to 8) (size 9 to 14) (size 15 to 20)
#    0.000    2.308    0.000    5.308    1.077    6.154 
#    0.000    3.077    0.000    0.000    0.000    0.000 
#    0.000    0.615    0.000    6.462    0.000    3.846 
#
# Total GULP energy -289821.570364 kJ/mol
# GULP energy per Si atom -5573.491738 kJ/mol
# Density = 1.600114 g / cm^3
# Si number density = 16.037645 Si / 1000 Ang^3
#
#
#
# Elastic Constant Matrix: (Units=GPa)
#
#
# Indices 1 2 3 4 5 6 
#
# 1 61.1623 39.1835 35.5148 0.0000 0.0000 0.0000
# 2 39.1835 109.7993 48.7698 0.0000 0.0000 0.0000
# 3 35.5148 48.7698 103.7561 0.0000 0.0000 0.0000
# 4 0.0000 0.0000 0.0000 5.8091 0.0000 0.0000
# 5 0.0000 0.0000 0.0000 0.0000 24.4732 0.0000
# 6 0.0000 0.0000 0.0000 0.0000 0.0000 21.6250
#
#
#
# Elastic Compliance Matrix: (Units=1/GPa)
#
#
# Indices 1 2 3 4 5 6 
#
# 1 0.023157 -0.005995 -0.005109 0.000000 0.000000 0.000000
# 2 -0.005995 0.013063 -0.004088 0.000000 0.000000 0.000000
# 3 -0.005109 -0.004088 0.013308 0.000000 0.000000 0.000000
# 4 0.000000 0.000000 0.000000 0.172144 0.000000 0.000000
# 5 0.000000 0.000000 0.000000 0.000000 0.040861 0.000000
# 6 0.000000 0.000000 0.000000 0.000000 0.000000 0.046243
#
#
# Mechanical properties :
#
#
# Convention : Reuss Voigt Hill
#
# Bulk Modulus (GPa) = 52.23334 57.96155 55.09745
# Shear Modulus (GPa) = 14.47009 20.46476 17.46743
#
# Velocity S-wave (km/s) = 3.00702 3.57605 3.30381
# Velocity P-wave (km/s) = 6.68552 7.29865 6.99880
#
# Compressibility (1/GPa) = 0.01914486
#
# Stress axis : x y z
#
# Youngs Moduli (GPa) = 43.18370 76.55413 75.14185
#
# Poissons Ratio (x) = 0.45893 0.38387
# Poissons Ratio (y) = 0.25888 0.30718
# Poissons Ratio (z) = 0.22061 0.31296
#
# Static dielectric constant tensor:
#      x y z
#    x 1.540680 0.000000 0.000000 
#    y 0.000000 1.511530 0.000000 
#    z 0.000000 0.000000 1.537130 
# 
# From -- ./inp_files/41167.got.cif
#   From: 2010.05.17/outbox.cif.g08.bks.cpg/sg67_21_cif.got.tgz:41167.got - 2010.06.03 18:28:57.
