data_PCOD9503908
_publ_section_title
;
Structure prediction by ZEFSAII (Michael W. Deem and Ramdas Pophale) SiO2 
 PCOD9503908
Probable space group: C M M A
;
_chemical_formula_sum "Si O2"
_cell_formula_units_Z 116
_cell_length_a 28.433593
_cell_length_b 14.994215
_cell_length_c 12.190370
_cell_angle_alpha 90.000000
_cell_angle_beta 90.000000
_cell_angle_gamma 90.000000
_cell_volume 5197.235113
_symmetry_space_group_name_H-M "C M M A"
_symmetry_group_IT_number 67
_symmetry_cell_setting 'orthorhombic'
loop_
_space_group_symop_operation_xyz
x,y,z
-x,1/2-y,z
x,-y,-z
-x,1/2+y,-z
-x,-y,-z
x,1/2+y,-z
-x,y,z
x,1/2-y,z
1/2+x,1/2+y,z
1/2-x,-y,z
1/2+x,1/2-y,-z
1/2-x,y,-z
1/2-x,1/2-y,-z
1/2+x,y,-z
1/2-x,1/2+y,z
1/2+x,-y,z
loop_
_atom_site_type_symbol
_atom_site_label
_atom_site_fract_x
_atom_site_fract_y
_atom_site_fract_z
Si Si1 0.678854 0.146369 0.843903
Si Si2 0.848473 0.643899 0.610167
Si Si3 0.578130 0.104154 0.267431
Si Si4 0.677735 0.357470 0.379410
Si Si5 0.876269 0.905002 0.044002
Si Si6 0.719290 0.858431 0.843752
Si Si7 0.000000 0.250000 0.676450
Si Si8 0.051657 0.437509 0.392221
O O1 0.689034 0.250000 0.823811
O O2 0.665732 0.104046 0.727588
O O3 0.729484 0.112753 0.884244
O O4 0.637171 0.144381 0.931776
O O5 0.841235 0.750000 0.613752
O O6 0.820416 0.609159 0.504128
O O7 0.903929 0.626333 0.596782
O O8 0.627739 0.112477 0.330007
O O9 0.588726 0.126442 0.139478
O O10 0.541018 0.172398 0.316789
O O11 0.559880 0.004260 0.289887
O O12 0.676335 0.250000 0.384915
O O13 0.716569 0.376388 0.287204
O O14 0.825224 0.907197 0.103394
O O15 0.892113 0.000000 0.000000
O O16 0.711712 0.750000 0.862672
O O17 0.052115 0.500000 0.500000
O O18 0.000000 0.394612 0.385669
#
# Coordination Sequence:
#
# PCOD9503908 Si02
#       8
#    16  16  16  16  16  16   4  16
#     4  10  21  37  58  85 119 161 206 248 301 363
#     4  10  21  37  59  85 124 167 203 242 302 385
#     4  11  22  39  63  92 119 152 195 261 305 360
#     4   9  17  33  56  88 121 151 196 248 305 359
#     4  11  23  38  61  84 121 159 200 252 306 360
#     4   9  19  35  59  89 117 153 205 262 302 350
#     4  12  24  40  68 100 118 146 212 258 304 360
#     4  11  22  38  59  88 121 152 193 251 315 367
#
# _framework density 22.319559999999999
#
# number of rings (size 3 to 8) (size 9 to 14) (size 15 to 20)
#    0.000    1.793    2.759    1.655    1.931    3.034 
#    0.000    3.103    1.517    0.000    0.000    0.000 
#    0.000    0.000    0.000    0.000    0.000    0.000 
#
# Total GULP energy -323185.274767 kJ/mol
# GULP energy per Si atom -5572.159910 kJ/mol
# Density = 2.226876 g / cm^3
# Si number density = 22.319560 Si / 1000 Ang^3
#
#
#
# Elastic Constant Matrix: (Units=GPa)
#
#
# Indices 1 2 3 4 5 6 
#
# 1 39.9914 -11.7490 6.1061 0.0000 0.0000 0.0000
# 2 -11.7490 28.4005 -6.4737 0.0000 0.0000 0.0000
# 3 6.1061 -6.4737 116.0586 0.0000 0.0000 0.0000
# 4 0.0000 0.0000 0.0000 10.4179 0.0000 0.0000
# 5 0.0000 0.0000 0.0000 0.0000 -17.3151 0.0000
# 6 0.0000 0.0000 0.0000 0.0000 0.0000 25.7797
#
#
#
# Elastic Compliance Matrix: (Units=1/GPa)
#
#
# Indices 1 2 3 4 5 6 
#
# 1 0.028548 0.011615 -0.000854 0.000000 0.000000 0.000000
# 2 0.011615 0.040390 0.001642 0.000000 0.000000 0.000000
# 3 -0.000854 0.001642 0.008753 0.000000 0.000000 0.000000
# 4 0.000000 0.000000 0.000000 0.095989 0.000000 0.000000
# 5 0.000000 0.000000 0.000000 0.000000 -0.057753 0.000000
# 6 0.000000 0.000000 0.000000 0.000000 0.000000 0.038790
#
#
# Mechanical properties :
#
#
# Convention : Reuss Voigt Hill
#
# Bulk Modulus (GPa) = 9.75636 17.80195 13.77915
# Shear Modulus (GPa) = 30.47364 16.88099 23.67732
#
# Velocity S-wave (km/s) = 3.69905 2.75313 3.26058
# Velocity P-wave (km/s) = 4.75654 4.25436 4.51244
#
# Compressibility (1/GPa) = 0.10249726
#
# Stress axis : x y z
#
# Youngs Moduli (GPa) = 35.02845 24.75862 114.24845
#
# Poissons Ratio (x) = -0.28758 0.09758
# Poissons Ratio (y) = -0.40687 -0.18757
# Poissons Ratio (z) = 0.02992 -0.04065
#
# Static dielectric constant tensor:
#      x y z
#    x 1.794050 0.000000 0.000000 
#    y 0.000000 1.896580 0.000000 
#    z 0.000000 0.000000 1.916820 
# 
# From -- ./inp_files/23945.got.cif
#   From: 2010.05.17/outbox.cif.g08.bks.cpg/sg67_12_cif.got.tgz:23945.got - 2010.06.03 18:28:57.
