data_PCOD9503392
_publ_section_title
;
Structure prediction by ZEFSAII (Michael W. Deem and Ramdas Pophale) SiO2 
 PCOD9503392
Probable space group: C M M A
;
_chemical_formula_sum "Si O2"
_cell_formula_units_Z 96
_cell_length_a 18.086153
_cell_length_b 24.020006
_cell_length_c 12.391509
_cell_angle_alpha 90.000000
_cell_angle_beta 90.000000
_cell_angle_gamma 90.000000
_cell_volume 5383.237103
_symmetry_space_group_name_H-M "C M M A"
_symmetry_group_IT_number 67
_symmetry_cell_setting 'orthorhombic'
loop_
_space_group_symop_operation_xyz
x,y,z
-x,1/2-y,z
x,-y,-z
-x,1/2+y,-z
-x,-y,-z
x,1/2+y,-z
-x,y,z
x,1/2-y,z
1/2+x,1/2+y,z
1/2-x,-y,z
1/2+x,1/2-y,-z
1/2-x,y,-z
1/2-x,1/2-y,-z
1/2+x,y,-z
1/2-x,1/2+y,z
1/2+x,-y,z
loop_
_atom_site_type_symbol
_atom_site_label
_atom_site_fract_x
_atom_site_fract_y
_atom_site_fract_z
Si Si1 0.412774 0.686593 0.631875
Si Si2 0.839572 0.812949 0.990199
Si Si3 0.152573 0.109382 0.811260
Si Si4 0.088031 0.493579 0.126349
Si Si5 0.177709 0.314521 0.424555
Si Si6 0.826772 0.113263 0.210576
O O1 0.500000 0.679863 0.647158
O O2 0.391649 0.750000 0.663097
O O3 0.369010 0.643663 0.705458
O O4 0.390270 0.680456 0.507301
O O5 0.867434 0.750000 0.998961
O O6 0.854807 0.841270 0.875918
O O7 0.750000 0.810897 0.000000
O O8 0.867637 0.852310 0.085919
O O9 0.240654 0.100465 0.813676
O O10 0.110754 0.051278 0.818226
O O11 0.127642 0.442503 0.186431
O O12 0.000000 0.485534 0.128150
O O13 0.111348 0.500000 0.000000
O O14 0.182207 0.250000 0.384898
O O15 0.250000 0.323574 0.500000
O O16 0.171097 0.358114 0.327783
#
# Coordination Sequence:
#
# PCOD9503392 Si02
#       6
#    16  16  16  16  16  16
#     4  10  21  37  60  90 123 159 196 240 301 368
#     4   9  18  30  52  89 122 145 181 239 303 359
#     4  11  20  36  61  87 116 152 200 249 298 357
#     4  11  24  41  59  82 119 164 203 246 304 366
#     4  10  20  37  62  91 123 158 198 245 303 362
#     4  11  21  36  62  89 117 155 201 250 300 359
#
# _framework density 17.833134999999999
#
# number of rings (size 3 to 8) (size 9 to 14) (size 15 to 20)
#    0.000    1.667    3.333    2.000    0.000    2.667 
#    0.000    0.833    0.000    4.500    0.000    0.000 
#    0.000    0.000    0.000    0.000    0.000    0.000 
#
# Total GULP energy -267938.288805 kJ/mol
# GULP energy per Si atom -5582.047683 kJ/mol
# Density = 1.779255 g / cm^3
# Si number density = 17.833135 Si / 1000 Ang^3
#
#
#
# Elastic Constant Matrix: (Units=GPa)
#
#
# Indices 1 2 3 4 5 6 
#
# 1 51.4688 41.7602 21.1189 0.0000 0.0000 0.0000
# 2 41.7602 151.2560 67.9924 0.0000 0.0000 0.0000
# 3 21.1189 67.9924 91.9827 0.0000 0.0000 0.0000
# 4 0.0000 0.0000 0.0000 26.2724 0.0000 0.0000
# 5 0.0000 0.0000 0.0000 0.0000 20.8617 0.0000
# 6 0.0000 0.0000 0.0000 0.0000 0.0000 13.6071
#
#
#
# Elastic Compliance Matrix: (Units=1/GPa)
#
#
# Indices 1 2 3 4 5 6 
#
# 1 0.025094 -0.006497 -0.000959 0.000000 0.000000 0.000000
# 2 -0.006497 0.011584 -0.007071 0.000000 0.000000 0.000000
# 3 -0.000959 -0.007071 0.016318 0.000000 0.000000 0.000000
# 4 0.000000 0.000000 0.000000 0.038063 0.000000 0.000000
# 5 0.000000 0.000000 0.000000 0.000000 0.047935 0.000000
# 6 0.000000 0.000000 0.000000 0.000000 0.000000 0.073491
#
#
# Mechanical properties :
#
#
# Convention : Reuss Voigt Hill
#
# Bulk Modulus (GPa) = 41.76651 61.82782 51.79716
# Shear Modulus (GPa) = 20.03854 23.07064 21.55459
#
# Velocity S-wave (km/s) = 3.35575 3.60070 3.48038
# Velocity P-wave (km/s) = 6.20374 7.21333 6.72750
#
# Compressibility (1/GPa) = 0.02394263
#
# Stress axis : x y z
#
# Youngs Moduli (GPa) = 39.84956 86.32946 61.28086
#
# Poissons Ratio (x) = 0.56091 0.05876
# Poissons Ratio (y) = 0.25891 0.43330
# Poissons Ratio (z) = 0.03821 0.61041
#
# Static dielectric constant tensor:
#      x y z
#    x 1.610090 0.000000 0.000000 
#    y 0.000000 1.596060 0.000000 
#    z 0.000000 0.000000 1.601510 
# 
# From -- ./inp_files/19608.got.cif
#   From: 2010.05.17/outbox.cif.g08.bks.cpg/sg67_10_cif.got.tgz:19608.got - 2010.06.03 18:28:57.
