data_PCOD9503849
_publ_section_title
;
Structure prediction by ZEFSAII (Michael W. Deem and Ramdas Pophale) SiO2 
 PCOD9503849
Probable space group: C M M A
;
_chemical_formula_sum "Si O2"
_cell_formula_units_Z 104
_cell_length_a 18.629248
_cell_length_b 15.758376
_cell_length_c 19.004605
_cell_angle_alpha 90.000000
_cell_angle_beta 90.000000
_cell_angle_gamma 90.000000
_cell_volume 5579.119072
_symmetry_space_group_name_H-M "C M M A"
_symmetry_group_IT_number 67
_symmetry_cell_setting 'orthorhombic'
loop_
_space_group_symop_operation_xyz
x,y,z
-x,1/2-y,z
x,-y,-z
-x,1/2+y,-z
-x,-y,-z
x,1/2+y,-z
-x,y,z
x,1/2-y,z
1/2+x,1/2+y,z
1/2-x,-y,z
1/2+x,1/2-y,-z
1/2-x,y,-z
1/2-x,1/2-y,-z
1/2+x,y,-z
1/2-x,1/2+y,z
1/2+x,-y,z
loop_
_atom_site_type_symbol
_atom_site_label
_atom_site_fract_x
_atom_site_fract_y
_atom_site_fract_z
Si Si1 0.917929 0.750000 0.174201
Si Si2 0.828475 0.844692 0.965596
Si Si3 0.290593 0.090085 0.676980
Si Si4 0.086264 0.750000 0.445815
Si Si5 0.175466 0.052339 0.170116
Si Si6 0.833552 0.402931 0.477709
Si Si7 0.316232 0.250000 0.308017
Si Si8 0.082874 0.921709 0.085015
O O1 0.859027 0.750000 0.234980
O O2 0.909581 0.667418 0.126057
O O3 0.000000 0.750000 0.202608
O O4 0.858534 0.750000 0.970986
O O5 0.820332 0.871133 0.884899
O O6 0.750000 0.846441 0.000000
O O7 0.876043 0.908092 0.011697
O O8 0.334118 0.080935 0.749678
O O9 0.335677 0.105441 0.606587
O O10 0.233474 0.166318 0.685700
O O11 0.250000 0.000000 0.666033
O O12 0.116256 0.833595 0.485675
O O13 0.125353 0.750000 0.370197
O O14 0.000000 0.750000 0.441361
O O15 0.250000 0.000000 0.167978
O O16 0.116310 0.990872 0.137010
O O17 0.850119 0.500000 0.500000
O O18 0.750000 0.386953 0.500000
O O19 0.000000 0.939089 0.072185
#
# Coordination Sequence:
#
# PCOD9503849 Si02
#       8
#     8  16  16   8  16  16   8  16
#     4  10  21  37  55  83 121 158 195 246 308 374
#     4  11  23  37  59  87 120 157 202 257 304 362
#     4  11  22  37  63  95 124 159 211 265 314 377
#     4  12  25  40  62  98 135 173 215 262 326 393
#     4  11  23  38  58  92 123 153 205 258 313 371
#     4  11  20  41  67  94 125 167 221 271 313 379
#     4  12  22  36  63  91 130 167 204 261 318 375
#     4  11  23  41  62  85 120 164 207 255 317 374
#
# _framework density 18.640934999999999
#
# number of rings (size 3 to 8) (size 9 to 14) (size 15 to 20)
#    0.000    0.923    5.385    3.231    1.077    1.538 
#    0.000    0.769    0.000    0.000    0.000    0.000 
#    0.000    0.000    0.000    0.000    0.000    0.000 
#
# Total GULP energy -290603.042292 kJ/mol
# GULP energy per Si atom -5588.520044 kJ/mol
# Density = 1.859851 g / cm^3
# Si number density = 18.640935 Si / 1000 Ang^3
#
#
#
# Elastic Constant Matrix: (Units=GPa)
#
#
# Indices 1 2 3 4 5 6 
#
# 1 62.4590 35.4599 34.0834 0.0000 0.0000 0.0000
# 2 35.4599 106.4601 24.1375 0.0000 0.0000 0.0000
# 3 34.0834 24.1375 142.4402 0.0000 0.0000 0.0000
# 4 0.0000 0.0000 0.0000 85.5444 0.0000 0.0000
# 5 0.0000 0.0000 0.0000 0.0000 13.0462 0.0000
# 6 0.0000 0.0000 0.0000 0.0000 0.0000 17.7112
#
#
#
# Elastic Compliance Matrix: (Units=1/GPa)
#
#
# Indices 1 2 3 4 5 6 
#
# 1 0.021884 -0.006346 -0.004161 0.000000 0.000000 0.000000
# 2 -0.006346 0.011609 -0.000449 0.000000 0.000000 0.000000
# 3 -0.004161 -0.000449 0.008092 0.000000 0.000000 0.000000
# 4 0.000000 0.000000 0.000000 0.011690 0.000000 0.000000
# 5 0.000000 0.000000 0.000000 0.000000 0.076651 0.000000
# 6 0.000000 0.000000 0.000000 0.000000 0.000000 0.056462
#
#
# Mechanical properties :
#
#
# Convention : Reuss Voigt Hill
#
# Bulk Modulus (GPa) = 50.82961 55.41344 53.12153
# Shear Modulus (GPa) = 23.27146 37.77226 30.52186
#
# Velocity S-wave (km/s) = 3.53711 4.50634 4.05082
# Velocity P-wave (km/s) = 6.63389 7.54105 7.10197
#
# Compressibility (1/GPa) = 0.01967357
#
# Stress axis : x y z
#
# Youngs Moduli (GPa) = 45.69594 86.14340 123.57569
#
# Poissons Ratio (x) = 0.54664 0.51421
# Poissons Ratio (y) = 0.28997 0.05545
# Poissons Ratio (z) = 0.19014 0.03866
#
# Static dielectric constant tensor:
#      x y z
#    x 1.610830 0.000000 0.000000 
#    y 0.000000 1.664470 0.000000 
#    z 0.000000 0.000000 1.646670 
# 
# From -- ./inp_files/35040.got.cif
#   From: 2010.05.17/outbox.cif.g08.bks.cpg/sg67_18_cif.got.tgz:35040.got - 2010.06.03 18:28:57.
