data_PCOD9503341
_publ_section_title
;
Structure prediction by ZEFSAII (Michael W. Deem and Ramdas Pophale) SiO2 
 PCOD9503341
Probable space group: C M M A
;
_chemical_formula_sum "Si O2"
_cell_formula_units_Z 112
_cell_length_a 15.088786
_cell_length_b 16.207185
_cell_length_c 23.590566
_cell_angle_alpha 90.000000
_cell_angle_beta 90.000000
_cell_angle_gamma 90.000000
_cell_volume 5768.996155
_symmetry_space_group_name_H-M "C M M A"
_symmetry_group_IT_number 67
_symmetry_cell_setting 'orthorhombic'
loop_
_space_group_symop_operation_xyz
x,y,z
-x,1/2-y,z
x,-y,-z
-x,1/2+y,-z
-x,-y,-z
x,1/2+y,-z
-x,y,z
x,1/2-y,z
1/2+x,1/2+y,z
1/2-x,-y,z
1/2+x,1/2-y,-z
1/2-x,y,-z
1/2-x,1/2-y,-z
1/2+x,y,-z
1/2-x,1/2+y,z
1/2+x,-y,z
loop_
_atom_site_type_symbol
_atom_site_label
_atom_site_fract_x
_atom_site_fract_y
_atom_site_fract_z
Si Si1 0.894086 0.844919 0.139102
Si Si2 0.606089 0.153922 0.852167
Si Si3 0.607375 0.003663 0.935528
Si Si4 0.244484 0.899468 0.231621
Si Si5 0.235303 0.094974 0.641341
Si Si6 0.404038 0.843491 0.424426
Si Si7 0.103806 0.080154 0.538177
O O1 0.876042 0.750000 0.120967
O O2 0.869948 0.917510 0.095085
O O3 0.836502 0.866414 0.193972
O O4 0.000000 0.850972 0.149533
O O5 0.500000 0.144365 0.841803
O O6 0.620624 0.250000 0.869345
O O7 0.665371 0.134851 0.796912
O O8 0.633334 0.084746 0.898991
O O9 0.500000 0.007420 0.937475
O O10 0.639979 0.000000 0.000000
O O11 0.228615 0.868286 0.295917
O O12 0.250000 0.000000 0.228004
O O13 0.324137 0.120769 0.609936
O O14 0.157479 0.099382 0.594817
O O15 0.250000 0.000000 0.653464
O O16 0.500000 0.884948 0.414802
O O17 0.410821 0.750000 0.407054
O O18 0.386319 0.848975 0.491403
O O19 0.000000 0.070217 0.551145
O O20 0.132690 0.000000 0.500000
#
# Coordination Sequence:
#
# PCOD9503341 Si02
#       7
#    16  16  16  16  16  16  16
#     4  10  21  39  62  86 119 163 202 240 294 358
#     4  10  21  39  63  89 121 162 204 249 303 358
#     4   9  18  35  61  93 125 156 197 249 301 354
#     4  11  23  39  59  85 119 157 200 250 296 350
#     4  11  23  36  59  89 114 151 198 241 290 347
#     4  10  22  39  59  86 119 152 187 235 296 354
#     4  10  20  37  60  85 117 152 189 236 292 359
#
# _framework density 19.414121999999999
#
# number of rings (size 3 to 8) (size 9 to 14) (size 15 to 20)
#    0.000    1.857    2.857    0.857    0.000    4.000 
#    0.000    8.571    0.000    3.429    0.000    0.000 
#    0.000    0.000    0.000    0.000    0.000    0.000 
#
# Total GULP energy -312102.936996 kJ/mol
# GULP energy per Si atom -5573.266732 kJ/mol
# Density = 1.936993 g / cm^3
# Si number density = 19.414122 Si / 1000 Ang^3
#
#
#
# Elastic Constant Matrix: (Units=GPa)
#
#
# Indices 1 2 3 4 5 6 
#
# 1 87.9626 45.2804 81.3645 0.0000 0.0000 0.0000
# 2 45.2804 120.8912 55.9881 0.0000 0.0000 0.0000
# 3 81.3645 55.9881 175.4378 0.0000 0.0000 0.0000
# 4 0.0000 0.0000 0.0000 15.7434 0.0000 0.0000
# 5 0.0000 0.0000 0.0000 0.0000 3.5729 0.0000
# 6 0.0000 0.0000 0.0000 0.0000 0.0000 23.9054
#
#
#
# Elastic Compliance Matrix: (Units=1/GPa)
#
#
# Indices 1 2 3 4 5 6 
#
# 1 0.021456 -0.004022 -0.008667 0.000000 0.000000 0.000000
# 2 -0.004022 0.010461 -0.001473 0.000000 0.000000 0.000000
# 3 -0.008667 -0.001473 0.010190 0.000000 0.000000 0.000000
# 4 0.000000 0.000000 0.000000 0.063519 0.000000 0.000000
# 5 0.000000 0.000000 0.000000 0.000000 0.279886 0.000000
# 6 0.000000 0.000000 0.000000 0.000000 0.000000 0.041832
#
#
# Mechanical properties :
#
#
# Convention : Reuss Voigt Hill
#
# Bulk Modulus (GPa) = 72.56086 83.28420 77.92253
# Shear Modulus (GPa) = 10.86338 22.08824 16.47581
#
# Velocity S-wave (km/s) = 2.36807 3.37670 2.91632
# Velocity P-wave (km/s) = 6.70324 7.62855 7.18081
#
# Compressibility (1/GPa) = 0.01378153
#
# Stress axis : x y z
#
# Youngs Moduli (GPa) = 46.60646 95.59646 98.13788
#
# Poissons Ratio (x) = 0.38454 0.85059
# Poissons Ratio (y) = 0.18747 0.14454
# Poissons Ratio (z) = 0.40395 0.14079
#
# Static dielectric constant tensor:
#      x y z
#    x 1.649230 0.000000 0.000000 
#    y 0.000000 1.715520 0.000000 
#    z 0.000000 0.000000 1.691600 
# 
# From -- ./inp_files/41989.got.cif
#   From: 2010.05.17/outbox.cif.g08.bks.cpg/sg67_21_cif.got.tgz:41989.got - 2010.06.03 18:28:57.
