data_PCOD9503917
_publ_section_title
;
Structure prediction by ZEFSAII (Michael W. Deem and Ramdas Pophale) SiO2 
 PCOD9503917
Probable space group: C M M A
;
_chemical_formula_sum "Si O2"
_cell_formula_units_Z 64
_cell_length_a 18.027351
_cell_length_b 9.880347
_cell_length_c 18.671249
_cell_angle_alpha 90.000000
_cell_angle_beta 90.000000
_cell_angle_gamma 90.000000
_cell_volume 3325.657212
_symmetry_space_group_name_H-M "C M M A"
_symmetry_group_IT_number 67
_symmetry_cell_setting 'orthorhombic'
loop_
_space_group_symop_operation_xyz
x,y,z
-x,1/2-y,z
x,-y,-z
-x,1/2+y,-z
-x,-y,-z
x,1/2+y,-z
-x,y,z
x,1/2-y,z
1/2+x,1/2+y,z
1/2-x,-y,z
1/2+x,1/2-y,-z
1/2-x,y,-z
1/2-x,1/2-y,-z
1/2+x,y,-z
1/2-x,1/2+y,z
1/2+x,-y,z
loop_
_atom_site_type_symbol
_atom_site_label
_atom_site_fract_x
_atom_site_fract_y
_atom_site_fract_z
Si Si1 0.163970 0.977297 0.840433
Si Si2 0.088969 0.599391 0.693584
Si Si3 0.412354 0.250000 0.106278
Si Si4 0.830324 0.250000 0.039396
Si Si5 0.409445 0.093939 0.433451
O O1 0.124573 0.117565 0.859677
O O2 0.250000 0.000000 0.823730
O O3 0.124680 0.915284 0.771266
O O4 0.161738 0.879197 0.909178
O O5 0.105001 0.750000 0.664047
O O6 0.113663 0.482097 0.639319
O O7 0.000000 0.588928 0.700835
O O8 0.500000 0.250000 0.117403
O O9 0.391269 0.250000 0.022544
O O10 0.750000 0.250000 0.000000
O O11 0.500000 0.095768 0.434030
O O12 0.384917 0.250000 0.437929
O O13 0.386318 0.000000 0.500000
#
# Coordination Sequence:
#
# PCOD9503917 Si02
#       5
#    16  16   8   8  16
#     4  12  24  43  67  90 127 172 215 266 331 405
#     4  10  21  37  58  88 125 162 211 268 319 379
#     4  12  28  42  66 100 129 161 217 283 334 390
#     4  12  24  46  68  92 123 171 222 271 334 403
#     4   9  17  31  55  87 125 168 210 259 319 381
#
# _framework density 19.244316000000001
#
# number of rings (size 3 to 8) (size 9 to 14) (size 15 to 20)
#    0.000    1.250    3.750    2.250    1.750    6.000 
#    0.000    0.000    0.000    0.750    0.000    3.500 
#    0.000    0.000    0.000    0.000    0.000    0.000 
#
# Total GULP energy -178819.479032 kJ/mol
# GULP energy per Si atom -5588.108720 kJ/mol
# Density = 1.920052 g / cm^3
# Si number density = 19.244316 Si / 1000 Ang^3
#
#
#
# Elastic Constant Matrix: (Units=GPa)
#
#
# Indices 1 2 3 4 5 6 
#
# 1 65.4046 55.9909 27.8005 0.0000 0.0000 0.0000
# 2 55.9909 182.6832 68.3347 0.0000 0.0000 0.0000
# 3 27.8005 68.3347 109.4514 0.0000 0.0000 0.0000
# 4 0.0000 0.0000 0.0000 57.1090 0.0000 0.0000
# 5 0.0000 0.0000 0.0000 0.0000 50.4931 0.0000
# 6 0.0000 0.0000 0.0000 0.0000 0.0000 16.6878
#
#
#
# Elastic Compliance Matrix: (Units=1/GPa)
#
#
# Indices 1 2 3 4 5 6 
#
# 1 0.020972 -0.005786 -0.001714 0.000000 0.000000 0.000000
# 2 -0.005786 0.008738 -0.003986 0.000000 0.000000 0.000000
# 3 -0.001714 -0.003986 0.012060 0.000000 0.000000 0.000000
# 4 0.000000 0.000000 0.000000 0.017510 0.000000 0.000000
# 5 0.000000 0.000000 0.000000 0.000000 0.019805 0.000000
# 6 0.000000 0.000000 0.000000 0.000000 0.000000 0.059924
#
#
# Mechanical properties :
#
#
# Convention : Reuss Voigt Hill
#
# Bulk Modulus (GPa) = 53.19858 73.53239 63.36548
# Shear Modulus (GPa) = 29.71792 38.55219 34.13505
#
# Velocity S-wave (km/s) = 3.93395 4.48068 4.21619
# Velocity P-wave (km/s) = 6.95258 8.06607 7.52994
#
# Compressibility (1/GPa) = 0.01879749
#
# Stress axis : x y z
#
# Youngs Moduli (GPa) = 47.68348 114.43655 82.91562
#
# Poissons Ratio (x) = 0.66218 0.14212
# Poissons Ratio (y) = 0.27592 0.33050
# Poissons Ratio (z) = 0.08173 0.45614
#
# Static dielectric constant tensor:
#      x y z
#    x 1.639570 0.000000 0.000000 
#    y 0.000000 1.685430 0.000000 
#    z 0.000000 0.000000 1.647720 
# 
# From -- ./inp_files/31781.got.cif
#   From: 2010.05.17/outbox.cif.g08.bks.cpg/sg67_16_cif.got.tgz:31781.got - 2010.06.03 18:28:57.
