data_PCOD9503680
_publ_section_title
;
Structure prediction by ZEFSAII (Michael W. Deem and Ramdas Pophale) SiO2 
 PCOD9503680
Probable space group: C M M A
;
_chemical_formula_sum "Si O2"
_cell_formula_units_Z 64
_cell_length_a 14.134325
_cell_length_b 25.457485
_cell_length_c 10.082499
_cell_angle_alpha 90.000000
_cell_angle_beta 90.000000
_cell_angle_gamma 90.000000
_cell_volume 3627.928817
_symmetry_space_group_name_H-M "C M M A"
_symmetry_group_IT_number 67
_symmetry_cell_setting 'orthorhombic'
loop_
_space_group_symop_operation_xyz
x,y,z
-x,1/2-y,z
x,-y,-z
-x,1/2+y,-z
-x,-y,-z
x,1/2+y,-z
-x,y,z
x,1/2-y,z
1/2+x,1/2+y,z
1/2-x,-y,z
1/2+x,1/2-y,-z
1/2-x,y,-z
1/2-x,1/2-y,-z
1/2+x,y,-z
1/2-x,1/2+y,z
1/2+x,-y,z
loop_
_atom_site_type_symbol
_atom_site_label
_atom_site_fract_x
_atom_site_fract_y
_atom_site_fract_z
Si Si1 0.159103 0.250000 0.593827
Si Si2 0.500000 0.922211 0.760323
Si Si3 0.361833 0.993538 0.342618
Si Si4 0.000000 0.400637 0.274904
Si Si5 0.500000 0.158692 0.002788
Si Si6 0.500000 0.834215 0.537045
Si Si7 0.603214 0.750000 0.875412
O O1 0.250000 0.250000 0.500000
O O2 0.093797 0.200082 0.559819
O O3 0.176097 0.250000 0.754421
O O4 0.500000 0.880749 0.642074
O O5 0.411121 0.960247 0.739981
O O6 0.500000 0.888440 0.892657
O O7 0.409423 0.939373 0.293165
O O8 0.384835 0.000000 0.500000
O O9 0.250000 0.000000 0.329049
O O10 0.000000 0.367779 0.139714
O O11 0.000000 0.359183 0.392943
O O12 0.589396 0.197874 0.035151
O O13 0.500000 0.750000 0.800561
#
# Coordination Sequence:
#
# PCOD9503680 Si02
#       7
#     8   8  16   8   8   8   8
#     4  11  21  34  61  93 113 145 200 248 285 338
#     4  11  17  37  63  76 109 165 187 234 293 357
#     4  10  21  35  56  88 119 145 192 255 295 334
#     4  11  21  37  57  91 111 157 198 235 290 358
#     4   9  19  35  63  78 116 160 188 225 300 347
#     4  11  19  37  57  85 118 142 202 245 271 347
#     4   8  16  37  57  83 115 150 188 230 290 345
#
# _framework density 17.640919
#
# number of rings (size 3 to 8) (size 9 to 14) (size 15 to 20)
#    0.750    1.000    6.250    0.750    0.000    6.000 
#    0.000    2.500    0.000    1.500    0.000    0.000 
#    0.000    0.000    0.000    0.000    0.000    0.000 
#
# Total GULP energy -178191.749395 kJ/mol
# GULP energy per Si atom -5568.492169 kJ/mol
# Density = 1.760077 g / cm^3
# Si number density = 17.640919 Si / 1000 Ang^3
#
#
#
# Elastic Constant Matrix: (Units=GPa)
#
#
# Indices 1 2 3 4 5 6 
#
# 1 85.1137 30.8737 31.8934 0.0000 0.0000 0.0000
# 2 30.8737 126.3541 75.8756 0.0000 0.0000 0.0000
# 3 31.8934 75.8756 132.3360 0.0000 0.0000 0.0000
# 4 0.0000 0.0000 0.0000 32.6139 0.0000 0.0000
# 5 0.0000 0.0000 0.0000 0.0000 -2.4282 0.0000
# 6 0.0000 0.0000 0.0000 0.0000 0.0000 8.8422
#
#
#
# Elastic Compliance Matrix: (Units=1/GPa)
#
#
# Indices 1 2 3 4 5 6 
#
# 1 0.013242 -0.002012 -0.002038 0.000000 0.000000 0.000000
# 2 -0.002012 0.012376 -0.006611 0.000000 0.000000 0.000000
# 3 -0.002038 -0.006611 0.011838 0.000000 0.000000 0.000000
# 4 0.000000 0.000000 0.000000 0.030662 0.000000 0.000000
# 5 0.000000 0.000000 0.000000 0.000000 -0.411827 0.000000
# 6 0.000000 0.000000 0.000000 0.000000 0.000000 0.113094
#
#
# Mechanical properties :
#
#
# Convention : Reuss Voigt Hill
#
# Bulk Modulus (GPa) = 61.97769 69.00991 65.49380
# Shear Modulus (GPa) = -24.51994 21.48299 -1.51847
#
# Velocity S-wave (km/s) = -3.73224 3.49348 -0.92878
# Velocity P-wave (km/s) = 4.07877 7.44826 6.00471
#
# Compressibility (1/GPa) = 0.01613484
#
# Stress axis : x y z
#
# Youngs Moduli (GPa) = 75.51487 80.80403 84.47390
#
# Poissons Ratio (x) = 0.16257 0.17215
# Poissons Ratio (y) = 0.15193 0.55844
# Poissons Ratio (z) = 0.15389 0.53418
#
# Static dielectric constant tensor:
#      x y z
#    x 1.631990 0.000000 0.000000 
#    y 0.000000 1.603540 0.000000 
#    z 0.000000 0.000000 1.401000 
# 
# From -- ./inp_files/8112.got.cif
#   From: 2010.05.17/outbox.cif.g08.bks.cpg/sg67_5_cif.got.tgz:8112.got - 2010.06.03 18:28:57.
