data_PCOD9503629
_publ_section_title
;
Structure prediction by ZEFSAII (Michael W. Deem and Ramdas Pophale) SiO2 
 PCOD9503629
Probable space group: C M M A
;
_chemical_formula_sum "Si O2"
_cell_formula_units_Z 96
_cell_length_a 25.915033
_cell_length_b 16.087798
_cell_length_c 12.086221
_cell_angle_alpha 90.000000
_cell_angle_beta 90.000000
_cell_angle_gamma 90.000000
_cell_volume 5038.936691
_symmetry_space_group_name_H-M "C M M A"
_symmetry_group_IT_number 67
_symmetry_cell_setting 'orthorhombic'
loop_
_space_group_symop_operation_xyz
x,y,z
-x,1/2-y,z
x,-y,-z
-x,1/2+y,-z
-x,-y,-z
x,1/2+y,-z
-x,y,z
x,1/2-y,z
1/2+x,1/2+y,z
1/2-x,-y,z
1/2+x,1/2-y,-z
1/2-x,y,-z
1/2-x,1/2-y,-z
1/2+x,y,-z
1/2-x,1/2+y,z
1/2+x,-y,z
loop_
_atom_site_type_symbol
_atom_site_label
_atom_site_fract_x
_atom_site_fract_y
_atom_site_fract_z
Si Si1 0.942818 0.655696 0.224871
Si Si2 0.846257 0.917563 0.925238
Si Si3 0.581915 0.004389 0.626784
Si Si4 0.441419 0.847241 0.208035
Si Si5 0.805974 0.505182 0.286542
Si Si6 0.330857 0.341428 0.138042
O O1 0.939984 0.750000 0.274072
O O2 0.936333 0.578980 0.309216
O O3 0.893659 0.650548 0.144517
O O4 0.000000 0.648469 0.173738
O O5 0.898659 0.877383 0.879335
O O6 0.813535 0.942155 0.817245
O O7 0.817043 0.859500 0.011704
O O8 0.856506 0.000000 0.000000
O O9 0.644242 0.005463 0.637282
O O10 0.565798 0.000000 0.500000
O O11 0.563237 0.087135 0.690669
O O12 0.500000 0.853156 0.164933
O O13 0.432320 0.750000 0.237885
O O14 0.750000 0.500000 0.339521
O O15 0.810096 0.593247 0.224929
O O16 0.316000 0.250000 0.171757
#
# Coordination Sequence:
#
# PCOD9503629 Si02
#       6
#    16  16  16  16  16  16
#     4   9  18  32  51  76 104 132 164 205 249 292
#     4   9  18  31  50  75 103 137 170 202 239 288
#     4  10  21  36  54  74  96 127 169 215 260 308
#     4  10  21  35  50  74 110 145 173 204 247 299
#     4   9  19  36  52  69  96 126 160 207 258 302
#     4   9  17  30  49  74 102 130 163 199 236 285
#
# _framework density 19.051638000000001
#
# number of rings (size 3 to 8) (size 9 to 14) (size 15 to 20)
#    0.000    2.667    0.000    2.000    0.000    6.333 
#    0.000    8.333    0.000    0.000    0.000    9.333 
#    0.000    0.000    0.000    0.000    0.000    0.000 
#
# Total GULP energy -267433.077125 kJ/mol
# GULP energy per Si atom -5571.522440 kJ/mol
# Density = 1.900828 g / cm^3
# Si number density = 19.051638 Si / 1000 Ang^3
#
#
#
# Elastic Constant Matrix: (Units=GPa)
#
#
# Indices 1 2 3 4 5 6 
#
# 1 91.1699 22.6091 -14.3108 0.0000 0.0000 0.0000
# 2 22.6091 79.9961 11.3225 0.0000 0.0000 0.0000
# 3 -14.3108 11.3225 47.1744 0.0000 0.0000 0.0000
# 4 0.0000 0.0000 0.0000 4.1945 0.0000 0.0000
# 5 0.0000 0.0000 0.0000 0.0000 -3.1093 0.0000
# 6 0.0000 0.0000 0.0000 0.0000 0.0000 -2.6347
#
#
#
# Elastic Compliance Matrix: (Units=1/GPa)
#
#
# Indices 1 2 3 4 5 6 
#
# 1 0.012812 -0.004318 0.004923 0.000000 0.000000 0.000000
# 2 -0.004318 0.014395 -0.004765 0.000000 0.000000 0.000000
# 3 0.004923 -0.004765 0.023835 0.000000 0.000000 0.000000
# 4 0.000000 0.000000 0.000000 0.238408 0.000000 0.000000
# 5 0.000000 0.000000 0.000000 0.000000 -0.321614 0.000000
# 6 0.000000 0.000000 0.000000 0.000000 0.000000 -0.379544
#
#
# Mechanical properties :
#
#
# Convention : Reuss Voigt Hill
#
# Bulk Modulus (GPa) = 23.40663 28.62021 26.01342
# Shear Modulus (GPa) = -12.84862 12.93806 0.04472
#
# Velocity S-wave (km/s) = -2.59976 2.60879 0.15338
# Velocity P-wave (km/s) = 1.81684 4.91217 3.70340
#
# Compressibility (1/GPa) = 0.04272295
#
# Stress axis : x y z
#
# Youngs Moduli (GPa) = 78.05146 69.46680 41.95503
#
# Poissons Ratio (x) = 0.29995 -0.20655
# Poissons Ratio (y) = 0.33701 0.19991
# Poissons Ratio (z) = -0.38425 0.33100
#
# Static dielectric constant tensor:
#      x y z
#    x 1.689090 0.000000 0.000000 
#    y 0.000000 1.690440 0.000000 
#    z 0.000000 0.000000 1.621640 
# 
# From -- ./inp_files/21909.got.cif
#   From: 2010.05.17/outbox.cif.g08.bks.cpg/sg67_11_cif.got.tgz:21909.got - 2010.06.03 18:28:57.
