data_PCOD9503519
_publ_section_title
;
Structure prediction by ZEFSAII (Michael W. Deem and Ramdas Pophale) SiO2 
 PCOD9503519
Probable space group: C M M A
;
_chemical_formula_sum "Si O2"
_cell_formula_units_Z 68
_cell_length_a 21.155034
_cell_length_b 32.083129
_cell_length_c 4.985843
_cell_angle_alpha 90.000000
_cell_angle_beta 90.000000
_cell_angle_gamma 90.000000
_cell_volume 3383.989790
_symmetry_space_group_name_H-M "C M M A"
_symmetry_group_IT_number 67
_symmetry_cell_setting 'orthorhombic'
loop_
_space_group_symop_operation_xyz
x,y,z
-x,1/2-y,z
x,-y,-z
-x,1/2+y,-z
-x,-y,-z
x,1/2+y,-z
-x,y,z
x,1/2-y,z
1/2+x,1/2+y,z
1/2-x,-y,z
1/2+x,1/2-y,-z
1/2-x,y,-z
1/2-x,1/2-y,-z
1/2+x,y,-z
1/2-x,1/2+y,z
1/2+x,-y,z
loop_
_atom_site_type_symbol
_atom_site_label
_atom_site_fract_x
_atom_site_fract_y
_atom_site_fract_z
Si Si1 0.143133 0.850032 0.099038
Si Si2 0.572887 0.080542 0.825675
Si Si3 0.750000 0.000000 0.500000
Si Si4 0.323058 0.798346 0.410907
Si Si5 0.846873 0.435668 0.711287
O O1 0.135987 0.822683 0.365608
O O2 0.181742 0.891403 0.189070
O O3 0.083708 0.873406 0.958076
O O4 0.172277 0.821221 0.872410
O O5 0.500000 0.073077 0.768429
O O6 0.615817 0.074240 0.563583
O O7 0.602310 0.052394 0.061877
O O8 0.794724 0.029879 0.671078
O O9 0.341610 0.750000 0.390623
O O10 0.250000 0.800125 0.500000
#
# Coordination Sequence:
#
# PCOD9503519 Si02
#       5
#    16  16   4  16  16
#     4  10  20  39  60  90 118 169 208 254 322 362
#     4  10  21  43  67  93 118 168 225 256 311 377
#     4  12  28  46  62 102 142 150 220 252 336 382
#     4  11  22  35  58  92 130 166 209 259 308 381
#     4  10  24  40  66  94 124 177 194 274 317 383
#
# _framework density 20.094624
#
# number of rings (size 3 to 8) (size 9 to 14) (size 15 to 20)
#    1.412    0.235    2.353    2.118    1.647    6.588 
#    0.000    3.529    0.000    4.235    0.000    0.000 
#    0.000    0.000    0.000    0.000    0.000    0.000 
#
# Total GULP energy -189535.538095 kJ/mol
# GULP energy per Si atom -5574.574650 kJ/mol
# Density = 2.004889 g / cm^3
# Si number density = 20.094624 Si / 1000 Ang^3
#
#
#
# Elastic Constant Matrix: (Units=GPa)
#
#
# Indices 1 2 3 4 5 6 
#
# 1 81.4968 49.6147 38.7173 0.0000 0.0000 0.0000
# 2 49.6147 145.3849 58.3829 0.0000 0.0000 0.0000
# 3 38.7173 58.3829 150.5933 0.0000 0.0000 0.0000
# 4 0.0000 0.0000 0.0000 49.2487 0.0000 0.0000
# 5 0.0000 0.0000 0.0000 0.0000 10.1575 0.0000
# 6 0.0000 0.0000 0.0000 0.0000 0.0000 10.2778
#
#
#
# Elastic Compliance Matrix: (Units=1/GPa)
#
#
# Indices 1 2 3 4 5 6 
#
# 1 0.016185 -0.004563 -0.002392 0.000000 0.000000 0.000000
# 2 -0.004563 0.009433 -0.002484 0.000000 0.000000 0.000000
# 3 -0.002392 -0.002484 0.008218 0.000000 0.000000 0.000000
# 4 0.000000 0.000000 0.000000 0.020305 0.000000 0.000000
# 5 0.000000 0.000000 0.000000 0.000000 0.098450 0.000000
# 6 0.000000 0.000000 0.000000 0.000000 0.000000 0.097297
#
#
# Mechanical properties :
#
#
# Convention : Reuss Voigt Hill
#
# Bulk Modulus (GPa) = 66.85205 74.54499 70.69852
# Shear Modulus (GPa) = 18.26474 29.32079 23.79277
#
# Velocity S-wave (km/s) = 3.01813 3.82401 3.44472
# Velocity P-wave (km/s) = 6.74435 7.52827 7.14707
#
# Compressibility (1/GPa) = 0.01495840
#
# Stress axis : x y z
#
# Youngs Moduli (GPa) = 61.78731 106.01275 121.67797
#
# Poissons Ratio (x) = 0.48369 0.29107
# Poissons Ratio (y) = 0.28191 0.30224
# Poissons Ratio (z) = 0.14781 0.26333
#
# Static dielectric constant tensor:
#      x y z
#    x 1.769010 0.000000 0.000000 
#    y 0.000000 1.737120 0.000000 
#    z 0.000000 0.000000 1.723540 
# 
# From -- ./inp_files/3006.got.cif
#   From: 2010.05.17/outbox.cif.g08.bks.cpg/sg67_2_cif.got.tgz:3006.got - 2010.06.03 18:28:57.
