data_PCOD9503185
_publ_section_title
;
Structure prediction by ZEFSAII (Michael W. Deem and Ramdas Pophale) SiO2 
 PCOD9503185
Probable space group: C M M A
;
_chemical_formula_sum "Si O2"
_cell_formula_units_Z 72
_cell_length_a 16.230484
_cell_length_b 7.681503
_cell_length_c 26.219649
_cell_angle_alpha 90.000000
_cell_angle_beta 90.000000
_cell_angle_gamma 90.000000
_cell_volume 3268.921932
_symmetry_space_group_name_H-M "C M M A"
_symmetry_group_IT_number 67
_symmetry_cell_setting 'orthorhombic'
loop_
_space_group_symop_operation_xyz
x,y,z
-x,1/2-y,z
x,-y,-z
-x,1/2+y,-z
-x,-y,-z
x,1/2+y,-z
-x,y,z
x,1/2-y,z
1/2+x,1/2+y,z
1/2-x,-y,z
1/2+x,1/2-y,-z
1/2-x,y,-z
1/2-x,1/2-y,-z
1/2+x,y,-z
1/2-x,1/2+y,z
1/2+x,-y,z
loop_
_atom_site_type_symbol
_atom_site_label
_atom_site_fract_x
_atom_site_fract_y
_atom_site_fract_z
Si Si1 0.500000 0.959499 0.059523
Si Si2 0.840438 0.541061 0.879362
Si Si3 0.847141 0.540318 0.664896
Si Si4 0.594230 0.961681 0.225936
Si Si5 0.847697 0.044552 0.444634
O O1 0.500000 0.750000 0.064996
O O2 0.416967 0.024472 0.087151
O O3 0.500000 0.000000 0.000000
O O4 0.847491 0.750000 0.877452
O O5 0.750000 0.500000 0.899606
O O6 0.850367 0.475887 0.821008
O O7 0.858445 0.750000 0.665127
O O8 0.750000 0.500000 0.666393
O O9 0.884706 0.472563 0.717570
O O10 0.879221 0.473176 0.609809
O O11 0.500000 0.002612 0.213199
O O12 0.600970 0.750000 0.227970
O O13 0.854158 0.250000 0.441151
O O14 0.883836 0.000000 0.500000
O O15 0.750000 0.000000 0.446245
#
# Coordination Sequence:
#
# PCOD9503185 Si02
#       5
#     8  16  16  16  16
#     4  10  22  40  60  84 116 152 187 222 264 314
#     4  10  20  36  59  85 112 145 184 224 269 319
#     4   9  17  27  43  68  93 119 157 203 252 305
#     4   9  16  30  52  74  99 132 169 211 258 311
#     4   9  15  23  36  57  84 115 152 195 244 298
#
# _framework density 22.025608999999999
#
# number of rings (size 3 to 8) (size 9 to 14) (size 15 to 20)
#    0.000    2.667    1.111    2.000    0.000    2.222 
#    0.000    2.222    0.000    2.667    0.000    0.000 
#    0.000    0.000    0.000    0.000    0.000    6.000 
#
# Total GULP energy -200725.310125 kJ/mol
# GULP energy per Si atom -5575.703059 kJ/mol
# Density = 2.197548 g / cm^3
# Si number density = 22.025609 Si / 1000 Ang^3
#
#
#
# Elastic Constant Matrix: (Units=GPa)
#
#
# Indices 1 2 3 4 5 6 
#
# 1 102.3455 -2.3236 71.7017 0.0000 0.0000 0.0000
# 2 -2.3236 39.2331 11.0839 0.0000 0.0000 0.0000
# 3 71.7017 11.0839 180.7604 0.0000 0.0000 0.0000
# 4 0.0000 0.0000 0.0000 19.2672 0.0000 0.0000
# 5 0.0000 0.0000 0.0000 0.0000 35.6408 0.0000
# 6 0.0000 0.0000 0.0000 0.0000 0.0000 10.9213
#
#
#
# Elastic Compliance Matrix: (Units=1/GPa)
#
#
# Indices 1 2 3 4 5 6 
#
# 1 0.013749 0.002397 -0.005601 0.000000 0.000000 0.000000
# 2 0.002397 0.026356 -0.002567 0.000000 0.000000 0.000000
# 3 -0.005601 -0.002567 0.007911 0.000000 0.000000 0.000000
# 4 0.000000 0.000000 0.000000 0.051902 0.000000 0.000000
# 5 0.000000 0.000000 0.000000 0.000000 0.028058 0.000000
# 6 0.000000 0.000000 0.000000 0.000000 0.000000 0.091565
#
#
# Mechanical properties :
#
#
# Convention : Reuss Voigt Hill
#
# Bulk Modulus (GPa) = 27.41663 53.69587 40.55625
# Shear Modulus (GPa) = 20.55583 29.29098 24.92341
#
# Velocity S-wave (km/s) = 3.05826 3.65068 3.36752
# Velocity P-wave (km/s) = 4.99452 6.49629 5.79426
#
# Compressibility (1/GPa) = 0.03647422
#
# Stress axis : x y z
#
# Youngs Moduli (GPa) = 72.73238 37.94239 126.40309
#
# Poissons Ratio (x) = -0.09093 0.70795
# Poissons Ratio (y) = -0.17431 0.32444
# Poissons Ratio (z) = 0.40736 0.09739
#
# Static dielectric constant tensor:
#      x y z
#    x 1.791570 0.000000 0.000000 
#    y 0.000000 1.838250 0.000000 
#    z 0.000000 0.000000 1.867070 
# 
# From -- ./inp_files/43097.got.cif
#   From: 2010.05.17/outbox.cif.g08.bks.cpg/sg67_22_cif.got.tgz:43097.got - 2010.06.03 18:28:57.
