data_PCOD9503495
_publ_section_title
;
Structure prediction by ZEFSAII (Michael W. Deem and Ramdas Pophale) SiO2 
 PCOD9503495
Probable space group: C M M A
;
_chemical_formula_sum "Si O2"
_cell_formula_units_Z 72
_cell_length_a 7.953994
_cell_length_b 28.199374
_cell_length_c 13.975922
_cell_angle_alpha 90.000000
_cell_angle_beta 90.000000
_cell_angle_gamma 90.000000
_cell_volume 3134.766484
_symmetry_space_group_name_H-M "C M M A"
_symmetry_group_IT_number 67
_symmetry_cell_setting 'orthorhombic'
loop_
_space_group_symop_operation_xyz
x,y,z
-x,1/2-y,z
x,-y,-z
-x,1/2+y,-z
-x,-y,-z
x,1/2+y,-z
-x,y,z
x,1/2-y,z
1/2+x,1/2+y,z
1/2-x,-y,z
1/2+x,1/2-y,-z
1/2-x,y,-z
1/2-x,1/2-y,-z
1/2+x,y,-z
1/2-x,1/2+y,z
1/2+x,-y,z
loop_
_atom_site_type_symbol
_atom_site_label
_atom_site_fract_x
_atom_site_fract_y
_atom_site_fract_z
Si Si1 0.703184 0.904873 0.609777
Si Si2 0.299408 0.852242 0.111222
Si Si3 0.297257 0.199436 0.387190
Si Si4 0.802453 0.049745 0.792996
Si Si5 0.796748 0.250000 0.113432
O O1 0.500000 0.903757 0.612734
O O2 0.750000 0.912883 0.500000
O O3 0.764194 0.852430 0.644032
O O4 0.769331 0.942817 0.685729
O O5 0.500000 0.851874 0.120174
O O6 0.236278 0.901390 0.153917
O O7 0.233947 0.801209 0.151389
O O8 0.250000 0.852423 0.000000
O O9 0.500000 0.199739 0.378679
O O10 0.232049 0.250000 0.347669
O O11 0.250000 0.199841 0.500000
O O12 0.000000 0.046500 0.784618
O O13 0.750000 0.000000 0.838063
O O14 0.000000 0.250000 0.120393
O O15 0.750000 0.250000 0.000000
#
# Coordination Sequence:
#
# PCOD9503495 Si02
#       5
#    16  16  16  16   8
#     4   9  19  35  55  79 108 145 192 242 292 346
#     4  10  20  38  64  93 124 157 191 234 286 347
#     4   8  13  24  44  69  98 131 168 214 269 328
#     4  11  24  41  58  83 116 154 201 250 298 350
#     4   8  16  32  58  90 123 154 187 226 279 342
#
# _framework density 22.968216999999999
#
# number of rings (size 3 to 8) (size 9 to 14) (size 15 to 20)
#    0.000    2.667    0.000    1.333    0.000    3.556 
#    2.000    4.444    0.000    0.000    0.000    0.000 
#    0.000    0.000    0.000    0.000    0.000    0.000 
#
# Total GULP energy -200781.027124 kJ/mol
# GULP energy per Si atom -5577.250753 kJ/mol
# Density = 2.291594 g / cm^3
# Si number density = 22.968217 Si / 1000 Ang^3
#
#
#
# Elastic Constant Matrix: (Units=GPa)
#
#
# Indices 1 2 3 4 5 6 
#
# 1 37.7278 13.3262 -8.8411 0.0000 0.0000 0.0000
# 2 13.3262 204.3665 47.7966 0.0000 0.0000 0.0000
# 3 -8.8411 47.7966 51.4685 0.0000 0.0000 0.0000
# 4 0.0000 0.0000 0.0000 23.9423 0.0000 0.0000
# 5 0.0000 0.0000 0.0000 0.0000 18.1126 0.0000
# 6 0.0000 0.0000 0.0000 0.0000 0.0000 10.7192
#
#
#
# Elastic Compliance Matrix: (Units=1/GPa)
#
#
# Indices 1 2 3 4 5 6 
#
# 1 0.030021 -0.004041 0.008910 0.000000 0.000000 0.000000
# 2 -0.004041 0.006795 -0.007004 0.000000 0.000000 0.000000
# 3 0.008910 -0.007004 0.027464 0.000000 0.000000 0.000000
# 4 0.000000 0.000000 0.000000 0.041767 0.000000 0.000000
# 5 0.000000 0.000000 0.000000 0.000000 0.055210 0.000000
# 6 0.000000 0.000000 0.000000 0.000000 0.000000 0.093290
#
#
# Mechanical properties :
#
#
# Convention : Reuss Voigt Hill
#
# Bulk Modulus (GPa) = 16.66415 44.23625 30.45020
# Shear Modulus (GPa) = 17.93255 26.64021 22.28638
#
# Velocity S-wave (km/s) = 2.79723 3.40939 3.11837
# Velocity P-wave (km/s) = 4.20758 5.89916 5.12366
#
# Compressibility (1/GPa) = 0.06000906
#
# Stress axis : x y z
#
# Youngs Moduli (GPa) = 33.30984 147.17022 36.41064
#
# Poissons Ratio (x) = 0.59478 -0.32442
# Poissons Ratio (y) = 0.13462 0.25503
# Poissons Ratio (z) = -0.29679 1.03083
#
# Static dielectric constant tensor:
#      x y z
#    x 1.789630 0.000000 0.000000 
#    y 0.000000 1.999060 0.000000 
#    z 0.000000 0.000000 1.901770 
# 
# From -- ./inp_files/25070.got.cif
#   From: 2010.05.17/outbox.cif.g08.bks.cpg/sg67_13_cif.got.tgz:25070.got - 2010.06.03 18:28:57.
