data_PCOD9503588
_publ_section_title
;
Structure prediction by ZEFSAII (Michael W. Deem and Ramdas Pophale) SiO2 
 PCOD9503588
Probable space group: C M M A
;
_chemical_formula_sum "Si O2"
_cell_formula_units_Z 68
_cell_length_a 19.531450
_cell_length_b 9.313815
_cell_length_c 18.773801
_cell_angle_alpha 90.000000
_cell_angle_beta 90.000000
_cell_angle_gamma 90.000000
_cell_volume 3415.185545
_symmetry_space_group_name_H-M "C M M A"
_symmetry_group_IT_number 67
_symmetry_cell_setting 'orthorhombic'
loop_
_space_group_symop_operation_xyz
x,y,z
-x,1/2-y,z
x,-y,-z
-x,1/2+y,-z
-x,-y,-z
x,1/2+y,-z
-x,y,z
x,1/2-y,z
1/2+x,1/2+y,z
1/2-x,-y,z
1/2+x,1/2-y,-z
1/2-x,y,-z
1/2-x,1/2-y,-z
1/2+x,y,-z
1/2-x,1/2+y,z
1/2+x,-y,z
loop_
_atom_site_type_symbol
_atom_site_label
_atom_site_fract_x
_atom_site_fract_y
_atom_site_fract_z
Si Si1 0.081935 0.919515 0.574360
Si Si2 0.816155 0.750000 0.048687
Si Si3 0.418042 0.750000 0.079552
Si Si4 0.129700 0.964649 0.156317
Si Si5 0.500000 0.750000 0.837875
Si Si6 0.179174 0.576168 0.315404
O O1 0.101138 0.750000 0.572430
O O2 0.000000 0.926116 0.585343
O O3 0.097130 0.000000 0.500000
O O4 0.120463 0.006717 0.635716
O O5 0.820787 0.614021 0.100324
O O6 0.750000 0.750000 0.000000
O O7 0.883088 0.750000 0.998121
O O8 0.500000 0.750000 0.072004
O O9 0.391440 0.614717 0.123313
O O10 0.163449 0.965031 0.233751
O O11 0.060471 0.872588 0.162135
O O12 0.181507 0.750000 0.321675
O O13 0.250000 0.500000 0.336684
#
# Coordination Sequence:
#
# PCOD9503588 Si02
#       6
#    16   8   8  16   4  16
#     4  10  23  45  75 112 146 183 234 283 342 416
#     4  11  27  48  70  95 132 187 235 292 359 424
#     4  12  27  41  69 102 130 174 227 296 357 416
#     4  11  26  44  70  97 138 177 237 287 355 425
#     4  10  20  48  66  98 128 178 230 290 352 416
#     4  12  27  45  70  99 143 188 230 292 344 417
#
# _framework density 19.911071
#
# number of rings (size 3 to 8) (size 9 to 14) (size 15 to 20)
#    0.000    0.941    3.529    2.118   11.529    3.765 
#    0.000    2.353    0.000    0.000    0.000    0.000 
#    0.000    0.000    0.000    0.000    0.000    0.000 
#
# Total GULP energy -189669.945384 kJ/mol
# GULP energy per Si atom -5578.527805 kJ/mol
# Density = 1.986575 g / cm^3
# Si number density = 19.911071 Si / 1000 Ang^3
#
#
#
# Elastic Constant Matrix: (Units=GPa)
#
#
# Indices 1 2 3 4 5 6 
#
# 1 72.4162 28.0808 50.6622 0.0000 0.0000 0.0000
# 2 28.0808 117.6882 84.0395 0.0000 0.0000 0.0000
# 3 50.6622 84.0395 126.6069 0.0000 0.0000 0.0000
# 4 0.0000 0.0000 0.0000 38.8933 0.0000 0.0000
# 5 0.0000 0.0000 0.0000 0.0000 13.5465 0.0000
# 6 0.0000 0.0000 0.0000 0.0000 0.0000 30.2913
#
#
#
# Elastic Compliance Matrix: (Units=1/GPa)
#
#
# Indices 1 2 3 4 5 6 
#
# 1 0.019362 0.001735 -0.008900 0.000000 0.000000 0.000000
# 2 0.001735 0.016310 -0.011520 0.000000 0.000000 0.000000
# 3 -0.008900 -0.011520 0.019107 0.000000 0.000000 0.000000
# 4 0.000000 0.000000 0.000000 0.025711 0.000000 0.000000
# 5 0.000000 0.000000 0.000000 0.000000 0.073820 0.000000
# 6 0.000000 0.000000 0.000000 0.000000 0.000000 0.033013
#
#
# Mechanical properties :
#
#
# Convention : Reuss Voigt Hill
#
# Bulk Modulus (GPa) = 57.44163 71.36405 64.40284
# Shear Modulus (GPa) = 21.69239 26.80813 24.25026
#
# Velocity S-wave (km/s) = 3.30428 3.67330 3.49367
# Velocity P-wave (km/s) = 6.59314 7.34235 6.97780
#
# Compressibility (1/GPa) = 0.01740898
#
# Stress axis : x y z
#
# Youngs Moduli (GPa) = 51.64630 61.31389 52.33749
#
# Poissons Ratio (x) = -0.10640 0.46579
# Poissons Ratio (y) = -0.08962 0.60295
# Poissons Ratio (z) = 0.45964 0.70636
#
# Static dielectric constant tensor:
#      x y z
#    x 1.694220 0.000000 0.000000 
#    y 0.000000 1.666630 0.000000 
#    z 0.000000 0.000000 1.679460 
# 
# From -- ./inp_files/34729.got.cif
#   From: 2010.05.17/outbox.cif.g08.bks.cpg/sg67_18_cif.got.tgz:34729.got - 2010.06.03 18:28:57.
