data_PCOD9503735
_publ_section_title
;
Structure prediction by ZEFSAII (Michael W. Deem and Ramdas Pophale) SiO2 
 PCOD9503735
Probable space group: C M M A
;
_chemical_formula_sum "Si O2"
_cell_formula_units_Z 72
_cell_length_a 22.294414
_cell_length_b 9.821909
_cell_length_c 18.317386
_cell_angle_alpha 90.000000
_cell_angle_beta 90.000000
_cell_angle_gamma 90.000000
_cell_volume 4011.025888
_symmetry_space_group_name_H-M "C M M A"
_symmetry_group_IT_number 67
_symmetry_cell_setting 'orthorhombic'
loop_
_space_group_symop_operation_xyz
x,y,z
-x,1/2-y,z
x,-y,-z
-x,1/2+y,-z
-x,-y,-z
x,1/2+y,-z
-x,y,z
x,1/2-y,z
1/2+x,1/2+y,z
1/2-x,-y,z
1/2+x,1/2-y,-z
1/2-x,y,-z
1/2-x,1/2-y,-z
1/2+x,y,-z
1/2-x,1/2+y,z
1/2+x,-y,z
loop_
_atom_site_type_symbol
_atom_site_label
_atom_site_fract_x
_atom_site_fract_y
_atom_site_fract_z
Si Si1 0.429161 0.412537 0.927519
Si Si2 0.170271 0.904853 0.433585
Si Si3 0.430285 0.090918 0.634933
Si Si4 0.133054 0.089057 0.218022
Si Si5 0.250000 0.000000 0.693452
O O1 0.500000 0.426840 0.908559
O O2 0.419112 0.250000 0.939917
O O3 0.388406 0.464413 0.860244
O O4 0.417871 0.500000 0.000000
O O5 0.160040 0.750000 0.457155
O O6 0.216355 0.903332 0.365278
O O7 0.190332 0.000000 0.500000
O O8 0.110581 0.982838 0.406657
O O9 0.500000 0.077683 0.617574
O O10 0.412264 0.250000 0.621522
O O11 0.417219 0.063848 0.720346
O O12 0.136223 0.250000 0.208157
O O13 0.196149 0.047612 0.254239
#
# Coordination Sequence:
#
# PCOD9503735 Si02
#       5
#    16  16  16  16   8
#     4   9  17  31  53  80 108 137 169 206 250 301
#     4  11  23  37  55  78 104 136 173 216 265 315
#     4   9  18  34  56  80 105 135 173 217 265 316
#     4   9  17  32  54  77 102 136 176 214 255 306
#     4  10  21  36  55  76 102 132 174 222 263 304
#
# _framework density 17.950520999999998
#
# number of rings (size 3 to 8) (size 9 to 14) (size 15 to 20)
#    0.000    2.444    0.000    2.333    0.000    7.111 
#    0.000    6.111    0.000    8.000    0.000    0.000 
#    0.000    0.000    0.000    0.000    0.000    0.000 
#
# Total GULP energy -200424.022631 kJ/mol
# GULP energy per Si atom -5567.333962 kJ/mol
# Density = 1.790966 g / cm^3
# Si number density = 17.950521 Si / 1000 Ang^3
#
#
#
# Elastic Constant Matrix: (Units=GPa)
#
#
# Indices 1 2 3 4 5 6 
#
# 1 91.5260 45.1145 58.8852 0.0000 0.0000 0.0000
# 2 45.1145 96.1284 54.7522 0.0000 0.0000 0.0000
# 3 58.8852 54.7522 137.5380 0.0000 0.0000 0.0000
# 4 0.0000 0.0000 0.0000 24.4938 0.0000 0.0000
# 5 0.0000 0.0000 0.0000 0.0000 21.7425 0.0000
# 6 0.0000 0.0000 0.0000 0.0000 0.0000 -14.1517
#
#
#
# Elastic Compliance Matrix: (Units=1/GPa)
#
#
# Indices 1 2 3 4 5 6 
#
# 1 0.016668 -0.004860 -0.005201 0.000000 0.000000 0.000000
# 2 -0.004860 0.014870 -0.003839 0.000000 0.000000 0.000000
# 3 -0.005201 -0.003839 0.011026 0.000000 0.000000 0.000000
# 4 0.000000 0.000000 0.000000 0.040827 0.000000 0.000000
# 5 0.000000 0.000000 0.000000 0.000000 0.045993 0.000000
# 6 0.000000 0.000000 0.000000 0.000000 0.000000 -0.070663
#
#
# Mechanical properties :
#
#
# Convention : Reuss Voigt Hill
#
# Bulk Modulus (GPa) = 67.73539 71.41071 69.57305
# Shear Modulus (GPa) = 54.67944 17.51296 36.09620
#
# Velocity S-wave (km/s) = 5.52515 3.12689 4.48914
# Velocity P-wave (km/s) = 8.86112 7.27357 8.10631
#
# Compressibility (1/GPa) = 0.01476333
#
# Stress axis : x y z
#
# Youngs Moduli (GPa) = 59.99585 67.24907 90.69560
#
# Poissons Ratio (x) = 0.32682 0.47175
# Poissons Ratio (y) = 0.29157 0.34817
# Poissons Ratio (z) = 0.31207 0.25816
#
# Static dielectric constant tensor:
#      x y z
#    x 1.650800 0.000000 0.000000 
#    y 0.000000 1.605380 0.000000 
#    z 0.000000 0.000000 1.653460 
# 
# From -- ./inp_files/35362.got.cif
#   From: 2010.05.17/outbox.cif.g08.bks.cpg/sg67_18_cif.got.tgz:35362.got - 2010.06.03 18:28:57.
