data_PCOD9503742
_publ_section_title
;
Structure prediction by ZEFSAII (Michael W. Deem and Ramdas Pophale) SiO2 
 PCOD9503742
Probable space group: C M M A
;
_chemical_formula_sum "Si O2"
_cell_formula_units_Z 96
_cell_length_a 7.949348
_cell_length_b 19.190687
_cell_length_c 32.001699
_cell_angle_alpha 90.000000
_cell_angle_beta 90.000000
_cell_angle_gamma 90.000000
_cell_volume 4881.969567
_symmetry_space_group_name_H-M "C M M A"
_symmetry_group_IT_number 67
_symmetry_cell_setting 'orthorhombic'
loop_
_space_group_symop_operation_xyz
x,y,z
-x,1/2-y,z
x,-y,-z
-x,1/2+y,-z
-x,-y,-z
x,1/2+y,-z
-x,y,z
x,1/2-y,z
1/2+x,1/2+y,z
1/2-x,-y,z
1/2+x,1/2-y,-z
1/2-x,y,-z
1/2-x,1/2-y,-z
1/2+x,y,-z
1/2-x,1/2+y,z
1/2+x,-y,z
loop_
_atom_site_type_symbol
_atom_site_label
_atom_site_fract_x
_atom_site_fract_y
_atom_site_fract_z
Si Si1 0.700803 0.919354 0.875145
Si Si2 0.702804 0.670192 0.454450
Si Si3 0.202440 0.329279 0.205277
Si Si4 0.796839 0.419573 0.283122
Si Si5 0.702923 0.080107 0.623263
Si Si6 0.297267 0.670207 0.953051
O O1 0.500000 0.916470 0.876308
O O2 0.757526 0.875455 0.835056
O O3 0.766100 0.881416 0.917144
O O4 0.750000 0.000000 0.872566
O O5 0.500000 0.671562 0.452377
O O6 0.764455 0.750000 0.452453
O O7 0.750000 0.641193 0.500000
O O8 0.766180 0.626854 0.414875
O O9 0.266138 0.250000 0.201511
O O10 0.265850 0.368841 0.246747
O O11 0.000000 0.325758 0.208608
O O12 0.750000 0.500000 0.274759
O O13 0.736973 0.400945 0.329963
O O14 0.000000 0.415982 0.283396
O O15 0.500000 0.085499 0.623785
O O16 0.750000 0.000000 0.616214
O O17 0.500000 0.671769 0.950818
O O18 0.236773 0.750000 0.946424
O O19 0.250000 0.648929 0.000000
#
# Coordination Sequence:
#
# PCOD9503742 Si02
#       6
#    16  16  16  16  16  16
#     4  11  23  38  56  79 109 143 179 218 261 309
#     4   9  18  32  49  69  94 126 163 202 246 295
#     4  10  21  36  55  80 107 136 173 215 259 308
#     4   9  18  33  52  74 101 132 166 206 251 300
#     4   9  18  32  50  72  98 129 164 203 248 297
#     4   9  19  36  57  80 106 138 175 215 260 308
#
# _framework density 19.664193999999998
#
# number of rings (size 3 to 8) (size 9 to 14) (size 15 to 20)
#    0.000    2.500    0.000    1.500    0.000    6.333 
#    0.000    8.333    0.000    0.000    0.000    7.000 
#    0.000    0.000    0.000    0.000    0.000    0.000 
#
# Total GULP energy -267860.248836 kJ/mol
# GULP energy per Si atom -5580.421851 kJ/mol
# Density = 1.961944 g / cm^3
# Si number density = 19.664194 Si / 1000 Ang^3
#
#
#
# Elastic Constant Matrix: (Units=GPa)
#
#
# Indices 1 2 3 4 5 6 
#
# 1 17.9659 7.0669 9.7771 0.0000 0.0000 0.0000
# 2 7.0669 141.7352 138.1721 0.0000 0.0000 0.0000
# 3 9.7771 138.1721 214.0197 0.0000 0.0000 0.0000
# 4 0.0000 0.0000 0.0000 34.9336 0.0000 0.0000
# 5 0.0000 0.0000 0.0000 0.0000 20.2197 0.0000
# 6 0.0000 0.0000 0.0000 0.0000 0.0000 18.7642
#
#
#
# Elastic Compliance Matrix: (Units=1/GPa)
#
#
# Indices 1 2 3 4 5 6 
#
# 1 0.057115 -0.000821 -0.002079 0.000000 0.000000 0.000000
# 2 -0.000821 0.019048 -0.012260 0.000000 0.000000 0.000000
# 3 -0.002079 -0.012260 0.012683 0.000000 0.000000 0.000000
# 4 0.000000 0.000000 0.000000 0.028626 0.000000 0.000000
# 5 0.000000 0.000000 0.000000 0.000000 0.049457 0.000000
# 6 0.000000 0.000000 0.000000 0.000000 0.000000 0.053293
#
#
# Mechanical properties :
#
#
# Convention : Reuss Voigt Hill
#
# Bulk Modulus (GPa) = 17.08641 75.97256 46.52949
# Shear Modulus (GPa) = 18.51500 29.36379 23.93940
#
# Velocity S-wave (km/s) = 3.07181 3.86847 3.49293
# Velocity P-wave (km/s) = 4.61404 7.65978 6.32304
#
# Compressibility (1/GPa) = 0.05852603
#
# Stress axis : x y z
#
# Youngs Moduli (GPa) = 17.50839 52.49810 78.84757
#
# Poissons Ratio (x) = 0.04308 0.16396
# Poissons Ratio (y) = 0.01437 0.96669
# Poissons Ratio (z) = 0.03641 0.64364
#
# Static dielectric constant tensor:
#      x y z
#    x 1.708970 0.000000 0.000000 
#    y 0.000000 1.648110 0.000000 
#    z 0.000000 0.000000 1.694310 
# 
# From -- ./inp_files/43425.got.cif
#   From: 2010.05.17/outbox.cif.g08.bks.cpg/sg67_22_cif.got.tgz:43425.got - 2010.06.03 18:28:57.
