data_PCOD9503919
_publ_section_title
;
Structure prediction by ZEFSAII (Michael W. Deem and Ramdas Pophale) SiO2 
 PCOD9503919
Probable space group: C M M A
;
_chemical_formula_sum "Si O2"
_cell_formula_units_Z 56
_cell_length_a 34.844907
_cell_length_b 15.113301
_cell_length_c 5.008446
_cell_angle_alpha 90.000000
_cell_angle_beta 90.000000
_cell_angle_gamma 90.000000
_cell_volume 2637.555685
_symmetry_space_group_name_H-M "C M M A"
_symmetry_group_IT_number 67
_symmetry_cell_setting 'orthorhombic'
loop_
_space_group_symop_operation_xyz
x,y,z
-x,1/2-y,z
x,-y,-z
-x,1/2+y,-z
-x,-y,-z
x,1/2+y,-z
-x,y,z
x,1/2-y,z
1/2+x,1/2+y,z
1/2-x,-y,z
1/2+x,1/2-y,-z
1/2-x,y,-z
1/2-x,1/2-y,-z
1/2+x,y,-z
1/2-x,1/2+y,z
1/2+x,-y,z
loop_
_atom_site_type_symbol
_atom_site_label
_atom_site_fract_x
_atom_site_fract_y
_atom_site_fract_z
Si Si1 0.880886 0.649635 0.926496
Si Si2 0.957429 0.063805 0.252936
Si Si3 0.835101 0.903611 0.406326
Si Si4 0.722096 0.750000 0.748404
O O1 0.879202 0.750000 0.027281
O O2 0.923002 0.629220 0.813733
O O3 0.852615 0.638402 0.674934
O O4 0.867721 0.589079 0.175886
O O5 0.000000 0.103594 0.299875
O O6 0.948115 0.000000 0.500000
O O7 0.960068 0.000000 0.000000
O O8 0.804114 0.837644 0.277338
O O9 0.820893 0.000000 0.500000
O O10 0.750000 0.750000 0.500000
O O11 0.750000 0.750000 0.000000
#
# Coordination Sequence:
#
# PCOD9503919 Si02
#       4
#    16  16  16   8
#     4  12  22  40  66  98 136 176 233 285 332 393
#     4  10  21  37  58  89 131 178 228 281 335 390
#     4  12  25  45  71 101 135 180 226 274 339 408
#     4  12  26  48  74 102 141 172 215 284 342 408
#
# _framework density 21.231780000000001
#
# number of rings (size 3 to 8) (size 9 to 14) (size 15 to 20)
#    0.000    0.571    2.857    6.857    0.000    1.143 
#    0.000    1.429    0.000    8.571    0.000    0.000 
#    0.000    0.000    0.000    0.000    0.000    0.000 
#
# Total GULP energy -156565.293811 kJ/mol
# GULP energy per Si atom -5591.617636 kJ/mol
# Density = 2.118346 g / cm^3
# Si number density = 21.231780 Si / 1000 Ang^3
#
#
#
# Elastic Constant Matrix: (Units=GPa)
#
#
# Indices 1 2 3 4 5 6 
#
# 1 120.2381 55.2454 29.6616 0.0000 0.0000 0.0000
# 2 55.2454 120.4651 23.4150 0.0000 0.0000 0.0000
# 3 29.6616 23.4150 141.7637 0.0000 0.0000 0.0000
# 4 0.0000 0.0000 0.0000 30.3128 0.0000 0.0000
# 5 0.0000 0.0000 0.0000 0.0000 41.7455 0.0000
# 6 0.0000 0.0000 0.0000 0.0000 0.0000 32.2483
#
#
#
# Elastic Compliance Matrix: (Units=1/GPa)
#
#
# Indices 1 2 3 4 5 6 
#
# 1 0.010835 -0.004679 -0.001494 0.000000 0.000000 0.000000
# 2 -0.004679 0.010597 -0.000771 0.000000 0.000000 0.000000
# 3 -0.001494 -0.000771 0.007494 0.000000 0.000000 0.000000
# 4 0.000000 0.000000 0.000000 0.032989 0.000000 0.000000
# 5 0.000000 0.000000 0.000000 0.000000 0.023955 0.000000
# 6 0.000000 0.000000 0.000000 0.000000 0.000000 0.031009
#
#
# Mechanical properties :
#
#
# Convention : Reuss Voigt Hill
#
# Bulk Modulus (GPa) = 66.50064 66.56788 66.53426
# Shear Modulus (GPa) = 36.82428 39.13766 37.98097
#
# Velocity S-wave (km/s) = 4.16912 4.29809 4.23410
# Velocity P-wave (km/s) = 7.38679 7.48682 7.43697
#
# Compressibility (1/GPa) = 0.01503745
#
# Stress axis : x y z
#
# Youngs Moduli (GPa) = 92.29270 94.36930 133.43917
#
# Poissons Ratio (x) = 0.44151 0.19940
# Poissons Ratio (y) = 0.43179 0.10293
# Poissons Ratio (z) = 0.13791 0.07279
#
# Static dielectric constant tensor:
#      x y z
#    x 1.822380 0.000000 0.000000 
#    y 0.000000 2.104170 0.000000 
#    z 0.000000 0.000000 1.724120 
# 
# From -- ./inp_files/1413.got.cif
#   From: 2010.05.17/outbox.cif.g08.bks.cpg/sg67_1_cif.got.tgz:1413.got - 2010.06.03 18:28:57.
