data_PCOD9503821
_publ_section_title
;
Structure prediction by ZEFSAII (Michael W. Deem and Ramdas Pophale) SiO2 
 PCOD9503821
Probable space group: C M M A
;
_chemical_formula_sum "Si O2"
_cell_formula_units_Z 112
_cell_length_a 18.118514
_cell_length_b 27.897104
_cell_length_c 11.726243
_cell_angle_alpha 90.000000
_cell_angle_beta 90.000000
_cell_angle_gamma 90.000000
_cell_volume 5927.077243
_symmetry_space_group_name_H-M "C M M A"
_symmetry_group_IT_number 67
_symmetry_cell_setting 'orthorhombic'
loop_
_space_group_symop_operation_xyz
x,y,z
-x,1/2-y,z
x,-y,-z
-x,1/2+y,-z
-x,-y,-z
x,1/2+y,-z
-x,y,z
x,1/2-y,z
1/2+x,1/2+y,z
1/2-x,-y,z
1/2+x,1/2-y,-z
1/2-x,y,-z
1/2-x,1/2-y,-z
1/2+x,y,-z
1/2-x,1/2+y,z
1/2+x,-y,z
loop_
_atom_site_type_symbol
_atom_site_label
_atom_site_fract_x
_atom_site_fract_y
_atom_site_fract_z
Si Si1 0.085838 0.161484 0.766321
Si Si2 0.087561 0.425553 0.358325
Si Si3 0.910917 0.895402 0.893890
Si Si4 0.916547 0.055400 0.880690
Si Si5 0.331398 0.480551 0.325657
Si Si6 0.330254 0.123318 0.446614
Si Si7 0.161627 0.803959 0.007186
O O1 0.080968 0.107815 0.820197
O O2 0.132488 0.157417 0.648963
O O3 0.000000 0.177167 0.750380
O O4 0.129655 0.190211 0.864296
O O5 0.112574 0.410738 0.231504
O O6 0.119356 0.478220 0.382976
O O7 0.116119 0.386499 0.447325
O O8 0.000000 0.427836 0.360690
O O9 0.876135 0.845201 0.932292
O O10 0.000000 0.891140 0.897433
O O11 0.891891 0.934507 0.990752
O O12 0.863822 0.025598 0.800691
O O13 0.000000 0.035503 0.879073
O O14 0.250000 0.500000 0.323332
O O15 0.327262 0.429007 0.386035
O O16 0.250000 0.135899 0.500000
O O17 0.144755 0.750000 0.967619
O O18 0.250000 0.810614 0.000000
#
# Coordination Sequence:
#
# PCOD9503821 Si02
#       7
#    16  16  16  16  16  16  16
#     4   9  19  36  59  85 112 151 198 235 286 351
#     4  11  23  35  53  79 110 151 194 238 286 341
#     4   9  20  37  56  81 112 146 185 226 284 353
#     4   8  16  33  53  73 103 142 184 234 283 332
#     4  11  21  33  50  74 107 144 199 242 285 333
#     4  11  22  36  57  78 110 154 196 252 291 325
#     4  10  21  36  62  95 121 143 177 229 289 355
#
# _framework density 18.896329000000001
#
# number of rings (size 3 to 8) (size 9 to 14) (size 15 to 20)
#    0.000    2.143    1.429    2.571    2.000    5.143 
#    0.000    2.857    0.000    1.286    0.000    2.000 
#    0.000    0.000    0.000    0.000    0.000    0.000 
#
# Total GULP energy -312492.066707 kJ/mol
# GULP energy per Si atom -5580.215477 kJ/mol
# Density = 1.885332 g / cm^3
# Si number density = 18.896329 Si / 1000 Ang^3
#
#
#
# Elastic Constant Matrix: (Units=GPa)
#
#
# Indices 1 2 3 4 5 6 
#
# 1 80.0720 18.3442 50.9661 0.0000 0.0000 0.0000
# 2 18.3442 37.2690 20.1017 0.0000 0.0000 0.0000
# 3 50.9661 20.1017 126.2639 0.0000 0.0000 0.0000
# 4 0.0000 0.0000 0.0000 17.2725 0.0000 0.0000
# 5 0.0000 0.0000 0.0000 0.0000 11.9841 0.0000
# 6 0.0000 0.0000 0.0000 0.0000 0.0000 22.2199
#
#
#
# Elastic Compliance Matrix: (Units=1/GPa)
#
#
# Indices 1 2 3 4 5 6 
#
# 1 0.017722 -0.005322 -0.006306 0.000000 0.000000 0.000000
# 2 -0.005322 0.030950 -0.002779 0.000000 0.000000 0.000000
# 3 -0.006306 -0.002779 0.010908 0.000000 0.000000 0.000000
# 4 0.000000 0.000000 0.000000 0.057895 0.000000 0.000000
# 5 0.000000 0.000000 0.000000 0.000000 0.083444 0.000000
# 6 0.000000 0.000000 0.000000 0.000000 0.000000 0.045005
#
#
# Mechanical properties :
#
#
# Convention : Reuss Voigt Hill
#
# Bulk Modulus (GPa) = 32.50349 46.93653 39.72001
# Shear Modulus (GPa) = 17.54423 20.57481 19.05952
#
# Velocity S-wave (km/s) = 3.05035 3.30332 3.17935
# Velocity P-wave (km/s) = 5.44467 6.28029 5.87735
#
# Compressibility (1/GPa) = 0.03076593
#
# Stress axis : x y z
#
# Youngs Moduli (GPa) = 56.42768 32.30978 91.67683
#
# Poissons Ratio (x) = 0.17194 0.57813
# Poissons Ratio (y) = 0.30028 0.25481
# Poissons Ratio (z) = 0.35584 0.08980
#
# Static dielectric constant tensor:
#      x y z
#    x 1.633650 0.000000 0.000000 
#    y 0.000000 1.646060 0.000000 
#    z 0.000000 0.000000 1.681960 
# 
# From -- ./inp_files/18585.got.cif
#   From: 2010.05.17/outbox.cif.g08.bks.cpg/sg67_10_cif.got.tgz:18585.got - 2010.06.03 18:28:57.
