data_PCOD9503398
_publ_section_title
;
Structure prediction by ZEFSAII (Michael W. Deem and Ramdas Pophale) SiO2 
 PCOD9503398
Probable space group: C M M A
;
_chemical_formula_sum "Si O2"
_cell_formula_units_Z 96
_cell_length_a 19.275941
_cell_length_b 16.119991
_cell_length_c 14.124029
_cell_angle_alpha 90.000000
_cell_angle_beta 90.000000
_cell_angle_gamma 90.000000
_cell_volume 4388.731219
_symmetry_space_group_name_H-M "C M M A"
_symmetry_group_IT_number 67
_symmetry_cell_setting 'orthorhombic'
loop_
_space_group_symop_operation_xyz
x,y,z
-x,1/2-y,z
x,-y,-z
-x,1/2+y,-z
-x,-y,-z
x,1/2+y,-z
-x,y,z
x,1/2-y,z
1/2+x,1/2+y,z
1/2-x,-y,z
1/2+x,1/2-y,-z
1/2-x,y,-z
1/2-x,1/2-y,-z
1/2+x,y,-z
1/2-x,1/2+y,z
1/2+x,-y,z
loop_
_atom_site_type_symbol
_atom_site_label
_atom_site_fract_x
_atom_site_fract_y
_atom_site_fract_z
Si Si1 0.417351 0.415798 0.955381
Si Si2 0.224461 0.750000 0.110878
Si Si3 0.077989 0.587586 0.553472
Si Si4 0.291943 0.414969 0.217747
Si Si5 0.804550 0.846969 0.426834
Si Si6 0.582171 0.750000 0.935815
Si Si7 0.082214 0.978219 0.757131
O O1 0.500000 0.420164 0.972373
O O2 0.408655 0.414736 0.843287
O O3 0.386196 0.500000 0.000000
O O4 0.397310 0.331121 0.004434
O O5 0.241441 0.660225 0.157093
O O6 0.141485 0.750000 0.141868
O O7 0.250000 0.750000 0.000000
O O8 0.074192 0.500000 0.500000
O O9 0.123478 0.642578 0.483108
O O10 0.105339 0.563690 0.658510
O O11 0.000000 0.621143 0.565551
O O12 0.250000 0.500000 0.200640
O O13 0.292756 0.390041 0.327496
O O14 0.373184 0.442679 0.208415
O O15 0.790815 0.750000 0.412126
O O16 0.750000 0.884159 0.500000
O O17 0.500000 0.750000 0.913411
O O18 0.000000 0.998932 0.748181
#
# Coordination Sequence:
#
# PCOD9503398 Si02
#       7
#    16   8  16  16  16   8  16
#     4   9  18  35  61  93 125 162 216 270 319 381
#     4  12  30  50  65 100 143 170 227 292 349 427
#     4  10  20  37  62  98 139 176 216 268 335 396
#     4  12  26  45  72  98 132 181 228 277 353 410
#     4  11  24  43  66  97 132 175 232 282 323 398
#     4  10  22  44  72  96 127 171 214 267 329 394
#     4  10  21  39  67 101 134 176 229 278 329 405
#
# _framework density 21.874203999999999
#
# number of rings (size 3 to 8) (size 9 to 14) (size 15 to 20)
#    0.000    1.500    2.500    2.000    2.333    2.667 
#    1.500    0.000    0.000    0.000    0.000    0.000 
#    0.000    0.000    0.000    0.000    0.000    0.000 
#
# Total GULP energy -267519.887189 kJ/mol
# GULP energy per Si atom -5573.330983 kJ/mol
# Density = 2.182442 g / cm^3
# Si number density = 21.874204 Si / 1000 Ang^3
#
#
#
# Elastic Constant Matrix: (Units=GPa)
#
#
# Indices 1 2 3 4 5 6 
#
# 1 71.0697 15.9619 9.3155 0.0000 0.0000 0.0000
# 2 15.9619 109.4751 42.2606 0.0000 0.0000 0.0000
# 3 9.3155 42.2606 93.7052 0.0000 0.0000 0.0000
# 4 0.0000 0.0000 0.0000 33.1400 0.0000 0.0000
# 5 0.0000 0.0000 0.0000 0.0000 14.1079 0.0000
# 6 0.0000 0.0000 0.0000 0.0000 0.0000 33.1279
#
#
#
# Elastic Compliance Matrix: (Units=1/GPa)
#
#
# Indices 1 2 3 4 5 6 
#
# 1 0.014574 -0.001896 -0.000594 0.000000 0.000000 0.000000
# 2 -0.001896 0.011307 -0.004911 0.000000 0.000000 0.000000
# 3 -0.000594 -0.004911 0.012946 0.000000 0.000000 0.000000
# 4 0.000000 0.000000 0.000000 0.030175 0.000000 0.000000
# 5 0.000000 0.000000 0.000000 0.000000 0.070882 0.000000
# 6 0.000000 0.000000 0.000000 0.000000 0.000000 0.030186
#
#
# Mechanical properties :
#
#
# Convention : Reuss Voigt Hill
#
# Bulk Modulus (GPa) = 41.62220 45.48068 43.55144
# Shear Modulus (GPa) = 25.92296 29.85595 27.88946
#
# Velocity S-wave (km/s) = 3.44625 3.69845 3.57458
# Velocity P-wave (km/s) = 5.90803 6.25101 6.08194
#
# Compressibility (1/GPa) = 0.02402564
#
# Stress axis : x y z
#
# Youngs Moduli (GPa) = 68.61390 88.44393 77.24664
#
# Poissons Ratio (x) = 0.16766 0.04588
# Poissons Ratio (y) = 0.13007 0.37934
# Poissons Ratio (z) = 0.04075 0.43433
#
# Static dielectric constant tensor:
#      x y z
#    x 1.992600 0.000000 0.000000 
#    y 0.000000 1.711880 0.000000 
#    z 0.000000 0.000000 3.226460 
# 
# From -- ./inp_files/29332.got.cif
#   From: 2010.05.17/outbox.cif.g08.bks.cpg/sg67_15_cif.got.tgz:29332.got - 2010.06.03 18:28:57.
