data_PCOD9503425
_publ_section_title
;
Structure prediction by ZEFSAII (Michael W. Deem and Ramdas Pophale) SiO2 
 PCOD9503425
Probable space group: C M M A
;
_chemical_formula_sum "Si O2"
_cell_formula_units_Z 104
_cell_length_a 25.587511
_cell_length_b 21.884965
_cell_length_c 8.786400
_cell_angle_alpha 90.000000
_cell_angle_beta 90.000000
_cell_angle_gamma 90.000000
_cell_volume 4920.223935
_symmetry_space_group_name_H-M "C M M A"
_symmetry_group_IT_number 67
_symmetry_cell_setting 'orthorhombic'
loop_
_space_group_symop_operation_xyz
x,y,z
-x,1/2-y,z
x,-y,-z
-x,1/2+y,-z
-x,-y,-z
x,1/2+y,-z
-x,y,z
x,1/2-y,z
1/2+x,1/2+y,z
1/2-x,-y,z
1/2+x,1/2-y,-z
1/2-x,y,-z
1/2-x,1/2-y,-z
1/2+x,y,-z
1/2-x,1/2+y,z
1/2+x,-y,z
loop_
_atom_site_type_symbol
_atom_site_label
_atom_site_fract_x
_atom_site_fract_y
_atom_site_fract_z
Si Si1 0.701862 0.750000 0.112255
Si Si2 0.103986 0.250000 0.892349
Si Si3 0.437840 0.620218 0.356763
Si Si4 0.559209 0.750000 0.211426
Si Si5 0.702024 0.384362 0.881184
Si Si6 0.613383 0.560411 0.910663
Si Si7 0.057604 0.352901 0.713760
Si Si8 0.343591 0.976300 0.331336
O O1 0.702055 0.683826 0.189254
O O2 0.750000 0.750000 0.000000
O O3 0.653871 0.750000 0.997065
O O4 0.099466 0.306545 0.780024
O O5 0.061141 0.250000 0.028130
O O6 0.500000 0.608328 0.318938
O O7 0.420748 0.684331 0.275085
O O8 0.435062 0.630197 0.538791
O O9 0.397421 0.564875 0.325517
O O10 0.500000 0.750000 0.268581
O O11 0.699988 0.433920 0.747321
O O12 0.750000 0.390828 0.000000
O O13 0.649180 0.397835 0.979876
O O14 0.564659 0.591489 0.829701
O O15 0.649282 0.535221 0.774755
O O16 0.597313 0.500000 0.000000
O O17 0.000000 0.325478 0.727487
O O18 0.333962 0.000000 0.500000
#
# Coordination Sequence:
#
# PCOD9503425 Si02
#       8
#     8   8  16   8  16  16  16  16
#     4  10  20  37  68  96 118 156 199 258 337 382
#     4  12  21  37  61  90 124 158 213 266 320 383
#     4  10  22  39  60  87 127 172 213 263 321 384
#     4  10  21  36  57  90 121 162 217 265 326 383
#     4  10  22  43  68  94 126 163 209 269 335 386
#     4  10  22  38  57  85 122 165 210 259 310 371
#     4  11  22  37  57  85 123 167 207 257 318 379
#     4  11  22  39  63  92 126 170 218 254 312 378
#
# _framework density 21.137249000000001
#
# number of rings (size 3 to 8) (size 9 to 14) (size 15 to 20)
#    0.000    1.538    3.077    2.077    2.154    5.231 
#    0.000    1.538    0.000    0.000    0.000    6.462 
#    0.000    0.000    0.000    0.000    0.000    0.000 
#
# Total GULP energy -289953.900513 kJ/mol
# GULP energy per Si atom -5576.036548 kJ/mol
# Density = 2.108914 g / cm^3
# Si number density = 21.137249 Si / 1000 Ang^3
#
#
#
# Elastic Constant Matrix: (Units=GPa)
#
#
# Indices 1 2 3 4 5 6 
#
# 1 51.7701 11.8470 8.5152 0.0000 0.0000 0.0000
# 2 11.8470 75.8398 27.7757 0.0000 0.0000 0.0000
# 3 8.5152 27.7757 101.6112 0.0000 0.0000 0.0000
# 4 0.0000 0.0000 0.0000 20.9281 0.0000 0.0000
# 5 0.0000 0.0000 0.0000 0.0000 21.5772 0.0000
# 6 0.0000 0.0000 0.0000 0.0000 0.0000 37.7079
#
#
#
# Elastic Compliance Matrix: (Units=1/GPa)
#
#
# Indices 1 2 3 4 5 6 
#
# 1 0.020109 -0.002805 -0.000918 0.000000 0.000000 0.000000
# 2 -0.002805 0.015044 -0.003877 0.000000 0.000000 0.000000
# 3 -0.000918 -0.003877 0.010978 0.000000 0.000000 0.000000
# 4 0.000000 0.000000 0.000000 0.047783 0.000000 0.000000
# 5 0.000000 0.000000 0.000000 0.000000 0.046345 0.000000
# 6 0.000000 0.000000 0.000000 0.000000 0.000000 0.026520
#
#
# Mechanical properties :
#
#
# Convention : Reuss Voigt Hill
#
# Bulk Modulus (GPa) = 32.33098 36.16630 34.24864
# Shear Modulus (GPa) = 26.00242 28.11486 27.05864
#
# Velocity S-wave (km/s) = 3.51118 3.65102 3.58179
# Velocity P-wave (km/s) = 5.63621 5.90937 5.77440
#
# Compressibility (1/GPa) = 0.03093009
#
# Stress axis : x y z
#
# Youngs Moduli (GPa) = 49.72874 66.47238 91.08919
#
# Poissons Ratio (x) = 0.18645 0.08366
# Poissons Ratio (y) = 0.13948 0.35317
# Poissons Ratio (z) = 0.04567 0.25773
#
# Static dielectric constant tensor:
#      x y z
#    x 1.792760 0.000000 0.000000 
#    y 0.000000 1.848200 0.000000 
#    z 0.000000 0.000000 1.702850 
# 
# From -- ./inp_files/11612.got.cif
#   From: 2010.05.17/outbox.cif.g08.bks.cpg/sg67_6_cif.got.tgz:11612.got - 2010.06.03 18:28:57.
