data_PCOD9503410
_publ_section_title
;
Structure prediction by ZEFSAII (Michael W. Deem and Ramdas Pophale) SiO2 
 PCOD9503410
Probable space group: C M M A
;
_chemical_formula_sum "Si O2"
_cell_formula_units_Z 72
_cell_length_a 27.461050
_cell_length_b 15.598009
_cell_length_c 8.544722
_cell_angle_alpha 90.000000
_cell_angle_beta 90.000000
_cell_angle_gamma 90.000000
_cell_volume 3660.026612
_symmetry_space_group_name_H-M "C M M A"
_symmetry_group_IT_number 67
_symmetry_cell_setting 'orthorhombic'
loop_
_space_group_symop_operation_xyz
x,y,z
-x,1/2-y,z
x,-y,-z
-x,1/2+y,-z
-x,-y,-z
x,1/2+y,-z
-x,y,z
x,1/2-y,z
1/2+x,1/2+y,z
1/2-x,-y,z
1/2+x,1/2-y,-z
1/2-x,y,-z
1/2-x,1/2-y,-z
1/2+x,y,-z
1/2-x,1/2+y,z
1/2+x,-y,z
loop_
_atom_site_type_symbol
_atom_site_label
_atom_site_fract_x
_atom_site_fract_y
_atom_site_fract_z
Si Si1 0.054765 0.250000 0.813017
Si Si2 0.841129 0.413114 0.100378
Si Si3 0.802918 0.750000 0.075821
Si Si4 0.650728 0.750000 0.601905
Si Si5 0.195629 0.592517 0.564199
Si Si6 0.052829 0.096898 0.065523
O O1 0.098842 0.250000 0.690092
O O2 0.000000 0.250000 0.743552
O O3 0.057812 0.166287 0.925550
O O4 0.805768 0.411643 0.248415
O O5 0.896767 0.400388 0.159492
O O6 0.837457 0.500000 0.000000
O O7 0.829093 0.334460 0.988099
O O8 0.808175 0.750000 0.261540
O O9 0.750000 0.750000 0.000000
O O10 0.660586 0.833459 0.498385
O O11 0.179954 0.500000 0.500000
O O12 0.250000 0.608280 0.500000
O O13 0.000000 0.113999 0.142148
O O14 0.051207 0.000000 0.000000
#
# Coordination Sequence:
#
# PCOD9503410 Si02
#       6
#     8  16   8   8  16  16
#     4  10  20  37  63  96 129 166 208 260 320 380
#     4  11  22  40  64  90 121 164 218 259 304 377
#     4  12  23  36  60  91 115 157 221 264 296 366
#     4  12  22  41  64  89 128 169 203 260 334 381
#     4  11  25  42  60  89 132 173 206 262 329 376
#     4   9  18  34  61  93 123 155 208 266 311 360
#
# _framework density 19.671987000000001
#
# number of rings (size 3 to 8) (size 9 to 14) (size 15 to 20)
#    0.000    1.333    2.222    3.667    3.111    2.222 
#    0.000    1.111    0.000    1.333    0.000    0.000 
#    0.000    0.000    0.000    0.000    0.000    0.000 
#
# Total GULP energy -200972.292553 kJ/mol
# GULP energy per Si atom -5582.563682 kJ/mol
# Density = 1.962721 g / cm^3
# Si number density = 19.671987 Si / 1000 Ang^3
#
#
#
# Elastic Constant Matrix: (Units=GPa)
#
#
# Indices 1 2 3 4 5 6 
#
# 1 127.4182 22.6646 18.9217 0.0000 0.0000 0.0000
# 2 22.6646 167.1474 35.2131 0.0000 0.0000 0.0000
# 3 18.9217 35.2131 88.2725 0.0000 0.0000 0.0000
# 4 0.0000 0.0000 0.0000 25.7740 0.0000 0.0000
# 5 0.0000 0.0000 0.0000 0.0000 29.0135 0.0000
# 6 0.0000 0.0000 0.0000 0.0000 0.0000 -0.0968
#
#
#
# Elastic Compliance Matrix: (Units=1/GPa)
#
#
# Indices 1 2 3 4 5 6 
#
# 1 0.008205 -0.000810 -0.001436 0.000000 0.000000 0.000000
# 2 -0.000810 0.006612 -0.002464 0.000000 0.000000 0.000000
# 3 -0.001436 -0.002464 0.012619 0.000000 0.000000 0.000000
# 4 0.000000 0.000000 0.000000 0.038799 0.000000 0.000000
# 5 0.000000 0.000000 0.000000 0.000000 0.034467 0.000000
# 6 0.000000 0.000000 0.000000 0.000000 0.000000-10.334886
#
#
# Mechanical properties :
#
#
# Convention : Reuss Voigt Hill
#
# Bulk Modulus (GPa) = 55.50342 59.60412 57.55377
# Shear Modulus (GPa) = -0.48930 31.34072 15.42571
#
# Velocity S-wave (km/s) = -0.49927 3.99578 2.80330
# Velocity P-wave (km/s) = 5.28615 7.18701 6.30858
#
# Compressibility (1/GPa) = 0.01801691
#
# Stress axis : x y z
#
# Youngs Moduli (GPa) = 121.86966 151.24808 79.24460
#
# Poissons Ratio (x) = 0.12254 0.11377
# Poissons Ratio (y) = 0.09874 0.19524
# Poissons Ratio (z) = 0.17497 0.37265
#
# Static dielectric constant tensor:
#      x y z
#    x 1.762100 0.000000 0.000000 
#    y 0.000000 0.558820 0.000000 
#    z 0.000000 0.000000 1.676990 
# 
# From -- ./inp_files/8523.got.cif
#   From: 2010.05.17/outbox.cif.g08.bks.cpg/sg67_5_cif.got.tgz:8523.got - 2010.06.03 18:28:57.
