data_PCOD9503935
_publ_section_title
;
Structure prediction by ZEFSAII (Michael W. Deem and Ramdas Pophale) SiO2 
 PCOD9503935
Probable space group: C M M A
;
_chemical_formula_sum "Si O2"
_cell_formula_units_Z 92
_cell_length_a 29.804069
_cell_length_b 9.190554
_cell_length_c 18.009870
_cell_angle_alpha 90.000000
_cell_angle_beta 90.000000
_cell_angle_gamma 90.000000
_cell_volume 4933.189850
_symmetry_space_group_name_H-M "C M M A"
_symmetry_group_IT_number 67
_symmetry_cell_setting 'orthorhombic'
loop_
_space_group_symop_operation_xyz
x,y,z
-x,1/2-y,z
x,-y,-z
-x,1/2+y,-z
-x,-y,-z
x,1/2+y,-z
-x,y,z
x,1/2-y,z
1/2+x,1/2+y,z
1/2-x,-y,z
1/2+x,1/2-y,-z
1/2-x,y,-z
1/2-x,1/2-y,-z
1/2+x,y,-z
1/2-x,1/2+y,z
1/2+x,-y,z
loop_
_atom_site_type_symbol
_atom_site_label
_atom_site_fract_x
_atom_site_fract_y
_atom_site_fract_z
Si Si1 0.000000 0.921117 0.578343
Si Si2 0.295299 0.423114 0.753496
Si Si3 0.947133 0.077195 0.079241
Si Si4 0.184201 0.090923 0.608699
Si Si5 0.250000 0.250000 0.500000
Si Si6 0.383384 0.919150 0.803628
Si Si7 0.415219 0.585351 0.633381
O O1 0.000000 0.750000 0.570570
O O2 0.000000 0.000000 0.500000
O O3 0.954666 0.974498 0.617556
O O4 0.293670 0.250000 0.759523
O O5 0.250000 0.500000 0.779525
O O6 0.300421 0.468310 0.666220
O O7 0.337164 0.492413 0.796261
O O8 0.937776 0.250000 0.074944
O O9 0.000000 0.059879 0.097587
O O10 0.916679 0.998850 0.140161
O O11 0.939684 0.000000 0.000000
O O12 0.182630 0.250000 0.651087
O O13 0.217424 0.128433 0.542132
O O14 0.132090 0.059227 0.590829
O O15 0.376660 0.750000 0.824473
O O16 0.403510 0.921209 0.720412
O O17 0.430077 0.750000 0.614774
#
# Coordination Sequence:
#
# PCOD9503935 Si02
#       7
#     8  16  16  16   4  16  16
#     4  12  26  42  62  82 111 156 205 256 322 380
#     4  11  21  36  60  85 119 158 204 257 311 372
#     4  10  21  37  59  93 137 178 217 262 314 377
#     4   8  17  36  62  86 114 149 190 248 311 382
#     4   8  16  36  68  86 118 148 198 238 326 398
#     4  10  21  38  63  94 124 165 211 261 321 379
#     4   9  19  38  62  88 120 153 202 258 313 380
#
# _framework density 18.649190000000001
#
# number of rings (size 3 to 8) (size 9 to 14) (size 15 to 20)
#    0.522    1.739    0.000    4.435    1.217    4.522 
#    0.000    4.348    0.000    2.609    0.000    3.652 
#    0.000    0.000    0.000    0.000    0.000    0.000 
#
# Total GULP energy -256120.972081 kJ/mol
# GULP energy per Si atom -5567.847219 kJ/mol
# Density = 1.860674 g / cm^3
# Si number density = 18.649190 Si / 1000 Ang^3
#
#
#
# Elastic Constant Matrix: (Units=GPa)
#
#
# Indices 1 2 3 4 5 6 
#
# 1 149.8690 101.3460 72.0394 0.0000 0.0000 0.0000
# 2 101.3460 194.2934 57.2656 0.0000 0.0000 0.0000
# 3 72.0394 57.2656 75.4414 0.0000 0.0000 0.0000
# 4 0.0000 0.0000 0.0000 30.3426 0.0000 0.0000
# 5 0.0000 0.0000 0.0000 0.0000 39.0505 0.0000
# 6 0.0000 0.0000 0.0000 0.0000 0.0000 35.6988
#
#
#
# Elastic Compliance Matrix: (Units=1/GPa)
#
#
# Indices 1 2 3 4 5 6 
#
# 1 0.015006 -0.004643 -0.010805 0.000000 0.000000 0.000000
# 2 -0.004643 0.008067 -0.001690 0.000000 0.000000 0.000000
# 3 -0.010805 -0.001690 0.024856 0.000000 0.000000 0.000000
# 4 0.000000 0.000000 0.000000 0.032957 0.000000 0.000000
# 5 0.000000 0.000000 0.000000 0.000000 0.025608 0.000000
# 6 0.000000 0.000000 0.000000 0.000000 0.000000 0.028012
#
#
# Mechanical properties :
#
#
# Convention : Reuss Voigt Hill
#
# Bulk Modulus (GPa) = 73.24296 97.87842 85.56069
# Shear Modulus (GPa) = 28.84653 33.61521 31.23087
#
# Velocity S-wave (km/s) = 3.93720 4.25019 4.09669
# Velocity P-wave (km/s) = 7.74778 8.75691 8.26776
#
# Compressibility (1/GPa) = 0.01365319
#
# Stress axis : x y z
#
# Youngs Moduli (GPa) = 66.64147 123.96881 40.23197
#
# Poissons Ratio (x) = 0.57553 0.43471
# Poissons Ratio (y) = 0.30938 0.06799
# Poissons Ratio (z) = 0.72006 0.20950
#
# Static dielectric constant tensor:
#      x y z
#    x 1.617490 0.000000 0.000000 
#    y 0.000000 1.662680 0.000000 
#    z 0.000000 0.000000 1.641140 
# 
# From -- ./inp_files/39898.got.cif
#   From: 2010.05.17/outbox.cif.g08.bks.cpg/sg67_20_cif.got.tgz:39898.got - 2010.06.03 18:28:57.
