data_PCOD9503346
_publ_section_title
;
Structure prediction by ZEFSAII (Michael W. Deem and Ramdas Pophale) SiO2 
 PCOD9503346
Probable space group: C M M A
;
_chemical_formula_sum "Si O2"
_cell_formula_units_Z 104
_cell_length_a 26.766288
_cell_length_b 8.650124
_cell_length_c 22.839264
_cell_angle_alpha 90.000000
_cell_angle_beta 90.000000
_cell_angle_gamma 90.000000
_cell_volume 5288.013854
_symmetry_space_group_name_H-M "C M M A"
_symmetry_group_IT_number 67
_symmetry_cell_setting 'orthorhombic'
loop_
_space_group_symop_operation_xyz
x,y,z
-x,1/2-y,z
x,-y,-z
-x,1/2+y,-z
-x,-y,-z
x,1/2+y,-z
-x,y,z
x,1/2-y,z
1/2+x,1/2+y,z
1/2-x,-y,z
1/2+x,1/2-y,-z
1/2-x,y,-z
1/2-x,1/2-y,-z
1/2+x,y,-z
1/2-x,1/2+y,z
1/2+x,-y,z
loop_
_atom_site_type_symbol
_atom_site_label
_atom_site_fract_x
_atom_site_fract_y
_atom_site_fract_z
Si Si1 0.108904 0.936093 0.433823
Si Si2 0.341790 0.936489 0.226874
Si Si3 0.696307 0.435309 0.646755
Si Si4 0.802409 0.435309 0.101266
Si Si5 0.055364 0.564848 0.185036
Si Si6 0.000000 0.935921 0.433982
Si Si7 0.411950 0.935440 0.061312
O O1 0.112025 0.750000 0.435181
O O2 0.053894 0.981873 0.408764
O O3 0.112246 0.000000 0.500000
O O4 0.152920 0.003913 0.395121
O O5 0.343118 0.750000 0.225618
O O6 0.316230 0.987099 0.286854
O O7 0.312301 0.987634 0.168503
O O8 0.398362 0.996195 0.220940
O O9 0.697285 0.250000 0.645526
O O10 0.750000 0.500000 0.629045
O O11 0.799551 0.250000 0.100566
O O12 0.750000 0.500000 0.079299
O O13 0.853113 0.479480 0.067720
O O14 0.059094 0.750000 0.185252
O O15 0.061881 0.504622 0.118540
O O16 0.000000 0.520779 0.206440
O O17 0.000000 0.750000 0.436327
O O18 0.000000 0.000000 0.500000
O O19 0.415762 0.750000 0.063073
O O20 0.431267 0.000000 0.000000
#
# Coordination Sequence:
#
# PCOD9503346 Si02
#       7
#    16  16  16  16  16   8  16
#     4  10  20  37  60  87 119 156 196 241 290 343
#     4   9  20  38  57  79 109 143 183 226 275 333
#     4  11  23  39  59  86 118 154 195 239 288 345
#     4   9  18  32  51  75 101 135 175 218 268 321
#     4  10  21  37  58  83 109 140 180 226 277 332
#     4   8  16  32  56  82 110 146 186 230 279 330
#     4  10  21  36  53  76 107 142 181 224 271 329
#
# _framework density 19.667119
#
# number of rings (size 3 to 8) (size 9 to 14) (size 15 to 20)
#    0.000    2.308    0.000    3.231    0.000    7.077 
#    1.385    3.077    0.000    0.000    0.000    0.000 
#    0.000    0.000    0.000    0.000    0.000    0.000 
#
# Total GULP energy -290284.030475 kJ/mol
# GULP energy per Si atom -5582.385201 kJ/mol
# Density = 1.962236 g / cm^3
# Si number density = 19.667119 Si / 1000 Ang^3
#
#
#
# Elastic Constant Matrix: (Units=GPa)
#
#
# Indices 1 2 3 4 5 6 
#
# 1 135.2496 19.1789 24.5468 0.0000 0.0000 0.0000
# 2 19.1789 21.3553 10.7903 0.0000 0.0000 0.0000
# 3 24.5468 10.7903 54.2351 0.0000 0.0000 0.0000
# 4 0.0000 0.0000 0.0000 23.3015 0.0000 0.0000
# 5 0.0000 0.0000 0.0000 0.0000 -9.7487 0.0000
# 6 0.0000 0.0000 0.0000 0.0000 0.0000 28.4239
#
#
#
# Elastic Compliance Matrix: (Units=1/GPa)
#
#
# Indices 1 2 3 4 5 6 
#
# 1 0.008810 -0.006557 -0.002683 0.000000 0.000000 0.000000
# 2 -0.006557 0.056940 -0.008361 0.000000 0.000000 0.000000
# 3 -0.002683 -0.008361 0.021316 0.000000 0.000000 0.000000
# 4 0.000000 0.000000 0.000000 0.042916 0.000000 0.000000
# 5 0.000000 0.000000 0.000000 0.000000 -0.102578 0.000000
# 6 0.000000 0.000000 0.000000 0.000000 0.000000 0.035182
#
#
# Mechanical properties :
#
#
# Convention : Reuss Voigt Hill
#
# Bulk Modulus (GPa) = 19.28087 35.54132 27.41110
# Shear Modulus (GPa) = 43.44980 18.81694 31.13337
#
# Velocity S-wave (km/s) = 4.70538 3.09653 3.98303
# Velocity P-wave (km/s) = 6.27261 5.55836 5.92625
#
# Compressibility (1/GPa) = 0.05186487
#
# Stress axis : x y z
#
# Youngs Moduli (GPa) = 113.50111 17.56241 46.91301
#
# Poissons Ratio (x) = 0.11515 0.12587
# Poissons Ratio (y) = 0.74421 0.39223
# Poissons Ratio (z) = 0.30454 0.14684
#
# Static dielectric constant tensor:
#      x y z
#    x 1.705280 0.000000 0.000000 
#    y 0.000000 1.665890 0.000000 
#    z 0.000000 0.000000 1.674740 
# 
# From -- ./inp_files/39962.got.cif
#   From: 2010.05.17/outbox.cif.g08.bks.cpg/sg67_20_cif.got.tgz:39962.got - 2010.06.03 18:28:57.
