data_PCOD9503927
_publ_section_title
;
Structure prediction by ZEFSAII (Michael W. Deem and Ramdas Pophale) SiO2 
 PCOD9503927
Probable space group: C M M A
;
_chemical_formula_sum "Si O2"
_cell_formula_units_Z 72
_cell_length_a 27.848148
_cell_length_b 14.334974
_cell_length_c 8.770305
_cell_angle_alpha 90.000000
_cell_angle_beta 90.000000
_cell_angle_gamma 90.000000
_cell_volume 3501.127485
_symmetry_space_group_name_H-M "C M M A"
_symmetry_group_IT_number 67
_symmetry_cell_setting 'orthorhombic'
loop_
_space_group_symop_operation_xyz
x,y,z
-x,1/2-y,z
x,-y,-z
-x,1/2+y,-z
-x,-y,-z
x,1/2+y,-z
-x,y,z
x,1/2-y,z
1/2+x,1/2+y,z
1/2-x,-y,z
1/2+x,1/2-y,-z
1/2-x,y,-z
1/2-x,1/2-y,-z
1/2+x,y,-z
1/2-x,1/2+y,z
1/2+x,-y,z
loop_
_atom_site_type_symbol
_atom_site_label
_atom_site_fract_x
_atom_site_fract_y
_atom_site_fract_z
Si Si1 0.361592 0.139359 0.555339
Si Si2 0.943181 0.861120 0.773812
Si Si3 0.610564 0.500000 0.000000
Si Si4 0.834568 0.857041 0.215328
Si Si5 0.237613 0.391919 0.331012
O O1 0.361094 0.250000 0.537778
O O2 0.412856 0.113472 0.622528
O O3 0.348718 0.105192 0.385851
O O4 0.319387 0.118730 0.677748
O O5 0.933855 0.750000 0.806784
O O6 0.922636 0.930899 0.900429
O O7 0.000000 0.871738 0.755175
O O8 0.643572 0.430353 0.098908
O O9 0.852165 0.750000 0.194404
O O10 0.776441 0.852518 0.214646
O O11 0.250000 0.500000 0.333191
O O12 0.250000 0.353022 0.500000
#
# Coordination Sequence:
#
# PCOD9503927 Si02
#       5
#    16  16   8  16  16
#     4   9  18  36  61  85 111 148 196 246 290 335
#     4  10  22  41  62  84 113 151 196 245 294 341
#     4  12  23  38  59  84 122 160 192 230 288 356
#     4  10  21  37  59  88 120 154 193 237 289 351
#     4   9  16  29  54  86 116 146 183 228 280 338
#
# _framework density 20.564803999999999
#
# number of rings (size 3 to 8) (size 9 to 14) (size 15 to 20)
#    0.000    2.222    0.000    3.000    0.000    5.333 
#    0.000    8.333    0.000   13.333    0.000    0.000 
#    0.000    0.000    0.000    0.000    0.000    0.000 
#
# Total GULP energy -200794.510400 kJ/mol
# GULP energy per Si atom -5577.625289 kJ/mol
# Density = 2.051800 g / cm^3
# Si number density = 20.564804 Si / 1000 Ang^3
#
#
#
# Elastic Constant Matrix: (Units=GPa)
#
#
# Indices 1 2 3 4 5 6 
#
# 1 147.0430 58.6165 65.4379 0.0000 0.0000 0.0000
# 2 58.6165 109.9420 49.7321 0.0000 0.0000 0.0000
# 3 65.4379 49.7321 74.5915 0.0000 0.0000 0.0000
# 4 0.0000 0.0000 0.0000 28.8461 0.0000 0.0000
# 5 0.0000 0.0000 0.0000 0.0000 26.6618 0.0000
# 6 0.0000 0.0000 0.0000 0.0000 0.0000 28.6885
#
#
#
# Elastic Compliance Matrix: (Units=1/GPa)
#
#
# Indices 1 2 3 4 5 6 
#
# 1 0.011533 -0.002251 -0.008617 0.000000 0.000000 0.000000
# 2 -0.002251 0.013463 -0.007001 0.000000 0.000000 0.000000
# 3 -0.008617 -0.007001 0.025633 0.000000 0.000000 0.000000
# 4 0.000000 0.000000 0.000000 0.034667 0.000000 0.000000
# 5 0.000000 0.000000 0.000000 0.000000 0.037507 0.000000
# 6 0.000000 0.000000 0.000000 0.000000 0.000000 0.034857
#
#
# Mechanical properties :
#
#
# Convention : Reuss Voigt Hill
#
# Bulk Modulus (GPa) = 67.15355 75.46105 71.30730
# Shear Modulus (GPa) = 25.20653 27.35861 26.28257
#
# Velocity S-wave (km/s) = 3.50482 3.65137 3.57884
# Velocity P-wave (km/s) = 7.00741 7.38584 7.19911
#
# Compressibility (1/GPa) = 0.01489125
#
# Stress axis : x y z
#
# Youngs Moduli (GPa) = 86.71004 74.27842 39.01150
#
# Poissons Ratio (x) = 0.16720 0.33615
# Poissons Ratio (y) = 0.19519 0.27313
# Poissons Ratio (z) = 0.74715 0.52004
#
# Static dielectric constant tensor:
#      x y z
#    x 1.740070 0.000000 0.000000 
#    y 0.000000 1.769610 0.000000 
#    z 0.000000 0.000000 1.758240 
# 
# From -- ./inp_files/13323.got.cif
#   From: 2010.05.17/outbox.cif.g08.bks.cpg/sg67_7_cif.got.tgz:13323.got - 2010.06.03 18:28:57.
