data_PCOD9503994
_publ_section_title
;
Structure prediction by ZEFSAII (Michael W. Deem and Ramdas Pophale) SiO2 
 PCOD9503994
Probable space group: C M M A
;
_chemical_formula_sum "Si O2"
_cell_formula_units_Z 72
_cell_length_a 23.428808
_cell_length_b 28.933683
_cell_length_c 5.265633
_cell_angle_alpha 90.000000
_cell_angle_beta 90.000000
_cell_angle_gamma 90.000000
_cell_volume 3569.476269
_symmetry_space_group_name_H-M "C M M A"
_symmetry_group_IT_number 67
_symmetry_cell_setting 'orthorhombic'
loop_
_space_group_symop_operation_xyz
x,y,z
-x,1/2-y,z
x,-y,-z
-x,1/2+y,-z
-x,-y,-z
x,1/2+y,-z
-x,y,z
x,1/2-y,z
1/2+x,1/2+y,z
1/2-x,-y,z
1/2+x,1/2-y,-z
1/2-x,y,-z
1/2-x,1/2-y,-z
1/2+x,y,-z
1/2-x,1/2+y,z
1/2+x,-y,z
loop_
_atom_site_type_symbol
_atom_site_label
_atom_site_fract_x
_atom_site_fract_y
_atom_site_fract_z
Si Si1 0.810953 0.750000 0.160877
Si Si2 0.213746 0.146776 0.745204
Si Si3 0.399954 0.894534 0.728102
Si Si4 0.436461 0.850736 0.234923
Si Si5 0.565541 0.750000 0.120995
Si Si6 0.500000 0.968804 0.750119
O O1 0.809371 0.699798 0.298583
O O2 0.750000 0.750000 0.000000
O O3 0.873504 0.750000 0.025498
O O4 0.250000 0.134803 0.500000
O O5 0.166313 0.107580 0.794529
O O6 0.250000 0.149780 0.000000
O O7 0.399300 0.877466 0.437497
O O8 0.442626 0.937481 0.750376
O O9 0.424569 0.858787 0.938486
O O10 0.500000 0.867986 0.287742
O O11 0.433186 0.796549 0.282916
O O12 0.500000 0.750000 0.998824
O O13 0.500000 0.000000 0.500000
O O14 0.500000 0.000000 0.000000
#
# Coordination Sequence:
#
# PCOD9503994 Si02
#       6
#     8  16  16  16   8   8
#     4  10  21  38  58  92 135 186 242 273 311 356
#     4  11  24  41  63  94 133 185 234 272 313 376
#     4  12  23  42  69  92 134 168 215 274 340 402
#     4  11  21  38  59  94 132 177 218 260 326 388
#     4  10  22  36  59  93 140 185 237 282 323 382
#     4  12  26  46  74 105 128 157 208 280 368 434
#
# _framework density 20.171026999999999
#
# number of rings (size 3 to 8) (size 9 to 14) (size 15 to 20)
#    0.000    0.889    4.444    3.000    3.111    1.778 
#    0.000    3.333    0.000    4.000    0.000    0.000 
#    0.000    0.000    0.000    0.000    0.000    0.000 
#
# Total GULP energy -200525.962339 kJ/mol
# GULP energy per Si atom -5570.165621 kJ/mol
# Density = 2.012512 g / cm^3
# Si number density = 20.171027 Si / 1000 Ang^3
#
#
#
# Elastic Constant Matrix: (Units=GPa)
#
#
# Indices 1 2 3 4 5 6 
#
# 1 130.5086 44.6678 26.2926 0.0000 0.0000 0.0000
# 2 44.6678 96.5710 33.2148 0.0000 0.0000 0.0000
# 3 26.2926 33.2148 69.8198 0.0000 0.0000 0.0000
# 4 0.0000 0.0000 0.0000 15.9428 0.0000 0.0000
# 5 0.0000 0.0000 0.0000 0.0000 31.5606 0.0000
# 6 0.0000 0.0000 0.0000 0.0000 0.0000 11.5365
#
#
#
# Elastic Compliance Matrix: (Units=1/GPa)
#
#
# Indices 1 2 3 4 5 6 
#
# 1 0.009276 -0.003693 -0.001736 0.000000 0.000000 0.000000
# 2 -0.003693 0.013851 -0.005199 0.000000 0.000000 0.000000
# 3 -0.001736 -0.005199 0.017449 0.000000 0.000000 0.000000
# 4 0.000000 0.000000 0.000000 0.062724 0.000000 0.000000
# 5 0.000000 0.000000 0.000000 0.000000 0.031685 0.000000
# 6 0.000000 0.000000 0.000000 0.000000 0.000000 0.086682
#
#
# Mechanical properties :
#
#
# Convention : Reuss Voigt Hill
#
# Bulk Modulus (GPa) = 51.75784 56.13889 53.94837
# Shear Modulus (GPa) = 20.05093 24.65624 22.35359
#
# Velocity S-wave (km/s) = 3.15627 3.50002 3.33258
# Velocity P-wave (km/s) = 6.24483 6.65022 6.45071
#
# Compressibility (1/GPa) = 0.01932074
#
# Stress axis : x y z
#
# Youngs Moduli (GPa) = 107.80237 72.19459 57.30838
#
# Poissons Ratio (x) = 0.26665 0.09950
# Poissons Ratio (y) = 0.39817 0.29792
# Poissons Ratio (z) = 0.18716 0.37531
#
# Static dielectric constant tensor:
#      x y z
#    x 1.810130 0.000000 0.000000 
#    y 0.000000 1.735220 0.000000 
#    z 0.000000 0.000000 1.711130 
# 
# From -- ./inp_files/3517.got.cif
#   From: 2010.05.17/outbox.cif.g08.bks.cpg/sg67_2_cif.got.tgz:3517.got - 2010.06.03 18:28:57.
