data_PCOD9503106
_publ_section_title
;
Structure prediction by ZEFSAII (Michael W. Deem and Ramdas Pophale) SiO2 
 PCOD9503106
Probable space group: C M M A
;
_chemical_formula_sum "Si O2"
_cell_formula_units_Z 72
_cell_length_a 8.583106
_cell_length_b 15.545541
_cell_length_c 29.106461
_cell_angle_alpha 90.000000
_cell_angle_beta 90.000000
_cell_angle_gamma 90.000000
_cell_volume 3883.646748
_symmetry_space_group_name_H-M "C M M A"
_symmetry_group_IT_number 67
_symmetry_cell_setting 'orthorhombic'
loop_
_space_group_symop_operation_xyz
x,y,z
-x,1/2-y,z
x,-y,-z
-x,1/2+y,-z
-x,-y,-z
x,1/2+y,-z
-x,y,z
x,1/2-y,z
1/2+x,1/2+y,z
1/2-x,-y,z
1/2+x,1/2-y,-z
1/2-x,y,-z
1/2-x,1/2-y,-z
1/2+x,y,-z
1/2-x,1/2+y,z
1/2+x,-y,z
loop_
_atom_site_type_symbol
_atom_site_label
_atom_site_fract_x
_atom_site_fract_y
_atom_site_fract_z
Si Si1 0.186442 0.750000 0.551637
Si Si2 0.812308 0.094490 0.285016
Si Si3 0.187851 0.750000 0.116268
Si Si4 0.687666 0.250000 0.780894
Si Si5 0.813428 0.595433 0.386898
Si Si6 0.812678 0.405046 0.949328
O O1 0.250000 0.750000 0.500000
O O2 0.248198 0.833701 0.578512
O O3 0.000000 0.750000 0.551619
O O4 0.764963 0.165845 0.248026
O O5 0.744999 0.116022 0.335300
O O6 0.000000 0.092399 0.288224
O O7 0.750000 0.000000 0.272678
O O8 0.248448 0.750000 0.167866
O O9 0.237364 0.834262 0.087705
O O10 0.000000 0.750000 0.117241
O O11 0.500000 0.250000 0.782875
O O12 0.750000 0.500000 0.397800
O O13 0.000000 0.594785 0.387707
O O14 0.750000 0.500000 0.938147
O O15 0.000000 0.407479 0.951174
O O16 0.750000 0.382228 0.000000
#
# Coordination Sequence:
#
# PCOD9503106 Si02
#       6
#     8  16   8   8  16  16
#     4  12  25  42  61  87 121 157 195 240 289 345
#     4  10  20  37  59  85 113 147 189 236 282 332
#     4  10  23  38  54  78 111 145 181 222 273 329
#     4  10  23  38  55  79 112 150 187 226 279 334
#     4  11  22  39  63  91 118 153 195 239 289 342
#     4  10  20  36  57  82 107 139 179 224 271 323
#
# _framework density 18.539276000000001
#
# number of rings (size 3 to 8) (size 9 to 14) (size 15 to 20)
#    0.000    1.556    0.000    7.333    0.000    5.778 
#    0.000    6.667    0.000    0.000    0.000    0.000 
#    0.000    0.000    0.000    0.000    0.000    0.000 
#
# Total GULP energy -201251.509873 kJ/mol
# GULP energy per Si atom -5590.319719 kJ/mol
# Density = 1.849708 g / cm^3
# Si number density = 18.539276 Si / 1000 Ang^3
#
#
#
# Elastic Constant Matrix: (Units=GPa)
#
#
# Indices 1 2 3 4 5 6 
#
# 1 113.9824 60.5119 62.4613 0.0000 0.0000 0.0000
# 2 60.5119 158.8859 153.4005 0.0000 0.0000 0.0000
# 3 62.4613 153.4005 181.9277 0.0000 0.0000 0.0000
# 4 0.0000 0.0000 0.0000 -40.5951 0.0000 0.0000
# 5 0.0000 0.0000 0.0000 0.0000 37.0094 0.0000
# 6 0.0000 0.0000 0.0000 0.0000 0.0000 32.2652
#
#
#
# Elastic Compliance Matrix: (Units=1/GPa)
#
#
# Indices 1 2 3 4 5 6 
#
# 1 0.011055 -0.002936 -0.001320 0.000000 0.000000 0.000000
# 2 -0.002936 0.034633 -0.028194 0.000000 0.000000 0.000000
# 3 -0.001320 -0.028194 0.029723 0.000000 0.000000 0.000000
# 4 0.000000 0.000000 0.000000 -0.024633 0.000000 0.000000
# 5 0.000000 0.000000 0.000000 0.000000 0.027020 0.000000
# 6 0.000000 0.000000 0.000000 0.000000 0.000000 0.030993
#
#
# Mechanical properties :
#
#
# Convention : Reuss Voigt Hill
#
# Bulk Modulus (GPa) = 95.14004 111.94928 103.54466
# Shear Modulus (GPa) = 28.21750 17.63072 22.92411
#
# Velocity S-wave (km/s) = 3.90556 3.08716 3.52023
# Velocity P-wave (km/s) = 8.47156 8.55707 8.51442
#
# Compressibility (1/GPa) = 0.01051082
#
# Stress axis : x y z
#
# Youngs Moduli (GPa) = 90.45413 28.87435 33.64390
#
# Poissons Ratio (x) = 0.08478 0.04441
# Poissons Ratio (y) = 0.26557 0.94856
# Poissons Ratio (z) = 0.11940 0.81409
#
# Static dielectric constant tensor:
#      x y z
#    x 1.626690 0.000000 0.000000 
#    y 0.000000 1.630560 0.000000 
#    z 0.000000 0.000000 1.601660 
# 
# From -- ./inp_files/43127.got.cif
#   From: 2010.05.17/outbox.cif.g08.bks.cpg/sg67_22_cif.got.tgz:43127.got - 2010.06.03 18:28:57.
