data_PCOD9503400
_publ_section_title
;
Structure prediction by ZEFSAII (Michael W. Deem and Ramdas Pophale) SiO2 
 PCOD9503400
Probable space group: C M M A
;
_chemical_formula_sum "Si O2"
_cell_formula_units_Z 72
_cell_length_a 15.265202
_cell_length_b 14.107169
_cell_length_c 16.804384
_cell_angle_alpha 90.000000
_cell_angle_beta 90.000000
_cell_angle_gamma 90.000000
_cell_volume 3618.803668
_symmetry_space_group_name_H-M "C M M A"
_symmetry_group_IT_number 67
_symmetry_cell_setting 'orthorhombic'
loop_
_space_group_symop_operation_xyz
x,y,z
-x,1/2-y,z
x,-y,-z
-x,1/2+y,-z
-x,-y,-z
x,1/2+y,-z
-x,y,z
x,1/2-y,z
1/2+x,1/2+y,z
1/2-x,-y,z
1/2+x,1/2-y,-z
1/2-x,y,-z
1/2-x,1/2-y,-z
1/2+x,y,-z
1/2-x,1/2+y,z
1/2+x,-y,z
loop_
_atom_site_type_symbol
_atom_site_label
_atom_site_fract_x
_atom_site_fract_y
_atom_site_fract_z
Si Si1 0.154003 0.044468 0.246337
Si Si2 0.398323 0.554338 0.421957
Si Si3 0.106503 0.250000 0.874029
Si Si4 0.851844 0.538439 0.082705
Si Si5 0.298879 0.250000 0.581362
Si Si6 0.765952 0.250000 0.247940
O O1 0.111838 0.016871 0.331276
O O2 0.173948 0.156662 0.234609
O O3 0.250000 0.000000 0.252556
O O4 0.111317 0.001782 0.166439
O O5 0.361234 0.500000 0.500000
O O6 0.500000 0.565945 0.437558
O O7 0.355430 0.656235 0.416305
O O8 0.133872 0.151638 0.917073
O O9 0.175747 0.250000 0.800623
O O10 0.000000 0.250000 0.859788
O O11 0.750000 0.500000 0.083926
O O12 0.889503 0.500000 0.000000
O O13 0.250000 0.250000 0.500000
O O14 0.239751 0.250000 0.659497
#
# Coordination Sequence:
#
# PCOD9503400 Si02
#       6
#    16  16   8  16   8   8
#     4  10  20  37  63  89 122 159 209 252 301 374
#     4  10  23  39  59  88 122 157 199 253 308 363
#     4  12  24  40  63  95 133 160 202 269 320 361
#     4  10  22  40  66  94 125 167 212 257 302 376
#     4  10  23  37  63  85 115 160 203 253 298 368
#     4  10  20  40  58  89 118 159 212 245 304 371
#
# _framework density 19.896077999999999
#
# number of rings (size 3 to 8) (size 9 to 14) (size 15 to 20)
#    0.000    1.778    4.444    0.333    6.222    4.000 
#    0.000    1.111    0.000    0.000    0.000    0.000 
#    0.000    0.000    0.000    0.000    0.000    0.000 
#
# Total GULP energy -200409.484856 kJ/mol
# GULP energy per Si atom -5566.930135 kJ/mol
# Density = 1.985079 g / cm^3
# Si number density = 19.896078 Si / 1000 Ang^3
#
#
#
# Elastic Constant Matrix: (Units=GPa)
#
#
# Indices 1 2 3 4 5 6 
#
# 1 61.0729 15.0505 22.2289 0.0000 0.0000 0.0000
# 2 15.0505 143.5941 62.4797 0.0000 0.0000 0.0000
# 3 22.2289 62.4797 186.3377 0.0000 0.0000 0.0000
# 4 0.0000 0.0000 0.0000 32.4276 0.0000 0.0000
# 5 0.0000 0.0000 0.0000 0.0000 -24.7013 0.0000
# 6 0.0000 0.0000 0.0000 0.0000 0.0000 12.6801
#
#
#
# Elastic Compliance Matrix: (Units=1/GPa)
#
#
# Indices 1 2 3 4 5 6 
#
# 1 0.017256 -0.001069 -0.001700 0.000000 0.000000 0.000000
# 2 -0.001069 0.008220 -0.002629 0.000000 0.000000 0.000000
# 3 -0.001700 -0.002629 0.006451 0.000000 0.000000 0.000000
# 4 0.000000 0.000000 0.000000 0.030838 0.000000 0.000000
# 5 0.000000 0.000000 0.000000 0.000000 -0.040484 0.000000
# 6 0.000000 0.000000 0.000000 0.000000 0.000000 0.078864
#
#
# Mechanical properties :
#
#
# Convention : Reuss Voigt Hill
#
# Bulk Modulus (GPa) = 47.32292 65.61367 56.46829
# Shear Modulus (GPa) = 42.02239 23.49764 32.76001
#
# Velocity S-wave (km/s) = 4.60074 3.44032 4.06218
# Velocity P-wave (km/s) = 7.21520 6.98791 7.10246
#
# Compressibility (1/GPa) = 0.02113141
#
# Stress axis : x y z
#
# Youngs Moduli (GPa) = 57.95052 121.65650 155.01940
#
# Poissons Ratio (x) = 0.13004 0.26355
# Poissons Ratio (y) = 0.06194 0.40749
# Poissons Ratio (z) = 0.09852 0.31979
#
# Static dielectric constant tensor:
#      x y z
#    x 1.700990 0.000000 0.000000 
#    y 0.000000 1.785140 0.000000 
#    z 0.000000 0.000000 1.815000 
# 
# From -- ./inp_files/33513.got.cif
#   From: 2010.05.17/outbox.cif.g08.bks.cpg/sg67_17_cif.got.tgz:33513.got - 2010.06.03 18:28:57.
