data_PCOD9503179
_publ_section_title
;
Structure prediction by ZEFSAII (Michael W. Deem and Ramdas Pophale) SiO2 
 PCOD9503179
Probable space group: C M M A
;
_chemical_formula_sum "Si O2"
_cell_formula_units_Z 96
_cell_length_a 28.909557
_cell_length_b 19.120597
_cell_length_c 7.727798
_cell_angle_alpha 90.000000
_cell_angle_beta 90.000000
_cell_angle_gamma 90.000000
_cell_volume 4271.679359
_symmetry_space_group_name_H-M "C M M A"
_symmetry_group_IT_number 67
_symmetry_cell_setting 'orthorhombic'
loop_
_space_group_symop_operation_xyz
x,y,z
-x,1/2-y,z
x,-y,-z
-x,1/2+y,-z
-x,-y,-z
x,1/2+y,-z
-x,y,z
x,1/2-y,z
1/2+x,1/2+y,z
1/2-x,-y,z
1/2+x,1/2-y,-z
1/2-x,y,-z
1/2-x,1/2-y,-z
1/2+x,y,-z
1/2-x,1/2+y,z
1/2+x,-y,z
loop_
_atom_site_type_symbol
_atom_site_label
_atom_site_fract_x
_atom_site_fract_y
_atom_site_fract_z
Si Si1 0.053233 0.833919 0.280014
Si Si2 0.361736 0.670931 0.515169
Si Si3 0.197062 0.169723 0.869590
Si Si4 0.948951 0.421067 0.071915
Si Si5 0.778632 0.905810 0.671122
Si Si6 0.648921 0.437154 0.872375
O O1 0.060661 0.750000 0.259224
O O2 0.089290 0.860225 0.424275
O O3 0.000000 0.845205 0.330830
O O4 0.059890 0.871833 0.095670
O O5 0.369837 0.750000 0.454099
O O6 0.334380 0.671640 0.697590
O O7 0.324933 0.637166 0.384621
O O8 0.203461 0.250000 0.923916
O O9 0.244624 0.134701 0.800864
O O10 0.171028 0.124870 0.013812
O O11 0.902832 0.416689 0.190085
O O12 0.000000 0.402523 0.145266
O O13 0.953195 0.500000 0.000000
O O14 0.750000 0.920828 0.500000
O O15 0.807715 0.967411 0.759446
O O16 0.638654 0.500000 0.000000
#
# Coordination Sequence:
#
# PCOD9503179 Si02
#       6
#    16  16  16  16  16  16
#     4   9  16  29  55  87 116 150 194 243 297 355
#     4   9  17  33  54  81 116 149 187 237 293 347
#     4  10  20  36  59  84 110 151 204 244 282 341
#     4   9  18  34  58  84 113 148 189 239 289 337
#     4  10  22  38  56  80 116 154 190 237 297 349
#     4  11  23  39  60  85 117 152 195 245 292 347
#
# _framework density 22.473596000000001
#
# number of rings (size 3 to 8) (size 9 to 14) (size 15 to 20)
#    0.000    2.333    1.667    1.000    0.000    5.333 
#    0.000    6.667    0.000    0.000    0.000    5.833 
#    0.000    0.000    0.000    0.000    0.000    0.000 
#
# Total GULP energy -267476.735978 kJ/mol
# GULP energy per Si atom -5572.432000 kJ/mol
# Density = 2.242244 g / cm^3
# Si number density = 22.473596 Si / 1000 Ang^3
#
#
#
# Elastic Constant Matrix: (Units=GPa)
#
#
# Indices 1 2 3 4 5 6 
#
# 1 214.5237 24.0989 34.8253 0.0000 0.0000 0.0000
# 2 24.0989 44.1091 4.5313 0.0000 0.0000 0.0000
# 3 34.8253 4.5313 42.8472 0.0000 0.0000 0.0000
# 4 0.0000 0.0000 0.0000 7.3477 0.0000 0.0000
# 5 0.0000 0.0000 0.0000 0.0000 33.0643 0.0000
# 6 0.0000 0.0000 0.0000 0.0000 0.0000 30.5418
#
#
#
# Elastic Compliance Matrix: (Units=1/GPa)
#
#
# Indices 1 2 3 4 5 6 
#
# 1 0.005660 -0.002649 -0.004321 0.000000 0.000000 0.000000
# 2 -0.002649 0.024159 -0.000402 0.000000 0.000000 0.000000
# 3 -0.004321 -0.000402 0.026893 0.000000 0.000000 0.000000
# 4 0.000000 0.000000 0.000000 0.136096 0.000000 0.000000
# 5 0.000000 0.000000 0.000000 0.000000 0.030244 0.000000
# 6 0.000000 0.000000 0.000000 0.000000 0.000000 0.032742
#
#
# Mechanical properties :
#
#
# Convention : Reuss Voigt Hill
#
# Bulk Modulus (GPa) = 23.82654 47.59900 35.71277
# Shear Modulus (GPa) = 17.57297 30.05908 23.81603
#
# Velocity S-wave (km/s) = 2.79935 3.66119 3.25889
# Velocity P-wave (km/s) = 4.59059 6.25287 5.48507
#
# Compressibility (1/GPa) = 0.04197001
#
# Stress axis : x y z
#
# Youngs Moduli (GPa) = 176.66499 41.39160 37.18446
#
# Poissons Ratio (x) = 0.10963 0.16066
# Poissons Ratio (y) = 0.46794 0.01495
# Poissons Ratio (z) = 0.76329 0.01665
#
# Static dielectric constant tensor:
#      x y z
#    x 1.926850 0.000000 0.000000 
#    y 0.000000 1.908830 0.000000 
#    z 0.000000 0.000000 2.098190 
# 
# From -- ./inp_files/13746.got.cif
#   From: 2010.05.17/outbox.cif.g08.bks.cpg/sg67_7_cif.got.tgz:13746.got - 2010.06.03 18:28:57.
