data_PCOD9503691
_publ_section_title
;
Structure prediction by ZEFSAII (Michael W. Deem and Ramdas Pophale) SiO2 
 PCOD9503691
Probable space group: C M M A
;
_chemical_formula_sum "Si O2"
_cell_formula_units_Z 88
_cell_length_a 13.637397
_cell_length_b 13.752651
_cell_length_c 20.499263
_cell_angle_alpha 90.000000
_cell_angle_beta 90.000000
_cell_angle_gamma 90.000000
_cell_volume 3844.644186
_symmetry_space_group_name_H-M "C M M A"
_symmetry_group_IT_number 67
_symmetry_cell_setting 'orthorhombic'
loop_
_space_group_symop_operation_xyz
x,y,z
-x,1/2-y,z
x,-y,-z
-x,1/2+y,-z
-x,-y,-z
x,1/2+y,-z
-x,y,z
x,1/2-y,z
1/2+x,1/2+y,z
1/2-x,-y,z
1/2+x,1/2-y,-z
1/2-x,y,-z
1/2-x,1/2-y,-z
1/2+x,y,-z
1/2-x,1/2+y,z
1/2+x,-y,z
loop_
_atom_site_type_symbol
_atom_site_label
_atom_site_fract_x
_atom_site_fract_y
_atom_site_fract_z
Si Si1 0.618334 0.358974 0.897664
Si Si2 0.883790 0.549939 0.177006
Si Si3 0.250000 0.500000 0.713497
Si Si4 0.605739 0.367695 0.467507
Si Si5 0.114164 0.133151 0.959609
Si Si6 0.307686 0.133146 0.603957
O O1 0.500000 0.352056 0.905343
O O2 0.655181 0.250000 0.885488
O O3 0.631650 0.436704 0.841423
O O4 0.653173 0.396418 0.968924
O O5 0.820897 0.565322 0.241293
O O6 0.846606 0.602843 0.111057
O O7 0.000000 0.570103 0.185820
O O8 0.316153 0.429152 0.668950
O O9 0.500000 0.401116 0.444078
O O10 0.605203 0.250000 0.469654
O O11 0.625031 0.396662 0.542593
O O12 0.698095 0.389853 0.422645
O O13 0.115749 0.250000 0.962753
O O14 0.000000 0.099944 0.956754
O O15 0.317286 0.250000 0.613926
#
# Coordination Sequence:
#
# PCOD9503691 Si02
#       6
#    16  16   8  16  16  16
#     4   8  14  28  53  79  98 124 169 224 278 320
#     4  10  21  36  51  70 103 142 176 214 258 307
#     4  12  26  37  49  76 110 148 186 204 236 310
#     4   8  15  33  63  90 107 130 168 214 263 304
#     4   8  14  28  53  79  98 124 169 224 278 320
#     4   9  20  38  56  79 112 140 167 212 258 296
#
# _framework density 22.888984000000001
#
# number of rings (size 3 to 8) (size 9 to 14) (size 15 to 20)
#    0.000    3.091    0.000    2.727    0.000    6.545 
#    0.000    2.727    0.000    2.182    0.000    0.000 
#    0.000    0.000    0.000    0.000    0.000    0.000 
#
# Total GULP energy -245762.528165 kJ/mol
# GULP energy per Si atom -5585.512004 kJ/mol
# Density = 2.283689 g / cm^3
# Si number density = 22.888984 Si / 1000 Ang^3
#
#
#
# Elastic Constant Matrix: (Units=GPa)
#
#
# Indices 1 2 3 4 5 6 
#
# 1 72.3445 -20.3452 -1.2159 0.0000 0.0000 0.0000
# 2 -20.3452 53.9494 1.7126 0.0000 0.0000 0.0000
# 3 -1.2159 1.7126 77.6574 0.0000 0.0000 0.0000
# 4 0.0000 0.0000 0.0000 24.9516 0.0000 0.0000
# 5 0.0000 0.0000 0.0000 0.0000 4.4801 0.0000
# 6 0.0000 0.0000 0.0000 0.0000 0.0000 18.1261
#
#
#
# Elastic Compliance Matrix: (Units=1/GPa)
#
#
# Indices 1 2 3 4 5 6 
#
# 1 0.015464 0.005828 0.000114 0.000000 0.000000 0.000000
# 2 0.005828 0.020745 -0.000366 0.000000 0.000000 0.000000
# 3 0.000114 -0.000366 0.012887 0.000000 0.000000 0.000000
# 4 0.000000 0.000000 0.000000 0.040078 0.000000 0.000000
# 5 0.000000 0.000000 0.000000 0.000000 0.223208 0.000000
# 6 0.000000 0.000000 0.000000 0.000000 0.000000 0.055169
#
#
# Mechanical properties :
#
#
# Convention : Reuss Voigt Hill
#
# Bulk Modulus (GPa) = 16.59844 18.25046 17.42445
# Shear Modulus (GPa) = 13.28084 24.43155 18.85619
#
# Velocity S-wave (km/s) = 2.41141 3.27064 2.87332
# Velocity P-wave (km/s) = 3.87565 4.71737 4.31707
#
# Compressibility (1/GPa) = 0.06024662
#
# Stress axis : x y z
#
# Youngs Moduli (GPa) = 64.66776 48.20360 77.59799
#
# Poissons Ratio (x) = -0.28093 -0.00881
# Poissons Ratio (y) = -0.37688 0.02842
# Poissons Ratio (z) = -0.00735 0.01765
#
# Static dielectric constant tensor:
#      x y z
#    x 1.931430 0.000000 0.000000 
#    y 0.000000 1.890180 0.000000 
#    z 0.000000 0.000000 1.831700 
# 
# From -- ./inp_files/38306.got.cif
#   From: 2010.05.17/outbox.cif.g08.bks.cpg/sg67_20_cif.got.tgz:38306.got - 2010.06.03 18:28:57.
