data_PCOD9503151
_publ_section_title
;
Structure prediction by ZEFSAII (Michael W. Deem and Ramdas Pophale) SiO2 
 PCOD9503151
Probable space group: C M M A
;
_chemical_formula_sum "Si O2"
_cell_formula_units_Z 64
_cell_length_a 18.287713
_cell_length_b 9.887768
_cell_length_c 19.652989
_cell_angle_alpha 90.000000
_cell_angle_beta 90.000000
_cell_angle_gamma 90.000000
_cell_volume 3553.745121
_symmetry_space_group_name_H-M "C M M A"
_symmetry_group_IT_number 67
_symmetry_cell_setting 'orthorhombic'
loop_
_space_group_symop_operation_xyz
x,y,z
-x,1/2-y,z
x,-y,-z
-x,1/2+y,-z
-x,-y,-z
x,1/2+y,-z
-x,y,z
x,1/2-y,z
1/2+x,1/2+y,z
1/2-x,-y,z
1/2+x,1/2-y,-z
1/2-x,y,-z
1/2-x,1/2-y,-z
1/2+x,y,-z
1/2-x,1/2+y,z
1/2+x,-y,z
loop_
_atom_site_type_symbol
_atom_site_label
_atom_site_fract_x
_atom_site_fract_y
_atom_site_fract_z
Si Si1 0.326076 0.250000 0.585318
Si Si2 0.674323 0.915706 0.937008
Si Si3 0.587459 0.506643 0.348823
Si Si4 0.084778 0.909458 0.200626
Si Si5 0.347121 0.750000 0.576628
O O1 0.364324 0.376406 0.619832
O O2 0.344617 0.250000 0.505102
O O3 0.238844 0.250000 0.596199
O O4 0.681780 0.750000 0.948863
O O5 0.630780 0.933024 0.867041
O O6 0.750000 0.000000 0.928614
O O7 0.638780 0.000000 0.000000
O O8 0.500000 0.529118 0.353887
O O9 0.606047 0.486630 0.269185
O O10 0.610822 0.376474 0.391865
O O11 0.090017 0.750000 0.217281
O O12 0.000000 0.939815 0.186255
#
# Coordination Sequence:
#
# PCOD9503151 Si02
#       5
#     8  16  16  16   8
#     4  11  25  39  57  89 124 145 196 253 305 336
#     4  10  20  36  58  85 117 150 189 233 278 335
#     4  11  22  40  62  86 117 155 200 244 293 354
#     4   9  19  38  60  82 112 151 192 233 282 343
#     4  11  23  41  61  83 116 163 192 241 297 370
#
# _framework density 18.009170000000001
#
# number of rings (size 3 to 8) (size 9 to 14) (size 15 to 20)
#    0.000    1.750    1.250    3.750    0.000    7.500 
#    4.500    0.000    0.000    0.000    0.000    0.000 
#    0.000    0.000    0.000    0.000    0.000    0.000 
#
# Total GULP energy -178390.294887 kJ/mol
# GULP energy per Si atom -5574.696715 kJ/mol
# Density = 1.796818 g / cm^3
# Si number density = 18.009170 Si / 1000 Ang^3
#
#
#
# Elastic Constant Matrix: (Units=GPa)
#
#
# Indices 1 2 3 4 5 6 
#
# 1 67.2182 27.7654 65.2597 0.0000 0.0000 0.0000
# 2 27.7654 91.3807 37.1055 0.0000 0.0000 0.0000
# 3 65.2597 37.1055 123.3893 0.0000 0.0000 0.0000
# 4 0.0000 0.0000 0.0000 -5.3447 0.0000 0.0000
# 5 0.0000 0.0000 0.0000 0.0000 40.4258 0.0000
# 6 0.0000 0.0000 0.0000 0.0000 0.0000 29.2074
#
#
#
# Elastic Compliance Matrix: (Units=1/GPa)
#
#
# Indices 1 2 3 4 5 6 
#
# 1 0.031371 -0.003183 -0.015635 0.000000 0.000000 0.000000
# 2 -0.003183 0.012788 -0.002162 0.000000 0.000000 0.000000
# 3 -0.015635 -0.002162 0.017024 0.000000 0.000000 0.000000
# 4 0.000000 0.000000 0.000000 -0.187103 0.000000 0.000000
# 5 0.000000 0.000000 0.000000 0.000000 0.024737 0.000000
# 6 0.000000 0.000000 0.000000 0.000000 0.000000 0.034238
#
#
# Mechanical properties :
#
#
# Convention : Reuss Voigt Hill
#
# Bulk Modulus (GPa) = 52.02116 60.24994 56.13555
# Shear Modulus (GPa) = -269.13589 22.98154 -123.07718
#
# Velocity S-wave (km/s) = -12.23798 3.57613 -8.27585
# Velocity P-wave (km/s) = 13.06684 7.11192 7.75122
#
# Compressibility (1/GPa) = 0.01922295
#
# Stress axis : x y z
#
# Youngs Moduli (GPa) = 31.87675 78.19592 58.74207
#
# Poissons Ratio (x) = 0.24893 0.91840
# Poissons Ratio (y) = 0.10148 0.12700
# Poissons Ratio (z) = 0.49838 0.16906
#
# Static dielectric constant tensor:
#      x y z
#    x 1.605730 0.000000 0.000000 
#    y 0.000000 1.541500 0.000000 
#    z 0.000000 0.000000 1.617230 
# 
# From -- ./inp_files/34644.got.cif
#   From: 2010.05.17/outbox.cif.g08.bks.cpg/sg67_18_cif.got.tgz:34644.got - 2010.06.03 18:28:57.
