data_PCOD9503436
_publ_section_title
;
Structure prediction by ZEFSAII (Michael W. Deem and Ramdas Pophale) SiO2 
 PCOD9503436
Probable space group: C M M A
;
_chemical_formula_sum "Si O2"
_cell_formula_units_Z 80
_cell_length_a 17.238902
_cell_length_b 24.405525
_cell_length_c 9.943735
_cell_angle_alpha 90.000000
_cell_angle_beta 90.000000
_cell_angle_gamma 90.000000
_cell_volume 4183.572476
_symmetry_space_group_name_H-M "C M M A"
_symmetry_group_IT_number 67
_symmetry_cell_setting 'orthorhombic'
loop_
_space_group_symop_operation_xyz
x,y,z
-x,1/2-y,z
x,-y,-z
-x,1/2+y,-z
-x,-y,-z
x,1/2+y,-z
-x,y,z
x,1/2-y,z
1/2+x,1/2+y,z
1/2-x,-y,z
1/2+x,1/2-y,-z
1/2-x,y,-z
1/2-x,1/2-y,-z
1/2+x,y,-z
1/2-x,1/2+y,z
1/2+x,-y,z
loop_
_atom_site_type_symbol
_atom_site_label
_atom_site_fract_x
_atom_site_fract_y
_atom_site_fract_z
Si Si1 0.865586 0.396534 0.793572
Si Si2 0.343899 0.312715 0.002890
Si Si3 0.707835 0.443633 0.700543
Si Si4 0.416037 0.933740 0.506292
Si Si5 0.590216 0.421714 0.917665
O O1 0.775727 0.407365 0.762196
O O2 0.908855 0.412847 0.658360
O O3 0.872607 0.334958 0.851289
O O4 0.892280 0.431259 0.924342
O O5 0.364256 0.250000 0.977313
O O6 0.383110 0.357590 0.904860
O O7 0.250000 0.317948 0.000000
O O8 0.750000 0.500000 0.659480
O O9 0.658778 0.417215 0.580144
O O10 0.644925 0.454369 0.816874
O O11 0.500000 0.916233 0.450638
O O12 0.414585 0.000000 0.500000
O O13 0.500000 0.429647 0.891227
#
# Coordination Sequence:
#
# PCOD9503436 Si02
#       5
#    16  16  16  16  16
#     4  10  20  38  59  84 112 153 198 243 282 351
#     4   9  18  37  62  89 117 149 194 246 299 353
#     4  12  22  38  55  82 116 163 195 234 288 353
#     4  11  23  38  56  81 114 153 194 241 292 347
#     4  10  21  38  58  89 118 147 193 250 296 339
#
# _framework density 19.122413000000002
#
# number of rings (size 3 to 8) (size 9 to 14) (size 15 to 20)
#    1.200    0.400    4.000    2.400    0.000    2.000 
#    0.000    1.000    0.000    3.600    0.000    0.000 
#    0.000    0.000    0.000    0.000    0.000    0.000 
#
# Total GULP energy -222873.480702 kJ/mol
# GULP energy per Si atom -5571.837018 kJ/mol
# Density = 1.907889 g / cm^3
# Si number density = 19.122413 Si / 1000 Ang^3
#
#
#
# Elastic Constant Matrix: (Units=GPa)
#
#
# Indices 1 2 3 4 5 6 
#
# 1 135.0612 -0.2638 35.5604 0.0000 0.0000 0.0000
# 2 -0.2638 49.4415 11.9277 0.0000 0.0000 0.0000
# 3 35.5604 11.9277 94.5650 0.0000 0.0000 0.0000
# 4 0.0000 0.0000 0.0000 18.6029 0.0000 0.0000
# 5 0.0000 0.0000 0.0000 0.0000 19.9067 0.0000
# 6 0.0000 0.0000 0.0000 0.0000 0.0000 3.3970
#
#
#
# Elastic Compliance Matrix: (Units=1/GPa)
#
#
# Indices 1 2 3 4 5 6 
#
# 1 0.008250 0.000817 -0.003205 0.000000 0.000000 0.000000
# 2 0.000817 0.020942 -0.002949 0.000000 0.000000 0.000000
# 3 -0.003205 -0.002949 0.012152 0.000000 0.000000 0.000000
# 4 0.000000 0.000000 0.000000 0.053755 0.000000 0.000000
# 5 0.000000 0.000000 0.000000 0.000000 0.050234 0.000000
# 6 0.000000 0.000000 0.000000 0.000000 0.000000 0.294373
#
#
# Mechanical properties :
#
#
# Convention : Reuss Voigt Hill
#
# Bulk Modulus (GPa) = 32.60543 41.50182 37.05362
# Shear Modulus (GPa) = 10.85534 23.83755 17.34644
#
# Velocity S-wave (km/s) = 2.38518 3.53452 3.01512
# Velocity P-wave (km/s) = 4.96723 6.19737 5.61608
#
# Compressibility (1/GPa) = 0.03066974
#
# Stress axis : x y z
#
# Youngs Moduli (GPa) = 121.21848 47.75171 82.29109
#
# Poissons Ratio (x) = -0.03903 0.26377
# Poissons Ratio (y) = -0.09907 0.24266
# Poissons Ratio (z) = 0.38854 0.14081
#
# Static dielectric constant tensor:
#      x y z
#    x 1.696550 0.000000 0.000000 
#    y 0.000000 1.669770 0.000000 
#    z 0.000000 0.000000 1.702840 
# 
# From -- ./inp_files/10121.got.cif
#   From: 2010.05.17/outbox.cif.g08.bks.cpg/sg67_6_cif.got.tgz:10121.got - 2010.06.03 18:28:57.
