data_PCOD9503753
_publ_section_title
;
Structure prediction by ZEFSAII (Michael W. Deem and Ramdas Pophale) SiO2 
 PCOD9503753
Probable space group: C M M A
;
_chemical_formula_sum "Si O2"
_cell_formula_units_Z 80
_cell_length_a 26.310348
_cell_length_b 28.819166
_cell_length_c 5.008587
_cell_angle_alpha 90.000000
_cell_angle_beta 90.000000
_cell_angle_gamma 90.000000
_cell_volume 3797.722459
_symmetry_space_group_name_H-M "C M M A"
_symmetry_group_IT_number 67
_symmetry_cell_setting 'orthorhombic'
loop_
_space_group_symop_operation_xyz
x,y,z
-x,1/2-y,z
x,-y,-z
-x,1/2+y,-z
-x,-y,-z
x,1/2+y,-z
-x,y,z
x,1/2-y,z
1/2+x,1/2+y,z
1/2-x,-y,z
1/2+x,1/2-y,-z
1/2-x,y,-z
1/2-x,1/2-y,-z
1/2+x,y,-z
1/2-x,1/2+y,z
1/2+x,-y,z
loop_
_atom_site_type_symbol
_atom_site_label
_atom_site_fract_x
_atom_site_fract_y
_atom_site_fract_z
Si Si1 0.699637 0.196461 0.676050
Si Si2 0.443669 0.644330 0.034398
Si Si3 0.308990 0.551496 0.574985
Si Si4 0.662052 0.106176 0.921831
Si Si5 0.412897 0.698090 0.540597
O O1 0.702935 0.250000 0.778174
O O2 0.750000 0.187216 0.500000
O O3 0.689607 0.156558 0.897770
O O4 0.648173 0.194528 0.497140
O O5 0.500000 0.626125 0.986007
O O6 0.396027 0.611130 0.986961
O O7 0.437843 0.662527 0.334947
O O8 0.431659 0.686664 0.835074
O O9 0.327513 0.500000 0.500000
O O10 0.250000 0.552972 0.500000
O O11 0.336322 0.587094 0.377837
O O12 0.313302 0.569647 0.876051
O O13 0.427435 0.750000 0.464989
#
# Coordination Sequence:
#
# PCOD9503753 Si02
#       5
#    16  16  16  16  16
#     4   9  19  37  60  90 131 172 206 241 290 362
#     4  11  23  38  57  82 114 156 202 250 302 348
#     4  11  24  42  67  96 122 151 193 248 308 365
#     4  11  22  40  64  90 123 161 201 247 301 358
#     4  10  21  36  55  82 115 156 208 255 293 340
#
# _framework density 21.065255000000001
#
# number of rings (size 3 to 8) (size 9 to 14) (size 15 to 20)
#    0.000    1.600    0.000    5.400    0.000    6.400 
#    0.000    4.000    0.000   34.200    0.000    0.000 
#    0.000    0.000    0.000    0.000    0.000    0.000 
#
# Total GULP energy -223551.937647 kJ/mol
# GULP energy per Si atom -5588.798441 kJ/mol
# Density = 2.101731 g / cm^3
# Si number density = 21.065255 Si / 1000 Ang^3
#
#
#
# Elastic Constant Matrix: (Units=GPa)
#
#
# Indices 1 2 3 4 5 6 
#
# 1 116.7746 17.8793 2.8015 0.0000 0.0000 0.0000
# 2 17.8793 96.5424 15.1030 0.0000 0.0000 0.0000
# 3 2.8015 15.1030 58.5159 0.0000 0.0000 0.0000
# 4 0.0000 0.0000 0.0000 26.9303 0.0000 0.0000
# 5 0.0000 0.0000 0.0000 0.0000 19.5406 0.0000
# 6 0.0000 0.0000 0.0000 0.0000 0.0000 2.0319
#
#
#
# Elastic Compliance Matrix: (Units=1/GPa)
#
#
# Indices 1 2 3 4 5 6 
#
# 1 0.008813 -0.001632 -0.000001 0.000000 0.000000 0.000000
# 2 -0.001632 0.011096 -0.002786 0.000000 0.000000 0.000000
# 3 -0.000001 -0.002786 0.017808 0.000000 0.000000 0.000000
# 4 0.000000 0.000000 0.000000 0.037133 0.000000 0.000000
# 5 0.000000 0.000000 0.000000 0.000000 0.051176 0.000000
# 6 0.000000 0.000000 0.000000 0.000000 0.000000 0.492146
#
#
# Mechanical properties :
#
#
# Convention : Reuss Voigt Hill
#
# Bulk Modulus (GPa) = 34.62506 38.15563 36.39034
# Shear Modulus (GPa) = 7.85378 25.43716 16.64547
#
# Velocity S-wave (km/s) = 1.93298 3.47874 2.81407
# Velocity P-wave (km/s) = 4.63191 5.85559 5.27932
#
# Compressibility (1/GPa) = 0.02888082
#
# Stress axis : x y z
#
# Youngs Moduli (GPa) = 113.46343 90.12086 56.15320
#
# Poissons Ratio (x) = 0.14709 0.00004
# Poissons Ratio (y) = 0.18518 0.15643
# Poissons Ratio (z) = 0.00008 0.25106
#
# Static dielectric constant tensor:
#      x y z
#    x 1.774980 0.000000 0.000000 
#    y 0.000000 1.780640 0.000000 
#    z 0.000000 0.000000 1.746220 
# 
# From -- ./inp_files/3536.got.cif
#   From: 2010.05.17/outbox.cif.g08.bks.cpg/sg67_2_cif.got.tgz:3536.got - 2010.06.03 18:28:57.
