data_PCOD9503393
_publ_section_title
;
Structure prediction by ZEFSAII (Michael W. Deem and Ramdas Pophale) SiO2 
 PCOD9503393
Probable space group: C M M A
;
_chemical_formula_sum "Si O2"
_cell_formula_units_Z 104
_cell_length_a 8.467794
_cell_length_b 31.053122
_cell_length_c 20.770708
_cell_angle_alpha 90.000000
_cell_angle_beta 90.000000
_cell_angle_gamma 90.000000
_cell_volume 5461.687582
_symmetry_space_group_name_H-M "C M M A"
_symmetry_group_IT_number 67
_symmetry_cell_setting 'orthorhombic'
loop_
_space_group_symop_operation_xyz
x,y,z
-x,1/2-y,z
x,-y,-z
-x,1/2+y,-z
-x,-y,-z
x,1/2+y,-z
-x,y,z
x,1/2-y,z
1/2+x,1/2+y,z
1/2-x,-y,z
1/2+x,1/2-y,-z
1/2-x,y,-z
1/2-x,1/2-y,-z
1/2+x,y,-z
1/2-x,1/2+y,z
1/2+x,-y,z
loop_
_atom_site_type_symbol
_atom_site_label
_atom_site_fract_x
_atom_site_fract_y
_atom_site_fract_z
Si Si1 0.189971 0.250000 0.071323
Si Si2 0.312757 0.665239 0.862930
Si Si3 0.691641 0.700265 0.721814
Si Si4 0.691148 0.889667 0.681827
Si Si5 0.188184 0.047526 0.428057
Si Si6 0.311557 0.954221 0.794694
Si Si7 0.686018 0.920638 0.072890
O O1 0.269196 0.291624 0.101106
O O2 0.000000 0.250000 0.078043
O O3 0.250000 0.250000 0.000000
O O4 0.500000 0.655196 0.863207
O O5 0.267942 0.678629 0.790463
O O6 0.225850 0.627008 0.900138
O O7 0.500000 0.703192 0.719406
O O8 0.749400 0.750000 0.715014
O O9 0.741806 0.660548 0.676167
O O10 0.500000 0.889734 0.682951
O O11 0.750758 0.917813 0.622689
O O12 0.741324 0.915083 0.747644
O O13 0.250000 0.056618 0.500000
O O14 0.000000 0.046698 0.428736
O O15 0.250000 0.000000 0.410010
O O16 0.500000 0.954219 0.794276
O O17 0.256275 0.948762 0.868545
O O18 0.250000 0.000000 0.769572
O O19 0.500000 0.927487 0.070406
O O20 0.750000 0.926672 0.000000
#
# Coordination Sequence:
#
# PCOD9503393 Si02
#       7
#     8  16  16  16  16  16  16
#     4  12  24  36  50  76 106 142 185 240 303 368
#     4  11  20  37  59  80 107 144 189 242 302 365
#     4   9  17  33  60  89 116 153 196 240 292 349
#     4  10  20  37  62  92 126 161 198 243 293 350
#     4  11  22  38  62  94 131 168 204 244 290 347
#     4  11  23  40  61  87 117 153 197 246 300 359
#     4  12  25  41  59  80 109 147 194 247 305 366
#
# _framework density 19.041733000000001
#
# number of rings (size 3 to 8) (size 9 to 14) (size 15 to 20)
#    0.000    1.231    2.308    5.769    0.000    2.769 
#    0.000    1.538    0.000    0.462    0.000    0.000 
#    0.000    0.000    0.000    0.000    0.000    0.000 
#
# Total GULP energy -290124.088183 kJ/mol
# GULP energy per Si atom -5579.309388 kJ/mol
# Density = 1.899839 g / cm^3
# Si number density = 19.041733 Si / 1000 Ang^3
#
#
#
# Elastic Constant Matrix: (Units=GPa)
#
#
# Indices 1 2 3 4 5 6 
#
# 1 48.1940 20.9672 20.1839 0.0000 0.0000 0.0000
# 2 20.9672 147.9930 62.5152 0.0000 0.0000 0.0000
# 3 20.1839 62.5152 93.9694 0.0000 0.0000 0.0000
# 4 0.0000 0.0000 0.0000 36.6315 0.0000 0.0000
# 5 0.0000 0.0000 0.0000 0.0000 15.2422 0.0000
# 6 0.0000 0.0000 0.0000 0.0000 0.0000 23.3892
#
#
#
# Elastic Compliance Matrix: (Units=1/GPa)
#
#
# Indices 1 2 3 4 5 6 
#
# 1 0.023082 -0.001635 -0.003870 0.000000 0.000000 0.000000
# 2 -0.001635 0.009514 -0.005978 0.000000 0.000000 0.000000
# 3 -0.003870 -0.005978 0.015450 0.000000 0.000000 0.000000
# 4 0.000000 0.000000 0.000000 0.027299 0.000000 0.000000
# 5 0.000000 0.000000 0.000000 0.000000 0.065607 0.000000
# 6 0.000000 0.000000 0.000000 0.000000 0.000000 0.042755
#
#
# Mechanical properties :
#
#
# Convention : Reuss Voigt Hill
#
# Bulk Modulus (GPa) = 39.87392 55.27654 47.57523
# Shear Modulus (GPa) = 23.25221 27.48525 25.36873
#
# Velocity S-wave (km/s) = 3.49824 3.80336 3.65399
# Velocity P-wave (km/s) = 6.10759 6.95554 6.54531
#
# Compressibility (1/GPa) = 0.02507905
#
# Stress axis : x y z
#
# Youngs Moduli (GPa) = 43.32449 105.10736 64.72473
#
# Poissons Ratio (x) = 0.17190 0.25047
# Poissons Ratio (y) = 0.07086 0.38693
# Poissons Ratio (z) = 0.16765 0.62835
#
# Static dielectric constant tensor:
#      x y z
#    x 1.651760 0.000000 0.000000 
#    y 0.000000 1.684440 0.000000 
#    z 0.000000 0.000000 1.667320 
# 
# From -- ./inp_files/37554.got.cif
#   From: 2010.05.17/outbox.cif.g08.bks.cpg/sg67_19_cif.got.tgz:37554.got - 2010.06.03 18:28:57.
