data_PCOD9503388
_publ_section_title
;
Structure prediction by ZEFSAII (Michael W. Deem and Ramdas Pophale) SiO2 
 PCOD9503388
Probable space group: C M M A
;
_chemical_formula_sum "Si O2"
_cell_formula_units_Z 72
_cell_length_a 22.608216
_cell_length_b 8.562061
_cell_length_c 19.089492
_cell_angle_alpha 90.000000
_cell_angle_beta 90.000000
_cell_angle_gamma 90.000000
_cell_volume 3695.208794
_symmetry_space_group_name_H-M "C M M A"
_symmetry_group_IT_number 67
_symmetry_cell_setting 'orthorhombic'
loop_
_space_group_symop_operation_xyz
x,y,z
-x,1/2-y,z
x,-y,-z
-x,1/2+y,-z
-x,-y,-z
x,1/2+y,-z
-x,y,z
x,1/2-y,z
1/2+x,1/2+y,z
1/2-x,-y,z
1/2+x,1/2-y,-z
1/2-x,y,-z
1/2-x,1/2-y,-z
1/2+x,y,-z
1/2-x,1/2+y,z
1/2+x,-y,z
loop_
_atom_site_type_symbol
_atom_site_label
_atom_site_fract_x
_atom_site_fract_y
_atom_site_fract_z
Si Si1 0.500000 0.935772 0.922320
Si Si2 0.186247 0.938404 0.579484
Si Si3 0.400129 0.437106 0.821350
Si Si4 0.684100 0.064245 0.072415
Si Si5 0.432540 0.059892 0.663399
O O1 0.500000 0.750000 0.923734
O O2 0.554516 0.999429 0.878251
O O3 0.500000 0.000000 0.000000
O O4 0.188519 0.750000 0.580113
O O5 0.125342 0.988206 0.618579
O O6 0.182512 0.000000 0.500000
O O7 0.250000 0.000000 0.608027
O O8 0.399168 0.250000 0.821719
O O9 0.340453 0.503659 0.853676
O O10 0.419290 0.486806 0.743731
O O11 0.681417 0.250000 0.069424
O O12 0.750000 0.000000 0.069847
O O13 0.654545 0.000000 0.000000
O O14 0.500000 0.008597 0.643618
O O15 0.433646 0.250000 0.660866
#
# Coordination Sequence:
#
# PCOD9503388 Si02
#       5
#     8  16  16  16  16
#     4  12  24  38  56  82 111 148 195 244 291 344
#     4  10  20  37  62  90 122 157 198 243 292 353
#     4  11  21  38  60  82 111 150 191 238 295 353
#     4  11  22  38  57  81 111 146 191 242 296 355
#     4   9  19  37  61  87 117 157 199 243 298 358
#
# _framework density 19.484691000000002
#
# number of rings (size 3 to 8) (size 9 to 14) (size 15 to 20)
#    0.000    1.556    1.111    6.333    0.000    1.333 
#    0.000    6.667    0.000    0.000    0.000    0.000 
#    0.000    0.000    0.000    0.000    0.000    0.000 
#
# Total GULP energy -200751.503383 kJ/mol
# GULP energy per Si atom -5576.430650 kJ/mol
# Density = 1.944034 g / cm^3
# Si number density = 19.484691 Si / 1000 Ang^3
#
#
#
# Elastic Constant Matrix: (Units=GPa)
#
#
# Indices 1 2 3 4 5 6 
#
# 1 160.2975 25.0771 74.9099 0.0000 0.0000 0.0000
# 2 25.0771 90.7840 24.9395 0.0000 0.0000 0.0000
# 3 74.9099 24.9395 96.6096 0.0000 0.0000 0.0000
# 4 0.0000 0.0000 0.0000 9.7108 0.0000 0.0000
# 5 0.0000 0.0000 0.0000 0.0000 -0.5229 0.0000
# 6 0.0000 0.0000 0.0000 0.0000 0.0000-1416.1139
#
#
#
# Elastic Compliance Matrix: (Units=1/GPa)
#
#
# Indices 1 2 3 4 5 6 
#
# 1 0.009821 -0.000668 -0.007443 0.000000 0.000000 0.000000
# 2 -0.000668 0.011901 -0.002554 0.000000 0.000000 0.000000
# 3 -0.007443 -0.002554 0.016781 0.000000 0.000000 0.000000
# 4 0.000000 0.000000 0.000000 0.102978 0.000000 0.000000
# 5 0.000000 0.000000 0.000000 0.000000 -1.912499 0.000000
# 6 0.000000 0.000000 0.000000 0.000000 0.000000 -0.000706
#
#
# Mechanical properties :
#
#
# Convention : Reuss Voigt Hill
#
# Bulk Modulus (GPa) = 58.22894 66.39380 62.31137
# Shear Modulus (GPa) = -2.86587 -266.53421 -134.70004
#
# Velocity S-wave (km/s) = -1.21409 -11.70848 -8.32354
# Velocity P-wave (km/s) = 5.28999 12.19163 7.76698
#
# Compressibility (1/GPa) = 0.01717359
#
# Stress axis : x y z
#
# Youngs Moduli (GPa) = 101.82275 84.02372 59.59063
#
# Poissons Ratio (x) = 0.05615 0.44351
# Poissons Ratio (y) = 0.06805 0.15220
# Poissons Ratio (z) = 0.75782 0.21461
#
# Static dielectric constant tensor:
#      x y z
#    x 1.759980 0.000000 0.000000 
#    y 0.000000 1.650480 0.000000 
#    z 0.000000 0.000000 1.663510 
# 
# From -- ./inp_files/31984.got.cif
#   From: 2010.05.17/outbox.cif.g08.bks.cpg/sg67_16_cif.got.tgz:31984.got - 2010.06.03 18:28:57.
