data_PCOD9503846
_publ_section_title
;
Structure prediction by ZEFSAII (Michael W. Deem and Ramdas Pophale) SiO2 
 PCOD9503846
Probable space group: C M M A
;
_chemical_formula_sum "Si O2"
_cell_formula_units_Z 52
_cell_length_a 33.184961
_cell_length_b 14.039186
_cell_length_c 6.665228
_cell_angle_alpha 90.000000
_cell_angle_beta 90.000000
_cell_angle_gamma 90.000000
_cell_volume 3105.262006
_symmetry_space_group_name_H-M "C M M A"
_symmetry_group_IT_number 67
_symmetry_cell_setting 'orthorhombic'
loop_
_space_group_symop_operation_xyz
x,y,z
-x,1/2-y,z
x,-y,-z
-x,1/2+y,-z
-x,-y,-z
x,1/2+y,-z
-x,y,z
x,1/2-y,z
1/2+x,1/2+y,z
1/2-x,-y,z
1/2+x,1/2-y,-z
1/2-x,y,-z
1/2-x,1/2-y,-z
1/2+x,y,-z
1/2-x,1/2+y,z
1/2+x,-y,z
loop_
_atom_site_type_symbol
_atom_site_label
_atom_site_fract_x
_atom_site_fract_y
_atom_site_fract_z
Si Si1 0.000000 0.250000 0.615165
Si Si2 0.205179 0.750000 0.404956
Si Si3 0.296115 0.888807 0.951618
Si Si4 0.000000 0.386225 0.992606
Si Si5 0.443710 0.250000 0.765765
Si Si6 0.651819 0.250000 0.791154
O O1 0.037685 0.250000 0.459556
O O2 0.000000 0.340018 0.768735
O O3 0.250000 0.750000 0.500000
O O4 0.172180 0.750000 0.575743
O O5 0.198948 0.844350 0.269194
O O6 0.329295 0.838567 0.088799
O O7 0.250000 0.859846 0.000000
O O8 0.298587 0.000000 0.000000
O O9 0.037687 0.340341 0.113889
O O10 0.000000 0.500000 0.000000
O O11 0.395949 0.250000 0.775863
#
# Coordination Sequence:
#
# PCOD9503846 Si02
#       6
#     4   8  16   8   8   8
#     4   8  18  38  56  82 114 142 176 220 276 338
#     4  11  19  36  57  76 105 152 190 234 290 329
#     4  10  21  37  55  78 110 148 194 239 280 330
#     4   9  19  39  64  82 108 149 179 219 286 350
#     4   9  21  35  56  88 114 144 183 226 279 339
#     4  11  21  37  55  82 116 146 188 236 278 330
#
# _framework density 16.745768000000002
#
# number of rings (size 3 to 8) (size 9 to 14) (size 15 to 20)
#    0.000    2.462    3.077    0.923    0.000    9.846 
#    0.000    3.077    0.000    0.000    0.000    0.000 
#    0.000    0.000    0.000    0.000    0.000    0.000 
#
# Total GULP energy -144772.920881 kJ/mol
# GULP energy per Si atom -5568.189265 kJ/mol
# Density = 1.670765 g / cm^3
# Si number density = 16.745768 Si / 1000 Ang^3
#
#
#
# Elastic Constant Matrix: (Units=GPa)
#
#
# Indices 1 2 3 4 5 6 
#
# 1 189.8672 59.6889 80.4657 0.0000 0.0000 0.0000
# 2 59.6889 162.0692 65.8329 0.0000 0.0000 0.0000
# 3 80.4657 65.8329 151.5068 0.0000 0.0000 0.0000
# 4 0.0000 0.0000 0.0000 -1.8641 0.0000 0.0000
# 5 0.0000 0.0000 0.0000 0.0000 14.8191 0.0000
# 6 0.0000 0.0000 0.0000 0.0000 0.0000 14.1338
#
#
#
# Elastic Compliance Matrix: (Units=1/GPa)
#
#
# Indices 1 2 3 4 5 6 
#
# 1 0.007015 -0.001300 -0.003161 0.000000 0.000000 0.000000
# 2 -0.001300 0.007733 -0.002670 0.000000 0.000000 0.000000
# 3 -0.003161 -0.002670 0.009439 0.000000 0.000000 0.000000
# 4 0.000000 0.000000 0.000000 -0.536438 0.000000 0.000000
# 5 0.000000 0.000000 0.000000 0.000000 0.067480 0.000000
# 6 0.000000 0.000000 0.000000 0.000000 0.000000 0.070752
#
#
# Mechanical properties :
#
#
# Convention : Reuss Voigt Hill
#
# Bulk Modulus (GPa) = 100.74099 101.71313 101.22706
# Shear Modulus (GPa) = -14.02733 25.24815 5.61041
#
# Velocity S-wave (km/s) = -2.89738 3.88717 1.83238
# Velocity P-wave (km/s) = 7.00689 9.00101 8.06582
#
# Compressibility (1/GPa) = 0.00992645
#
# Stress axis : x y z
#
# Youngs Moduli (GPa) = 142.55117 129.30859 105.93876
#
# Poissons Ratio (x) = 0.16805 0.33487
# Poissons Ratio (y) = 0.18526 0.28287
# Poissons Ratio (z) = 0.45061 0.34527
#
# Static dielectric constant tensor:
#      x y z
#    x 1.558100 0.000000 0.000000 
#    y 0.000000 1.548830 0.000000 
#    z 0.000000 0.000000 1.569480 
# 
# From -- ./inp_files/4494.got.cif
#   From: 2010.05.17/outbox.cif.g08.bks.cpg/sg67_3_cif.got.tgz:4494.got - 2010.06.03 18:28:57.
