data_PCOD9503924
_publ_section_title
;
Structure prediction by ZEFSAII (Michael W. Deem and Ramdas Pophale) SiO2 
 PCOD9503924
Probable space group: C M M A
;
_chemical_formula_sum "Si O2"
_cell_formula_units_Z 64
_cell_length_a 18.578684
_cell_length_b 14.728575
_cell_length_c 10.289087
_cell_angle_alpha 90.000000
_cell_angle_beta 90.000000
_cell_angle_gamma 90.000000
_cell_volume 2815.480463
_symmetry_space_group_name_H-M "C M M A"
_symmetry_group_IT_number 67
_symmetry_cell_setting 'orthorhombic'
loop_
_space_group_symop_operation_xyz
x,y,z
-x,1/2-y,z
x,-y,-z
-x,1/2+y,-z
-x,-y,-z
x,1/2+y,-z
-x,y,z
x,1/2-y,z
1/2+x,1/2+y,z
1/2-x,-y,z
1/2+x,1/2-y,-z
1/2-x,y,-z
1/2-x,1/2-y,-z
1/2+x,y,-z
1/2-x,1/2+y,z
1/2+x,-y,z
loop_
_atom_site_type_symbol
_atom_site_label
_atom_site_fract_x
_atom_site_fract_y
_atom_site_fract_z
Si Si1 0.169425 0.643337 0.705173
Si Si2 0.081999 0.518950 0.196414
Si Si3 0.300540 0.145809 0.125062
Si Si4 0.581217 0.855768 0.548176
O O1 0.159938 0.750000 0.735676
O O2 0.116241 0.579107 0.784224
O O3 0.250619 0.621053 0.750153
O O4 0.144154 0.630565 0.556685
O O5 0.133254 0.579628 0.108625
O O6 0.085288 0.573860 0.334318
O O7 0.000000 0.515431 0.155375
O O8 0.323904 0.250000 0.139461
O O9 0.250000 0.139774 0.000000
O O10 0.500000 0.866556 0.488755
O O11 0.585429 0.750000 0.591690
#
# Coordination Sequence:
#
# PCOD9503924 Si02
#       4
#    16  16  16  16
#     4  10  21  37  59  87 122 163 199 237 292 354
#     4  11  22  37  62  92 121 155 197 246 299 356
#     4  10  23  44  65  85 115 155 200 251 300 349
#     4   9  18  34  57  88 125 158 193 243 300 357
#
# _framework density 22.731466000000001
#
# number of rings (size 3 to 8) (size 9 to 14) (size 15 to 20)
#    0.000    2.000    0.000    3.000    0.000    8.000 
#    0.000   10.000    0.000    9.000    0.000    0.000 
#    0.000    0.000    0.000    0.000    0.000    0.000 
#
# Total GULP energy -179022.373773 kJ/mol
# GULP energy per Si atom -5594.449180 kJ/mol
# Density = 2.267973 g / cm^3
# Si number density = 22.731466 Si / 1000 Ang^3
#
#
#
# Elastic Constant Matrix: (Units=GPa)
#
#
# Indices 1 2 3 4 5 6 
#
# 1 99.4576 44.5358 2.0086 0.0000 0.0000 0.0000
# 2 44.5358 81.4151 5.5500 0.0000 0.0000 0.0000
# 3 2.0086 5.5500 43.3106 0.0000 0.0000 0.0000
# 4 0.0000 0.0000 0.0000 27.1865 0.0000 0.0000
# 5 0.0000 0.0000 0.0000 0.0000 12.5363 0.0000
# 6 0.0000 0.0000 0.0000 0.0000 0.0000 20.5152
#
#
#
# Elastic Compliance Matrix: (Units=1/GPa)
#
#
# Indices 1 2 3 4 5 6 
#
# 1 0.013321 -0.007308 0.000319 0.000000 0.000000 0.000000
# 2 -0.007308 0.016401 -0.001763 0.000000 0.000000 0.000000
# 3 0.000319 -0.001763 0.023300 0.000000 0.000000 0.000000
# 4 0.000000 0.000000 0.000000 0.036783 0.000000 0.000000
# 5 0.000000 0.000000 0.000000 0.000000 0.079769 0.000000
# 6 0.000000 0.000000 0.000000 0.000000 0.000000 0.048744
#
#
# Mechanical properties :
#
#
# Convention : Reuss Voigt Hill
#
# Bulk Modulus (GPa) = 28.15567 36.48579 32.32073
# Shear Modulus (GPa) = 20.18886 23.52018 21.85452
#
# Velocity S-wave (km/s) = 2.98341 3.22016 3.10404
# Velocity P-wave (km/s) = 4.92755 5.46914 5.20540
#
# Compressibility (1/GPa) = 0.03551682
#
# Stress axis : x y z
#
# Youngs Moduli (GPa) = 75.07092 60.97274 42.91820
#
# Poissons Ratio (x) = 0.44562 -0.01368
# Poissons Ratio (y) = 0.54865 0.07565
# Poissons Ratio (z) = -0.02393 0.10748
#
# Static dielectric constant tensor:
#      x y z
#    x 1.820600 0.000000 0.000000 
#    y 0.000000 1.813810 0.000000 
#    z 0.000000 0.000000 1.913900 
# 
# From -- ./inp_files/17491.got.cif
#   From: 2010.05.17/outbox.cif.g08.bks.cpg/sg67_9_cif.got.tgz:17491.got - 2010.06.03 18:28:57.
