data_PCOD9503704
_publ_section_title
;
Structure prediction by ZEFSAII (Michael W. Deem and Ramdas Pophale) SiO2 
 PCOD9503704
Probable space group: C M M A
;
_chemical_formula_sum "Si O2"
_cell_formula_units_Z 88
_cell_length_a 8.696820
_cell_length_b 16.922886
_cell_length_c 30.822255
_cell_angle_alpha 90.000000
_cell_angle_beta 90.000000
_cell_angle_gamma 90.000000
_cell_volume 4536.274424
_symmetry_space_group_name_H-M "C M M A"
_symmetry_group_IT_number 67
_symmetry_cell_setting 'orthorhombic'
loop_
_space_group_symop_operation_xyz
x,y,z
-x,1/2-y,z
x,-y,-z
-x,1/2+y,-z
-x,-y,-z
x,1/2+y,-z
-x,y,z
x,1/2-y,z
1/2+x,1/2+y,z
1/2-x,-y,z
1/2+x,1/2-y,-z
1/2-x,y,-z
1/2-x,1/2-y,-z
1/2+x,y,-z
1/2-x,1/2+y,z
1/2+x,-y,z
loop_
_atom_site_type_symbol
_atom_site_label
_atom_site_fract_x
_atom_site_fract_y
_atom_site_fract_z
Si Si1 0.313384 0.411222 0.093822
Si Si2 0.687247 0.412957 0.634534
Si Si3 0.817755 0.584492 0.194467
Si Si4 0.825345 0.342153 0.275666
Si Si5 0.823862 0.844800 0.544388
Si Si6 0.314008 0.750000 0.048809
O O1 0.500000 0.412376 0.089423
O O2 0.250000 0.500000 0.081242
O O3 0.270295 0.400049 0.144728
O O4 0.247165 0.332893 0.070017
O O5 0.500000 0.408225 0.635877
O O6 0.750000 0.500000 0.629772
O O7 0.742175 0.381696 0.681242
O O8 0.741689 0.368023 0.591236
O O9 0.750000 0.500000 0.207328
O O10 0.762428 0.644123 0.231006
O O11 0.000000 0.580649 0.194408
O O12 0.832471 0.250000 0.285262
O O13 0.000000 0.372122 0.269110
O O14 0.820916 0.750000 0.542389
O O15 0.750000 0.875599 0.500000
O O16 0.000000 0.871571 0.544057
O O17 0.500000 0.750000 0.050043
O O18 0.250000 0.750000 0.000000
#
# Coordination Sequence:
#
# PCOD9503704 Si02
#       6
#    16  16  16  16  16   8
#     4  10  22  42  66  95 131 171 215 265 320 378
#     4  10  21  36  53  74 104 140 178 222 274 329
#     4  10  21  37  59  86 119 155 194 241 293 348
#     4  10  21  36  55  80 110 147 189 232 281 342
#     4   9  18  34  55  76  99 130 169 216 269 327
#     4  12  26  44  68  98 132 172 218 268 321 378
#
# _framework density 19.399180000000001
#
# number of rings (size 3 to 8) (size 9 to 14) (size 15 to 20)
#    0.000    2.000    0.000    3.000    1.273    8.364 
#    0.000    3.636    0.000    3.273    0.000    0.000 
#    0.000    0.000    0.000    0.000    0.000    0.000 
#
# Total GULP energy -245251.521442 kJ/mol
# GULP energy per Si atom -5573.898215 kJ/mol
# Density = 1.935503 g / cm^3
# Si number density = 19.399180 Si / 1000 Ang^3
#
#
#
# Elastic Constant Matrix: (Units=GPa)
#
#
# Indices 1 2 3 4 5 6 
#
# 1 43.9076 29.9275 31.7313 0.0000 0.0000 0.0000
# 2 29.9275 63.1571 44.8061 0.0000 0.0000 0.0000
# 3 31.7313 44.8061 100.2241 0.0000 0.0000 0.0000
# 4 0.0000 0.0000 0.0000 67.3970 0.0000 0.0000
# 5 0.0000 0.0000 0.0000 0.0000 18.2697 0.0000
# 6 0.0000 0.0000 0.0000 0.0000 0.0000 18.1816
#
#
#
# Elastic Compliance Matrix: (Units=1/GPa)
#
#
# Indices 1 2 3 4 5 6 
#
# 1 0.035568 -0.012983 -0.005457 0.000000 0.000000 0.000000
# 2 -0.012983 0.027927 -0.008375 0.000000 0.000000 0.000000
# 3 -0.005457 -0.008375 0.015449 0.000000 0.000000 0.000000
# 4 0.000000 0.000000 0.000000 0.014837 0.000000 0.000000
# 5 0.000000 0.000000 0.000000 0.000000 0.054735 0.000000
# 6 0.000000 0.000000 0.000000 0.000000 0.000000 0.055001
#
#
# Mechanical properties :
#
#
# Convention : Reuss Voigt Hill
#
# Bulk Modulus (GPa) = 39.50156 46.69096 43.09626
# Shear Modulus (GPa) = 18.82643 27.49124 23.15883
#
# Velocity S-wave (km/s) = 3.11862 3.76857 3.45890
# Velocity P-wave (km/s) = 5.77706 6.56178 6.18188
#
# Compressibility (1/GPa) = 0.02531546
#
# Stress axis : x y z
#
# Youngs Moduli (GPa) = 28.11531 35.80790 64.72832
#
# Poissons Ratio (x) = 0.46489 0.35321
# Poissons Ratio (y) = 0.36502 0.54207
# Poissons Ratio (z) = 0.15342 0.29987
#
# Static dielectric constant tensor:
#      x y z
#    x 1.693180 0.000000 0.000000 
#    y 0.000000 1.664120 0.000000 
#    z 0.000000 0.000000 1.697020 
# 
# From -- ./inp_files/45191.got.cif
#   From: 2010.05.17/outbox.cif.g08.bks.cpg/sg67_23_cif.got.tgz:45191.got - 2010.06.03 18:28:57.
