data_PCOD9503689
_publ_section_title
;
Structure prediction by ZEFSAII (Michael W. Deem and Ramdas Pophale) SiO2 
 PCOD9503689
Probable space group: C M M A
;
_chemical_formula_sum "Si O2"
_cell_formula_units_Z 64
_cell_length_a 13.087231
_cell_length_b 27.110636
_cell_length_c 8.547145
_cell_angle_alpha 90.000000
_cell_angle_beta 90.000000
_cell_angle_gamma 90.000000
_cell_volume 3032.554020
_symmetry_space_group_name_H-M "C M M A"
_symmetry_group_IT_number 67
_symmetry_cell_setting 'orthorhombic'
loop_
_space_group_symop_operation_xyz
x,y,z
-x,1/2-y,z
x,-y,-z
-x,1/2+y,-z
-x,-y,-z
x,1/2+y,-z
-x,y,z
x,1/2-y,z
1/2+x,1/2+y,z
1/2-x,-y,z
1/2+x,1/2-y,-z
1/2-x,y,-z
1/2-x,1/2-y,-z
1/2+x,y,-z
1/2-x,1/2+y,z
1/2+x,-y,z
loop_
_atom_site_type_symbol
_atom_site_label
_atom_site_fract_x
_atom_site_fract_y
_atom_site_fract_z
Si Si1 0.500000 0.055062 0.785623
Si Si2 0.175819 0.627743 0.131140
Si Si3 0.500000 0.558273 0.833602
Si Si4 0.500000 0.692532 0.402691
Si Si5 0.329193 0.879108 0.379696
Si Si6 0.500000 0.807412 0.022976
O O1 0.402458 0.081973 0.708027
O O2 0.500000 0.996360 0.766178
O O3 0.500000 0.060735 0.974772
O O4 0.101943 0.587668 0.209948
O O5 0.256279 0.648199 0.254847
O O6 0.099595 0.666379 0.050090
O O7 0.250000 0.604334 0.000000
O O8 0.500000 0.750000 0.443396
O O9 0.598212 0.661848 0.457423
O O10 0.500000 0.687482 0.211740
O O11 0.250000 0.902746 0.500000
O O12 0.500000 0.750000 0.985207
#
# Coordination Sequence:
#
# PCOD9503689 Si02
#       6
#     8  16   8   8  16   8
#     4  10  21  41  59  92 119 155 207 255 313 360
#     4  11  19  38  61  89 119 160 211 247 307 366
#     4  10  21  37  65  90 119 149 208 270 294 358
#     4  10  21  39  61  90 124 164 211 257 307 363
#     4  11  23  40  62  88 127 169 198 252 318 376
#     4  10  21  35  61  96 126 155 208 271 302 354
#
# _framework density 21.104323000000001
#
# number of rings (size 3 to 8) (size 9 to 14) (size 15 to 20)
#    0.000    1.500    5.000    1.500    0.000    7.000 
#    0.000    5.000    0.000    0.000    0.000    0.000 
#    0.000    0.000    0.000    0.000    0.000    0.000 
#
# Total GULP energy -178624.724550 kJ/mol
# GULP energy per Si atom -5582.022642 kJ/mol
# Density = 2.105629 g / cm^3
# Si number density = 21.104323 Si / 1000 Ang^3
#
#
#
# Elastic Constant Matrix: (Units=GPa)
#
#
# Indices 1 2 3 4 5 6 
#
# 1 166.4422 60.3493 39.2054 0.0000 0.0000 0.0000
# 2 60.3493 142.4119 10.9127 0.0000 0.0000 0.0000
# 3 39.2054 10.9127 41.6158 0.0000 0.0000 0.0000
# 4 0.0000 0.0000 0.0000 17.4112 0.0000 0.0000
# 5 0.0000 0.0000 0.0000 0.0000 31.9868 0.0000
# 6 0.0000 0.0000 0.0000 0.0000 0.0000 3.1580
#
#
#
# Elastic Compliance Matrix: (Units=1/GPa)
#
#
# Indices 1 2 3 4 5 6 
#
# 1 0.008965 -0.003217 -0.007602 0.000000 0.000000 0.000000
# 2 -0.003217 0.008320 0.000849 0.000000 0.000000 0.000000
# 3 -0.007602 0.000849 0.030969 0.000000 0.000000 0.000000
# 4 0.000000 0.000000 0.000000 0.057434 0.000000 0.000000
# 5 0.000000 0.000000 0.000000 0.000000 0.031263 0.000000
# 6 0.000000 0.000000 0.000000 0.000000 0.000000 0.316657
#
#
# Mechanical properties :
#
#
# Convention : Reuss Voigt Hill
#
# Bulk Modulus (GPa) = 35.31928 63.48943 49.40436
# Shear Modulus (GPa) = 10.35225 26.51135 18.43180
#
# Velocity S-wave (km/s) = 2.21719 3.54814 2.95848
# Velocity P-wave (km/s) = 4.82975 6.85089 5.92710
#
# Compressibility (1/GPa) = 0.02831315
#
# Stress axis : x y z
#
# Youngs Moduli (GPa) = 111.54359 120.19336 32.29047
#
# Poissons Ratio (x) = 0.38661 0.24548
# Poissons Ratio (y) = 0.35879 -0.02740
# Poissons Ratio (z) = 0.84800 -0.10199
#
# Static dielectric constant tensor:
#      x y z
#    x 1.745870 0.000000 0.000000 
#    y 0.000000 1.726520 0.000000 
#    z 0.000000 0.000000 1.833760 
# 
# From -- ./inp_files/6775.got.cif
#   From: 2010.05.17/outbox.cif.g08.bks.cpg/sg67_4_cif.got.tgz:6775.got - 2010.06.03 18:28:57.
