data_PCOD9503883
_publ_section_title
;
Structure prediction by ZEFSAII (Michael W. Deem and Ramdas Pophale) SiO2 
 PCOD9503883
Probable space group: C M M A
;
_chemical_formula_sum "Si O2"
_cell_formula_units_Z 68
_cell_length_a 9.402761
_cell_length_b 15.135196
_cell_length_c 22.291588
_cell_angle_alpha 90.000000
_cell_angle_beta 90.000000
_cell_angle_gamma 90.000000
_cell_volume 3172.374530
_symmetry_space_group_name_H-M "C M M A"
_symmetry_group_IT_number 67
_symmetry_cell_setting 'orthorhombic'
loop_
_space_group_symop_operation_xyz
x,y,z
-x,1/2-y,z
x,-y,-z
-x,1/2+y,-z
-x,-y,-z
x,1/2+y,-z
-x,y,z
x,1/2-y,z
1/2+x,1/2+y,z
1/2-x,-y,z
1/2+x,1/2-y,-z
1/2-x,y,-z
1/2-x,1/2-y,-z
1/2+x,y,-z
1/2-x,1/2+y,z
1/2+x,-y,z
loop_
_atom_site_type_symbol
_atom_site_label
_atom_site_fract_x
_atom_site_fract_y
_atom_site_fract_z
Si Si1 0.329708 0.094004 0.670873
Si Si2 0.250000 0.000000 0.000000
Si Si3 0.656531 0.652139 0.911737
Si Si4 0.167651 0.092975 0.196382
Si Si5 0.839812 0.146255 0.555261
O O1 0.500000 0.086355 0.661263
O O2 0.308650 0.133996 0.737507
O O3 0.252374 0.139982 0.615588
O O4 0.250000 0.000000 0.673266
O O5 0.330093 0.930494 0.956768
O O6 0.500000 0.646109 0.883254
O O7 0.665696 0.750000 0.940378
O O8 0.773251 0.645493 0.860092
O O9 0.000000 0.077813 0.190256
O O10 0.250000 0.000000 0.194529
O O11 0.856975 0.250000 0.542429
O O12 0.750000 0.106965 0.500000
O O13 0.000000 0.108410 0.561611
#
# Coordination Sequence:
#
# PCOD9503883 Si02
#       5
#    16   4  16  16  16
#     4  10  21  37  59  88 120 157 201 251 307 367
#     4  12  24  44  72  96 130 180 214 264 318 378
#     4  11  25  43  66  98 133 170 215 265 320 383
#     4  10  21  39  64  91 124 164 206 258 317 376
#     4  10  21  37  57  82 115 157 203 254 311 369
#
# _framework density 21.435047999999998
#
# number of rings (size 3 to 8) (size 9 to 14) (size 15 to 20)
#    0.000    1.647    1.176    2.824    0.000    7.059 
#    0.000    7.059    0.000    0.000    0.000    0.000 
#    0.000    0.000    0.000    0.000    0.000    0.000 
#
# Total GULP energy -189656.604496 kJ/mol
# GULP energy per Si atom -5578.135426 kJ/mol
# Density = 2.138626 g / cm^3
# Si number density = 21.435048 Si / 1000 Ang^3
#
#
#
# Elastic Constant Matrix: (Units=GPa)
#
#
# Indices 1 2 3 4 5 6 
#
# 1 166.4987 25.1200 80.4920 0.0000 0.0000 0.0000
# 2 25.1200 94.4041 30.3366 0.0000 0.0000 0.0000
# 3 80.4920 30.3366 121.0591 0.0000 0.0000 0.0000
# 4 0.0000 0.0000 0.0000 22.0596 0.0000 0.0000
# 5 0.0000 0.0000 0.0000 0.0000 21.6317 0.0000
# 6 0.0000 0.0000 0.0000 0.0000 0.0000 20.9737
#
#
#
# Elastic Compliance Matrix: (Units=1/GPa)
#
#
# Indices 1 2 3 4 5 6 
#
# 1 0.008873 -0.000506 -0.005773 0.000000 0.000000 0.000000
# 2 -0.000506 0.011549 -0.002558 0.000000 0.000000 0.000000
# 3 -0.005773 -0.002558 0.012740 0.000000 0.000000 0.000000
# 4 0.000000 0.000000 0.000000 0.045332 0.000000 0.000000
# 5 0.000000 0.000000 0.000000 0.000000 0.046228 0.000000
# 6 0.000000 0.000000 0.000000 0.000000 0.000000 0.047679
#
#
# Mechanical properties :
#
#
# Convention : Reuss Voigt Hill
#
# Bulk Modulus (GPa) = 64.56216 72.65103 68.60660
# Shear Modulus (GPa) = 25.60978 29.33389 27.47183
#
# Velocity S-wave (km/s) = 3.46028 3.70334 3.58387
# Velocity P-wave (km/s) = 6.79338 7.22865 7.01440
#
# Compressibility (1/GPa) = 0.01548895
#
# Stress axis : x y z
#
# Youngs Moduli (GPa) = 112.69745 86.58513 78.49357
#
# Poissons Ratio (x) = 0.04381 0.45315
# Poissons Ratio (y) = 0.05702 0.20077
# Poissons Ratio (z) = 0.65061 0.22147
#
# Static dielectric constant tensor:
#      x y z
#    x 1.760240 0.000000 0.000000 
#    y 0.000000 1.804920 0.000000 
#    z 0.000000 0.000000 1.794880 
# 
# From -- ./inp_files/36645.got.cif
#   From: 2010.05.17/outbox.cif.g08.bks.cpg/sg67_19_cif.got.tgz:36645.got - 2010.06.03 18:28:57.
