data_PCOD9503819
_publ_section_title
;
Structure prediction by ZEFSAII (Michael W. Deem and Ramdas Pophale) SiO2 
 PCOD9503819
Probable space group: C M M A
;
_chemical_formula_sum "Si O2"
_cell_formula_units_Z 48
_cell_length_a 5.447015
_cell_length_b 14.084762
_cell_length_c 28.965984
_cell_angle_alpha 90.000000
_cell_angle_beta 90.000000
_cell_angle_gamma 90.000000
_cell_volume 2222.267682
_symmetry_space_group_name_H-M "C M M A"
_symmetry_group_IT_number 67
_symmetry_cell_setting 'orthorhombic'
loop_
_space_group_symop_operation_xyz
x,y,z
-x,1/2-y,z
x,-y,-z
-x,1/2+y,-z
-x,-y,-z
x,1/2+y,-z
-x,y,z
x,1/2-y,z
1/2+x,1/2+y,z
1/2-x,-y,z
1/2+x,1/2-y,-z
1/2-x,y,-z
1/2-x,1/2-y,-z
1/2+x,y,-z
1/2-x,1/2+y,z
1/2+x,-y,z
loop_
_atom_site_type_symbol
_atom_site_label
_atom_site_fract_x
_atom_site_fract_y
_atom_site_fract_z
Si Si1 0.500000 0.750000 0.029737
Si Si2 0.000000 0.134267 0.193905
Si Si3 0.000000 0.250000 0.468030
Si Si4 0.500000 0.441260 0.910160
Si Si5 0.000000 0.453030 0.670639
Si Si6 0.500000 0.357546 0.242633
Si Si7 0.500000 0.462854 0.567042
O O1 0.500000 0.655291 0.060644
O O2 0.750000 0.750000 0.000000
O O3 0.000000 0.087929 0.143690
O O4 0.754116 0.105374 0.221471
O O5 0.000000 0.250000 0.189571
O O6 0.250000 0.250000 0.500000
O O7 0.000000 0.347391 0.436929
O O8 0.250000 0.500000 0.919807
O O9 0.250000 0.500000 0.686318
O O10 0.000000 0.476051 0.615867
O O11 0.000000 0.359089 0.701231
O O12 0.500000 0.250000 0.227245
O O13 0.250000 0.500000 0.545861
#
# Coordination Sequence:
#
# PCOD9503819 Si02
#       7
#     4   8   4   8   8   8   8
#     4  12  28  50  74 100 143 182 223 294 350 420
#     4  10  21  40  62  93 138 175 223 284 340 395
#     4  12  26  44  74 108 131 174 229 280 352 418
#     4  12  26  44  72 106 134 183 230 282 349 421
#     4  10  21  39  57  88 129 171 217 267 325 386
#     4  10  21  36  61  93 128 177 228 275 325 397
#     4  10  23  45  66 100 138 179 216 281 338 408
#
# _framework density 21.599556
#
# number of rings (size 3 to 8) (size 9 to 14) (size 15 to 20)
#    0.000    1.333    0.833    4.000    0.000    8.000 
#   12.000    0.000    0.000    0.000    0.000    0.000 
#    0.000    0.000    0.000    0.000    0.000    0.000 
#
# Total GULP energy -133610.045719 kJ/mol
# GULP energy per Si atom -5567.085238 kJ/mol
# Density = 2.155039 g / cm^3
# Si number density = 21.599556 Si / 1000 Ang^3
#
#
#
# Elastic Constant Matrix: (Units=GPa)
#
#
# Indices 1 2 3 4 5 6 
#
# 1 237.9064 68.2602 68.6626 0.0000 0.0000 0.0000
# 2 68.2602 149.6385 65.0607 0.0000 0.0000 0.0000
# 3 68.6626 65.0607 155.8958 0.0000 0.0000 0.0000
# 4 0.0000 0.0000 0.0000 44.5580 0.0000 0.0000
# 5 0.0000 0.0000 0.0000 0.0000 94.2090 0.0000
# 6 0.0000 0.0000 0.0000 0.0000 0.0000 9.9495
#
#
#
# Elastic Compliance Matrix: (Units=1/GPa)
#
#
# Indices 1 2 3 4 5 6 
#
# 1 0.005132 -0.001659 -0.001568 0.000000 0.000000 0.000000
# 2 -0.001659 0.008701 -0.002900 0.000000 0.000000 0.000000
# 3 -0.001568 -0.002900 0.008315 0.000000 0.000000 0.000000
# 4 0.000000 0.000000 0.000000 0.022443 0.000000 0.000000
# 5 0.000000 0.000000 0.000000 0.000000 0.010615 0.000000
# 6 0.000000 0.000000 0.000000 0.000000 0.000000 0.100508
#
#
# Mechanical properties :
#
#
# Convention : Reuss Voigt Hill
#
# Bulk Modulus (GPa) = 101.07908 105.26753 103.17330
# Shear Modulus (GPa) = 29.19440 52.50711 40.85076
#
# Velocity S-wave (km/s) = 3.68043 4.93580 4.35360
# Velocity P-wave (km/s) = 8.05972 9.01802 8.55230
#
# Compressibility (1/GPa) = 0.00989324
#
# Stress axis : x y z
#
# Youngs Moduli (GPa) = 194.85880 114.93317 120.25826
#
# Poissons Ratio (x) = 0.19072 0.18854
# Poissons Ratio (y) = 0.32334 0.34878
# Poissons Ratio (z) = 0.30550 0.33334
#
# Static dielectric constant tensor:
#      x y z
#    x 1.721470 0.000000 0.000000 
#    y 0.000000 1.782750 0.000000 
#    z 0.000000 0.000000 1.848880 
# 
# From -- ./inp_files/43034.got.cif
#   From: 2010.05.17/outbox.cif.g08.bks.cpg/sg67_22_cif.got.tgz:43034.got - 2010.06.03 18:28:57.
