data_PCOD9503678
_publ_section_title
;
Structure prediction by ZEFSAII (Michael W. Deem and Ramdas Pophale) SiO2 
 PCOD9503678
Probable space group: C M M A
;
_chemical_formula_sum "Si O2"
_cell_formula_units_Z 96
_cell_length_a 14.482851
_cell_length_b 14.739009
_cell_length_c 21.634885
_cell_angle_alpha 90.000000
_cell_angle_beta 90.000000
_cell_angle_gamma 90.000000
_cell_volume 4618.244671
_symmetry_space_group_name_H-M "C M M A"
_symmetry_group_IT_number 67
_symmetry_cell_setting 'orthorhombic'
loop_
_space_group_symop_operation_xyz
x,y,z
-x,1/2-y,z
x,-y,-z
-x,1/2+y,-z
-x,-y,-z
x,1/2+y,-z
-x,y,z
x,1/2-y,z
1/2+x,1/2+y,z
1/2-x,-y,z
1/2+x,1/2-y,-z
1/2-x,y,-z
1/2-x,1/2-y,-z
1/2+x,y,-z
1/2-x,1/2+y,z
1/2+x,-y,z
loop_
_atom_site_type_symbol
_atom_site_label
_atom_site_fract_x
_atom_site_fract_y
_atom_site_fract_z
Si Si1 0.390877 0.050107 0.438835
Si Si2 0.887424 0.434950 0.178492
Si Si3 0.180153 0.250000 0.557144
Si Si4 0.686410 0.250000 0.672671
Si Si5 0.389116 0.250000 0.096221
Si Si6 0.278021 0.250000 0.814714
Si Si7 0.109528 0.948964 0.682121
Si Si8 0.111600 0.552413 0.060168
O O1 0.500000 0.031403 0.437653
O O2 0.375904 0.156932 0.444726
O O3 0.353689 0.000000 0.500000
O O4 0.353598 0.010484 0.373934
O O5 0.836946 0.339192 0.167443
O O6 0.859323 0.467633 0.247444
O O7 0.861616 0.504797 0.124480
O O8 0.000000 0.422797 0.177923
O O9 0.250000 0.250000 0.500000
O O10 0.238110 0.250000 0.619874
O O11 0.729493 0.250000 0.740785
O O12 0.629072 0.343200 0.667895
O O13 0.500000 0.250000 0.110115
O O14 0.322796 0.250000 0.155396
O O15 0.365702 0.341698 0.059942
O O16 0.000000 0.962633 0.684138
O O17 0.000000 0.547429 0.059141
O O18 0.145645 0.500000 0.000000
#
# Coordination Sequence:
#
# PCOD9503678 Si02
#       8
#    16  16   8   8   8   8  16  16
#     4  10  22  40  60  81 108 145 187 229 275 330
#     4   9  18  35  60  88 117 149 188 236 286 337
#     4  12  25  38  54  80 113 146 182 228 280 334
#     4  10  21  35  56  86 116 145 181 228 279 328
#     4  10  22  40  58  80 114 152 191 234 283 342
#     4  10  21  37  58  88 118 149 191 236 284 336
#     4   9  18  35  59  84 111 146 187 229 274 326
#     4   9  19  37  60  84 113 151 191 234 287 342
#
# _framework density 20.787118
#
# number of rings (size 3 to 8) (size 9 to 14) (size 15 to 20)
#    0.000    2.333    0.000    1.750    0.000    7.000 
#    0.000   14.167    0.000    0.000    0.000    0.000 
#    0.000    0.000    0.000    0.000    0.000    0.000 
#
# Total GULP energy -268057.391967 kJ/mol
# GULP energy per Si atom -5584.528999 kJ/mol
# Density = 2.073981 g / cm^3
# Si number density = 20.787118 Si / 1000 Ang^3
#
#
#
# Elastic Constant Matrix: (Units=GPa)
#
#
# Indices 1 2 3 4 5 6 
#
# 1 69.8180 14.1311 19.0506 0.0000 0.0000 0.0000
# 2 14.1311 158.6037 105.7288 0.0000 0.0000 0.0000
# 3 19.0506 105.7288 127.7335 0.0000 0.0000 0.0000
# 4 0.0000 0.0000 0.0000 29.8293 0.0000 0.0000
# 5 0.0000 0.0000 0.0000 0.0000 4.3998 0.0000
# 6 0.0000 0.0000 0.0000 0.0000 0.0000 63.4541
#
#
#
# Elastic Compliance Matrix: (Units=1/GPa)
#
#
# Indices 1 2 3 4 5 6 
#
# 1 0.014939 0.000344 -0.002513 0.000000 0.000000 0.000000
# 2 0.000344 0.014075 -0.011701 0.000000 0.000000 0.000000
# 3 -0.002513 -0.011701 0.017889 0.000000 0.000000 0.000000
# 4 0.000000 0.000000 0.000000 0.033524 0.000000 0.000000
# 5 0.000000 0.000000 0.000000 0.000000 0.227283 0.000000
# 6 0.000000 0.000000 0.000000 0.000000 0.000000 0.015759
#
#
# Mechanical properties :
#
#
# Convention : Reuss Voigt Hill
#
# Bulk Modulus (GPa) = 52.18509 70.44179 61.31344
# Shear Modulus (GPa) = 13.98218 34.01962 24.00090
#
# Velocity S-wave (km/s) = 2.59634 4.04985 3.40163
# Velocity P-wave (km/s) = 5.84354 7.47189 6.70731
#
# Compressibility (1/GPa) = 0.01916256
#
# Stress axis : x y z
#
# Youngs Moduli (GPa) = 66.93904 71.04882 55.89952
#
# Poissons Ratio (x) = -0.02445 0.14047
# Poissons Ratio (y) = -0.02304 0.65411
# Poissons Ratio (z) = 0.16821 0.83138
#
# Static dielectric constant tensor:
#      x y z
#    x 1.759440 0.000000 0.000000 
#    y 0.000000 1.728050 0.000000 
#    z 0.000000 0.000000 1.741160 
# 
# From -- ./inp_files/38567.got.cif
#   From: 2010.05.17/outbox.cif.g08.bks.cpg/sg67_20_cif.got.tgz:38567.got - 2010.06.03 18:28:57.
