data_PCOD9503983
_publ_section_title
;
Structure prediction by ZEFSAII (Michael W. Deem and Ramdas Pophale) SiO2 
 PCOD9503983
Probable space group: C M M A
;
_chemical_formula_sum "Si O2"
_cell_formula_units_Z 80
_cell_length_a 18.611150
_cell_length_b 8.736952
_cell_length_c 26.776024
_cell_angle_alpha 90.000000
_cell_angle_beta 90.000000
_cell_angle_gamma 90.000000
_cell_volume 4353.907998
_symmetry_space_group_name_H-M "C M M A"
_symmetry_group_IT_number 67
_symmetry_cell_setting 'orthorhombic'
loop_
_space_group_symop_operation_xyz
x,y,z
-x,1/2-y,z
x,-y,-z
-x,1/2+y,-z
-x,-y,-z
x,1/2+y,-z
-x,y,z
x,1/2-y,z
1/2+x,1/2+y,z
1/2-x,-y,z
1/2+x,1/2-y,-z
1/2-x,y,-z
1/2-x,1/2-y,-z
1/2+x,y,-z
1/2-x,1/2+y,z
1/2+x,-y,z
loop_
_atom_site_type_symbol
_atom_site_label
_atom_site_fract_x
_atom_site_fract_y
_atom_site_fract_z
Si Si1 0.831124 0.933306 0.550354
Si Si2 0.670158 0.432535 0.147624
Si Si3 0.583886 0.564901 0.241251
Si Si4 0.169660 0.065646 0.339712
Si Si5 0.084873 0.932726 0.945709
O O1 0.828223 0.750000 0.546121
O O2 0.860682 0.975087 0.605199
O O3 0.865912 0.000000 0.500000
O O4 0.750000 0.000000 0.551533
O O5 0.673150 0.250000 0.147403
O O6 0.750000 0.500000 0.150308
O O7 0.625414 0.490884 0.195193
O O8 0.631184 0.492282 0.097791
O O9 0.500000 0.524720 0.240303
O O10 0.589383 0.750000 0.237149
O O11 0.620571 0.517920 0.293447
O O12 0.175121 0.250000 0.338725
O O13 0.250000 0.000000 0.334388
O O14 0.094914 0.750000 0.945634
O O15 0.000000 0.963850 0.936995
O O16 0.103391 0.000000 0.000000
#
# Coordination Sequence:
#
# PCOD9503983 Si02
#       5
#    16  16  16  16  16
#     4   9  15  24  40  65  96 128 165 208 257 311
#     4  12  25  40  59  84 114 146 184 228 274 323
#     4  10  21  38  58  79 106 141 180 222 271 327
#     4   9  18  31  49  74 102 134 172 216 265 317
#     4  10  21  39  63  90 120 153 188 225 267 317
#
# _framework density 18.374298
#
# number of rings (size 3 to 8) (size 9 to 14) (size 15 to 20)
#    0.000    2.000    0.000    4.800    0.000    7.600 
#    0.000    2.000    0.000    0.600    0.000    0.000 
#    0.000    0.000    0.000    0.000    0.000    5.400 
#
# Total GULP energy -223280.381330 kJ/mol
# GULP energy per Si atom -5582.009533 kJ/mol
# Density = 1.833248 g / cm^3
# Si number density = 18.374298 Si / 1000 Ang^3
#
#
#
# Elastic Constant Matrix: (Units=GPa)
#
#
# Indices 1 2 3 4 5 6 
#
# 1 106.7658 54.4018 112.0969 0.0000 0.0000 0.0000
# 2 54.4018 67.8410 75.7636 0.0000 0.0000 0.0000
# 3 112.0969 75.7636 224.3664 0.0000 0.0000 0.0000
# 4 0.0000 0.0000 0.0000 40.7363 0.0000 0.0000
# 5 0.0000 0.0000 0.0000 0.0000 37.2412 0.0000
# 6 0.0000 0.0000 0.0000 0.0000 0.0000 20.8127
#
#
#
# Elastic Compliance Matrix: (Units=1/GPa)
#
#
# Indices 1 2 3 4 5 6 
#
# 1 0.022584 -0.008844 -0.008297 0.000000 0.000000 0.000000
# 2 -0.008844 0.027128 -0.004742 0.000000 0.000000 0.000000
# 3 -0.008297 -0.004742 0.010203 0.000000 0.000000 0.000000
# 4 0.000000 0.000000 0.000000 0.024548 0.000000 0.000000
# 5 0.000000 0.000000 0.000000 0.000000 0.026852 0.000000
# 6 0.000000 0.000000 0.000000 0.000000 0.000000 0.048048
#
#
# Mechanical properties :
#
#
# Convention : Reuss Voigt Hill
#
# Bulk Modulus (GPa) = 61.92088 98.16642 80.04365
# Shear Modulus (GPa) = 23.97940 30.20544 27.09242
#
# Velocity S-wave (km/s) = 3.61647 4.05890 3.84405
# Velocity P-wave (km/s) = 7.15621 8.68954 7.95988
#
# Compressibility (1/GPa) = 0.01614964
#
# Stress axis : x y z
#
# Youngs Moduli (GPa) = 44.27941 36.86184 98.00722
#
# Poissons Ratio (x) = 0.32602 0.81313
# Poissons Ratio (y) = 0.39163 0.46473
# Poissons Ratio (z) = 0.36737 0.17479
#
# Static dielectric constant tensor:
#      x y z
#    x 1.596310 0.000000 0.000000 
#    y 0.000000 1.617160 0.000000 
#    z 0.000000 0.000000 1.655570 
# 
# From -- ./inp_files/43311.got.cif
#   From: 2010.05.17/outbox.cif.g08.bks.cpg/sg67_22_cif.got.tgz:43311.got - 2010.06.03 18:28:57.
