data_PCOD9503515
_publ_section_title
;
Structure prediction by ZEFSAII (Michael W. Deem and Ramdas Pophale) SiO2 
 PCOD9503515
Probable space group: C M M A
;
_chemical_formula_sum "Si O2"
_cell_formula_units_Z 104
_cell_length_a 17.900317
_cell_length_b 14.678741
_cell_length_c 18.112325
_cell_angle_alpha 90.000000
_cell_angle_beta 90.000000
_cell_angle_gamma 90.000000
_cell_volume 4759.087963
_symmetry_space_group_name_H-M "C M M A"
_symmetry_group_IT_number 67
_symmetry_cell_setting 'orthorhombic'
loop_
_space_group_symop_operation_xyz
x,y,z
-x,1/2-y,z
x,-y,-z
-x,1/2+y,-z
-x,-y,-z
x,1/2+y,-z
-x,y,z
x,1/2-y,z
1/2+x,1/2+y,z
1/2-x,-y,z
1/2+x,1/2-y,-z
1/2-x,y,-z
1/2-x,1/2-y,-z
1/2+x,y,-z
1/2-x,1/2+y,z
1/2+x,-y,z
loop_
_atom_site_type_symbol
_atom_site_label
_atom_site_fract_x
_atom_site_fract_y
_atom_site_fract_z
Si Si1 0.371586 0.750000 0.084293
Si Si2 0.170328 0.882527 0.791594
Si Si3 0.164365 0.111089 0.504835
Si Si4 0.414403 0.612697 0.354597
Si Si5 0.658451 0.600912 0.807850
Si Si6 0.411065 0.398042 0.031611
Si Si7 0.084960 0.609130 0.345643
O O1 0.377155 0.829076 0.148538
O O2 0.368306 0.671059 0.020682
O O3 0.141641 0.858270 0.710155
O O4 0.257206 0.861419 0.807412
O O5 0.162689 0.991080 0.800373
O O6 0.250000 0.139882 0.500000
O O7 0.115834 0.140740 0.434585
O O8 0.131165 0.139501 0.583280
O O9 0.163696 0.000000 0.500000
O O10 0.500000 0.641613 0.342451
O O11 0.414572 0.501844 0.350538
O O12 0.616080 0.616240 0.884571
O O13 0.618008 0.634630 0.733801
O O14 0.500000 0.378566 0.026153
O O15 0.399014 0.500000 0.000000
O O16 0.000000 0.639277 0.351726
#
# Coordination Sequence:
#
# PCOD9503515 Si02
#       7
#     8  16  16  16  16  16  16
#     4  12  25  45  64  96 120 167 210 268 317 399
#     4  10  22  37  60  87 121 161 207 258 319 385
#     4   9  15  24  42  74 116 161 205 255 310 371
#     4   9  17  29  47  77 119 161 202 256 315 372
#     4  10  20  39  58  87 121 163 205 261 323 383
#     4  11  24  42  64  91 125 163 208 264 325 389
#     4   9  16  27  49  78 114 159 208 254 309 380
#
# _framework density 21.852926
#
# number of rings (size 3 to 8) (size 9 to 14) (size 15 to 20)
#    0.000    2.154    1.538    2.077    0.000    9.231 
#    0.000    0.000    0.000    0.000    0.000    5.923 
#    0.000    0.000    0.000    0.000    0.000    0.000 
#
# Total GULP energy -289600.799694 kJ/mol
# GULP energy per Si atom -5569.246148 kJ/mol
# Density = 2.180319 g / cm^3
# Si number density = 21.852926 Si / 1000 Ang^3
#
#
#
# Elastic Constant Matrix: (Units=GPa)
#
#
# Indices 1 2 3 4 5 6 
#
# 1 33.9713 -13.9626 10.1430 0.0000 0.0000 0.0000
# 2 -13.9626 83.0569 -0.2533 0.0000 0.0000 0.0000
# 3 10.1430 -0.2533 174.9065 0.0000 0.0000 0.0000
# 4 0.0000 0.0000 0.0000 44.4427 0.0000 0.0000
# 5 0.0000 0.0000 0.0000 0.0000 22.0072 0.0000
# 6 0.0000 0.0000 0.0000 0.0000 0.0000 -11.4118
#
#
#
# Elastic Compliance Matrix: (Units=1/GPa)
#
#
# Indices 1 2 3 4 5 6 
#
# 1 0.032216 0.005410 -0.001860 0.000000 0.000000 0.000000
# 2 0.005410 0.012949 -0.000295 0.000000 0.000000 0.000000
# 3 -0.001860 -0.000295 0.005825 0.000000 0.000000 0.000000
# 4 0.000000 0.000000 0.000000 0.022501 0.000000 0.000000
# 5 0.000000 0.000000 0.000000 0.000000 0.045440 0.000000
# 6 0.000000 0.000000 0.000000 0.000000 0.000000 -0.087628
#
#
# Mechanical properties :
#
#
# Convention : Reuss Voigt Hill
#
# Bulk Modulus (GPa) = 17.39180 31.53211 24.46196
# Shear Modulus (GPa) = 113.74507 30.74146 72.24326
#
# Velocity S-wave (km/s) = 7.22241 3.75473 5.75592
# Velocity P-wave (km/s) = 8.80493 5.76696 7.44260
#
# Compressibility (1/GPa) = 0.05749835
#
# Stress axis : x y z
#
# Youngs Moduli (GPa) = 31.04081 77.22890 171.67975
#
# Poissons Ratio (x) = -0.41781 0.31939
# Poissons Ratio (y) = -0.16793 0.05064
# Poissons Ratio (z) = 0.05775 0.02278
#
# Static dielectric constant tensor:
#      x y z
#    x 1.785500 0.000000 0.000000 
#    y 0.000000 1.774960 0.000000 
#    z 0.000000 0.000000 1.747620 
# 
# From -- ./inp_files/29503.got.cif
#   From: 2010.05.17/outbox.cif.g08.bks.cpg/sg67_15_cif.got.tgz:29503.got - 2010.06.03 18:28:57.
