data_PCOD9503607
_publ_section_title
;
Structure prediction by ZEFSAII (Michael W. Deem and Ramdas Pophale) SiO2 
 PCOD9503607
Probable space group: C M M A
;
_chemical_formula_sum "Si O2"
_cell_formula_units_Z 116
_cell_length_a 24.881607
_cell_length_b 31.153585
_cell_length_c 7.428011
_cell_angle_alpha 90.000000
_cell_angle_beta 90.000000
_cell_angle_gamma 90.000000
_cell_volume 5757.832076
_symmetry_space_group_name_H-M "C M M A"
_symmetry_group_IT_number 67
_symmetry_cell_setting 'orthorhombic'
loop_
_space_group_symop_operation_xyz
x,y,z
-x,1/2-y,z
x,-y,-z
-x,1/2+y,-z
-x,-y,-z
x,1/2+y,-z
-x,y,z
x,1/2-y,z
1/2+x,1/2+y,z
1/2-x,-y,z
1/2+x,1/2-y,-z
1/2-x,y,-z
1/2-x,1/2-y,-z
1/2+x,y,-z
1/2-x,1/2+y,z
1/2+x,-y,z
loop_
_atom_site_type_symbol
_atom_site_label
_atom_site_fract_x
_atom_site_fract_y
_atom_site_fract_z
Si Si1 0.714860 0.198936 0.268917
Si Si2 0.750000 0.000000 0.500000
Si Si3 0.174609 0.843344 0.609449
Si Si4 0.937766 0.056187 0.675054
Si Si5 0.440603 0.140009 0.128253
Si Si6 0.138898 0.700000 0.951115
Si Si7 0.438815 0.945596 0.083382
Si Si8 0.848796 0.055354 0.382198
O O1 0.724829 0.250000 0.299173
O O2 0.767215 0.170785 0.310918
O O3 0.672980 0.180557 0.417409
O O4 0.693316 0.194272 0.067106
O O5 0.792635 0.970745 0.611399
O O6 0.136376 0.823530 0.760762
O O7 0.166739 0.894318 0.601185
O O8 0.930339 0.107437 0.706910
O O9 0.888919 0.043873 0.548016
O O10 0.000000 0.049040 0.614409
O O11 0.933798 0.036571 0.877417
O O12 0.500000 0.156583 0.149337
O O13 0.402823 0.178516 0.084726
O O14 0.438627 0.105584 0.963624
O O15 0.131048 0.750000 0.923534
O O16 0.500000 0.954893 0.150560
O O17 0.387820 0.952241 0.210945
#
# Coordination Sequence:
#
# PCOD9503607 Si02
#       8
#    16   4  16  16  16  16  16  16
#     4  10  21  34  49  76 112 145 196 256 285 317
#     4  12  32  44  56  96 134 158 192 242 306 400
#     4  11  20  34  57  76 101 154 201 234 279 354
#     4   8  17  36  67  94 110 143 203 252 288 349
#     4   8  16  33  54  86 116 140 190 242 282 343
#     4  11  20  32  52  81 115 153 194 242 295 339
#     4   8  17  37  67  93 111 144 203 253 286 348
#     4  12  22  42  61  83 125 161 192 243 311 368
#
# _framework density 20.146471999999999
#
# number of rings (size 3 to 8) (size 9 to 14) (size 15 to 20)
#    0.828    1.379    1.379    4.138    0.000    1.379 
#    0.000    3.448    0.000    1.655    0.000    1.931 
#    0.000    0.000    0.000    0.000    0.000    0.000 
#
# Total GULP energy -322960.753678 kJ/mol
# GULP energy per Si atom -5568.288857 kJ/mol
# Density = 2.010062 g / cm^3
# Si number density = 20.146472 Si / 1000 Ang^3
#
#
#
# Elastic Constant Matrix: (Units=GPa)
#
#
# Indices 1 2 3 4 5 6 
#
# 1 109.1251 44.1392 43.4557 0.0000 0.0000 0.0000
# 2 44.1392 113.2858 33.5880 0.0000 0.0000 0.0000
# 3 43.4557 33.5880 79.0260 0.0000 0.0000 0.0000
# 4 0.0000 0.0000 0.0000 -123.7745 0.0000 0.0000
# 5 0.0000 0.0000 0.0000 0.0000 22.4297 0.0000
# 6 0.0000 0.0000 0.0000 0.0000 0.0000 53.8553
#
#
#
# Elastic Compliance Matrix: (Units=1/GPa)
#
#
# Indices 1 2 3 4 5 6 
#
# 1 0.012727 -0.003300 -0.005596 0.000000 0.000000 0.000000
# 2 -0.003300 0.010955 -0.002842 0.000000 0.000000 0.000000
# 3 -0.005596 -0.002842 0.016939 0.000000 0.000000 0.000000
# 4 0.000000 0.000000 0.000000 -0.008079 0.000000 0.000000
# 5 0.000000 0.000000 0.000000 0.000000 0.044584 0.000000
# 6 0.000000 0.000000 0.000000 0.000000 0.000000 0.018568
#
#
# Mechanical properties :
#
#
# Convention : Reuss Voigt Hill
#
# Bulk Modulus (GPa) = 58.32112 60.42254 59.37183
# Shear Modulus (GPa) = 40.03694 2.51903 21.27798
#
# Velocity S-wave (km/s) = 4.46274 1.11941 3.25339
# Velocity P-wave (km/s) = 7.45427 5.63272 6.60657
#
# Compressibility (1/GPa) = 0.01714645
#
# Stress axis : x y z
#
# Youngs Moduli (GPa) = 78.57403 91.27887 59.03490
#
# Poissons Ratio (x) = 0.30118 0.33036
# Poissons Ratio (y) = 0.25926 0.16777
# Poissons Ratio (z) = 0.43970 0.25941
#
# Static dielectric constant tensor:
#      x y z
#    x 1.749390 0.000000 0.000000 
#    y 0.000000 1.747010 0.000000 
#    z 0.000000 0.000000 1.704110 
# 
# From -- ./inp_files/13000.got.cif
#   From: 2010.05.17/outbox.cif.g08.bks.cpg/sg67_7_cif.got.tgz:13000.got - 2010.06.03 18:28:57.
