data_PCOD9503531
_publ_section_title
;
Structure prediction by ZEFSAII (Michael W. Deem and Ramdas Pophale) SiO2 
 PCOD9503531
Probable space group: C M M A
;
_chemical_formula_sum "Si O2"
_cell_formula_units_Z 112
_cell_length_a 17.161229
_cell_length_b 22.461809
_cell_length_c 15.320990
_cell_angle_alpha 90.000000
_cell_angle_beta 90.000000
_cell_angle_gamma 90.000000
_cell_volume 5905.816457
_symmetry_space_group_name_H-M "C M M A"
_symmetry_group_IT_number 67
_symmetry_cell_setting 'orthorhombic'
loop_
_space_group_symop_operation_xyz
x,y,z
-x,1/2-y,z
x,-y,-z
-x,1/2+y,-z
-x,-y,-z
x,1/2+y,-z
-x,y,z
x,1/2-y,z
1/2+x,1/2+y,z
1/2-x,-y,z
1/2+x,1/2-y,-z
1/2-x,y,-z
1/2-x,1/2-y,-z
1/2+x,y,-z
1/2-x,1/2+y,z
1/2+x,-y,z
loop_
_atom_site_type_symbol
_atom_site_label
_atom_site_fract_x
_atom_site_fract_y
_atom_site_fract_z
Si Si1 0.229313 0.179754 0.749869
Si Si2 0.813315 0.181748 0.077088
Si Si3 0.910288 0.082771 0.014033
Si Si4 0.590186 0.091861 0.284832
Si Si5 0.679346 0.318138 0.568946
Si Si6 0.158919 0.014317 0.859950
Si Si7 0.090880 0.067825 0.508761
O O1 0.213551 0.250000 0.761596
O O2 0.275347 0.156646 0.834538
O O3 0.148945 0.144890 0.738553
O O4 0.282890 0.173116 0.664267
O O5 0.668475 0.250000 0.905624
O O6 0.889193 0.147783 0.045781
O O7 0.750000 0.178207 0.000000
O O8 0.000000 0.074353 0.990792
O O9 0.885727 0.039887 0.093515
O O10 0.856685 0.065873 0.931636
O O11 0.500000 0.103356 0.261606
O O12 0.621255 0.035333 0.230210
O O13 0.594955 0.082004 0.388322
O O14 0.644041 0.250000 0.565949
O O15 0.750000 0.317073 0.500000
O O16 0.629143 0.376288 0.542302
O O17 0.250000 0.000000 0.851948
O O18 0.000000 0.065082 0.481927
O O19 0.123529 0.000000 0.500000
#
# Coordination Sequence:
#
# PCOD9503531 Si02
#       7
#    16  16  16  16  16  16  16
#     4  10  21  38  60  87 116 153 199 245 291 351
#     4  10  21  38  58  82 116 152 187 232 288 351
#     4  11  21  36  58  82 111 148 191 241 289 335
#     4  11  22  37  57  85 118 150 190 241 298 359
#     4  10  20  39  62  86 115 152 205 254 297 360
#     4  11  22  37  57  82 113 149 194 237 284 347
#     4  10  23  40  57  84 123 158 193 248 314 371
#
# _framework density 18.964355000000001
#
# number of rings (size 3 to 8) (size 9 to 14) (size 15 to 20)
#    0.000    1.571    1.429    5.143    0.000    3.429 
#    0.000    3.571    0.000    6.857    0.000    0.000 
#    0.000    0.000    0.000    0.000    0.000    0.000 
#
# Total GULP energy -312473.527345 kJ/mol
# GULP energy per Si atom -5579.884417 kJ/mol
# Density = 1.892119 g / cm^3
# Si number density = 18.964355 Si / 1000 Ang^3
#
#
#
# Elastic Constant Matrix: (Units=GPa)
#
#
# Indices 1 2 3 4 5 6 
#
# 1 87.5019 51.8436 23.5953 0.0000 0.0000 0.0000
# 2 51.8436 99.2186 20.8052 0.0000 0.0000 0.0000
# 3 23.5953 20.8052 77.3558 0.0000 0.0000 0.0000
# 4 0.0000 0.0000 0.0000 22.2519 0.0000 0.0000
# 5 0.0000 0.0000 0.0000 0.0000 20.3295 0.0000
# 6 0.0000 0.0000 0.0000 0.0000 0.0000 19.5614
#
#
#
# Elastic Compliance Matrix: (Units=1/GPa)
#
#
# Indices 1 2 3 4 5 6 
#
# 1 0.017184 -0.008351 -0.002995 0.000000 0.000000 0.000000
# 2 -0.008351 0.014739 -0.001417 0.000000 0.000000 0.000000
# 3 -0.002995 -0.001417 0.014222 0.000000 0.000000 0.000000
# 4 0.000000 0.000000 0.000000 0.044940 0.000000 0.000000
# 5 0.000000 0.000000 0.000000 0.000000 0.049190 0.000000
# 6 0.000000 0.000000 0.000000 0.000000 0.000000 0.051121
#
#
# Mechanical properties :
#
#
# Convention : Reuss Voigt Hill
#
# Bulk Modulus (GPa) = 48.49972 50.72938 49.61455
# Shear Modulus (GPa) = 22.34185 23.61736 22.97961
#
# Velocity S-wave (km/s) = 3.43607 3.53279 3.48476
# Velocity P-wave (km/s) = 6.43209 6.59156 6.51231
#
# Compressibility (1/GPa) = 0.02061868
#
# Stress axis : x y z
#
# Youngs Moduli (GPa) = 58.19450 67.84578 70.31316
#
# Poissons Ratio (x) = 0.56656 0.21062
# Poissons Ratio (y) = 0.48597 0.09964
# Poissons Ratio (z) = 0.17432 0.09614
#
# Static dielectric constant tensor:
#      x y z
#    x 1.634790 0.000000 0.000000 
#    y 0.000000 1.700760 0.000000 
#    z 0.000000 0.000000 1.655630 
# 
# From -- ./inp_files/27490.got.cif
#   From: 2010.05.17/outbox.cif.g08.bks.cpg/sg67_14_cif.got.tgz:27490.got - 2010.06.03 18:28:57.
