data_PCOD9503590
_publ_section_title
;
Structure prediction by ZEFSAII (Michael W. Deem and Ramdas Pophale) SiO2 
 PCOD9503590
Probable space group: C M M A
;
_chemical_formula_sum "Si O2"
_cell_formula_units_Z 80
_cell_length_a 27.909507
_cell_length_b 8.942189
_cell_length_c 18.394282
_cell_angle_alpha 90.000000
_cell_angle_beta 90.000000
_cell_angle_gamma 90.000000
_cell_volume 4590.699338
_symmetry_space_group_name_H-M "C M M A"
_symmetry_group_IT_number 67
_symmetry_cell_setting 'orthorhombic'
loop_
_space_group_symop_operation_xyz
x,y,z
-x,1/2-y,z
x,-y,-z
-x,1/2+y,-z
-x,-y,-z
x,1/2+y,-z
-x,y,z
x,1/2-y,z
1/2+x,1/2+y,z
1/2-x,-y,z
1/2+x,1/2-y,-z
1/2-x,y,-z
1/2-x,1/2-y,-z
1/2+x,y,-z
1/2-x,1/2+y,z
1/2+x,-y,z
loop_
_atom_site_type_symbol
_atom_site_label
_atom_site_fract_x
_atom_site_fract_y
_atom_site_fract_z
Si Si1 0.000000 0.931687 0.417565
Si Si2 0.406277 0.432678 0.657723
Si Si3 0.696898 0.430237 0.923301
Si Si4 0.750000 0.500000 0.306796
Si Si5 0.844085 0.423948 0.782841
Si Si6 0.316358 0.087149 0.568556
O O1 0.000000 0.750000 0.421379
O O2 0.000000 0.000000 0.500000
O O3 0.045528 0.994013 0.372357
O O4 0.409176 0.250000 0.661058
O O5 0.384440 0.497587 0.732823
O O6 0.365169 0.478220 0.600143
O O7 0.699906 0.250000 0.926394
O O8 0.750000 0.500000 0.911409
O O9 0.664232 0.485756 0.857111
O O10 0.680409 0.500000 0.000000
O O11 0.792022 0.569821 0.258005
O O12 0.719836 0.596724 0.364185
O O13 0.855561 0.250000 0.795260
O O14 0.327891 0.250000 0.540848
O O15 0.298360 0.000000 0.500000
#
# Coordination Sequence:
#
# PCOD9503590 Si02
#       6
#     8  16  16   8  16  16
#     4  12  24  40  62  86 111 142 183 234 294 346
#     4  10  22  39  57  79 107 139 180 228 283 338
#     4  11  21  34  53  79 112 150 191 231 274 325
#     4  10  21  32  49  68 102 140 184 218 267 314
#     4  11  21  35  55  79 110 146 186 228 275 328
#     4  10  21  34  48  69  96 132 175 220 265 318
#
# _framework density 17.426538000000001
#
# number of rings (size 3 to 8) (size 9 to 14) (size 15 to 20)
#    0.000    1.400    1.000    6.000    0.000    8.800 
#    0.000    0.000    0.000    0.000    0.000    0.700 
#    0.000    0.000    0.000    0.000    0.000    0.000 
#
# Total GULP energy -222967.822733 kJ/mol
# GULP energy per Si atom -5574.195568 kJ/mol
# Density = 1.738687 g / cm^3
# Si number density = 17.426538 Si / 1000 Ang^3
#
#
#
# Elastic Constant Matrix: (Units=GPa)
#
#
# Indices 1 2 3 4 5 6 
#
# 1 120.1125 46.1355 59.1917 0.0000 0.0000 0.0000
# 2 46.1355 138.2763 72.2716 0.0000 0.0000 0.0000
# 3 59.1917 72.2716 147.2325 0.0000 0.0000 0.0000
# 4 0.0000 0.0000 0.0000 20.7670 0.0000 0.0000
# 5 0.0000 0.0000 0.0000 0.0000 23.7762 0.0000
# 6 0.0000 0.0000 0.0000 0.0000 0.0000 36.8107
#
#
#
# Elastic Compliance Matrix: (Units=1/GPa)
#
#
# Indices 1 2 3 4 5 6 
#
# 1 0.010698 -0.001777 -0.003428 0.000000 0.000000 0.000000
# 2 -0.001777 0.010023 -0.004205 0.000000 0.000000 0.000000
# 3 -0.003428 -0.004205 0.010235 0.000000 0.000000 0.000000
# 4 0.000000 0.000000 0.000000 0.048153 0.000000 0.000000
# 5 0.000000 0.000000 0.000000 0.000000 0.042059 0.000000
# 6 0.000000 0.000000 0.000000 0.000000 0.000000 0.027166
#
#
# Mechanical properties :
#
#
# Convention : Reuss Voigt Hill
#
# Bulk Modulus (GPa) = 82.41986 84.53543 83.47765
# Shear Modulus (GPa) = 29.20564 31.47228 30.33896
#
# Velocity S-wave (km/s) = 4.09825 4.25431 4.17701
# Velocity P-wave (km/s) = 8.35419 8.52919 8.44215
#
# Compressibility (1/GPa) = 0.01213300
#
# Stress axis : x y z
#
# Youngs Moduli (GPa) = 93.47785 99.77163 97.70855
#
# Poissons Ratio (x) = 0.17734 0.33498
# Poissons Ratio (y) = 0.16615 0.41090
# Poissons Ratio (z) = 0.32047 0.41957
#
# Static dielectric constant tensor:
#      x y z
#    x 1.601390 0.000000 0.000000 
#    y 0.000000 1.603180 0.000000 
#    z 0.000000 0.000000 1.575120 
# 
# From -- ./inp_files/35812.got.cif
#   From: 2010.05.17/outbox.cif.g08.bks.cpg/sg67_18_cif.got.tgz:35812.got - 2010.06.03 18:28:57.
