data_PCOD9503620
_publ_section_title
;
Structure prediction by ZEFSAII (Michael W. Deem and Ramdas Pophale) SiO2 
 PCOD9503620
Probable space group: C M M A
;
_chemical_formula_sum "Si O2"
_cell_formula_units_Z 112
_cell_length_a 14.642078
_cell_length_b 14.669870
_cell_length_c 25.236295
_cell_angle_alpha 90.000000
_cell_angle_beta 90.000000
_cell_angle_gamma 90.000000
_cell_volume 5420.690067
_symmetry_space_group_name_H-M "C M M A"
_symmetry_group_IT_number 67
_symmetry_cell_setting 'orthorhombic'
loop_
_space_group_symop_operation_xyz
x,y,z
-x,1/2-y,z
x,-y,-z
-x,1/2+y,-z
-x,-y,-z
x,1/2+y,-z
-x,y,z
x,1/2-y,z
1/2+x,1/2+y,z
1/2-x,-y,z
1/2+x,1/2-y,-z
1/2-x,y,-z
1/2-x,1/2-y,-z
1/2+x,y,-z
1/2-x,1/2+y,z
1/2+x,-y,z
loop_
_atom_site_type_symbol
_atom_site_label
_atom_site_fract_x
_atom_site_fract_y
_atom_site_fract_z
Si Si1 0.391310 0.851786 0.931028
Si Si2 0.892897 0.640610 0.952237
Si Si3 0.778897 0.361371 0.703888
Si Si4 0.266526 0.145895 0.416294
Si Si5 0.150275 0.017652 0.143426
Si Si6 0.396740 0.527227 0.258366
Si Si7 0.601319 0.395349 0.512176
O O1 0.500000 0.842873 0.938589
O O2 0.354662 0.750000 0.919671
O O3 0.378659 0.925040 0.885640
O O4 0.357722 0.883768 0.988990
O O5 0.887861 0.750000 0.948808
O O6 0.845680 0.592358 0.903066
O O7 0.000000 0.613152 0.948177
O O8 0.785955 0.250000 0.711916
O O9 0.794106 0.385798 0.641757
O O10 0.678265 0.400923 0.719088
O O11 0.853352 0.425463 0.733516
O O12 0.240600 0.250000 0.408734
O O13 0.345540 0.142746 0.460682
O O14 0.174478 0.104390 0.440338
O O15 0.095825 0.044226 0.195269
O O16 0.250000 0.000000 0.165235
O O17 0.500000 0.533291 0.280941
O O18 0.589194 0.500000 0.500000
O O19 0.500000 0.355730 0.521701
#
# Coordination Sequence:
#
# PCOD9503620 Si02
#       7
#    16  16  16  16  16  16  16
#     4   9  19  36  58  85 117 154 196 243 300 371
#     4   9  19  36  58  85 117 154 196 243 300 371
#     4  10  24  46  68  96 129 167 219 275 327 378
#     4  10  21  38  61  86 125 169 202 253 310 360
#     4  12  23  38  57  85 119 157 200 255 314 369
#     4  11  25  45  68  93 124 167 218 274 332 387
#     4  10  21  34  57  95 130 166 205 241 296 369
#
# _framework density 20.661577999999999
#
# number of rings (size 3 to 8) (size 9 to 14) (size 15 to 20)
#    0.000    1.857    1.429    4.286    4.000    6.857 
#    0.000    4.286    0.000    0.000    0.000    0.000 
#    0.000    0.000    0.000    0.000    0.000    0.000 
#
# Total GULP energy -312173.635529 kJ/mol
# GULP energy per Si atom -5574.529206 kJ/mol
# Density = 2.061455 g / cm^3
# Si number density = 20.661578 Si / 1000 Ang^3
#
#
#
# Elastic Constant Matrix: (Units=GPa)
#
#
# Indices 1 2 3 4 5 6 
#
# 1 90.2053 -13.3531 -17.4976 0.0000 0.0000 0.0000
# 2 -13.3531 61.6598 3.8397 0.0000 0.0000 0.0000
# 3 -17.4976 3.8397 65.3296 0.0000 0.0000 0.0000
# 4 0.0000 0.0000 0.0000 49.9666 0.0000 0.0000
# 5 0.0000 0.0000 0.0000 0.0000 9.0222 0.0000
# 6 0.0000 0.0000 0.0000 0.0000 0.0000 41.9481
#
#
#
# Elastic Compliance Matrix: (Units=1/GPa)
#
#
# Indices 1 2 3 4 5 6 
#
# 1 0.012041 0.002416 0.003083 0.000000 0.000000 0.000000
# 2 0.002416 0.016762 -0.000338 0.000000 0.000000 0.000000
# 3 0.003083 -0.000338 0.016153 0.000000 0.000000 0.000000
# 4 0.000000 0.000000 0.000000 0.020013 0.000000 0.000000
# 5 0.000000 0.000000 0.000000 0.000000 0.110838 0.000000
# 6 0.000000 0.000000 0.000000 0.000000 0.000000 0.023839
#
#
# Mechanical properties :
#
#
# Convention : Reuss Voigt Hill
#
# Bulk Modulus (GPa) = 18.09044 18.13028 18.11036
# Shear Modulus (GPa) = 24.06723 36.46774 30.26748
#
# Velocity S-wave (km/s) = 3.41666 4.20575 3.83157
# Velocity P-wave (km/s) = 4.93350 5.69020 5.32531
#
# Compressibility (1/GPa) = 0.05527781
#
# Stress axis : x y z
#
# Youngs Moduli (GPa) = 83.04625 59.65789 61.90932
#
# Poissons Ratio (x) = -0.14412 -0.19088
# Poissons Ratio (y) = -0.20062 0.02094
# Poissons Ratio (z) = -0.25605 0.02017
#
# Static dielectric constant tensor:
#      x y z
#    x 1.858810 0.000000 0.000000 
#    y 0.000000 1.758980 0.000000 
#    z 0.000000 0.000000 1.866460 
# 
# From -- ./inp_files/42021.got.cif
#   From: 2010.05.17/outbox.cif.g08.bks.cpg/sg67_22_cif.got.tgz:42021.got - 2010.06.03 18:28:57.
