data_PCOD9503465
_publ_section_title
;
Structure prediction by ZEFSAII (Michael W. Deem and Ramdas Pophale) SiO2 
 PCOD9503465
Probable space group: C M M A
;
_chemical_formula_sum "Si O2"
_cell_formula_units_Z 84
_cell_length_a 24.419865
_cell_length_b 15.599590
_cell_length_c 11.295118
_cell_angle_alpha 90.000000
_cell_angle_beta 90.000000
_cell_angle_gamma 90.000000
_cell_volume 4302.760916
_symmetry_space_group_name_H-M "C M M A"
_symmetry_group_IT_number 67
_symmetry_cell_setting 'orthorhombic'
loop_
_space_group_symop_operation_xyz
x,y,z
-x,1/2-y,z
x,-y,-z
-x,1/2+y,-z
-x,-y,-z
x,1/2+y,-z
-x,y,z
x,1/2-y,z
1/2+x,1/2+y,z
1/2-x,-y,z
1/2+x,1/2-y,-z
1/2-x,y,-z
1/2-x,1/2-y,-z
1/2+x,y,-z
1/2-x,1/2+y,z
1/2+x,-y,z
loop_
_atom_site_type_symbol
_atom_site_label
_atom_site_fract_x
_atom_site_fract_y
_atom_site_fract_z
Si Si1 0.418937 0.092892 0.543494
Si Si2 0.693794 0.146620 0.433877
Si Si3 0.500000 0.250000 0.487821
Si Si4 0.834561 0.904067 0.954942
Si Si5 0.231068 0.150992 0.821727
Si Si6 0.437518 0.851266 0.193671
O O1 0.357141 0.104789 0.498804
O O2 0.453070 0.173430 0.494032
O O3 0.424125 0.099244 0.685457
O O4 0.438081 0.000000 0.500000
O O5 0.686600 0.250000 0.437525
O O6 0.750000 0.125973 0.500000
O O7 0.701467 0.120614 0.296989
O O8 0.785975 0.899382 0.857680
O O9 0.890865 0.869268 0.902110
O O10 0.809960 0.853468 0.067121
O O11 0.842016 0.000000 0.000000
O O12 0.248062 0.250000 0.802917
O O13 0.500000 0.871543 0.155927
O O14 0.436637 0.750000 0.223505
#
# Coordination Sequence:
#
# PCOD9503465 Si02
#       6
#    16  16   4  16  16  16
#     4  12  24  41  69 101 133 176 226 280 340 407
#     4  10  21  39  64  96 137 170 212 275 343 411
#     4  12  22  48  66  94 136 182 226 274 336 412
#     4  11  23  38  61  89 124 164 216 273 324 378
#     4  10  20  38  62  87 121 167 209 256 327 405
#     4  11  22  42  68  92 126 173 227 274 324 401
#
# _framework density 19.522348000000001
#
# number of rings (size 3 to 8) (size 9 to 14) (size 15 to 20)
#    0.000    1.143    2.857    4.857    2.667    2.286 
#    3.429    0.000    2.095    0.000    0.000    0.000 
#    0.000    0.000    0.000    0.000    0.000    0.000 
#
# Total GULP energy -234168.614653 kJ/mol
# GULP energy per Si atom -5575.443206 kJ/mol
# Density = 1.947791 g / cm^3
# Si number density = 19.522348 Si / 1000 Ang^3
#
#
#
# Elastic Constant Matrix: (Units=GPa)
#
#
# Indices 1 2 3 4 5 6 
#
# 1 181.9310 38.5815 64.5324 0.0000 0.0000 0.0000
# 2 38.5815 103.8316 18.4529 0.0000 0.0000 0.0000
# 3 64.5324 18.4529 59.6981 0.0000 0.0000 0.0000
# 4 0.0000 0.0000 0.0000 25.1938 0.0000 0.0000
# 5 0.0000 0.0000 0.0000 0.0000 -254.3201 0.0000
# 6 0.0000 0.0000 0.0000 0.0000 0.0000 -19.3617
#
#
#
# Elastic Compliance Matrix: (Units=1/GPa)
#
#
# Indices 1 2 3 4 5 6 
#
# 1 0.009205 -0.001748 -0.009410 0.000000 0.000000 0.000000
# 2 -0.001748 0.010523 -0.001363 0.000000 0.000000 0.000000
# 3 -0.009410 -0.001363 0.027345 0.000000 0.000000 0.000000
# 4 0.000000 0.000000 0.000000 0.039692 0.000000 0.000000
# 5 0.000000 0.000000 0.000000 0.000000 -0.003932 0.000000
# 6 0.000000 0.000000 0.000000 0.000000 0.000000 -0.051648
#
#
# Mechanical properties :
#
#
# Convention : Reuss Voigt Hill
#
# Bulk Modulus (GPa) = 45.39305 65.39936 55.39620
# Shear Modulus (GPa) = 78.65293 -34.77133 21.94080
#
# Velocity S-wave (km/s) = 6.35422 -4.22489 3.35607
# Velocity P-wave (km/s) = 8.78278 3.12616 6.59204
#
# Compressibility (1/GPa) = 0.02202981
#
# Stress axis : x y z
#
# Youngs Moduli (GPa) = 108.63435 95.03223 36.57036
#
# Poissons Ratio (x) = 0.16612 0.34414
# Poissons Ratio (y) = 0.18990 0.04985
# Poissons Ratio (z) = 1.02228 0.12953
#
# Static dielectric constant tensor:
#      x y z
#    x 1.664500 0.000000 0.000000 
#    y 0.000000 1.700490 0.000000 
#    z 0.000000 0.000000 1.685570 
# 
# From -- ./inp_files/21776.got.cif
#   From: 2010.05.17/outbox.cif.g08.bks.cpg/sg67_11_cif.got.tgz:21776.got - 2010.06.03 18:28:57.
