data_PCOD9503138
_publ_section_title
;
Structure prediction by ZEFSAII (Michael W. Deem and Ramdas Pophale) SiO2 
 PCOD9503138
Probable space group: C M M A
;
_chemical_formula_sum "Si O2"
_cell_formula_units_Z 112
_cell_length_a 16.821454
_cell_length_b 30.114825
_cell_length_c 11.197308
_cell_angle_alpha 90.000000
_cell_angle_beta 90.000000
_cell_angle_gamma 90.000000
_cell_volume 5672.277906
_symmetry_space_group_name_H-M "C M M A"
_symmetry_group_IT_number 67
_symmetry_cell_setting 'orthorhombic'
loop_
_space_group_symop_operation_xyz
x,y,z
-x,1/2-y,z
x,-y,-z
-x,1/2+y,-z
-x,-y,-z
x,1/2+y,-z
-x,y,z
x,1/2-y,z
1/2+x,1/2+y,z
1/2-x,-y,z
1/2+x,1/2-y,-z
1/2-x,y,-z
1/2-x,1/2-y,-z
1/2+x,y,-z
1/2-x,1/2+y,z
1/2+x,-y,z
loop_
_atom_site_type_symbol
_atom_site_label
_atom_site_fract_x
_atom_site_fract_y
_atom_site_fract_z
Si Si1 0.906386 0.885002 0.595507
Si Si2 0.337571 0.044365 0.443029
Si Si3 0.407499 0.879184 0.946847
Si Si4 0.096056 0.069317 0.164184
Si Si5 0.700316 0.199792 0.624343
Si Si6 0.202388 0.300586 0.873179
Si Si7 0.906553 0.529084 0.196531
O O1 0.882039 0.910476 0.475996
O O2 0.880997 0.918531 0.701567
O O3 0.863982 0.838668 0.614948
O O4 0.000000 0.879434 0.600994
O O5 0.250000 0.047691 0.500000
O O6 0.345247 0.036663 0.303454
O O7 0.375997 0.000000 0.500000
O O8 0.500000 0.866014 0.956698
O O9 0.360438 0.840277 0.882803
O O10 0.404514 0.926942 0.882350
O O11 0.372615 0.892529 0.076524
O O12 0.000000 0.072231 0.154414
O O13 0.114770 0.018139 0.137144
O O14 0.667454 0.250000 0.628401
O O15 0.750000 0.196616 0.500000
O O16 0.748557 0.193883 0.749113
O O17 0.169154 0.250000 0.868009
O O18 0.250000 0.302635 0.000000
O O19 0.000000 0.524569 0.237728
#
# Coordination Sequence:
#
# PCOD9503138 Si02
#       7
#    16  16  16  16  16  16  16
#     4  11  22  36  62  88 116 156 200 249 297 352
#     4  11  23  37  54  83 121 161 201 245 288 351
#     4  10  21  36  60  91 117 152 201 249 299 358
#     4   9  18  35  56  84 120 156 193 240 294 348
#     4  10  23  43  64  87 121 161 197 247 315 372
#     4  10  22  42  65  87 117 160 201 248 313 374
#     4  10  20  36  58  82 119 162 200 239 293 359
#
# _framework density 19.745152000000001
#
# number of rings (size 3 to 8) (size 9 to 14) (size 15 to 20)
#    0.000    1.857    1.429    2.143    4.000    2.857 
#    0.000    0.000    0.000    8.571    0.000    0.000 
#    0.000    0.000    0.000    0.000    0.000    0.000 
#
# Total GULP energy -312271.542671 kJ/mol
# GULP energy per Si atom -5576.277548 kJ/mol
# Density = 1.970021 g / cm^3
# Si number density = 19.745152 Si / 1000 Ang^3
#
#
#
# Elastic Constant Matrix: (Units=GPa)
#
#
# Indices 1 2 3 4 5 6 
#
# 1 41.6913 56.9301 17.0412 0.0000 0.0000 0.0000
# 2 56.9301 159.8050 23.1307 0.0000 0.0000 0.0000
# 3 17.0412 23.1307 73.2414 0.0000 0.0000 0.0000
# 4 0.0000 0.0000 0.0000 32.6866 0.0000 0.0000
# 5 0.0000 0.0000 0.0000 0.0000 17.4025 0.0000
# 6 0.0000 0.0000 0.0000 0.0000 0.0000 14.6740
#
#
#
# Elastic Compliance Matrix: (Units=1/GPa)
#
#
# Indices 1 2 3 4 5 6 
#
# 1 0.049256 -0.016650 -0.006202 0.000000 0.000000 0.000000
# 2 -0.016650 0.012185 0.000026 0.000000 0.000000 0.000000
# 3 -0.006202 0.000026 0.015089 0.000000 0.000000 0.000000
# 4 0.000000 0.000000 0.000000 0.030594 0.000000 0.000000
# 5 0.000000 0.000000 0.000000 0.000000 0.057463 0.000000
# 6 0.000000 0.000000 0.000000 0.000000 0.000000 0.068148
#
#
# Mechanical properties :
#
#
# Convention : Reuss Voigt Hill
#
# Bulk Modulus (GPa) = 32.38621 52.10463 42.24542
# Shear Modulus (GPa) = 17.32021 24.79501 21.05761
#
# Velocity S-wave (km/s) = 2.96495 3.54750 3.26923
# Velocity P-wave (km/s) = 5.30650 6.57461 5.97430
#
# Compressibility (1/GPa) = 0.03087734
#
# Stress axis : x y z
#
# Youngs Moduli (GPa) = 20.30191 82.06584 66.27560
#
# Poissons Ratio (x) = 1.36637 0.41107
# Poissons Ratio (y) = 0.33802 -0.00170
# Poissons Ratio (z) = 0.12592 -0.00210
#
# Static dielectric constant tensor:
#      x y z
#    x 1.688550 0.000000 0.000000 
#    y 0.000000 1.676970 0.000000 
#    z 0.000000 0.000000 1.758640 
# 
# From -- ./inp_files/18649.got.cif
#   From: 2010.05.17/outbox.cif.g08.bks.cpg/sg67_10_cif.got.tgz:18649.got - 2010.06.03 18:28:57.
