data_PCOD9503984
_publ_section_title
;
Structure prediction by ZEFSAII (Michael W. Deem and Ramdas Pophale) SiO2 
 PCOD9503984
Probable space group: C M M A
;
_chemical_formula_sum "Si O2"
_cell_formula_units_Z 96
_cell_length_a 8.678664
_cell_length_b 24.035228
_cell_length_c 26.607269
_cell_angle_alpha 90.000000
_cell_angle_beta 90.000000
_cell_angle_gamma 90.000000
_cell_volume 5550.107836
_symmetry_space_group_name_H-M "C M M A"
_symmetry_group_IT_number 67
_symmetry_cell_setting 'orthorhombic'
loop_
_space_group_symop_operation_xyz
x,y,z
-x,1/2-y,z
x,-y,-z
-x,1/2+y,-z
-x,-y,-z
x,1/2+y,-z
-x,y,z
x,1/2-y,z
1/2+x,1/2+y,z
1/2-x,-y,z
1/2+x,1/2-y,-z
1/2-x,y,-z
1/2-x,1/2-y,-z
1/2+x,y,-z
1/2-x,1/2+y,z
1/2+x,-y,z
loop_
_atom_site_type_symbol
_atom_site_label
_atom_site_fract_x
_atom_site_fract_y
_atom_site_fract_z
Si Si1 0.184429 0.561712 0.144932
Si Si2 0.317528 0.750000 0.206318
Si Si3 0.315725 0.562867 0.550881
Si Si4 0.185518 0.635885 0.243235
Si Si5 0.314275 0.937506 0.661993
Si Si6 0.815760 0.250000 0.906145
Si Si7 0.184028 0.866128 0.945781
O O1 0.250000 0.500000 0.150632
O O2 0.218843 0.597974 0.194529
O O3 0.258421 0.592015 0.097136
O O4 0.000000 0.559916 0.138927
O O5 0.500000 0.750000 0.197486
O O6 0.266495 0.694764 0.235579
O O7 0.232593 0.750000 0.152329
O O8 0.500000 0.560891 0.546942
O O9 0.250000 0.500000 0.551734
O O10 0.250000 0.589857 0.500000
O O11 0.273085 0.584999 0.606231
O O12 0.234993 0.602659 0.293022
O O13 0.000000 0.644126 0.245243
O O14 0.500000 0.941624 0.663843
O O15 0.250000 0.000000 0.668110
O O16 0.748271 0.305187 0.931603
O O17 0.000000 0.250000 0.910199
O O18 0.000000 0.864638 0.947052
O O19 0.250000 0.882303 0.000000
#
# Coordination Sequence:
#
# PCOD9503984 Si02
#       7
#    16   8  16  16  16   8  16
#     4  11  23  39  60  84 112 147 183 220 268 324
#     4  12  24  37  59  86 109 139 179 221 269 319
#     4   9  15  24  40  65 100 139 182 220 262 310
#     4  10  21  38  58  79 109 144 179 220 272 324
#     4   9  18  31  49  76 108 146 183 221 265 318
#     4  12  23  41  64  88 115 143 177 221 274 323
#     4  12  25  42  63  88 115 144 182 224 270 323
#
# _framework density 17.296961
#
# number of rings (size 3 to 8) (size 9 to 14) (size 15 to 20)
#    0.000    1.500    1.667    5.250    0.000    2.333 
#    0.000    1.667    0.000    0.000    0.000    0.583 
#    0.000    0.000    0.000    0.000    0.000    0.000 
#
# Total GULP energy -268072.256537 kJ/mol
# GULP energy per Si atom -5584.838678 kJ/mol
# Density = 1.725759 g / cm^3
# Si number density = 17.296961 Si / 1000 Ang^3
#
#
#
# Elastic Constant Matrix: (Units=GPa)
#
#
# Indices 1 2 3 4 5 6 
#
# 1 94.1806 52.6478 65.7048 0.0000 0.0000 0.0000
# 2 52.6478 104.4271 58.8352 0.0000 0.0000 0.0000
# 3 65.7048 58.8352 168.5103 0.0000 0.0000 0.0000
# 4 0.0000 0.0000 0.0000 -768.0743 0.0000 0.0000
# 5 0.0000 0.0000 0.0000 0.0000 162.6811 0.0000
# 6 0.0000 0.0000 0.0000 0.0000 0.0000 20.1894
#
#
#
# Elastic Compliance Matrix: (Units=1/GPa)
#
#
# Indices 1 2 3 4 5 6 
#
# 1 0.017229 -0.006102 -0.004588 0.000000 0.000000 0.000000
# 2 -0.006102 0.014082 -0.002538 0.000000 0.000000 0.000000
# 3 -0.004588 -0.002538 0.008609 0.000000 0.000000 0.000000
# 4 0.000000 0.000000 0.000000 -0.001302 0.000000 0.000000
# 5 0.000000 0.000000 0.000000 0.000000 0.006147 0.000000
# 6 0.000000 0.000000 0.000000 0.000000 0.000000 0.049531
#
#
# Mechanical properties :
#
#
# Convention : Reuss Voigt Hill
#
# Bulk Modulus (GPa) = 74.25681 80.16596 77.21138
# Shear Modulus (GPa) = 39.92378 -104.37872 -32.22747
#
# Velocity S-wave (km/s) = 4.80952 -7.77664 -4.32115
# Velocity P-wave (km/s) = 8.59452 5.84700 4.45412
#
# Compressibility (1/GPa) = 0.01346678
#
# Stress axis : x y z
#
# Youngs Moduli (GPa) = 58.04085 71.01307 116.15586
#
# Poissons Ratio (x) = 0.43329 0.53288
# Poissons Ratio (y) = 0.35414 0.29476
# Poissons Ratio (z) = 0.26627 0.18020
#
# Static dielectric constant tensor:
#      x y z
#    x 1.580190 0.000000 0.000000 
#    y 0.000000 1.548670 0.000000 
#    z 0.000000 0.000000 1.618120 
# 
# From -- ./inp_files/43696.got.cif
#   From: 2010.05.17/outbox.cif.g08.bks.cpg/sg67_22_cif.got.tgz:43696.got - 2010.06.03 18:28:57.
