data_PCOD9503642
_publ_section_title
;
Structure prediction by ZEFSAII (Michael W. Deem and Ramdas Pophale) SiO2 
 PCOD9503642
Probable space group: C M M A
;
_chemical_formula_sum "Si O2"
_cell_formula_units_Z 96
_cell_length_a 18.874967
_cell_length_b 8.914109
_cell_length_c 31.872622
_cell_angle_alpha 90.000000
_cell_angle_beta 90.000000
_cell_angle_gamma 90.000000
_cell_volume 5362.680627
_symmetry_space_group_name_H-M "C M M A"
_symmetry_group_IT_number 67
_symmetry_cell_setting 'orthorhombic'
loop_
_space_group_symop_operation_xyz
x,y,z
-x,1/2-y,z
x,-y,-z
-x,1/2+y,-z
-x,-y,-z
x,1/2+y,-z
-x,y,z
x,1/2-y,z
1/2+x,1/2+y,z
1/2-x,-y,z
1/2+x,1/2-y,-z
1/2-x,y,-z
1/2-x,1/2-y,-z
1/2+x,y,-z
1/2-x,1/2+y,z
1/2+x,-y,z
loop_
_atom_site_type_symbol
_atom_site_label
_atom_site_fract_x
_atom_site_fract_y
_atom_site_fract_z
Si Si1 0.671962 0.070547 0.956274
Si Si2 0.827687 0.431308 0.288752
Si Si3 0.916609 0.429441 0.206635
Si Si4 0.084973 0.425685 0.881990
Si Si5 0.913707 0.923050 0.457015
Si Si6 0.917513 0.430626 0.369801
O O1 0.676541 0.250000 0.959625
O O2 0.750000 0.000000 0.950045
O O3 0.623492 0.020268 0.917747
O O4 0.644698 0.000000 0.000000
O O5 0.823538 0.250000 0.289333
O O6 0.750000 0.500000 0.288468
O O7 0.870748 0.473730 0.246868
O O8 0.870857 0.478525 0.330228
O O9 0.909014 0.250000 0.200150
O O10 0.895623 0.514493 0.164219
O O11 0.000000 0.458381 0.214741
O O12 0.102929 0.250000 0.886258
O O13 0.000000 0.441641 0.885932
O O14 0.892792 0.750000 0.456373
O O15 0.000000 0.929838 0.457533
O O16 0.889064 0.000000 0.500000
O O17 0.891920 0.003621 0.414080
O O18 0.915814 0.250000 0.372272
O O19 0.000000 0.474568 0.363549
#
# Coordination Sequence:
#
# PCOD9503642 Si02
#       6
#    16  16  16  16  16  16
#     4  11  22  38  59  82 111 146 184 224 267 316
#     4  10  21  35  52  75 103 135 170 211 258 308
#     4   9  18  35  57  78 102 136 178 219 260 309
#     4  10  21  37  57  83 113 143 178 221 268 317
#     4   9  16  26  43  70 101 130 162 203 250 298
#     4   9  17  31  51  73  98 131 170 209 250 298
#
# _framework density 17.901494
#
# number of rings (size 3 to 8) (size 9 to 14) (size 15 to 20)
#    0.000    2.333    0.000    3.500    0.000    7.333 
#    0.000    1.667    0.000    5.500    0.000    3.500 
#    0.000    0.000    0.000    0.000    0.000    0.000 
#
# Total GULP energy -267877.483388 kJ/mol
# GULP energy per Si atom -5580.780904 kJ/mol
# Density = 1.786075 g / cm^3
# Si number density = 17.901494 Si / 1000 Ang^3
#
#
#
# Elastic Constant Matrix: (Units=GPa)
#
#
# Indices 1 2 3 4 5 6 
#
# 1 53.8917 40.1484 73.2983 0.0000 0.0000 0.0000
# 2 40.1484 85.8511 76.8811 0.0000 0.0000 0.0000
# 3 73.2983 76.8811 188.5180 0.0000 0.0000 0.0000
# 4 0.0000 0.0000 0.0000 33.4388 0.0000 0.0000
# 5 0.0000 0.0000 0.0000 0.0000 -17.0115 0.0000
# 6 0.0000 0.0000 0.0000 0.0000 0.0000 25.7567
#
#
#
# Elastic Compliance Matrix: (Units=1/GPa)
#
#
# Indices 1 2 3 4 5 6 
#
# 1 0.042622 -0.008021 -0.013301 0.000000 0.000000 0.000000
# 2 -0.008021 0.019859 -0.004980 0.000000 0.000000 0.000000
# 3 -0.013301 -0.004980 0.012507 0.000000 0.000000 0.000000
# 4 0.000000 0.000000 0.000000 0.029905 0.000000 0.000000
# 5 0.000000 0.000000 0.000000 0.000000 -0.058784 0.000000
# 6 0.000000 0.000000 0.000000 0.000000 0.000000 0.038825
#
#
# Mechanical properties :
#
#
# Convention : Reuss Voigt Hill
#
# Bulk Modulus (GPa) = 44.67521 78.76849 61.72185
# Shear Modulus (GPa) = 34.48291 17.63232 26.05761
#
# Velocity S-wave (km/s) = 4.39368 3.14182 3.81939
# Velocity P-wave (km/s) = 7.12387 7.56690 7.34872
#
# Compressibility (1/GPa) = 0.02238378
#
# Stress axis : x y z
#
# Youngs Moduli (GPa) = 23.46225 50.35520 79.95502
#
# Poissons Ratio (x) = 0.40390 1.06346
# Poissons Ratio (y) = 0.18819 0.39819
# Poissons Ratio (z) = 0.31207 0.25078
#
# Static dielectric constant tensor:
#      x y z
#    x 1.592530 0.000000 0.000000 
#    y 0.000000 1.603520 0.000000 
#    z 0.000000 0.000000 1.598220 
# 
# From -- ./inp_files/44619.got.cif
#   From: 2010.05.17/outbox.cif.g08.bks.cpg/sg67_23_cif.got.tgz:44619.got - 2010.06.03 18:28:57.
