data_PCOD9503570
_publ_section_title
;
Structure prediction by ZEFSAII (Michael W. Deem and Ramdas Pophale) SiO2 
 PCOD9503570
Probable space group: C M M A
;
_chemical_formula_sum "Si O2"
_cell_formula_units_Z 80
_cell_length_a 24.636684
_cell_length_b 15.527074
_cell_length_c 9.563672
_cell_angle_alpha 90.000000
_cell_angle_beta 90.000000
_cell_angle_gamma 90.000000
_cell_volume 3658.445156
_symmetry_space_group_name_H-M "C M M A"
_symmetry_group_IT_number 67
_symmetry_cell_setting 'orthorhombic'
loop_
_space_group_symop_operation_xyz
x,y,z
-x,1/2-y,z
x,-y,-z
-x,1/2+y,-z
-x,-y,-z
x,1/2+y,-z
-x,y,z
x,1/2-y,z
1/2+x,1/2+y,z
1/2-x,-y,z
1/2+x,1/2-y,-z
1/2-x,y,-z
1/2-x,1/2-y,-z
1/2+x,y,-z
1/2-x,1/2+y,z
1/2+x,-y,z
loop_
_atom_site_type_symbol
_atom_site_label
_atom_site_fract_x
_atom_site_fract_y
_atom_site_fract_z
Si Si1 0.060574 0.649909 0.665865
Si Si2 0.347011 0.975052 0.357106
Si Si3 0.761444 0.844773 0.669121
Si Si4 0.639310 0.654767 0.769538
Si Si5 0.061722 0.603664 0.992933
O O1 0.068611 0.750000 0.637218
O O2 0.106230 0.591158 0.601190
O O3 0.000000 0.625390 0.620584
O O4 0.064302 0.633337 0.832520
O O5 0.301729 0.919326 0.278114
O O6 0.318079 0.000000 0.500000
O O7 0.373368 0.060328 0.293637
O O8 0.786478 0.750000 0.692217
O O9 0.750000 0.848506 0.500000
O O10 0.704635 0.847759 0.751876
O O11 0.624063 0.750000 0.708853
O O12 0.608614 0.648391 0.917219
O O13 0.000000 0.623583 0.044312
O O14 0.068140 0.500000 0.000000
#
# Coordination Sequence:
#
# PCOD9503570 Si02
#       5
#    16  16  16  16  16
#     4  10  22  41  65  91 123 166 210 255 315 380
#     4  12  23  37  63  91 125 167 213 257 311 370
#     4  10  21  39  62  88 121 161 209 258 311 373
#     4  11  23  37  60  94 124 159 211 263 314 374
#     4  10  20  40  67  93 121 161 209 258 317 379
#
# _framework density 21.867214000000001
#
# number of rings (size 3 to 8) (size 9 to 14) (size 15 to 20)
#    0.000    1.400    4.000    1.800    0.000    2.400 
#    0.000    1.000    0.000    3.600    0.000    0.000 
#    0.000    0.000    0.000    0.000    0.000    0.000 
#
# Total GULP energy -222936.594401 kJ/mol
# GULP energy per Si atom -5573.414860 kJ/mol
# Density = 2.181744 g / cm^3
# Si number density = 21.867214 Si / 1000 Ang^3
#
#
#
# Elastic Constant Matrix: (Units=GPa)
#
#
# Indices 1 2 3 4 5 6 
#
# 1 101.7620 48.1497 22.1665 0.0000 0.0000 0.0000
# 2 48.1497 118.7906 6.2693 0.0000 0.0000 0.0000
# 3 22.1665 6.2693 29.6667 0.0000 0.0000 0.0000
# 4 0.0000 0.0000 0.0000 18.7781 0.0000 0.0000
# 5 0.0000 0.0000 0.0000 0.0000 26.9101 0.0000
# 6 0.0000 0.0000 0.0000 0.0000 0.0000 14.8611
#
#
#
# Elastic Compliance Matrix: (Units=1/GPa)
#
#
# Indices 1 2 3 4 5 6 
#
# 1 0.014468 -0.005354 -0.009679 0.000000 0.000000 0.000000
# 2 -0.005354 0.010494 0.001783 0.000000 0.000000 0.000000
# 3 -0.009679 0.001783 0.040563 0.000000 0.000000 0.000000
# 4 0.000000 0.000000 0.000000 0.053253 0.000000 0.000000
# 5 0.000000 0.000000 0.000000 0.000000 0.037161 0.000000
# 6 0.000000 0.000000 0.000000 0.000000 0.000000 0.067290
#
#
# Mechanical properties :
#
#
# Convention : Reuss Voigt Hill
#
# Bulk Modulus (GPa) = 25.62450 44.82113 35.22282
# Shear Modulus (GPa) = 19.03030 23.68545 21.35787
#
# Velocity S-wave (km/s) = 2.95323 3.29469 3.12862
# Velocity P-wave (km/s) = 4.83450 5.91733 5.40311
#
# Compressibility (1/GPa) = 0.03902515
#
# Stress axis : x y z
#
# Youngs Moduli (GPa) = 69.11617 95.29141 24.65280
#
# Poissons Ratio (x) = 0.51016 0.23862
# Poissons Ratio (y) = 0.37003 -0.04394
# Poissons Ratio (z) = 0.66899 -0.16986
#
# Static dielectric constant tensor:
#      x y z
#    x 1.790680 0.000000 0.000000 
#    y 0.000000 1.862010 0.000000 
#    z 0.000000 0.000000 1.782380 
# 
# From -- ./inp_files/21627.got.cif
#   From: 2010.05.17/outbox.cif.g08.bks.cpg/sg67_11_cif.got.tgz:21627.got - 2010.06.03 18:28:57.
