data_PCOD9503368
_publ_section_title
;
Structure prediction by ZEFSAII (Michael W. Deem and Ramdas Pophale) SiO2 
 PCOD9503368
Probable space group: C M M A
;
_chemical_formula_sum "Si O2"
_cell_formula_units_Z 52
_cell_length_a 17.264234
_cell_length_b 13.762819
_cell_length_c 10.262388
_cell_angle_alpha 90.000000
_cell_angle_beta 90.000000
_cell_angle_gamma 90.000000
_cell_volume 2438.389854
_symmetry_space_group_name_H-M "C M M A"
_symmetry_group_IT_number 67
_symmetry_cell_setting 'orthorhombic'
loop_
_space_group_symop_operation_xyz
x,y,z
-x,1/2-y,z
x,-y,-z
-x,1/2+y,-z
-x,-y,-z
x,1/2+y,-z
-x,y,z
x,1/2-y,z
1/2+x,1/2+y,z
1/2-x,-y,z
1/2+x,1/2-y,-z
1/2-x,y,-z
1/2-x,1/2-y,-z
1/2+x,y,-z
1/2-x,1/2+y,z
1/2+x,-y,z
loop_
_atom_site_type_symbol
_atom_site_label
_atom_site_fract_x
_atom_site_fract_y
_atom_site_fract_z
Si Si1 0.121631 0.638250 0.898841
Si Si2 0.746313 0.139007 0.290731
Si Si3 0.585843 0.072032 0.191888
Si Si4 0.750000 0.500000 0.500000
O O1 0.097959 0.750000 0.867890
O O2 0.210393 0.629621 0.848081
O O3 0.084815 0.544646 0.828370
O O4 0.105303 0.618890 0.050344
O O5 0.749417 0.250000 0.328841
O O6 0.657794 0.104873 0.279394
O O7 0.789133 0.074355 0.399019
O O8 0.500000 0.103593 0.233206
#
# Coordination Sequence:
#
# PCOD9503368 Si02
#       4
#    16  16  16   4
#     4  10  20  37  61  89 120 157 197 240 294 357
#     4  11  23  40  65  89 116 157 203 249 292 344
#     4  11  22  37  60  93 130 156 184 239 307 369
#     4  12  22  44  64  86 112 152 220 258 280 330
#
# _framework density 21.325548999999999
#
# number of rings (size 3 to 8) (size 9 to 14) (size 15 to 20)
#    0.000    1.231    3.077    4.154    0.000    9.231 
#    0.000    0.769    0.000    0.000    0.000    0.000 
#    0.000    0.000    0.000    0.000    0.000    0.000 
#
# Total GULP energy -144827.439617 kJ/mol
# GULP energy per Si atom -5570.286139 kJ/mol
# Density = 2.127701 g / cm^3
# Si number density = 21.325549 Si / 1000 Ang^3
#
#
#
# Elastic Constant Matrix: (Units=GPa)
#
#
# Indices 1 2 3 4 5 6 
#
# 1 130.3488 32.4807 21.7917 0.0000 0.0000 0.0000
# 2 32.4807 166.7745 29.2306 0.0000 0.0000 0.0000
# 3 21.7917 29.2306 56.8008 0.0000 0.0000 0.0000
# 4 0.0000 0.0000 0.0000 21.4960 0.0000 0.0000
# 5 0.0000 0.0000 0.0000 0.0000 6.2250 0.0000
# 6 0.0000 0.0000 0.0000 0.0000 0.0000 3.7959
#
#
#
# Elastic Compliance Matrix: (Units=1/GPa)
#
#
# Indices 1 2 3 4 5 6 
#
# 1 0.008403 -0.001178 -0.002618 0.000000 0.000000 0.000000
# 2 -0.001178 0.006756 -0.003025 0.000000 0.000000 0.000000
# 3 -0.002618 -0.003025 0.020166 0.000000 0.000000 0.000000
# 4 0.000000 0.000000 0.000000 0.046520 0.000000 0.000000
# 5 0.000000 0.000000 0.000000 0.000000 0.160642 0.000000
# 6 0.000000 0.000000 0.000000 0.000000 0.000000 0.263443
#
#
# Mechanical properties :
#
#
# Convention : Reuss Voigt Hill
#
# Bulk Modulus (GPa) = 46.11602 57.88114 51.99858
# Shear Modulus (GPa) = 9.49130 24.33145 16.91138
#
# Velocity S-wave (km/s) = 2.11195 3.38146 2.81910
# Velocity P-wave (km/s) = 5.25536 6.51509 5.91883
#
# Compressibility (1/GPa) = 0.02168444
#
# Stress axis : x y z
#
# Youngs Moduli (GPa) = 119.00777 148.02454 49.58782
#
# Poissons Ratio (x) = 0.17433 0.12980
# Poissons Ratio (y) = 0.14016 0.14999
# Poissons Ratio (z) = 0.31152 0.44773
#
# Static dielectric constant tensor:
#      x y z
#    x 1.807320 0.000000 0.000000 
#    y 0.000000 1.798860 0.000000 
#    z 0.000000 0.000000 1.791680 
# 
# From -- ./inp_files/10493.got.cif
#   From: 2010.05.17/outbox.cif.g08.bks.cpg/sg67_6_cif.got.tgz:10493.got - 2010.06.03 18:28:57.
