data_PCOD9503217
_publ_section_title
;
Structure prediction by ZEFSAII (Michael W. Deem and Ramdas Pophale) SiO2 
 PCOD9503217
Probable space group: C M M A
;
_chemical_formula_sum "Si O2"
_cell_formula_units_Z 72
_cell_length_a 16.819472
_cell_length_b 8.828550
_cell_length_c 25.216704
_cell_angle_alpha 90.000000
_cell_angle_beta 90.000000
_cell_angle_gamma 90.000000
_cell_volume 3744.467451
_symmetry_space_group_name_H-M "C M M A"
_symmetry_group_IT_number 67
_symmetry_cell_setting 'orthorhombic'
loop_
_space_group_symop_operation_xyz
x,y,z
-x,1/2-y,z
x,-y,-z
-x,1/2+y,-z
-x,-y,-z
x,1/2+y,-z
-x,y,z
x,1/2-y,z
1/2+x,1/2+y,z
1/2-x,-y,z
1/2+x,1/2-y,-z
1/2-x,y,-z
1/2-x,1/2-y,-z
1/2+x,y,-z
1/2-x,1/2+y,z
1/2+x,-y,z
loop_
_atom_site_type_symbol
_atom_site_label
_atom_site_fract_x
_atom_site_fract_y
_atom_site_fract_z
Si Si1 0.337614 0.067821 0.619936
Si Si2 0.500000 0.433728 0.558832
Si Si3 0.906894 0.580461 0.155979
Si Si4 0.336370 0.931258 0.256624
Si Si5 0.837875 0.429685 0.052838
O O1 0.330574 0.250000 0.615189
O O2 0.416609 0.020088 0.587414
O O3 0.353933 0.031660 0.681923
O O4 0.250000 0.000000 0.605820
O O5 0.500000 0.250000 0.558029
O O6 0.500000 0.500000 0.500000
O O7 0.870551 0.750000 0.153937
O O8 0.891860 0.505932 0.212942
O O9 0.875468 0.478924 0.108162
O O10 0.000000 0.593834 0.148297
O O11 0.336390 0.750000 0.251346
O O12 0.250000 0.000000 0.245340
O O13 0.834867 0.250000 0.047568
O O14 0.750000 0.500000 0.054343
O O15 0.877794 0.500000 0.000000
#
# Coordination Sequence:
#
# PCOD9503217 Si02
#       5
#    16   8  16  16  16
#     4   9  20  38  61  87 120 158 201 249 301 358
#     4  10  22  40  60  88 122 162 203 248 299 354
#     4  11  24  39  55  81 116 150 187 234 285 342
#     4  10  20  36  60  85 113 149 190 237 289 347
#     4  11  22  39  62  84 109 144 188 235 284 342
#
# _framework density 19.228366999999999
#
# number of rings (size 3 to 8) (size 9 to 14) (size 15 to 20)
#    0.000    1.778    0.000    4.667    1.556    4.444 
#    0.000    2.222    0.000    0.000    0.000    0.000 
#    0.000    0.000    0.000    0.000    0.000    0.000 
#
# Total GULP energy -200881.321536 kJ/mol
# GULP energy per Si atom -5580.036709 kJ/mol
# Density = 1.918460 g / cm^3
# Si number density = 19.228367 Si / 1000 Ang^3
#
#
#
# Elastic Constant Matrix: (Units=GPa)
#
#
# Indices 1 2 3 4 5 6 
#
# 1 103.1088 37.6872 72.0593 0.0000 0.0000 0.0000
# 2 37.6872 109.5283 47.9565 0.0000 0.0000 0.0000
# 3 72.0593 47.9565 99.5323 0.0000 0.0000 0.0000
# 4 0.0000 0.0000 0.0000 36.5306 0.0000 0.0000
# 5 0.0000 0.0000 0.0000 0.0000 44.8166 0.0000
# 6 0.0000 0.0000 0.0000 0.0000 0.0000 24.0242
#
#
#
# Elastic Compliance Matrix: (Units=1/GPa)
#
#
# Indices 1 2 3 4 5 6 
#
# 1 0.019671 -0.000675 -0.013916 0.000000 0.000000 0.000000
# 2 -0.000675 0.011594 -0.005097 0.000000 0.000000 0.000000
# 3 -0.013916 -0.005097 0.022578 0.000000 0.000000 0.000000
# 4 0.000000 0.000000 0.000000 0.027374 0.000000 0.000000
# 5 0.000000 0.000000 0.000000 0.000000 0.022313 0.000000
# 6 0.000000 0.000000 0.000000 0.000000 0.000000 0.041625
#
#
# Mechanical properties :
#
#
# Convention : Reuss Voigt Hill
#
# Bulk Modulus (GPa) = 69.12939 69.73061 69.43000
# Shear Modulus (GPa) = 26.40568 31.37205 28.88886
#
# Velocity S-wave (km/s) = 3.70978 4.04363 3.88030
# Velocity P-wave (km/s) = 7.37427 7.62525 7.50081
#
# Compressibility (1/GPa) = 0.01446563
#
# Stress axis : x y z
#
# Youngs Moduli (GPa) = 50.83747 86.24910 44.29174
#
# Poissons Ratio (x) = 0.05826 0.61635
# Poissons Ratio (y) = 0.03434 0.22577
# Poissons Ratio (z) = 0.70743 0.43964
#
# Static dielectric constant tensor:
#      x y z
#    x 1.656990 0.000000 0.000000 
#    y 0.000000 1.669700 0.000000 
#    z 0.000000 0.000000 1.675780 
# 
# From -- ./inp_files/40480.got.cif
#   From: 2010.05.17/outbox.cif.g08.bks.cpg/sg67_21_cif.got.tgz:40480.got - 2010.06.03 18:28:57.
