data_PCOD9503306
_publ_section_title
;
Structure prediction by ZEFSAII (Michael W. Deem and Ramdas Pophale) SiO2 
 PCOD9503306
Probable space group: C M M A
;
_chemical_formula_sum "Si O2"
_cell_formula_units_Z 52
_cell_length_a 7.638179
_cell_length_b 36.529214
_cell_length_c 7.303937
_cell_angle_alpha 90.000000
_cell_angle_beta 90.000000
_cell_angle_gamma 90.000000
_cell_volume 2037.920218
_symmetry_space_group_name_H-M "C M M A"
_symmetry_group_IT_number 67
_symmetry_cell_setting 'orthorhombic'
loop_
_space_group_symop_operation_xyz
x,y,z
-x,1/2-y,z
x,-y,-z
-x,1/2+y,-z
-x,-y,-z
x,1/2+y,-z
-x,y,z
x,1/2-y,z
1/2+x,1/2+y,z
1/2-x,-y,z
1/2+x,1/2-y,-z
1/2-x,y,-z
1/2-x,1/2-y,-z
1/2+x,y,-z
1/2-x,1/2+y,z
1/2+x,-y,z
loop_
_atom_site_type_symbol
_atom_site_label
_atom_site_fract_x
_atom_site_fract_y
_atom_site_fract_z
Si Si1 0.000000 0.250000 0.352005
Si Si2 0.293937 0.039973 0.716745
Si Si3 0.300747 0.800762 0.793539
Si Si4 0.290556 0.618214 0.283588
O O1 0.154034 0.218139 0.329222
O O2 0.500000 0.043325 0.732786
O O3 0.250000 0.038702 0.500000
O O4 0.220580 0.078788 0.787205
O O5 0.250000 0.000000 0.793271
O O6 0.500000 0.789678 0.748557
O O7 0.291658 0.844668 0.788952
O O8 0.250000 0.789747 0.000000
O O9 0.500000 0.620722 0.255694
O O10 0.250000 0.618103 0.500000
#
# Coordination Sequence:
#
# PCOD9503306 Si02
#       4
#     4  16  16  16
#     4  12  24  44  64  88 120 138 208 236 296 338
#     4   9  16  26  47  76 112 149 191 233 275 328
#     4  12  24  40  66  89 114 153 192 244 291 346
#     4  10  20  37  57  85 122 157 192 240 292 347
#
# _framework density 25.516209
#
# number of rings (size 3 to 8) (size 9 to 14) (size 15 to 20)
#    0.000    1.538    3.077    3.692    0.000    3.692 
#    0.000    0.769    0.000    0.923    0.000    6.462 
#    0.000    0.000    0.000    0.000    0.000    0.000 
#
# Total GULP energy -144949.331862 kJ/mol
# GULP energy per Si atom -5574.974302 kJ/mol
# Density = 2.545813 g / cm^3
# Si number density = 25.516209 Si / 1000 Ang^3
#
#
#
# Elastic Constant Matrix: (Units=GPa)
#
#
# Indices 1 2 3 4 5 6 
#
# 1 207.9790 57.9179 5.2807 0.0000 0.0000 0.0000
# 2 57.9179 305.0927 10.1720 0.0000 0.0000 0.0000
# 3 5.2807 10.1720 88.7698 0.0000 0.0000 0.0000
# 4 0.0000 0.0000 0.0000 152.9650 0.0000 0.0000
# 5 0.0000 0.0000 0.0000 0.0000 12.9955 0.0000
# 6 0.0000 0.0000 0.0000 0.0000 0.0000 62.7291
#
#
#
# Elastic Compliance Matrix: (Units=1/GPa)
#
#
# Indices 1 2 3 4 5 6 
#
# 1 0.005080 -0.000958 -0.000192 0.000000 0.000000 0.000000
# 2 -0.000958 0.003471 -0.000341 0.000000 0.000000 0.000000
# 3 -0.000192 -0.000341 0.011316 0.000000 0.000000 0.000000
# 4 0.000000 0.000000 0.000000 0.006537 0.000000 0.000000
# 5 0.000000 0.000000 0.000000 0.000000 0.076950 0.000000
# 6 0.000000 0.000000 0.000000 0.000000 0.000000 0.015942
#
#
# Mechanical properties :
#
#
# Convention : Reuss Voigt Hill
#
# Bulk Modulus (GPa) = 59.22716 83.17586 71.20151
# Shear Modulus (GPa) = 39.09144 80.96932 60.03038
#
# Velocity S-wave (km/s) = 3.91835 5.63927 4.85566
# Velocity P-wave (km/s) = 6.61312 8.66429 7.70724
#
# Compressibility (1/GPa) = 0.01688414
#
# Stress axis : x y z
#
# Youngs Moduli (GPa) = 196.85716 288.10956 88.37369
#
# Poissons Ratio (x) = 0.27599 0.01700
# Poissons Ratio (y) = 0.18857 0.03011
# Poissons Ratio (z) = 0.03788 0.09817
#
# Static dielectric constant tensor:
#      x y z
#    x 1.821110 0.000000 0.000000 
#    y 0.000000 2.086130 0.000000 
#    z 0.000000 0.000000 2.070680 
# 
# From -- ./inp_files/15663.got.cif
#   From: 2010.05.17/outbox.cif.g08.bks.cpg/sg67_8_cif.got.tgz:15663.got - 2010.06.03 18:28:57.
