data_PCOD9503513
_publ_section_title
;
Structure prediction by ZEFSAII (Michael W. Deem and Ramdas Pophale) SiO2 
 PCOD9503513
Probable space group: C M M A
;
_chemical_formula_sum "Si O2"
_cell_formula_units_Z 64
_cell_length_a 10.670757
_cell_length_b 31.327455
_cell_length_c 9.799162
_cell_angle_alpha 90.000000
_cell_angle_beta 90.000000
_cell_angle_gamma 90.000000
_cell_volume 3275.738932
_symmetry_space_group_name_H-M "C M M A"
_symmetry_group_IT_number 67
_symmetry_cell_setting 'orthorhombic'
loop_
_space_group_symop_operation_xyz
x,y,z
-x,1/2-y,z
x,-y,-z
-x,1/2+y,-z
-x,-y,-z
x,1/2+y,-z
-x,y,z
x,1/2-y,z
1/2+x,1/2+y,z
1/2-x,-y,z
1/2+x,1/2-y,-z
1/2-x,y,-z
1/2-x,1/2-y,-z
1/2+x,y,-z
1/2-x,1/2+y,z
1/2+x,-y,z
loop_
_atom_site_type_symbol
_atom_site_label
_atom_site_fract_x
_atom_site_fract_y
_atom_site_fract_z
Si Si1 0.728091 0.411334 0.797907
Si Si2 0.500000 0.854760 0.603699
Si Si3 0.750000 0.874858 0.500000
Si Si4 0.000000 0.026156 0.142590
Si Si5 0.500000 0.701047 0.875858
Si Si6 0.000000 0.561177 0.241492
Si Si7 0.250000 0.835034 0.000000
O O1 0.724539 0.402506 0.635804
O O2 0.622557 0.444680 0.841163
O O3 0.869037 0.427399 0.831849
O O4 0.713241 0.366772 0.876311
O O5 0.627895 0.846415 0.526669
O O6 0.500000 0.831441 0.748351
O O7 0.500000 0.906222 0.631339
O O8 0.000000 0.989393 0.258803
O O9 0.000000 0.000000 0.000000
O O10 0.500000 0.750000 0.830173
O O11 0.627211 0.691358 0.958693
#
# Coordination Sequence:
#
# PCOD9503513 Si02
#       7
#    16   8   8   8   8   8   8
#     4  11  22  39  66  94 127 179 221 269 325 393
#     4  10  21  43  65  92 131 174 212 273 335 394
#     4  10  20  42  70  92 128 178 226 262 333 405
#     4  12  24  35  56  97 132 170 228 275 311 368
#     4  12  25  43  69 101 134 165 214 278 338 406
#     4  10  20  39  55  85 132 170 207 266 315 369
#     4  12  21  44  69  96 130 176 212 267 343 392
#
# _framework density 19.537578
#
# number of rings (size 3 to 8) (size 9 to 14) (size 15 to 20)
#    0.000    1.000    5.000    4.125    0.000    1.000 
#    0.000   15.625    0.000    0.000    0.000    0.000 
#    0.000    0.000    0.000    0.000    0.000    0.000 
#
# Total GULP energy -178620.822251 kJ/mol
# GULP energy per Si atom -5581.900695 kJ/mol
# Density = 1.949311 g / cm^3
# Si number density = 19.537578 Si / 1000 Ang^3
#
#
#
# Elastic Constant Matrix: (Units=GPa)
#
#
# Indices 1 2 3 4 5 6 
#
# 1 195.9531 31.8392 37.9815 0.0000 0.0000 0.0000
# 2 31.8392 62.0741 22.4248 0.0000 0.0000 0.0000
# 3 37.9815 22.4248 112.8129 0.0000 0.0000 0.0000
# 4 0.0000 0.0000 0.0000 1.8255 0.0000 0.0000
# 5 0.0000 0.0000 0.0000 0.0000 0.8494 0.0000
# 6 0.0000 0.0000 0.0000 0.0000 0.0000 6.7115
#
#
#
# Elastic Compliance Matrix: (Units=1/GPa)
#
#
# Indices 1 2 3 4 5 6 
#
# 1 0.005783 -0.002438 -0.001462 0.000000 0.000000 0.000000
# 2 -0.002438 0.018384 -0.002834 0.000000 0.000000 0.000000
# 3 -0.001462 -0.002834 0.009920 0.000000 0.000000 0.000000
# 4 0.000000 0.000000 0.000000 0.547809 0.000000 0.000000
# 5 0.000000 0.000000 0.000000 0.000000 1.177269 0.000000
# 6 0.000000 0.000000 0.000000 0.000000 0.000000 0.148999
#
#
# Mechanical properties :
#
#
# Convention : Reuss Voigt Hill
#
# Bulk Modulus (GPa) = 48.49899 61.70346 55.10123
# Shear Modulus (GPa) = 2.59268 20.45024 11.52146
#
# Velocity S-wave (km/s) = 1.15322 3.23880 2.43102
# Velocity P-wave (km/s) = 5.16242 6.75551 6.01197
#
# Compressibility (1/GPa) = 0.02061899
#
# Stress axis : x y z
#
# Youngs Moduli (GPa) = 172.92606 54.39558 100.80821
#
# Poissons Ratio (x) = 0.13261 0.14742
# Poissons Ratio (y) = 0.42157 0.28565
# Poissons Ratio (z) = 0.25288 0.15413
#
# Static dielectric constant tensor:
#      x y z
#    x 1.720950 0.000000 0.000000 
#    y 0.000000 1.654260 0.000000 
#    z 0.000000 0.000000 1.712400 
# 
# From -- ./inp_files/6786.got.cif
#   From: 2010.05.17/outbox.cif.g08.bks.cpg/sg67_4_cif.got.tgz:6786.got - 2010.06.03 18:28:57.
