data_PCOD9503754
_publ_section_title
;
Structure prediction by ZEFSAII (Michael W. Deem and Ramdas Pophale) SiO2 
 PCOD9503754
Probable space group: C M M A
;
_chemical_formula_sum "Si O2"
_cell_formula_units_Z 72
_cell_length_a 8.660870
_cell_length_b 16.427402
_cell_length_c 25.955671
_cell_angle_alpha 90.000000
_cell_angle_beta 90.000000
_cell_angle_gamma 90.000000
_cell_volume 3692.858487
_symmetry_space_group_name_H-M "C M M A"
_symmetry_group_IT_number 67
_symmetry_cell_setting 'orthorhombic'
loop_
_space_group_symop_operation_xyz
x,y,z
-x,1/2-y,z
x,-y,-z
-x,1/2+y,-z
-x,-y,-z
x,1/2+y,-z
-x,y,z
x,1/2-y,z
1/2+x,1/2+y,z
1/2-x,-y,z
1/2+x,1/2-y,-z
1/2-x,y,-z
1/2-x,1/2-y,-z
1/2+x,y,-z
1/2-x,1/2+y,z
1/2+x,-y,z
loop_
_atom_site_type_symbol
_atom_site_label
_atom_site_fract_x
_atom_site_fract_y
_atom_site_fract_z
Si Si1 0.818442 0.590529 0.551530
Si Si2 0.174000 0.345784 0.654696
Si Si3 0.314005 0.250000 0.942045
Si Si4 0.313968 0.590263 0.763651
Si Si5 0.812879 0.906713 0.119740
O O1 0.750000 0.500000 0.552855
O O2 0.750000 0.631962 0.500000
O O3 0.773031 0.627701 0.606136
O O4 0.000000 0.587393 0.545586
O O5 0.159630 0.250000 0.652225
O O6 0.237716 0.365872 0.711467
O O7 0.000000 0.382339 0.649835
O O8 0.500000 0.250000 0.941187
O O9 0.252926 0.333689 0.915281
O O10 0.250000 0.250000 0.000000
O O11 0.500000 0.592043 0.763134
O O12 0.250000 0.500000 0.759243
O O13 0.269623 0.617667 0.821158
O O14 0.000000 0.909454 0.115286
O O15 0.750000 0.000000 0.110472
#
# Coordination Sequence:
#
# PCOD9503754 Si02
#       5
#    16  16   8  16  16
#     4  11  22  38  59  80 105 140 187 237 290 348
#     4  10  21  36  55  82 116 152 189 232 287 347
#     4  12  26  44  66  96 130 170 217 264 317 372
#     4   9  19  35  59  86 117 155 195 239 292 350
#     4  10  21  40  66  96 131 170 214 262 316 375
#
# _framework density 19.497091999999999
#
# number of rings (size 3 to 8) (size 9 to 14) (size 15 to 20)
#    0.000    1.778    0.000    5.000    1.556    4.889 
#    0.000    2.222    0.000    0.000    0.000    0.000 
#    0.000    0.000    0.000    0.000    0.000    0.000 
#
# Total GULP energy -200728.132031 kJ/mol
# GULP energy per Si atom -5575.781445 kJ/mol
# Density = 1.945272 g / cm^3
# Si number density = 19.497092 Si / 1000 Ang^3
#
#
#
# Elastic Constant Matrix: (Units=GPa)
#
#
# Indices 1 2 3 4 5 6 
#
# 1 107.3977 42.5994 76.2343 0.0000 0.0000 0.0000
# 2 42.5994 85.1274 94.5794 0.0000 0.0000 0.0000
# 3 76.2343 94.5794 192.9901 0.0000 0.0000 0.0000
# 4 0.0000 0.0000 0.0000 52.4174 0.0000 0.0000
# 5 0.0000 0.0000 0.0000 0.0000 26.2607 0.0000
# 6 0.0000 0.0000 0.0000 0.0000 0.0000 22.6935
#
#
#
# Elastic Compliance Matrix: (Units=1/GPa)
#
#
# Indices 1 2 3 4 5 6 
#
# 1 0.013059 -0.001764 -0.004294 0.000000 0.000000 0.000000
# 2 -0.001764 0.026027 -0.012058 0.000000 0.000000 0.000000
# 3 -0.004294 -0.012058 0.012787 0.000000 0.000000 0.000000
# 4 0.000000 0.000000 0.000000 0.019078 0.000000 0.000000
# 5 0.000000 0.000000 0.000000 0.000000 0.038080 0.000000
# 6 0.000000 0.000000 0.000000 0.000000 0.000000 0.044066
#
#
# Mechanical properties :
#
#
# Convention : Reuss Voigt Hill
#
# Bulk Modulus (GPa) = 63.93716 90.26016 77.09866
# Shear Modulus (GPa) = 25.70131 31.74779 28.72455
#
# Velocity S-wave (km/s) = 3.63466 4.03964 3.84249
# Velocity P-wave (km/s) = 7.10484 8.25548 7.70168
#
# Compressibility (1/GPa) = 0.01564036
#
# Stress axis : x y z
#
# Youngs Moduli (GPa) = 76.57608 38.42132 78.20316
#
# Poissons Ratio (x) = 0.06779 0.33579
# Poissons Ratio (y) = 0.13511 0.94300
# Poissons Ratio (z) = 0.32880 0.46330
#
# Static dielectric constant tensor:
#      x y z
#    x 1.707950 0.000000 0.000000 
#    y 0.000000 1.654970 0.000000 
#    z 0.000000 0.000000 1.753480 
# 
# From -- ./inp_files/40488.got.cif
#   From: 2010.05.17/outbox.cif.g08.bks.cpg/sg67_21_cif.got.tgz:40488.got - 2010.06.03 18:28:57.
