data_PCOD9503933
_publ_section_title
;
Structure prediction by ZEFSAII (Michael W. Deem and Ramdas Pophale) SiO2 
 PCOD9503933
Probable space group: C M M A
;
_chemical_formula_sum "Si O2"
_cell_formula_units_Z 88
_cell_length_a 8.410593
_cell_length_b 25.367120
_cell_length_c 20.565717
_cell_angle_alpha 90.000000
_cell_angle_beta 90.000000
_cell_angle_gamma 90.000000
_cell_volume 4387.747587
_symmetry_space_group_name_H-M "C M M A"
_symmetry_group_IT_number 67
_symmetry_cell_setting 'orthorhombic'
loop_
_space_group_symop_operation_xyz
x,y,z
-x,1/2-y,z
x,-y,-z
-x,1/2+y,-z
-x,-y,-z
x,1/2+y,-z
-x,y,z
x,1/2-y,z
1/2+x,1/2+y,z
1/2-x,-y,z
1/2+x,1/2-y,-z
1/2-x,y,-z
1/2-x,1/2-y,-z
1/2+x,y,-z
1/2-x,1/2+y,z
1/2+x,-y,z
loop_
_atom_site_type_symbol
_atom_site_label
_atom_site_fract_x
_atom_site_fract_y
_atom_site_fract_z
Si Si1 0.261549 0.250000 0.686946
Si Si2 0.311898 0.828259 0.570205
Si Si3 0.319208 0.686593 0.931480
Si Si4 0.814568 0.056846 0.403512
Si Si5 0.812770 0.158806 0.206357
Si Si6 0.186282 0.552680 0.259422
O O1 0.265833 0.203848 0.629516
O O2 0.256765 0.295839 0.744015
O O3 0.500000 0.818940 0.576234
O O4 0.250000 0.810593 0.500000
O O5 0.276229 0.890742 0.574068
O O6 0.500000 0.667793 0.922046
O O7 0.324116 0.750000 0.935683
O O8 0.216543 0.673628 0.868305
O O9 0.250000 0.666906 0.000000
O O10 0.786762 0.056529 0.325906
O O11 0.000000 0.061864 0.419604
O O12 0.750000 0.000000 0.426417
O O13 0.718679 0.105528 0.220713
O O14 0.000000 0.151482 0.218600
O O15 0.250000 0.500000 0.225105
O O16 0.000000 0.547824 0.275517
#
# Coordination Sequence:
#
# PCOD9503933 Si02
#       6
#     8  16  16  16  16  16
#     4  12  27  42  66  92 131 164 216 259 318 376
#     4  12  27  46  67  91 125 167 212 261 321 385
#     4  10  21  37  59  90 132 175 218 263 315 373
#     4  11  22  40  66  94 124 159 205 260 320 378
#     4  12  24  40  66  97 131 171 215 263 316 373
#     4  11  22  39  64  94 128 164 209 262 320 375
#
# _framework density 20.055848999999998
#
# number of rings (size 3 to 8) (size 9 to 14) (size 15 to 20)
#    0.000    0.727    2.727    6.818    0.000    5.455 
#    0.000    1.818    0.000    0.545    0.000    3.818 
#    0.000    0.000    0.000    0.000    0.000    0.000 
#
# Total GULP energy -244939.689207 kJ/mol
# GULP energy per Si atom -5566.811118 kJ/mol
# Density = 2.001020 g / cm^3
# Si number density = 20.055849 Si / 1000 Ang^3
#
#
#
# Elastic Constant Matrix: (Units=GPa)
#
#
# Indices 1 2 3 4 5 6 
#
# 1 57.1367 22.2465 2.0643 0.0000 0.0000 0.0000
# 2 22.2465 124.8381 38.7588 0.0000 0.0000 0.0000
# 3 2.0643 38.7588 137.0820 0.0000 0.0000 0.0000
# 4 0.0000 0.0000 0.0000 22.2708 0.0000 0.0000
# 5 0.0000 0.0000 0.0000 0.0000 18.7738 0.0000
# 6 0.0000 0.0000 0.0000 0.0000 0.0000 -5.8753
#
#
#
# Elastic Compliance Matrix: (Units=1/GPa)
#
#
# Indices 1 2 3 4 5 6 
#
# 1 0.018873 -0.003590 0.000731 0.000000 0.000000 0.000000
# 2 -0.003590 0.009464 -0.002622 0.000000 0.000000 0.000000
# 3 0.000731 -0.002622 0.008025 0.000000 0.000000 0.000000
# 4 0.000000 0.000000 0.000000 0.044902 0.000000 0.000000
# 5 0.000000 0.000000 0.000000 0.000000 0.053266 0.000000
# 6 0.000000 0.000000 0.000000 0.000000 0.000000 -0.170203
#
#
# Mechanical properties :
#
#
# Convention : Reuss Voigt Hill
#
# Bulk Modulus (GPa) = 39.36947 49.46624 44.41786
# Shear Modulus (GPa) = -307.81377 24.09965 -141.85706
#
# Velocity S-wave (km/s) = -12.40208 3.47021 -8.41930
# Velocity P-wave (km/s) = 13.61651 6.38547 8.50398
#
# Compressibility (1/GPa) = 0.02540039
#
# Stress axis : x y z
#
# Youngs Moduli (GPa) = 52.98471 105.66165 124.60741
#
# Poissons Ratio (x) = 0.37935 -0.09107
# Poissons Ratio (y) = 0.19023 0.32670
# Poissons Ratio (z) = -0.03873 0.27703
#
# Static dielectric constant tensor:
#      x y z
#    x 1.116580 0.000000 0.000000 
#    y 0.000000 1.729790 0.000000 
#    z 0.000000 0.000000 1.692060 
# 
# From -- ./inp_files/36932.got.cif
#   From: 2010.05.17/outbox.cif.g08.bks.cpg/sg67_19_cif.got.tgz:36932.got - 2010.06.03 18:28:57.
