data_PCOD9503074
_publ_section_title
;
Structure prediction by ZEFSAII (Michael W. Deem and Ramdas Pophale) SiO2 
 PCOD9503074
Probable space group: C M M A
;
_chemical_formula_sum "Si O2"
_cell_formula_units_Z 112
_cell_length_a 14.610979
_cell_length_b 13.829077
_cell_length_c 29.190535
_cell_angle_alpha 90.000000
_cell_angle_beta 90.000000
_cell_angle_gamma 90.000000
_cell_volume 5898.133063
_symmetry_space_group_name_H-M "C M M A"
_symmetry_group_IT_number 67
_symmetry_cell_setting 'orthorhombic'
loop_
_space_group_symop_operation_xyz
x,y,z
-x,1/2-y,z
x,-y,-z
-x,1/2+y,-z
-x,-y,-z
x,1/2+y,-z
-x,y,z
x,1/2-y,z
1/2+x,1/2+y,z
1/2-x,-y,z
1/2+x,1/2-y,-z
1/2-x,y,-z
1/2-x,1/2-y,-z
1/2+x,y,-z
1/2-x,1/2+y,z
1/2+x,-y,z
loop_
_atom_site_type_symbol
_atom_site_label
_atom_site_fract_x
_atom_site_fract_y
_atom_site_fract_z
Si Si1 0.604992 0.858851 0.014874
Si Si2 0.389556 0.478205 0.252327
Si Si3 0.893829 0.514390 0.554563
Si Si4 0.754401 0.861840 0.403675
Si Si5 0.739033 0.362526 0.703730
Si Si6 0.653248 0.962818 0.926205
Si Si7 0.393594 0.141315 0.165388
O O1 0.500000 0.857367 0.997822
O O2 0.629770 0.750000 0.029078
O O3 0.607377 0.939121 0.054628
O O4 0.662286 0.896446 0.971501
O O5 0.500000 0.487517 0.256535
O O6 0.334565 0.573789 0.268115
O O7 0.341864 0.396177 0.283587
O O8 0.362283 0.439767 0.201597
O O9 0.889638 0.500000 0.500000
O O10 0.837864 0.428715 0.579568
O O11 0.835090 0.608494 0.567593
O O12 0.000000 0.518923 0.568450
O O13 0.777543 0.750000 0.409164
O O14 0.729895 0.879872 0.350508
O O15 0.726815 0.250000 0.713507
O O16 0.611140 0.900742 0.885749
O O17 0.750000 0.000000 0.909004
O O18 0.500000 0.152348 0.177049
O O19 0.351770 0.250000 0.168591
#
# Coordination Sequence:
#
# PCOD9503074 Si02
#       7
#    16  16  16  16  16  16  16
#     4  10  20  36  56  75 104 144 181 220 264 317
#     4  10  21  38  61  85 113 150 191 235 287 348
#     4  10  21  36  55  82 116 155 198 243 290 339
#     4  10  21  37  57  83 114 153 194 239 293 349
#     4  10  22  38  59  87 118 148 189 241 295 349
#     4  11  22  33  53  82 108 138 176 220 272 323
#     4  10  21  38  59  81 106 140 182 223 268 329
#
# _framework density 18.989059000000001
#
# number of rings (size 3 to 8) (size 9 to 14) (size 15 to 20)
#    0.000    1.857    0.000    6.000    2.000    8.000 
#    0.000    5.000    0.000    0.857    0.000    0.000 
#    0.000    0.000    0.000    0.000    0.000    0.000 
#
# Total GULP energy -312125.633655 kJ/mol
# GULP energy per Si atom -5573.672030 kJ/mol
# Density = 1.894584 g / cm^3
# Si number density = 18.989059 Si / 1000 Ang^3
#
#
#
# Elastic Constant Matrix: (Units=GPa)
#
#
# Indices 1 2 3 4 5 6 
#
# 1 81.9024 15.7236 13.3376 0.0000 0.0000 0.0000
# 2 15.7236 124.7048 31.2999 0.0000 0.0000 0.0000
# 3 13.3376 31.2999 69.6209 0.0000 0.0000 0.0000
# 4 0.0000 0.0000 0.0000 -2.1117 0.0000 0.0000
# 5 0.0000 0.0000 0.0000 0.0000 16.1403 0.0000
# 6 0.0000 0.0000 0.0000 0.0000 0.0000 12.0138
#
#
#
# Elastic Compliance Matrix: (Units=1/GPa)
#
#
# Indices 1 2 3 4 5 6 
#
# 1 0.012740 -0.001120 -0.001937 0.000000 0.000000 0.000000
# 2 -0.001120 0.009137 -0.003893 0.000000 0.000000 0.000000
# 3 -0.001937 -0.003893 0.016485 0.000000 0.000000 0.000000
# 4 0.000000 0.000000 0.000000 -0.473551 0.000000 0.000000
# 5 0.000000 0.000000 0.000000 0.000000 0.061957 0.000000
# 6 0.000000 0.000000 0.000000 0.000000 0.000000 0.083238
#
#
# Mechanical properties :
#
#
# Convention : Reuss Voigt Hill
#
# Bulk Modulus (GPa) = 40.88095 44.10558 42.49327
# Shear Modulus (GPa) = -18.66095 19.59960 0.46933
#
# Velocity S-wave (km/s) = -3.13824 3.21620 0.49769
# Velocity P-wave (km/s) = 2.90586 6.08845 4.77039
#
# Compressibility (1/GPa) = 0.02446127
#
# Stress axis : x y z
#
# Youngs Moduli (GPa) = 78.49198 109.44066 60.66141
#
# Poissons Ratio (x) = 0.12259 0.11751
# Poissons Ratio (y) = 0.08792 0.23618
# Poissons Ratio (z) = 0.15205 0.42609
#
# Static dielectric constant tensor:
#      x y z
#    x 1.685950 0.000000 0.000000 
#    y 0.000000 1.736780 0.000000 
#    z 0.000000 0.000000 1.667340 
# 
# From -- ./inp_files/42003.got.cif
#   From: 2010.05.17/outbox.cif.g08.bks.cpg/sg67_22_cif.got.tgz:42003.got - 2010.06.03 18:28:57.
