data_PCOD9503618
_publ_section_title
;
Structure prediction by ZEFSAII (Michael W. Deem and Ramdas Pophale) SiO2 
 PCOD9503618
Probable space group: C M M A
;
_chemical_formula_sum "Si O2"
_cell_formula_units_Z 96
_cell_length_a 14.673703
_cell_length_b 14.484669
_cell_length_c 22.500628
_cell_angle_alpha 90.000000
_cell_angle_beta 90.000000
_cell_angle_gamma 90.000000
_cell_volume 4782.367424
_symmetry_space_group_name_H-M "C M M A"
_symmetry_group_IT_number 67
_symmetry_cell_setting 'orthorhombic'
loop_
_space_group_symop_operation_xyz
x,y,z
-x,1/2-y,z
x,-y,-z
-x,1/2+y,-z
-x,-y,-z
x,1/2+y,-z
-x,y,z
x,1/2-y,z
1/2+x,1/2+y,z
1/2-x,-y,z
1/2+x,1/2-y,-z
1/2-x,y,-z
1/2-x,1/2-y,-z
1/2+x,y,-z
1/2-x,1/2+y,z
1/2+x,-y,z
loop_
_atom_site_type_symbol
_atom_site_label
_atom_site_fract_x
_atom_site_fract_y
_atom_site_fract_z
Si Si1 0.220937 0.862264 0.728681
Si Si2 0.266555 0.855125 0.405283
Si Si3 0.898771 0.605990 0.486876
Si Si4 0.851094 0.980841 0.097555
Si Si5 0.103114 0.028260 0.772358
Si Si6 0.606988 0.354533 0.989819
O O1 0.212567 0.750000 0.736900
O O2 0.206259 0.889954 0.659302
O O3 0.146793 0.925682 0.762855
O O4 0.321769 0.899869 0.746540
O O5 0.242001 0.750000 0.394325
O O6 0.174315 0.894055 0.433636
O O7 0.345393 0.856738 0.455135
O O8 0.911079 0.500000 0.500000
O O9 0.000000 0.645970 0.476450
O O10 0.903113 0.955315 0.156864
O O11 0.750000 0.000000 0.118905
O O12 0.847528 0.901969 0.047096
O O13 0.883542 0.073645 0.064274
O O14 0.000000 0.034723 0.747369
O O15 0.500000 0.351264 0.004280
O O16 0.638318 0.250000 0.977681
#
# Coordination Sequence:
#
# PCOD9503618 Si02
#       6
#    16  16  16  16  16  16
#     4  10  24  44  64  92 125 164 216 265 313 371
#     4  10  21  38  59  82 119 159 193 246 303 360
#     4  10  21  34  57  91 120 152 193 239 298 367
#     4  11  21  39  60  86 123 160 204 252 304 368
#     4  11  24  43  67  91 123 169 214 265 318 368
#     4  10  21  36  59  91 124 158 197 247 306 368
#
# _framework density 20.073740999999998
#
# number of rings (size 3 to 8) (size 9 to 14) (size 15 to 20)
#    0.000    1.667    1.667    5.000    4.667    6.000 
#    0.000    3.333    0.000    0.000    0.000    0.000 
#    0.000    0.000    0.000    0.000    0.000    0.000 
#
# Total GULP energy -267456.617980 kJ/mol
# GULP energy per Si atom -5572.012875 kJ/mol
# Density = 2.002805 g / cm^3
# Si number density = 20.073741 Si / 1000 Ang^3
#
#
#
# Elastic Constant Matrix: (Units=GPa)
#
#
# Indices 1 2 3 4 5 6 
#
# 1 98.8257 -19.6230 -17.7768 0.0000 0.0000 0.0000
# 2 -19.6230 84.3620 -7.4133 0.0000 0.0000 0.0000
# 3 -17.7768 -7.4133 65.0910 0.0000 0.0000 0.0000
# 4 0.0000 0.0000 0.0000 21.9844 0.0000 0.0000
# 5 0.0000 0.0000 0.0000 0.0000 21.2320 0.0000
# 6 0.0000 0.0000 0.0000 0.0000 0.0000 11.3361
#
#
#
# Elastic Compliance Matrix: (Units=1/GPa)
#
#
# Indices 1 2 3 4 5 6 
#
# 1 0.011317 0.002933 0.003425 0.000000 0.000000 0.000000
# 2 0.002933 0.012734 0.002251 0.000000 0.000000 0.000000
# 3 0.003425 0.002251 0.016555 0.000000 0.000000 0.000000
# 4 0.000000 0.000000 0.000000 0.045487 0.000000 0.000000
# 5 0.000000 0.000000 0.000000 0.000000 0.047099 0.000000
# 6 0.000000 0.000000 0.000000 0.000000 0.000000 0.088214
#
#
# Mechanical properties :
#
#
# Convention : Reuss Voigt Hill
#
# Bulk Modulus (GPa) = 17.29333 17.62805 17.46069
# Shear Modulus (GPa) = 22.37527 30.44997 26.41262
#
# Velocity S-wave (km/s) = 3.34227 3.89897 3.63130
# Velocity P-wave (km/s) = 4.85056 5.39166 5.12825
#
# Compressibility (1/GPa) = 0.05782578
#
# Stress axis : x y z
#
# Youngs Moduli (GPa) = 88.35973 78.53080 60.40507
#
# Poissons Ratio (x) = -0.23037 -0.20688
# Poissons Ratio (y) = -0.25920 -0.13600
# Poissons Ratio (z) = -0.30263 -0.17681
#
# Static dielectric constant tensor:
#      x y z
#    x 1.829100 0.000000 0.000000 
#    y 0.000000 1.738950 0.000000 
#    z 0.000000 0.000000 1.882070 
# 
# From -- ./inp_files/38369.got.cif
#   From: 2010.05.17/outbox.cif.g08.bks.cpg/sg67_20_cif.got.tgz:38369.got - 2010.06.03 18:28:57.
