data_PCOD9503029
_publ_section_title
;
Structure prediction by ZEFSAII (Michael W. Deem and Ramdas Pophale) SiO2 
 PCOD9503029
Probable space group: C M M A
;
_chemical_formula_sum "Si O2"
_cell_formula_units_Z 84
_cell_length_a 15.132908
_cell_length_b 16.149138
_cell_length_c 19.301051
_cell_angle_alpha 90.000000
_cell_angle_beta 90.000000
_cell_angle_gamma 90.000000
_cell_volume 4716.856846
_symmetry_space_group_name_H-M "C M M A"
_symmetry_group_IT_number 67
_symmetry_cell_setting 'orthorhombic'
loop_
_space_group_symop_operation_xyz
x,y,z
-x,1/2-y,z
x,-y,-z
-x,1/2+y,-z
-x,-y,-z
x,1/2+y,-z
-x,y,z
x,1/2-y,z
1/2+x,1/2+y,z
1/2-x,-y,z
1/2+x,1/2-y,-z
1/2-x,y,-z
1/2-x,1/2-y,-z
1/2+x,y,-z
1/2-x,1/2+y,z
1/2+x,-y,z
loop_
_atom_site_type_symbol
_atom_site_label
_atom_site_fract_x
_atom_site_fract_y
_atom_site_fract_z
Si Si1 0.693157 0.080567 0.848135
Si Si2 0.000000 0.428369 0.323991
Si Si3 0.314845 0.650627 0.307369
Si Si4 0.190118 0.150144 0.565162
Si Si5 0.302699 0.750000 0.071236
Si Si6 0.500000 0.434738 0.437811
Si Si7 0.500000 0.427339 0.834967
Si Si8 0.500000 0.750000 0.111842
O O1 0.695779 0.105503 0.766636
O O2 0.718284 0.164853 0.887975
O O3 0.593344 0.053246 0.868309
O O4 0.750000 0.000000 0.861499
O O5 0.911152 0.375598 0.335879
O O6 0.000000 0.509691 0.369463
O O7 0.000000 0.455390 0.243813
O O8 0.312219 0.750000 0.297148
O O9 0.240311 0.626613 0.363498
O O10 0.187592 0.250000 0.563373
O O11 0.250000 0.121947 0.500000
O O12 0.090743 0.116826 0.560123
O O13 0.410332 0.750000 0.067589
O O14 0.250000 0.750000 0.000000
O O15 0.500000 0.500000 0.500000
O O16 0.500000 0.327533 0.836862
#
# Coordination Sequence:
#
# PCOD9503029 Si02
#       8
#    16   8  16  16   8   8   8   4
#     4  10  20  35  59  87 118 154 192 243 287 339
#     4  10  21  29  54  85 109 140 183 239 280 339
#     4  10  20  36  58  83 113 149 192 236 287 338
#     4  10  23  41  59  76 106 153 195 237 290 352
#     4  10  20  38  62  90 121 153 199 236 290 352
#     4  12  25  38  53  81 113 145 185 240 303 345
#     4   8  18  32  54  84 113 149 190 233 281 330
#     4   8  16  36  62  84 116 154 184 242 290 320
#
# _framework density 17.808468000000001
#
# number of rings (size 3 to 8) (size 9 to 14) (size 15 to 20)
#    0.000    2.095    0.952    1.714    9.333    2.286 
#    0.000    4.762    0.000    3.429    0.000    0.000 
#    0.000    0.000    0.000    0.000    0.000    0.000 
#
# Total GULP energy -234193.233936 kJ/mol
# GULP energy per Si atom -5576.029379 kJ/mol
# Density = 1.776793 g / cm^3
# Si number density = 17.808468 Si / 1000 Ang^3
#
#
#
# Elastic Constant Matrix: (Units=GPa)
#
#
# Indices 1 2 3 4 5 6 
#
# 1 133.8146 73.1002 57.3156 0.0000 0.0000 0.0000
# 2 73.1002 83.9290 37.4041 0.0000 0.0000 0.0000
# 3 57.3156 37.4041 94.1720 0.0000 0.0000 0.0000
# 4 0.0000 0.0000 0.0000 14.0270 0.0000 0.0000
# 5 0.0000 0.0000 0.0000 0.0000 24.4035 0.0000
# 6 0.0000 0.0000 0.0000 0.0000 0.0000 28.5530
#
#
#
# Elastic Compliance Matrix: (Units=1/GPa)
#
#
# Indices 1 2 3 4 5 6 
#
# 1 0.016064 -0.011706 -0.005127 0.000000 0.000000 0.000000
# 2 -0.011706 0.023008 -0.002014 0.000000 0.000000 0.000000
# 3 -0.005127 -0.002014 0.014539 0.000000 0.000000 0.000000
# 4 0.000000 0.000000 0.000000 0.071291 0.000000 0.000000
# 5 0.000000 0.000000 0.000000 0.000000 0.040978 0.000000
# 6 0.000000 0.000000 0.000000 0.000000 0.000000 0.035023
#
#
# Mechanical properties :
#
#
# Convention : Reuss Voigt Hill
#
# Bulk Modulus (GPa) = 62.82749 71.95060 67.38905
# Shear Modulus (GPa) = 20.49984 23.00309 21.75146
#
# Velocity S-wave (km/s) = 3.39651 3.59791 3.49866
# Velocity P-wave (km/s) = 7.12305 7.59935 7.36505
#
# Compressibility (1/GPa) = 0.01591660
#
# Stress axis : x y z
#
# Youngs Moduli (GPa) = 62.25024 43.46249 68.77852
#
# Poissons Ratio (x) = 0.50879 0.35266
# Poissons Ratio (y) = 0.72873 0.13851
# Poissons Ratio (z) = 0.31918 0.08753
#
# Static dielectric constant tensor:
#      x y z
#    x 1.642260 0.000000 0.000000 
#    y 0.000000 1.588590 0.000000 
#    z 0.000000 0.000000 1.772290 
# 
# From -- ./inp_files/38355.got.cif
#   From: 2010.05.17/outbox.cif.g08.bks.cpg/sg67_20_cif.got.tgz:38355.got - 2010.06.03 18:28:57.
