data_PCOD9503866
_publ_section_title
;
Structure prediction by ZEFSAII (Michael W. Deem and Ramdas Pophale) SiO2 
 PCOD9503866
Probable space group: C M M A
;
_chemical_formula_sum "Si O2"
_cell_formula_units_Z 96
_cell_length_a 20.984220
_cell_length_b 15.252183
_cell_length_c 15.815845
_cell_angle_alpha 90.000000
_cell_angle_beta 90.000000
_cell_angle_gamma 90.000000
_cell_volume 5061.942858
_symmetry_space_group_name_H-M "C M M A"
_symmetry_group_IT_number 67
_symmetry_cell_setting 'orthorhombic'
loop_
_space_group_symop_operation_xyz
x,y,z
-x,1/2-y,z
x,-y,-z
-x,1/2+y,-z
-x,-y,-z
x,1/2+y,-z
-x,y,z
x,1/2-y,z
1/2+x,1/2+y,z
1/2-x,-y,z
1/2+x,1/2-y,-z
1/2-x,y,-z
1/2-x,1/2-y,-z
1/2+x,y,-z
1/2-x,1/2+y,z
1/2+x,-y,z
loop_
_atom_site_type_symbol
_atom_site_label
_atom_site_fract_x
_atom_site_fract_y
_atom_site_fract_z
Si Si1 0.358773 0.349284 0.099563
Si Si2 0.181348 1.000000 0.779379
Si Si3 0.000000 0.100798 0.101988
Si Si4 0.923231 0.500000 0.635901
Si Si5 0.500000 0.899203 0.898012
Si Si6 0.576739 0.648960 0.500000
Si Si7 0.641227 0.849284 0.099563
O O1 0.336341 0.250000 0.108010
O O2 0.323696 0.416710 0.159121
O O3 0.433695 0.354551 0.125030
O O4 0.354229 0.374010 0.000000
O O5 0.176304 0.916710 0.840879
O O6 0.250000 0.000000 0.734877
O O7 0.121475 0.000000 0.717017
O O8 0.933695 0.145449 0.125030
O O9 0.000000 0.000000 0.131078
O O10 0.000000 0.099778 1.000000
O O11 0.907784 0.412768 0.580542
O O12 0.907784 0.587232 0.580542
O O13 0.000000 0.500000 0.651947
O O14 0.500000 0.654884 0.500000
O O15 0.600997 0.750000 0.500000
O O16 0.663659 0.750000 0.108010
#
# Coordination Sequence:
#
# PCOD9503866 Si02
#       7
#    16  16   8  16   8  16  16
#     4  10  21  37  57  79 108 153 206 253 296 342
#     4  12  26  39  54  82 122 158 193 244 295 339
#     4   9  15  29  55  82 105 131 178 248 307 345
#     4   9  20  37  61  90 117 147 182 225 280 345
#     4   9  15  29  55  82 105 131 178 248 307 345
#     4   8  15  35  66  94 116 140 178 226 275 335
#     4  10  21  37  57  79 108 153 206 253 296 342
#
# _framework density 18.965050999999999
#
# number of rings (size 3 to 8) (size 9 to 14) (size 15 to 20)
#    0.000    2.333    1.667    2.000    2.333    5.333 
#    0.000    3.333    0.000    1.000    0.000    0.000 
#    0.000    0.000    0.000    0.000    0.000    0.000 
#
# Total GULP energy -267685.589462 kJ/mol
# GULP energy per Si atom -5576.783114 kJ/mol
# Density = 1.892189 g / cm^3
# Si number density = 18.965051 Si / 1000 Ang^3
#
#
#
# Elastic Constant Matrix: (Units=GPa)
#
#
# Indices 1 2 3 4 5 6 
#
# 1 80.9366 30.4470 43.1625 0.0000 0.0000 0.0000
# 2 30.4470 135.3653 56.8676 0.0000 0.0000 0.0000
# 3 43.1625 56.8676 85.7726 0.0000 0.0000 0.0000
# 4 0.0000 0.0000 0.0000 6.9144 0.0000 0.0000
# 5 0.0000 0.0000 0.0000 0.0000 -2.6398 0.0000
# 6 0.0000 0.0000 0.0000 0.0000 0.0000 -33.4914
#
#
#
# Elastic Compliance Matrix: (Units=1/GPa)
#
#
# Indices 1 2 3 4 5 6 
#
# 1 0.016897 -0.000317 -0.008293 0.000000 0.000000 0.000000
# 2 -0.000317 0.010245 -0.006633 0.000000 0.000000 0.000000
# 3 -0.008293 -0.006633 0.020230 0.000000 0.000000 0.000000
# 4 0.000000 0.000000 0.000000 0.144627 0.000000 0.000000
# 5 0.000000 0.000000 0.000000 0.000000 -0.378823 0.000000
# 6 0.000000 0.000000 0.000000 0.000000 0.000000 -0.029858
#
#
# Mechanical properties :
#
#
# Convention : Reuss Voigt Hill
#
# Bulk Modulus (GPa) = 59.21976 62.55875 60.88926
# Shear Modulus (GPa) = -27.69041 5.59648 -11.04696
#
# Velocity S-wave (km/s) = -3.82524 1.71969 -2.41610
# Velocity P-wave (km/s) = 3.43272 6.08285 4.93886
#
# Compressibility (1/GPa) = 0.01688626
#
# Stress axis : x y z
#
# Youngs Moduli (GPa) = 59.18206 97.60534 49.43179
#
# Poissons Ratio (x) = 0.03090 0.40994
# Poissons Ratio (y) = 0.01874 0.32790
# Poissons Ratio (z) = 0.49080 0.64745
#
# Static dielectric constant tensor:
#      x y z
#    x 1.670260 0.000000 0.000000 
#    y 0.000000 1.667490 0.000000 
#    z 0.000000 0.000000 1.654620 
# 
# From -- ./inp_files/29331.got.cif
#   From: 2010.05.17/outbox.cif.g08.bks.cpg/sg67_15_cif.got.tgz:29331.got - 2010.06.03 18:28:57.
