data_PCOD9503017
_publ_section_title
;
Structure prediction by ZEFSAII (Michael W. Deem and Ramdas Pophale) SiO2 
 PCOD9503017
Probable space group: C M M A
;
_chemical_formula_sum "Si O2"
_cell_formula_units_Z 64
_cell_length_a 21.697739
_cell_length_b 15.078632
_cell_length_c 9.135449
_cell_angle_alpha 90.000000
_cell_angle_beta 90.000000
_cell_angle_gamma 90.000000
_cell_volume 2988.865145
_symmetry_space_group_name_H-M "C M M A"
_symmetry_group_IT_number 67
_symmetry_cell_setting 'orthorhombic'
loop_
_space_group_symop_operation_xyz
x,y,z
-x,1/2-y,z
x,-y,-z
-x,1/2+y,-z
-x,-y,-z
x,1/2+y,-z
-x,y,z
x,1/2-y,z
1/2+x,1/2+y,z
1/2-x,-y,z
1/2+x,1/2-y,-z
1/2-x,y,-z
1/2-x,1/2-y,-z
1/2+x,y,-z
1/2-x,1/2+y,z
1/2+x,-y,z
loop_
_atom_site_type_symbol
_atom_site_label
_atom_site_fract_x
_atom_site_fract_y
_atom_site_fract_z
Si Si1 0.278841 0.349959 0.836998
Si Si2 0.393037 0.520795 0.160880
Si Si3 0.566106 0.100687 0.559484
Si Si4 0.346660 0.349374 0.320710
O O1 0.304558 0.250000 0.812810
O O2 0.327550 0.428739 0.842240
O O3 0.225404 0.364441 0.715315
O O4 0.250000 0.349056 0.000000
O O5 0.430283 0.585792 0.267344
O O6 0.382814 0.425127 0.234181
O O7 0.416994 0.500000 0.000000
O O8 0.500000 0.141647 0.517649
O O9 0.626230 0.143889 0.485310
O O10 0.566207 0.000000 0.500000
O O11 0.359442 0.250000 0.266175
#
# Coordination Sequence:
#
# PCOD9503017 Si02
#       4
#    16  16  16  16
#     4  10  20  35  58  89 126 160 201 256 316 388
#     4  11  21  35  63  93 125 162 204 260 323 384
#     4   9  21  41  59  81 116 160 211 260 308 368
#     4  10  21  37  60  88 122 167 209 256 317 380
#
# _framework density 21.41281
#
# number of rings (size 3 to 8) (size 9 to 14) (size 15 to 20)
#    0.000    2.000    2.500    0.750    0.000    3.000 
#    0.000    6.250    0.000    0.000    0.000    0.000 
#    0.000    0.000    0.000    0.000    0.000    0.000 
#
# Total GULP energy -178312.643298 kJ/mol
# GULP energy per Si atom -5572.270103 kJ/mol
# Density = 2.136407 g / cm^3
# Si number density = 21.412810 Si / 1000 Ang^3
#
#
#
# Elastic Constant Matrix: (Units=GPa)
#
#
# Indices 1 2 3 4 5 6 
#
# 1 74.6504 13.9648 36.1890 0.0000 0.0000 0.0000
# 2 13.9648 83.1055 11.5458 0.0000 0.0000 0.0000
# 3 36.1890 11.5458 111.5260 0.0000 0.0000 0.0000
# 4 0.0000 0.0000 0.0000 26.1084 0.0000 0.0000
# 5 0.0000 0.0000 0.0000 0.0000 12.0376 0.0000
# 6 0.0000 0.0000 0.0000 0.0000 0.0000 -35.1998
#
#
#
# Elastic Compliance Matrix: (Units=1/GPa)
#
#
# Indices 1 2 3 4 5 6 
#
# 1 0.016225 -0.002024 -0.005055 0.000000 0.000000 0.000000
# 2 -0.002024 0.012461 -0.000633 0.000000 0.000000 0.000000
# 3 -0.005055 -0.000633 0.010672 0.000000 0.000000 0.000000
# 4 0.000000 0.000000 0.000000 0.038302 0.000000 0.000000
# 5 0.000000 0.000000 0.000000 0.000000 0.083073 0.000000
# 6 0.000000 0.000000 0.000000 0.000000 0.000000 -0.028409
#
#
# Mechanical properties :
#
#
# Convention : Reuss Voigt Hill
#
# Bulk Modulus (GPa) = 41.78282 43.63124 42.70703
# Shear Modulus (GPa) = 32.10743 14.42805 23.26774
#
# Velocity S-wave (km/s) = 3.87647 2.59859 3.29998
# Velocity P-wave (km/s) = 6.29217 5.42439 5.87433
#
# Compressibility (1/GPa) = 0.02393328
#
# Stress axis : x y z
#
# Youngs Moduli (GPa) = 61.63270 80.25037 93.69890
#
# Poissons Ratio (x) = 0.16243 0.47368
# Poissons Ratio (y) = 0.12475 0.05933
# Poissons Ratio (z) = 0.31157 0.05082
#
# Static dielectric constant tensor:
#      x y z
#    x 1.817210 0.000000 0.000000 
#    y 0.000000 1.747450 0.000000 
#    z 0.000000 0.000000 1.843020 
# 
# From -- ./inp_files/7960.got.cif
#   From: 2010.05.17/outbox.cif.g08.bks.cpg/sg67_4_cif.got.tgz:7960.got - 2010.06.03 18:28:57.
