data_PCOD9503009
_publ_section_title
;
Structure prediction by ZEFSAII (Michael W. Deem and Ramdas Pophale) SiO2 
 PCOD9503009
Probable space group: C M M A
;
_chemical_formula_sum "Si O2"
_cell_formula_units_Z 80
_cell_length_a 31.028255
_cell_length_b 15.454418
_cell_length_c 7.744713
_cell_angle_alpha 90.000000
_cell_angle_beta 90.000000
_cell_angle_gamma 90.000000
_cell_volume 3713.772834
_symmetry_space_group_name_H-M "C M M A"
_symmetry_group_IT_number 67
_symmetry_cell_setting 'orthorhombic'
loop_
_space_group_symop_operation_xyz
x,y,z
-x,1/2-y,z
x,-y,-z
-x,1/2+y,-z
-x,-y,-z
x,1/2+y,-z
-x,y,z
x,1/2-y,z
1/2+x,1/2+y,z
1/2-x,-y,z
1/2+x,1/2-y,-z
1/2-x,y,-z
1/2-x,1/2-y,-z
1/2+x,y,-z
1/2-x,1/2+y,z
1/2+x,-y,z
loop_
_atom_site_type_symbol
_atom_site_label
_atom_site_fract_x
_atom_site_fract_y
_atom_site_fract_z
Si Si1 0.046260 0.848590 0.717252
Si Si2 0.547793 0.408071 0.095389
Si Si3 0.298306 0.502658 0.704554
Si Si4 0.365236 0.848519 0.809039
Si Si5 0.138855 0.848991 0.775285
O O1 0.046441 0.750000 0.653502
O O2 0.094482 0.883374 0.686643
O O3 0.000000 0.889206 0.665656
O O4 0.045354 0.846525 0.927450
O O5 0.500000 0.410479 0.174507
O O6 0.586077 0.382914 0.223779
O O7 0.556297 0.500000 0.000000
O O8 0.294592 0.500000 0.500000
O O9 0.250000 0.500000 0.779949
O O10 0.328122 0.584634 0.754695
O O11 0.323162 0.415123 0.747753
O O12 0.359194 0.750000 0.745544
O O13 0.365540 0.846376 0.017634
O O14 0.146243 0.750000 0.717390
#
# Coordination Sequence:
#
# PCOD9503009 Si02
#       5
#    16  16  16  16  16
#     4   8  13  23  43  74 108 136 163 200 249 305
#     4   9  15  24  45  79 116 148 175 209 257 313
#     4  11  25  42  57  74 102 143 187 231 281 339
#     4  10  20  35  58  87 114 142 180 227 279 330
#     4   9  18  34  59  87 111 137 174 223 274 321
#
# _framework density 21.541436000000001
#
# number of rings (size 3 to 8) (size 9 to 14) (size 15 to 20)
#    0.000    2.600    0.000    4.800    0.000    4.400 
#    0.000    4.000    0.000    2.400    0.000    2.800 
#    0.000    0.000    0.000    0.000    0.000    0.000 
#
# Total GULP energy -222750.290442 kJ/mol
# GULP energy per Si atom -5568.757261 kJ/mol
# Density = 2.149241 g / cm^3
# Si number density = 21.541436 Si / 1000 Ang^3
#
#
#
# Elastic Constant Matrix: (Units=GPa)
#
#
# Indices 1 2 3 4 5 6 
#
# 1 235.5419 97.4984 6.3091 0.0000 0.0000 0.0000
# 2 97.4984 130.6198 6.5853 0.0000 0.0000 0.0000
# 3 6.3091 6.5853 21.6867 0.0000 0.0000 0.0000
# 4 0.0000 0.0000 0.0000 -18.0043 0.0000 0.0000
# 5 0.0000 0.0000 0.0000 0.0000 43.5541 0.0000
# 6 0.0000 0.0000 0.0000 0.0000 0.0000 25.1031
#
#
#
# Elastic Compliance Matrix: (Units=1/GPa)
#
#
# Indices 1 2 3 4 5 6 
#
# 1 0.006147 -0.004568 -0.000401 0.000000 0.000000 0.000000
# 2 -0.004568 0.011170 -0.002063 0.000000 0.000000 0.000000
# 3 -0.000401 -0.002063 0.046854 0.000000 0.000000 0.000000
# 4 0.000000 0.000000 0.000000 -0.055542 0.000000 0.000000
# 5 0.000000 0.000000 0.000000 0.000000 0.022960 0.000000
# 6 0.000000 0.000000 0.000000 0.000000 0.000000 0.039836
#
#
# Mechanical properties :
#
#
# Convention : Reuss Voigt Hill
#
# Bulk Modulus (GPa) = 19.95736 67.62601 43.79169
# Shear Modulus (GPa) = 48.92790 28.62761 38.77775
#
# Velocity S-wave (km/s) = 4.77103 3.64944 4.24742
# Velocity P-wave (km/s) = 6.29563 7.01566 6.66538
#
# Compressibility (1/GPa) = 0.05010683
#
# Stress axis : x y z
#
# Youngs Moduli (GPa) = 162.67524 89.52821 21.34277
#
# Poissons Ratio (x) = 0.40899 0.00856
# Poissons Ratio (y) = 0.74314 0.04402
# Poissons Ratio (z) = 0.06526 0.18467
#
# Static dielectric constant tensor:
#      x y z
#    x 1.893890 0.000000 0.000000 
#    y 0.000000 1.818920 0.000000 
#    z 0.000000 0.000000 1.866660 
# 
# From -- ./inp_files/14584.got.cif
#   From: 2010.05.17/outbox.cif.g08.bks.cpg/sg67_8_cif.got.tgz:14584.got - 2010.06.03 18:28:57.
