data_PCOD9503263
_publ_section_title
;
Structure prediction by ZEFSAII (Michael W. Deem and Ramdas Pophale) SiO2 
 PCOD9503263
Probable space group: C M M A
;
_chemical_formula_sum "Si O2"
_cell_formula_units_Z 112
_cell_length_a 14.334967
_cell_length_b 15.151099
_cell_length_c 23.510177
_cell_angle_alpha 90.000000
_cell_angle_beta 90.000000
_cell_angle_gamma 90.000000
_cell_volume 5106.187196
_symmetry_space_group_name_H-M "C M M A"
_symmetry_group_IT_number 67
_symmetry_cell_setting 'orthorhombic'
loop_
_space_group_symop_operation_xyz
x,y,z
-x,1/2-y,z
x,-y,-z
-x,1/2+y,-z
-x,-y,-z
x,1/2+y,-z
-x,y,z
x,1/2-y,z
1/2+x,1/2+y,z
1/2-x,-y,z
1/2+x,1/2-y,-z
1/2-x,y,-z
1/2-x,1/2-y,-z
1/2+x,y,-z
1/2-x,1/2+y,z
1/2+x,-y,z
loop_
_atom_site_type_symbol
_atom_site_label
_atom_site_fract_x
_atom_site_fract_y
_atom_site_fract_z
Si Si1 0.893605 0.649798 0.398039
Si Si2 0.607047 0.853185 0.014485
Si Si3 0.889837 0.652088 0.197714
Si Si4 0.856601 0.850958 0.518948
Si Si5 0.725454 0.098070 0.091343
Si Si6 0.885939 0.525312 0.299324
Si Si7 0.887615 0.649425 0.646944
O O1 0.852860 0.750000 0.400645
O O2 0.898421 0.609498 0.461503
O O3 0.850626 0.584755 0.352187
O O4 0.000000 0.660859 0.379497
O O5 0.500000 0.879495 0.025932
O O6 0.606958 0.750000 0.997511
O O7 0.678375 0.861834 0.067043
O O8 0.654175 0.904748 0.962182
O O9 0.881148 0.750000 0.224319
O O10 0.826386 0.647000 0.142060
O O11 0.862487 0.575956 0.241749
O O12 0.000000 0.641045 0.182859
O O13 0.892919 0.750000 0.522827
O O14 0.750000 0.849022 0.500000
O O15 0.867198 0.884848 0.582635
O O16 0.750000 0.000000 0.110220
O O17 0.855311 0.424553 0.308567
O O18 0.000000 0.523085 0.301288
O O19 0.851925 0.750000 0.654029
O O20 0.000000 0.654439 0.650721
#
# Coordination Sequence:
#
# PCOD9503263 Si02
#       7
#    16  16  16  16  16  16  16
#     4   9  16  28  47  70  98 130 165 212 271 333
#     4  10  20  36  61  92 127 167 207 246 291 344
#     4  10  20  37  62  88 117 155 200 254 311 363
#     4   9  17  29  45  68  98 131 168 214 274 342
#     4  11  22  35  56  89 128 165 202 246 296 356
#     4   9  18  32  53  80 104 133 182 236 285 344
#     4   9  17  31  51  73 101 139 180 225 284 357
#
# _framework density 21.934173999999999
#
# number of rings (size 3 to 8) (size 9 to 14) (size 15 to 20)
#    0.000    2.429    0.000    3.857    0.000    6.857 
#    0.000    5.000    0.000    4.286    0.000    2.000 
#    0.000    0.000    0.000    0.000    0.000    0.143 
#
# Total GULP energy -312447.244080 kJ/mol
# GULP energy per Si atom -5579.415073 kJ/mol
# Density = 2.188425 g / cm^3
# Si number density = 21.934174 Si / 1000 Ang^3
#
#
#
# Elastic Constant Matrix: (Units=GPa)
#
#
# Indices 1 2 3 4 5 6 
#
# 1 112.1590 26.1724 32.5753 0.0000 0.0000 0.0000
# 2 26.1724 105.9560 55.0784 0.0000 0.0000 0.0000
# 3 32.5753 55.0784 106.9397 0.0000 0.0000 0.0000
# 4 0.0000 0.0000 0.0000 74.5656 0.0000 0.0000
# 5 0.0000 0.0000 0.0000 0.0000 21.6294 0.0000
# 6 0.0000 0.0000 0.0000 0.0000 0.0000 13.1690
#
#
#
# Elastic Compliance Matrix: (Units=1/GPa)
#
#
# Indices 1 2 3 4 5 6 
#
# 1 0.009891 -0.001198 -0.002396 0.000000 0.000000 0.000000
# 2 -0.001198 0.013034 -0.006348 0.000000 0.000000 0.000000
# 3 -0.002396 -0.006348 0.013350 0.000000 0.000000 0.000000
# 4 0.000000 0.000000 0.000000 0.013411 0.000000 0.000000
# 5 0.000000 0.000000 0.000000 0.000000 0.046233 0.000000
# 6 0.000000 0.000000 0.000000 0.000000 0.000000 0.075936
#
#
# Mechanical properties :
#
#
# Convention : Reuss Voigt Hill
#
# Bulk Modulus (GPa) = 61.00676 61.41189 61.20933
# Shear Modulus (GPa) = 25.35455 35.95470 30.65462
#
# Velocity S-wave (km/s) = 3.40360 4.05311 3.74247
# Velocity P-wave (km/s) = 6.58179 7.06842 6.82944
#
# Compressibility (1/GPa) = 0.01639163
#
# Stress axis : x y z
#
# Youngs Moduli (GPa) = 101.09858 76.72501 74.90381
#
# Poissons Ratio (x) = 0.09189 0.17948
# Poissons Ratio (y) = 0.12109 0.47549
# Poissons Ratio (z) = 0.24225 0.48705
#
# Static dielectric constant tensor:
#      x y z
#    x 1.894950 0.000000 0.000000 
#    y 0.000000 1.850320 0.000000 
#    z 0.000000 0.000000 1.781610 
# 
# From -- ./inp_files/42016.got.cif
#   From: 2010.05.17/outbox.cif.g08.bks.cpg/sg67_22_cif.got.tgz:42016.got - 2010.06.03 18:28:57.
