data_PCOD9503851
_publ_section_title
;
Structure prediction by ZEFSAII (Michael W. Deem and Ramdas Pophale) SiO2 
 PCOD9503851
Probable space group: C M M A
;
_chemical_formula_sum "Si O2"
_cell_formula_units_Z 104
_cell_length_a 14.296842
_cell_length_b 14.570435
_cell_length_c 21.756115
_cell_angle_alpha 90.000000
_cell_angle_beta 90.000000
_cell_angle_gamma 90.000000
_cell_volume 4532.042577
_symmetry_space_group_name_H-M "C M M A"
_symmetry_group_IT_number 67
_symmetry_cell_setting 'orthorhombic'
loop_
_space_group_symop_operation_xyz
x,y,z
-x,1/2-y,z
x,-y,-z
-x,1/2+y,-z
-x,-y,-z
x,1/2+y,-z
-x,y,z
x,1/2-y,z
1/2+x,1/2+y,z
1/2-x,-y,z
1/2+x,1/2-y,-z
1/2-x,y,-z
1/2-x,1/2-y,-z
1/2+x,y,-z
1/2-x,1/2+y,z
1/2+x,-y,z
loop_
_atom_site_type_symbol
_atom_site_label
_atom_site_fract_x
_atom_site_fract_y
_atom_site_fract_z
Si Si1 0.355411 0.607534 0.985799
Si Si2 0.887777 0.961261 0.662590
Si Si3 0.306280 0.358972 0.147493
Si Si4 0.250000 0.000000 0.239190
Si Si5 0.903921 0.146664 0.115842
Si Si6 0.388791 0.640407 0.460565
Si Si7 0.886520 0.353605 0.596806
O O1 0.368824 0.626022 0.913803
O O2 0.363887 0.500000 0.000000
O O3 0.250000 0.638006 0.000000
O O4 0.408491 0.651760 0.042019
O O5 0.821882 0.940028 0.719884
O O6 0.869754 0.068128 0.646214
O O7 0.000000 0.946881 0.672050
O O8 0.855340 0.907016 0.601495
O O9 0.309595 0.250000 0.161701
O O10 0.318760 0.430023 0.202418
O O11 0.198956 0.389150 0.130209
O O12 0.903874 0.250000 0.140698
O O13 0.000000 0.099178 0.137102
O O14 0.500000 0.618050 0.461620
O O15 0.378776 0.750000 0.455545
O O16 0.352428 0.616351 0.528673
O O17 0.852987 0.250000 0.609877
O O18 0.000000 0.348234 0.591756
#
# Coordination Sequence:
#
# PCOD9503851 Si02
#       7
#    16  16  16   8  16  16  16
#     4   9  16  30  53  78 102 127 159 203 257 317
#     4  10  21  37  56  77 106 143 182 230 279 317
#     4  10  21  38  56  73 105 150 184 217 263 311
#     4  12  26  40  54  76 104 146 204 236 252 304
#     4   9  17  30  52  82 107 126 158 208 267 327
#     4   8  14  28  54  85 111 136 169 215 280 349
#     4   8  14  28  54  84 110 138 172 215 277 346
#
# _framework density 22.947710000000001
#
# number of rings (size 3 to 8) (size 9 to 14) (size 15 to 20)
#    0.000    2.769    0.000    3.692    0.000    5.846 
#    0.000    2.308    0.000    2.769    0.000    0.000 
#    0.000    0.000    0.000    0.000    0.000    0.000 
#
# Total GULP energy -289756.503441 kJ/mol
# GULP energy per Si atom -5572.240451 kJ/mol
# Density = 2.289548 g / cm^3
# Si number density = 22.947710 Si / 1000 Ang^3
#
#
#
# Elastic Constant Matrix: (Units=GPa)
#
#
# Indices 1 2 3 4 5 6 
#
# 1 45.2722 -17.6338 -17.6577 0.0000 0.0000 0.0000
# 2 -17.6338 47.0134 14.1114 0.0000 0.0000 0.0000
# 3 -17.6577 14.1114 55.1802 0.0000 0.0000 0.0000
# 4 0.0000 0.0000 0.0000 15.0479 0.0000 0.0000
# 5 0.0000 0.0000 0.0000 0.0000 -365.4902 0.0000
# 6 0.0000 0.0000 0.0000 0.0000 0.0000 12.0441
#
#
#
# Elastic Compliance Matrix: (Units=1/GPa)
#
#
# Indices 1 2 3 4 5 6 
#
# 1 0.028045 0.008476 0.006807 0.000000 0.000000 0.000000
# 2 0.008476 0.025601 -0.003835 0.000000 0.000000 0.000000
# 3 0.006807 -0.003835 0.021281 0.000000 0.000000 0.000000
# 4 0.000000 0.000000 0.000000 0.066454 0.000000 0.000000
# 5 0.000000 0.000000 0.000000 0.000000 -0.002736 0.000000
# 6 0.000000 0.000000 0.000000 0.000000 0.000000 0.083028
#
#
# Mechanical properties :
#
#
# Convention : Reuss Voigt Hill
#
# Bulk Modulus (GPa) = 10.22252 11.67841 10.95046
# Shear Modulus (GPa) = 21.60904 -56.43658 -17.41377
#
# Velocity S-wave (km/s) = 3.07198 -4.96457 -2.75770
# Velocity P-wave (km/s) = 4.12882 5.26900 2.31466
#
# Compressibility (1/GPa) = 0.09782322
#
# Stress axis : x y z
#
# Youngs Moduli (GPa) = 35.65704 39.06147 46.98976
#
# Poissons Ratio (x) = -0.33108 -0.31985
# Poissons Ratio (y) = -0.30223 0.18019
# Poissons Ratio (z) = -0.24271 0.14979
#
# Static dielectric constant tensor:
#      x y z
#    x 1.943200 0.000000 0.000000 
#    y 0.000000 1.893010 0.000000 
#    z 0.000000 0.000000 1.926490 
# 
# From -- ./inp_files/39017.got.cif
#   From: 2010.05.17/outbox.cif.g08.bks.cpg/sg67_20_cif.got.tgz:39017.got - 2010.06.03 18:28:57.
