data_PCOD9503585
_publ_section_title
;
Structure prediction by ZEFSAII (Michael W. Deem and Ramdas Pophale) SiO2 
 PCOD9503585
Probable space group: C M M A
;
_chemical_formula_sum "Si O2"
_cell_formula_units_Z 68
_cell_length_a 21.308779
_cell_length_b 9.191178
_cell_length_c 16.719403
_cell_angle_alpha 90.000000
_cell_angle_beta 90.000000
_cell_angle_gamma 90.000000
_cell_volume 3274.541570
_symmetry_space_group_name_H-M "C M M A"
_symmetry_group_IT_number 67
_symmetry_cell_setting 'orthorhombic'
loop_
_space_group_symop_operation_xyz
x,y,z
-x,1/2-y,z
x,-y,-z
-x,1/2+y,-z
-x,-y,-z
x,1/2+y,-z
-x,y,z
x,1/2-y,z
1/2+x,1/2+y,z
1/2-x,-y,z
1/2+x,1/2-y,-z
1/2-x,y,-z
1/2-x,1/2-y,-z
1/2+x,y,-z
1/2-x,1/2+y,z
1/2+x,-y,z
loop_
_atom_site_type_symbol
_atom_site_label
_atom_site_fract_x
_atom_site_fract_y
_atom_site_fract_z
Si Si1 0.658337 0.250000 0.930316
Si Si2 0.398250 0.968771 0.861048
Si Si3 0.203422 0.750000 0.114393
Si Si4 0.314219 0.072363 0.588173
Si Si5 0.000000 0.750000 0.076755
Si Si6 0.071161 0.074175 0.680360
O O1 0.616991 0.386050 0.906907
O O2 0.722496 0.250000 0.878898
O O3 0.683240 0.250000 0.020736
O O4 0.331394 0.888542 0.849823
O O5 0.445200 0.873721 0.913107
O O6 0.426960 0.975556 0.772761
O O7 0.310528 0.250000 0.585335
O O8 0.319369 0.000000 0.500000
O O9 0.250000 0.000000 0.622420
O O10 0.375227 0.015371 0.635191
O O11 0.082638 0.250000 0.678234
O O12 0.000000 0.050618 0.649463
#
# Coordination Sequence:
#
# PCOD9503585 Si02
#       6
#     8  16   8  16   4  16
#     4  11  24  37  65  99 122 168 216 283 329 403
#     4  11  21  41  65  88 130 172 217 269 333 388
#     4  10  22  44  61  89 134 166 215 266 346 406
#     4  11  24  44  69 102 139 175 219 270 326 389
#     4  10  20  44  62  82 128 176 208 266 332 386
#     4  11  22  43  69  91 134 182 219 270 330 392
#
# _framework density 20.766265000000001
#
# number of rings (size 3 to 8) (size 9 to 14) (size 15 to 20)
#    0.000    1.176    3.529    4.235    1.647    5.176 
#    0.000    9.412    0.000    0.000    0.000    0.000 
#    0.000    0.000    0.000    0.000    0.000    0.000 
#
# Total GULP energy -189362.428375 kJ/mol
# GULP energy per Si atom -5569.483188 kJ/mol
# Density = 2.071900 g / cm^3
# Si number density = 20.766265 Si / 1000 Ang^3
#
#
#
# Elastic Constant Matrix: (Units=GPa)
#
#
# Indices 1 2 3 4 5 6 
#
# 1 178.1172 91.9967 38.3179 0.0000 0.0000 0.0000
# 2 91.9967 167.2671 41.6081 0.0000 0.0000 0.0000
# 3 38.3179 41.6081 42.1253 0.0000 0.0000 0.0000
# 4 0.0000 0.0000 0.0000 54.6368 0.0000 0.0000
# 5 0.0000 0.0000 0.0000 0.0000 174.3105 0.0000
# 6 0.0000 0.0000 0.0000 0.0000 0.0000 -16.4854
#
#
#
# Elastic Compliance Matrix: (Units=1/GPa)
#
#
# Indices 1 2 3 4 5 6 
#
# 1 0.008332 -0.003576 -0.004047 0.000000 0.000000 0.000000
# 2 -0.003576 0.009460 -0.006092 0.000000 0.000000 0.000000
# 3 -0.004047 -0.006092 0.033437 0.000000 0.000000 0.000000
# 4 0.000000 0.000000 0.000000 0.018303 0.000000 0.000000
# 5 0.000000 0.000000 0.000000 0.000000 0.005737 0.000000
# 6 0.000000 0.000000 0.000000 0.000000 0.000000 -0.060660
#
#
# Mechanical properties :
#
#
# Convention : Reuss Voigt Hill
#
# Bulk Modulus (GPa) = 42.01640 81.26169 61.63905
# Shear Modulus (GPa) = 100.05881 56.86486 78.46183
#
# Velocity S-wave (km/s) = 6.94895 5.23858 6.15348
# Velocity P-wave (km/s) = 9.20113 8.70671 8.95734
#
# Compressibility (1/GPa) = 0.02380023
#
# Stress axis : x y z
#
# Youngs Moduli (GPa) = 120.02295 105.70298 29.90732
#
# Poissons Ratio (x) = 0.37797 0.12103
# Poissons Ratio (y) = 0.42918 0.18219
# Poissons Ratio (z) = 0.48571 0.64391
#
# Static dielectric constant tensor:
#      x y z
#    x 1.759510 0.000000 0.000000 
#    y 0.000000 1.716590 0.000000 
#    z 0.000000 0.000000 1.771890 
# 
# From -- ./inp_files/34714.got.cif
#   From: 2010.05.17/outbox.cif.g08.bks.cpg/sg67_18_cif.got.tgz:34714.got - 2010.06.03 18:28:57.
