data_PCOD9503985
_publ_section_title
;
Structure prediction by ZEFSAII (Michael W. Deem and Ramdas Pophale) SiO2 
 PCOD9503985
Probable space group: C M M A
;
_chemical_formula_sum "Si O2"
_cell_formula_units_Z 72
_cell_length_a 8.286660
_cell_length_b 25.994750
_cell_length_c 17.154880
_cell_angle_alpha 90.000000
_cell_angle_beta 90.000000
_cell_angle_gamma 90.000000
_cell_volume 3695.326783
_symmetry_space_group_name_H-M "C M M A"
_symmetry_group_IT_number 67
_symmetry_cell_setting 'orthorhombic'
loop_
_space_group_symop_operation_xyz
x,y,z
-x,1/2-y,z
x,-y,-z
-x,1/2+y,-z
-x,-y,-z
x,1/2+y,-z
-x,y,z
x,1/2-y,z
1/2+x,1/2+y,z
1/2-x,-y,z
1/2+x,1/2-y,-z
1/2-x,y,-z
1/2-x,1/2-y,-z
1/2+x,y,-z
1/2-x,1/2+y,z
1/2+x,-y,z
loop_
_atom_site_type_symbol
_atom_site_label
_atom_site_fract_x
_atom_site_fract_y
_atom_site_fract_z
Si Si1 0.807603 0.805340 0.376805
Si Si2 0.193487 0.055040 0.754600
Si Si3 0.694304 0.916501 0.581429
Si Si4 0.307618 0.750000 0.911292
Si Si5 0.809171 0.665487 0.792716
O O1 0.739547 0.750000 0.401654
O O2 0.742454 0.857449 0.414692
O O3 0.777879 0.812646 0.284588
O O4 0.000000 0.804717 0.389891
O O5 0.247621 0.059144 0.663428
O O6 0.262657 0.105380 0.797065
O O7 0.000000 0.058193 0.756221
O O8 0.250000 0.000000 0.785529
O O9 0.500000 0.916281 0.582221
O O10 0.750000 0.939827 0.500000
O O11 0.500000 0.750000 0.907904
O O12 0.243269 0.800060 0.865388
O O13 0.250000 0.750000 0.000000
O O14 0.000000 0.670387 0.781143
#
# Coordination Sequence:
#
# PCOD9503985 Si02
#       5
#    16  16  16   8  16
#     4   9  17  31  50  70 100 144 187 230 282 336
#     4  10  21  38  58  81 108 146 193 241 289 337
#     4   9  19  32  46  69 102 141 186 236 292 343
#     4  12  24  40  62  92 127 158 185 222 270 324
#     4  11  21  35  57  87 117 148 188 230 275 333
#
# _framework density 19.484068000000001
#
# number of rings (size 3 to 8) (size 9 to 14) (size 15 to 20)
#    0.000    2.000    1.111    5.000    0.000    5.333 
#    0.000    2.222    0.000    0.667    0.000    4.667 
#    0.000    0.000    0.000    0.000    0.000    0.000 
#
# Total GULP energy -200987.751956 kJ/mol
# GULP energy per Si atom -5582.993110 kJ/mol
# Density = 1.943972 g / cm^3
# Si number density = 19.484068 Si / 1000 Ang^3
#
#
#
# Elastic Constant Matrix: (Units=GPa)
#
#
# Indices 1 2 3 4 5 6 
#
# 1 27.6455 10.7142 -8.8018 0.0000 0.0000 0.0000
# 2 10.7142 155.0777 33.7068 0.0000 0.0000 0.0000
# 3 -8.8018 33.7068 88.9027 0.0000 0.0000 0.0000
# 4 0.0000 0.0000 0.0000 1.1735 0.0000 0.0000
# 5 0.0000 0.0000 0.0000 0.0000 22.5580 0.0000
# 6 0.0000 0.0000 0.0000 0.0000 0.0000 18.6033
#
#
#
# Elastic Compliance Matrix: (Units=1/GPa)
#
#
# Indices 1 2 3 4 5 6 
#
# 1 0.039391 -0.003890 0.005375 0.000000 0.000000 0.000000
# 2 -0.003890 0.007412 -0.003195 0.000000 0.000000 0.000000
# 3 0.005375 -0.003195 0.012992 0.000000 0.000000 0.000000
# 4 0.000000 0.000000 0.000000 0.852164 0.000000 0.000000
# 5 0.000000 0.000000 0.000000 0.000000 0.044330 0.000000
# 6 0.000000 0.000000 0.000000 0.000000 0.000000 0.053754
#
#
# Mechanical properties :
#
#
# Convention : Reuss Voigt Hill
#
# Bulk Modulus (GPa) = 17.73873 38.09607 27.91740
# Shear Modulus (GPa) = 4.84377 24.20073 14.52225
#
# Velocity S-wave (km/s) = 1.57842 3.52814 2.73305
# Velocity P-wave (km/s) = 3.52787 6.01597 4.93142
#
# Compressibility (1/GPa) = 0.05637383
#
# Stress axis : x y z
#
# Youngs Moduli (GPa) = 25.38657 134.92368 76.97175
#
# Poissons Ratio (x) = 0.52481 -0.41369
# Poissons Ratio (y) = 0.09875 0.24594
# Poissons Ratio (z) = -0.13644 0.43110
#
# Static dielectric constant tensor:
#      x y z
#    x 1.665440 0.000000 0.000000 
#    y 0.000000 1.775950 0.000000 
#    z 0.000000 0.000000 1.655840 
# 
# From -- ./inp_files/25099.got.cif
#   From: 2010.05.17/outbox.cif.g08.bks.cpg/sg67_13_cif.got.tgz:25099.got - 2010.06.03 18:28:57.
