data_PCOD9503546
_publ_section_title
;
Structure prediction by ZEFSAII (Michael W. Deem and Ramdas Pophale) SiO2 
 PCOD9503546
Probable space group: C M M A
;
_chemical_formula_sum "Si O2"
_cell_formula_units_Z 88
_cell_length_a 15.965278
_cell_length_b 21.173226
_cell_length_c 12.033165
_cell_angle_alpha 90.000000
_cell_angle_beta 90.000000
_cell_angle_gamma 90.000000
_cell_volume 4067.648249
_symmetry_space_group_name_H-M "C M M A"
_symmetry_group_IT_number 67
_symmetry_cell_setting 'orthorhombic'
loop_
_space_group_symop_operation_xyz
x,y,z
-x,1/2-y,z
x,-y,-z
-x,1/2+y,-z
-x,-y,-z
x,1/2+y,-z
-x,y,z
x,1/2-y,z
1/2+x,1/2+y,z
1/2-x,-y,z
1/2+x,1/2-y,-z
1/2-x,y,-z
1/2-x,1/2-y,-z
1/2+x,y,-z
1/2-x,1/2+y,z
1/2+x,-y,z
loop_
_atom_site_type_symbol
_atom_site_label
_atom_site_fract_x
_atom_site_fract_y
_atom_site_fract_z
Si Si1 0.598742 0.392037 0.278187
Si Si2 0.093711 0.643497 0.839935
Si Si3 0.662117 0.175113 0.062748
Si Si4 0.848068 0.642001 0.515327
Si Si5 0.900642 0.033703 0.326550
Si Si6 0.135623 0.750000 0.690525
O O1 0.500000 0.394090 0.249130
O O2 0.649497 0.359462 0.179398
O O3 0.610231 0.356655 0.395054
O O4 0.629698 0.463306 0.303101
O O5 0.108296 0.576051 0.784388
O O6 0.153531 0.694962 0.784736
O O7 0.000000 0.665928 0.805559
O O8 0.099014 0.646299 0.971535
O O9 0.647489 0.250000 0.075953
O O10 0.750000 0.165140 0.000000
O O11 0.750000 0.655769 0.500000
O O12 0.859916 0.573958 0.574349
O O13 0.882784 0.694271 0.598763
O O14 0.000000 0.029710 0.352776
#
# Coordination Sequence:
#
# PCOD9503546 Si02
#       6
#    16  16  16  16  16   8
#     4  11  25  43  65  96 135 174 217 274 336 392
#     4  10  20  39  67  91 119 167 224 267 313 391
#     4  11  26  43  65  92 133 171 212 269 338 391
#     4  11  24  39  65  97 136 174 218 268 330 398
#     4   9  21  42  65  92 129 170 215 269 325 385
#     4  10  22  38  63  94 129 167 216 270 328 387
#
# _framework density 21.634121
#
# number of rings (size 3 to 8) (size 9 to 14) (size 15 to 20)
#    0.000    1.636    0.909    2.182    6.364    6.909 
#    0.000    3.636    0.000    0.000    0.000    0.000 
#    0.000    0.000    0.000    0.000    0.000    0.000 
#
# Total GULP energy -244935.491742 kJ/mol
# GULP energy per Si atom -5566.715721 kJ/mol
# Density = 2.158488 g / cm^3
# Si number density = 21.634121 Si / 1000 Ang^3
#
#
#
# Elastic Constant Matrix: (Units=GPa)
#
#
# Indices 1 2 3 4 5 6 
#
# 1 39.1314 7.6015 18.9340 0.0000 0.0000 0.0000
# 2 7.6015 58.8922 54.6370 0.0000 0.0000 0.0000
# 3 18.9340 54.6370 168.6077 0.0000 0.0000 0.0000
# 4 0.0000 0.0000 0.0000 33.0612 0.0000 0.0000
# 5 0.0000 0.0000 0.0000 0.0000 16.5881 0.0000
# 6 0.0000 0.0000 0.0000 0.0000 0.0000 17.7765
#
#
#
# Elastic Compliance Matrix: (Units=1/GPa)
#
#
# Indices 1 2 3 4 5 6 
#
# 1 0.027061 -0.000963 -0.002727 0.000000 0.000000 0.000000
# 2 -0.000963 0.024314 -0.007771 0.000000 0.000000 0.000000
# 3 -0.002727 -0.007771 0.008755 0.000000 0.000000 0.000000
# 4 0.000000 0.000000 0.000000 0.030247 0.000000 0.000000
# 5 0.000000 0.000000 0.000000 0.000000 0.060284 0.000000
# 6 0.000000 0.000000 0.000000 0.000000 0.000000 0.056254
#
#
# Mechanical properties :
#
#
# Convention : Reuss Voigt Hill
#
# Bulk Modulus (GPa) = 26.87517 47.66401 37.26959
# Shear Modulus (GPa) = 20.64071 25.84908 23.24489
#
# Velocity S-wave (km/s) = 3.09217 3.46038 3.28144
# Velocity P-wave (km/s) = 5.01979 6.16809 5.62333
#
# Compressibility (1/GPa) = 0.03720907
#
# Stress axis : x y z
#
# Youngs Moduli (GPa) = 36.95305 41.12914 114.21800
#
# Poissons Ratio (x) = 0.03961 0.31145
# Poissons Ratio (y) = 0.03559 0.88755
# Poissons Ratio (z) = 0.10076 0.31960
#
# Static dielectric constant tensor:
#      x y z
#    x 1.907790 0.000000 0.000000 
#    y 0.000000 1.762780 0.000000 
#    z 0.000000 0.000000 1.766520 
# 
# From -- ./inp_files/19474.got.cif
#   From: 2010.05.17/outbox.cif.g08.bks.cpg/sg67_10_cif.got.tgz:19474.got - 2010.06.03 18:28:57.
