data_PCOD9503440
_publ_section_title
;
Structure prediction by ZEFSAII (Michael W. Deem and Ramdas Pophale) SiO2 
 PCOD9503440
Probable space group: C M M A
;
_chemical_formula_sum "Si O2"
_cell_formula_units_Z 68
_cell_length_a 30.824869
_cell_length_b 21.285533
_cell_length_c 5.122260
_cell_angle_alpha 90.000000
_cell_angle_beta 90.000000
_cell_angle_gamma 90.000000
_cell_volume 3360.836523
_symmetry_space_group_name_H-M "C M M A"
_symmetry_group_IT_number 67
_symmetry_cell_setting 'orthorhombic'
loop_
_space_group_symop_operation_xyz
x,y,z
-x,1/2-y,z
x,-y,-z
-x,1/2+y,-z
-x,-y,-z
x,1/2+y,-z
-x,y,z
x,1/2-y,z
1/2+x,1/2+y,z
1/2-x,-y,z
1/2+x,1/2-y,-z
1/2-x,y,-z
1/2-x,1/2-y,-z
1/2+x,y,-z
1/2-x,1/2+y,z
1/2+x,-y,z
loop_
_atom_site_type_symbol
_atom_site_label
_atom_site_fract_x
_atom_site_fract_y
_atom_site_fract_z
Si Si1 0.702684 0.750000 0.680277
Si Si2 0.148141 0.250000 0.177026
Si Si3 0.636294 0.614988 0.275970
Si Si4 0.453614 0.455873 0.750751
Si Si5 0.803963 0.108524 0.773961
Si Si6 0.750000 0.000000 0.500000
O O1 0.690096 0.750000 0.374190
O O2 0.719217 0.821813 0.744187
O O3 0.661848 0.750000 0.876277
O O4 0.123897 0.187275 0.241122
O O5 0.592314 0.578061 0.242319
O O6 0.657807 0.607869 0.558607
O O7 0.673655 0.602165 0.057610
O O8 0.453180 0.500000 0.500000
O O9 0.500000 0.419453 0.745699
O O10 0.454714 0.500000 0.000000
O O11 0.775541 0.048832 0.688569
#
# Coordination Sequence:
#
# PCOD9503440 Si02
#       6
#     8   8  16  16  16   4
#     4   8  16  37  56  78 101 154 183 229 275 354
#     4   8  16  32  57  83 104 136 199 223 266 335
#     4  10  20  38  60  81 110 155 182 231 281 345
#     4  10  21  35  55  85 117 149 189 227 270 336
#     4  10  23  37  59  80 117 145 194 229 293 336
#     4  12  28  40  52  94 114 144 188 262 280 344
#
# _framework density 20.233056999999999
#
# number of rings (size 3 to 8) (size 9 to 14) (size 15 to 20)
#    0.000    2.353    0.000    1.412    4.941    2.353 
#    0.000    0.588    0.000    8.471    0.000   14.824 
#    0.000    0.000    0.000    0.000    0.000    0.000 
#
# Total GULP energy -189491.450220 kJ/mol
# GULP energy per Si atom -5573.277948 kJ/mol
# Density = 2.018701 g / cm^3
# Si number density = 20.233057 Si / 1000 Ang^3
#
#
#
# Elastic Constant Matrix: (Units=GPa)
#
#
# Indices 1 2 3 4 5 6 
#
# 1 82.3707 55.8986 17.7001 0.0000 0.0000 0.0000
# 2 55.8986 130.8205 3.4950 0.0000 0.0000 0.0000
# 3 17.7001 3.4950 102.9115 0.0000 0.0000 0.0000
# 4 0.0000 0.0000 0.0000 14.4547 0.0000 0.0000
# 5 0.0000 0.0000 0.0000 0.0000 24.0378 0.0000
# 6 0.0000 0.0000 0.0000 0.0000 0.0000 -61.8456
#
#
#
# Elastic Compliance Matrix: (Units=1/GPa)
#
#
# Indices 1 2 3 4 5 6 
#
# 1 0.017879 -0.007564 -0.002818 0.000000 0.000000 0.000000
# 2 -0.007564 0.010851 0.000932 0.000000 0.000000 0.000000
# 3 -0.002818 0.000932 0.010170 0.000000 0.000000 0.000000
# 4 0.000000 0.000000 0.000000 0.069182 0.000000 0.000000
# 5 0.000000 0.000000 0.000000 0.000000 0.041601 0.000000
# 6 0.000000 0.000000 0.000000 0.000000 0.000000 -0.016169
#
#
# Mechanical properties :
#
#
# Convention : Reuss Voigt Hill
#
# Bulk Modulus (GPa) = 49.99869 52.25445 51.12657
# Shear Modulus (GPa) = 31.43050 11.26331 21.34690
#
# Velocity S-wave (km/s) = 3.94562 2.36196 3.25168
# Velocity P-wave (km/s) = 6.74702 5.77242 6.27866
#
# Compressibility (1/GPa) = 0.02000053
#
# Stress axis : x y z
#
# Youngs Moduli (GPa) = 55.93104 92.15459 98.32710
#
# Poissons Ratio (x) = 0.69709 0.27711
# Poissons Ratio (y) = 0.42308 -0.09169
# Poissons Ratio (z) = 0.15763 -0.08593
#
# Static dielectric constant tensor:
#      x y z
#    x 1.717120 0.000000 0.000000 
#    y 0.000000 1.756570 0.000000 
#    z 0.000000 0.000000 1.712610 
# 
# From -- ./inp_files/3028.got.cif
#   From: 2010.05.17/outbox.cif.g08.bks.cpg/sg67_2_cif.got.tgz:3028.got - 2010.06.03 18:28:57.
