data_PCOD9503390
_publ_section_title
;
Structure prediction by ZEFSAII (Michael W. Deem and Ramdas Pophale) SiO2 
 PCOD9503390
Probable space group: C M M A
;
_chemical_formula_sum "Si O2"
_cell_formula_units_Z 96
_cell_length_a 18.090161
_cell_length_b 25.169743
_cell_length_c 11.900305
_cell_angle_alpha 90.000000
_cell_angle_beta 90.000000
_cell_angle_gamma 90.000000
_cell_volume 5418.502842
_symmetry_space_group_name_H-M "C M M A"
_symmetry_group_IT_number 67
_symmetry_cell_setting 'orthorhombic'
loop_
_space_group_symop_operation_xyz
x,y,z
-x,1/2-y,z
x,-y,-z
-x,1/2+y,-z
-x,-y,-z
x,1/2+y,-z
-x,y,z
x,1/2-y,z
1/2+x,1/2+y,z
1/2-x,-y,z
1/2+x,1/2-y,-z
1/2-x,y,-z
1/2-x,1/2-y,-z
1/2+x,y,-z
1/2-x,1/2+y,z
1/2+x,-y,z
loop_
_atom_site_type_symbol
_atom_site_label
_atom_site_fract_x
_atom_site_fract_y
_atom_site_fract_z
Si Si1 0.328265 0.897449 0.228560
Si Si2 0.086561 0.312140 0.634130
Si Si3 0.660221 0.998319 0.373260
Si Si4 0.179945 0.687000 0.578221
Si Si5 0.588074 0.562445 0.012086
Si Si6 0.346118 0.597132 0.780607
O O1 0.329428 0.844864 0.306251
O O2 0.373542 0.906137 0.114422
O O3 0.241808 0.906129 0.200043
O O4 0.357017 0.944092 0.310208
O O5 0.101558 0.250000 0.656828
O O6 0.111291 0.321566 0.505623
O O7 0.132982 0.349234 0.716337
O O8 0.000000 0.322475 0.648837
O O9 0.634005 0.048331 0.301541
O O10 0.632292 0.000000 0.500000
O O11 0.750000 0.000000 0.377753
O O12 0.189284 0.750000 0.599051
O O13 0.250000 0.669130 0.500000
O O14 0.500000 0.562594 0.027722
O O15 0.611981 0.500000 0.000000
O O16 0.610976 0.590219 0.896258
#
# Coordination Sequence:
#
# PCOD9503390 Si02
#       6
#    16  16  16  16  16  16
#     4  11  21  35  60  86 116 153 202 252 299 359
#     4  10  21  37  60  90 123 159 196 240 303 369
#     4   9  18  29  50  84 117 145 185 243 304 358
#     4  10  20  37  62  91 122 156 196 246 304 364
#     4  11  24  41  57  79 118 164 206 252 308 368
#     4  11  20  36  60  84 115 155 202 250 301 362
#
# _framework density 17.717071000000001
#
# number of rings (size 3 to 8) (size 9 to 14) (size 15 to 20)
#    0.000    1.667    3.333    2.000    2.333    1.333 
#    0.000    0.833    0.000    5.500    0.000    0.000 
#    0.000    0.000    0.000    0.000    0.000    0.000 
#
# Total GULP energy -267821.035500 kJ/mol
# GULP energy per Si atom -5579.604906 kJ/mol
# Density = 1.767675 g / cm^3
# Si number density = 17.717071 Si / 1000 Ang^3
#
#
#
# Elastic Constant Matrix: (Units=GPa)
#
#
# Indices 1 2 3 4 5 6 
#
# 1 56.1760 34.6851 35.8800 0.0000 0.0000 0.0000
# 2 34.6851 63.0580 54.5589 0.0000 0.0000 0.0000
# 3 35.8800 54.5589 138.7459 0.0000 0.0000 0.0000
# 4 0.0000 0.0000 0.0000 -7.5595 0.0000 0.0000
# 5 0.0000 0.0000 0.0000 0.0000 20.1232 0.0000
# 6 0.0000 0.0000 0.0000 0.0000 0.0000 18.9186
#
#
#
# Elastic Compliance Matrix: (Units=1/GPa)
#
#
# Indices 1 2 3 4 5 6 
#
# 1 0.027232 -0.013468 -0.001746 0.000000 0.000000 0.000000
# 2 -0.013468 0.030697 -0.008588 0.000000 0.000000 0.000000
# 3 -0.001746 -0.008588 0.011036 0.000000 0.000000 0.000000
# 4 0.000000 0.000000 0.000000 -0.132285 0.000000 0.000000
# 5 0.000000 0.000000 0.000000 0.000000 0.049694 0.000000
# 6 0.000000 0.000000 0.000000 0.000000 0.000000 0.052858
#
#
# Mechanical properties :
#
#
# Convention : Reuss Voigt Hill
#
# Bulk Modulus (GPa) = 46.81559 56.46978 51.64268
# Shear Modulus (GPa) = 53.21506 15.15352 34.18429
#
# Velocity S-wave (km/s) = 5.48646 2.92773 4.39732
# Velocity P-wave (km/s) = 8.16188 6.58568 7.41578
#
# Compressibility (1/GPa) = 0.02136041
#
# Stress axis : x y z
#
# Youngs Moduli (GPa) = 36.72107 32.57622 90.61171
#
# Poissons Ratio (x) = 0.43875 0.15823
# Poissons Ratio (y) = 0.49457 0.77818
# Poissons Ratio (z) = 0.06412 0.27977
#
# Static dielectric constant tensor:
#      x y z
#    x 1.613230 0.000000 0.000000 
#    y 0.000000 1.606930 0.000000 
#    z 0.000000 0.000000 1.590770 
# 
# From -- ./inp_files/19603.got.cif
#   From: 2010.05.17/outbox.cif.g08.bks.cpg/sg67_10_cif.got.tgz:19603.got - 2010.06.03 18:28:57.
