data_PCOD9503956
_publ_section_title
;
Structure prediction by ZEFSAII (Michael W. Deem and Ramdas Pophale) SiO2 
 PCOD9503956
Probable space group: C M M A
;
_chemical_formula_sum "Si O2"
_cell_formula_units_Z 68
_cell_length_a 9.430843
_cell_length_b 15.193256
_cell_length_c 25.785787
_cell_angle_alpha 90.000000
_cell_angle_beta 90.000000
_cell_angle_gamma 90.000000
_cell_volume 3694.721957
_symmetry_space_group_name_H-M "C M M A"
_symmetry_group_IT_number 67
_symmetry_cell_setting 'orthorhombic'
loop_
_space_group_symop_operation_xyz
x,y,z
-x,1/2-y,z
x,-y,-z
-x,1/2+y,-z
-x,-y,-z
x,1/2+y,-z
-x,y,z
x,1/2-y,z
1/2+x,1/2+y,z
1/2-x,-y,z
1/2+x,1/2-y,-z
1/2-x,y,-z
1/2-x,1/2-y,-z
1/2+x,y,-z
1/2-x,1/2+y,z
1/2+x,-y,z
loop_
_atom_site_type_symbol
_atom_site_label
_atom_site_fract_x
_atom_site_fract_y
_atom_site_fract_z
Si Si1 0.666723 0.250000 0.553405
Si Si2 0.664245 0.856321 0.730297
Si Si3 0.830362 0.085606 0.371790
Si Si4 0.250000 0.500000 0.081526
Si Si5 0.000000 0.500000 0.000000
Si Si6 0.332414 0.854347 0.165129
O O1 0.500000 0.250000 0.541535
O O2 0.750000 0.250000 0.500000
O O3 0.696435 0.165603 0.589083
O O4 0.500000 0.886089 0.727842
O O5 0.664593 0.750000 0.726173
O O6 0.758136 0.892799 0.683390
O O7 0.737899 0.878101 0.784912
O O8 0.000000 0.073675 0.366409
O O9 0.750000 0.000000 0.392204
O O10 0.290102 0.582719 0.117946
O O11 0.121174 0.520978 0.043863
O O12 0.500000 0.865539 0.176605
O O13 0.310332 0.750000 0.153679
#
# Coordination Sequence:
#
# PCOD9503956 Si02
#       6
#     8  16  16   8   4  16
#     4  10  24  44  68  92 126 174 218 267 320 369
#     4  10  21  37  61  94 129 167 207 259 317 382
#     4  11  23  41  63  93 129 168 217 261 318 380
#     4  11  22  44  64  90 122 166 201 264 310 370
#     4  10  24  42  66  90 124 160 212 254 312 366
#     4  10  22  40  63  91 125 164 209 255 314 378
#
# _framework density 18.404633
#
# number of rings (size 3 to 8) (size 9 to 14) (size 15 to 20)
#    0.000    1.647    2.353    1.412    3.294    3.294 
#    0.000    5.882    0.000    0.000    0.000    0.000 
#    0.000    0.000    0.000    0.000    0.000    0.000 
#
# Total GULP energy -189358.831994 kJ/mol
# GULP energy per Si atom -5569.377412 kJ/mol
# Density = 1.836274 g / cm^3
# Si number density = 18.404633 Si / 1000 Ang^3
#
#
#
# Elastic Constant Matrix: (Units=GPa)
#
#
# Indices 1 2 3 4 5 6 
#
# 1 157.3444 58.5977 70.4460 0.0000 0.0000 0.0000
# 2 58.5977 91.2381 53.0106 0.0000 0.0000 0.0000
# 3 70.4460 53.0106 111.7319 0.0000 0.0000 0.0000
# 4 0.0000 0.0000 0.0000 -1.2042 0.0000 0.0000
# 5 0.0000 0.0000 0.0000 0.0000 21.7049 0.0000
# 6 0.0000 0.0000 0.0000 0.0000 0.0000 20.5133
#
#
#
# Elastic Compliance Matrix: (Units=1/GPa)
#
#
# Indices 1 2 3 4 5 6 
#
# 1 0.009677 -0.003686 -0.004352 0.000000 0.000000 0.000000
# 2 -0.003686 0.016536 -0.005521 0.000000 0.000000 0.000000
# 3 -0.004352 -0.005521 0.014314 0.000000 0.000000 0.000000
# 4 0.000000 0.000000 0.000000 -0.830395 0.000000 0.000000
# 5 0.000000 0.000000 0.000000 0.000000 0.046073 0.000000
# 6 0.000000 0.000000 0.000000 0.000000 0.000000 0.048749
#
#
# Mechanical properties :
#
#
# Convention : Reuss Voigt Hill
#
# Bulk Modulus (GPa) = 74.58893 80.49144 77.54019
# Shear Modulus (GPa) = -7.53626 20.08679 6.27527
#
# Velocity S-wave (km/s) = -2.02575 3.30722 1.84852
# Velocity P-wave (km/s) = 5.92821 7.64283 6.83946
#
# Compressibility (1/GPa) = 0.01340681
#
# Stress axis : x y z
#
# Youngs Moduli (GPa) = 103.33879 60.47533 69.86393
#
# Poissons Ratio (x) = 0.22293 0.30407
# Poissons Ratio (y) = 0.38093 0.38573
# Poissons Ratio (z) = 0.44976 0.33389
#
# Static dielectric constant tensor:
#      x y z
#    x 1.611940 0.000000 0.000000 
#    y 0.000000 1.676810 0.000000 
#    z 0.000000 0.000000 1.596490 
# 
# From -- ./inp_files/36671.got.cif
#   From: 2010.05.17/outbox.cif.g08.bks.cpg/sg67_19_cif.got.tgz:36671.got - 2010.06.03 18:28:57.
