data_PCOD9503479
_publ_section_title
;
Structure prediction by ZEFSAII (Michael W. Deem and Ramdas Pophale) SiO2 
 PCOD9503479
Probable space group: C M M A
;
_chemical_formula_sum "Si O2"
_cell_formula_units_Z 96
_cell_length_a 21.897753
_cell_length_b 13.890199
_cell_length_c 12.937242
_cell_angle_alpha 90.000000
_cell_angle_beta 90.000000
_cell_angle_gamma 90.000000
_cell_volume 3935.045175
_symmetry_space_group_name_H-M "C M M A"
_symmetry_group_IT_number 67
_symmetry_cell_setting 'orthorhombic'
loop_
_space_group_symop_operation_xyz
x,y,z
-x,1/2-y,z
x,-y,-z
-x,1/2+y,-z
-x,-y,-z
x,1/2+y,-z
-x,y,z
x,1/2-y,z
1/2+x,1/2+y,z
1/2-x,-y,z
1/2+x,1/2-y,-z
1/2-x,y,-z
1/2-x,1/2-y,-z
1/2+x,y,-z
1/2-x,1/2+y,z
1/2+x,-y,z
loop_
_atom_site_type_symbol
_atom_site_label
_atom_site_fract_x
_atom_site_fract_y
_atom_site_fract_z
Si Si1 0.738349 0.634622 0.770750
Si Si2 0.355079 0.858263 0.143342
Si Si3 0.928769 0.433119 0.336003
Si Si4 0.307318 0.900075 0.439229
Si Si5 0.400438 0.363687 0.269180
Si Si6 0.064685 0.110340 0.964628
O O1 0.732410 0.750000 0.774921
O O2 0.785676 0.603576 0.858907
O O3 0.777693 0.600830 0.673037
O O4 0.669348 0.604819 0.753864
O O5 0.353130 0.750000 0.187189
O O6 0.402593 0.911479 0.219872
O O7 0.379029 0.850855 0.027885
O O8 0.879271 0.381004 0.412477
O O9 0.924968 0.550854 0.342772
O O10 0.000000 0.405061 0.346835
O O11 0.250000 0.849278 0.500000
O O12 0.311762 0.000000 0.500000
O O13 0.403543 0.250000 0.303187
O O14 0.431279 0.371431 0.156752
O O15 0.000000 0.149133 0.002595
O O16 0.065242 0.000000 0.000000
#
# Coordination Sequence:
#
# PCOD9503479 Si02
#       6
#    16  16  16  16  16  16
#     4   9  21  40  62  89 118 150 197 249 297 354
#     4  10  21  39  62  86 116 158 203 248 297 348
#     4  11  23  39  60  89 124 156 196 249 296 351
#     4  10  20  38  63  87 114 151 192 238 296 366
#     4  11  22  37  59  86 120 162 202 243 293 349
#     4  11  22  37  54  81 121 161 202 246 290 343
#
# _framework density 24.396162
#
# number of rings (size 3 to 8) (size 9 to 14) (size 15 to 20)
#    0.000    1.667    1.667    3.500    0.000    6.667 
#    0.000    4.167    0.000    0.500    0.000    7.000 
#    0.000    0.000    0.000    0.000    0.000    0.000 
#
# Total GULP energy -267239.538511 kJ/mol
# GULP energy per Si atom -5567.490386 kJ/mol
# Density = 2.434064 g / cm^3
# Si number density = 24.396162 Si / 1000 Ang^3
#
#
#
# Elastic Constant Matrix: (Units=GPa)
#
#
# Indices 1 2 3 4 5 6 
#
# 1 207.6216 10.4075 23.8508 0.0000 0.0000 0.0000
# 2 10.4075 95.7213 -22.4926 0.0000 0.0000 0.0000
# 3 23.8508 -22.4926 34.3498 0.0000 0.0000 0.0000
# 4 0.0000 0.0000 0.0000 38.6090 0.0000 0.0000
# 5 0.0000 0.0000 0.0000 0.0000 29.7816 0.0000
# 6 0.0000 0.0000 0.0000 0.0000 0.0000 -9.1306
#
#
#
# Elastic Compliance Matrix: (Units=1/GPa)
#
#
# Indices 1 2 3 4 5 6 
#
# 1 0.005474 -0.001759 -0.004952 0.000000 0.000000 0.000000
# 2 -0.001759 0.012912 0.009676 0.000000 0.000000 0.000000
# 3 -0.004952 0.009676 0.038887 0.000000 0.000000 0.000000
# 4 0.000000 0.000000 0.000000 0.025901 0.000000 0.000000
# 5 0.000000 0.000000 0.000000 0.000000 0.033578 0.000000
# 6 0.000000 0.000000 0.000000 0.000000 0.000000 -0.109521
#
#
# Mechanical properties :
#
#
# Convention : Reuss Voigt Hill
#
# Bulk Modulus (GPa) = 15.82218 40.13599 27.97909
# Shear Modulus (GPa) = 223.54657 33.58047 128.56352
#
# Velocity S-wave (km/s) = 9.58284 3.71410 7.26723
# Velocity P-wave (km/s) = 11.35520 5.90595 9.05044
#
# Compressibility (1/GPa) = 0.06320240
#
# Stress axis : x y z
#
# Youngs Moduli (GPa) = 182.69819 77.44788 25.71566
#
# Poissons Ratio (x) = 0.13621 0.12735
# Poissons Ratio (y) = 0.32133 -0.24883
# Poissons Ratio (z) = 0.90476 -0.74939
#
# Static dielectric constant tensor:
#      x y z
#    x 2.044070 0.000000 0.000000 
#    y 0.000000 2.149120 0.000000 
#    z 0.000000 0.000000 1.961720 
# 
# From -- ./inp_files/29251.got.cif
#   From: 2010.05.17/outbox.cif.g08.bks.cpg/sg67_15_cif.got.tgz:29251.got - 2010.06.03 18:28:57.
