data_PCOD9503437
_publ_section_title
;
Structure prediction by ZEFSAII (Michael W. Deem and Ramdas Pophale) SiO2 
 PCOD9503437
Probable space group: C M M A
;
_chemical_formula_sum "Si O2"
_cell_formula_units_Z 64
_cell_length_a 10.952553
_cell_length_b 18.615251
_cell_length_c 13.825200
_cell_angle_alpha 90.000000
_cell_angle_beta 90.000000
_cell_angle_gamma 90.000000
_cell_volume 2818.744310
_symmetry_space_group_name_H-M "C M M A"
_symmetry_group_IT_number 67
_symmetry_cell_setting 'orthorhombic'
loop_
_space_group_symop_operation_xyz
x,y,z
-x,1/2-y,z
x,-y,-z
-x,1/2+y,-z
-x,-y,-z
x,1/2+y,-z
-x,y,z
x,1/2-y,z
1/2+x,1/2+y,z
1/2-x,-y,z
1/2+x,1/2-y,-z
1/2-x,y,-z
1/2-x,1/2-y,-z
1/2+x,y,-z
1/2-x,1/2+y,z
1/2+x,-y,z
loop_
_atom_site_type_symbol
_atom_site_label
_atom_site_fract_x
_atom_site_fract_y
_atom_site_fract_z
Si Si1 0.241320 0.334315 0.315813
Si Si2 0.122651 0.017334 0.885861
Si Si3 0.500000 0.583057 0.390176
Si Si4 0.000000 0.588793 0.377569
Si Si5 0.691494 0.827192 0.893846
O O1 0.245891 0.250000 0.348784
O O2 0.373813 0.372730 0.338851
O O3 0.221722 0.330865 0.199375
O O4 0.125598 0.377915 0.356574
O O5 0.115467 0.102023 0.882462
O O6 0.000000 0.981711 0.848341
O O7 0.250000 0.000000 0.837146
O O8 0.129365 0.000000 0.000000
O O9 0.500000 0.498045 0.361039
O O10 0.500000 0.592286 0.506345
O O11 0.630208 0.750000 0.887394
O O12 0.750000 0.831617 0.000000
#
# Coordination Sequence:
#
# PCOD9503437 Si02
#       5
#    16  16   8   8  16
#     4  11  25  45  71 106 141 184 237 284 343 418
#     4  10  20  38  59  87 121 166 221 281 321 386
#     4  11  25  49  74 103 144 178 224 286 368 423
#     4  11  25  47  76 107 138 180 222 294 360 421
#     4  10  22  44  65  92 138 187 228 277 332 391
#
# _framework density 22.705145999999999
#
# number of rings (size 3 to 8) (size 9 to 14) (size 15 to 20)
#    0.000    1.500    2.500    2.250    1.750    7.500 
#    4.500    0.000    0.000    0.000    0.000    0.000 
#    0.000    0.000    0.000    0.000    0.000    0.000 
#
# Total GULP energy -178230.549587 kJ/mol
# GULP energy per Si atom -5569.704675 kJ/mol
# Density = 2.265347 g / cm^3
# Si number density = 22.705146 Si / 1000 Ang^3
#
#
#
# Elastic Constant Matrix: (Units=GPa)
#
#
# Indices 1 2 3 4 5 6 
#
# 1 233.5980 92.6323 50.4647 0.0000 0.0000 0.0000
# 2 92.6323 196.3015 22.0076 0.0000 0.0000 0.0000
# 3 50.4647 22.0076 152.7699 0.0000 0.0000 0.0000
# 4 0.0000 0.0000 0.0000 32.5100 0.0000 0.0000
# 5 0.0000 0.0000 0.0000 0.0000 35.6396 0.0000
# 6 0.0000 0.0000 0.0000 0.0000 0.0000 23.2941
#
#
#
# Elastic Compliance Matrix: (Units=1/GPa)
#
#
# Indices 1 2 3 4 5 6 
#
# 1 0.005580 -0.002466 -0.001488 0.000000 0.000000 0.000000
# 2 -0.002466 0.006268 -0.000088 0.000000 0.000000 0.000000
# 3 -0.001488 -0.000088 0.007050 0.000000 0.000000 0.000000
# 4 0.000000 0.000000 0.000000 0.030760 0.000000 0.000000
# 5 0.000000 0.000000 0.000000 0.000000 0.028059 0.000000
# 6 0.000000 0.000000 0.000000 0.000000 0.000000 0.042929
#
#
# Mechanical properties :
#
#
# Convention : Reuss Voigt Hill
#
# Bulk Modulus (GPa) = 92.48167 101.43095 96.95631
# Shear Modulus (GPa) = 37.78258 46.12638 41.95448
#
# Velocity S-wave (km/s) = 4.08371 4.51215 4.30326
# Velocity P-wave (km/s) = 7.94075 8.48033 8.21498
#
# Compressibility (1/GPa) = 0.01081295
#
# Stress axis : x y z
#
# Youngs Moduli (GPa) = 179.19835 159.54050 141.84291
#
# Poissons Ratio (x) = 0.39351 0.21107
# Poissons Ratio (y) = 0.44199 0.01251
# Poissons Ratio (z) = 0.26666 0.01407
#
# Static dielectric constant tensor:
#      x y z
#    x 1.953440 0.000000 0.000000 
#    y 0.000000 1.867290 0.000000 
#    z 0.000000 0.000000 1.715830 
# 
# From -- ./inp_files/25803.got.cif
#   From: 2010.05.17/outbox.cif.g08.bks.cpg/sg67_13_cif.got.tgz:25803.got - 2010.06.03 18:28:57.
