data_PCOD9503376
_publ_section_title
;
Structure prediction by ZEFSAII (Michael W. Deem and Ramdas Pophale) SiO2 
 PCOD9503376
Probable space group: C M M A
;
_chemical_formula_sum "Si O2"
_cell_formula_units_Z 72
_cell_length_a 22.988328
_cell_length_b 16.835528
_cell_length_c 8.334767
_cell_angle_alpha 90.000000
_cell_angle_beta 90.000000
_cell_angle_gamma 90.000000
_cell_volume 3225.726856
_symmetry_space_group_name_H-M "C M M A"
_symmetry_group_IT_number 67
_symmetry_cell_setting 'orthorhombic'
loop_
_space_group_symop_operation_xyz
x,y,z
-x,1/2-y,z
x,-y,-z
-x,1/2+y,-z
-x,-y,-z
x,1/2+y,-z
-x,y,z
x,1/2-y,z
1/2+x,1/2+y,z
1/2-x,-y,z
1/2+x,1/2-y,-z
1/2-x,y,-z
1/2-x,1/2-y,-z
1/2+x,y,-z
1/2-x,1/2+y,z
1/2+x,-y,z
loop_
_atom_site_type_symbol
_atom_site_label
_atom_site_fract_x
_atom_site_fract_y
_atom_site_fract_z
Si Si1 0.601869 0.750000 0.186958
Si Si2 0.569423 0.750000 0.830842
Si Si3 0.897928 0.082695 0.290989
Si Si4 0.431961 0.588081 0.645568
Si Si5 0.261112 0.250000 0.805844
Si Si6 0.232923 0.082902 0.187681
O O1 0.573300 0.832988 0.242764
O O2 0.669943 0.750000 0.236716
O O3 0.602670 0.750000 0.996388
O O4 0.500000 0.750000 0.862592
O O5 0.582307 0.831788 0.739507
O O6 0.894564 0.085922 0.483733
O O7 0.836297 0.085133 0.203165
O O8 0.924679 0.995313 0.259904
O O9 0.500000 0.592135 0.596538
O O10 0.239647 0.164505 0.745522
O O11 0.250000 0.250000 0.000000
O O12 0.250000 0.000000 0.266285
O O13 0.250000 0.080754 0.000000
#
# Coordination Sequence:
#
# PCOD9503376 Si02
#       6
#     8   8  16  16   8  16
#     4  10  21  35  59  90 116 151 200 243 295 356
#     4  10  23  38  55  84 122 153 189 248 306 348
#     4  10  20  37  62  86 113 158 203 241 288 352
#     4  10  22  41  60  84 120 161 200 244 292 347
#     4   8  16  31  50  74 106 144 180 221 276 338
#     4   9  18  32  53  84 114 144 185 237 291 342
#
# _framework density 22.320550000000001
#
# number of rings (size 3 to 8) (size 9 to 14) (size 15 to 20)
#    0.000    2.444    0.000    2.000    0.000   11.556 
#    0.000    4.444    0.000    0.000    0.000   35.778 
#    0.000    0.000    0.000    0.000    0.000    0.000 
#
# Total GULP energy -200586.893727 kJ/mol
# GULP energy per Si atom -5571.858159 kJ/mol
# Density = 2.226975 g / cm^3
# Si number density = 22.320550 Si / 1000 Ang^3
#
#
#
# Elastic Constant Matrix: (Units=GPa)
#
#
# Indices 1 2 3 4 5 6 
#
# 1 53.5138 14.2824 20.3795 0.0000 0.0000 0.0000
# 2 14.2824 280.6555 33.7044 0.0000 0.0000 0.0000
# 3 20.3795 33.7044 47.7976 0.0000 0.0000 0.0000
# 4 0.0000 0.0000 0.0000 0.1367 0.0000 0.0000
# 5 0.0000 0.0000 0.0000 0.0000 23.0996 0.0000
# 6 0.0000 0.0000 0.0000 0.0000 0.0000 19.6482
#
#
#
# Elastic Compliance Matrix: (Units=1/GPa)
#
#
# Indices 1 2 3 4 5 6 
#
# 1 0.022309 0.000008 -0.009517 0.000000 0.000000 0.000000
# 2 0.000008 0.003893 -0.002748 0.000000 0.000000 0.000000
# 3 -0.009517 -0.002748 0.026917 0.000000 0.000000 0.000000
# 4 0.000000 0.000000 0.000000 7.315246 0.000000 0.000000
# 5 0.000000 0.000000 0.000000 0.000000 0.043291 0.000000
# 6 0.000000 0.000000 0.000000 0.000000 0.000000 0.050895
#
#
# Mechanical properties :
#
#
# Convention : Reuss Voigt Hill
#
# Bulk Modulus (GPa) = 34.96084 57.63328 46.29706
# Shear Modulus (GPa) = 0.66697 29.48361 15.07529
#
# Velocity S-wave (km/s) = 0.54723 3.63839 2.60166
# Velocity P-wave (km/s) = 4.01203 6.59752 5.46002
#
# Compressibility (1/GPa) = 0.02860343
#
# Stress axis : x y z
#
# Youngs Moduli (GPa) = 44.82459 256.88866 37.15069
#
# Poissons Ratio (x) = -0.00197 0.35358
# Poissons Ratio (y) = -0.00034 0.10210
# Poissons Ratio (z) = 0.42661 0.70599
#
# Static dielectric constant tensor:
#      x y z
#    x 1.364210 0.000000 0.000000 
#    y 0.000000 1.914140 0.000000 
#    z 0.000000 0.000000 1.763840 
# 
# From -- ./inp_files/12267.got.cif
#   From: 2010.05.17/outbox.cif.g08.bks.cpg/sg67_7_cif.got.tgz:12267.got - 2010.06.03 18:28:57.
