data_PCOD9503340
_publ_section_title
;
Structure prediction by ZEFSAII (Michael W. Deem and Ramdas Pophale) SiO2 
 PCOD9503340
Probable space group: C M M A
;
_chemical_formula_sum "Si O2"
_cell_formula_units_Z 80
_cell_length_a 15.418052
_cell_length_b 19.598592
_cell_length_c 12.175147
_cell_angle_alpha 90.000000
_cell_angle_beta 90.000000
_cell_angle_gamma 90.000000
_cell_volume 3678.989866
_symmetry_space_group_name_H-M "C M M A"
_symmetry_group_IT_number 67
_symmetry_cell_setting 'orthorhombic'
loop_
_space_group_symop_operation_xyz
x,y,z
-x,1/2-y,z
x,-y,-z
-x,1/2+y,-z
-x,-y,-z
x,1/2+y,-z
-x,y,z
x,1/2-y,z
1/2+x,1/2+y,z
1/2-x,-y,z
1/2+x,1/2-y,-z
1/2-x,y,-z
1/2-x,1/2-y,-z
1/2+x,y,-z
1/2-x,1/2+y,z
1/2+x,-y,z
loop_
_atom_site_type_symbol
_atom_site_label
_atom_site_fract_x
_atom_site_fract_y
_atom_site_fract_z
Si Si1 0.847800 0.470001 0.885038
Si Si2 0.405286 0.169848 0.743814
Si Si3 0.596778 0.013135 0.354232
Si Si4 0.769552 0.172833 0.871257
Si Si5 0.655606 0.887129 0.474655
O O1 0.750000 0.500000 0.879501
O O2 0.896054 0.490517 0.775181
O O3 0.839053 0.388068 0.872050
O O4 0.883076 0.500000 0.000000
O O5 0.500000 0.141189 0.777324
O O6 0.407989 0.250000 0.767647
O O7 0.317166 0.147767 0.806328
O O8 0.394287 0.158996 0.612870
O O9 0.500000 0.991159 0.385597
O O10 0.614299 0.086156 0.411497
O O11 0.661730 0.957616 0.404816
O O12 0.792730 0.250000 0.831431
O O13 0.750000 0.179052 0.000000
O O14 0.750000 0.858423 0.500000
#
# Coordination Sequence:
#
# PCOD9503340 Si02
#       5
#    16  16  16  16  16
#     4  11  21  37  59  84 114 153 200 250 296 359
#     4  10  21  37  59  88 120 155 198 248 302 365
#     4  11  22  36  56  84 117 151 191 244 306 357
#     4  10  20  37  60  85 116 156 199 244 299 364
#     4  11  21  36  59  84 114 155 198 241 295 357
#
# _framework density 21.745100000000001
#
# number of rings (size 3 to 8) (size 9 to 14) (size 15 to 20)
#    0.000    1.400    2.000    7.200    0.000    0.800 
#    0.000    2.000    0.000    3.600    0.000    0.000 
#    0.000    0.000    0.000    0.000    0.000    0.000 
#
# Total GULP energy -222925.722355 kJ/mol
# GULP energy per Si atom -5573.143059 kJ/mol
# Density = 2.169561 g / cm^3
# Si number density = 21.745100 Si / 1000 Ang^3
#
#
#
# Elastic Constant Matrix: (Units=GPa)
#
#
# Indices 1 2 3 4 5 6 
#
# 1 49.6586 7.8575 29.4679 0.0000 0.0000 0.0000
# 2 7.8575 78.9233 12.4942 0.0000 0.0000 0.0000
# 3 29.4679 12.4942 155.3351 0.0000 0.0000 0.0000
# 4 0.0000 0.0000 0.0000 53.6276 0.0000 0.0000
# 5 0.0000 0.0000 0.0000 0.0000 -8.5940 0.0000
# 6 0.0000 0.0000 0.0000 0.0000 0.0000 -10.5985
#
#
#
# Elastic Compliance Matrix: (Units=1/GPa)
#
#
# Indices 1 2 3 4 5 6 
#
# 1 0.022893 -0.001612 -0.004213 0.000000 0.000000 0.000000
# 2 -0.001612 0.012947 -0.000736 0.000000 0.000000 0.000000
# 3 -0.004213 -0.000736 0.007296 0.000000 0.000000 0.000000
# 4 0.000000 0.000000 0.000000 0.018647 0.000000 0.000000
# 5 0.000000 0.000000 0.000000 0.000000 -0.116361 0.000000
# 6 0.000000 0.000000 0.000000 0.000000 0.000000 -0.094353
#
#
# Mechanical properties :
#
#
# Convention : Reuss Voigt Hill
#
# Bulk Modulus (GPa) = 33.31730 42.61735 37.96732
# Shear Modulus (GPa) = -39.74444 22.49353 -8.62545
#
# Velocity S-wave (km/s) = -4.27985 3.21973 -1.99380
# Velocity P-wave (km/s) = 3.01128 5.78475 3.49253
#
# Compressibility (1/GPa) = 0.03001444
#
# Stress axis : x y z
#
# Youngs Moduli (GPa) = 43.68198 77.23513 137.05904
#
# Poissons Ratio (x) = 0.12452 0.57746
# Poissons Ratio (y) = 0.07042 0.10082
# Poissons Ratio (z) = 0.18404 0.05681
#
# Static dielectric constant tensor:
#      x y z
#    x 1.790350 0.000000 0.000000 
#    y 0.000000 1.900280 0.000000 
#    z 0.000000 0.000000 1.807000 
# 
# From -- ./inp_files/17900.got.cif
#   From: 2010.05.17/outbox.cif.g08.bks.cpg/sg67_9_cif.got.tgz:17900.got - 2010.06.03 18:28:57.
