data_PCOD9503648
_publ_section_title
;
Structure prediction by ZEFSAII (Michael W. Deem and Ramdas Pophale) SiO2 
 PCOD9503648
Probable space group: C M M A
;
_chemical_formula_sum "Si O2"
_cell_formula_units_Z 128
_cell_length_a 20.354782
_cell_length_b 19.013180
_cell_length_c 18.871554
_cell_angle_alpha 90.000000
_cell_angle_beta 90.000000
_cell_angle_gamma 90.000000
_cell_volume 7303.463771
_symmetry_space_group_name_H-M "C M M A"
_symmetry_group_IT_number 67
_symmetry_cell_setting 'orthorhombic'
loop_
_space_group_symop_operation_xyz
x,y,z
-x,1/2-y,z
x,-y,-z
-x,1/2+y,-z
-x,-y,-z
x,1/2+y,-z
-x,y,z
x,1/2-y,z
1/2+x,1/2+y,z
1/2-x,-y,z
1/2+x,1/2-y,-z
1/2-x,y,-z
1/2-x,1/2-y,-z
1/2+x,y,-z
1/2-x,1/2+y,z
1/2+x,-y,z
loop_
_atom_site_type_symbol
_atom_site_label
_atom_site_fract_x
_atom_site_fract_y
_atom_site_fract_z
Si Si1 0.182948 0.164642 0.961923
Si Si2 0.576525 0.832446 0.076856
Si Si3 0.137659 0.508507 0.421662
Si Si4 0.075323 0.438022 0.721589
Si Si5 0.575487 0.911796 0.223469
Si Si6 0.675042 0.334919 0.201611
Si Si7 0.306751 0.329246 0.719051
Si Si8 0.257251 0.382371 0.577118
O O1 0.186697 0.250000 0.959360
O O2 0.171072 0.143271 0.880776
O O3 0.250000 0.140106 0.000000
O O4 0.122869 0.145609 0.012760
O O5 0.500000 0.837684 0.057318
O O6 0.590327 0.750000 0.093209
O O7 0.587567 0.878250 0.146707
O O8 0.105879 0.500000 0.500000
O O9 0.091942 0.527165 0.355201
O O10 0.191318 0.571264 0.418161
O O11 0.182913 0.438648 0.418142
O O12 0.081339 0.504337 0.774570
O O13 0.125186 0.378192 0.748510
O O14 0.000000 0.412836 0.721335
O O15 0.500000 0.894415 0.244232
O O16 0.630448 0.878793 0.274080
O O17 0.664679 0.250000 0.207802
O O18 0.749585 0.349719 0.226246
O O19 0.328213 0.250000 0.734094
O O20 0.271147 0.333269 0.643159
O O21 0.250000 0.347829 0.500000
#
# Coordination Sequence:
#
# PCOD9503648 Si02
#       8
#    16  16  16  16  16  16  16  16
#     4   9  17  32  53  77 105 137 179 227 270 322
#     4   9  17  31  52  75 102 140 178 214 263 319
#     4   9  17  33  56  79 106 141 183 226 269 312
#     4  11  22  36  56  81 109 148 186 224 277 324
#     4  10  21  35  52  80 112 139 179 227 271 326
#     4  10  22  37  55  82 111 141 184 233 277 329
#     4  11  20  32  55  81 108 145 176 214 275 325
#     4   9  17  31  53  79 107 138 176 221 269 314
#
# _framework density 17.525931
#
# number of rings (size 3 to 8) (size 9 to 14) (size 15 to 20)
#    0.000    2.250    2.500    1.875    0.000    4.500 
#    0.000    1.875    0.000    3.000    0.000    0.000 
#    0.000    0.000    0.000    0.000    0.000    0.000 
#
# Total GULP energy -356419.125856 kJ/mol
# GULP energy per Si atom -5569.048842 kJ/mol
# Density = 1.748604 g / cm^3
# Si number density = 17.525931 Si / 1000 Ang^3
#
#
#
# Elastic Constant Matrix: (Units=GPa)
#
#
# Indices 1 2 3 4 5 6 
#
# 1 68.0108 36.0072 45.8007 0.0000 0.0000 0.0000
# 2 36.0072 39.2488 23.9458 0.0000 0.0000 0.0000
# 3 45.8007 23.9458 115.9081 0.0000 0.0000 0.0000
# 4 0.0000 0.0000 0.0000 20.2267 0.0000 0.0000
# 5 0.0000 0.0000 0.0000 0.0000 22.9269 0.0000
# 6 0.0000 0.0000 0.0000 0.0000 0.0000 12.4752
#
#
#
# Elastic Compliance Matrix: (Units=1/GPa)
#
#
# Indices 1 2 3 4 5 6 
#
# 1 0.034048 -0.026349 -0.008010 0.000000 0.000000 0.000000
# 2 -0.026349 0.049543 0.000176 0.000000 0.000000 0.000000
# 3 -0.008010 0.000176 0.011756 0.000000 0.000000 0.000000
# 4 0.000000 0.000000 0.000000 0.049440 0.000000 0.000000
# 5 0.000000 0.000000 0.000000 0.000000 0.043617 0.000000
# 6 0.000000 0.000000 0.000000 0.000000 0.000000 0.080159
#
#
# Mechanical properties :
#
#
# Convention : Reuss Voigt Hill
#
# Bulk Modulus (GPa) = 37.06171 48.29723 42.67947
# Shear Modulus (GPa) = 14.45408 18.95337 16.70372
#
# Velocity S-wave (km/s) = 2.87492 3.29210 3.09056
# Velocity P-wave (km/s) = 5.67564 6.48599 6.09430
#
# Compressibility (1/GPa) = 0.02698203
#
# Stress axis : x y z
#
# Youngs Moduli (GPa) = 29.37036 20.18434 85.05983
#
# Poissons Ratio (x) = 0.53183 0.68137
# Poissons Ratio (y) = 0.77387 -0.01500
# Poissons Ratio (z) = 0.23527 -0.00356
#
# Static dielectric constant tensor:
#      x y z
#    x 1.587360 0.000000 0.000000 
#    y 0.000000 1.584750 0.000000 
#    z 0.000000 0.000000 1.635910 
# 
# From -- ./inp_files/35230.got.cif
#   From: 2010.05.17/outbox.cif.g08.bks.cpg/sg67_18_cif.got.tgz:35230.got - 2010.06.03 18:28:57.
