data_PCOD9503792
_publ_section_title
;
Structure prediction by ZEFSAII (Michael W. Deem and Ramdas Pophale) SiO2 
 PCOD9503792
Probable space group: C M M A
;
_chemical_formula_sum "Si O2"
_cell_formula_units_Z 116
_cell_length_a 28.306024
_cell_length_b 24.939672
_cell_length_c 9.440895
_cell_angle_alpha 90.000000
_cell_angle_beta 90.000000
_cell_angle_gamma 90.000000
_cell_volume 6664.733306
_symmetry_space_group_name_H-M "C M M A"
_symmetry_group_IT_number 67
_symmetry_cell_setting 'orthorhombic'
loop_
_space_group_symop_operation_xyz
x,y,z
-x,1/2-y,z
x,-y,-z
-x,1/2+y,-z
-x,-y,-z
x,1/2+y,-z
-x,y,z
x,1/2-y,z
1/2+x,1/2+y,z
1/2-x,-y,z
1/2+x,1/2-y,-z
1/2-x,y,-z
1/2-x,1/2-y,-z
1/2+x,y,-z
1/2-x,1/2+y,z
1/2+x,-y,z
loop_
_atom_site_type_symbol
_atom_site_label
_atom_site_fract_x
_atom_site_fract_y
_atom_site_fract_z
Si Si1 0.800491 0.528129 0.228092
Si Si2 0.806952 0.600352 0.488069
Si Si3 0.354126 0.313099 0.298224
Si Si4 0.146501 0.577749 0.790691
Si Si5 0.698049 0.134871 0.039993
Si Si6 0.555110 0.560452 0.055878
Si Si7 0.051742 0.648586 0.179247
Si Si8 0.000000 0.250000 0.925485
O O1 0.750000 0.500000 0.248353
O O2 0.817720 0.552970 0.376190
O O3 0.834559 0.481838 0.173462
O O4 0.795425 0.578317 0.123363
O O5 0.750000 0.601636 0.500000
O O6 0.825171 0.654945 0.416855
O O7 0.833066 0.590313 0.635827
O O8 0.355912 0.250000 0.322983
O O9 0.406684 0.337829 0.286520
O O10 0.329331 0.326739 0.147904
O O11 0.168935 0.620043 0.900161
O O12 0.090712 0.575160 0.818244
O O13 0.750000 0.155175 0.000000
O O14 0.500000 0.567255 0.093773
O O15 0.561801 0.500000 0.000000
O O16 0.565340 0.600565 0.925125
O O17 0.040457 0.702288 0.089156
O O18 0.000000 0.635814 0.245434
#
# Coordination Sequence:
#
# PCOD9503792 Si02
#       8
#    16  16  16  16  16  16  16   4
#     4  11  20  34  57  81 115 151 189 235 281 338
#     4  11  24  39  54  81 117 161 199 232 283 353
#     4  11  22  40  60  79 110 153 198 243 297 349
#     4  12  21  34  57  86 121 150 191 236 290 343
#     4  11  21  33  54  88 113 141 190 248 288 338
#     4  10  21  36  57  89 128 156 179 230 308 370
#     4   9  17  35  61  89 109 140 197 248 293 340
#     4   8  16  32  66  88 106 142 200 262 286 328
#
# _framework density 17.405048000000001
#
# number of rings (size 3 to 8) (size 9 to 14) (size 15 to 20)
#    0.414    0.966    4.828    2.483    1.931    0.552 
#    0.000    1.379    1.517    1.655    0.000    0.000 
#    0.000    0.000    0.000    0.000    0.000    0.000 
#
# Total GULP energy -323000.834525 kJ/mol
# GULP energy per Si atom -5568.979906 kJ/mol
# Density = 1.736543 g / cm^3
# Si number density = 17.405048 Si / 1000 Ang^3
#
#
#
# Elastic Constant Matrix: (Units=GPa)
#
#
# Indices 1 2 3 4 5 6 
#
# 1 86.2977 0.2580 19.2647 0.0000 0.0000 0.0000
# 2 0.2580 68.4524 -0.3931 0.0000 0.0000 0.0000
# 3 19.2647 -0.3931 66.7572 0.0000 0.0000 0.0000
# 4 0.0000 0.0000 0.0000 13.4110 0.0000 0.0000
# 5 0.0000 0.0000 0.0000 0.0000 16.8780 0.0000
# 6 0.0000 0.0000 0.0000 0.0000 0.0000 21.4899
#
#
#
# Elastic Compliance Matrix: (Units=1/GPa)
#
#
# Indices 1 2 3 4 5 6 
#
# 1 0.012386 -0.000067 -0.003575 0.000000 0.000000 0.000000
# 2 -0.000067 0.014610 0.000105 0.000000 0.000000 0.000000
# 3 -0.003575 0.000105 0.016012 0.000000 0.000000 0.000000
# 4 0.000000 0.000000 0.000000 0.074566 0.000000 0.000000
# 5 0.000000 0.000000 0.000000 0.000000 0.059249 0.000000
# 6 0.000000 0.000000 0.000000 0.000000 0.000000 0.046533
#
#
# Mechanical properties :
#
#
# Convention : Reuss Voigt Hill
#
# Bulk Modulus (GPa) = 27.82850 28.86295 28.34573
# Shear Modulus (GPa) = 20.62652 23.84763 22.23708
#
# Velocity S-wave (km/s) = 3.44625 3.70558 3.57826
# Velocity P-wave (km/s) = 5.64437 5.90995 5.77869
#
# Compressibility (1/GPa) = 0.03593438
#
# Stress axis : x y z
#
# Youngs Moduli (GPa) = 80.73625 68.44835 62.45370
#
# Poissons Ratio (x) = 0.00460 0.22326
# Poissons Ratio (y) = 0.00543 -0.00658
# Poissons Ratio (z) = 0.28861 -0.00722
#
# Static dielectric constant tensor:
#      x y z
#    x 1.635270 0.000000 0.000000 
#    y 0.000000 1.576130 0.000000 
#    z 0.000000 0.000000 1.586120 
# 
# From -- ./inp_files/14867.got.cif
#   From: 2010.05.17/outbox.cif.g08.bks.cpg/sg67_8_cif.got.tgz:14867.got - 2010.06.03 18:28:57.
