data_PCOD9503201
_publ_section_title
;
Structure prediction by ZEFSAII (Michael W. Deem and Ramdas Pophale) SiO2 
 PCOD9503201
Probable space group: C M M A
;
_chemical_formula_sum "Si O2"
_cell_formula_units_Z 80
_cell_length_a 17.357170
_cell_length_b 9.764860
_cell_length_c 25.238819
_cell_angle_alpha 90.000000
_cell_angle_beta 90.000000
_cell_angle_gamma 90.000000
_cell_volume 4277.735888
_symmetry_space_group_name_H-M "C M M A"
_symmetry_group_IT_number 67
_symmetry_cell_setting 'orthorhombic'
loop_
_space_group_symop_operation_xyz
x,y,z
-x,1/2-y,z
x,-y,-z
-x,1/2+y,-z
-x,-y,-z
x,1/2+y,-z
-x,y,z
x,1/2-y,z
1/2+x,1/2+y,z
1/2-x,-y,z
1/2+x,1/2-y,-z
1/2-x,y,-z
1/2-x,1/2-y,-z
1/2+x,y,-z
1/2-x,1/2+y,z
1/2+x,-y,z
loop_
_atom_site_type_symbol
_atom_site_label
_atom_site_fract_x
_atom_site_fract_y
_atom_site_fract_z
Si Si1 0.592749 0.410727 0.949243
Si Si2 0.091475 0.250000 0.428153
Si Si3 0.842587 0.514645 0.375072
Si Si4 0.593398 0.750000 0.550846
Si Si5 0.326576 0.590825 0.739047
Si Si6 0.169117 0.915544 0.142823
O O1 0.500000 0.405144 0.951336
O O2 0.619577 0.250000 0.948570
O O3 0.617915 0.501373 0.898946
O O4 0.619960 0.500000 0.000000
O O5 0.121646 0.123140 0.395674
O O6 0.117625 0.250000 0.489416
O O7 0.000000 0.250000 0.430199
O O8 0.750000 0.500000 0.374856
O O9 0.871587 0.623789 0.417413
O O10 0.868693 0.551690 0.315316
O O11 0.500000 0.750000 0.553385
O O12 0.304623 0.750000 0.734204
O O13 0.250000 0.500000 0.740390
O O14 0.363584 0.573823 0.797030
O O15 0.177632 0.750000 0.131721
O O16 0.250000 0.000000 0.141883
#
# Coordination Sequence:
#
# PCOD9503201 Si02
#       6
#    16   8  16   8  16  16
#     4  10  21  38  59  84 117 157 198 242 293 342
#     4  11  25  41  57  83 119 157 188 235 304 361
#     4  11  22  38  62  89 113 147 199 247 290 347
#     4  11  23  41  61  81 117 157 190 235 300 363
#     4   9  19  35  58  86 115 149 187 236 293 340
#     4  10  20  36  59  87 117 151 193 237 289 349
#
# _framework density 18.701481999999999
#
# number of rings (size 3 to 8) (size 9 to 14) (size 15 to 20)
#    0.000    1.800    1.000    3.000    4.200    6.400 
#    0.000    4.000    0.000    0.000    0.000    0.000 
#    0.000    0.000    0.000    0.000    0.000    0.000 
#
# Total GULP energy -222904.987428 kJ/mol
# GULP energy per Si atom -5572.624686 kJ/mol
# Density = 1.865892 g / cm^3
# Si number density = 18.701482 Si / 1000 Ang^3
#
#
#
# Elastic Constant Matrix: (Units=GPa)
#
#
# Indices 1 2 3 4 5 6 
#
# 1 23.6324 21.9756 27.5271 0.0000 0.0000 0.0000
# 2 21.9756 197.0255 99.2501 0.0000 0.0000 0.0000
# 3 27.5271 99.2501 177.4976 0.0000 0.0000 0.0000
# 4 0.0000 0.0000 0.0000 35.5698 0.0000 0.0000
# 5 0.0000 0.0000 0.0000 0.0000 44.7788 0.0000
# 6 0.0000 0.0000 0.0000 0.0000 0.0000 14.4000
#
#
#
# Elastic Compliance Matrix: (Units=1/GPa)
#
#
# Indices 1 2 3 4 5 6 
#
# 1 0.052474 -0.002441 -0.006773 0.000000 0.000000 0.000000
# 2 -0.002441 0.007179 -0.003636 0.000000 0.000000 0.000000
# 3 -0.006773 -0.003636 0.008717 0.000000 0.000000 0.000000
# 4 0.000000 0.000000 0.000000 0.028114 0.000000 0.000000
# 5 0.000000 0.000000 0.000000 0.000000 0.022332 0.000000
# 6 0.000000 0.000000 0.000000 0.000000 0.000000 0.069444
#
#
# Mechanical properties :
#
#
# Convention : Reuss Voigt Hill
#
# Bulk Modulus (GPa) = 23.43516 77.29567 50.36541
# Shear Modulus (GPa) = 21.91217 35.57657 28.74437
#
# Velocity S-wave (km/s) = 3.42670 4.36631 3.92473
# Velocity P-wave (km/s) = 5.31175 8.17561 6.89403
#
# Compressibility (1/GPa) = 0.04267093
#
# Stress axis : x y z
#
# Youngs Moduli (GPa) = 19.05709 139.29009 114.71459
#
# Poissons Ratio (x) = 0.34000 0.77696
# Poissons Ratio (y) = 0.04652 0.41708
# Poissons Ratio (z) = 0.12907 0.50644
#
# Static dielectric constant tensor:
#      x y z
#    x 1.631430 0.000000 0.000000 
#    y 0.000000 1.599390 0.000000 
#    z 0.000000 0.000000 1.673950 
# 
# From -- ./inp_files/44451.got.cif
#   From: 2010.05.17/outbox.cif.g08.bks.cpg/sg67_23_cif.got.tgz:44451.got - 2010.06.03 18:28:57.
