data_PCOD9503787
_publ_section_title
;
Structure prediction by ZEFSAII (Michael W. Deem and Ramdas Pophale) SiO2 
 PCOD9503787
Probable space group: C M M A
;
_chemical_formula_sum "Si O2"
_cell_formula_units_Z 96
_cell_length_a 15.392685
_cell_length_b 20.141899
_cell_length_c 16.755894
_cell_angle_alpha 90.000000
_cell_angle_beta 90.000000
_cell_angle_gamma 90.000000
_cell_volume 5194.962299
_symmetry_space_group_name_H-M "C M M A"
_symmetry_group_IT_number 67
_symmetry_cell_setting 'orthorhombic'
loop_
_space_group_symop_operation_xyz
x,y,z
-x,1/2-y,z
x,-y,-z
-x,1/2+y,-z
-x,-y,-z
x,1/2+y,-z
-x,y,z
x,1/2-y,z
1/2+x,1/2+y,z
1/2-x,-y,z
1/2+x,1/2-y,-z
1/2-x,y,-z
1/2-x,1/2-y,-z
1/2+x,y,-z
1/2-x,1/2+y,z
1/2+x,-y,z
loop_
_atom_site_type_symbol
_atom_site_label
_atom_site_fract_x
_atom_site_fract_y
_atom_site_fract_z
Si Si1 0.163342 0.462963 0.754418
Si Si2 0.604231 0.032163 0.918451
Si Si3 0.500000 0.529128 0.635536
Si Si4 0.000000 0.102182 0.472930
Si Si5 0.248244 0.674330 0.259624
Si Si6 0.601250 0.823141 0.130398
Si Si7 0.681007 0.170886 0.563725
O O1 0.250000 0.500000 0.723265
O O2 0.141512 0.498908 0.838376
O O3 0.084167 0.469205 0.692612
O O4 0.185378 0.385182 0.766344
O O5 0.500000 0.022460 0.914690
O O6 0.620112 0.111241 0.920125
O O7 0.637144 0.000000 0.000000
O O8 0.500000 0.586146 0.567659
O O9 0.500000 0.463365 0.581649
O O10 0.912846 0.140586 0.450207
O O11 0.212385 0.750000 0.256625
O O12 0.333617 0.673592 0.204386
O O13 0.280317 0.659565 0.348819
O O14 0.500000 0.827639 0.155770
O O15 0.612404 0.750000 0.092105
O O16 0.673694 0.250000 0.553049
O O17 0.750000 0.143989 0.500000
#
# Coordination Sequence:
#
# PCOD9503787 Si02
#       7
#    16  16   8   8  16  16  16
#     4  12  22  40  63  85 117 164 198 250 303 366
#     4  10  21  38  62  92 122 155 202 253 300 371
#     4  11  26  40  57  86 118 155 208 243 304 361
#     4  11  23  38  58  86 119 154 197 255 295 367
#     4  10  21  36  57  87 119 153 202 248 297 359
#     4   9  18  34  58  89 119 150 189 244 304 350
#     4  10  21  37  58  85 117 154 198 250 303 362
#
# _framework density 18.479441000000001
#
# number of rings (size 3 to 8) (size 9 to 14) (size 15 to 20)
#    0.000    1.667    2.500    2.250    1.167    0.333 
#    0.000    3.750    0.000    3.000    0.000    0.000 
#    0.000    0.000    0.000    0.000    0.000    0.000 
#
# Total GULP energy -267839.849877 kJ/mol
# GULP energy per Si atom -5579.996872 kJ/mol
# Density = 1.843738 g / cm^3
# Si number density = 18.479441 Si / 1000 Ang^3
#
#
#
# Elastic Constant Matrix: (Units=GPa)
#
#
# Indices 1 2 3 4 5 6 
#
# 1 71.8583 49.4613 24.9871 0.0000 0.0000 0.0000
# 2 49.4613 127.7805 60.0579 0.0000 0.0000 0.0000
# 3 24.9871 60.0579 76.1053 0.0000 0.0000 0.0000
# 4 0.0000 0.0000 0.0000 26.1018 0.0000 0.0000
# 5 0.0000 0.0000 0.0000 0.0000 6.1465 0.0000
# 6 0.0000 0.0000 0.0000 0.0000 0.0000 37.2515
#
#
#
# Elastic Compliance Matrix: (Units=1/GPa)
#
#
# Indices 1 2 3 4 5 6 
#
# 1 0.018994 -0.007028 -0.000690 0.000000 0.000000 0.000000
# 2 -0.007028 0.015040 -0.009561 0.000000 0.000000 0.000000
# 3 -0.000690 -0.009561 0.020912 0.000000 0.000000 0.000000
# 4 0.000000 0.000000 0.000000 0.038312 0.000000 0.000000
# 5 0.000000 0.000000 0.000000 0.000000 0.162695 0.000000
# 6 0.000000 0.000000 0.000000 0.000000 0.000000 0.026845
#
#
# Mechanical properties :
#
#
# Convention : Reuss Voigt Hill
#
# Bulk Modulus (GPa) = 49.05159 60.52853 54.79006
# Shear Modulus (GPa) = 15.42492 23.31581 19.37037
#
# Velocity S-wave (km/s) = 2.89226 3.55592 3.24112
# Velocity P-wave (km/s) = 6.14452 7.04876 6.61211
#
# Compressibility (1/GPa) = 0.02038670
#
# Stress axis : x y z
#
# Youngs Moduli (GPa) = 52.64958 66.48876 47.82016
#
# Poissons Ratio (x) = 0.46726 0.03301
# Poissons Ratio (y) = 0.37000 0.45723
# Poissons Ratio (z) = 0.03634 0.63573
#
# Static dielectric constant tensor:
#      x y z
#    x 1.621290 0.000000 0.000000 
#    y 0.000000 1.670060 0.000000 
#    z 0.000000 0.000000 1.612530 
# 
# From -- ./inp_files/27253.got.cif
#   From: 2010.05.17/outbox.cif.g08.bks.cpg/sg67_14_cif.got.tgz:27253.got - 2010.06.03 18:28:57.
