data_PCOD9503918
_publ_section_title
;
Structure prediction by ZEFSAII (Michael W. Deem and Ramdas Pophale) SiO2 
 PCOD9503918
Probable space group: C M M A
;
_chemical_formula_sum "Si O2"
_cell_formula_units_Z 68
_cell_length_a 23.845913
_cell_length_b 17.016857
_cell_length_c 8.493903
_cell_angle_alpha 90.000000
_cell_angle_beta 90.000000
_cell_angle_gamma 90.000000
_cell_volume 3446.677122
_symmetry_space_group_name_H-M "C M M A"
_symmetry_group_IT_number 67
_symmetry_cell_setting 'orthorhombic'
loop_
_space_group_symop_operation_xyz
x,y,z
-x,1/2-y,z
x,-y,-z
-x,1/2+y,-z
-x,-y,-z
x,1/2+y,-z
-x,y,z
x,1/2-y,z
1/2+x,1/2+y,z
1/2-x,-y,z
1/2+x,1/2-y,-z
1/2-x,y,-z
1/2-x,1/2-y,-z
1/2+x,y,-z
1/2-x,1/2+y,z
1/2+x,-y,z
loop_
_atom_site_type_symbol
_atom_site_label
_atom_site_fract_x
_atom_site_fract_y
_atom_site_fract_z
Si Si1 0.151243 0.093768 0.159561
Si Si2 0.096845 0.953976 0.351109
Si Si3 0.250000 0.500000 0.000000
Si Si4 0.316433 0.160964 0.514962
Si Si5 0.561536 0.342467 0.086782
O O1 0.164953 0.151619 0.303573
O O2 0.117209 0.020979 0.232489
O O3 0.208951 0.056694 0.097333
O O4 0.112773 0.131200 0.024330
O O5 0.149616 0.904862 0.419706
O O6 0.063319 0.891744 0.247811
O O7 0.070605 0.000000 0.500000
O O8 0.328581 0.250000 0.460126
O O9 0.250000 0.147685 0.500000
O O10 0.500000 0.356272 0.010928
O O11 0.566579 0.250000 0.118621
#
# Coordination Sequence:
#
# PCOD9503918 Si02
#       5
#    16  16   4  16  16
#     4  11  22  38  62  94 124 164 210 250 311 376
#     4  10  21  39  62  87 118 160 206 260 309 374
#     4  12  20  36  62  92 124 160 196 258 308 368
#     4  10  21  37  58  89 127 166 206 256 313 376
#     4  11  24  43  64  89 125 166 210 264 315 367
#
# _framework density 19.729147999999999
#
# number of rings (size 3 to 8) (size 9 to 14) (size 15 to 20)
#    0.000    1.412    2.353    2.824    0.000    5.647 
#    0.000    4.706    0.000   12.706    0.000    0.000 
#    0.000    0.000    0.000    0.000    0.000    0.000 
#
# Total GULP energy -189820.614499 kJ/mol
# GULP energy per Si atom -5582.959250 kJ/mol
# Density = 1.968424 g / cm^3
# Si number density = 19.729148 Si / 1000 Ang^3
#
#
#
# Elastic Constant Matrix: (Units=GPa)
#
#
# Indices 1 2 3 4 5 6 
#
# 1 95.6288 41.2851 38.1650 0.0000 0.0000 0.0000
# 2 41.2851 113.8482 42.1914 0.0000 0.0000 0.0000
# 3 38.1650 42.1914 80.7103 0.0000 0.0000 0.0000
# 4 0.0000 0.0000 0.0000 23.2124 0.0000 0.0000
# 5 0.0000 0.0000 0.0000 0.0000 -1.8810 0.0000
# 6 0.0000 0.0000 0.0000 0.0000 0.0000 -519.0348
#
#
#
# Elastic Compliance Matrix: (Units=1/GPa)
#
#
# Indices 1 2 3 4 5 6 
#
# 1 0.013770 -0.003200 -0.004838 0.000000 0.000000 0.000000
# 2 -0.003200 0.011638 -0.004570 0.000000 0.000000 0.000000
# 3 -0.004838 -0.004570 0.017067 0.000000 0.000000 0.000000
# 4 0.000000 0.000000 0.000000 0.043080 0.000000 0.000000
# 5 0.000000 0.000000 0.000000 0.000000 -0.531620 0.000000
# 6 0.000000 0.000000 0.000000 0.000000 0.000000 -0.001927
#
#
# Mechanical properties :
#
#
# Convention : Reuss Voigt Hill
#
# Bulk Modulus (GPa) = 57.94855 59.27448 58.61151
# Shear Modulus (GPa) = -11.98978 -88.30429 -50.14703
#
# Velocity S-wave (km/s) = -2.46787 -6.69742 -5.04707
# Velocity P-wave (km/s) = 4.61685 5.44958 2.04727
#
# Compressibility (1/GPa) = 0.01725669
#
# Stress axis : x y z
#
# Youngs Moduli (GPa) = 72.62349 85.92592 58.59260
#
# Poissons Ratio (x) = 0.27499 0.28348
# Poissons Ratio (y) = 0.23242 0.26779
# Poissons Ratio (z) = 0.35137 0.39272
#
# Static dielectric constant tensor:
#      x y z
#    x 1.690430 0.000000 0.000000 
#    y 0.000000 1.674610 0.000000 
#    z 0.000000 0.000000 1.697270 
# 
# From -- ./inp_files/9493.got.cif
#   From: 2010.05.17/outbox.cif.g08.bks.cpg/sg67_5_cif.got.tgz:9493.got - 2010.06.03 18:28:57.
