data_PCOD9503992
_publ_section_title
;
Structure prediction by ZEFSAII (Michael W. Deem and Ramdas Pophale) SiO2 
 PCOD9503992
Probable space group: C M M A
;
_chemical_formula_sum "Si O2"
_cell_formula_units_Z 112
_cell_length_a 22.466382
_cell_length_b 14.096135
_cell_length_c 17.018368
_cell_angle_alpha 90.000000
_cell_angle_beta 90.000000
_cell_angle_gamma 90.000000
_cell_volume 5389.532558
_symmetry_space_group_name_H-M "C M M A"
_symmetry_group_IT_number 67
_symmetry_cell_setting 'orthorhombic'
loop_
_space_group_symop_operation_xyz
x,y,z
-x,1/2-y,z
x,-y,-z
-x,1/2+y,-z
-x,-y,-z
x,1/2+y,-z
-x,y,z
x,1/2-y,z
1/2+x,1/2+y,z
1/2-x,-y,z
1/2+x,1/2-y,-z
1/2-x,y,-z
1/2-x,1/2-y,-z
1/2+x,y,-z
1/2-x,1/2+y,z
1/2+x,-y,z
loop_
_atom_site_type_symbol
_atom_site_label
_atom_site_fract_x
_atom_site_fract_y
_atom_site_fract_z
Si Si1 0.429367 0.861220 0.666402
Si Si2 0.331417 0.863832 0.210184
Si Si3 0.161842 0.634385 0.460322
Si Si4 0.070013 0.988647 0.186522
Si Si5 0.285475 0.865680 0.379769
Si Si6 0.191734 0.603146 0.960856
Si Si7 0.568164 0.356744 0.036297
O O1 0.500000 0.870501 0.657110
O O2 0.415669 0.750000 0.678504
O O3 0.395538 0.894375 0.588529
O O4 0.410844 0.918585 0.743357
O O5 0.336126 0.750000 0.210311
O O6 0.302635 0.895787 0.292479
O O7 0.296796 0.895013 0.131949
O O8 0.394195 0.915474 0.198554
O O9 0.161954 0.750000 0.463646
O O10 0.220058 0.606871 0.409911
O O11 0.170250 0.602818 0.550208
O O12 0.079358 0.934685 0.103783
O O13 0.000000 0.005078 0.193175
O O14 0.286222 0.750000 0.378416
O O15 0.189268 0.500000 0.000000
O O16 0.250000 0.649411 0.000000
O O17 0.125097 0.641975 0.978649
O O18 0.500000 0.372874 0.004361
O O19 0.566866 0.250000 0.071103
#
# Coordination Sequence:
#
# PCOD9503992 Si02
#       7
#    16  16  16  16  16  16  16
#     4   9  17  31  55  86 117 152 193 238 292 346
#     4  11  23  40  61  85 115 157 200 243 296 358
#     4   8  14  30  56  84 115 152 194 241 287 339
#     4  10  21  38  58  85 121 155 194 250 299 350
#     4   8  16  32  55  83 115 152 195 239 287 342
#     4  11  24  43  64  91 125 159 198 245 306 368
#     4  10  21  39  65  91 116 155 204 252 305 361
#
# _framework density 20.781023000000001
#
# number of rings (size 3 to 8) (size 9 to 14) (size 15 to 20)
#    0.000    2.429    1.429    1.714    0.000    5.143 
#    0.000    2.857    0.000    6.000    0.000    0.000 
#    0.000    0.000    0.000    0.000    0.000    0.000 
#
# Total GULP energy -312487.698033 kJ/mol
# GULP energy per Si atom -5580.137465 kJ/mol
# Density = 2.073372 g / cm^3
# Si number density = 20.781023 Si / 1000 Ang^3
#
#
#
# Elastic Constant Matrix: (Units=GPa)
#
#
# Indices 1 2 3 4 5 6 
#
# 1 66.4076 20.9113 56.6516 0.0000 0.0000 0.0000
# 2 20.9113 77.3046 26.3752 0.0000 0.0000 0.0000
# 3 56.6516 26.3752 171.3068 0.0000 0.0000 0.0000
# 4 0.0000 0.0000 0.0000 -1.3236 0.0000 0.0000
# 5 0.0000 0.0000 0.0000 0.0000 29.8499 0.0000
# 6 0.0000 0.0000 0.0000 0.0000 0.0000 -8.7683
#
#
#
# Elastic Compliance Matrix: (Units=1/GPa)
#
#
# Indices 1 2 3 4 5 6 
#
# 1 0.021909 -0.003646 -0.006684 0.000000 0.000000 0.000000
# 2 -0.003646 0.014260 -0.000990 0.000000 0.000000 0.000000
# 3 -0.006684 -0.000990 0.008200 0.000000 0.000000 0.000000
# 4 0.000000 0.000000 0.000000 -0.755500 0.000000 0.000000
# 5 0.000000 0.000000 0.000000 0.000000 0.033501 0.000000
# 6 0.000000 0.000000 0.000000 0.000000 0.000000 -0.114047
#
#
# Mechanical properties :
#
#
# Convention : Reuss Voigt Hill
#
# Bulk Modulus (GPa) = 46.02063 58.09948 52.06006
# Shear Modulus (GPa) = -6.56344 18.02366 5.73011
#
# Velocity S-wave (km/s) = -1.77911 2.94821 1.66234
# Velocity P-wave (km/s) = 4.23949 6.29348 5.36569
#
# Compressibility (1/GPa) = 0.02172938
#
# Stress axis : x y z
#
# Youngs Moduli (GPa) = 45.64428 70.12731 121.94758
#
# Poissons Ratio (x) = 0.25568 0.81508
# Poissons Ratio (y) = 0.16642 0.12070
# Poissons Ratio (z) = 0.30508 0.06941
#
# Static dielectric constant tensor:
#      x y z
#    x 1.737220 0.000000 0.000000 
#    y 0.000000 1.806660 0.000000 
#    z 0.000000 0.000000 1.741610 
# 
# From -- ./inp_files/30188.got.cif
#   From: 2010.05.17/outbox.cif.g08.bks.cpg/sg67_16_cif.got.tgz:30188.got - 2010.06.03 18:28:57.
