data_PCOD9503090
_publ_section_title
;
Structure prediction by ZEFSAII (Michael W. Deem and Ramdas Pophale) SiO2 
 PCOD9503090
Probable space group: C M M A
;
_chemical_formula_sum "Si O2"
_cell_formula_units_Z 80
_cell_length_a 23.919194
_cell_length_b 11.349637
_cell_length_c 14.648628
_cell_angle_alpha 90.000000
_cell_angle_beta 90.000000
_cell_angle_gamma 90.000000
_cell_volume 3976.724117
_symmetry_space_group_name_H-M "C M M A"
_symmetry_group_IT_number 67
_symmetry_cell_setting 'orthorhombic'
loop_
_space_group_symop_operation_xyz
x,y,z
-x,1/2-y,z
x,-y,-z
-x,1/2+y,-z
-x,-y,-z
x,1/2+y,-z
-x,y,z
x,1/2-y,z
1/2+x,1/2+y,z
1/2-x,-y,z
1/2+x,1/2-y,-z
1/2-x,y,-z
1/2-x,1/2-y,-z
1/2+x,y,-z
1/2-x,1/2+y,z
1/2+x,-y,z
loop_
_atom_site_type_symbol
_atom_site_label
_atom_site_fract_x
_atom_site_fract_y
_atom_site_fract_z
Si Si1 0.267063 0.120124 0.228349
Si Si2 0.316971 0.122592 0.943569
Si Si3 0.939793 0.066125 0.096985
Si Si4 0.101582 0.880966 0.233503
Si Si5 0.932445 0.883937 0.441917
O O1 0.259356 0.250000 0.271858
O O2 0.227836 0.119825 0.138368
O O3 0.332974 0.109224 0.207763
O O4 0.250000 0.000000 0.280080
O O5 0.310185 0.250000 0.993676
O O6 0.379726 0.127338 0.904186
O O7 0.312518 0.000000 0.000000
O O8 0.934016 0.973761 0.178550
O O9 0.000000 0.126381 0.105683
O O10 0.940792 0.000000 0.000000
O O11 0.082702 0.750000 0.208028
O O12 0.094257 0.894213 0.341658
O O13 0.918871 0.750000 0.477004
O O14 0.000000 0.887282 0.432505
O O15 0.916387 0.000000 0.500000
#
# Coordination Sequence:
#
# PCOD9503090 Si02
#       5
#    16  16  16  16  16
#     4  10  20  36  56  81 110 145 190 242 292 342
#     4  10  22  38  56  79 109 148 200 253 302 351
#     4  10  21  35  53  80 117 155 195 242 291 341
#     4  10  20  36  61  88 118 157 201 243 292 355
#     4   9  18  35  61  93 124 154 193 242 295 353
#
# _framework density 20.117061
#
# number of rings (size 3 to 8) (size 9 to 14) (size 15 to 20)
#    0.000    2.200    2.000    0.600    0.000    6.800 
#    0.000    8.000    0.000    3.000    0.000    4.200 
#    0.000    0.000    0.000    0.000    0.000    0.000 
#
# Total GULP energy -222850.205417 kJ/mol
# GULP energy per Si atom -5571.255135 kJ/mol
# Density = 2.007127 g / cm^3
# Si number density = 20.117061 Si / 1000 Ang^3
#
#
#
# Elastic Constant Matrix: (Units=GPa)
#
#
# Indices 1 2 3 4 5 6 
#
# 1 132.9937 37.6203 26.5415 0.0000 0.0000 0.0000
# 2 37.6203 191.2590 47.2432 0.0000 0.0000 0.0000
# 3 26.5415 47.2432 46.5597 0.0000 0.0000 0.0000
# 4 0.0000 0.0000 0.0000 19.0043 0.0000 0.0000
# 5 0.0000 0.0000 0.0000 0.0000 13.7816 0.0000
# 6 0.0000 0.0000 0.0000 0.0000 0.0000 10.3231
#
#
#
# Elastic Compliance Matrix: (Units=1/GPa)
#
#
# Indices 1 2 3 4 5 6 
#
# 1 0.008542 -0.000637 -0.004223 0.000000 0.000000 0.000000
# 2 -0.000637 0.007025 -0.006765 0.000000 0.000000 0.000000
# 3 -0.004223 -0.006765 0.030749 0.000000 0.000000 0.000000
# 4 0.000000 0.000000 0.000000 0.052620 0.000000 0.000000
# 5 0.000000 0.000000 0.000000 0.000000 0.072560 0.000000
# 6 0.000000 0.000000 0.000000 0.000000 0.000000 0.096870
#
#
# Mechanical properties :
#
#
# Convention : Reuss Voigt Hill
#
# Bulk Modulus (GPa) = 43.35307 65.95804 54.65555
# Shear Modulus (GPa) = 16.70536 25.91563 21.31050
#
# Velocity S-wave (km/s) = 2.88481 3.59310 3.25826
# Velocity P-wave (km/s) = 5.71781 7.07617 6.43294
#
# Compressibility (1/GPa) = 0.02306642
#
# Stress axis : x y z
#
# Youngs Moduli (GPa) = 117.06645 142.35293 32.52116
#
# Poissons Ratio (x) = 0.09069 0.13734
# Poissons Ratio (y) = 0.07458 0.22000
# Poissons Ratio (z) = 0.49438 0.96298
#
# Static dielectric constant tensor:
#      x y z
#    x 1.732550 0.000000 0.000000 
#    y 0.000000 1.822960 0.000000 
#    z 0.000000 0.000000 1.691020 
# 
# From -- ./inp_files/26091.got.cif
#   From: 2010.05.17/outbox.cif.g08.bks.cpg/sg67_14_cif.got.tgz:26091.got - 2010.06.03 18:28:57.
