data_PCOD9503659
_publ_section_title
;
Structure prediction by ZEFSAII (Michael W. Deem and Ramdas Pophale) SiO2 
 PCOD9503659
Probable space group: C M M A
;
_chemical_formula_sum "Si O2"
_cell_formula_units_Z 88
_cell_length_a 16.612088
_cell_length_b 19.691267
_cell_length_c 13.861582
_cell_angle_alpha 90.000000
_cell_angle_beta 90.000000
_cell_angle_gamma 90.000000
_cell_volume 4534.304508
_symmetry_space_group_name_H-M "C M M A"
_symmetry_group_IT_number 67
_symmetry_cell_setting 'orthorhombic'
loop_
_space_group_symop_operation_xyz
x,y,z
-x,1/2-y,z
x,-y,-z
-x,1/2+y,-z
-x,-y,-z
x,1/2+y,-z
-x,y,z
x,1/2-y,z
1/2+x,1/2+y,z
1/2-x,-y,z
1/2+x,1/2-y,-z
1/2-x,y,-z
1/2-x,1/2-y,-z
1/2+x,y,-z
1/2-x,1/2+y,z
1/2+x,-y,z
loop_
_atom_site_type_symbol
_atom_site_label
_atom_site_fract_x
_atom_site_fract_y
_atom_site_fract_z
Si Si1 0.590865 0.087203 0.901451
Si Si2 0.402632 0.542311 0.406576
Si Si3 0.250000 0.638642 0.000000
Si Si4 0.635167 0.170925 0.707792
Si Si5 0.906486 0.457499 0.776540
Si Si6 0.692297 0.321814 0.203956
O O1 0.500000 0.097686 0.941645
O O2 0.667477 0.100753 0.968930
O O3 0.598271 0.135063 0.804736
O O4 0.597915 0.009989 0.864718
O O5 0.374710 0.500000 0.500000
O O6 0.500000 0.541152 0.407925
O O7 0.381310 0.620565 0.382082
O O8 0.373541 0.499413 0.314454
O O9 0.227014 0.678668 0.095750
O O10 0.608696 0.250000 0.698036
O O11 0.730609 0.172020 0.727139
O O12 0.860769 0.388075 0.788816
O O13 0.000000 0.443289 0.758884
O O14 0.650244 0.250000 0.223138
#
# Coordination Sequence:
#
# PCOD9503659 Si02
#       6
#    16  16   8  16  16  16
#     4   9  19  34  53  80 110 140 181 228 270 323
#     4   9  18  34  56  81 107 134 170 217 263 315
#     4  10  21  35  54  78 105 141 180 226 279 317
#     4   9  18  33  54  80 109 141 177 217 267 323
#     4   9  19  36  55  76 104 140 180 218 265 324
#     4  10  21  36  52  73 105 142 180 222 266 317
#
# _framework density 19.407606999999999
#
# number of rings (size 3 to 8) (size 9 to 14) (size 15 to 20)
#    0.000    2.727    0.000    1.909    0.000   11.273 
#    0.000    4.545    0.000    5.455    0.000    0.000 
#    0.000    0.000    0.000    0.000    0.000    0.000 
#
# Total GULP energy -245144.136667 kJ/mol
# GULP energy per Si atom -5571.457652 kJ/mol
# Density = 1.936343 g / cm^3
# Si number density = 19.407607 Si / 1000 Ang^3
#
#
#
# Elastic Constant Matrix: (Units=GPa)
#
#
# Indices 1 2 3 4 5 6 
#
# 1 85.8531 61.1858 26.1766 0.0000 0.0000 0.0000
# 2 61.1858 179.9088 35.0455 0.0000 0.0000 0.0000
# 3 26.1766 35.0455 61.8633 0.0000 0.0000 0.0000
# 4 0.0000 0.0000 0.0000 -7.7302 0.0000 0.0000
# 5 0.0000 0.0000 0.0000 0.0000 20.8201 0.0000
# 6 0.0000 0.0000 0.0000 0.0000 0.0000 23.2643
#
#
#
# Elastic Compliance Matrix: (Units=1/GPa)
#
#
# Indices 1 2 3 4 5 6 
#
# 1 0.016300 -0.004721 -0.004223 0.000000 0.000000 0.000000
# 2 -0.004721 0.007615 -0.002316 0.000000 0.000000 0.000000
# 3 -0.004223 -0.002316 0.019264 0.000000 0.000000 0.000000
# 4 0.000000 0.000000 0.000000 -0.129362 0.000000 0.000000
# 5 0.000000 0.000000 0.000000 0.000000 0.048031 0.000000
# 6 0.000000 0.000000 0.000000 0.000000 0.000000 0.042984
#
#
# Mechanical properties :
#
#
# Convention : Reuss Voigt Hill
#
# Bulk Modulus (GPa) = 48.40568 63.60454 56.00511
# Shear Modulus (GPa) = 146.03875 20.95197 83.49536
#
# Velocity S-wave (km/s) = 8.68398 3.28925 6.56623
# Velocity P-wave (km/s) = 11.20466 6.87530 9.29554
#
# Compressibility (1/GPa) = 0.02065873
#
# Stress axis : x y z
#
# Youngs Moduli (GPa) = 61.35057 131.31737 51.91120
#
# Poissons Ratio (x) = 0.61994 0.21920
# Poissons Ratio (y) = 0.28963 0.12025
# Poissons Ratio (z) = 0.25906 0.30418
#
# Static dielectric constant tensor:
#      x y z
#    x 1.687820 0.000000 0.000000 
#    y 0.000000 1.697530 0.000000 
#    z 0.000000 0.000000 1.710850 
# 
# From -- ./inp_files/28503.got.cif
#   From: 2010.05.17/outbox.cif.g08.bks.cpg/sg67_15_cif.got.tgz:28503.got - 2010.06.03 18:28:57.
