data_PCOD9503605
_publ_section_title
;
Structure prediction by ZEFSAII (Michael W. Deem and Ramdas Pophale) SiO2 
 PCOD9503605
Probable space group: C M M A
;
_chemical_formula_sum "Si O2"
_cell_formula_units_Z 112
_cell_length_a 23.359157
_cell_length_b 13.901026
_cell_length_c 15.415941
_cell_angle_alpha 90.000000
_cell_angle_beta 90.000000
_cell_angle_gamma 90.000000
_cell_volume 5005.806533
_symmetry_space_group_name_H-M "C M M A"
_symmetry_group_IT_number 67
_symmetry_cell_setting 'orthorhombic'
loop_
_space_group_symop_operation_xyz
x,y,z
-x,1/2-y,z
x,-y,-z
-x,1/2+y,-z
-x,-y,-z
x,1/2+y,-z
-x,y,z
x,1/2-y,z
1/2+x,1/2+y,z
1/2-x,-y,z
1/2+x,1/2-y,-z
1/2-x,y,-z
1/2-x,1/2-y,-z
1/2+x,y,-z
1/2-x,1/2+y,z
1/2+x,-y,z
loop_
_atom_site_type_symbol
_atom_site_label
_atom_site_fract_x
_atom_site_fract_y
_atom_site_fract_z
Si Si1 0.652973 0.634851 0.657582
Si Si2 0.787214 0.642173 0.869737
Si Si3 0.841286 0.641275 0.061834
Si Si4 0.226821 0.633939 0.595063
Si Si5 0.561623 0.366372 0.482587
Si Si6 0.897972 0.134465 0.331688
Si Si7 0.874982 0.501090 0.191811
O O1 0.650670 0.750000 0.660711
O O2 0.719471 0.608150 0.654333
O O3 0.616385 0.603261 0.573497
O O4 0.626150 0.588398 0.741431
O O5 0.796569 0.750000 0.833210
O O6 0.720126 0.632830 0.888820
O O7 0.815889 0.558791 0.815658
O O8 0.821372 0.635941 0.961724
O O9 0.863381 0.750000 0.076571
O O10 0.880704 0.556290 0.099705
O O11 0.222172 0.750000 0.589601
O O12 0.250000 0.604273 0.500000
O O13 0.165785 0.605013 0.633331
O O14 0.500000 0.396504 0.446205
O O15 0.563506 0.250000 0.480583
O O16 0.565285 0.391451 0.583706
O O17 0.900092 0.250000 0.319041
O O18 0.912754 0.078574 0.242934
#
# Coordination Sequence:
#
# PCOD9503605 Si02
#       7
#    16  16  16  16  16  16  16
#     4  10  21  34  49  75 105 138 181 225 268 312
#     4   9  19  35  51  69 100 143 185 219 254 308
#     4   9  19  35  51  69 100 143 185 219 254 308
#     4   9  16  31  49  63  98 141 170 213 263 308
#     4   9  18  38  62  75  97 144 192 230 270 315
#     4  10  21  34  49  75 105 138 181 225 268 312
#     4  12  22  30  47  76 104 137 174 225 262 314
#
# _framework density 22.374016999999998
#
# number of rings (size 3 to 8) (size 9 to 14) (size 15 to 20)
#    0.000    2.286    1.429    2.571    4.000    1.714 
#    0.000    2.143    0.000    0.000    0.000    0.000 
#    0.000    9.143    0.000   42.286    0.000    0.000 
#
# Total GULP energy -312458.369422 kJ/mol
# GULP energy per Si atom -5579.613740 kJ/mol
# Density = 2.232309 g / cm^3
# Si number density = 22.374017 Si / 1000 Ang^3
#
#
#
# Elastic Constant Matrix: (Units=GPa)
#
#
# Indices 1 2 3 4 5 6 
#
# 1 56.5824 13.9193 7.0946 0.0000 0.0000 0.0000
# 2 13.9193 104.6447 28.4645 0.0000 0.0000 0.0000
# 3 7.0946 28.4645 67.2640 0.0000 0.0000 0.0000
# 4 0.0000 0.0000 0.0000 87.5841 0.0000 0.0000
# 5 0.0000 0.0000 0.0000 0.0000 6.2986 0.0000
# 6 0.0000 0.0000 0.0000 0.0000 0.0000 7.6668
#
#
#
# Elastic Compliance Matrix: (Units=1/GPa)
#
#
# Indices 1 2 3 4 5 6 
#
# 1 0.018333 -0.002161 -0.001019 0.000000 0.000000 0.000000
# 2 -0.002161 0.011054 -0.004450 0.000000 0.000000 0.000000
# 3 -0.001019 -0.004450 0.016857 0.000000 0.000000 0.000000
# 4 0.000000 0.000000 0.000000 0.011418 0.000000 0.000000
# 5 0.000000 0.000000 0.000000 0.000000 0.158767 0.000000
# 6 0.000000 0.000000 0.000000 0.000000 0.000000 0.130433
#
#
# Mechanical properties :
#
#
# Convention : Reuss Voigt Hill
#
# Bulk Modulus (GPa) = 32.27492 36.38310 34.32901
# Shear Modulus (GPa) = 13.42463 32.24406 22.83434
#
# Velocity S-wave (km/s) = 2.45217 3.80035 3.19811
# Velocity P-wave (km/s) = 4.74067 5.96268 5.38644
#
# Compressibility (1/GPa) = 0.03098381
#
# Stress axis : x y z
#
# Youngs Moduli (GPa) = 54.54699 90.46466 59.32134
#
# Poissons Ratio (x) = 0.19553 0.06045
# Poissons Ratio (y) = 0.11790 0.26397
# Poissons Ratio (z) = 0.05558 0.40255
#
# Static dielectric constant tensor:
#      x y z
#    x 1.787250 0.000000 0.000000 
#    y 0.000000 1.900650 0.000000 
#    z 0.000000 0.000000 1.906490 
# 
# From -- ./inp_files/30824.got.cif
#   From: 2010.05.17/outbox.cif.g08.bks.cpg/sg67_16_cif.got.tgz:30824.got - 2010.06.03 18:28:57.
