data_PCOD9503959
_publ_section_title
;
Structure prediction by ZEFSAII (Michael W. Deem and Ramdas Pophale) SiO2 
 PCOD9503959
Probable space group: C M M A
;
_chemical_formula_sum "Si O2"
_cell_formula_units_Z 116
_cell_length_a 31.483616
_cell_length_b 17.444316
_cell_length_c 11.471399
_cell_angle_alpha 90.000000
_cell_angle_beta 90.000000
_cell_angle_gamma 90.000000
_cell_volume 6300.208723
_symmetry_space_group_name_H-M "C M M A"
_symmetry_group_IT_number 67
_symmetry_cell_setting 'orthorhombic'
loop_
_space_group_symop_operation_xyz
x,y,z
-x,1/2-y,z
x,-y,-z
-x,1/2+y,-z
-x,-y,-z
x,1/2+y,-z
-x,y,z
x,1/2-y,z
1/2+x,1/2+y,z
1/2-x,-y,z
1/2+x,1/2-y,-z
1/2-x,y,-z
1/2-x,1/2-y,-z
1/2+x,y,-z
1/2-x,1/2+y,z
1/2+x,-y,z
loop_
_atom_site_type_symbol
_atom_site_label
_atom_site_fract_x
_atom_site_fract_y
_atom_site_fract_z
Si Si1 0.375415 0.339874 0.571453
Si Si2 0.116437 0.659721 0.042629
Si Si3 0.294918 0.086691 0.449839
Si Si4 0.950562 0.057155 0.832579
Si Si5 0.750000 0.000000 0.000000
Si Si6 0.119919 0.931975 0.810045
Si Si7 0.814160 0.571622 0.180613
Si Si8 0.951772 0.838375 0.394880
O O1 0.372996 0.250000 0.598608
O O2 0.334276 0.365567 0.498934
O O3 0.379139 0.388384 0.688508
O O4 0.416752 0.353128 0.491880
O O5 0.109941 0.750000 0.040562
O O6 0.074306 0.613974 0.081200
O O7 0.153940 0.636631 0.132594
O O8 0.127755 0.625559 0.916506
O O9 0.250000 0.115248 0.500000
O O10 0.295922 0.086871 0.309314
O O11 0.299757 0.000000 0.500000
O O12 0.947514 0.100925 0.708645
O O13 0.000000 0.046414 0.860971
O O14 0.923939 0.978737 0.827700
O O15 0.721337 0.052314 0.084827
O O16 0.156423 0.996157 0.810781
O O17 0.945876 0.750000 0.352008
O O18 0.000000 0.843393 0.440714
#
# Coordination Sequence:
#
# PCOD9503959 Si02
#       8
#    16  16  16  16   4  16  16  16
#     4  11  23  39  61  87 123 165 200 247 311 366
#     4  11  23  40  60  87 122 158 202 251 303 360
#     4  11  23  39  62  93 124 157 201 251 299 360
#     4  10  21  37  62  90 117 155 206 255 297 356
#     4  12  20  40  68  92 114 156 206 254 300 356
#     4  11  22  40  58  86 123 157 199 253 302 359
#     4  11  22  39  67  88 116 160 201 249 301 354
#     4   9  19  36  58  87 120 155 199 250 303 360
#
# _framework density 18.412088000000001
#
# number of rings (size 3 to 8) (size 9 to 14) (size 15 to 20)
#    0.000    1.379    2.759    4.552    0.000    4.414 
#    0.000    1.724    0.000    2.483    0.000    0.000 
#    0.000    0.000    0.000    0.000    0.000    0.000 
#
# Total GULP energy -324072.359175 kJ/mol
# GULP energy per Si atom -5587.454469 kJ/mol
# Density = 1.837018 g / cm^3
# Si number density = 18.412088 Si / 1000 Ang^3
#
#
#
# Elastic Constant Matrix: (Units=GPa)
#
#
# Indices 1 2 3 4 5 6 
#
# 1 120.1902 38.5591 60.5448 0.0000 0.0000 0.0000
# 2 38.5591 70.7475 49.4735 0.0000 0.0000 0.0000
# 3 60.5448 49.4735 128.5206 0.0000 0.0000 0.0000
# 4 0.0000 0.0000 0.0000 -12.0747 0.0000 0.0000
# 5 0.0000 0.0000 0.0000 0.0000 28.0194 0.0000
# 6 0.0000 0.0000 0.0000 0.0000 0.0000 15.2273
#
#
#
# Elastic Compliance Matrix: (Units=1/GPa)
#
#
# Indices 1 2 3 4 5 6 
#
# 1 0.011472 -0.003384 -0.004102 0.000000 0.000000 0.000000
# 2 -0.003384 0.020340 -0.006235 0.000000 0.000000 0.000000
# 3 -0.004102 -0.006235 0.012113 0.000000 0.000000 0.000000
# 4 0.000000 0.000000 0.000000 -0.082818 0.000000 0.000000
# 5 0.000000 0.000000 0.000000 0.000000 0.035690 0.000000
# 6 0.000000 0.000000 0.000000 0.000000 0.000000 0.065672
#
#
# Mechanical properties :
#
#
# Convention : Reuss Voigt Hill
#
# Bulk Modulus (GPa) = 60.67027 68.51258 64.59142
# Shear Modulus (GPa) = 52.40825 17.62646 35.01735
#
# Velocity S-wave (km/s) = 5.34096 3.09743 4.36577
# Velocity P-wave (km/s) = 8.42955 7.07697 7.78270
#
# Compressibility (1/GPa) = 0.01648254
#
# Stress axis : x y z
#
# Youngs Moduli (GPa) = 87.16850 49.16503 82.55355
#
# Poissons Ratio (x) = 0.16639 0.33860
# Poissons Ratio (y) = 0.29500 0.51475
# Poissons Ratio (z) = 0.35753 0.30656
#
# Static dielectric constant tensor:
#      x y z
#    x 1.632080 0.000000 0.000000 
#    y 0.000000 1.624770 0.000000 
#    z 0.000000 0.000000 1.623710 
# 
# From -- ./inp_files/23965.got.cif
#   From: 2010.05.17/outbox.cif.g08.bks.cpg/sg67_12_cif.got.tgz:23965.got - 2010.06.03 18:28:57.
