data_PCOD9503950
_publ_section_title
;
Structure prediction by ZEFSAII (Michael W. Deem and Ramdas Pophale) SiO2 
 PCOD9503950
Probable space group: C M M A
;
_chemical_formula_sum "Si O2"
_cell_formula_units_Z 68
_cell_length_a 18.858401
_cell_length_b 8.962138
_cell_length_c 20.629809
_cell_angle_alpha 90.000000
_cell_angle_beta 90.000000
_cell_angle_gamma 90.000000
_cell_volume 3486.676866
_symmetry_space_group_name_H-M "C M M A"
_symmetry_group_IT_number 67
_symmetry_cell_setting 'orthorhombic'
loop_
_space_group_symop_operation_xyz
x,y,z
-x,1/2-y,z
x,-y,-z
-x,1/2+y,-z
-x,-y,-z
x,1/2+y,-z
-x,y,z
x,1/2-y,z
1/2+x,1/2+y,z
1/2-x,-y,z
1/2+x,1/2-y,-z
1/2-x,y,-z
1/2-x,1/2-y,-z
1/2+x,y,-z
1/2-x,1/2+y,z
1/2+x,-y,z
loop_
_atom_site_type_symbol
_atom_site_label
_atom_site_fract_x
_atom_site_fract_y
_atom_site_fract_z
Si Si1 0.415823 0.927124 0.430060
Si Si2 0.916677 0.925857 0.800443
Si Si3 0.250000 0.000000 0.000000
Si Si4 0.389240 0.918405 0.936352
Si Si5 0.672186 0.428529 0.313621
O O1 0.500000 0.945411 0.416848
O O2 0.400725 0.750000 0.431016
O O3 0.401384 0.000000 0.500000
O O4 0.370732 0.008053 0.375101
O O5 0.899515 0.750000 0.796592
O O6 0.000000 0.943535 0.784958
O O7 0.903545 0.986434 0.872672
O O8 0.869631 0.017289 0.750084
O O9 0.194991 0.085124 0.953563
O O10 0.414757 0.750000 0.928730
O O11 0.419548 0.000000 0.000000
O O12 0.676230 0.250000 0.315862
O O13 0.750000 0.500000 0.313257
#
# Coordination Sequence:
#
# PCOD9503950 Si02
#       5
#    16  16   4  16  16
#     4  10  21  40  67  98 132 169 210 255 306 367
#     4  11  25  44  65  90 124 164 208 260 315 374
#     4   8  22  36  60  88 122 160 198 252 306 372
#     4  10  21  37  61  88 120 159 204 255 308 368
#     4  12  26  43  65  93 127 166 210 260 313 372
#
# _framework density 19.502811000000001
#
# number of rings (size 3 to 8) (size 9 to 14) (size 15 to 20)
#    0.706    0.706    0.000    5.294    1.647    7.059 
#    0.000    2.353    0.000    0.000    0.000    0.000 
#    0.000    0.000    0.000    0.000    0.000    0.000 
#
# Total GULP energy -189935.273141 kJ/mol
# GULP energy per Si atom -5586.331563 kJ/mol
# Density = 1.945842 g / cm^3
# Si number density = 19.502811 Si / 1000 Ang^3
#
#
#
# Elastic Constant Matrix: (Units=GPa)
#
#
# Indices 1 2 3 4 5 6 
#
# 1 102.1646 79.1886 75.1260 0.0000 0.0000 0.0000
# 2 79.1886 196.8023 91.0644 0.0000 0.0000 0.0000
# 3 75.1260 91.0644 164.5122 0.0000 0.0000 0.0000
# 4 0.0000 0.0000 0.0000 46.5502 0.0000 0.0000
# 5 0.0000 0.0000 0.0000 0.0000 29.9593 0.0000
# 6 0.0000 0.0000 0.0000 0.0000 0.0000 -8.6100
#
#
#
# Elastic Compliance Matrix: (Units=1/GPa)
#
#
# Indices 1 2 3 4 5 6 
#
# 1 0.017182 -0.004414 -0.005403 0.000000 0.000000 0.000000
# 2 -0.004414 0.007965 -0.002393 0.000000 0.000000 0.000000
# 3 -0.005403 -0.002393 0.009871 0.000000 0.000000 0.000000
# 4 0.000000 0.000000 0.000000 0.021482 0.000000 0.000000
# 5 0.000000 0.000000 0.000000 0.000000 0.033379 0.000000
# 6 0.000000 0.000000 0.000000 0.000000 0.000000 -0.116144
#
#
# Mechanical properties :
#
#
# Convention : Reuss Voigt Hill
#
# Bulk Modulus (GPa) = 94.36234 106.02634 100.19434
# Shear Modulus (GPa) = 2962.92942 28.11991 1495.52466
#
# Velocity S-wave (km/s) = 39.01961 3.80127 27.72165
# Velocity P-wave (km/s) = 45.59089 8.58772 32.80456
#
# Compressibility (1/GPa) = 0.01059745
#
# Stress axis : x y z
#
# Youngs Moduli (GPa) = 58.19875 125.55665 101.30812
#
# Poissons Ratio (x) = 0.55415 0.54742
# Poissons Ratio (y) = 0.25686 0.24245
# Poissons Ratio (z) = 0.31448 0.30049
#
# Static dielectric constant tensor:
#      x y z
#    x 1.689720 0.000000 0.000000 
#    y 0.000000 1.660370 0.000000 
#    z 0.000000 0.000000 1.640480 
# 
# From -- ./inp_files/38800.got.cif
#   From: 2010.05.17/outbox.cif.g08.bks.cpg/sg67_20_cif.got.tgz:38800.got - 2010.06.03 18:28:57.
