data_PCOD9503759
_publ_section_title
;
Structure prediction by ZEFSAII (Michael W. Deem and Ramdas Pophale) SiO2 
 PCOD9503759
Probable space group: C M M A
;
_chemical_formula_sum "Si O2"
_cell_formula_units_Z 116
_cell_length_a 16.166362
_cell_length_b 21.452370
_cell_length_c 17.045193
_cell_angle_alpha 90.000000
_cell_angle_beta 90.000000
_cell_angle_gamma 90.000000
_cell_volume 5911.388485
_symmetry_space_group_name_H-M "C M M A"
_symmetry_group_IT_number 67
_symmetry_cell_setting 'orthorhombic'
loop_
_space_group_symop_operation_xyz
x,y,z
-x,1/2-y,z
x,-y,-z
-x,1/2+y,-z
-x,-y,-z
x,1/2+y,-z
-x,y,z
x,1/2-y,z
1/2+x,1/2+y,z
1/2-x,-y,z
1/2+x,1/2-y,-z
1/2-x,y,-z
1/2-x,1/2-y,-z
1/2+x,y,-z
1/2-x,1/2+y,z
1/2+x,-y,z
loop_
_atom_site_type_symbol
_atom_site_label
_atom_site_fract_x
_atom_site_fract_y
_atom_site_fract_z
Si Si1 0.099844 0.929858 0.083193
Si Si2 0.652513 0.818568 0.806150
Si Si3 0.850316 0.320127 0.212526
Si Si4 0.139370 0.840931 0.372368
Si Si5 0.599374 0.069202 0.903532
Si Si6 0.900853 0.429312 0.509603
Si Si7 0.665989 0.678695 0.394402
Si Si8 0.500000 0.250000 0.428609
O O1 0.128079 0.873821 0.137219
O O2 0.000000 0.930775 0.082298
O O3 0.127920 0.998144 0.113535
O O4 0.127844 0.919271 0.993256
O O5 0.624703 0.750000 0.833473
O O6 0.751342 0.817599 0.797133
O O7 0.619739 0.829595 0.718342
O O8 0.882235 0.250000 0.192518
O O9 0.878184 0.376380 0.156869
O O10 0.866578 0.331117 0.305161
O O11 0.125983 0.910186 0.402742
O O12 0.233901 0.821959 0.389342
O O13 0.072513 0.802889 0.421171
O O14 0.500000 0.067285 0.905374
O O15 0.872153 0.500000 0.500000
O O16 0.862360 0.377745 0.450226
O O17 0.000000 0.427900 0.499913
O O18 0.640846 0.750000 0.417468
#
# Coordination Sequence:
#
# PCOD9503759 Si02
#       8
#    16  16  16  16  16  16  16   4
#     4   9  20  35  55  81 109 147 187 231 276 335
#     4  10  21  36  55  85 115 143 181 230 284 337
#     4   9  20  38  57  81 113 144 184 233 280 335
#     4  11  22  38  62  86 119 150 189 234 296 348
#     4   9  19  38  56  76 110 148 190 229 279 335
#     4  11  26  42  58  85 120 154 195 240 286 342
#     4  10  22  40  62  86 114 151 195 239 289 346
#     4  12  20  36  64  96 110 152 192 240 282 356
#
# _framework density 19.623139999999999
#
# number of rings (size 3 to 8) (size 9 to 14) (size 15 to 20)
#    0.000    2.069    2.069    2.069    1.931    5.793 
#    0.000   11.034    0.000    0.000    0.000    0.000 
#    0.000    0.000    0.000    0.000    0.000    0.000 
#
# Total GULP energy -322968.477223 kJ/mol
# GULP energy per Si atom -5568.422021 kJ/mol
# Density = 1.957848 g / cm^3
# Si number density = 19.623140 Si / 1000 Ang^3
#
#
#
# Elastic Constant Matrix: (Units=GPa)
#
#
# Indices 1 2 3 4 5 6 
#
# 1 31.2687 27.3718 22.9806 0.0000 0.0000 0.0000
# 2 27.3718 195.4841 95.6464 0.0000 0.0000 0.0000
# 3 22.9806 95.6464 96.3174 0.0000 0.0000 0.0000
# 4 0.0000 0.0000 0.0000 26.9720 0.0000 0.0000
# 5 0.0000 0.0000 0.0000 0.0000 34.4222 0.0000
# 6 0.0000 0.0000 0.0000 0.0000 0.0000 18.4574
#
#
#
# Elastic Compliance Matrix: (Units=1/GPa)
#
#
# Indices 1 2 3 4 5 6 
#
# 1 0.039094 -0.001770 -0.007569 0.000000 0.000000 0.000000
# 2 -0.001770 0.010030 -0.009538 0.000000 0.000000 0.000000
# 3 -0.007569 -0.009538 0.021660 0.000000 0.000000 0.000000
# 4 0.000000 0.000000 0.000000 0.037076 0.000000 0.000000
# 5 0.000000 0.000000 0.000000 0.000000 0.029051 0.000000
# 6 0.000000 0.000000 0.000000 0.000000 0.000000 0.054179
#
#
# Mechanical properties :
#
#
# Convention : Reuss Voigt Hill
#
# Bulk Modulus (GPa) = 30.27706 68.34085 49.30896
# Shear Modulus (GPa) = 20.84609 27.77508 24.31059
#
# Velocity S-wave (km/s) = 3.26286 3.76629 3.52358
# Velocity P-wave (km/s) = 5.44590 7.33591 6.46039
#
# Compressibility (1/GPa) = 0.03302831
#
# Stress axis : x y z
#
# Youngs Moduli (GPa) = 25.57958 99.70065 46.16880
#
# Poissons Ratio (x) = 0.17651 0.34947
# Poissons Ratio (y) = 0.04529 0.44035
# Poissons Ratio (z) = 0.19362 0.95092
#
# Static dielectric constant tensor:
#      x y z
#    x 1.699020 0.000000 0.000000 
#    y 0.000000 1.744650 0.000000 
#    z 0.000000 0.000000 1.702580 
# 
# From -- ./inp_files/34355.got.cif
#   From: 2010.05.17/outbox.cif.g08.bks.cpg/sg67_18_cif.got.tgz:34355.got - 2010.06.03 18:28:57.
