data_PCOD9503750
_publ_section_title
;
Structure prediction by ZEFSAII (Michael W. Deem and Ramdas Pophale) SiO2 
 PCOD9503750
Probable space group: C M M A
;
_chemical_formula_sum "Si O2"
_cell_formula_units_Z 96
_cell_length_a 23.661663
_cell_length_b 18.780636
_cell_length_c 12.539966
_cell_angle_alpha 90.000000
_cell_angle_beta 90.000000
_cell_angle_gamma 90.000000
_cell_volume 5572.523634
_symmetry_space_group_name_H-M "C M M A"
_symmetry_group_IT_number 67
_symmetry_cell_setting 'orthorhombic'
loop_
_space_group_symop_operation_xyz
x,y,z
-x,1/2-y,z
x,-y,-z
-x,1/2+y,-z
-x,-y,-z
x,1/2+y,-z
-x,y,z
x,1/2-y,z
1/2+x,1/2+y,z
1/2-x,-y,z
1/2+x,1/2-y,-z
1/2-x,y,-z
1/2-x,1/2-y,-z
1/2+x,y,-z
1/2-x,1/2+y,z
1/2+x,-y,z
loop_
_atom_site_type_symbol
_atom_site_label
_atom_site_fract_x
_atom_site_fract_y
_atom_site_fract_z
Si Si1 0.790934 0.828861 0.730595
Si Si2 0.628514 0.126770 0.907700
Si Si3 0.307212 0.032246 0.617548
Si Si4 0.379328 0.019096 0.196656
Si Si5 0.500000 0.540771 0.885405
Si Si6 0.176361 0.667076 0.135085
Si Si7 0.000000 0.334886 0.028465
O O1 0.783606 0.750000 0.688665
O O2 0.846753 0.836061 0.802996
O O3 0.796966 0.884410 0.634481
O O4 0.738887 0.842067 0.813597
O O5 0.561083 0.141338 0.921825
O O6 0.639968 0.042337 0.887677
O O7 0.663747 0.155978 0.008974
O O8 0.311898 0.000000 0.500000
O O9 0.250000 0.000000 0.667823
O O10 0.358954 0.008288 0.689633
O O11 0.445493 0.020995 0.179790
O O12 0.357363 0.099193 0.180821
O O13 0.500000 0.500000 0.000000
O O14 0.500000 0.623830 0.916137
O O15 0.159989 0.750000 0.158714
O O16 0.000000 0.250000 0.021339
#
# Coordination Sequence:
#
# PCOD9503750 Si02
#       7
#    16  16  16  16   8  16   8
#     4  10  21  36  55  82 113 144 181 227 284 334
#     4  11  21  33  52  76 117 154 185 219 264 332
#     4  10  21  40  60  80 106 140 189 244 287 325
#     4  11  21  36  56  80 109 152 189 226 274 331
#     4  12  20  36  53  80 117 150 183 216 259 333
#     4  11  20  32  50  81 115 145 182 224 271 330
#     4  12  22  32  50  78 110 152 187 216 257 311
#
# _framework density 17.227384000000001
#
# number of rings (size 3 to 8) (size 9 to 14) (size 15 to 20)
#    0.000    1.167    5.000    2.500    0.000    1.333 
#    0.000    4.583    0.000    0.000    0.000    0.000 
#    0.000    0.000    0.000    0.000    0.000    0.000 
#
# Total GULP energy -267219.373973 kJ/mol
# GULP energy per Si atom -5567.070291 kJ/mol
# Density = 1.718817 g / cm^3
# Si number density = 17.227384 Si / 1000 Ang^3
#
#
#
# Elastic Constant Matrix: (Units=GPa)
#
#
# Indices 1 2 3 4 5 6 
#
# 1 98.2886 41.8971 43.3682 0.0000 0.0000 0.0000
# 2 41.8971 152.0354 52.3277 0.0000 0.0000 0.0000
# 3 43.3682 52.3277 69.2765 0.0000 0.0000 0.0000
# 4 0.0000 0.0000 0.0000 21.5559 0.0000 0.0000
# 5 0.0000 0.0000 0.0000 0.0000 20.2694 0.0000
# 6 0.0000 0.0000 0.0000 0.0000 0.0000 14.4687
#
#
#
# Elastic Compliance Matrix: (Units=1/GPa)
#
#
# Indices 1 2 3 4 5 6 
#
# 1 0.014205 -0.001154 -0.008021 0.000000 0.000000 0.000000
# 2 -0.001154 0.008982 -0.006062 0.000000 0.000000 0.000000
# 3 -0.008021 -0.006062 0.024035 0.000000 0.000000 0.000000
# 4 0.000000 0.000000 0.000000 0.046391 0.000000 0.000000
# 5 0.000000 0.000000 0.000000 0.000000 0.049335 0.000000
# 6 0.000000 0.000000 0.000000 0.000000 0.000000 0.069115
#
#
# Mechanical properties :
#
#
# Convention : Reuss Voigt Hill
#
# Bulk Modulus (GPa) = 59.70807 66.08741 62.89774
# Shear Modulus (GPa) = 20.15152 23.39262 21.77207
#
# Velocity S-wave (km/s) = 3.42385 3.68893 3.55886
# Velocity P-wave (km/s) = 7.09679 7.52259 7.31279
#
# Compressibility (1/GPa) = 0.01674816
#
# Stress axis : x y z
#
# Youngs Moduli (GPa) = 70.39705 111.33585 41.60572
#
# Poissons Ratio (x) = 0.12847 0.33372
# Poissons Ratio (y) = 0.08123 0.25222
# Poissons Ratio (z) = 0.56466 0.67492
#
# Static dielectric constant tensor:
#      x y z
#    x 1.597300 0.000000 0.000000 
#    y 0.000000 1.657950 0.000000 
#    z 0.000000 0.000000 1.572050 
# 
# From -- ./inp_files/21982.got.cif
#   From: 2010.05.17/outbox.cif.g08.bks.cpg/sg67_11_cif.got.tgz:21982.got - 2010.06.03 18:28:57.
