data_PCOD9503078
_publ_section_title
;
Structure prediction by ZEFSAII (Michael W. Deem and Ramdas Pophale) SiO2 
 PCOD9503078
Probable space group: C M M A
;
_chemical_formula_sum "Si O2"
_cell_formula_units_Z 80
_cell_length_a 28.027519
_cell_length_b 8.576442
_cell_length_c 19.337633
_cell_angle_alpha 90.000000
_cell_angle_beta 90.000000
_cell_angle_gamma 90.000000
_cell_volume 4648.310433
_symmetry_space_group_name_H-M "C M M A"
_symmetry_group_IT_number 67
_symmetry_cell_setting 'orthorhombic'
loop_
_space_group_symop_operation_xyz
x,y,z
-x,1/2-y,z
x,-y,-z
-x,1/2+y,-z
-x,-y,-z
x,1/2+y,-z
-x,y,z
x,1/2-y,z
1/2+x,1/2+y,z
1/2-x,-y,z
1/2+x,1/2-y,-z
1/2-x,y,-z
1/2-x,1/2-y,-z
1/2+x,y,-z
1/2-x,1/2+y,z
1/2+x,-y,z
loop_
_atom_site_type_symbol
_atom_site_label
_atom_site_fract_x
_atom_site_fract_y
_atom_site_fract_z
Si Si1 0.555623 0.061796 0.426007
Si Si2 0.603024 0.060630 0.285133
Si Si3 0.198124 0.436884 0.789232
Si Si4 0.648603 0.064665 0.925022
Si Si5 0.054298 0.061374 0.857874
O O1 0.500000 0.015774 0.418178
O O2 0.557238 0.250000 0.427184
O O3 0.584650 0.005181 0.359193
O O4 0.572784 0.000000 0.500000
O O5 0.602812 0.250000 0.287501
O O6 0.656115 0.011354 0.263041
O O7 0.568439 0.018533 0.221125
O O8 0.198783 0.250000 0.790185
O O9 0.250000 0.500000 0.771435
O O10 0.181755 0.495717 0.864636
O O11 0.651697 0.250000 0.924336
O O12 0.594649 0.012026 0.906184
O O13 0.661614 0.000000 0.000000
O O14 0.057777 0.250000 0.863095
O O15 0.000000 0.015635 0.873396
#
# Coordination Sequence:
#
# PCOD9503078 Si02
#       5
#    16  16  16  16  16
#     4   9  16  27  45  71 102 134 165 196 233 278
#     4   8  15  29  50  72  96 128 164 200 239 289
#     4  10  20  36  56  77  97 121 158 202 250 299
#     4  11  22  36  52  72  99 129 162 201 245 292
#     4   9  17  31  51  73  97 129 168 206 245 291
#
# _framework density 17.210554999999999
#
# number of rings (size 3 to 8) (size 9 to 14) (size 15 to 20)
#    0.000    2.600    0.000    4.200    0.000    3.600 
#    0.000    7.000    0.000    5.400    0.000    4.200 
#    0.000    0.000    0.000    0.000    0.000    0.000 
#
# Total GULP energy -223105.779146 kJ/mol
# GULP energy per Si atom -5577.644479 kJ/mol
# Density = 1.717138 g / cm^3
# Si number density = 17.210555 Si / 1000 Ang^3
#
#
#
# Elastic Constant Matrix: (Units=GPa)
#
#
# Indices 1 2 3 4 5 6 
#
# 1 68.6355 16.8385 21.2460 0.0000 0.0000 0.0000
# 2 16.8385 40.5556 15.1413 0.0000 0.0000 0.0000
# 3 21.2460 15.1413 108.6858 0.0000 0.0000 0.0000
# 4 0.0000 0.0000 0.0000 23.7370 0.0000 0.0000
# 5 0.0000 0.0000 0.0000 0.0000 11.2254 0.0000
# 6 0.0000 0.0000 0.0000 0.0000 0.0000 25.9864
#
#
#
# Elastic Compliance Matrix: (Units=1/GPa)
#
#
# Indices 1 2 3 4 5 6 
#
# 1 0.016815 -0.006070 -0.002441 0.000000 0.000000 0.000000
# 2 -0.006070 0.028201 -0.002742 0.000000 0.000000 0.000000
# 3 -0.002441 -0.002742 0.010060 0.000000 0.000000 0.000000
# 4 0.000000 0.000000 0.000000 0.042128 0.000000 0.000000
# 5 0.000000 0.000000 0.000000 0.000000 0.089084 0.000000
# 6 0.000000 0.000000 0.000000 0.000000 0.000000 0.038482
#
#
# Mechanical properties :
#
#
# Convention : Reuss Voigt Hill
#
# Bulk Modulus (GPa) = 30.70384 36.03651 33.37018
# Shear Modulus (GPa) = 19.36985 23.16651 21.26818
#
# Velocity S-wave (km/s) = 3.35843 3.67285 3.51916
# Velocity P-wave (km/s) = 5.73739 6.24264 5.99534
#
# Compressibility (1/GPa) = 0.03256921
#
# Stress axis : x y z
#
# Youngs Moduli (GPa) = 59.47232 35.45914 99.40263
#
# Poissons Ratio (x) = 0.21523 0.24267
# Poissons Ratio (y) = 0.36099 0.27259
# Poissons Ratio (z) = 0.14519 0.09724
#
# Static dielectric constant tensor:
#      x y z
#    x 1.578520 0.000000 0.000000 
#    y 0.000000 1.586080 0.000000 
#    z 0.000000 0.000000 1.573330 
# 
# From -- ./inp_files/32110.got.cif
#   From: 2010.05.17/outbox.cif.g08.bks.cpg/sg67_17_cif.got.tgz:32110.got - 2010.06.03 18:28:57.
