data_PCOD9503903
_publ_section_title
;
Structure prediction by ZEFSAII (Michael W. Deem and Ramdas Pophale) SiO2 
 PCOD9503903
Probable space group: C M M A
;
_chemical_formula_sum "Si O2"
_cell_formula_units_Z 80
_cell_length_a 26.938665
_cell_length_b 9.539166
_cell_length_c 16.936429
_cell_angle_alpha 90.000000
_cell_angle_beta 90.000000
_cell_angle_gamma 90.000000
_cell_volume 4352.194761
_symmetry_space_group_name_H-M "C M M A"
_symmetry_group_IT_number 67
_symmetry_cell_setting 'orthorhombic'
loop_
_space_group_symop_operation_xyz
x,y,z
-x,1/2-y,z
x,-y,-z
-x,1/2+y,-z
-x,-y,-z
x,1/2+y,-z
-x,y,z
x,1/2-y,z
1/2+x,1/2+y,z
1/2-x,-y,z
1/2+x,1/2-y,-z
1/2-x,y,-z
1/2-x,1/2-y,-z
1/2+x,y,-z
1/2-x,1/2+y,z
1/2+x,-y,z
loop_
_atom_site_type_symbol
_atom_site_label
_atom_site_fract_x
_atom_site_fract_y
_atom_site_fract_z
Si Si1 0.703445 0.750000 0.886399
Si Si2 0.393407 0.916966 0.575788
Si Si3 0.819254 0.250000 0.066046
Si Si4 0.800805 0.413055 0.353572
Si Si5 0.444440 0.415971 0.257366
Si Si6 0.844166 0.479037 0.185094
O O1 0.761423 0.750000 0.907439
O O2 0.686766 0.616930 0.836485
O O3 0.677345 0.750000 0.972155
O O4 0.385164 0.750000 0.561871
O O5 0.429907 0.929976 0.650548
O O6 0.413098 0.000000 0.500000
O O7 0.342969 0.998583 0.600447
O O8 0.842519 0.383451 0.108240
O O9 0.796658 0.250000 0.379501
O O10 0.750000 0.500000 0.360929
O O11 0.818048 0.412650 0.261866
O O12 0.500000 0.468679 0.242504
O O13 0.443058 0.250000 0.239595
O O14 0.400375 0.486875 0.208993
#
# Coordination Sequence:
#
# PCOD9503903 Si02
#       6
#     8  16   8  16  16  16
#     4  11  22  36  57  85 118 165 187 229 281 357
#     4  10  21  37  58  84 118 149 187 236 289 342
#     4  11  22  36  55  87 126 149 193 233 291 335
#     4  11  22  35  56  82 115 156 199 236 281 340
#     4   9  19  38  63  85 108 150 199 239 287 341
#     4  11  21  36  58  84 116 154 196 241 285 338
#
# _framework density 18.381530999999999
#
# number of rings (size 3 to 8) (size 9 to 14) (size 15 to 20)
#    0.000    1.600    2.000    3.600    2.800    2.400 
#    0.000    2.500    0.000    3.600    0.000    0.000 
#    0.000    0.000    0.000    0.000    0.000    0.000 
#
# Total GULP energy -223341.576405 kJ/mol
# GULP energy per Si atom -5583.539410 kJ/mol
# Density = 1.833969 g / cm^3
# Si number density = 18.381531 Si / 1000 Ang^3
#
#
#
# Elastic Constant Matrix: (Units=GPa)
#
#
# Indices 1 2 3 4 5 6 
#
# 1 89.7364 24.7015 6.8065 0.0000 0.0000 0.0000
# 2 24.7015 116.9370 26.3266 0.0000 0.0000 0.0000
# 3 6.8065 26.3266 62.8522 0.0000 0.0000 0.0000
# 4 0.0000 0.0000 0.0000 -38.4422 0.0000 0.0000
# 5 0.0000 0.0000 0.0000 0.0000 8.5190 0.0000
# 6 0.0000 0.0000 0.0000 0.0000 0.0000 21.1958
#
#
#
# Elastic Compliance Matrix: (Units=1/GPa)
#
#
# Indices 1 2 3 4 5 6 
#
# 1 0.011836 -0.002442 -0.000259 0.000000 0.000000 0.000000
# 2 -0.002442 0.009946 -0.003902 0.000000 0.000000 0.000000
# 3 -0.000259 -0.003902 0.017573 0.000000 0.000000 0.000000
# 4 0.000000 0.000000 0.000000 -0.026013 0.000000 0.000000
# 5 0.000000 0.000000 0.000000 0.000000 0.117385 0.000000
# 6 0.000000 0.000000 0.000000 0.000000 0.000000 0.047179
#
#
# Mechanical properties :
#
#
# Convention : Reuss Voigt Hill
#
# Bulk Modulus (GPa) = 38.24177 42.79942 40.52060
# Shear Modulus (GPa) = 25.02174 12.36725 18.69449
#
# Velocity S-wave (km/s) = 3.69351 2.59667 3.19254
# Velocity P-wave (km/s) = 6.24811 5.68548 5.97343
#
# Compressibility (1/GPa) = 0.02614941
#
# Stress axis : x y z
#
# Youngs Moduli (GPa) = 84.49126 100.54517 56.90683
#
# Poissons Ratio (x) = 0.24551 0.01473
# Poissons Ratio (y) = 0.20631 0.22202
# Poissons Ratio (z) = 0.02188 0.39228
#
# Static dielectric constant tensor:
#      x y z
#    x 1.613220 0.000000 0.000000 
#    y 0.000000 1.622640 0.000000 
#    z 0.000000 0.000000 1.625690 
# 
# From -- ./inp_files/35814.got.cif
#   From: 2010.05.17/outbox.cif.g08.bks.cpg/sg67_18_cif.got.tgz:35814.got - 2010.06.03 18:28:57.
