data_PCOD9503267
_publ_section_title
;
Structure prediction by ZEFSAII (Michael W. Deem and Ramdas Pophale) SiO2 
 PCOD9503267
Probable space group: C M M A
;
_chemical_formula_sum "Si O2"
_cell_formula_units_Z 112
_cell_length_a 17.101727
_cell_length_b 14.363579
_cell_length_c 22.958949
_cell_angle_alpha 90.000000
_cell_angle_beta 90.000000
_cell_angle_gamma 90.000000
_cell_volume 5639.682306
_symmetry_space_group_name_H-M "C M M A"
_symmetry_group_IT_number 67
_symmetry_cell_setting 'orthorhombic'
loop_
_space_group_symop_operation_xyz
x,y,z
-x,1/2-y,z
x,-y,-z
-x,1/2+y,-z
-x,-y,-z
x,1/2+y,-z
-x,y,z
x,1/2-y,z
1/2+x,1/2+y,z
1/2-x,-y,z
1/2+x,1/2-y,-z
1/2-x,y,-z
1/2-x,1/2-y,-z
1/2+x,y,-z
1/2-x,1/2+y,z
1/2+x,-y,z
loop_
_atom_site_type_symbol
_atom_site_label
_atom_site_fract_x
_atom_site_fract_y
_atom_site_fract_z
Si Si1 0.162728 0.390498 0.013094
Si Si2 0.659039 0.027362 0.413676
Si Si3 0.092947 0.140974 0.478013
Si Si4 0.161262 0.473211 0.803735
Si Si5 0.405982 0.359757 0.303929
Si Si6 0.091850 0.645711 0.860871
Si Si7 0.087601 0.145111 0.896384
O O1 0.137374 0.370751 0.078667
O O2 0.162264 0.500000 0.000000
O O3 0.250000 0.355850 0.000000
O O4 0.103590 0.351778 0.964930
O O5 0.639383 0.096847 0.467397
O O6 0.631133 0.081299 0.356509
O O7 0.750000 0.000000 0.412035
O O8 0.612990 0.930636 0.426015
O O9 0.112418 0.250000 0.468224
O O10 0.000000 0.135702 0.490397
O O11 0.250000 0.500000 0.791192
O O12 0.124212 0.407332 0.755135
O O13 0.115181 0.568814 0.814034
O O14 0.151306 0.417787 0.864565
O O15 0.500000 0.365743 0.306862
O O16 0.385038 0.250000 0.306922
O O17 0.109203 0.750000 0.840127
O O18 0.000000 0.638611 0.873778
O O19 0.091508 0.250000 0.873184
O O20 0.000000 0.107990 0.885107
#
# Coordination Sequence:
#
# PCOD9503267 Si02
#       7
#    16  16  16  16  16  16  16
#     4  11  22  36  57  88 119 153 190 240 299 357
#     4  11  22  37  60  94 132 169 209 260 311 361
#     4  10  20  36  61  93 132 178 221 259 302 355
#     4  12  25  42  63  89 118 150 194 247 305 358
#     4  11  24  44  69  92 118 158 206 256 307 361
#     4  11  24  41  61  85 116 156 195 234 293 367
#     4  11  23  39  62  89 116 151 196 245 296 354
#
# _framework density 19.859273999999999
#
# number of rings (size 3 to 8) (size 9 to 14) (size 15 to 20)
#    0.000    1.000    1.429    6.857    0.000    9.143 
#    0.000    0.714    0.000    2.571    0.000    0.000 
#    0.000    0.000    0.000    0.000    0.000    0.000 
#
# Total GULP energy -313039.006797 kJ/mol
# GULP energy per Si atom -5589.982264 kJ/mol
# Density = 1.981407 g / cm^3
# Si number density = 19.859274 Si / 1000 Ang^3
#
#
#
# Elastic Constant Matrix: (Units=GPa)
#
#
# Indices 1 2 3 4 5 6 
#
# 1 107.1473 55.5579 30.6437 0.0000 0.0000 0.0000
# 2 55.5579 175.4759 54.1210 0.0000 0.0000 0.0000
# 3 30.6437 54.1210 89.2189 0.0000 0.0000 0.0000
# 4 0.0000 0.0000 0.0000 24.9211 0.0000 0.0000
# 5 0.0000 0.0000 0.0000 0.0000 6.4785 0.0000
# 6 0.0000 0.0000 0.0000 0.0000 0.0000 26.7066
#
#
#
# Elastic Compliance Matrix: (Units=1/GPa)
#
#
# Indices 1 2 3 4 5 6 
#
# 1 0.011489 -0.002978 -0.002140 0.000000 0.000000 0.000000
# 2 -0.002978 0.007782 -0.003698 0.000000 0.000000 0.000000
# 3 -0.002140 -0.003698 0.014187 0.000000 0.000000 0.000000
# 4 0.000000 0.000000 0.000000 0.040127 0.000000 0.000000
# 5 0.000000 0.000000 0.000000 0.000000 0.154358 0.000000
# 6 0.000000 0.000000 0.000000 0.000000 0.000000 0.037444
#
#
# Mechanical properties :
#
#
# Convention : Reuss Voigt Hill
#
# Bulk Modulus (GPa) = 63.18407 72.49859 67.84133
# Shear Modulus (GPa) = 17.34353 27.05585 22.19969
#
# Velocity S-wave (km/s) = 2.95841 3.69505 3.34705
# Velocity P-wave (km/s) = 6.59959 7.40202 7.01229
#
# Compressibility (1/GPa) = 0.01582677
#
# Stress axis : x y z
#
# Youngs Moduli (GPa) = 87.04095 128.50065 70.48918
#
# Poissons Ratio (x) = 0.38262 0.15083
# Poissons Ratio (y) = 0.25917 0.26067
# Poissons Ratio (z) = 0.18625 0.47519
#
# Static dielectric constant tensor:
#      x y z
#    x 1.692920 0.000000 0.000000 
#    y 0.000000 1.725180 0.000000 
#    z 0.000000 0.000000 1.695260 
# 
# From -- ./inp_files/41956.got.cif
#   From: 2010.05.17/outbox.cif.g08.bks.cpg/sg67_21_cif.got.tgz:41956.got - 2010.06.03 18:28:57.
