data_PCOD9503895
_publ_section_title
;
Structure prediction by ZEFSAII (Michael W. Deem and Ramdas Pophale) SiO2 
 PCOD9503895
Probable space group: C M M A
;
_chemical_formula_sum "Si O2"
_cell_formula_units_Z 112
_cell_length_a 14.672852
_cell_length_b 30.727275
_cell_length_c 11.850830
_cell_angle_alpha 90.000000
_cell_angle_beta 90.000000
_cell_angle_gamma 90.000000
_cell_volume 5343.026799
_symmetry_space_group_name_H-M "C M M A"
_symmetry_group_IT_number 67
_symmetry_cell_setting 'orthorhombic'
loop_
_space_group_symop_operation_xyz
x,y,z
-x,1/2-y,z
x,-y,-z
-x,1/2+y,-z
-x,-y,-z
x,1/2+y,-z
-x,y,z
x,1/2-y,z
1/2+x,1/2+y,z
1/2-x,-y,z
1/2+x,1/2-y,-z
1/2-x,y,-z
1/2-x,1/2-y,-z
1/2+x,y,-z
1/2-x,1/2+y,z
1/2+x,-y,z
loop_
_atom_site_type_symbol
_atom_site_label
_atom_site_fract_x
_atom_site_fract_y
_atom_site_fract_z
Si Si1 0.105837 0.464370 0.081313
Si Si2 0.646511 0.132860 0.983475
Si Si3 0.899378 0.301160 0.210466
Si Si4 0.605168 0.512103 0.336611
Si Si5 0.396199 0.866873 0.754927
Si Si6 0.271783 0.930119 0.619476
Si Si7 0.228840 0.198253 0.630675
O O1 0.145930 0.416036 0.068761
O O2 0.104827 0.488814 0.201029
O O3 0.000000 0.457213 0.048657
O O4 0.148453 0.500000 0.000000
O O5 0.603810 0.166772 0.896064
O O6 0.750000 0.146859 0.000000
O O7 0.605354 0.134416 0.109319
O O8 0.887936 0.250000 0.178539
O O9 0.818100 0.313167 0.295016
O O10 0.000000 0.305184 0.263757
O O11 0.500000 0.515819 0.373634
O O12 0.659213 0.471510 0.390997
O O13 0.671783 0.552875 0.351244
O O14 0.500000 0.877303 0.719483
O O15 0.322313 0.901906 0.712304
O O16 0.357551 0.824598 0.689990
O O17 0.250000 0.908104 0.500000
O O18 0.216283 0.250000 0.636554
O O19 0.250000 0.187809 0.500000
#
# Coordination Sequence:
#
# PCOD9503895 Si02
#       7
#    16  16  16  16  16  16  16
#     4  10  21  37  57  87 124 164 212 267 332 397
#     4  12  23  40  66  96 137 178 225 280 339 406
#     4  10  22  42  69 100 136 177 218 270 341 410
#     4  10  21  38  62  89 119 164 218 275 336 396
#     4  12  25  42  65  97 134 177 223 275 338 400
#     4  11  24  42  61  87 127 168 221 278 335 396
#     4  10  23  45  70  99 134 172 221 275 330 397
#
# _framework density 20.961901000000001
#
# number of rings (size 3 to 8) (size 9 to 14) (size 15 to 20)
#    0.000    1.286    1.429    4.714    0.000    6.000 
#    0.000    1.429    0.000    0.000    0.000    0.000 
#    0.000    0.000    0.000    0.000    0.000    0.000 
#
# Total GULP energy -312408.920635 kJ/mol
# GULP energy per Si atom -5578.730726 kJ/mol
# Density = 2.091419 g / cm^3
# Si number density = 20.961901 Si / 1000 Ang^3
#
#
#
# Elastic Constant Matrix: (Units=GPa)
#
#
# Indices 1 2 3 4 5 6 
#
# 1 115.9511 15.8731 27.7317 0.0000 0.0000 0.0000
# 2 15.8731 76.7966 39.8803 0.0000 0.0000 0.0000
# 3 27.7317 39.8803 120.7803 0.0000 0.0000 0.0000
# 4 0.0000 0.0000 0.0000 60.7124 0.0000 0.0000
# 5 0.0000 0.0000 0.0000 0.0000 9.4471 0.0000
# 6 0.0000 0.0000 0.0000 0.0000 0.0000 30.9354
#
#
#
# Elastic Compliance Matrix: (Units=1/GPa)
#
#
# Indices 1 2 3 4 5 6 
#
# 1 0.009185 -0.000970 -0.001789 0.000000 0.000000 0.000000
# 2 -0.000970 0.015819 -0.005001 0.000000 0.000000 0.000000
# 3 -0.001789 -0.005001 0.010341 0.000000 0.000000 0.000000
# 4 0.000000 0.000000 0.000000 0.016471 0.000000 0.000000
# 5 0.000000 0.000000 0.000000 0.000000 0.105853 0.000000
# 6 0.000000 0.000000 0.000000 0.000000 0.000000 0.032325
#
#
# Mechanical properties :
#
#
# Convention : Reuss Voigt Hill
#
# Bulk Modulus (GPa) = 50.43586 53.38868 51.91227
# Shear Modulus (GPa) = 23.57148 35.55516 29.56332
#
# Velocity S-wave (km/s) = 3.35698 4.12294 3.75952
# Velocity P-wave (km/s) = 6.25610 6.94187 6.60788
#
# Compressibility (1/GPa) = 0.01982716
#
# Stress axis : x y z
#
# Youngs Moduli (GPa) = 108.87479 63.21693 96.69954
#
# Poissons Ratio (x) = 0.06129 0.17297
# Poissons Ratio (y) = 0.10556 0.48355
# Poissons Ratio (z) = 0.19475 0.31612
#
# Static dielectric constant tensor:
#      x y z
#    x 1.763810 0.000000 0.000000 
#    y 0.000000 1.792820 0.000000 
#    z 0.000000 0.000000 1.948590 
# 
# From -- ./inp_files/18596.got.cif
#   From: 2010.05.17/outbox.cif.g08.bks.cpg/sg67_10_cif.got.tgz:18596.got - 2010.06.03 18:28:57.
