data_PCOD9503989
_publ_section_title
;
Structure prediction by ZEFSAII (Michael W. Deem and Ramdas Pophale) SiO2 
 PCOD9503989
Probable space group: C M M A
;
_chemical_formula_sum "Si O2"
_cell_formula_units_Z 112
_cell_length_a 28.582393
_cell_length_b 14.652709
_cell_length_c 12.117986
_cell_angle_alpha 90.000000
_cell_angle_beta 90.000000
_cell_angle_gamma 90.000000
_cell_volume 5075.127502
_symmetry_space_group_name_H-M "C M M A"
_symmetry_group_IT_number 67
_symmetry_cell_setting 'orthorhombic'
loop_
_space_group_symop_operation_xyz
x,y,z
-x,1/2-y,z
x,-y,-z
-x,1/2+y,-z
-x,-y,-z
x,1/2+y,-z
-x,y,z
x,1/2-y,z
1/2+x,1/2+y,z
1/2-x,-y,z
1/2+x,1/2-y,-z
1/2-x,y,-z
1/2-x,1/2-y,-z
1/2+x,y,-z
1/2-x,1/2+y,z
1/2+x,-y,z
loop_
_atom_site_type_symbol
_atom_site_label
_atom_site_fract_x
_atom_site_fract_y
_atom_site_fract_z
Si Si1 0.947646 0.466320 0.686586
Si Si2 0.107419 0.356861 0.313572
Si Si3 0.205819 0.139823 0.740530
Si Si4 0.194760 0.854367 0.816432
Si Si5 0.846777 0.605124 0.034785
Si Si6 0.551122 0.597764 0.939338
Si Si7 0.866940 0.857255 0.434848
O O1 0.935436 0.573531 0.692083
O O2 0.945251 0.423632 0.809079
O O3 0.909094 0.416902 0.612719
O O4 0.000000 0.452362 0.643613
O O5 0.095397 0.250000 0.293805
O O6 0.146233 0.393948 0.228306
O O7 0.131576 0.363585 0.433655
O O8 0.209179 0.250000 0.740214
O O9 0.257740 0.104696 0.768869
O O10 0.172174 0.114830 0.842083
O O11 0.180717 0.113093 0.626570
O O12 0.193111 0.750000 0.776554
O O13 0.190088 0.853981 0.948112
O O14 0.899746 0.642977 0.026004
O O15 0.848820 0.500000 0.000000
O O16 0.500000 0.641262 0.960545
O O17 0.549947 0.500000 0.000000
O O18 0.874544 0.750000 0.406914
#
# Coordination Sequence:
#
# PCOD9503989 Si02
#       7
#    16  16  16  16  16  16  16
#     4  11  22  40  64  89 120 157 198 245 298 355
#     4  10  22  40  60  87 120 155 199 247 295 352
#     4  10  21  38  58  83 116 156 198 243 296 353
#     4  10  22  38  58  83 115 157 199 241 296 355
#     4  11  20  34  57  85 119 152 190 245 295 349
#     4   9  18  33  56  84 115 155 196 236 293 356
#     4  10  22  40  61  86 120 157 197 247 296 349
#
# _framework density 22.06841
#
# number of rings (size 3 to 8) (size 9 to 14) (size 15 to 20)
#    0.000    1.857    1.429    3.000    0.000    4.571 
#    0.000    4.286    0.000    4.286    0.000    4.000 
#    0.000    0.000    0.000    0.000    0.000    0.000 
#
# Total GULP energy -312736.800529 kJ/mol
# GULP energy per Si atom -5584.585724 kJ/mol
# Density = 2.201818 g / cm^3
# Si number density = 22.068410 Si / 1000 Ang^3
#
#
#
# Elastic Constant Matrix: (Units=GPa)
#
#
# Indices 1 2 3 4 5 6 
#
# 1 62.7821 11.6196 4.1018 0.0000 0.0000 0.0000
# 2 11.6196 64.8500 -0.2733 0.0000 0.0000 0.0000
# 3 4.1018 -0.2733 42.9844 0.0000 0.0000 0.0000
# 4 0.0000 0.0000 0.0000 20.9220 0.0000 0.0000
# 5 0.0000 0.0000 0.0000 0.0000 16.1381 0.0000
# 6 0.0000 0.0000 0.0000 0.0000 0.0000 15.6993
#
#
#
# Elastic Compliance Matrix: (Units=1/GPa)
#
#
# Indices 1 2 3 4 5 6 
#
# 1 0.016584 -0.002978 -0.001601 0.000000 0.000000 0.000000
# 2 -0.002978 0.015955 0.000386 0.000000 0.000000 0.000000
# 3 -0.001601 0.000386 0.023420 0.000000 0.000000 0.000000
# 4 0.000000 0.000000 0.000000 0.047797 0.000000 0.000000
# 5 0.000000 0.000000 0.000000 0.000000 0.061965 0.000000
# 6 0.000000 0.000000 0.000000 0.000000 0.000000 0.063697
#
#
# Mechanical properties :
#
#
# Convention : Reuss Voigt Hill
#
# Bulk Modulus (GPa) = 21.02126 22.39030 21.70578
# Shear Modulus (GPa) = 19.71120 20.89643 20.30381
#
# Velocity S-wave (km/s) = 2.99186 3.08050 3.03651
# Velocity P-wave (km/s) = 4.63478 4.77708 4.70647
#
# Compressibility (1/GPa) = 0.04757088
#
# Stress axis : x y z
#
# Youngs Moduli (GPa) = 60.29934 62.67452 42.69936
#
# Poissons Ratio (x) = 0.18666 0.06838
# Poissons Ratio (y) = 0.17958 -0.01647
# Poissons Ratio (z) = 0.09657 -0.02417
#
# Static dielectric constant tensor:
#      x y z
#    x 1.829100 0.000000 0.000000 
#    y 0.000000 1.849100 0.000000 
#    z 0.000000 0.000000 1.812100 
# 
# From -- ./inp_files/18593.got.cif
#   From: 2010.05.17/outbox.cif.g08.bks.cpg/sg67_10_cif.got.tgz:18593.got - 2010.06.03 18:28:57.
