data_PCOD9503130
_publ_section_title
;
Structure prediction by ZEFSAII (Michael W. Deem and Ramdas Pophale) SiO2 
 PCOD9503130
Probable space group: C M M A
;
_chemical_formula_sum "Si O2"
_cell_formula_units_Z 80
_cell_length_a 19.675621
_cell_length_b 8.598569
_cell_length_c 25.923949
_cell_angle_alpha 90.000000
_cell_angle_beta 90.000000
_cell_angle_gamma 90.000000
_cell_volume 4385.870330
_symmetry_space_group_name_H-M "C M M A"
_symmetry_group_IT_number 67
_symmetry_cell_setting 'orthorhombic'
loop_
_space_group_symop_operation_xyz
x,y,z
-x,1/2-y,z
x,-y,-z
-x,1/2+y,-z
-x,-y,-z
x,1/2+y,-z
-x,y,z
x,1/2-y,z
1/2+x,1/2+y,z
1/2-x,-y,z
1/2+x,1/2-y,-z
1/2-x,y,-z
1/2-x,1/2-y,-z
1/2+x,y,-z
1/2-x,1/2+y,z
1/2+x,-y,z
loop_
_atom_site_type_symbol
_atom_site_label
_atom_site_fract_x
_atom_site_fract_y
_atom_site_fract_z
Si Si1 0.675069 0.437491 0.147215
Si Si2 0.325766 0.562943 0.734626
Si Si3 0.823626 0.564210 0.442316
Si Si4 0.578584 0.437797 0.055048
Si Si5 0.420800 0.563364 0.354880
O O1 0.676571 0.250000 0.146129
O O2 0.750000 0.500000 0.135895
O O3 0.657823 0.482411 0.206109
O O4 0.622740 0.491231 0.103641
O O5 0.324934 0.750000 0.730774
O O6 0.250000 0.500000 0.723115
O O7 0.380174 0.495178 0.695151
O O8 0.834676 0.500000 0.500000
O O9 0.820832 0.750000 0.443514
O O10 0.750000 0.500000 0.424715
O O11 0.881825 0.506832 0.404002
O O12 0.500000 0.487038 0.060734
O O13 0.580083 0.250000 0.053771
O O14 0.603893 0.500000 0.000000
O O15 0.500000 0.517368 0.353502
O O16 0.417146 0.750000 0.357414
#
# Coordination Sequence:
#
# PCOD9503130 Si02
#       5
#    16  16  16  16  16
#     4   9  19  34  53  77 104 135 171 216 265 314
#     4  10  20  36  58  81 107 141 181 223 270 324
#     4  11  22  39  63  88 115 147 186 227 269 320
#     4   9  18  33  51  72 100 135 174 214 259 312
#     4  11  24  40  57  81 114 148 183 225 272 321
#
# _framework density 18.240393999999998
#
# number of rings (size 3 to 8) (size 9 to 14) (size 15 to 20)
#    0.000    2.000    0.000    4.200    0.000    4.800 
#    0.000    4.000    0.000    2.400    0.000    0.000 
#    0.000    0.000    0.000    0.000    0.000    0.000 
#
# Total GULP energy -223395.401028 kJ/mol
# GULP energy per Si atom -5584.885026 kJ/mol
# Density = 1.819888 g / cm^3
# Si number density = 18.240394 Si / 1000 Ang^3
#
#
#
# Elastic Constant Matrix: (Units=GPa)
#
#
# Indices 1 2 3 4 5 6 
#
# 1 149.6815 52.8326 116.7921 0.0000 0.0000 0.0000
# 2 52.8326 68.3457 45.8614 0.0000 0.0000 0.0000
# 3 116.7921 45.8614 138.8558 0.0000 0.0000 0.0000
# 4 0.0000 0.0000 0.0000 31.7277 0.0000 0.0000
# 5 0.0000 0.0000 0.0000 0.0000 211.8697 0.0000
# 6 0.0000 0.0000 0.0000 0.0000 0.0000 26.4728
#
#
#
# Elastic Compliance Matrix: (Units=1/GPa)
#
#
# Indices 1 2 3 4 5 6 
#
# 1 0.020997 -0.005628 -0.015802 0.000000 0.000000 0.000000
# 2 -0.005628 0.020306 -0.001973 0.000000 0.000000 0.000000
# 3 -0.015802 -0.001973 0.021145 0.000000 0.000000 0.000000
# 4 0.000000 0.000000 0.000000 0.031518 0.000000 0.000000
# 5 0.000000 0.000000 0.000000 0.000000 0.004720 0.000000
# 6 0.000000 0.000000 0.000000 0.000000 0.000000 0.037775
#
#
# Mechanical properties :
#
#
# Convention : Reuss Voigt Hill
#
# Bulk Modulus (GPa) = 63.93148 87.53948 75.73548
# Shear Modulus (GPa) = 26.52804 63.44049 44.98427
#
# Velocity S-wave (km/s) = 3.81774 5.90387 4.97146
# Velocity P-wave (km/s) = 7.38641 9.72474 8.63509
#
# Compressibility (1/GPa) = 0.01564175
#
# Stress axis : x y z
#
# Youngs Moduli (GPa) = 47.62568 49.24691 47.29355
#
# Poissons Ratio (x) = 0.27715 0.74733
# Poissons Ratio (y) = 0.26802 0.09332
# Poissons Ratio (z) = 0.75258 0.09717
#
# Static dielectric constant tensor:
#      x y z
#    x 1.598110 0.000000 0.000000 
#    y 0.000000 1.618300 0.000000 
#    z 0.000000 0.000000 1.623320 
# 
# From -- ./inp_files/43345.got.cif
#   From: 2010.05.17/outbox.cif.g08.bks.cpg/sg67_22_cif.got.tgz:43345.got - 2010.06.03 18:28:57.
