data_PCOD9503334
_publ_section_title
;
Structure prediction by ZEFSAII (Michael W. Deem and Ramdas Pophale) SiO2 
 PCOD9503334
Probable space group: C M M A
;
_chemical_formula_sum "Si O2"
_cell_formula_units_Z 104
_cell_length_a 8.792124
_cell_length_b 20.648443
_cell_length_c 29.610949
_cell_angle_alpha 90.000000
_cell_angle_beta 90.000000
_cell_angle_gamma 90.000000
_cell_volume 5375.680391
_symmetry_space_group_name_H-M "C M M A"
_symmetry_group_IT_number 67
_symmetry_cell_setting 'orthorhombic'
loop_
_space_group_symop_operation_xyz
x,y,z
-x,1/2-y,z
x,-y,-z
-x,1/2+y,-z
-x,-y,-z
x,1/2+y,-z
-x,y,z
x,1/2-y,z
1/2+x,1/2+y,z
1/2-x,-y,z
1/2+x,1/2-y,-z
1/2-x,y,-z
1/2-x,1/2-y,-z
1/2+x,y,-z
1/2-x,1/2+y,z
1/2+x,-y,z
loop_
_atom_site_type_symbol
_atom_site_label
_atom_site_fract_x
_atom_site_fract_y
_atom_site_fract_z
Si Si1 0.181586 0.250000 0.049673
Si Si2 0.817362 0.676158 0.297572
Si Si3 0.180096 0.675638 0.801862
Si Si4 0.683731 0.176438 0.449979
Si Si5 0.682577 0.892423 0.050285
Si Si6 0.179296 0.936941 0.140182
Si Si7 0.316075 0.572924 0.625466
O O1 0.225087 0.319726 0.067529
O O2 0.000000 0.250000 0.047418
O O3 0.250000 0.250000 0.000000
O O4 0.787105 0.750000 0.314857
O O5 0.732473 0.669450 0.249999
O O6 0.775222 0.618388 0.331591
O O7 0.000000 0.672514 0.290372
O O8 0.208658 0.750000 0.815866
O O9 0.270602 0.625676 0.832219
O O10 0.000000 0.663583 0.806245
O O11 0.500000 0.175205 0.451685
O O12 0.726446 0.250000 0.434610
O O13 0.750000 0.167867 0.500000
O O14 0.731554 0.117914 0.417147
O O15 0.500000 0.898545 0.047769
O O16 0.751367 0.934003 0.089991
O O17 0.750000 0.902751 0.000000
O O18 0.000000 0.942206 0.137495
O O19 0.250000 0.000000 0.163535
O O20 0.500000 0.567738 0.624664
O O21 0.250000 0.500000 0.625948
#
# Coordination Sequence:
#
# PCOD9503334 Si02
#       7
#     8  16  16  16  16  16  16
#     4   8  16  30  52  80 112 144 178 222 272 320
#     4   9  18  36  61  85 110 145 191 237 281 335
#     4  10  22  41  65  92 121 152 188 235 289 345
#     4   9  18  34  55  78 106 145 194 243 290 339
#     4  10  20  37  59  87 119 155 194 237 286 338
#     4  12  26  43  62  87 118 156 197 239 288 344
#     4  10  21  35  53  80 114 151 189 234 288 345
#
# _framework density 19.346388999999999
#
# number of rings (size 3 to 8) (size 9 to 14) (size 15 to 20)
#    0.000    2.154    0.000    2.769    1.077    5.846 
#    0.000    4.615    0.000    4.615    0.000    0.000 
#    0.000    0.000    0.000    0.000    0.000    0.000 
#
# Total GULP energy -290053.152239 kJ/mol
# GULP energy per Si atom -5577.945235 kJ/mol
# Density = 1.930236 g / cm^3
# Si number density = 19.346389 Si / 1000 Ang^3
#
#
#
# Elastic Constant Matrix: (Units=GPa)
#
#
# Indices 1 2 3 4 5 6 
#
# 1 51.5896 48.9846 30.5173 0.0000 0.0000 0.0000
# 2 48.9846 149.6810 55.5676 0.0000 0.0000 0.0000
# 3 30.5173 55.5676 68.5275 0.0000 0.0000 0.0000
# 4 0.0000 0.0000 0.0000 7.5714 0.0000 0.0000
# 5 0.0000 0.0000 0.0000 0.0000 25.9720 0.0000
# 6 0.0000 0.0000 0.0000 0.0000 0.0000 27.2315
#
#
#
# Elastic Compliance Matrix: (Units=1/GPa)
#
#
# Indices 1 2 3 4 5 6 
#
# 1 0.030880 -0.007154 -0.007950 0.000000 0.000000 0.000000
# 2 -0.007154 0.011216 -0.005909 0.000000 0.000000 0.000000
# 3 -0.007950 -0.005909 0.022924 0.000000 0.000000 0.000000
# 4 0.000000 0.000000 0.000000 0.132076 0.000000 0.000000
# 5 0.000000 0.000000 0.000000 0.000000 0.038503 0.000000
# 6 0.000000 0.000000 0.000000 0.000000 0.000000 0.036722
#
#
# Mechanical properties :
#
#
# Convention : Reuss Voigt Hill
#
# Bulk Modulus (GPa) = 43.49090 59.99301 51.74195
# Shear Modulus (GPa) = 15.52740 21.13690 18.33215
#
# Velocity S-wave (km/s) = 2.83609 3.30896 3.08161
# Velocity P-wave (km/s) = 5.76658 6.75842 6.28210
#
# Compressibility (1/GPa) = 0.02299332
#
# Stress axis : x y z
#
# Youngs Moduli (GPa) = 32.38382 89.16115 43.62161
#
# Poissons Ratio (x) = 0.63787 0.34681
# Poissons Ratio (y) = 0.23168 0.25774
# Poissons Ratio (z) = 0.25747 0.52682
#
# Static dielectric constant tensor:
#      x y z
#    x 1.640780 0.000000 0.000000 
#    y 0.000000 1.765000 0.000000 
#    z 0.000000 0.000000 1.658950 
# 
# From -- ./inp_files/43581.got.cif
#   From: 2010.05.17/outbox.cif.g08.bks.cpg/sg67_22_cif.got.tgz:43581.got - 2010.06.03 18:28:57.
