data_PCOD9503682
_publ_section_title
;
Structure prediction by ZEFSAII (Michael W. Deem and Ramdas Pophale) SiO2 
 PCOD9503682
Probable space group: C M M A
;
_chemical_formula_sum "Si O2"
_cell_formula_units_Z 96
_cell_length_a 23.252902
_cell_length_b 14.902823
_cell_length_c 14.997950
_cell_angle_alpha 90.000000
_cell_angle_beta 90.000000
_cell_angle_gamma 90.000000
_cell_volume 5197.297847
_symmetry_space_group_name_H-M "C M M A"
_symmetry_group_IT_number 67
_symmetry_cell_setting 'orthorhombic'
loop_
_space_group_symop_operation_xyz
x,y,z
-x,1/2-y,z
x,-y,-z
-x,1/2+y,-z
-x,-y,-z
x,1/2+y,-z
-x,y,z
x,1/2-y,z
1/2+x,1/2+y,z
1/2-x,-y,z
1/2+x,1/2-y,-z
1/2-x,y,-z
1/2-x,1/2-y,-z
1/2+x,y,-z
1/2-x,1/2+y,z
1/2+x,-y,z
loop_
_atom_site_type_symbol
_atom_site_label
_atom_site_fract_x
_atom_site_fract_y
_atom_site_fract_z
Si Si1 0.093168 0.500000 0.000000
Si Si2 0.000000 0.854949 0.059152
Si Si3 0.624687 0.506425 0.196139
Si Si4 0.000000 0.940403 0.245552
Si Si5 0.681743 0.856317 0.326662
Si Si6 0.872057 0.853431 0.489662
Si Si7 0.318211 0.643778 0.693522
Si Si8 0.500000 0.597835 0.544331
O O1 0.127302 0.517481 0.909631
O O2 0.053578 0.412917 0.978246
O O3 0.000000 0.865622 0.167136
O O4 0.000000 0.750000 0.035374
O O5 0.558062 0.495965 0.226347
O O6 0.652811 0.588326 0.248217
O O7 0.657271 0.416219 0.227186
O O8 0.000000 0.906557 0.347520
O O9 0.669089 0.750000 0.319494
O O10 0.656086 0.890854 0.420786
O O11 0.750321 0.867269 0.321383
O O12 0.852883 0.750000 0.487781
O O13 0.849510 0.890696 0.396221
O O14 0.940827 0.858316 0.488410
O O15 0.330422 0.750000 0.706828
O O16 0.500000 0.500000 0.500000
#
# Coordination Sequence:
#
# PCOD9503682 Si02
#       8
#     8   8  16   8  16  16  16   8
#     4   9  22  38  57  90 122 144 201 249 296 370
#     4   9  19  38  63  86 116 158 196 247 302 357
#     4  11  21  40  60  85 117 155 188 247 300 352
#     4  10  21  35  56  89 120 148 201 241 284 362
#     4  10  22  39  58  83 116 157 202 239 286 353
#     4  10  21  36  55  82 118 152 192 243 292 346
#     4  10  21  38  61  86 111 150 203 251 292 341
#     4  12  21  33  51  85 125 158 188 236 289 354
#
# _framework density 18.471136999999999
#
# number of rings (size 3 to 8) (size 9 to 14) (size 15 to 20)
#    0.000    1.833    1.667    2.750    0.000    6.000 
#    0.000    4.583    0.000    2.000    0.000    0.000 
#    0.000    0.000    0.000    0.000    0.000    0.000 
#
# Total GULP energy -267896.319974 kJ/mol
# GULP energy per Si atom -5581.173333 kJ/mol
# Density = 1.842910 g / cm^3
# Si number density = 18.471137 Si / 1000 Ang^3
#
#
#
# Elastic Constant Matrix: (Units=GPa)
#
#
# Indices 1 2 3 4 5 6 
#
# 1 83.0339 22.8148 31.9392 0.0000 0.0000 0.0000
# 2 22.8148 87.3227 34.8285 0.0000 0.0000 0.0000
# 3 31.9392 34.8285 140.0346 0.0000 0.0000 0.0000
# 4 0.0000 0.0000 0.0000 14.4460 0.0000 0.0000
# 5 0.0000 0.0000 0.0000 0.0000 7.2250 0.0000
# 6 0.0000 0.0000 0.0000 0.0000 0.0000 11.5191
#
#
#
# Elastic Compliance Matrix: (Units=1/GPa)
#
#
# Indices 1 2 3 4 5 6 
#
# 1 0.013710 -0.002592 -0.002482 0.000000 0.000000 0.000000
# 2 -0.002592 0.013203 -0.002693 0.000000 0.000000 0.000000
# 3 -0.002482 -0.002693 0.008377 0.000000 0.000000 0.000000
# 4 0.000000 0.000000 0.000000 0.069223 0.000000 0.000000
# 5 0.000000 0.000000 0.000000 0.000000 0.138409 0.000000
# 6 0.000000 0.000000 0.000000 0.000000 0.000000 0.086812
#
#
# Mechanical properties :
#
#
# Convention : Reuss Voigt Hill
#
# Bulk Modulus (GPa) = 50.61679 54.39513 52.50596
# Shear Modulus (GPa) = 14.21043 21.35859 17.78451
#
# Velocity S-wave (km/s) = 2.77669 3.40416 3.10631
# Velocity P-wave (km/s) = 6.14351 6.70550 6.43065
#
# Compressibility (1/GPa) = 0.01975629
#
# Stress axis : x y z
#
# Youngs Moduli (GPa) = 72.93772 75.74088 119.37511
#
# Poissons Ratio (x) = 0.19632 0.29634
# Poissons Ratio (y) = 0.18905 0.32142
# Poissons Ratio (z) = 0.18106 0.20394
#
# Static dielectric constant tensor:
#      x y z
#    x 1.631910 0.000000 0.000000 
#    y 0.000000 1.649490 0.000000 
#    z 0.000000 0.000000 1.636930 
# 
# From -- ./inp_files/27456.got.cif
#   From: 2010.05.17/outbox.cif.g08.bks.cpg/sg67_14_cif.got.tgz:27456.got - 2010.06.03 18:28:57.
