data_PCOD9503727
_publ_section_title
;
Structure prediction by ZEFSAII (Michael W. Deem and Ramdas Pophale) SiO2 
 PCOD9503727
Probable space group: C M M A
;
_chemical_formula_sum "Si O2"
_cell_formula_units_Z 112
_cell_length_a 30.787799
_cell_length_b 14.455824
_cell_length_c 11.622342
_cell_angle_alpha 90.000000
_cell_angle_beta 90.000000
_cell_angle_gamma 90.000000
_cell_volume 5172.674440
_symmetry_space_group_name_H-M "C M M A"
_symmetry_group_IT_number 67
_symmetry_cell_setting 'orthorhombic'
loop_
_space_group_symop_operation_xyz
x,y,z
-x,1/2-y,z
x,-y,-z
-x,1/2+y,-z
-x,-y,-z
x,1/2+y,-z
-x,y,z
x,1/2-y,z
1/2+x,1/2+y,z
1/2-x,-y,z
1/2+x,1/2-y,-z
1/2-x,y,-z
1/2-x,1/2-y,-z
1/2+x,y,-z
1/2-x,1/2+y,z
1/2+x,-y,z
loop_
_atom_site_type_symbol
_atom_site_label
_atom_site_fract_x
_atom_site_fract_y
_atom_site_fract_z
Si Si1 0.707984 0.138771 0.930662
Si Si2 0.763223 0.397563 0.318741
Si Si3 0.107162 0.514408 0.744716
Si Si4 0.110643 0.858358 0.963143
Si Si5 0.656559 0.603121 0.457928
Si Si6 0.834875 0.152923 0.706549
Si Si7 0.550897 0.357352 0.188742
O O1 0.711022 0.250000 0.919640
O O2 0.712466 0.099376 0.803299
O O3 0.661437 0.119099 0.986440
O O4 0.750000 0.107230 0.000000
O O5 0.750000 0.500000 0.355633
O O6 0.799177 0.357435 0.404162
O O7 0.717072 0.349300 0.302734
O O8 0.098542 0.575990 0.856705
O O9 0.120514 0.583189 0.640086
O O10 0.147227 0.441806 0.759070
O O11 0.068459 0.439423 0.728982
O O12 0.108964 0.750000 0.928834
O O13 0.079185 0.869027 0.072025
O O14 0.667486 0.500000 0.500000
O O15 0.645826 0.652662 0.576850
O O16 0.846726 0.250000 0.766677
O O17 0.500000 0.369594 0.165535
O O18 0.556549 0.250000 0.228446
#
# Coordination Sequence:
#
# PCOD9503727 Si02
#       7
#    16  16  16  16  16  16  16
#     4  10  22  36  50  76 118 164 209 251 297 363
#     4  12  20  35  55  77 113 166 213 267 308 359
#     4  11  21  39  62  87 124 158 199 260 319 378
#     4  10  21  38  60  88 125 168 208 251 307 373
#     4  10  21  36  54  78 115 157 205 265 313 364
#     4  11  24  36  57  87 119 168 222 274 319 367
#     4  10  23  43  69  99 129 160 200 252 314 388
#
# _framework density 21.652242999999999
#
# number of rings (size 3 to 8) (size 9 to 14) (size 15 to 20)
#    0.000    1.429    4.286    1.714    2.000    3.714 
#    2.571    0.000    0.000    3.857    0.000    0.000 
#    0.000    9.143    0.000    0.000    0.000    0.000 
#
# Total GULP energy -312681.709993 kJ/mol
# GULP energy per Si atom -5583.601964 kJ/mol
# Density = 2.160296 g / cm^3
# Si number density = 21.652243 Si / 1000 Ang^3
#
#
#
# Elastic Constant Matrix: (Units=GPa)
#
#
# Indices 1 2 3 4 5 6 
#
# 1 131.1386 20.7782 19.7684 0.0000 0.0000 0.0000
# 2 20.7782 106.8678 8.2232 0.0000 0.0000 0.0000
# 3 19.7684 8.2232 54.9767 0.0000 0.0000 0.0000
# 4 0.0000 0.0000 0.0000 -24.9111 0.0000 0.0000
# 5 0.0000 0.0000 0.0000 0.0000 22.7768 0.0000
# 6 0.0000 0.0000 0.0000 0.0000 0.0000 18.8773
#
#
#
# Elastic Compliance Matrix: (Units=1/GPa)
#
#
# Indices 1 2 3 4 5 6 
#
# 1 0.008263 -0.001394 -0.002763 0.000000 0.000000 0.000000
# 2 -0.001394 0.009701 -0.000950 0.000000 0.000000 0.000000
# 3 -0.002763 -0.000950 0.019325 0.000000 0.000000 0.000000
# 4 0.000000 0.000000 0.000000 -0.040143 0.000000 0.000000
# 5 0.000000 0.000000 0.000000 0.000000 0.043904 0.000000
# 6 0.000000 0.000000 0.000000 0.000000 0.000000 0.052974
#
#
# Mechanical properties :
#
#
# Convention : Reuss Voigt Hill
#
# Bulk Modulus (GPa) = 36.93257 43.39141 40.16199
# Shear Modulus (GPa) = 44.14499 19.62947 31.88723
#
# Velocity S-wave (km/s) = 4.52023 3.01421 3.84174
# Velocity P-wave (km/s) = 6.65864 5.67429 6.18608
#
# Compressibility (1/GPa) = 0.02707637
#
# Stress axis : x y z
#
# Youngs Moduli (GPa) = 121.02383 103.07715 51.74653
#
# Poissons Ratio (x) = 0.14369 0.14296
# Poissons Ratio (y) = 0.16870 0.04915
# Poissons Ratio (z) = 0.33434 0.09791
#
# Static dielectric constant tensor:
#      x y z
#    x 1.798690 0.000000 0.000000 
#    y 0.000000 1.829940 0.000000 
#    z 0.000000 0.000000 1.832390 
# 
# From -- ./inp_files/23811.got.cif
#   From: 2010.05.17/outbox.cif.g08.bks.cpg/sg67_12_cif.got.tgz:23811.got - 2010.06.03 18:28:57.
