data_PCOD9503127
_publ_section_title
;
Structure prediction by ZEFSAII (Michael W. Deem and Ramdas Pophale) SiO2 
 PCOD9503127
Probable space group: C M M A
;
_chemical_formula_sum "Si O2"
_cell_formula_units_Z 80
_cell_length_a 18.082199
_cell_length_b 14.345724
_cell_length_c 16.417510
_cell_angle_alpha 90.000000
_cell_angle_beta 90.000000
_cell_angle_gamma 90.000000
_cell_volume 4258.738806
_symmetry_space_group_name_H-M "C M M A"
_symmetry_group_IT_number 67
_symmetry_cell_setting 'orthorhombic'
loop_
_space_group_symop_operation_xyz
x,y,z
-x,1/2-y,z
x,-y,-z
-x,1/2+y,-z
-x,-y,-z
x,1/2+y,-z
-x,y,z
x,1/2-y,z
1/2+x,1/2+y,z
1/2-x,-y,z
1/2+x,1/2-y,-z
1/2-x,y,-z
1/2-x,1/2-y,-z
1/2+x,y,-z
1/2-x,1/2+y,z
1/2+x,-y,z
loop_
_atom_site_type_symbol
_atom_site_label
_atom_site_fract_x
_atom_site_fract_y
_atom_site_fract_z
Si Si1 0.336135 0.024514 0.799179
Si Si2 0.837628 0.476955 0.383335
Si Si3 0.328792 0.360737 0.960848
Si Si4 0.588751 0.860120 0.526749
Si Si5 0.087486 0.645262 0.123221
O O1 0.352151 0.058437 0.708118
O O2 0.348324 0.091692 0.875861
O O3 0.250000 0.000000 0.801085
O O4 0.379710 0.929769 0.816269
O O5 0.750000 0.500000 0.393540
O O6 0.881469 0.573388 0.401093
O O7 0.868109 0.402651 0.448671
O O8 0.324317 0.250000 0.947820
O O9 0.250000 0.390698 0.000000
O O10 0.387699 0.379936 0.031653
O O11 0.500000 0.872095 0.517422
O O12 0.603507 0.750000 0.537859
O O13 0.116617 0.750000 0.138928
O O14 0.000000 0.646419 0.128712
#
# Coordination Sequence:
#
# PCOD9503127 Si02
#       5
#    16  16  16  16  16
#     4  11  22  35  57  87 117 152 192 237 292 347
#     4  10  22  37  57  90 121 145 187 242 289 344
#     4  10  20  36  58  80 112 157 198 236 284 344
#     4  10  21  40  64  84 111 156 196 231 289 357
#     4  10  22  38  56  82 114 151 198 245 290 343
#
# _framework density 18.784904999999998
#
# number of rings (size 3 to 8) (size 9 to 14) (size 15 to 20)
#    0.000    1.800    2.000    3.000    0.000    6.400 
#    0.000    6.000    0.000    2.400    0.000    0.000 
#    0.000    0.000    0.000    0.000    0.000    0.000 
#
# Total GULP energy -223229.667729 kJ/mol
# GULP energy per Si atom -5580.741693 kJ/mol
# Density = 1.874215 g / cm^3
# Si number density = 18.784905 Si / 1000 Ang^3
#
#
#
# Elastic Constant Matrix: (Units=GPa)
#
#
# Indices 1 2 3 4 5 6 
#
# 1 76.0324 24.6806 13.1088 0.0000 0.0000 0.0000
# 2 24.6806 71.5342 9.7319 0.0000 0.0000 0.0000
# 3 13.1088 9.7319 75.2706 0.0000 0.0000 0.0000
# 4 0.0000 0.0000 0.0000 10.2139 0.0000 0.0000
# 5 0.0000 0.0000 0.0000 0.0000 67.2136 0.0000
# 6 0.0000 0.0000 0.0000 0.0000 0.0000 21.3164
#
#
#
# Elastic Compliance Matrix: (Units=1/GPa)
#
#
# Indices 1 2 3 4 5 6 
#
# 1 0.015099 -0.004938 -0.001991 0.000000 0.000000 0.000000
# 2 -0.004938 0.015845 -0.001189 0.000000 0.000000 0.000000
# 3 -0.001991 -0.001189 0.013786 0.000000 0.000000 0.000000
# 4 0.000000 0.000000 0.000000 0.097906 0.000000 0.000000
# 5 0.000000 0.000000 0.000000 0.000000 0.014878 0.000000
# 6 0.000000 0.000000 0.000000 0.000000 0.000000 0.046912
#
#
# Mechanical properties :
#
#
# Convention : Reuss Voigt Hill
#
# Bulk Modulus (GPa) = 35.09597 35.31998 35.20797
# Shear Modulus (GPa) = 21.72408 31.43651 26.58030
#
# Velocity S-wave (km/s) = 3.40437 4.09528 3.76571
# Velocity P-wave (km/s) = 5.84608 6.41910 6.13928
#
# Compressibility (1/GPa) = 0.02849330
#
# Stress axis : x y z
#
# Youngs Moduli (GPa) = 66.23130 63.11191 72.53836
#
# Poissons Ratio (x) = 0.31167 0.14442
# Poissons Ratio (y) = 0.32708 0.08622
# Poissons Ratio (z) = 0.13187 0.07501
#
# Static dielectric constant tensor:
#      x y z
#    x 1.637070 0.000000 0.000000 
#    y 0.000000 1.670620 0.000000 
#    z 0.000000 0.000000 1.660360 
# 
# From -- ./inp_files/34093.got.cif
#   From: 2010.05.17/outbox.cif.g08.bks.cpg/sg67_18_cif.got.tgz:34093.got - 2010.06.03 18:28:57.
