data_PCOD9503121
_publ_section_title
;
Structure prediction by ZEFSAII (Michael W. Deem and Ramdas Pophale) SiO2 
 PCOD9503121
Probable space group: C M M A
;
_chemical_formula_sum "Si O2"
_cell_formula_units_Z 96
_cell_length_a 22.173137
_cell_length_b 14.685063
_cell_length_c 14.358321
_cell_angle_alpha 90.000000
_cell_angle_beta 90.000000
_cell_angle_gamma 90.000000
_cell_volume 4675.269096
_symmetry_space_group_name_H-M "C M M A"
_symmetry_group_IT_number 67
_symmetry_cell_setting 'orthorhombic'
loop_
_space_group_symop_operation_xyz
x,y,z
-x,1/2-y,z
x,-y,-z
-x,1/2+y,-z
-x,-y,-z
x,1/2+y,-z
-x,y,z
x,1/2-y,z
1/2+x,1/2+y,z
1/2-x,-y,z
1/2+x,1/2-y,-z
1/2-x,y,-z
1/2-x,1/2-y,-z
1/2+x,y,-z
1/2-x,1/2+y,z
1/2+x,-y,z
loop_
_atom_site_type_symbol
_atom_site_label
_atom_site_fract_x
_atom_site_fract_y
_atom_site_fract_z
Si Si1 0.883812 0.989837 0.391581
Si Si2 0.278849 0.649510 0.601404
Si Si3 0.929820 0.601442 0.039518
Si Si4 0.929476 0.851226 0.245935
Si Si5 0.164356 0.644833 0.733067
Si Si6 0.806652 0.854739 0.937886
O O1 0.878360 0.082315 0.331739
O O2 0.901583 0.000000 0.500000
O O3 0.819569 0.938832 0.389984
O O4 0.920991 0.916623 0.333069
O O5 0.309309 0.750000 0.605191
O O6 0.250000 0.645129 0.500000
O O7 0.227346 0.648293 0.678393
O O8 0.911901 0.603702 0.148131
O O9 0.000000 0.637773 0.028519
O O10 0.932360 0.500000 0.000000
O O11 0.871616 0.645030 0.989268
O O12 0.901910 0.750000 0.252338
O O13 0.000000 0.839414 0.237077
O O14 0.141847 0.750000 0.741158
O O15 0.178834 0.604916 0.835553
O O16 0.788879 0.750000 0.917935
O O17 0.750000 0.891522 0.000000
#
# Coordination Sequence:
#
# PCOD9503121 Si02
#       6
#    16  16  16  16  16  16
#     4  12  23  36  62  88 117 160 210 255 317 382
#     4  10  20  36  57  84 119 159 202 249 306 378
#     4  10  21  40  65  92 124 165 213 262 315 383
#     4  10  23  42  64  92 124 162 213 269 321 379
#     4  10  22  38  56  85 128 163 199 255 314 380
#     4  10  22  39  58  87 124 161 202 254 314 374
#
# _framework density 20.533577999999999
#
# number of rings (size 3 to 8) (size 9 to 14) (size 15 to 20)
#    0.000    1.667    1.667    2.500    2.333    2.333 
#    3.000    0.000    0.000    1.500    0.000    0.000 
#    0.000    0.000    0.000    0.000    0.000    0.000 
#
# Total GULP energy -267338.659130 kJ/mol
# GULP energy per Si atom -5569.555399 kJ/mol
# Density = 2.048684 g / cm^3
# Si number density = 20.533578 Si / 1000 Ang^3
#
#
#
# Elastic Constant Matrix: (Units=GPa)
#
#
# Indices 1 2 3 4 5 6 
#
# 1 52.4356 4.5359 36.9108 0.0000 0.0000 0.0000
# 2 4.5359 105.1645 40.1414 0.0000 0.0000 0.0000
# 3 36.9108 40.1414 171.8677 0.0000 0.0000 0.0000
# 4 0.0000 0.0000 0.0000 77.8577 0.0000 0.0000
# 5 0.0000 0.0000 0.0000 0.0000 31.0807 0.0000
# 6 0.0000 0.0000 0.0000 0.0000 0.0000 16.1091
#
#
#
# Elastic Compliance Matrix: (Units=1/GPa)
#
#
# Indices 1 2 3 4 5 6 
#
# 1 0.022556 0.000962 -0.005069 0.000000 0.000000 0.000000
# 2 0.000962 0.010481 -0.002654 0.000000 0.000000 0.000000
# 3 -0.005069 -0.002654 0.007527 0.000000 0.000000 0.000000
# 4 0.000000 0.000000 0.000000 0.012844 0.000000 0.000000
# 5 0.000000 0.000000 0.000000 0.000000 0.032174 0.000000
# 6 0.000000 0.000000 0.000000 0.000000 0.000000 0.062077
#
#
# Mechanical properties :
#
#
# Convention : Reuss Voigt Hill
#
# Bulk Modulus (GPa) = 36.98119 54.73823 45.85971
# Shear Modulus (GPa) = 29.37809 41.53481 35.45645
#
# Velocity S-wave (km/s) = 3.78661 4.50241 4.15993
# Velocity P-wave (km/s) = 6.09648 7.33108 6.74210
#
# Compressibility (1/GPa) = 0.02704078
#
# Stress axis : x y z
#
# Youngs Moduli (GPa) = 44.33434 95.41422 132.85519
#
# Poissons Ratio (x) = -0.09178 0.67342
# Poissons Ratio (y) = -0.04265 0.35265
# Poissons Ratio (z) = 0.22472 0.25327
#
# Static dielectric constant tensor:
#      x y z
#    x 1.747950 0.000000 0.000000 
#    y 0.000000 1.796150 0.000000 
#    z 0.000000 0.000000 1.747660 
# 
# From -- ./inp_files/29303.got.cif
#   From: 2010.05.17/outbox.cif.g08.bks.cpg/sg67_15_cif.got.tgz:29303.got - 2010.06.03 18:28:57.
