data_PCOD9503674
_publ_section_title
;
Structure prediction by ZEFSAII (Michael W. Deem and Ramdas Pophale) SiO2 
 PCOD9503674
Probable space group: C M M A
;
_chemical_formula_sum "Si O2"
_cell_formula_units_Z 96
_cell_length_a 24.163766
_cell_length_b 14.131209
_cell_length_c 14.930461
_cell_angle_alpha 90.000000
_cell_angle_beta 90.000000
_cell_angle_gamma 90.000000
_cell_volume 5098.203402
_symmetry_space_group_name_H-M "C M M A"
_symmetry_group_IT_number 67
_symmetry_cell_setting 'orthorhombic'
loop_
_space_group_symop_operation_xyz
x,y,z
-x,1/2-y,z
x,-y,-z
-x,1/2+y,-z
-x,-y,-z
x,1/2+y,-z
-x,y,z
x,1/2-y,z
1/2+x,1/2+y,z
1/2-x,-y,z
1/2+x,1/2-y,-z
1/2-x,y,-z
1/2-x,1/2-y,-z
1/2+x,y,-z
1/2-x,1/2+y,z
1/2+x,-y,z
loop_
_atom_site_type_symbol
_atom_site_label
_atom_site_fract_x
_atom_site_fract_y
_atom_site_fract_z
Si Si1 0.768833 0.864731 0.902420
Si Si2 0.123602 0.998001 0.358095
Si Si3 0.500000 0.140877 0.774659
Si Si4 0.786234 0.860256 0.278568
Si Si5 0.880740 0.638313 0.809972
Si Si6 0.199789 0.140806 0.432710
Si Si7 0.000000 0.005924 0.607989
O O1 0.765722 0.750000 0.901264
O O2 0.728905 0.895445 0.820847
O O3 0.832361 0.887855 0.878624
O O4 0.750000 0.896075 0.000000
O O5 0.122105 0.069873 0.274486
O O6 0.149010 0.068811 0.433210
O O7 0.062444 0.955876 0.373818
O O8 0.167694 0.918693 0.330919
O O9 0.500000 0.250000 0.744883
O O10 0.445208 0.127122 0.834377
O O11 0.500000 0.080590 0.681862
O O12 0.802181 0.750000 0.274778
O O13 0.729931 0.865584 0.336327
O O14 0.872266 0.750000 0.786549
O O15 0.183385 0.250000 0.449262
O O16 0.250000 0.117584 0.500000
O O17 0.000000 0.000000 0.500000
#
# Coordination Sequence:
#
# PCOD9503674 Si02
#       7
#    16  16   8  16  16  16   8
#     4   9  17  31  53  82 116 144 173 226 285 333
#     4  11  21  36  57  73 108 147 182 227 278 315
#     4   8  16  32  54  75 101 141 179 223 277 321
#     4  10  21  36  53  79 111 146 187 223 270 332
#     4   9  16  30  52  78 105 135 174 220 271 330
#     4  10  21  35  56  85 111 138 177 224 275 335
#     4  10  24  38  50  79 105 139 193 233 267 330
#
# _framework density 18.830162999999999
#
# number of rings (size 3 to 8) (size 9 to 14) (size 15 to 20)
#    0.000    2.333    1.667    1.000    2.333    1.333 
#    0.000    2.917    0.000    1.000    0.000    7.000 
#    0.000    0.000    0.000    0.000    0.000    0.000 
#
# Total GULP energy -267319.082038 kJ/mol
# GULP energy per Si atom -5569.147542 kJ/mol
# Density = 1.878730 g / cm^3
# Si number density = 18.830163 Si / 1000 Ang^3
#
#
#
# Elastic Constant Matrix: (Units=GPa)
#
#
# Indices 1 2 3 4 5 6 
#
# 1 142.8709 43.3558 26.2073 0.0000 0.0000 0.0000
# 2 43.3558 67.2812 7.8275 0.0000 0.0000 0.0000
# 3 26.2073 7.8275 75.6532 0.0000 0.0000 0.0000
# 4 0.0000 0.0000 0.0000 9.5723 0.0000 0.0000
# 5 0.0000 0.0000 0.0000 0.0000 28.1933 0.0000
# 6 0.0000 0.0000 0.0000 0.0000 0.0000 49.7712
#
#
#
# Elastic Compliance Matrix: (Units=1/GPa)
#
#
# Indices 1 2 3 4 5 6 
#
# 1 0.009179 -0.005613 -0.002599 0.000000 0.000000 0.000000
# 2 -0.005613 0.018476 0.000033 0.000000 0.000000 0.000000
# 3 -0.002599 0.000033 0.014115 0.000000 0.000000 0.000000
# 4 0.000000 0.000000 0.000000 0.104468 0.000000 0.000000
# 5 0.000000 0.000000 0.000000 0.000000 0.035469 0.000000
# 6 0.000000 0.000000 0.000000 0.000000 0.000000 0.020092
#
#
# Mechanical properties :
#
#
# Convention : Reuss Voigt Hill
#
# Bulk Modulus (GPa) = 39.35116 48.95407 44.15262
# Shear Modulus (GPa) = 22.06252 31.40169 26.73210
#
# Velocity S-wave (km/s) = 3.42666 4.08809 3.77190
# Velocity P-wave (km/s) = 6.04974 6.95251 6.51678
#
# Compressibility (1/GPa) = 0.02541221
#
# Stress axis : x y z
#
# Youngs Moduli (GPa) = 108.94020 54.12414 70.84560
#
# Poissons Ratio (x) = 0.30379 0.18414
# Poissons Ratio (y) = 0.61146 -0.00232
# Poissons Ratio (z) = 0.28315 -0.00177
#
# Static dielectric constant tensor:
#      x y z
#    x 1.704450 0.000000 0.000000 
#    y 0.000000 1.681110 0.000000 
#    z 0.000000 0.000000 1.689890 
# 
# From -- ./inp_files/30099.got.cif
#   From: 2010.05.17/outbox.cif.g08.bks.cpg/sg67_16_cif.got.tgz:30099.got - 2010.06.03 18:28:57.
