data_PCOD9503070
_publ_section_title
;
Structure prediction by ZEFSAII (Michael W. Deem and Ramdas Pophale) SiO2 
 PCOD9503070
Probable space group: C M M A
;
_chemical_formula_sum "Si O2"
_cell_formula_units_Z 96
_cell_length_a 24.117237
_cell_length_b 8.054006
_cell_length_c 26.603730
_cell_angle_alpha 90.000000
_cell_angle_beta 90.000000
_cell_angle_gamma 90.000000
_cell_volume 5167.518399
_symmetry_space_group_name_H-M "C M M A"
_symmetry_group_IT_number 67
_symmetry_cell_setting 'orthorhombic'
loop_
_space_group_symop_operation_xyz
x,y,z
-x,1/2-y,z
x,-y,-z
-x,1/2+y,-z
-x,-y,-z
x,1/2+y,-z
-x,y,z
x,1/2-y,z
1/2+x,1/2+y,z
1/2-x,-y,z
1/2+x,1/2-y,-z
1/2-x,y,-z
1/2-x,1/2-y,-z
1/2+x,y,-z
1/2-x,1/2+y,z
1/2+x,-y,z
loop_
_atom_site_type_symbol
_atom_site_label
_atom_site_fract_x
_atom_site_fract_y
_atom_site_fract_z
Si Si1 0.000000 0.065102 0.711845
Si Si2 0.618330 0.943040 0.846315
Si Si3 0.890971 0.448521 0.340990
Si Si4 0.686179 0.550889 0.749637
Si Si5 0.435947 0.450604 0.057115
Si Si6 0.500000 0.561721 0.184637
Si Si7 0.436163 0.949243 0.443722
O O1 0.000000 0.250000 0.733734
O O2 0.945075 0.037830 0.680503
O O3 0.000000 0.931969 0.755546
O O4 0.634461 0.750000 0.851032
O O5 0.655103 0.013994 0.800509
O O6 0.610107 0.013243 0.902930
O O7 0.554962 0.962263 0.828874
O O8 0.898521 0.250000 0.338966
O O9 0.841988 0.490626 0.302220
O O10 0.893095 0.498630 0.399864
O O11 0.680812 0.750000 0.750001
O O12 0.750000 0.500000 0.751421
O O13 0.500000 0.506789 0.068019
O O14 0.436660 0.250000 0.060582
O O15 0.423922 0.500000 0.000000
O O16 0.500000 0.750000 0.164626
O O17 0.500000 0.009974 0.434228
O O18 0.438999 0.750000 0.442678
O O19 0.420556 0.000000 0.500000
#
# Coordination Sequence:
#
# PCOD9503070 Si02
#       7
#     8  16  16  16  16   8  16
#     4  12  22  32  49  78 113 148 181 215 271 335
#     4  10  20  36  55  76 108 146 181 219 271 328
#     4  11  21  36  56  81 113 145 183 229 272 320
#     4  11  24  40  59  80 105 142 185 230 282 333
#     4   9  17  30  49  75 110 145 176 215 260 318
#     4  12  22  30  49  80 111 142 177 219 269 325
#     4   9  18  32  50  78 115 150 181 217 262 317
#
# _framework density 18.577583000000001
#
# number of rings (size 3 to 8) (size 9 to 14) (size 15 to 20)
#    0.000    1.667    3.333    2.500    0.000    2.667 
#    0.000    0.000    0.000    1.000    0.000    7.000 
#    0.000    0.000    0.000    0.000    0.000    0.000 
#
# Total GULP energy -267378.023849 kJ/mol
# GULP energy per Si atom -5570.375497 kJ/mol
# Density = 1.853530 g / cm^3
# Si number density = 18.577583 Si / 1000 Ang^3
#
#
#
# Elastic Constant Matrix: (Units=GPa)
#
#
# Indices 1 2 3 4 5 6 
#
# 1 93.5305 0.9672 65.0476 0.0000 0.0000 0.0000
# 2 0.9672 42.9885 15.4452 0.0000 0.0000 0.0000
# 3 65.0476 15.4452 179.8292 0.0000 0.0000 0.0000
# 4 0.0000 0.0000 0.0000 27.1225 0.0000 0.0000
# 5 0.0000 0.0000 0.0000 0.0000 12.0037 0.0000
# 6 0.0000 0.0000 0.0000 0.0000 0.0000 9.8767
#
#
#
# Elastic Compliance Matrix: (Units=1/GPa)
#
#
# Indices 1 2 3 4 5 6 
#
# 1 0.014391 0.001596 -0.005342 0.000000 0.000000 0.000000
# 2 0.001596 0.024180 -0.002654 0.000000 0.000000 0.000000
# 3 -0.005342 -0.002654 0.007721 0.000000 0.000000 0.000000
# 4 0.000000 0.000000 0.000000 0.036870 0.000000 0.000000
# 5 0.000000 0.000000 0.000000 0.000000 0.083308 0.000000
# 6 0.000000 0.000000 0.000000 0.000000 0.000000 0.101249
#
#
# Mechanical properties :
#
#
# Convention : Reuss Voigt Hill
#
# Bulk Modulus (GPa) = 29.85944 53.25201 41.55572
# Shear Modulus (GPa) = 17.14191 25.45978 21.30084
#
# Velocity S-wave (km/s) = 3.04093 3.70598 3.38980
# Velocity P-wave (km/s) = 5.33267 6.85852 6.14315
#
# Compressibility (1/GPa) = 0.03349025
#
# Stress axis : x y z
#
# Youngs Moduli (GPa) = 69.48931 41.35704 129.51305
#
# Poissons Ratio (x) = -0.06599 0.69191
# Poissons Ratio (y) = -0.11088 0.34372
# Poissons Ratio (z) = 0.37124 0.10976
#
# Static dielectric constant tensor:
#      x y z
#    x 1.605970 0.000000 0.000000 
#    y 0.000000 1.667030 0.000000 
#    z 0.000000 0.000000 1.730590 
# 
# From -- ./inp_files/42597.got.cif
#   From: 2010.05.17/outbox.cif.g08.bks.cpg/sg67_22_cif.got.tgz:42597.got - 2010.06.03 18:28:57.
