data_PCOD9503055
_publ_section_title
;
Structure prediction by ZEFSAII (Michael W. Deem and Ramdas Pophale) SiO2 
 PCOD9503055
Probable space group: C M M A
;
_chemical_formula_sum "Si O2"
_cell_formula_units_Z 48
_cell_length_a 25.401739
_cell_length_b 10.551484
_cell_length_c 9.112030
_cell_angle_alpha 90.000000
_cell_angle_beta 90.000000
_cell_angle_gamma 90.000000
_cell_volume 2442.261341
_symmetry_space_group_name_H-M "C M M A"
_symmetry_group_IT_number 67
_symmetry_cell_setting 'orthorhombic'
loop_
_space_group_symop_operation_xyz
x,y,z
-x,1/2-y,z
x,-y,-z
-x,1/2+y,-z
-x,-y,-z
x,1/2+y,-z
-x,y,z
x,1/2-y,z
1/2+x,1/2+y,z
1/2-x,-y,z
1/2+x,1/2-y,-z
1/2-x,y,-z
1/2-x,1/2-y,-z
1/2+x,y,-z
1/2-x,1/2+y,z
1/2+x,-y,z
loop_
_atom_site_type_symbol
_atom_site_label
_atom_site_fract_x
_atom_site_fract_y
_atom_site_fract_z
Si Si1 0.218566 0.608445 0.843177
Si Si2 0.064777 0.750000 0.312907
Si Si3 0.438198 0.750000 0.350496
Si Si4 0.599162 0.511310 0.163488
O O1 0.217359 0.750000 0.780739
O O2 0.250000 0.500000 0.757032
O O3 0.159818 0.555053 0.856813
O O4 0.250000 0.619946 0.000000
O O5 0.082274 0.750000 0.483124
O O6 0.088453 0.623791 0.238566
O O7 0.000000 0.750000 0.300888
O O8 0.500000 0.750000 0.367784
O O9 0.423758 0.875816 0.261270
O O10 0.575846 0.500000 0.000000
#
# Coordination Sequence:
#
# PCOD9503055 Si02
#       4
#    16   8   8  16
#     4  10  20  35  61  98 129 168 203 265 333 400
#     4  11  27  45  65  92 136 190 217 261 341 403
#     4  11  25  47  65  88 138 186 219 263 339 407
#     4  12  23  39  70 106 126 166 228 283 319 380
#
# _framework density 19.653915999999999
#
# number of rings (size 3 to 8) (size 9 to 14) (size 15 to 20)
#    0.000    1.000    5.000    3.000    2.333    6.667 
#    0.000    0.000    0.000    6.000    0.000    0.000 
#    0.000    0.000    0.000    0.000    0.000    0.000 
#
# Total GULP energy -133752.083040 kJ/mol
# GULP energy per Si atom -5573.003460 kJ/mol
# Density = 1.960918 g / cm^3
# Si number density = 19.653916 Si / 1000 Ang^3
#
#
#
# Elastic Constant Matrix: (Units=GPa)
#
#
# Indices 1 2 3 4 5 6 
#
# 1 57.5276 38.4910 20.6529 0.0000 0.0000 0.0000
# 2 38.4910 258.1081 90.2143 0.0000 0.0000 0.0000
# 3 20.6529 90.2143 148.6411 0.0000 0.0000 0.0000
# 4 0.0000 0.0000 0.0000 53.4749 0.0000 0.0000
# 5 0.0000 0.0000 0.0000 0.0000 68.6049 0.0000
# 6 0.0000 0.0000 0.0000 0.0000 0.0000 37.4676
#
#
#
# Elastic Compliance Matrix: (Units=1/GPa)
#
#
# Indices 1 2 3 4 5 6 
#
# 1 0.019476 -0.002486 -0.001197 0.000000 0.000000 0.000000
# 2 -0.002486 0.005235 -0.002832 0.000000 0.000000 0.000000
# 3 -0.001197 -0.002832 0.008613 0.000000 0.000000 0.000000
# 4 0.000000 0.000000 0.000000 0.018700 0.000000 0.000000
# 5 0.000000 0.000000 0.000000 0.000000 0.014576 0.000000
# 6 0.000000 0.000000 0.000000 0.000000 0.000000 0.026690
#
#
# Mechanical properties :
#
#
# Convention : Reuss Voigt Hill
#
# Bulk Modulus (GPa) = 49.27669 84.77703 67.02686
# Shear Modulus (GPa) = 44.21476 52.90406 48.55941
#
# Velocity S-wave (km/s) = 4.74821 5.19387 4.97603
# Velocity P-wave (km/s) = 7.42882 8.89926 8.19708
#
# Compressibility (1/GPa) = 0.02029357
#
# Stress axis : x y z
#
# Youngs Moduli (GPa) = 51.34497 191.02847 116.10845
#
# Poissons Ratio (x) = 0.47488 0.13902
# Poissons Ratio (y) = 0.12764 0.32879
# Poissons Ratio (z) = 0.06148 0.54094
#
# Static dielectric constant tensor:
#      x y z
#    x 1.750210 0.000000 0.000000 
#    y 0.000000 1.714750 0.000000 
#    z 0.000000 0.000000 1.729700 
# 
# From -- ./inp_files/11898.got.cif
#   From: 2010.05.17/outbox.cif.g08.bks.cpg/sg67_6_cif.got.tgz:11898.got - 2010.06.03 18:28:57.
