data_PCOD9503591
_publ_section_title
;
Structure prediction by ZEFSAII (Michael W. Deem and Ramdas Pophale) SiO2 
 PCOD9503591
Probable space group: C M M A
;
_chemical_formula_sum "Si O2"
_cell_formula_units_Z 80
_cell_length_a 25.368564
_cell_length_b 31.649821
_cell_length_c 5.221689
_cell_angle_alpha 90.000000
_cell_angle_beta 90.000000
_cell_angle_gamma 90.000000
_cell_volume 4192.548976
_symmetry_space_group_name_H-M "C M M A"
_symmetry_group_IT_number 67
_symmetry_cell_setting 'orthorhombic'
loop_
_space_group_symop_operation_xyz
x,y,z
-x,1/2-y,z
x,-y,-z
-x,1/2+y,-z
-x,-y,-z
x,1/2+y,-z
-x,y,z
x,1/2-y,z
1/2+x,1/2+y,z
1/2-x,-y,z
1/2+x,1/2-y,-z
1/2-x,y,-z
1/2-x,1/2-y,-z
1/2+x,y,-z
1/2-x,1/2+y,z
1/2+x,-y,z
loop_
_atom_site_type_symbol
_atom_site_label
_atom_site_fract_x
_atom_site_fract_y
_atom_site_fract_z
Si Si1 0.417371 0.701694 0.109878
Si Si2 0.304737 0.831414 0.094100
Si Si3 0.690482 0.980956 0.741946
Si Si4 0.558116 0.147469 0.398426
Si Si5 0.671056 0.885712 0.592906
O O1 0.433892 0.750000 0.079065
O O2 0.353749 0.699199 0.140899
O O3 0.439387 0.680193 0.365512
O O4 0.433037 0.673749 0.863741
O O5 0.303522 0.863527 0.339818
O O6 0.181140 0.857835 0.157823
O O7 0.250000 0.810987 0.000000
O O8 0.691659 0.931501 0.679807
O O9 0.661061 0.000000 0.500000
O O10 0.750000 0.000000 0.745138
O O11 0.666543 0.000000 0.000000
O O12 0.500000 0.127718 0.391043
O O13 0.607560 0.116140 0.442550
#
# Coordination Sequence:
#
# PCOD9503591 Si02
#       5
#    16  16  16  16  16
#     4  10  21  36  53  82 112 137 184 235 272 320
#     4  10  21  33  54  76 107 153 180 213 267 331
#     4  10  21  32  50  79 107 138 167 216 268 318
#     4  10  21  37  57  79 104 145 185 225 279 320
#     4  10  21  36  52  78 112 139 182 223 263 328
#
# _framework density 19.081471000000001
#
# number of rings (size 3 to 8) (size 9 to 14) (size 15 to 20)
#    0.000    2.000    0.000    3.000    8.400    2.800 
#    0.000    0.000    0.000    8.400    0.000    0.000 
#    0.000    0.000    0.000    0.000    0.000    0.000 
#
# Total GULP energy -222768.231627 kJ/mol
# GULP energy per Si atom -5569.205791 kJ/mol
# Density = 1.903804 g / cm^3
# Si number density = 19.081471 Si / 1000 Ang^3
#
#
#
# Elastic Constant Matrix: (Units=GPa)
#
#
# Indices 1 2 3 4 5 6 
#
# 1 110.4718 26.3864 15.9205 0.0000 0.0000 0.0000
# 2 26.3864 43.3676 -3.8368 0.0000 0.0000 0.0000
# 3 15.9205 -3.8368 146.3266 0.0000 0.0000 0.0000
# 4 0.0000 0.0000 0.0000 -94.6358 0.0000 0.0000
# 5 0.0000 0.0000 0.0000 0.0000 45.5556 0.0000
# 6 0.0000 0.0000 0.0000 0.0000 0.0000 5.3928
#
#
#
# Elastic Compliance Matrix: (Units=1/GPa)
#
#
# Indices 1 2 3 4 5 6 
#
# 1 0.010854 -0.006724 -0.001357 0.000000 0.000000 0.000000
# 2 -0.006724 0.027278 0.001447 0.000000 0.000000 0.000000
# 3 -0.001357 0.001447 0.007020 0.000000 0.000000 0.000000
# 4 0.000000 0.000000 0.000000 -0.010567 0.000000 0.000000
# 5 0.000000 0.000000 0.000000 0.000000 0.021951 0.000000
# 6 0.000000 0.000000 0.000000 0.000000 0.000000 0.185432
#
#
# Mechanical properties :
#
#
# Convention : Reuss Voigt Hill
#
# Bulk Modulus (GPa) = 31.36512 41.90070 36.63291
# Shear Modulus (GPa) = 18.80663 8.70893 13.75778
#
# Velocity S-wave (km/s) = 3.14283 2.13869 2.68806
# Velocity P-wave (km/s) = 5.44454 5.30143 5.37346
#
# Compressibility (1/GPa) = 0.03188255
#
# Stress axis : x y z
#
# Youngs Moduli (GPa) = 92.13468 36.65996 142.45773
#
# Poissons Ratio (x) = 0.24650 0.19334
# Poissons Ratio (y) = 0.61950 -0.20611
# Poissons Ratio (z) = 0.12504 -0.05304
#
# Static dielectric constant tensor:
#      x y z
#    x 1.727780 0.000000 0.000000 
#    y 0.000000 1.733110 0.000000 
#    z 0.000000 0.000000 1.662490 
# 
# From -- ./inp_files/3560.got.cif
#   From: 2010.05.17/outbox.cif.g08.bks.cpg/sg67_2_cif.got.tgz:3560.got - 2010.06.03 18:28:57.
