data_PCOD9503542
_publ_section_title
;
Structure prediction by ZEFSAII (Michael W. Deem and Ramdas Pophale) SiO2 
 PCOD9503542
Probable space group: C M M A
;
_chemical_formula_sum "Si O2"
_cell_formula_units_Z 64
_cell_length_a 9.395304
_cell_length_b 25.979385
_cell_length_c 14.609661
_cell_angle_alpha 90.000000
_cell_angle_beta 90.000000
_cell_angle_gamma 90.000000
_cell_volume 3565.987707
_symmetry_space_group_name_H-M "C M M A"
_symmetry_group_IT_number 67
_symmetry_cell_setting 'orthorhombic'
loop_
_space_group_symop_operation_xyz
x,y,z
-x,1/2-y,z
x,-y,-z
-x,1/2+y,-z
-x,-y,-z
x,1/2+y,-z
-x,y,z
x,1/2-y,z
1/2+x,1/2+y,z
1/2-x,-y,z
1/2+x,1/2-y,-z
1/2-x,y,-z
1/2-x,1/2-y,-z
1/2+x,y,-z
1/2-x,1/2+y,z
1/2+x,-y,z
loop_
_atom_site_type_symbol
_atom_site_label
_atom_site_fract_x
_atom_site_fract_y
_atom_site_fract_z
Si Si1 0.000000 0.189901 0.593407
Si Si2 0.750000 0.124636 0.500000
Si Si3 0.500000 0.190811 0.187569
Si Si4 0.000000 0.572836 0.785193
Si Si5 0.000000 0.948106 0.568517
Si Si6 0.500000 0.972439 0.902754
Si Si7 0.230093 0.384767 0.891351
O O1 0.857353 0.160969 0.557963
O O2 0.000000 0.250000 0.564255
O O3 0.000000 0.187987 0.702861
O O4 0.860017 0.085585 0.452596
O O5 0.500000 0.250000 0.159122
O O6 0.636870 0.161054 0.149728
O O7 0.000000 0.554574 0.679503
O O8 0.134642 0.604193 0.826784
O O9 0.000000 0.518245 0.833500
O O10 0.000000 0.000000 0.500000
O O11 0.635905 0.936423 0.890314
O O12 0.500000 0.000000 0.000000
O O13 0.250000 0.374543 0.000000
#
# Coordination Sequence:
#
# PCOD9503542 Si02
#       7
#     8   8   8   8   8   8  16
#     4  10  20  39  65  91 111 144 194 252 314 356
#     4  10  22  40  62  82 122 150 200 248 292 354
#     4  10  23  41  60  83 117 155 195 242 303 363
#     4  12  23  36  62  90 122 157 198 250 295 343
#     4  11  25  40  57  85 124 168 207 233 288 366
#     4  11  21  36  57  87 119 152 194 239 295 344
#     4  11  22  38  60  86 120 155 200 244 295 354
#
# _framework density 17.947341999999999
#
# number of rings (size 3 to 8) (size 9 to 14) (size 15 to 20)
#    0.000    1.250    2.500    3.750    0.000    8.500 
#    0.000    0.625    0.000    4.500    0.000    0.000 
#    0.000    0.000    0.000    0.000    0.000    0.000 
#
# Total GULP energy -178261.553731 kJ/mol
# GULP energy per Si atom -5570.673554 kJ/mol
# Density = 1.790649 g / cm^3
# Si number density = 17.947342 Si / 1000 Ang^3
#
#
#
# Elastic Constant Matrix: (Units=GPa)
#
#
# Indices 1 2 3 4 5 6 
#
# 1 153.2877 83.6652 69.1603 0.0000 0.0000 0.0000
# 2 83.6652 164.8568 82.8082 0.0000 0.0000 0.0000
# 3 69.1603 82.8082 149.5740 0.0000 0.0000 0.0000
# 4 0.0000 0.0000 0.0000 23.6134 0.0000 0.0000
# 5 0.0000 0.0000 0.0000 0.0000 17.8138 0.0000
# 6 0.0000 0.0000 0.0000 0.0000 0.0000 -6.0552
#
#
#
# Elastic Compliance Matrix: (Units=1/GPa)
#
#
# Indices 1 2 3 4 5 6 
#
# 1 0.009615 -0.003666 -0.002416 0.000000 0.000000 0.000000
# 2 -0.003666 0.009800 -0.003731 0.000000 0.000000 0.000000
# 3 -0.002416 -0.003731 0.009868 0.000000 0.000000 0.000000
# 4 0.000000 0.000000 0.000000 0.042349 0.000000 0.000000
# 5 0.000000 0.000000 0.000000 0.000000 0.056136 0.000000
# 6 0.000000 0.000000 0.000000 0.000000 0.000000 -0.165148
#
#
# Mechanical properties :
#
#
# Convention : Reuss Voigt Hill
#
# Bulk Modulus (GPa) = 103.54276 104.33178 103.93727
# Shear Modulus (GPa) = -343.99185 22.54672 -160.72257
#
# Velocity S-wave (km/s) = -13.85942 3.54824 -9.47347
# Velocity P-wave (km/s) = 14.08167 8.66285 7.85011
#
# Compressibility (1/GPa) = 0.00965785
#
# Stress axis : x y z
#
# Youngs Moduli (GPa) = 104.00841 102.03882 101.33538
#
# Poissons Ratio (x) = 0.37405 0.24484
# Poissons Ratio (y) = 0.38127 0.37805
# Poissons Ratio (z) = 0.25130 0.38067
#
# Static dielectric constant tensor:
#      x y z
#    x 1.651900 0.000000 0.000000 
#    y 0.000000 1.593060 0.000000 
#    z 0.000000 0.000000 1.594430 
# 
# From -- ./inp_files/23442.got.cif
#   From: 2010.05.17/outbox.cif.g08.bks.cpg/sg67_12_cif.got.tgz:23442.got - 2010.06.03 18:28:57.
