data_PCOD9503411
_publ_section_title
;
Structure prediction by ZEFSAII (Michael W. Deem and Ramdas Pophale) SiO2 
 PCOD9503411
Probable space group: C M M A
;
_chemical_formula_sum "Si O2"
_cell_formula_units_Z 72
_cell_length_a 24.472864
_cell_length_b 14.808342
_cell_length_c 7.545808
_cell_angle_alpha 90.000000
_cell_angle_beta 90.000000
_cell_angle_gamma 90.000000
_cell_volume 2734.619984
_symmetry_space_group_name_H-M "C M M A"
_symmetry_group_IT_number 67
_symmetry_cell_setting 'orthorhombic'
loop_
_space_group_symop_operation_xyz
x,y,z
-x,1/2-y,z
x,-y,-z
-x,1/2+y,-z
-x,-y,-z
x,1/2+y,-z
-x,y,z
x,1/2-y,z
1/2+x,1/2+y,z
1/2-x,-y,z
1/2+x,1/2-y,-z
1/2-x,y,-z
1/2-x,1/2-y,-z
1/2+x,y,-z
1/2-x,1/2+y,z
1/2+x,-y,z
loop_
_atom_site_type_symbol
_atom_site_label
_atom_site_fract_x
_atom_site_fract_y
_atom_site_fract_z
Si Si1 0.225528 0.642244 0.813511
Si Si2 0.000000 0.361178 0.496188
Si Si3 0.663936 0.851552 0.678795
Si Si4 0.909563 0.500000 0.500000
Si Si5 0.380372 0.897662 0.045999
Si Si6 0.000000 0.356717 0.926521
O O1 0.228537 0.750000 0.820357
O O2 0.273065 0.618830 0.676771
O O3 0.161422 0.621111 0.792408
O O4 0.250000 0.605707 0.000000
O O5 0.050619 0.420725 0.423153
O O6 0.000000 0.250000 0.468740
O O7 0.000000 0.378528 0.713331
O O8 0.656648 0.750000 0.598439
O O9 0.627887 0.934648 0.615027
O O10 0.644727 0.841628 0.882879
O O11 0.445225 0.885299 0.028784
O O12 0.370194 0.000000 0.000000
O O13 0.000000 0.250000 0.928622
#
# Coordination Sequence:
#
# PCOD9503411 Si02
#       6
#    16   8  16   8  16   8
#     4   8  16  32  56  87 123 169 220 270 334 403
#     4  10  21  36  60  96 140 188 231 277 334 400
#     4  10  20  37  63  97 136 179 227 279 337 402
#     4  11  20  34  64 101 134 181 237 276 330 413
#     4  11  21  34  59  96 134 172 222 280 337 411
#     4  11  20  36  61  93 136 180 221 268 340 409
#
# _framework density 26.329070000000002
#
# number of rings (size 3 to 8) (size 9 to 14) (size 15 to 20)
#    0.000    2.000    2.222    4.333    0.000    4.000 
#    0.000    0.000    0.000   12.000    0.000   17.111 
#    0.000    3.556    0.000    0.000    0.000    0.000 
#
# Total GULP energy -200824.190145 kJ/mol
# GULP energy per Si atom -5578.449726 kJ/mol
# Density = 2.626914 g / cm^3
# Si number density = 26.329070 Si / 1000 Ang^3
#
#
#
# Elastic Constant Matrix: (Units=GPa)
#
#
# Indices 1 2 3 4 5 6 
#
# 1 256.9609 65.3726 39.7244 0.0000 0.0000 0.0000
# 2 65.3726 193.8418 36.3936 0.0000 0.0000 0.0000
# 3 39.7244 36.3936 69.0552 0.0000 0.0000 0.0000
# 4 0.0000 0.0000 0.0000 14.5028 0.0000 0.0000
# 5 0.0000 0.0000 0.0000 0.0000 27.2168 0.0000
# 6 0.0000 0.0000 0.0000 0.0000 0.0000 -64.5060
#
#
#
# Elastic Compliance Matrix: (Units=1/GPa)
#
#
# Indices 1 2 3 4 5 6 
#
# 1 0.004488 -0.001142 -0.001980 0.000000 0.000000 0.000000
# 2 -0.001142 0.006016 -0.002514 0.000000 0.000000 0.000000
# 3 -0.001980 -0.002514 0.016945 0.000000 0.000000 0.000000
# 4 0.000000 0.000000 0.000000 0.068952 0.000000 0.000000
# 5 0.000000 0.000000 0.000000 0.000000 0.036742 0.000000
# 6 0.000000 0.000000 0.000000 0.000000 0.000000 -0.015502
#
#
# Mechanical properties :
#
#
# Convention : Reuss Voigt Hill
#
# Bulk Modulus (GPa) = 61.81278 89.20433 75.50856
# Shear Modulus (GPa) = 37.22884 20.66722 28.94803
#
# Velocity S-wave (km/s) = 3.76438 2.80475 3.31942
# Velocity P-wave (km/s) = 6.51322 6.66655 6.59033
#
# Compressibility (1/GPa) = 0.01617788
#
# Stress axis : x y z
#
# Youngs Moduli (GPa) = 222.80362 166.22690 59.01462
#
# Poissons Ratio (x) = 0.18981 0.11685
# Poissons Ratio (y) = 0.25442 0.14834
# Poissons Ratio (z) = 0.44117 0.41783
#
# Static dielectric constant tensor:
#      x y z
#    x 2.013180 0.000000 0.000000 
#    y 0.000000 1.950690 0.000000 
#    z 0.000000 0.000000 2.264880 
# 
# From -- ./inp_files/13369.got.cif
#   From: 2010.05.17/outbox.cif.g08.bks.cpg/sg67_7_cif.got.tgz:13369.got - 2010.06.03 18:28:57.
