data_PCOD9503276
_publ_section_title
;
Structure prediction by ZEFSAII (Michael W. Deem and Ramdas Pophale) SiO2 
 PCOD9503276
Probable space group: C M M A
;
_chemical_formula_sum "Si O2"
_cell_formula_units_Z 112
_cell_length_a 20.056812
_cell_length_b 13.735846
_cell_length_c 17.400854
_cell_angle_alpha 90.000000
_cell_angle_beta 90.000000
_cell_angle_gamma 90.000000
_cell_volume 4793.887962
_symmetry_space_group_name_H-M "C M M A"
_symmetry_group_IT_number 67
_symmetry_cell_setting 'orthorhombic'
loop_
_space_group_symop_operation_xyz
x,y,z
-x,1/2-y,z
x,-y,-z
-x,1/2+y,-z
-x,-y,-z
x,1/2+y,-z
-x,y,z
x,1/2-y,z
1/2+x,1/2+y,z
1/2-x,-y,z
1/2+x,1/2-y,-z
1/2-x,y,-z
1/2-x,1/2-y,-z
1/2+x,y,-z
1/2-x,1/2+y,z
1/2+x,-y,z
loop_
_atom_site_type_symbol
_atom_site_label
_atom_site_fract_x
_atom_site_fract_y
_atom_site_fract_z
Si Si1 0.426275 0.868461 0.454863
Si Si2 0.340981 0.864767 0.219239
Si Si3 0.139685 0.632318 0.388405
Si Si4 0.078252 0.954943 0.235945
Si Si5 0.287460 0.866154 0.381403
Si Si6 0.186810 0.632541 0.951161
Si Si7 0.576678 0.367202 0.072068
O O1 0.500000 0.902620 0.430234
O O2 0.427276 0.750000 0.447463
O O3 0.382684 0.907639 0.693473
O O4 0.411990 0.891853 0.543996
O O5 0.357220 0.750000 0.217410
O O6 0.290297 0.879424 0.289465
O O7 0.312720 0.897334 0.137185
O O8 0.405119 0.930817 0.234813
O O9 0.141724 0.750000 0.383757
O O10 0.215164 0.599297 0.409331
O O11 0.141017 0.597316 0.588016
O O12 0.099328 0.911337 0.153320
O O13 0.000000 0.935652 0.244904
O O14 0.288484 0.750000 0.398446
O O15 0.188287 0.750000 0.948659
O O16 0.250000 0.601772 0.000000
O O17 0.121436 0.605972 0.999291
O O18 0.500000 0.395675 0.059809
O O19 0.579652 0.250000 0.079646
#
# Coordination Sequence:
#
# PCOD9503276 Si02
#       7
#    16  16  16  16  16  16  16
#     4   9  17  32  58  92 128 168 212 255 308 374
#     4  10  23  42  61  85 118 161 209 261 315 369
#     4  10  20  36  62  93 130 169 208 259 315 372
#     4  11  24  39  59  90 124 162 211 260 311 376
#     4   9  19  36  60  90 125 165 208 253 309 373
#     4   9  19  37  63  91 120 156 206 258 309 372
#     4   9  19  37  60  88 123 158 193 246 316 379
#
# _framework density 23.363081999999999
#
# number of rings (size 3 to 8) (size 9 to 14) (size 15 to 20)
#    0.000    2.429    0.000    1.286    2.000    5.714 
#    0.000    5.714    0.000    3.429    0.000    0.000 
#    0.000    0.000    0.000    0.000    0.000    0.000 
#
# Total GULP energy -313252.704492 kJ/mol
# GULP energy per Si atom -5593.798295 kJ/mol
# Density = 2.330991 g / cm^3
# Si number density = 23.363082 Si / 1000 Ang^3
#
#
#
# Elastic Constant Matrix: (Units=GPa)
#
#
# Indices 1 2 3 4 5 6 
#
# 1 129.9947 16.5415 43.8813 0.0000 0.0000 0.0000
# 2 16.5415 76.8911 9.2104 0.0000 0.0000 0.0000
# 3 43.8813 9.2104 89.5263 0.0000 0.0000 0.0000
# 4 0.0000 0.0000 0.0000 6.1062 0.0000 0.0000
# 5 0.0000 0.0000 0.0000 0.0000 25.4820 0.0000
# 6 0.0000 0.0000 0.0000 0.0000 0.0000 -2.8332
#
#
#
# Elastic Compliance Matrix: (Units=1/GPa)
#
#
# Indices 1 2 3 4 5 6 
#
# 1 0.009382 -0.001486 -0.004446 0.000000 0.000000 0.000000
# 2 -0.001486 0.013403 -0.000651 0.000000 0.000000 0.000000
# 3 -0.004446 -0.000651 0.013416 0.000000 0.000000 0.000000
# 4 0.000000 0.000000 0.000000 0.163767 0.000000 0.000000
# 5 0.000000 0.000000 0.000000 0.000000 0.039243 0.000000
# 6 0.000000 0.000000 0.000000 0.000000 0.000000 -0.352955
#
#
# Mechanical properties :
#
#
# Convention : Reuss Voigt Hill
#
# Bulk Modulus (GPa) = 43.40908 48.40871 45.90890
# Shear Modulus (GPa) = -53.82172 20.86960 -16.47606
#
# Velocity S-wave (km/s) = -4.80490 2.99201 -2.65847
# Velocity P-wave (km/s) = 3.48744 5.71851 3.20461
#
# Compressibility (1/GPa) = 0.02303666
#
# Stress axis : x y z
#
# Youngs Moduli (GPa) = 106.58163 74.61017 74.53782
#
# Poissons Ratio (x) = 0.11086 0.33139
# Poissons Ratio (y) = 0.15837 0.04849
# Poissons Ratio (z) = 0.47386 0.04854
#
# Static dielectric constant tensor:
#      x y z
#    x 1.859690 0.000000 0.000000 
#    y 0.000000 1.919980 0.000000 
#    z 0.000000 0.000000 1.847330 
# 
# From -- ./inp_files/30189.got.cif
#   From: 2010.05.17/outbox.cif.g08.bks.cpg/sg67_16_cif.got.tgz:30189.got - 2010.06.03 18:28:57.
