data_PCOD9503331
_publ_section_title
;
Structure prediction by ZEFSAII (Michael W. Deem and Ramdas Pophale) SiO2 
 PCOD9503331
Probable space group: C M M A
;
_chemical_formula_sum "Si O2"
_cell_formula_units_Z 88
_cell_length_a 21.385162
_cell_length_b 8.858755
_cell_length_c 25.337113
_cell_angle_alpha 90.000000
_cell_angle_beta 90.000000
_cell_angle_gamma 90.000000
_cell_volume 4800.012449
_symmetry_space_group_name_H-M "C M M A"
_symmetry_group_IT_number 67
_symmetry_cell_setting 'orthorhombic'
loop_
_space_group_symop_operation_xyz
x,y,z
-x,1/2-y,z
x,-y,-z
-x,1/2+y,-z
-x,-y,-z
x,1/2+y,-z
-x,y,z
x,1/2-y,z
1/2+x,1/2+y,z
1/2-x,-y,z
1/2+x,1/2-y,-z
1/2-x,y,-z
1/2-x,1/2-y,-z
1/2+x,y,-z
1/2-x,1/2+y,z
1/2+x,-y,z
loop_
_atom_site_type_symbol
_atom_site_label
_atom_site_fract_x
_atom_site_fract_y
_atom_site_fract_z
Si Si1 0.575482 0.579006 0.837304
Si Si2 0.073054 0.070239 0.273745
Si Si3 0.186671 0.429710 0.661636
Si Si4 0.361799 0.568036 0.441146
Si Si5 0.076285 0.075436 0.054872
Si Si6 0.500000 0.070221 0.557751
O O1 0.500000 0.586446 0.841408
O O2 0.598200 0.750000 0.828288
O O3 0.587077 0.473565 0.786989
O O4 0.598006 0.511954 0.892844
O O5 0.077646 0.250000 0.282078
O O6 0.000000 0.027307 0.284722
O O7 0.124965 0.986696 0.308177
O O8 0.189811 0.250000 0.661745
O O9 0.250000 0.500000 0.685465
O O10 0.181633 0.492662 0.602005
O O11 0.354588 0.500000 0.500000
O O12 0.354808 0.750000 0.442960
O O13 0.432399 0.530000 0.420294
O O14 0.094780 0.250000 0.057012
O O15 0.000000 0.071450 0.055179
O O16 0.096357 0.000000 0.000000
O O17 0.500000 0.250000 0.553536
O O18 0.500000 0.000000 0.500000
#
# Coordination Sequence:
#
# PCOD9503331 Si02
#       6
#    16  16  16  16  16   8
#     4   9  16  27  44  68  99 135 178 225 271 323
#     4  10  21  38  60  84 111 145 185 230 279 331
#     4  12  26  43  61  84 113 147 185 229 278 331
#     4  10  20  37  59  86 115 147 181 220 270 325
#     4   9  15  22  34  56  90 133 177 220 270 326
#     4   8  16  30  52  80 112 142 172 210 255 306
#
# _framework density 18.333286000000001
#
# number of rings (size 3 to 8) (size 9 to 14) (size 15 to 20)
#    0.000    2.182    0.000    3.818    1.273    6.545 
#    0.000    1.818    0.000    0.000    0.000    0.000 
#    0.000    0.727    0.000    7.273    0.000   11.273 
#
# Total GULP energy -245346.813914 kJ/mol
# GULP energy per Si atom -5576.063953 kJ/mol
# Density = 1.829156 g / cm^3
# Si number density = 18.333286 Si / 1000 Ang^3
#
#
#
# Elastic Constant Matrix: (Units=GPa)
#
#
# Indices 1 2 3 4 5 6 
#
# 1 82.3868 44.2872 43.6891 0.0000 0.0000 0.0000
# 2 44.2872 107.3151 40.2510 0.0000 0.0000 0.0000
# 3 43.6891 40.2510 96.7160 0.0000 0.0000 0.0000
# 4 0.0000 0.0000 0.0000 33.8243 0.0000 0.0000
# 5 0.0000 0.0000 0.0000 0.0000 2.7193 0.0000
# 6 0.0000 0.0000 0.0000 0.0000 0.0000 16.1631
#
#
#
# Elastic Compliance Matrix: (Units=1/GPa)
#
#
# Indices 1 2 3 4 5 6 
#
# 1 0.018140 -0.005229 -0.006018 0.000000 0.000000 0.000000
# 2 -0.005229 0.012549 -0.002861 0.000000 0.000000 0.000000
# 3 -0.006018 -0.002861 0.014249 0.000000 0.000000 0.000000
# 4 0.000000 0.000000 0.000000 0.029565 0.000000 0.000000
# 5 0.000000 0.000000 0.000000 0.000000 0.367736 0.000000
# 6 0.000000 0.000000 0.000000 0.000000 0.000000 0.061869
#
#
# Mechanical properties :
#
#
# Convention : Reuss Voigt Hill
#
# Bulk Modulus (GPa) = 59.79983 60.31918 60.05950
# Shear Modulus (GPa) = 9.29545 21.08738 15.19142
#
# Velocity S-wave (km/s) = 2.25417 3.39517 2.88171
# Velocity P-wave (km/s) = 6.28204 6.95288 6.62595
#
# Compressibility (1/GPa) = 0.01672245
#
# Stress axis : x y z
#
# Youngs Moduli (GPa) = 55.12668 79.68652 70.18193
#
# Poissons Ratio (x) = 0.41667 0.42237
# Poissons Ratio (y) = 0.28825 0.20077
# Poissons Ratio (z) = 0.33176 0.22796
#
# Static dielectric constant tensor:
#      x y z
#    x 1.657720 0.000000 0.000000 
#    y 0.000000 1.648410 0.000000 
#    z 0.000000 0.000000 1.632080 
# 
# From -- ./inp_files/40681.got.cif
#   From: 2010.05.17/outbox.cif.g08.bks.cpg/sg67_21_cif.got.tgz:40681.got - 2010.06.03 18:28:57.
