data_PCOD9503571
_publ_section_title
;
Structure prediction by ZEFSAII (Michael W. Deem and Ramdas Pophale) SiO2 
 PCOD9503571
Probable space group: C M M A
;
_chemical_formula_sum "Si O2"
_cell_formula_units_Z 60
_cell_length_a 15.028637
_cell_length_b 10.156901
_cell_length_c 18.762473
_cell_angle_alpha 90.000000
_cell_angle_beta 90.000000
_cell_angle_gamma 90.000000
_cell_volume 2863.986024
_symmetry_space_group_name_H-M "C M M A"
_symmetry_group_IT_number 67
_symmetry_cell_setting 'orthorhombic'
loop_
_space_group_symop_operation_xyz
x,y,z
-x,1/2-y,z
x,-y,-z
-x,1/2+y,-z
-x,-y,-z
x,1/2+y,-z
-x,y,z
x,1/2-y,z
1/2+x,1/2+y,z
1/2-x,-y,z
1/2+x,1/2-y,-z
1/2-x,y,-z
1/2-x,1/2-y,-z
1/2+x,y,-z
1/2-x,1/2+y,z
1/2+x,-y,z
loop_
_atom_site_type_symbol
_atom_site_label
_atom_site_fract_x
_atom_site_fract_y
_atom_site_fract_z
Si Si1 0.000000 0.750000 0.662547
Si Si2 0.000000 0.458612 0.713263
Si Si3 0.500000 0.250000 0.412994
Si Si4 0.141418 0.750000 0.540802
Si Si5 0.643535 0.984372 0.827703
Si Si6 0.361719 0.750000 0.092957
Si Si7 0.853312 0.750000 0.067986
Si Si8 0.750000 0.000000 0.500000
O O1 0.000000 0.614687 0.703363
O O2 0.917222 0.750000 0.610008
O O3 0.911396 0.434273 0.759692
O O4 0.000000 0.375754 0.640033
O O5 0.584048 0.250000 0.467210
O O6 0.192425 0.609176 0.542451
O O7 0.622582 0.880366 0.889488
O O8 0.750000 0.000000 0.813861
O O9 0.614645 0.123919 0.860189
O O10 0.254882 0.750000 0.076868
O O11 0.392561 0.750000 0.011197
#
# Coordination Sequence:
#
# PCOD9503571 Si02
#       8
#     4   8   4   8  16   8   8   4
#     4  11  24  44  66  90 127 172 210 238 325 366
#     4  12  24  41  61  90 124 176 204 252 302 394
#     4  11  24  44  66  90 127 172 210 238 325 366
#     4  10  22  44  70  96 130 160 200 270 298 366
#     4  10  21  38  56  83 121 158 205 260 309 367
#     4   9  17  33  59  83 111 155 206 262 320 365
#     4   9  17  33  59  83 111 155 206 262 320 365
#     4  10  20  40  68 106 128 148 196 258 322 336
#
# _framework density 20.949822999999999
#
# number of rings (size 3 to 8) (size 9 to 14) (size 15 to 20)
#    0.000    1.867    0.000    4.000    0.000    5.333 
#   14.400    4.000    0.000    0.000    0.000    0.000 
#    0.000    0.000    0.000    0.000    0.000    0.000 
#
# Total GULP energy -167289.755189 kJ/mol
# GULP energy per Si atom -5576.325173 kJ/mol
# Density = 2.090214 g / cm^3
# Si number density = 20.949823 Si / 1000 Ang^3
#
#
#
# Elastic Constant Matrix: (Units=GPa)
#
#
# Indices 1 2 3 4 5 6 
#
# 1 73.2616 17.1711 22.4174 0.0000 0.0000 0.0000
# 2 17.1711 147.1815 12.8494 0.0000 0.0000 0.0000
# 3 22.4174 12.8494 80.6079 0.0000 0.0000 0.0000
# 4 0.0000 0.0000 0.0000 95.4740 0.0000 0.0000
# 5 0.0000 0.0000 0.0000 0.0000 -50.4023 0.0000
# 6 0.0000 0.0000 0.0000 0.0000 0.0000 -3.7586
#
#
#
# Elastic Compliance Matrix: (Units=1/GPa)
#
#
# Indices 1 2 3 4 5 6 
#
# 1 0.015208 -0.001425 -0.004002 0.000000 0.000000 0.000000
# 2 -0.001425 0.007024 -0.000723 0.000000 0.000000 0.000000
# 3 -0.004002 -0.000723 0.013634 0.000000 0.000000 0.000000
# 4 0.000000 0.000000 0.000000 0.010474 0.000000 0.000000
# 5 0.000000 0.000000 0.000000 0.000000 -0.019840 0.000000
# 6 0.000000 0.000000 0.000000 0.000000 0.000000 -0.266054
#
#
# Mechanical properties :
#
#
# Convention : Reuss Voigt Hill
#
# Bulk Modulus (GPa) = 42.43589 45.10300 43.76944
# Shear Modulus (GPa) = -22.78965 24.83681 1.02358
#
# Velocity S-wave (km/s) = -3.30179 3.44690 0.69975
# Velocity P-wave (km/s) = 2.40087 6.11697 4.64658
#
# Compressibility (1/GPa) = 0.02356496
#
# Stress axis : x y z
#
# Youngs Moduli (GPa) = 65.75326 142.37469 73.34541
#
# Poissons Ratio (x) = 0.20287 0.29356
# Poissons Ratio (y) = 0.09369 0.05305
# Poissons Ratio (z) = 0.26317 0.10299
#
# Static dielectric constant tensor:
#      x y z
#    x 1.832260 0.000000 0.000000 
#    y 0.000000 1.678060 0.000000 
#    z 0.000000 0.000000 1.704110 
# 
# From -- ./inp_files/33972.got.cif
#   From: 2010.05.17/outbox.cif.g08.bks.cpg/sg67_17_cif.got.tgz:33972.got - 2010.06.03 18:28:57.
