data_PCOD9503087
_publ_section_title
;
Structure prediction by ZEFSAII (Michael W. Deem and Ramdas Pophale) SiO2 
 PCOD9503087
Probable space group: C M M A
;
_chemical_formula_sum "Si O2"
_cell_formula_units_Z 80
_cell_length_a 24.358131
_cell_length_b 8.093118
_cell_length_c 21.202664
_cell_angle_alpha 90.000000
_cell_angle_beta 90.000000
_cell_angle_gamma 90.000000
_cell_volume 4179.749606
_symmetry_space_group_name_H-M "C M M A"
_symmetry_group_IT_number 67
_symmetry_cell_setting 'orthorhombic'
loop_
_space_group_symop_operation_xyz
x,y,z
-x,1/2-y,z
x,-y,-z
-x,1/2+y,-z
-x,-y,-z
x,1/2+y,-z
-x,y,z
x,1/2-y,z
1/2+x,1/2+y,z
1/2-x,-y,z
1/2+x,1/2-y,-z
1/2-x,y,-z
1/2-x,1/2-y,-z
1/2+x,y,-z
1/2-x,1/2+y,z
1/2+x,-y,z
loop_
_atom_site_type_symbol
_atom_site_label
_atom_site_fract_x
_atom_site_fract_y
_atom_site_fract_z
Si Si1 0.379635 0.447369 0.932842
Si Si2 0.886887 0.054811 0.696512
Si Si3 0.936689 0.449605 0.570611
Si Si4 0.187079 0.947397 0.190964
Si Si5 0.500000 0.444440 0.755866
Si Si6 0.000000 0.554955 0.906713
O O1 0.382757 0.250000 0.930859
O O2 0.345867 0.500457 0.871549
O O3 0.442057 0.517342 0.929271
O O4 0.355070 0.500000 0.000000
O O5 0.875512 0.250000 0.690163
O O6 0.896590 0.987800 0.625840
O O7 0.842456 0.984596 0.745578
O O8 0.945810 0.029566 0.729301
O O9 0.921115 0.500000 0.500000
O O10 0.937706 0.250000 0.573787
O O11 0.000000 0.506516 0.581597
O O12 0.184455 0.750000 0.193723
O O13 0.250000 0.000000 0.187391
O O14 0.500000 0.250000 0.738849
O O15 0.500000 0.455351 0.831192
O O16 0.000000 0.750000 0.923872
#
# Coordination Sequence:
#
# PCOD9503087 Si02
#       6
#    16  16  16  16   8   8
#     4  11  22  39  59  84 116 147 182 223 273 328
#     4  10  20  36  56  80 112 148 183 224 275 328
#     4   9  17  30  49  77 115 149 179 216 261 319
#     4  11  24  41  61  82 105 141 187 234 282 327
#     4  11  19  30  53  85 113 143 181 224 272 323
#     4   9  19  34  54  83 118 146 173 219 269 323
#
# _framework density 19.139901999999999
#
# number of rings (size 3 to 8) (size 9 to 14) (size 15 to 20)
#    0.000    1.800    3.000    1.800    0.000    2.000 
#    0.000    3.500    0.000    0.600    0.000    4.200 
#    0.000    0.000    0.000    0.000    0.000    0.000 
#
# Total GULP energy -223208.634240 kJ/mol
# GULP energy per Si atom -5580.215856 kJ/mol
# Density = 1.909634 g / cm^3
# Si number density = 19.139902 Si / 1000 Ang^3
#
#
#
# Elastic Constant Matrix: (Units=GPa)
#
#
# Indices 1 2 3 4 5 6 
#
# 1 112.3009 5.0073 81.2581 0.0000 0.0000 0.0000
# 2 5.0073 24.8234 20.2475 0.0000 0.0000 0.0000
# 3 81.2581 20.2475 179.5052 0.0000 0.0000 0.0000
# 4 0.0000 0.0000 0.0000 22.5881 0.0000 0.0000
# 5 0.0000 0.0000 0.0000 0.0000 0.1791 0.0000
# 6 0.0000 0.0000 0.0000 0.0000 0.0000 4.9370
#
#
#
# Elastic Compliance Matrix: (Units=1/GPa)
#
#
# Indices 1 2 3 4 5 6 
#
# 1 0.013378 0.002468 -0.006334 0.000000 0.000000 0.000000
# 2 0.002468 0.044822 -0.006173 0.000000 0.000000 0.000000
# 3 -0.006334 -0.006173 0.009135 0.000000 0.000000 0.000000
# 4 0.000000 0.000000 0.000000 0.044271 0.000000 0.000000
# 5 0.000000 0.000000 0.000000 0.000000 5.583909 0.000000
# 6 0.000000 0.000000 0.000000 0.000000 0.000000 0.202554
#
#
# Mechanical properties :
#
#
# Convention : Reuss Voigt Hill
#
# Bulk Modulus (GPa) = 21.16135 58.85057 40.00596
# Shear Modulus (GPa) = 0.84262 19.54861 10.19561
#
# Velocity S-wave (km/s) = 0.66423 3.19933 2.31051
# Velocity P-wave (km/s) = 3.41591 6.66798 5.29766
#
# Compressibility (1/GPa) = 0.04725595
#
# Stress axis : x y z
#
# Youngs Moduli (GPa) = 74.74991 22.31056 109.47440
#
# Poissons Ratio (x) = -0.05506 0.69344
# Poissons Ratio (y) = -0.18449 0.67578
# Poissons Ratio (z) = 0.47349 0.13772
#
# Static dielectric constant tensor:
#      x y z
#    x 1.748000 0.000000 0.000000 
#    y 0.000000 1.675830 0.000000 
#    z 0.000000 0.000000 1.692770 
# 
# From -- ./inp_files/36871.got.cif
#   From: 2010.05.17/outbox.cif.g08.bks.cpg/sg67_19_cif.got.tgz:36871.got - 2010.06.03 18:28:57.
