data_PCOD9503780
_publ_section_title
;
Structure prediction by ZEFSAII (Michael W. Deem and Ramdas Pophale) SiO2 
 PCOD9503780
Probable space group: C M M A
;
_chemical_formula_sum "Si O2"
_cell_formula_units_Z 80
_cell_length_a 29.206032
_cell_length_b 14.729406
_cell_length_c 7.997207
_cell_angle_alpha 90.000000
_cell_angle_beta 90.000000
_cell_angle_gamma 90.000000
_cell_volume 3440.298510
_symmetry_space_group_name_H-M "C M M A"
_symmetry_group_IT_number 67
_symmetry_cell_setting 'orthorhombic'
loop_
_space_group_symop_operation_xyz
x,y,z
-x,1/2-y,z
x,-y,-z
-x,1/2+y,-z
-x,-y,-z
x,1/2+y,-z
-x,y,z
x,1/2-y,z
1/2+x,1/2+y,z
1/2-x,-y,z
1/2+x,1/2-y,-z
1/2-x,y,-z
1/2-x,1/2-y,-z
1/2+x,y,-z
1/2-x,1/2+y,z
1/2+x,-y,z
loop_
_atom_site_type_symbol
_atom_site_label
_atom_site_fract_x
_atom_site_fract_y
_atom_site_fract_z
Si Si1 0.297571 0.069990 0.845009
Si Si2 0.894072 0.857888 0.930982
Si Si3 0.886801 0.645778 0.304609
Si Si4 0.552476 0.138660 0.610934
Si Si5 0.717378 0.894312 0.655347
O O1 0.343255 0.126265 0.858882
O O2 0.251314 0.126399 0.811830
O O3 0.296334 0.000521 0.687121
O O4 0.297805 0.000000 0.000000
O O5 0.901166 0.750000 0.944578
O O6 0.929084 0.892792 0.791507
O O7 0.894809 0.896402 0.120268
O O8 0.902562 0.750000 0.292050
O O9 0.914880 0.606621 0.460054
O O10 0.832491 0.648731 0.341299
O O11 0.500000 0.112884 0.583256
O O12 0.554583 0.250000 0.614721
O O13 0.750000 0.870948 0.500000
#
# Coordination Sequence:
#
# PCOD9503780 Si02
#       5
#    16  16  16  16  16
#     4  11  21  36  55  79 115 151 194 234 276 336
#     4  10  21  37  60  86 112 150 194 238 294 341
#     4  10  21  36  56  87 118 148 191 243 292 340
#     4   9  19  37  60  86 115 146 189 243 294 350
#     4  11  22  35  55  81 112 157 200 231 280 347
#
# _framework density 23.253796999999999
#
# number of rings (size 3 to 8) (size 9 to 14) (size 15 to 20)
#    0.000    1.800    2.000    3.600    0.000    2.000 
#    0.000    6.000    0.000    4.800    0.000    0.000 
#    0.000    0.000    0.000    0.000    0.000    0.000 
#
# Total GULP energy -223095.132060 kJ/mol
# GULP energy per Si atom -5577.378301 kJ/mol
# Density = 2.320087 g / cm^3
# Si number density = 23.253797 Si / 1000 Ang^3
#
#
#
# Elastic Constant Matrix: (Units=GPa)
#
#
# Indices 1 2 3 4 5 6 
#
# 1 154.7323 6.6569 97.7068 0.0000 0.0000 0.0000
# 2 6.6569 35.3707 13.3267 0.0000 0.0000 0.0000
# 3 97.7068 13.3267 203.9668 0.0000 0.0000 0.0000
# 4 0.0000 0.0000 0.0000 10.9366 0.0000 0.0000
# 5 0.0000 0.0000 0.0000 0.0000 22.6030 0.0000
# 6 0.0000 0.0000 0.0000 0.0000 0.0000 77.1471
#
#
#
# Elastic Compliance Matrix: (Units=1/GPa)
#
#
# Indices 1 2 3 4 5 6 
#
# 1 0.009266 -0.000073 -0.004434 0.000000 0.000000 0.000000
# 2 -0.000073 0.028986 -0.001859 0.000000 0.000000 0.000000
# 3 -0.004434 -0.001859 0.007148 0.000000 0.000000 0.000000
# 4 0.000000 0.000000 0.000000 0.091436 0.000000 0.000000
# 5 0.000000 0.000000 0.000000 0.000000 0.044242 0.000000
# 6 0.000000 0.000000 0.000000 0.000000 0.000000 0.012962
#
#
# Mechanical properties :
#
#
# Convention : Reuss Voigt Hill
#
# Bulk Modulus (GPa) = 30.61081 69.93895 50.27488
# Shear Modulus (GPa) = 22.97145 40.56263 31.76704
#
# Velocity S-wave (km/s) = 3.14643 4.18107 3.70009
# Velocity P-wave (km/s) = 5.13735 7.31096 6.31833
#
# Compressibility (1/GPa) = 0.03266820
#
# Stress axis : x y z
#
# Youngs Moduli (GPa) = 107.92541 34.49931 139.89685
#
# Poissons Ratio (x) = 0.00253 0.62027
# Poissons Ratio (y) = 0.00791 0.26004
# Poissons Ratio (z) = 0.47852 0.06413
#
# Static dielectric constant tensor:
#      x y z
#    x 1.848850 0.000000 0.000000 
#    y 0.000000 1.996640 0.000000 
#    z 0.000000 0.000000 2.007900 
# 
# From -- ./inp_files/13509.got.cif
#   From: 2010.05.17/outbox.cif.g08.bks.cpg/sg67_7_cif.got.tgz:13509.got - 2010.06.03 18:28:57.
