data_PCOD9503666
_publ_section_title
;
Structure prediction by ZEFSAII (Michael W. Deem and Ramdas Pophale) SiO2 
 PCOD9503666
Probable space group: C M M A
;
_chemical_formula_sum "Si O2"
_cell_formula_units_Z 88
_cell_length_a 28.773979
_cell_length_b 28.641251
_cell_length_c 5.662170
_cell_angle_alpha 90.000000
_cell_angle_beta 90.000000
_cell_angle_gamma 90.000000
_cell_volume 4666.323139
_symmetry_space_group_name_H-M "C M M A"
_symmetry_group_IT_number 67
_symmetry_cell_setting 'orthorhombic'
loop_
_space_group_symop_operation_xyz
x,y,z
-x,1/2-y,z
x,-y,-z
-x,1/2+y,-z
-x,-y,-z
x,1/2+y,-z
-x,y,z
x,1/2-y,z
1/2+x,1/2+y,z
1/2-x,-y,z
1/2+x,1/2-y,-z
1/2-x,y,-z
1/2-x,1/2-y,-z
1/2+x,y,-z
1/2-x,1/2+y,z
1/2+x,-y,z
loop_
_atom_site_type_symbol
_atom_site_label
_atom_site_fract_x
_atom_site_fract_y
_atom_site_fract_z
Si Si1 0.500000 0.472064 0.254373
Si Si2 0.627860 0.860530 0.764371
Si Si3 0.947075 0.386711 0.393815
Si Si4 0.949001 0.303453 0.022642
Si Si5 0.410760 0.946934 0.984899
Si Si6 0.722730 0.694926 0.750049
O O1 0.500000 0.500000 0.500000
O O2 0.549560 0.446344 0.219464
O O3 0.500000 0.500000 0.000000
O O4 0.600118 0.878092 0.536550
O O5 0.593145 0.820944 0.864478
O O6 0.626170 0.906504 0.930528
O O7 0.677916 0.838204 0.738560
O O8 0.000000 0.391293 0.491844
O O9 0.950020 0.339949 0.234462
O O10 0.937245 0.430130 0.219767
O O11 0.943059 0.250000 0.097451
O O12 0.000000 0.307050 0.901720
O O13 0.393321 0.000000 0.000000
O O14 0.709542 0.750000 0.758422
O O15 0.750000 0.688555 0.500000
O O16 0.750000 0.686024 0.000000
#
# Coordination Sequence:
#
# PCOD9503666 Si02
#       6
#     8  16  16  16  16  16
#     4  10  22  36  56  84 123 174 223 264 304 354
#     4  11  23  35  62  89 118 161 207 261 317 381
#     4  10  21  35  54  88 127 171 213 254 307 372
#     4   9  19  35  51  79 124 166 204 245 298 372
#     4  10  23  36  55  86 124 170 215 261 311 365
#     4  10  24  46  71  98 124 155 204 268 333 390
#
# _framework density 18.858530999999999
#
# number of rings (size 3 to 8) (size 9 to 14) (size 15 to 20)
#    0.000    2.000    0.909    1.091   12.727    1.455 
#    0.000    1.818    0.000    0.545    0.000    0.000 
#    0.000    0.000    0.000    0.000    0.000    0.000 
#
# Total GULP energy -245095.435316 kJ/mol
# GULP energy per Si atom -5570.350803 kJ/mol
# Density = 1.881561 g / cm^3
# Si number density = 18.858531 Si / 1000 Ang^3
#
#
#
# Elastic Constant Matrix: (Units=GPa)
#
#
# Indices 1 2 3 4 5 6 
#
# 1 127.1098 71.4288 55.5233 0.0000 0.0000 0.0000
# 2 71.4288 129.2949 33.1616 0.0000 0.0000 0.0000
# 3 55.5233 33.1616 90.6285 0.0000 0.0000 0.0000
# 4 0.0000 0.0000 0.0000 18.1598 0.0000 0.0000
# 5 0.0000 0.0000 0.0000 0.0000 20.7584 0.0000
# 6 0.0000 0.0000 0.0000 0.0000 0.0000 50.6103
#
#
#
# Elastic Compliance Matrix: (Units=1/GPa)
#
#
# Indices 1 2 3 4 5 6 
#
# 1 0.014125 -0.006162 -0.006399 0.000000 0.000000 0.000000
# 2 -0.006162 0.011224 -0.000332 0.000000 0.000000 0.000000
# 3 -0.006399 -0.000332 0.015076 0.000000 0.000000 0.000000
# 4 0.000000 0.000000 0.000000 0.055067 0.000000 0.000000
# 5 0.000000 0.000000 0.000000 0.000000 0.048173 0.000000
# 6 0.000000 0.000000 0.000000 0.000000 0.000000 0.019759
#
#
# Mechanical properties :
#
#
# Convention : Reuss Voigt Hill
#
# Bulk Modulus (GPa) = 68.31050 74.14008 71.22529
# Shear Modulus (GPa) = 25.76144 30.36699 28.06421
#
# Velocity S-wave (km/s) = 3.70000 4.01715 3.86183
# Velocity P-wave (km/s) = 7.38611 7.80486 7.59837
#
# Compressibility (1/GPa) = 0.01463904
#
# Stress axis : x y z
#
# Youngs Moduli (GPa) = 70.79532 89.09788 66.33207
#
# Poissons Ratio (x) = 0.54904 0.42446
# Poissons Ratio (y) = 0.43626 0.02199
# Poissons Ratio (z) = 0.45302 0.02954
#
# Static dielectric constant tensor:
#      x y z
#    x 1.640500 0.000000 0.000000 
#    y 0.000000 1.700890 0.000000 
#    z 0.000000 0.000000 1.768130 
# 
# From -- ./inp_files/3607.got.cif
#   From: 2010.05.17/outbox.cif.g08.bks.cpg/sg67_2_cif.got.tgz:3607.got - 2010.06.03 18:28:57.
