data_PCOD9503038
_publ_section_title
;
Structure prediction by ZEFSAII (Michael W. Deem and Ramdas Pophale) SiO2 
 PCOD9503038
Probable space group: C M M A
;
_chemical_formula_sum "Si O2"
_cell_formula_units_Z 64
_cell_length_a 8.693070
_cell_length_b 15.757296
_cell_length_c 24.193291
_cell_angle_alpha 90.000000
_cell_angle_beta 90.000000
_cell_angle_gamma 90.000000
_cell_volume 3313.979513
_symmetry_space_group_name_H-M "C M M A"
_symmetry_group_IT_number 67
_symmetry_cell_setting 'orthorhombic'
loop_
_space_group_symop_operation_xyz
x,y,z
-x,1/2-y,z
x,-y,-z
-x,1/2+y,-z
-x,-y,-z
x,1/2+y,-z
-x,y,z
x,1/2-y,z
1/2+x,1/2+y,z
1/2-x,-y,z
1/2+x,1/2-y,-z
1/2-x,y,-z
1/2-x,1/2-y,-z
1/2+x,y,-z
1/2-x,1/2+y,z
1/2+x,-y,z
loop_
_atom_site_type_symbol
_atom_site_label
_atom_site_fract_x
_atom_site_fract_y
_atom_site_fract_z
Si Si1 0.316485 0.411604 0.673381
Si Si2 0.317139 0.648926 0.558603
Si Si3 0.183869 0.750000 0.129666
Si Si4 0.185047 0.091799 0.061879
Si Si5 0.313954 0.750000 0.252308
O O1 0.500000 0.415543 0.671491
O O2 0.250000 0.500000 0.694620
O O3 0.254775 0.395435 0.611685
O O4 0.271885 0.332775 0.712015
O O5 0.500000 0.637855 0.558781
O O6 0.282948 0.750000 0.563157
O O7 0.250000 0.619337 0.500000
O O8 0.254693 0.832959 0.100372
O O9 0.232349 0.750000 0.193545
O O10 0.000000 0.750000 0.123416
O O11 0.000000 0.089980 0.060554
O O12 0.250000 0.000000 0.079906
O O13 0.250000 0.106163 0.000000
O O14 0.500000 0.750000 0.244713
#
# Coordination Sequence:
#
# PCOD9503038 Si02
#       5
#    16  16   8  16   8
#     4  11  23  41  64  89 119 156 200 249 305 364
#     4  10  20  35  59  89 121 155 194 242 300 364
#     4  12  25  41  64  93 126 168 213 258 308 366
#     4  11  22  40  65  96 133 169 209 256 309 367
#     4  10  24  45  64  85 120 162 205 258 309 360
#
# _framework density 19.312128000000001
#
# number of rings (size 3 to 8) (size 9 to 14) (size 15 to 20)
#    0.000    1.250    1.250    6.000    0.000    4.500 
#    0.000    5.000    0.000    0.000    0.000    0.000 
#    0.000    0.000    0.000    0.000    0.000    0.000 
#
# Total GULP energy -179023.701267 kJ/mol
# GULP energy per Si atom -5594.490665 kJ/mol
# Density = 1.926817 g / cm^3
# Si number density = 19.312128 Si / 1000 Ang^3
#
#
#
# Elastic Constant Matrix: (Units=GPa)
#
#
# Indices 1 2 3 4 5 6 
#
# 1 105.6330 76.1906 54.2971 0.0000 0.0000 0.0000
# 2 76.1906 171.2203 97.2299 0.0000 0.0000 0.0000
# 3 54.2971 97.2299 117.2593 0.0000 0.0000 0.0000
# 4 0.0000 0.0000 0.0000 -0.3984 0.0000 0.0000
# 5 0.0000 0.0000 0.0000 0.0000 37.3615 0.0000
# 6 0.0000 0.0000 0.0000 0.0000 0.0000 33.5933
#
#
#
# Elastic Compliance Matrix: (Units=1/GPa)
#
#
# Indices 1 2 3 4 5 6 
#
# 1 0.014333 -0.004931 -0.002548 0.000000 0.000000 0.000000
# 2 -0.004931 0.012734 -0.008276 0.000000 0.000000 0.000000
# 3 -0.002548 -0.008276 0.016570 0.000000 0.000000 0.000000
# 4 0.000000 0.000000 0.000000 -2.509869 0.000000 0.000000
# 5 0.000000 0.000000 0.000000 0.000000 0.026765 0.000000
# 6 0.000000 0.000000 0.000000 0.000000 0.000000 0.029768
#
#
# Mechanical properties :
#
#
# Convention : Reuss Voigt Hill
#
# Bulk Modulus (GPa) = 82.45655 94.39418 88.42537
# Shear Modulus (GPa) = -2.10602 25.20428 11.54913
#
# Velocity S-wave (km/s) = -1.04541 3.61654 2.44811
# Velocity P-wave (km/s) = 6.42902 8.15006 7.34015
#
# Compressibility (1/GPa) = 0.01212760
#
# Stress axis : x y z
#
# Youngs Moduli (GPa) = 69.76804 78.52940 60.34942
#
# Poissons Ratio (x) = 0.38723 0.15379
# Poissons Ratio (y) = 0.34402 0.49943
# Poissons Ratio (z) = 0.17779 0.64988
#
# Static dielectric constant tensor:
#      x y z
#    x 1.642330 0.000000 0.000000 
#    y 0.000000 1.683910 0.000000 
#    z 0.000000 0.000000 1.632040 
# 
# From -- ./inp_files/40432.got.cif
#   From: 2010.05.17/outbox.cif.g08.bks.cpg/sg67_21_cif.got.tgz:40432.got - 2010.06.03 18:28:57.
