data_PCOD9503417
_publ_section_title
;
Structure prediction by ZEFSAII (Michael W. Deem and Ramdas Pophale) SiO2 
 PCOD9503417
Probable space group: C M M A
;
_chemical_formula_sum "Si O2"
_cell_formula_units_Z 72
_cell_length_a 15.761704
_cell_length_b 19.641187
_cell_length_c 11.025391
_cell_angle_alpha 90.000000
_cell_angle_beta 90.000000
_cell_angle_gamma 90.000000
_cell_volume 3413.224842
_symmetry_space_group_name_H-M "C M M A"
_symmetry_group_IT_number 67
_symmetry_cell_setting 'orthorhombic'
loop_
_space_group_symop_operation_xyz
x,y,z
-x,1/2-y,z
x,-y,-z
-x,1/2+y,-z
-x,-y,-z
x,1/2+y,-z
-x,y,z
x,1/2-y,z
1/2+x,1/2+y,z
1/2-x,-y,z
1/2+x,1/2-y,-z
1/2-x,y,-z
1/2-x,1/2-y,-z
1/2+x,y,-z
1/2-x,1/2+y,z
1/2+x,-y,z
loop_
_atom_site_type_symbol
_atom_site_label
_atom_site_fract_x
_atom_site_fract_y
_atom_site_fract_z
Si Si1 0.500000 0.825263 0.010038
Si Si2 0.835106 0.321853 0.839578
Si Si3 0.500000 0.542285 0.189257
Si Si4 0.172313 0.969819 0.134724
Si Si5 0.500000 0.920682 0.460842
Si Si6 0.654800 0.171883 0.451473
O O1 0.500000 0.750000 0.075343
O O2 0.420160 0.823736 0.919610
O O3 0.500000 0.896114 0.087913
O O4 0.790036 0.250000 0.862860
O O5 0.796541 0.392764 0.875046
O O6 0.848789 0.326634 0.695164
O O7 0.581413 0.492107 0.184658
O O8 0.500000 0.580415 0.316007
O O9 0.250000 0.000000 0.210773
O O10 0.167679 0.000000 0.000000
O O11 0.583610 0.880853 0.506068
O O12 0.500000 0.000000 0.500000
O O13 0.636110 0.250000 0.492438
O O14 0.750000 0.155849 0.500000
#
# Coordination Sequence:
#
# PCOD9503417 Si02
#       6
#     8  16   8  16   8  16
#     4  10  20  37  64  99 130 173 219 268 331 401
#     4  10  20  39  67  93 125 171 221 271 321 394
#     4  12  24  42  64  95 138 176 211 275 341 396
#     4  11  23  40  65  95 130 172 214 264 330 400
#     4  12  26  42  64 100 132 176 224 278 341 405
#     4  10  23  44  70  97 132 178 228 282 336 394
#
# _framework density 21.094421000000001
#
# number of rings (size 3 to 8) (size 9 to 14) (size 15 to 20)
#    0.000    1.333    2.222    3.333    3.111    3.111 
#    0.000    3.333    0.000    0.000    0.000    0.000 
#    0.000    0.000    0.000    0.000    0.000    0.000 
#
# Total GULP energy -200522.967686 kJ/mol
# GULP energy per Si atom -5570.082436 kJ/mol
# Density = 2.104641 g / cm^3
# Si number density = 21.094421 Si / 1000 Ang^3
#
#
#
# Elastic Constant Matrix: (Units=GPa)
#
#
# Indices 1 2 3 4 5 6 
#
# 1 127.7909 63.5074 21.4087 0.0000 0.0000 0.0000
# 2 63.5074 190.5413 35.7827 0.0000 0.0000 0.0000
# 3 21.4087 35.7827 101.7678 0.0000 0.0000 0.0000
# 4 0.0000 0.0000 0.0000 28.8808 0.0000 0.0000
# 5 0.0000 0.0000 0.0000 0.0000 -70.9376 0.0000
# 6 0.0000 0.0000 0.0000 0.0000 0.0000 -1.2599
#
#
#
# Elastic Compliance Matrix: (Units=1/GPa)
#
#
# Indices 1 2 3 4 5 6 
#
# 1 0.009463 -0.002977 -0.000944 0.000000 0.000000 0.000000
# 2 -0.002977 0.006556 -0.001679 0.000000 0.000000 0.000000
# 3 -0.000944 -0.001679 0.010615 0.000000 0.000000 0.000000
# 4 0.000000 0.000000 0.000000 0.034625 0.000000 0.000000
# 5 0.000000 0.000000 0.000000 0.000000 -0.014097 0.000000
# 6 0.000000 0.000000 0.000000 0.000000 0.000000 -0.793685
#
#
# Mechanical properties :
#
#
# Convention : Reuss Voigt Hill
#
# Bulk Modulus (GPa) = 64.78995 73.49971 69.14483
# Shear Modulus (GPa) = -6.84763 11.29674 2.22455
#
# Velocity S-wave (km/s) = -1.80367 2.31667 1.02804
# Velocity P-wave (km/s) = 5.14230 6.48651 5.85312
#
# Compressibility (1/GPa) = 0.01543449
#
# Stress axis : x y z
#
# Youngs Moduli (GPa) = 105.67793 152.54149 94.20470
#
# Poissons Ratio (x) = 0.45406 0.08893
# Poissons Ratio (y) = 0.31456 0.15815
# Poissons Ratio (z) = 0.09976 0.25609
#
# Static dielectric constant tensor:
#      x y z
#    x 1.871180 0.000000 0.000000 
#    y 0.000000 1.963620 0.000000 
#    z 0.000000 0.000000 1.787380 
# 
# From -- ./inp_files/19179.got.cif
#   From: 2010.05.17/outbox.cif.g08.bks.cpg/sg67_10_cif.got.tgz:19179.got - 2010.06.03 18:28:57.
