data_PCOD9503973
_publ_section_title
;
Structure prediction by ZEFSAII (Michael W. Deem and Ramdas Pophale) SiO2 
 PCOD9503973
Probable space group: C M M A
;
_chemical_formula_sum "Si O2"
_cell_formula_units_Z 96
_cell_length_a 16.968893
_cell_length_b 16.959486
_cell_length_c 15.463625
_cell_angle_alpha 90.000000
_cell_angle_beta 90.000000
_cell_angle_gamma 90.000000
_cell_volume 4450.179268
_symmetry_space_group_name_H-M "C M M A"
_symmetry_group_IT_number 67
_symmetry_cell_setting 'orthorhombic'
loop_
_space_group_symop_operation_xyz
x,y,z
-x,1/2-y,z
x,-y,-z
-x,1/2+y,-z
-x,-y,-z
x,1/2+y,-z
-x,y,z
x,1/2-y,z
1/2+x,1/2+y,z
1/2-x,-y,z
1/2+x,1/2-y,-z
1/2-x,y,-z
1/2-x,1/2-y,-z
1/2+x,y,-z
1/2-x,1/2+y,z
1/2+x,-y,z
loop_
_atom_site_type_symbol
_atom_site_label
_atom_site_fract_x
_atom_site_fract_y
_atom_site_fract_z
Si Si1 0.756842 0.905729 0.637997
Si Si2 0.380384 0.160602 0.136236
Si Si3 0.411073 0.919840 0.038620
Si Si4 0.413142 0.064271 0.577048
Si Si5 0.201020 0.158636 0.174824
Si Si6 0.586658 0.087058 0.317643
O O1 0.832563 0.885262 0.578355
O O2 0.784892 0.881904 0.733330
O O3 0.665273 0.877580 0.636167
O O4 0.750000 0.000000 0.626184
O O5 0.401732 0.250000 0.160568
O O6 0.285966 0.156499 0.128821
O O7 0.405102 0.105090 0.215886
O O8 0.413289 0.138101 0.043426
O O9 0.500000 0.937269 0.067747
O O10 0.361448 0.884929 0.115959
O O11 0.375328 0.000000 0.000000
O O12 0.500000 0.102935 0.573069
O O13 0.409382 0.000000 0.500000
O O14 0.412542 0.006239 0.660884
O O15 0.178957 0.250000 0.187583
O O16 0.500000 0.116097 0.346698
#
# Coordination Sequence:
#
# PCOD9503973 Si02
#       6
#    16  16  16  16  16  16
#     4   9  19  33  55  82 108 146 189 231 283 338
#     4  10  21  38  57  77 106 146 190 235 286 341
#     4  11  25  37  52  79 110 146 191 240 288 341
#     4   9  18  33  55  83 113 143 182 234 282 332
#     4  10  22  38  56  80 110 147 190 235 287 348
#     4   9  18  31  51  78 108 138 179 227 277 333
#
# _framework density 21.572164999999998
#
# number of rings (size 3 to 8) (size 9 to 14) (size 15 to 20)
#    0.000    2.333    0.000    1.500    7.000    8.000 
#    0.000    0.000    0.000    1.000    0.000   10.500 
#    0.000    0.000    0.000    0.000    0.000    0.000 
#
# Total GULP energy -267581.450199 kJ/mol
# GULP energy per Si atom -5574.613546 kJ/mol
# Density = 2.152307 g / cm^3
# Si number density = 21.572165 Si / 1000 Ang^3
#
#
#
# Elastic Constant Matrix: (Units=GPa)
#
#
# Indices 1 2 3 4 5 6 
#
# 1 194.7487 3.1547 32.9576 0.0000 0.0000 0.0000
# 2 3.1547 26.0582 5.4863 0.0000 0.0000 0.0000
# 3 32.9576 5.4863 56.0809 0.0000 0.0000 0.0000
# 4 0.0000 0.0000 0.0000 -4.0234 0.0000 0.0000
# 5 0.0000 0.0000 0.0000 0.0000 34.7085 0.0000
# 6 0.0000 0.0000 0.0000 0.0000 0.0000 21.6012
#
#
#
# Elastic Compliance Matrix: (Units=1/GPa)
#
#
# Indices 1 2 3 4 5 6 
#
# 1 0.005702 0.000016 -0.003352 0.000000 0.000000 0.000000
# 2 0.000016 0.039183 -0.003842 0.000000 0.000000 0.000000
# 3 -0.003352 -0.003842 0.020177 0.000000 0.000000 0.000000
# 4 0.000000 0.000000 0.000000 -0.248548 0.000000 0.000000
# 5 0.000000 0.000000 0.000000 0.000000 0.028811 0.000000
# 6 0.000000 0.000000 0.000000 0.000000 0.000000 0.046294
#
#
# Mechanical properties :
#
#
# Convention : Reuss Voigt Hill
#
# Bulk Modulus (GPa) = 19.72244 40.00946 29.86595
# Shear Modulus (GPa) = -64.83292 26.14322 -19.34485
#
# Velocity S-wave (km/s) = -5.48810 3.48501 -2.99783
# Velocity P-wave (km/s) = 5.56746 5.89752 1.37553
#
# Compressibility (1/GPa) = 0.05070365
#
# Stress axis : x y z
#
# Youngs Moduli (GPa) = 175.38005 25.52145 49.56039
#
# Poissons Ratio (x) = -0.00040 0.16615
# Poissons Ratio (y) = -0.00272 0.19043
# Poissons Ratio (z) = 0.58795 0.09806
#
# Static dielectric constant tensor:
#      x y z
#    x 1.895880 0.000000 0.000000 
#    y 0.000000 1.772070 0.000000 
#    z 0.000000 0.000000 1.758260 
# 
# From -- ./inp_files/34255.got.cif
#   From: 2010.05.17/outbox.cif.g08.bks.cpg/sg67_18_cif.got.tgz:34255.got - 2010.06.03 18:28:57.
