data_PCOD9503422
_publ_section_title
;
Structure prediction by ZEFSAII (Michael W. Deem and Ramdas Pophale) SiO2 
 PCOD9503422
Probable space group: C M M A
;
_chemical_formula_sum "Si O2"
_cell_formula_units_Z 96
_cell_length_a 27.704401
_cell_length_b 18.817068
_cell_length_c 7.732071
_cell_angle_alpha 90.000000
_cell_angle_beta 90.000000
_cell_angle_gamma 90.000000
_cell_volume 4030.849213
_symmetry_space_group_name_H-M "C M M A"
_symmetry_group_IT_number 67
_symmetry_cell_setting 'orthorhombic'
loop_
_space_group_symop_operation_xyz
x,y,z
-x,1/2-y,z
x,-y,-z
-x,1/2+y,-z
-x,-y,-z
x,1/2+y,-z
-x,y,z
x,1/2-y,z
1/2+x,1/2+y,z
1/2-x,-y,z
1/2+x,1/2-y,-z
1/2-x,y,-z
1/2-x,1/2-y,-z
1/2+x,y,-z
1/2-x,1/2+y,z
1/2+x,-y,z
loop_
_atom_site_type_symbol
_atom_site_label
_atom_site_fract_x
_atom_site_fract_y
_atom_site_fract_z
Si Si1 0.053310 0.035664 0.187198
Si Si2 0.592086 0.332629 0.000879
Si Si3 0.129430 0.439580 0.608592
Si Si4 0.193266 0.330444 0.477379
Si Si5 0.444021 0.831388 0.601883
Si Si6 0.198842 0.836290 0.918044
O O1 0.066333 0.116457 0.135770
O O2 0.000000 0.029991 0.272535
O O3 0.096295 0.988352 0.268774
O O4 0.048551 0.000000 0.000000
O O5 0.589421 0.250000 0.948656
O O6 0.648531 0.354313 0.011906
O O7 0.569236 0.337599 0.193032
O O8 0.155628 0.500000 0.500000
O O9 0.169893 0.379260 0.624231
O O10 0.088751 0.390802 0.513678
O O11 0.173824 0.250000 0.491387
O O12 0.250000 0.326518 0.500000
O O13 0.188288 0.357711 0.280763
O O14 0.500000 0.845759 0.579830
O O15 0.434742 0.750000 0.549941
O O16 0.202563 0.750000 0.915887
O O17 0.250000 0.861749 0.000000
#
# Coordination Sequence:
#
# PCOD9503422 Si02
#       6
#    16  16  16  16  16  16
#     4  11  23  40  62  93 133 178 235 293 352 424
#     4  10  20  37  65  96 131 172 231 299 351 410
#     4  12  25  41  62  92 137 182 219 274 346 422
#     4  10  23  43  69 100 134 177 228 280 341 417
#     4  10  21  38  64  96 127 169 230 290 344 408
#     4   9  19  36  63  99 132 165 214 277 344 410
#
# _framework density 23.816322
#
# number of rings (size 3 to 8) (size 9 to 14) (size 15 to 20)
#    0.000    1.667    1.667    2.500    2.333    2.667 
#    0.000    0.833    0.000    0.500    0.000    0.000 
#    0.000    0.000    0.000    0.000    0.000    0.000 
#
# Total GULP energy -267745.649998 kJ/mol
# GULP energy per Si atom -5578.034375 kJ/mol
# Density = 2.376212 g / cm^3
# Si number density = 23.816322 Si / 1000 Ang^3
#
#
#
# Elastic Constant Matrix: (Units=GPa)
#
#
# Indices 1 2 3 4 5 6 
#
# 1 113.8810 28.4671 8.4380 0.0000 0.0000 0.0000
# 2 28.4671 125.4993 27.2118 0.0000 0.0000 0.0000
# 3 8.4380 27.2118 67.4548 0.0000 0.0000 0.0000
# 4 0.0000 0.0000 0.0000 16.8243 0.0000 0.0000
# 5 0.0000 0.0000 0.0000 0.0000 25.5046 0.0000
# 6 0.0000 0.0000 0.0000 0.0000 0.0000 14.6471
#
#
#
# Elastic Compliance Matrix: (Units=1/GPa)
#
#
# Indices 1 2 3 4 5 6 
#
# 1 0.009316 -0.002039 -0.000343 0.000000 0.000000 0.000000
# 2 -0.002039 0.009178 -0.003447 0.000000 0.000000 0.000000
# 3 -0.000343 -0.003447 0.016258 0.000000 0.000000 0.000000
# 4 0.000000 0.000000 0.000000 0.059438 0.000000 0.000000
# 5 0.000000 0.000000 0.000000 0.000000 0.039209 0.000000
# 6 0.000000 0.000000 0.000000 0.000000 0.000000 0.068273
#
#
# Mechanical properties :
#
#
# Convention : Reuss Voigt Hill
#
# Bulk Modulus (GPa) = 43.30083 48.34098 45.82090
# Shear Modulus (GPa) = 22.62153 27.57643 25.09898
#
# Velocity S-wave (km/s) = 3.08528 3.40645 3.24984
# Velocity P-wave (km/s) = 5.55991 5.98443 5.77607
#
# Compressibility (1/GPa) = 0.02309425
#
# Stress axis : x y z
#
# Youngs Moduli (GPa) = 107.34041 108.95439 61.50680
#
# Poissons Ratio (x) = 0.22214 0.02109
# Poissons Ratio (y) = 0.21885 0.21204
# Poissons Ratio (z) = 0.03681 0.37562
#
# Static dielectric constant tensor:
#      x y z
#    x 1.951840 0.000000 0.000000 
#    y 0.000000 1.941600 0.000000 
#    z 0.000000 0.000000 2.093720 
# 
# From -- ./inp_files/13704.got.cif
#   From: 2010.05.17/outbox.cif.g08.bks.cpg/sg67_7_cif.got.tgz:13704.got - 2010.06.03 18:28:57.
