data_PCOD9503330
_publ_section_title
;
Structure prediction by ZEFSAII (Michael W. Deem and Ramdas Pophale) SiO2 
 PCOD9503330
Probable space group: C M M A
;
_chemical_formula_sum "Si O2"
_cell_formula_units_Z 104
_cell_length_a 8.940905
_cell_length_b 21.264022
_cell_length_c 30.737811
_cell_angle_alpha 90.000000
_cell_angle_beta 90.000000
_cell_angle_gamma 90.000000
_cell_volume 5843.860351
_symmetry_space_group_name_H-M "C M M A"
_symmetry_group_IT_number 67
_symmetry_cell_setting 'orthorhombic'
loop_
_space_group_symop_operation_xyz
x,y,z
-x,1/2-y,z
x,-y,-z
-x,1/2+y,-z
-x,-y,-z
x,1/2+y,-z
-x,y,z
x,1/2-y,z
1/2+x,1/2+y,z
1/2-x,-y,z
1/2+x,1/2-y,-z
1/2-x,y,-z
1/2-x,1/2-y,-z
1/2+x,y,-z
1/2-x,1/2+y,z
1/2+x,-y,z
loop_
_atom_site_type_symbol
_atom_site_label
_atom_site_fract_x
_atom_site_fract_y
_atom_site_fract_z
Si Si1 0.180419 0.610856 0.548341
Si Si2 0.672622 0.673256 0.134303
Si Si3 0.669469 0.174072 0.222409
Si Si4 0.177401 0.250000 0.452882
Si Si5 0.821735 0.323781 0.313427
Si Si6 0.827328 0.673350 0.044748
Si Si7 0.321562 0.563308 0.632990
O O1 0.250000 0.604008 0.500000
O O2 0.214985 0.682074 0.565620
O O3 0.258517 0.568125 0.583875
O O4 0.000000 0.602657 0.546755
O O5 0.500000 0.654542 0.137421
O O6 0.676335 0.750000 0.134484
O O7 0.763818 0.651559 0.176620
O O8 0.743678 0.652967 0.088578
O O9 0.500000 0.151218 0.229923
O O10 0.661895 0.250000 0.219168
O O11 0.775420 0.162246 0.263567
O O12 0.250000 0.250000 0.500000
O O13 0.000000 0.250000 0.457771
O O14 0.782749 0.250000 0.322486
O O15 0.735966 0.374778 0.342148
O O16 0.000000 0.329809 0.319870
O O17 0.823450 0.750000 0.044633
O O18 0.000000 0.654449 0.045820
O O19 0.750000 0.652637 0.000000
O O20 0.500000 0.560022 0.633151
O O21 0.250000 0.500000 0.652715
#
# Coordination Sequence:
#
# PCOD9503330 Si02
#       7
#    16  16  16   8  16  16  16
#     4  10  20  37  59  86 115 147 181 218 261 307
#     4   9  15  22  33  50  74 106 145 192 246 299
#     4   9  16  27  44  67  93 120 156 203 253 304
#     4   8  16  30  52  80 112 142 172 210 254 298
#     4  10  21  38  60  84 110 140 175 218 267 319
#     4   9  15  21  28  40  62  96 140 189 240 295
#     4  12  26  43  61  84 113 147 183 221 265 316
#
# _framework density 17.796455000000002
#
# number of rings (size 3 to 8) (size 9 to 14) (size 15 to 20)
#    0.000    2.308    0.000    3.692    1.077    7.385 
#    0.000    1.538    0.000    0.000    0.000    0.000 
#    0.000    0.000    0.000    0.000    0.000    0.769 
#
# Total GULP energy -289860.852742 kJ/mol
# GULP energy per Si atom -5574.247168 kJ/mol
# Density = 1.775595 g / cm^3
# Si number density = 17.796455 Si / 1000 Ang^3
#
#
#
# Elastic Constant Matrix: (Units=GPa)
#
#
# Indices 1 2 3 4 5 6 
#
# 1 112.8270 39.7459 45.1827 0.0000 0.0000 0.0000
# 2 39.7459 63.3695 36.8556 0.0000 0.0000 0.0000
# 3 45.1827 36.8556 102.4534 0.0000 0.0000 0.0000
# 4 0.0000 0.0000 0.0000 1.5236 0.0000 0.0000
# 5 0.0000 0.0000 0.0000 0.0000 34.2421 0.0000
# 6 0.0000 0.0000 0.0000 0.0000 0.0000 13.0406
#
#
#
# Elastic Compliance Matrix: (Units=1/GPa)
#
#
# Indices 1 2 3 4 5 6 
#
# 1 0.012212 -0.005725 -0.003326 0.000000 0.000000 0.000000
# 2 -0.005725 0.022639 -0.005619 0.000000 0.000000 0.000000
# 3 -0.003326 -0.005619 0.013249 0.000000 0.000000 0.000000
# 4 0.000000 0.000000 0.000000 0.656325 0.000000 0.000000
# 5 0.000000 0.000000 0.000000 0.000000 0.029204 0.000000
# 6 0.000000 0.000000 0.000000 0.000000 0.000000 0.076684
#
#
# Mechanical properties :
#
#
# Convention : Reuss Voigt Hill
#
# Bulk Modulus (GPa) = 53.30681 58.02427 55.66554
# Shear Modulus (GPa) = 5.91082 20.21897 13.06490
#
# Velocity S-wave (km/s) = 1.82443 3.37430 2.71242
# Velocity P-wave (km/s) = 5.86998 6.91783 6.41534
#
# Compressibility (1/GPa) = 0.01875933
#
# Stress axis : x y z
#
# Youngs Moduli (GPa) = 81.88792 44.17083 75.47849
#
# Poissons Ratio (x) = 0.25287 0.25105
# Poissons Ratio (y) = 0.46880 0.42414
# Poissons Ratio (z) = 0.27237 0.24821
#
# Static dielectric constant tensor:
#      x y z
#    x 1.587910 0.000000 0.000000 
#    y 0.000000 1.627180 0.000000 
#    z 0.000000 0.000000 1.611830 
# 
# From -- ./inp_files/45333.got.cif
#   From: 2010.05.17/outbox.cif.g08.bks.cpg/sg67_23_cif.got.tgz:45333.got - 2010.06.03 18:28:57.
