data_PCOD9503476
_publ_section_title
;
Structure prediction by ZEFSAII (Michael W. Deem and Ramdas Pophale) SiO2 
 PCOD9503476
Probable space group: C M M A
;
_chemical_formula_sum "Si O2"
_cell_formula_units_Z 116
_cell_length_a 7.892310
_cell_length_b 31.074242
_cell_length_c 23.965290
_cell_angle_alpha 90.000000
_cell_angle_beta 90.000000
_cell_angle_gamma 90.000000
_cell_volume 5877.428679
_symmetry_space_group_name_H-M "C M M A"
_symmetry_group_IT_number 67
_symmetry_cell_setting 'orthorhombic'
loop_
_space_group_symop_operation_xyz
x,y,z
-x,1/2-y,z
x,-y,-z
-x,1/2+y,-z
-x,-y,-z
x,1/2+y,-z
-x,y,z
x,1/2-y,z
1/2+x,1/2+y,z
1/2-x,-y,z
1/2+x,1/2-y,-z
1/2-x,y,-z
1/2-x,1/2-y,-z
1/2+x,y,-z
1/2-x,1/2+y,z
1/2+x,-y,z
loop_
_atom_site_type_symbol
_atom_site_label
_atom_site_fract_x
_atom_site_fract_y
_atom_site_fract_z
Si Si1 0.803192 0.182602 0.435842
Si Si2 0.695423 0.798215 0.854159
Si Si3 0.304036 0.875732 0.655957
Si Si4 0.196024 0.371452 0.064039
Si Si5 0.304367 0.201108 0.731397
Si Si6 0.000000 0.750000 0.407697
Si Si7 0.795838 0.549104 0.265345
Si Si8 0.202841 0.450795 0.861431
O O1 0.750000 0.176537 0.500000
O O2 0.792666 0.139654 0.398875
O O3 0.653771 0.213148 0.411622
O O4 0.000000 0.198641 0.434024
O O5 0.500000 0.797626 0.836048
O O6 0.740562 0.750000 0.874133
O O7 0.713994 0.833933 0.901080
O O8 0.797409 0.807202 0.797650
O O9 0.500000 0.884036 0.641875
O O10 0.293428 0.835580 0.698870
O O11 0.233127 0.916575 0.689712
O O12 0.226427 0.416472 0.095316
O O13 0.000000 0.360616 0.066066
O O14 0.250000 0.373924 0.000000
O O15 0.500000 0.200006 0.712786
O O16 0.238769 0.250000 0.722127
O O17 0.750000 0.500000 0.278441
O O18 0.735420 0.558244 0.201941
O O19 0.000000 0.552809 0.263812
O O20 0.250000 0.500000 0.874733
O O21 0.000000 0.446924 0.861937
#
# Coordination Sequence:
#
# PCOD9503476 Si02
#       8
#    16  16  16  16  16   4  16  16
#     4  12  25  41  62  90 123 172 215 259 308 358
#     4  10  21  39  60  81 109 148 190 238 292 348
#     4  11  22  38  57  87 125 161 199 254 303 356
#     4  12  25  40  59  83 111 147 189 237 288 347
#     4  10  21  35  53  83 117 154 195 238 290 355
#     4  12  24  44  62  90 124 172 218 264 296 358
#     4   9  20  37  62  89 119 153 193 240 298 356
#     4  10  20  38  62  91 121 152 187 230 284 352
#
# _framework density 19.736523999999999
#
# number of rings (size 3 to 8) (size 9 to 14) (size 15 to 20)
#    0.000    1.379    1.379    4.138    0.966    4.966 
#    0.000    1.379    0.000    0.414    0.000    2.897 
#    0.000    0.000    0.000    0.000    0.000    0.000 
#
# Total GULP energy -323512.461336 kJ/mol
# GULP energy per Si atom -5577.801058 kJ/mol
# Density = 1.969160 g / cm^3
# Si number density = 19.736524 Si / 1000 Ang^3
#
#
#
# Elastic Constant Matrix: (Units=GPa)
#
#
# Indices 1 2 3 4 5 6 
#
# 1 88.8537 0.3275 6.5522 0.0000 0.0000 0.0000
# 2 0.3275 75.4827 58.3425 0.0000 0.0000 0.0000
# 3 6.5522 58.3425 83.4094 0.0000 0.0000 0.0000
# 4 0.0000 0.0000 0.0000 -27.2313 0.0000 0.0000
# 5 0.0000 0.0000 0.0000 0.0000 18.3938 0.0000
# 6 0.0000 0.0000 0.0000 0.0000 0.0000 25.9250
#
#
#
# Elastic Compliance Matrix: (Units=1/GPa)
#
#
# Indices 1 2 3 4 5 6 
#
# 1 0.011387 0.001398 -0.001872 0.000000 0.000000 0.000000
# 2 0.001398 0.029012 -0.020403 0.000000 0.000000 0.000000
# 3 -0.001872 -0.020403 0.026407 0.000000 0.000000 0.000000
# 4 0.000000 0.000000 0.000000 -0.036722 0.000000 0.000000
# 5 0.000000 0.000000 0.000000 0.000000 0.054366 0.000000
# 6 0.000000 0.000000 0.000000 0.000000 0.000000 0.038573
#
#
# Mechanical properties :
#
#
# Convention : Reuss Voigt Hill
#
# Bulk Modulus (GPa) = 39.91708 42.02113 40.96910
# Shear Modulus (GPa) = 28.88039 15.58572 22.23306
#
# Velocity S-wave (km/s) = 3.82946 2.81319 3.35997
# Velocity P-wave (km/s) = 6.31046 5.64706 5.98795
#
# Compressibility (1/GPa) = 0.02505193
#
# Stress axis : x y z
#
# Youngs Moduli (GPa) = 87.81664 34.46881 37.86849
#
# Poissons Ratio (x) = -0.04817 0.07089
# Poissons Ratio (y) = -0.12273 0.77262
# Poissons Ratio (z) = 0.16440 0.70326
#
# Static dielectric constant tensor:
#      x y z
#    x 1.720630 0.000000 0.000000 
#    y 0.000000 1.685290 0.000000 
#    z 0.000000 0.000000 1.618090 
# 
# From -- ./inp_files/41078.got.cif
#   From: 2010.05.17/outbox.cif.g08.bks.cpg/sg67_21_cif.got.tgz:41078.got - 2010.06.03 18:28:57.
