data_PCOD9503269
_publ_section_title
;
Structure prediction by ZEFSAII (Michael W. Deem and Ramdas Pophale) SiO2 
 PCOD9503269
Probable space group: C M M A
;
_chemical_formula_sum "Si O2"
_cell_formula_units_Z 112
_cell_length_a 16.948956
_cell_length_b 26.158480
_cell_length_c 13.422728
_cell_angle_alpha 90.000000
_cell_angle_beta 90.000000
_cell_angle_gamma 90.000000
_cell_volume 5951.086277
_symmetry_space_group_name_H-M "C M M A"
_symmetry_group_IT_number 67
_symmetry_cell_setting 'orthorhombic'
loop_
_space_group_symop_operation_xyz
x,y,z
-x,1/2-y,z
x,-y,-z
-x,1/2+y,-z
-x,-y,-z
x,1/2+y,-z
-x,y,z
x,1/2-y,z
1/2+x,1/2+y,z
1/2-x,-y,z
1/2+x,1/2-y,-z
1/2-x,y,-z
1/2-x,1/2-y,-z
1/2+x,y,-z
1/2-x,1/2+y,z
1/2+x,-y,z
loop_
_atom_site_type_symbol
_atom_site_label
_atom_site_fract_x
_atom_site_fract_y
_atom_site_fract_z
Si Si1 0.088026 0.486541 0.384339
Si Si2 0.621930 0.598154 0.628344
Si Si3 0.911231 0.657390 0.559078
Si Si4 0.164682 0.250000 0.556872
Si Si5 0.903431 0.750000 0.219941
Si Si6 0.768798 0.938565 0.115969
Si Si7 0.588884 0.862019 0.832531
Si Si8 0.300049 0.399315 0.689680
O O1 0.097480 0.500000 0.500000
O O2 0.098237 0.541917 0.336004
O O3 0.154560 0.449550 0.346051
O O4 0.000000 0.466365 0.365131
O O5 0.591968 0.609683 0.517921
O O6 0.587374 0.634586 0.711925
O O7 0.716131 0.603517 0.634234
O O8 0.879166 0.701406 0.488720
O O9 0.853677 0.646783 0.650971
O O10 0.000000 0.666594 0.591461
O O11 0.250000 0.250000 0.500000
O O12 0.149121 0.250000 0.676914
O O13 0.886576 0.802206 0.156998
O O14 0.000000 0.750000 0.241268
O O15 0.852779 0.908178 0.132956
O O16 0.715186 0.906833 0.193799
O O17 0.750000 0.000000 0.137909
O O18 0.750000 0.932731 0.000000
O O19 0.500000 0.869339 0.871379
#
# Coordination Sequence:
#
# PCOD9503269 Si02
#       8
#    16  16  16   8   8  16  16  16
#     4  11  21  31  47  76 116 159 196 232 285 363
#     4  11  20  32  52  79 115 155 200 242 284 347
#     4  12  23  36  52  80 122 162 198 239 289 355
#     4  12  24  36  56  86 123 174 216 243 288 359
#     4  10  20  36  61  94 130 170 215 263 304 360
#     4  10  23  45  67  90 120 156 209 280 335 386
#     4  10  20  37  64  93 124 162 210 264 318 370
#     4  11  22  36  55  81 112 157 199 245 306 367
#
# _framework density 18.820094000000001
#
# number of rings (size 3 to 8) (size 9 to 14) (size 15 to 20)
#    0.000    1.143    2.857    5.786    2.000    0.571 
#    0.000    3.929    0.000    0.000    0.000    2.000 
#    0.000    0.000    0.000    0.000    0.000    0.000 
#
# Total GULP energy -311971.886158 kJ/mol
# GULP energy per Si atom -5570.926539 kJ/mol
# Density = 1.877726 g / cm^3
# Si number density = 18.820094 Si / 1000 Ang^3
#
#
#
# Elastic Constant Matrix: (Units=GPa)
#
#
# Indices 1 2 3 4 5 6 
#
# 1 133.1010 27.3975 28.0373 0.0000 0.0000 0.0000
# 2 27.3975 94.9078 8.9417 0.0000 0.0000 0.0000
# 3 28.0373 8.9417 73.0882 0.0000 0.0000 0.0000
# 4 0.0000 0.0000 0.0000 20.3931 0.0000 0.0000
# 5 0.0000 0.0000 0.0000 0.0000 8.0568 0.0000
# 6 0.0000 0.0000 0.0000 0.0000 0.0000 8.3158
#
#
#
# Elastic Compliance Matrix: (Units=1/GPa)
#
#
# Indices 1 2 3 4 5 6 
#
# 1 0.008604 -0.002198 -0.003032 0.000000 0.000000 0.000000
# 2 -0.002198 0.011221 -0.000530 0.000000 0.000000 0.000000
# 3 -0.003032 -0.000530 0.014910 0.000000 0.000000 0.000000
# 4 0.000000 0.000000 0.000000 0.049036 0.000000 0.000000
# 5 0.000000 0.000000 0.000000 0.000000 0.124118 0.000000
# 6 0.000000 0.000000 0.000000 0.000000 0.000000 0.120254
#
#
# Mechanical properties :
#
#
# Convention : Reuss Voigt Hill
#
# Bulk Modulus (GPa) = 43.07344 47.76112 45.41728
# Shear Modulus (GPa) = 14.39261 23.13451 18.76356
#
# Velocity S-wave (km/s) = 2.76841 3.50986 3.16095
# Velocity P-wave (km/s) = 5.75807 6.46980 6.12428
#
# Compressibility (1/GPa) = 0.02321616
#
# Stress axis : x y z
#
# Youngs Moduli (GPa) = 116.22252 89.11867 67.06966
#
# Poissons Ratio (x) = 0.19590 0.20334
# Poissons Ratio (y) = 0.25548 0.03552
# Poissons Ratio (z) = 0.35235 0.04719
#
# Static dielectric constant tensor:
#      x y z
#    x 1.685610 0.000000 0.000000 
#    y 0.000000 1.626700 0.000000 
#    z 0.000000 0.000000 1.621360 
# 
# From -- ./inp_files/27778.got.cif
#   From: 2010.05.17/outbox.cif.g08.bks.cpg/sg67_14_cif.got.tgz:27778.got - 2010.06.03 18:28:57.
