data_PCOD9503059
_publ_section_title
;
Structure prediction by ZEFSAII (Michael W. Deem and Ramdas Pophale) SiO2 
 PCOD9503059
Probable space group: C M M A
;
_chemical_formula_sum "Si O2"
_cell_formula_units_Z 72
_cell_length_a 24.899911
_cell_length_b 15.917046
_cell_length_c 8.820748
_cell_angle_alpha 90.000000
_cell_angle_beta 90.000000
_cell_angle_gamma 90.000000
_cell_volume 3495.953771
_symmetry_space_group_name_H-M "C M M A"
_symmetry_group_IT_number 67
_symmetry_cell_setting 'orthorhombic'
loop_
_space_group_symop_operation_xyz
x,y,z
-x,1/2-y,z
x,-y,-z
-x,1/2+y,-z
-x,-y,-z
x,1/2+y,-z
-x,y,z
x,1/2-y,z
1/2+x,1/2+y,z
1/2-x,-y,z
1/2+x,1/2-y,-z
1/2-x,y,-z
1/2-x,1/2-y,-z
1/2+x,y,-z
1/2-x,1/2+y,z
1/2+x,-y,z
loop_
_atom_site_type_symbol
_atom_site_label
_atom_site_fract_x
_atom_site_fract_y
_atom_site_fract_z
Si Si1 0.438400 0.589138 0.929716
Si Si2 0.278005 0.750000 0.234085
Si Si3 0.385928 0.750000 0.408576
Si Si4 0.275285 0.915864 0.669052
Si Si5 0.382825 0.750000 0.065663
Si Si6 0.099457 0.582112 0.402474
O O1 0.500000 0.603132 0.978722
O O2 0.435358 0.585755 0.748508
O O3 0.420481 0.500000 0.000000
O O4 0.402304 0.666406 0.983664
O O5 0.321028 0.750000 0.376746
O O6 0.242538 0.832712 0.244668
O O7 0.318930 0.750000 0.093617
O O8 0.407119 0.750000 0.236552
O O9 0.402725 0.666792 0.498177
O O10 0.250000 0.909403 0.500000
O O11 0.338667 0.925295 0.651833
O O12 0.250000 0.000000 0.738924
O O13 0.086222 0.500000 0.500000
#
# Coordination Sequence:
#
# PCOD9503059 Si02
#       6
#    16   8   8  16   8  16
#     4  11  26  46  67  89 127 177 219 273 341 395
#     4  10  20  35  63  94 127 170 211 244 311 388
#     4  10  20  35  65  94 121 167 207 273 305 375
#     4  11  18  32  58  95 133 168 201 255 322 385
#     4  10  22  45  69  91 131 172 215 265 327 403
#     4  12  22  38  66  97 129 165 222 270 317 383
#
# _framework density 20.595238999999999
#
# number of rings (size 3 to 8) (size 9 to 14) (size 15 to 20)
#    0.667    0.444    4.444    3.333    3.111    0.444 
#    0.000    4.444    0.000    0.000    0.000    0.000 
#    0.000    0.000    0.000    0.000    0.000    0.000 
#
# Total GULP energy -201218.895974 kJ/mol
# GULP energy per Si atom -5589.413777 kJ/mol
# Density = 2.054836 g / cm^3
# Si number density = 20.595239 Si / 1000 Ang^3
#
#
#
# Elastic Constant Matrix: (Units=GPa)
#
#
# Indices 1 2 3 4 5 6 
#
# 1 24.2844 2.7538 2.2000 0.0000 0.0000 0.0000
# 2 2.7538 177.6676 55.6987 0.0000 0.0000 0.0000
# 3 2.2000 55.6987 87.1826 0.0000 0.0000 0.0000
# 4 0.0000 0.0000 0.0000 13.8637 0.0000 0.0000
# 5 0.0000 0.0000 0.0000 0.0000 25.0649 0.0000
# 6 0.0000 0.0000 0.0000 0.0000 0.0000 50.8505
#
#
#
# Elastic Compliance Matrix: (Units=1/GPa)
#
#
# Indices 1 2 3 4 5 6 
#
# 1 0.041295 -0.000392 -0.000792 0.000000 0.000000 0.000000
# 2 -0.000392 0.007042 -0.004489 0.000000 0.000000 0.000000
# 3 -0.000792 -0.004489 0.014358 0.000000 0.000000 0.000000
# 4 0.000000 0.000000 0.000000 0.072131 0.000000 0.000000
# 5 0.000000 0.000000 0.000000 0.000000 0.039896 0.000000
# 6 0.000000 0.000000 0.000000 0.000000 0.000000 0.019665
#
#
# Mechanical properties :
#
#
# Convention : Reuss Voigt Hill
#
# Bulk Modulus (GPa) = 19.47431 45.60439 32.53935
# Shear Modulus (GPa) = 22.43668 33.18795 27.81232
#
# Velocity S-wave (km/s) = 3.30420 4.01863 3.67880
# Velocity P-wave (km/s) = 4.90237 6.61239 5.82052
#
# Compressibility (1/GPa) = 0.05134971
#
# Stress axis : x y z
#
# Youngs Moduli (GPa) = 24.21608 142.00805 69.64734
#
# Poissons Ratio (x) = 0.05565 0.05514
# Poissons Ratio (y) = 0.00949 0.31265
# Poissons Ratio (z) = 0.01917 0.63747
#
# Static dielectric constant tensor:
#      x y z
#    x 1.714840 0.000000 0.000000 
#    y 0.000000 1.700410 0.000000 
#    z 0.000000 0.000000 1.730740 
# 
# From -- ./inp_files/13376.got.cif
#   From: 2010.05.17/outbox.cif.g08.bks.cpg/sg67_7_cif.got.tgz:13376.got - 2010.06.03 18:28:57.
