data_PCOD9503253
_publ_section_title
;
Structure prediction by ZEFSAII (Michael W. Deem and Ramdas Pophale) SiO2 
 PCOD9503253
Probable space group: C M M A
;
_chemical_formula_sum "Si O2"
_cell_formula_units_Z 112
_cell_length_a 18.503660
_cell_length_b 24.605553
_cell_length_c 13.082131
_cell_angle_alpha 90.000000
_cell_angle_beta 90.000000
_cell_angle_gamma 90.000000
_cell_volume 5956.199881
_symmetry_space_group_name_H-M "C M M A"
_symmetry_group_IT_number 67
_symmetry_cell_setting 'orthorhombic'
loop_
_space_group_symop_operation_xyz
x,y,z
-x,1/2-y,z
x,-y,-z
-x,1/2+y,-z
-x,-y,-z
x,1/2+y,-z
-x,y,z
x,1/2-y,z
1/2+x,1/2+y,z
1/2-x,-y,z
1/2+x,1/2-y,-z
1/2-x,y,-z
1/2-x,1/2-y,-z
1/2+x,y,-z
1/2-x,1/2+y,z
1/2+x,-y,z
loop_
_atom_site_type_symbol
_atom_site_label
_atom_site_fract_x
_atom_site_fract_y
_atom_site_fract_z
Si Si1 0.913309 0.627084 0.105309
Si Si2 0.333310 0.016977 0.611192
Si Si3 0.586768 0.887093 0.124356
Si Si4 0.667983 0.857624 0.325498
Si Si5 0.170145 0.815713 0.288036
Si Si6 0.918817 0.814482 0.485995
Si Si7 0.414052 0.491795 0.186660
O O1 0.867371 0.661567 0.185773
O O2 0.898751 0.563189 0.125875
O O3 0.000000 0.636150 0.119673
O O4 0.895042 0.636665 0.986635
O O5 0.375885 0.989749 0.703935
O O6 0.361854 0.000000 0.500000
O O7 0.250000 0.000000 0.616042
O O8 0.335201 0.081197 0.630723
O O9 0.500000 0.883854 0.136027
O O10 0.625409 0.857919 0.218471
O O11 0.606732 0.951411 0.132237
O O12 0.749315 0.838187 0.305516
O O13 0.627642 0.823706 0.412568
O O14 0.172223 0.750000 0.285629
O O15 0.122422 0.834926 0.385259
O O16 0.924944 0.750000 0.471587
O O17 0.000000 0.837469 0.495716
O O18 0.500000 0.494319 0.201438
#
# Coordination Sequence:
#
# PCOD9503253 Si02
#       7
#    16  16  16  16  16  16  16
#     4  10  20  36  61  84 114 155 193 236 290 338
#     4  10  22  34  50  78 118 153 183 227 282 342
#     4   9  19  37  58  87 118 150 190 234 283 342
#     4  11  22  37  61  82 116 155 187 235 290 344
#     4  11  24  40  59  85 115 149 196 244 289 339
#     4  10  22  40  62  86 110 143 190 239 286 342
#     4   9  18  34  56  84 113 147 191 232 276 339
#
# _framework density 18.803936
#
# number of rings (size 3 to 8) (size 9 to 14) (size 15 to 20)
#    0.000    2.000    0.000    3.000    6.000    5.143 
#    0.000    2.143    0.000    4.286    0.000    0.000 
#    0.000    0.000    0.000    0.000    0.000    0.000 
#
# Total GULP energy -312625.932204 kJ/mol
# GULP energy per Si atom -5582.605932 kJ/mol
# Density = 1.876114 g / cm^3
# Si number density = 18.803936 Si / 1000 Ang^3
#
#
#
# Elastic Constant Matrix: (Units=GPa)
#
#
# Indices 1 2 3 4 5 6 
#
# 1 76.7194 24.5089 78.7919 0.0000 0.0000 0.0000
# 2 24.5089 22.3652 40.6821 0.0000 0.0000 0.0000
# 3 78.7919 40.6821 181.8196 0.0000 0.0000 0.0000
# 4 0.0000 0.0000 0.0000 26.9767 0.0000 0.0000
# 5 0.0000 0.0000 0.0000 0.0000 211.6064 0.0000
# 6 0.0000 0.0000 0.0000 0.0000 0.0000 22.7532
#
#
#
# Elastic Compliance Matrix: (Units=1/GPa)
#
#
# Indices 1 2 3 4 5 6 
#
# 1 0.025637 -0.013298 -0.008134 0.000000 0.000000 0.000000
# 2 -0.013298 0.082297 -0.012651 0.000000 0.000000 0.000000
# 3 -0.008134 -0.012651 0.011856 0.000000 0.000000 0.000000
# 4 0.000000 0.000000 0.000000 0.037069 0.000000 0.000000
# 5 0.000000 0.000000 0.000000 0.000000 0.004726 0.000000
# 6 0.000000 0.000000 0.000000 0.000000 0.000000 0.043950
#
#
# Mechanical properties :
#
#
# Convention : Reuss Voigt Hill
#
# Bulk Modulus (GPa) = 19.37128 63.20777 41.28952
# Shear Modulus (GPa) = 17.18754 61.39535 39.29144
#
# Velocity S-wave (km/s) = 3.02659 5.72024 4.57610
# Velocity P-wave (km/s) = 4.74739 8.79291 7.06587
#
# Compressibility (1/GPa) = 0.05162283
#
# Stress axis : x y z
#
# Youngs Moduli (GPa) = 39.00656 12.15110 84.34706
#
# Poissons Ratio (x) = 0.16158 0.68611
# Poissons Ratio (y) = 0.51869 1.06711
# Poissons Ratio (z) = 0.31730 0.15373
#
# Static dielectric constant tensor:
#      x y z
#    x 1.673110 0.000000 0.000000 
#    y 0.000000 1.692610 0.000000 
#    z 0.000000 0.000000 1.636340 
# 
# From -- ./inp_files/21082.got.cif
#   From: 2010.05.17/outbox.cif.g08.bks.cpg/sg67_11_cif.got.tgz:21082.got - 2010.06.03 18:28:57.
