data_PCOD9503426
_publ_section_title
;
Structure prediction by ZEFSAII (Michael W. Deem and Ramdas Pophale) SiO2 
 PCOD9503426
Probable space group: C M M A
;
_chemical_formula_sum "Si O2"
_cell_formula_units_Z 92
_cell_length_a 21.633499
_cell_length_b 17.344794
_cell_length_c 12.019371
_cell_angle_alpha 90.000000
_cell_angle_beta 90.000000
_cell_angle_gamma 90.000000
_cell_volume 4510.011557
_symmetry_space_group_name_H-M "C M M A"
_symmetry_group_IT_number 67
_symmetry_cell_setting 'orthorhombic'
loop_
_space_group_symop_operation_xyz
x,y,z
-x,1/2-y,z
x,-y,-z
-x,1/2+y,-z
-x,-y,-z
x,1/2+y,-z
-x,y,z
x,1/2-y,z
1/2+x,1/2+y,z
1/2-x,-y,z
1/2+x,1/2-y,-z
1/2-x,y,-z
1/2-x,1/2-y,-z
1/2+x,y,-z
1/2-x,1/2+y,z
1/2+x,-y,z
loop_
_atom_site_type_symbol
_atom_site_label
_atom_site_fract_x
_atom_site_fract_y
_atom_site_fract_z
Si Si1 0.930092 0.750000 0.203676
Si Si2 0.000000 0.158910 0.395137
Si Si3 0.698834 0.338839 0.752974
Si Si4 0.500000 0.909080 0.151384
Si Si5 0.338937 0.384375 0.277430
Si Si6 0.364514 0.658054 0.483202
Si Si7 0.634463 0.472230 0.878345
Si Si8 0.500000 0.750000 0.015338
O O1 0.892150 0.824592 0.240634
O O2 0.000000 0.750000 0.252540
O O3 0.942339 0.750000 0.070950
O O4 0.062924 0.144519 0.461743
O O5 0.000000 0.250000 0.365147
O O6 0.000000 0.110466 0.282252
O O7 0.682645 0.250000 0.773656
O O8 0.772072 0.350463 0.752513
O O9 0.671734 0.358604 0.630690
O O10 0.667714 0.393935 0.842336
O O11 0.438572 0.955771 0.122396
O O12 0.500000 0.827364 0.087114
O O13 0.342306 0.389370 0.410806
O O14 0.348953 0.463627 0.212940
O O15 0.355454 0.750000 0.507395
O O16 0.653883 0.500000 0.000000
#
# Coordination Sequence:
#
# PCOD9503426 Si02
#       8
#     8   8  16   8  16  16  16   4
#     4  10  24  42  65 107 132 181 237 287 342 423
#     4  10  20  37  70 108 138 177 234 296 343 410
#     4  11  24  47  73 102 140 196 238 280 349 433
#     4  12  23  47  72 101 136 191 233 296 355 414
#     4  12  24  45  71 104 149 184 229 294 360 416
#     4  10  21  39  70 108 143 183 235 286 349 424
#     4  12  29  47  71 104 146 182 240 302 356 413
#     4  10  24  40  76  96 140 180 252 274 340 434
#
# _framework density 20.399061
#
# number of rings (size 3 to 8) (size 9 to 14) (size 15 to 20)
#    0.261    0.696    3.913    2.348    3.652    3.478 
#    1.565    3.478    0.000    0.000    0.000    0.000 
#    0.000    0.000    0.000    0.000    0.000    0.000 
#
# Total GULP energy -257389.747443 kJ/mol
# GULP energy per Si atom -5595.429292 kJ/mol
# Density = 2.035263 g / cm^3
# Si number density = 20.399061 Si / 1000 Ang^3
#
#
#
# Elastic Constant Matrix: (Units=GPa)
#
#
# Indices 1 2 3 4 5 6 
#
# 1 118.8769 34.3565 35.0174 0.0000 0.0000 0.0000
# 2 34.3565 99.7076 71.5061 0.0000 0.0000 0.0000
# 3 35.0174 71.5061 135.3262 0.0000 0.0000 0.0000
# 4 0.0000 0.0000 0.0000 54.2389 0.0000 0.0000
# 5 0.0000 0.0000 0.0000 0.0000 -0.4084 0.0000
# 6 0.0000 0.0000 0.0000 0.0000 0.0000 18.7861
#
#
#
# Elastic Compliance Matrix: (Units=1/GPa)
#
#
# Indices 1 2 3 4 5 6 
#
# 1 0.009456 -0.002421 -0.001168 0.000000 0.000000 0.000000
# 2 -0.002421 0.016769 -0.008234 0.000000 0.000000 0.000000
# 3 -0.001168 -0.008234 0.012043 0.000000 0.000000 0.000000
# 4 0.000000 0.000000 0.000000 0.018437 0.000000 0.000000
# 5 0.000000 0.000000 0.000000 0.000000 -2.448449 0.000000
# 6 0.000000 0.000000 0.000000 0.000000 0.000000 0.053231
#
#
# Mechanical properties :
#
#
# Convention : Reuss Voigt Hill
#
# Bulk Modulus (GPa) = 68.39100 70.63009 69.51055
# Shear Modulus (GPa) = -2.16451 28.72537 13.28043
#
# Velocity S-wave (km/s) = -1.03121 3.75663 2.55430
# Velocity P-wave (km/s) = 5.67287 7.31544 6.54588
#
# Compressibility (1/GPa) = 0.01462181
#
# Stress axis : x y z
#
# Youngs Moduli (GPa) = 105.75701 59.63521 83.03869
#
# Poissons Ratio (x) = 0.14436 0.09696
# Poissons Ratio (y) = 0.25601 0.68375
# Poissons Ratio (z) = 0.12348 0.49104
#
# Static dielectric constant tensor:
#      x y z
#    x 1.719860 0.000000 0.000000 
#    y 0.000000 1.700380 0.000000 
#    z 0.000000 0.000000 1.717240 
# 
# From -- ./inp_files/20721.got.cif
#   From: 2010.05.17/outbox.cif.g08.bks.cpg/sg67_11_cif.got.tgz:20721.got - 2010.06.03 18:28:57.
