data_PCOD9503702
_publ_section_title
;
Structure prediction by ZEFSAII (Michael W. Deem and Ramdas Pophale) SiO2 
 PCOD9503702
Probable space group: C M M A
;
_chemical_formula_sum "Si O2"
_cell_formula_units_Z 96
_cell_length_a 19.354169
_cell_length_b 8.878826
_cell_length_c 31.727808
_cell_angle_alpha 90.000000
_cell_angle_beta 90.000000
_cell_angle_gamma 90.000000
_cell_volume 5452.179467
_symmetry_space_group_name_H-M "C M M A"
_symmetry_group_IT_number 67
_symmetry_cell_setting 'orthorhombic'
loop_
_space_group_symop_operation_xyz
x,y,z
-x,1/2-y,z
x,-y,-z
-x,1/2+y,-z
-x,-y,-z
x,1/2+y,-z
-x,y,z
x,1/2-y,z
1/2+x,1/2+y,z
1/2-x,-y,z
1/2+x,1/2-y,-z
1/2-x,y,-z
1/2-x,1/2-y,-z
1/2+x,y,-z
1/2-x,1/2+y,z
1/2+x,-y,z
loop_
_atom_site_type_symbol
_atom_site_label
_atom_site_fract_x
_atom_site_fract_y
_atom_site_fract_z
Si Si1 0.174633 0.569884 0.785972
Si Si2 0.826496 0.068937 0.635332
Si Si3 0.674948 0.570105 0.116338
Si Si4 0.419685 0.932111 0.714417
Si Si5 0.917762 0.071625 0.955500
Si Si6 0.327213 0.069670 0.458131
O O1 0.178451 0.750000 0.781469
O O2 0.250000 0.500000 0.776643
O O3 0.157749 0.534443 0.834837
O O4 0.118661 0.502351 0.754443
O O5 0.819143 0.250000 0.637023
O O6 0.877398 0.021626 0.672620
O O7 0.855301 0.032950 0.588464
O O8 0.750000 0.000000 0.640429
O O9 0.678040 0.750000 0.112217
O O10 0.750000 0.500000 0.107791
O O11 0.621238 0.502829 0.083436
O O12 0.500000 0.975528 0.712242
O O13 0.416401 0.750000 0.717196
O O14 0.905086 0.250000 0.956210
O O15 0.000000 0.046365 0.951476
O O16 0.895378 0.000000 0.000000
O O17 0.323457 0.250000 0.462655
O O18 0.361272 0.000000 0.500000
O O19 0.250000 0.000000 0.456852
#
# Coordination Sequence:
#
# PCOD9503702 Si02
#       6
#    16  16  16  16  16  16
#     4  10  21  37  57  80 106 136 171 213 260 309
#     4   9  18  31  48  71  97 128 165 205 251 301
#     4  10  21  37  57  81 109 139 173 215 261 309
#     4  10  21  36  53  74 102 136 173 212 255 305
#     4  10  21  37  57  81 110 144 181 219 259 305
#     4   9  15  24  40  64  93 121 154 198 246 295
#
# _framework density 17.607638000000001
#
# number of rings (size 3 to 8) (size 9 to 14) (size 15 to 20)
#    0.000    2.333    0.000    3.000    0.000    7.000 
#    0.000    5.000    0.000    0.500    0.000    0.000 
#    0.000    0.000    0.000    0.000    0.000    4.500 
#
# Total GULP energy -267746.912971 kJ/mol
# GULP energy per Si atom -5578.060687 kJ/mol
# Density = 1.756756 g / cm^3
# Si number density = 17.607638 Si / 1000 Ang^3
#
#
#
# Elastic Constant Matrix: (Units=GPa)
#
#
# Indices 1 2 3 4 5 6 
#
# 1 88.8475 46.9877 93.5219 0.0000 0.0000 0.0000
# 2 46.9877 52.0806 65.8534 0.0000 0.0000 0.0000
# 3 93.5219 65.8534 154.2977 0.0000 0.0000 0.0000
# 4 0.0000 0.0000 0.0000 53.7675 0.0000 0.0000
# 5 0.0000 0.0000 0.0000 0.0000 -26.2546 0.0000
# 6 0.0000 0.0000 0.0000 0.0000 0.0000 23.5805
#
#
#
# Elastic Compliance Matrix: (Units=1/GPa)
#
#
# Indices 1 2 3 4 5 6 
#
# 1 0.033249 -0.009809 -0.015966 0.000000 0.000000 0.000000
# 2 -0.009809 0.044604 -0.013091 0.000000 0.000000 0.000000
# 3 -0.015966 -0.013091 0.021746 0.000000 0.000000 0.000000
# 4 0.000000 0.000000 0.000000 0.018599 0.000000 0.000000
# 5 0.000000 0.000000 0.000000 0.000000 -0.038089 0.000000
# 6 0.000000 0.000000 0.000000 0.000000 0.000000 0.042408
#
#
# Mechanical properties :
#
#
# Convention : Reuss Voigt Hill
#
# Bulk Modulus (GPa) = 45.73407 78.66129 62.19768
# Shear Modulus (GPa) = 24.09179 16.14288 20.11734
#
# Velocity S-wave (km/s) = 3.70301 3.03117 3.38381
# Velocity P-wave (km/s) = 6.65683 7.55130 7.11813
#
# Compressibility (1/GPa) = 0.02186553
#
# Stress axis : x y z
#
# Youngs Moduli (GPa) = 30.07595 22.41928 45.98609
#
# Poissons Ratio (x) = 0.21991 0.73423
# Poissons Ratio (y) = 0.29502 0.60203
# Poissons Ratio (z) = 0.48020 0.29350
#
# Static dielectric constant tensor:
#      x y z
#    x 1.561900 0.000000 0.000000 
#    y 0.000000 1.590030 0.000000 
#    z 0.000000 0.000000 1.625650 
# 
# From -- ./inp_files/44611.got.cif
#   From: 2010.05.17/outbox.cif.g08.bks.cpg/sg67_23_cif.got.tgz:44611.got - 2010.06.03 18:28:57.
