data_PCOD9503738
_publ_section_title
;
Structure prediction by ZEFSAII (Michael W. Deem and Ramdas Pophale) SiO2 
 PCOD9503738
Probable space group: C M M A
;
_chemical_formula_sum "Si O2"
_cell_formula_units_Z 80
_cell_length_a 18.587330
_cell_length_b 8.910575
_cell_length_c 26.548896
_cell_angle_alpha 90.000000
_cell_angle_beta 90.000000
_cell_angle_gamma 90.000000
_cell_volume 4397.128989
_symmetry_space_group_name_H-M "C M M A"
_symmetry_group_IT_number 67
_symmetry_cell_setting 'orthorhombic'
loop_
_space_group_symop_operation_xyz
x,y,z
-x,1/2-y,z
x,-y,-z
-x,1/2+y,-z
-x,-y,-z
x,1/2+y,-z
-x,y,z
x,1/2-y,z
1/2+x,1/2+y,z
1/2-x,-y,z
1/2+x,1/2-y,-z
1/2-x,y,-z
1/2-x,1/2-y,-z
1/2+x,y,-z
1/2-x,1/2+y,z
1/2+x,-y,z
loop_
_atom_site_type_symbol
_atom_site_label
_atom_site_fract_x
_atom_site_fract_y
_atom_site_fract_z
Si Si1 0.583906 0.930729 0.656310
Si Si2 0.087644 0.423184 0.448373
Si Si3 0.171231 0.430945 0.754986
Si Si4 0.828783 0.070391 0.053387
Si Si5 0.085041 0.071009 0.856135
O O1 0.500000 0.973971 0.663593
O O2 0.585960 0.750000 0.653515
O O3 0.630660 0.979693 0.704037
O O4 0.609960 0.996379 0.603164
O O5 0.112672 0.500000 0.500000
O O6 0.108732 0.250000 0.447617
O O7 0.000000 0.430296 0.448942
O O8 0.176377 0.250000 0.753632
O O9 0.250000 0.500000 0.758250
O O10 0.124816 0.470185 0.804250
O O11 0.823533 0.250000 0.049603
O O12 0.750000 0.000000 0.063788
O O13 0.881197 0.019977 0.097839
O O14 0.852451 0.000000 0.000000
O O15 0.096474 0.250000 0.864673
O O16 0.000000 0.045858 0.851641
#
# Coordination Sequence:
#
# PCOD9503738 Si02
#       5
#    16  16  16  16  16
#     4   9  17  31  51  74 101 134 173 215 258 307
#     4   9  16  26  43  70 102 134 168 208 256 308
#     4  10  21  36  55  78 105 140 178 217 264 318
#     4  11  22  38  60  85 114 148 186 225 268 319
#     4  10  21  38  59  83 112 145 182 225 272 321
#
# _framework density 18.193691000000001
#
# number of rings (size 3 to 8) (size 9 to 14) (size 15 to 20)
#    0.000    2.200    0.000    4.200    0.000    8.800 
#    0.000    0.000    0.000    4.200    0.000    4.200 
#    0.000    0.000    0.000    0.000    0.000    0.000 
#
# Total GULP energy -223298.674962 kJ/mol
# GULP energy per Si atom -5582.466874 kJ/mol
# Density = 1.815228 g / cm^3
# Si number density = 18.193691 Si / 1000 Ang^3
#
#
#
# Elastic Constant Matrix: (Units=GPa)
#
#
# Indices 1 2 3 4 5 6 
#
# 1 80.1166 50.7453 90.0024 0.0000 0.0000 0.0000
# 2 50.7453 76.9912 77.5757 0.0000 0.0000 0.0000
# 3 90.0024 77.5757 183.2180 0.0000 0.0000 0.0000
# 4 0.0000 0.0000 0.0000 31.7556 0.0000 0.0000
# 5 0.0000 0.0000 0.0000 0.0000 -136.5292 0.0000
# 6 0.0000 0.0000 0.0000 0.0000 0.0000 24.6981
#
#
#
# Elastic Compliance Matrix: (Units=1/GPa)
#
#
# Indices 1 2 3 4 5 6 
#
# 1 0.030972 -0.008867 -0.011460 0.000000 0.000000 0.000000
# 2 -0.008867 0.025191 -0.006310 0.000000 0.000000 0.000000
# 3 -0.011460 -0.006310 0.013760 0.000000 0.000000 0.000000
# 4 0.000000 0.000000 0.000000 0.031490 0.000000 0.000000
# 5 0.000000 0.000000 0.000000 0.000000 -0.007324 0.000000
# 6 0.000000 0.000000 0.000000 0.000000 0.000000 0.040489
#
#
# Mechanical properties :
#
#
# Convention : Reuss Voigt Hill
#
# Bulk Modulus (GPa) = 60.06765 86.33032 73.19898
# Shear Modulus (GPa) = 25.85285 -7.88162 8.98562
#
# Velocity S-wave (km/s) = 3.77368 -2.08362 2.22477
# Velocity P-wave (km/s) = 7.21629 6.46259 6.84981
#
# Compressibility (1/GPa) = 0.01664790
#
# Stress axis : x y z
#
# Youngs Moduli (GPa) = 32.28673 39.69690 72.67662
#
# Poissons Ratio (x) = 0.35198 0.83291
# Poissons Ratio (y) = 0.28628 0.45862
# Poissons Ratio (z) = 0.37002 0.25050
#
# Static dielectric constant tensor:
#      x y z
#    x 1.602480 0.000000 0.000000 
#    y 0.000000 1.614040 0.000000 
#    z 0.000000 0.000000 1.613470 
# 
# From -- ./inp_files/43205.got.cif
#   From: 2010.05.17/outbox.cif.g08.bks.cpg/sg67_22_cif.got.tgz:43205.got - 2010.06.03 18:28:57.
