data_PCOD9503260
_publ_section_title
;
Structure prediction by ZEFSAII (Michael W. Deem and Ramdas Pophale) SiO2 
 PCOD9503260
Probable space group: C M M A
;
_chemical_formula_sum "Si O2"
_cell_formula_units_Z 88
_cell_length_a 15.751885
_cell_length_b 23.642398
_cell_length_c 12.055315
_cell_angle_alpha 90.000000
_cell_angle_beta 90.000000
_cell_angle_gamma 90.000000
_cell_volume 4489.548001
_symmetry_space_group_name_H-M "C M M A"
_symmetry_group_IT_number 67
_symmetry_cell_setting 'orthorhombic'
loop_
_space_group_symop_operation_xyz
x,y,z
-x,1/2-y,z
x,-y,-z
-x,1/2+y,-z
-x,-y,-z
x,1/2+y,-z
-x,y,z
x,1/2-y,z
1/2+x,1/2+y,z
1/2-x,-y,z
1/2+x,1/2-y,-z
1/2-x,y,-z
1/2-x,1/2-y,-z
1/2+x,y,-z
1/2-x,1/2+y,z
1/2+x,-y,z
loop_
_atom_site_type_symbol
_atom_site_label
_atom_site_fract_x
_atom_site_fract_y
_atom_site_fract_z
Si Si1 0.500000 0.990929 0.216085
Si Si2 0.658348 0.318732 0.746464
Si Si3 0.846466 0.015390 0.628230
Si Si4 0.094703 0.815772 0.509315
Si Si5 0.000000 0.131234 0.117907
Si Si6 0.500000 0.377873 0.141484
Si Si7 0.340339 0.857286 0.710814
O O1 0.500000 0.936293 0.138846
O O2 0.583028 0.987745 0.293890
O O3 0.500000 0.053215 0.158451
O O4 0.662374 0.250000 0.752334
O O5 0.636742 0.339386 0.620501
O O6 0.582988 0.341272 0.824388
O O7 0.751010 0.344695 0.768612
O O8 0.849883 0.081694 0.653344
O O9 0.862105 0.000000 0.500000
O O10 0.750000 0.000000 0.655945
O O11 0.084696 0.750000 0.535491
O O12 0.147658 0.818367 0.396901
O O13 0.000000 0.840453 0.491006
O O14 0.000000 0.138904 0.986356
O O15 0.582596 0.353603 0.203492
#
# Coordination Sequence:
#
# PCOD9503260 Si02
#       7
#     8  16  16  16   8   8  16
#     4  10  22  41  63  86 117 164 205 250 310 367
#     4  11  24  41  63  95 126 162 211 253 308 377
#     4  10  22  34  54  93 130 152 198 242 302 380
#     4  10  20  36  61  92 123 159 199 242 303 376
#     4  12  24  42  69  83 121 166 212 267 313 343
#     4  10  25  45  60  93 118 159 217 263 300 375
#     4  11  22  40  63  86 131 163 198 254 314 366
#
# _framework density 19.601082000000002
#
# number of rings (size 3 to 8) (size 9 to 14) (size 15 to 20)
#    0.000    1.455    1.818    3.000    7.636    2.182 
#    0.000    4.545    0.000    3.273    0.000    0.000 
#    0.000    0.000    0.000    0.000    0.000    0.000 
#
# Total GULP energy -245658.162054 kJ/mol
# GULP energy per Si atom -5583.140047 kJ/mol
# Density = 1.955647 g / cm^3
# Si number density = 19.601082 Si / 1000 Ang^3
#
#
#
# Elastic Constant Matrix: (Units=GPa)
#
#
# Indices 1 2 3 4 5 6 
#
# 1 153.1756 12.8342 84.4726 0.0000 0.0000 0.0000
# 2 12.8342 33.1560 30.4588 0.0000 0.0000 0.0000
# 3 84.4726 30.4588 136.6670 0.0000 0.0000 0.0000
# 4 0.0000 0.0000 0.0000 19.4800 0.0000 0.0000
# 5 0.0000 0.0000 0.0000 0.0000 0.8069 0.0000
# 6 0.0000 0.0000 0.0000 0.0000 0.0000 25.2607
#
#
#
# Elastic Compliance Matrix: (Units=1/GPa)
#
#
# Indices 1 2 3 4 5 6 
#
# 1 0.010040 0.002282 -0.006714 0.000000 0.000000 0.000000
# 2 0.002282 0.038444 -0.009978 0.000000 0.000000 0.000000
# 3 -0.006714 -0.009978 0.013691 0.000000 0.000000 0.000000
# 4 0.000000 0.000000 0.000000 0.051335 0.000000 0.000000
# 5 0.000000 0.000000 0.000000 0.000000 1.239285 0.000000
# 6 0.000000 0.000000 0.000000 0.000000 0.000000 0.039587
#
#
# Mechanical properties :
#
#
# Convention : Reuss Voigt Hill
#
# Bulk Modulus (GPa) = 29.98217 64.28110 47.13164
# Shear Modulus (GPa) = 3.49084 22.12505 12.80795
#
# Velocity S-wave (km/s) = 1.33597 3.36336 2.55900
# Velocity P-wave (km/s) = 4.20822 6.92450 5.72966
#
# Compressibility (1/GPa) = 0.03335316
#
# Stress axis : x y z
#
# Youngs Moduli (GPa) = 99.60215 26.01208 73.04181
#
# Poissons Ratio (x) = -0.05935 0.49041
# Poissons Ratio (y) = -0.22725 0.72882
# Poissons Ratio (z) = 0.66874 0.25955
#
# Static dielectric constant tensor:
#      x y z
#    x 1.680880 0.000000 0.000000 
#    y 0.000000 0.793580 0.000000 
#    z 0.000000 0.000000 1.656620 
# 
# From -- ./inp_files/18372.got.cif
#   From: 2010.05.17/outbox.cif.g08.bks.cpg/sg67_10_cif.got.tgz:18372.got - 2010.06.03 18:28:57.
