data_PCOD9503094
_publ_section_title
;
Structure prediction by ZEFSAII (Michael W. Deem and Ramdas Pophale) SiO2 
 PCOD9503094
Probable space group: C M M A
;
_chemical_formula_sum "Si O2"
_cell_formula_units_Z 56
_cell_length_a 11.168044
_cell_length_b 24.631458
_cell_length_c 9.205522
_cell_angle_alpha 90.000000
_cell_angle_beta 90.000000
_cell_angle_gamma 90.000000
_cell_volume 2532.302922
_symmetry_space_group_name_H-M "C M M A"
_symmetry_group_IT_number 67
_symmetry_cell_setting 'orthorhombic'
loop_
_space_group_symop_operation_xyz
x,y,z
-x,1/2-y,z
x,-y,-z
-x,1/2+y,-z
-x,-y,-z
x,1/2+y,-z
-x,y,z
x,1/2-y,z
1/2+x,1/2+y,z
1/2-x,-y,z
1/2+x,1/2-y,-z
1/2-x,y,-z
1/2-x,1/2-y,-z
1/2+x,y,-z
1/2-x,1/2+y,z
1/2+x,-y,z
loop_
_atom_site_type_symbol
_atom_site_label
_atom_site_fract_x
_atom_site_fract_y
_atom_site_fract_z
Si Si1 0.289115 0.861228 0.333479
Si Si2 0.129156 0.750000 0.596306
Si Si3 0.864441 0.314154 0.895273
Si Si4 0.126323 0.480003 0.329591
O O1 0.250000 0.864578 0.500000
O O2 0.361758 0.805278 0.313241
O O3 0.169613 0.852725 0.239254
O O4 0.363885 0.915357 0.311208
O O5 0.250000 0.750000 0.500000
O O6 0.000000 0.750000 0.517536
O O7 0.862347 0.250000 0.853474
O O8 0.000000 0.325010 0.949079
O O9 0.750000 0.322357 0.000000
O O10 0.127263 0.500000 0.500000
O O11 0.250000 0.500000 0.262939
O O12 0.000000 0.499795 0.268711
#
# Coordination Sequence:
#
# PCOD9503094 Si02
#       4
#    16   8  16  16
#     4  11  21  38  62  96 129 168 208 269 325 388
#     4  10  22  34  51  86 127 162 200 254 320 380
#     4  10  23  43  65  93 133 180 222 264 320 392
#     4  10  20  36  56  85 123 166 210 258 319 382
#
# _framework density 22.114258
#
# number of rings (size 3 to 8) (size 9 to 14) (size 15 to 20)
#    0.000    1.714    4.286    0.857    0.000    9.143 
#    0.000    0.000    0.000    0.857    0.000    4.000 
#    0.000    0.000    0.000    0.000    0.000    0.000 
#
# Total GULP energy -155995.136042 kJ/mol
# GULP energy per Si atom -5571.254859 kJ/mol
# Density = 2.206393 g / cm^3
# Si number density = 22.114258 Si / 1000 Ang^3
#
#
#
# Elastic Constant Matrix: (Units=GPa)
#
#
# Indices 1 2 3 4 5 6 
#
# 1 241.3932 43.3520 36.3937 0.0000 0.0000 0.0000
# 2 43.3520 112.9622 -2.6732 0.0000 0.0000 0.0000
# 3 36.3937 -2.6732 53.2827 0.0000 0.0000 0.0000
# 4 0.0000 0.0000 0.0000 -26.1834 0.0000 0.0000
# 5 0.0000 0.0000 0.0000 0.0000 12.2673 0.0000
# 6 0.0000 0.0000 0.0000 0.0000 0.0000 21.7797
#
#
#
# Elastic Compliance Matrix: (Units=1/GPa)
#
#
# Indices 1 2 3 4 5 6 
#
# 1 0.005039 -0.002018 -0.003543 0.000000 0.000000 0.000000
# 2 -0.002018 0.009671 0.001863 0.000000 0.000000 0.000000
# 3 -0.003543 0.001863 0.021281 0.000000 0.000000 0.000000
# 4 0.000000 0.000000 0.000000 -0.038192 0.000000 0.000000
# 5 0.000000 0.000000 0.000000 0.000000 0.081517 0.000000
# 6 0.000000 0.000000 0.000000 0.000000 0.000000 0.045914
#
#
# Mechanical properties :
#
#
# Convention : Reuss Voigt Hill
#
# Bulk Modulus (GPa) = 34.96930 62.42035 48.69482
# Shear Modulus (GPa) = 35.17210 23.61044 29.39127
#
# Velocity S-wave (km/s) = 3.99240 3.27105 3.64959
# Velocity P-wave (km/s) = 6.09095 6.52333 6.31085
#
# Compressibility (1/GPa) = 0.02859651
#
# Stress axis : x y z
#
# Youngs Moduli (GPa) = 198.44529 103.40218 46.98944
#
# Poissons Ratio (x) = 0.20864 0.16649
# Poissons Ratio (y) = 0.40041 -0.08756
# Poissons Ratio (z) = 0.70312 -0.19268
#
# Static dielectric constant tensor:
#      x y z
#    x 1.876760 0.000000 0.000000 
#    y 0.000000 1.853790 0.000000 
#    z 0.000000 0.000000 1.852740 
# 
# From -- ./inp_files/16427.got.cif
#   From: 2010.05.17/outbox.cif.g08.bks.cpg/sg67_9_cif.got.tgz:16427.got - 2010.06.03 18:28:57.
