data_PCOD9503202
_publ_section_title
;
Structure prediction by ZEFSAII (Michael W. Deem and Ramdas Pophale) SiO2 
 PCOD9503202
Probable space group: C M M A
;
_chemical_formula_sum "Si O2"
_cell_formula_units_Z 104
_cell_length_a 13.199031
_cell_length_b 26.565017
_cell_length_c 15.800140
_cell_angle_alpha 90.000000
_cell_angle_beta 90.000000
_cell_angle_gamma 90.000000
_cell_volume 5540.042318
_symmetry_space_group_name_H-M "C M M A"
_symmetry_group_IT_number 67
_symmetry_cell_setting 'orthorhombic'
loop_
_space_group_symop_operation_xyz
x,y,z
-x,1/2-y,z
x,-y,-z
-x,1/2+y,-z
-x,-y,-z
x,1/2+y,-z
-x,y,z
x,1/2-y,z
1/2+x,1/2+y,z
1/2-x,-y,z
1/2+x,1/2-y,-z
1/2-x,y,-z
1/2-x,1/2-y,-z
1/2+x,y,-z
1/2-x,1/2+y,z
1/2+x,-y,z
loop_
_atom_site_type_symbol
_atom_site_label
_atom_site_fract_x
_atom_site_fract_y
_atom_site_fract_z
Si Si1 0.000000 0.309950 0.817577
Si Si2 0.679564 0.455675 0.710303
Si Si3 0.000000 0.995873 0.397115
Si Si4 0.390380 0.134403 0.809825
Si Si5 0.782029 0.880993 0.415180
Si Si6 0.390282 0.190444 0.630094
Si Si7 0.781321 0.192805 0.901521
Si Si8 0.000000 0.876743 0.355501
O O1 0.897818 0.317375 0.873876
O O2 0.000000 0.250000 0.791397
O O3 0.000000 0.347820 0.735927
O O4 0.750000 0.500000 0.743990
O O5 0.598314 0.476886 0.642921
O O6 0.622532 0.423032 0.780448
O O7 0.753400 0.416601 0.662787
O O8 0.000000 0.938238 0.362310
O O9 0.000000 0.000000 0.500000
O O10 0.500000 0.141900 0.852433
O O11 0.391020 0.167748 0.724382
O O12 0.293699 0.153085 0.859841
O O13 0.750000 0.910229 0.500000
O O14 0.703753 0.835041 0.414521
O O15 0.896265 0.863369 0.403616
O O16 0.500000 0.176367 0.592216
O O17 0.381925 0.250000 0.632334
O O18 0.759555 0.250000 0.870369
O O19 0.750000 0.192492 0.000000
#
# Coordination Sequence:
#
# PCOD9503202 Si02
#       8
#     8  16   8  16  16  16  16   8
#     4  10  22  42  63  91 130 163 207 254 300 386
#     4  11  22  38  57  85 115 155 199 250 309 368
#     4  12  24  38  59  87 122 155 207 272 317 357
#     4  10  20  36  59  87 117 152 198 243 293 363
#     4  11  24  36  56  81 114 151 201 256 312 362
#     4   9  19  36  56  79 109 149 193 238 294 357
#     4  10  22  38  63  96 128 160 194 245 307 364
#     4  12  24  40  60  90 119 168 210 250 326 381
#
# _framework density 18.77242
#
# number of rings (size 3 to 8) (size 9 to 14) (size 15 to 20)
#    0.000    1.538    2.308    3.231    3.231    3.077 
#    0.000    0.000    0.000    0.462    0.000    2.154 
#    0.000    0.000    0.000    0.000    0.000    0.000 
#
# Total GULP energy -289902.028482 kJ/mol
# GULP energy per Si atom -5575.039009 kJ/mol
# Density = 1.872969 g / cm^3
# Si number density = 18.772420 Si / 1000 Ang^3
#
#
#
# Elastic Constant Matrix: (Units=GPa)
#
#
# Indices 1 2 3 4 5 6 
#
# 1 175.4151 58.7327 42.6139 0.0000 0.0000 0.0000
# 2 58.7327 88.9094 31.0309 0.0000 0.0000 0.0000
# 3 42.6139 31.0309 58.3708 0.0000 0.0000 0.0000
# 4 0.0000 0.0000 0.0000 17.5692 0.0000 0.0000
# 5 0.0000 0.0000 0.0000 0.0000 25.1582 0.0000
# 6 0.0000 0.0000 0.0000 0.0000 0.0000 27.7323
#
#
#
# Elastic Compliance Matrix: (Units=1/GPa)
#
#
# Indices 1 2 3 4 5 6 
#
# 1 0.007916 -0.003944 -0.003682 0.000000 0.000000 0.000000
# 2 -0.003944 0.015775 -0.005507 0.000000 0.000000 0.000000
# 3 -0.003682 -0.005507 0.022748 0.000000 0.000000 0.000000
# 4 0.000000 0.000000 0.000000 0.056918 0.000000 0.000000
# 5 0.000000 0.000000 0.000000 0.000000 0.039748 0.000000
# 6 0.000000 0.000000 0.000000 0.000000 0.000000 0.036059
#
#
# Mechanical properties :
#
#
# Convention : Reuss Voigt Hill
#
# Bulk Modulus (GPa) = 49.57351 65.27226 57.42288
# Shear Modulus (GPa) = 23.56781 26.77978 25.17380
#
# Velocity S-wave (km/s) = 3.54708 3.78107 3.66594
# Velocity P-wave (km/s) = 6.57576 7.34219 6.96952
#
# Compressibility (1/GPa) = 0.02017207
#
# Stress axis : x y z
#
# Youngs Moduli (GPa) = 126.32909 63.39272 43.96049
#
# Poissons Ratio (x) = 0.25002 0.16188
# Poissons Ratio (y) = 0.49823 0.24208
# Poissons Ratio (z) = 0.46519 0.34909
#
# Static dielectric constant tensor:
#      x y z
#    x 1.704070 0.000000 0.000000 
#    y 0.000000 1.654840 0.000000 
#    z 0.000000 0.000000 1.684650 
# 
# From -- ./inp_files/33184.got.cif
#   From: 2010.05.17/outbox.cif.g08.bks.cpg/sg67_17_cif.got.tgz:33184.got - 2010.06.03 18:28:57.
