data_PCOD9503480
_publ_section_title
;
Structure prediction by ZEFSAII (Michael W. Deem and Ramdas Pophale) SiO2 
 PCOD9503480
Probable space group: C M M A
;
_chemical_formula_sum "Si O2"
_cell_formula_units_Z 112
_cell_length_a 15.784932
_cell_length_b 30.191510
_cell_length_c 11.429332
_cell_angle_alpha 90.000000
_cell_angle_beta 90.000000
_cell_angle_gamma 90.000000
_cell_volume 5446.887407
_symmetry_space_group_name_H-M "C M M A"
_symmetry_group_IT_number 67
_symmetry_cell_setting 'orthorhombic'
loop_
_space_group_symop_operation_xyz
x,y,z
-x,1/2-y,z
x,-y,-z
-x,1/2+y,-z
-x,-y,-z
x,1/2+y,-z
-x,y,z
x,1/2-y,z
1/2+x,1/2+y,z
1/2-x,-y,z
1/2+x,1/2-y,-z
1/2-x,y,-z
1/2-x,1/2-y,-z
1/2+x,y,-z
1/2-x,1/2+y,z
1/2+x,-y,z
loop_
_atom_site_type_symbol
_atom_site_label
_atom_site_fract_x
_atom_site_fract_y
_atom_site_fract_z
Si Si1 0.397842 0.542550 0.423931
Si Si2 0.746218 0.697426 0.132719
Si Si3 0.405064 0.803020 0.300131
Si Si4 0.401646 0.147551 0.223191
Si Si5 0.847990 0.637725 0.490786
Si Si6 0.842751 0.930652 0.050482
Si Si7 0.402455 0.981858 0.160865
O O1 0.372343 0.500000 0.500000
O O2 0.500000 0.547474 0.435990
O O3 0.356102 0.587666 0.464678
O O4 0.378577 0.534405 0.288493
O O5 0.734589 0.750000 0.127199
O O6 0.667711 0.680549 0.210876
O O7 0.835304 0.685659 0.190510
O O8 0.750000 0.680476 0.000000
O O9 0.500000 0.809724 0.252110
O O10 0.394069 0.750000 0.319578
O O11 0.396589 0.829602 0.420993
O O12 0.500000 0.158718 0.207301
O O13 0.383495 0.137671 0.359333
O O14 0.377921 0.106781 0.136855
O O15 0.750000 0.651561 0.500000
O O16 0.845395 0.976902 0.121683
O O17 0.750000 0.920999 0.000000
O O18 0.896502 0.943067 0.935019
O O19 0.500000 0.998003 0.164316
#
# Coordination Sequence:
#
# PCOD9503480 Si02
#       7
#    16  16  16  16  16  16  16
#     4  10  22  40  61  89 128 171 218 272 331 398
#     4  10  23  44  68  99 135 169 213 265 322 392
#     4  10  22  44  73 101 132 172 216 268 334 403
#     4  12  25  42  65  94 131 174 218 270 330 391
#     4  12  25  42  66  97 135 173 223 280 334 403
#     4  11  23  39  60  87 126 163 214 270 325 385
#     4  10  20  38  63  87 117 163 213 267 327 392
#
# _framework density 20.562203
#
# number of rings (size 3 to 8) (size 9 to 14) (size 15 to 20)
#    0.000    1.286    1.429    5.143    2.000    4.286 
#    2.571    1.429    0.000    0.000    0.000    0.000 
#    0.000    0.000    0.000    0.000    0.000    0.000 
#
# Total GULP energy -312974.609433 kJ/mol
# GULP energy per Si atom -5588.832311 kJ/mol
# Density = 2.051540 g / cm^3
# Si number density = 20.562203 Si / 1000 Ang^3
#
#
#
# Elastic Constant Matrix: (Units=GPa)
#
#
# Indices 1 2 3 4 5 6 
#
# 1 122.1189 13.6580 42.0037 0.0000 0.0000 0.0000
# 2 13.6580 33.4171 25.3975 0.0000 0.0000 0.0000
# 3 42.0037 25.3975 147.1647 0.0000 0.0000 0.0000
# 4 0.0000 0.0000 0.0000 22.7177 0.0000 0.0000
# 5 0.0000 0.0000 0.0000 0.0000 29.4504 0.0000
# 6 0.0000 0.0000 0.0000 0.0000 0.0000 30.3413
#
#
#
# Elastic Compliance Matrix: (Units=1/GPa)
#
#
# Indices 1 2 3 4 5 6 
#
# 1 0.009198 -0.002030 -0.002275 0.000000 0.000000 0.000000
# 2 -0.002030 0.034891 -0.005442 0.000000 0.000000 0.000000
# 3 -0.002275 -0.005442 0.008384 0.000000 0.000000 0.000000
# 4 0.000000 0.000000 0.000000 0.044019 0.000000 0.000000
# 5 0.000000 0.000000 0.000000 0.000000 0.033955 0.000000
# 6 0.000000 0.000000 0.000000 0.000000 0.000000 0.032958
#
#
# Mechanical properties :
#
#
# Convention : Reuss Voigt Hill
#
# Bulk Modulus (GPa) = 30.32333 51.64657 40.98495
# Shear Modulus (GPa) = 25.78755 31.27797 28.53276
#
# Velocity S-wave (km/s) = 3.54520 3.90441 3.72913
# Velocity P-wave (km/s) = 5.61579 6.74519 6.20624
#
# Compressibility (1/GPa) = 0.03297791
#
# Stress axis : x y z
#
# Youngs Moduli (GPa) = 108.71548 28.66108 119.28087
#
# Poissons Ratio (x) = 0.05819 0.27136
# Poissons Ratio (y) = 0.22074 0.64911
# Poissons Ratio (z) = 0.24732 0.15597
#
# Static dielectric constant tensor:
#      x y z
#    x 1.753330 0.000000 0.000000 
#    y 0.000000 1.714100 0.000000 
#    z 0.000000 0.000000 1.722080 
# 
# From -- ./inp_files/18641.got.cif
#   From: 2010.05.17/outbox.cif.g08.bks.cpg/sg67_10_cif.got.tgz:18641.got - 2010.06.03 18:28:57.
