data_PCOD9503319
_publ_section_title
;
Structure prediction by ZEFSAII (Michael W. Deem and Ramdas Pophale) SiO2 
 PCOD9503319
Probable space group: C M M A
;
_chemical_formula_sum "Si O2"
_cell_formula_units_Z 96
_cell_length_a 8.535578
_cell_length_b 30.876121
_cell_length_c 18.797338
_cell_angle_alpha 90.000000
_cell_angle_beta 90.000000
_cell_angle_gamma 90.000000
_cell_volume 4953.954577
_symmetry_space_group_name_H-M "C M M A"
_symmetry_group_IT_number 67
_symmetry_cell_setting 'orthorhombic'
loop_
_space_group_symop_operation_xyz
x,y,z
-x,1/2-y,z
x,-y,-z
-x,1/2+y,-z
-x,-y,-z
x,1/2+y,-z
-x,y,z
x,1/2-y,z
1/2+x,1/2+y,z
1/2-x,-y,z
1/2+x,1/2-y,-z
1/2-x,y,-z
1/2-x,1/2-y,-z
1/2+x,y,-z
1/2-x,1/2+y,z
1/2+x,-y,z
loop_
_atom_site_type_symbol
_atom_site_label
_atom_site_fract_x
_atom_site_fract_y
_atom_site_fract_z
Si Si1 0.312282 0.865711 0.923581
Si Si2 0.688999 0.547512 0.304217
Si Si3 0.187083 0.885483 0.576081
Si Si4 0.187844 0.452541 0.140084
Si Si5 0.690610 0.799150 0.803287
Si Si6 0.810835 0.299323 0.639705
O O1 0.500000 0.865158 0.924086
O O2 0.254146 0.914051 0.907259
O O3 0.255097 0.834184 0.860304
O O4 0.250000 0.851237 0.000000
O O5 0.500000 0.546903 0.304954
O O6 0.750000 0.500000 0.324316
O O7 0.743866 0.583775 0.359569
O O8 0.738007 0.555732 0.222452
O O9 0.250000 0.900414 0.500000
O O10 0.242160 0.836678 0.591132
O O11 0.000000 0.886717 0.575210
O O12 0.250000 0.500000 0.120035
O O13 0.000000 0.452530 0.137022
O O14 0.500000 0.799749 0.803424
O O15 0.738691 0.750000 0.821476
O O16 0.738336 0.807897 0.721816
O O17 0.764068 0.250000 0.621566
O O18 0.000000 0.301112 0.636999
#
# Coordination Sequence:
#
# PCOD9503319 Si02
#       6
#    16  16  16  16  16  16
#     4  11  22  35  53  79 111 146 180 216 263 315
#     4   9  20  37  58  82 107 137 175 220 266 315
#     4  11  23  37  53  78 111 145 179 216 263 316
#     4  10  20  37  59  82 107 136 175 221 268 317
#     4   8  16  33  57  82 107 138 178 221 264 314
#     4   9  18  35  59  83 105 135 178 224 268 315
#
# _framework density 19.378456
#
# number of rings (size 3 to 8) (size 9 to 14) (size 15 to 20)
#    0.000    2.333    0.000    3.500    0.000    3.667 
#    0.000    4.167    0.000    3.500    0.000    0.000 
#    0.000    0.000    0.000    0.000    0.000    0.000 
#
# Total GULP energy -268026.702814 kJ/mol
# GULP energy per Si atom -5583.889642 kJ/mol
# Density = 1.933435 g / cm^3
# Si number density = 19.378456 Si / 1000 Ang^3
#
#
#
# Elastic Constant Matrix: (Units=GPa)
#
#
# Indices 1 2 3 4 5 6 
#
# 1 24.4316 4.5083 5.1252 0.0000 0.0000 0.0000
# 2 4.5083 47.8163 12.2765 0.0000 0.0000 0.0000
# 3 5.1252 12.2765 26.2717 0.0000 0.0000 0.0000
# 4 0.0000 0.0000 0.0000 -12.2767 0.0000 0.0000
# 5 0.0000 0.0000 0.0000 0.0000 26.5576 0.0000
# 6 0.0000 0.0000 0.0000 0.0000 0.0000 16.7162
#
#
#
# Elastic Compliance Matrix: (Units=1/GPa)
#
#
# Indices 1 2 3 4 5 6 
#
# 1 0.042871 -0.002153 -0.007357 0.000000 0.000000 0.000000
# 2 -0.002153 0.023873 -0.010735 0.000000 0.000000 0.000000
# 3 -0.007357 -0.010735 0.044516 0.000000 0.000000 0.000000
# 4 0.000000 0.000000 0.000000 -0.081455 0.000000 0.000000
# 5 0.000000 0.000000 0.000000 0.000000 0.037654 0.000000
# 6 0.000000 0.000000 0.000000 0.000000 0.000000 0.059822
#
#
# Mechanical properties :
#
#
# Convention : Reuss Voigt Hill
#
# Bulk Modulus (GPa) = 14.13072 15.81551 14.97312
# Shear Modulus (GPa) = 26.12854 11.30673 18.71764
#
# Velocity S-wave (km/s) = 3.67594 2.41813 3.11126
# Velocity P-wave (km/s) = 5.03235 3.99695 4.54423
#
# Compressibility (1/GPa) = 0.07076779
#
# Stress axis : x y z
#
# Youngs Moduli (GPa) = 23.32559 41.88901 22.46397
#
# Poissons Ratio (x) = 0.09019 0.16528
# Poissons Ratio (y) = 0.05022 0.24116
# Poissons Ratio (z) = 0.17162 0.44970
#
# Static dielectric constant tensor:
#      x y z
#    x 1.652830 0.000000 0.000000 
#    y 0.000000 1.656390 0.000000 
#    z 0.000000 0.000000 1.678920 
# 
# From -- ./inp_files/37162.got.cif
#   From: 2010.05.17/outbox.cif.g08.bks.cpg/sg67_19_cif.got.tgz:37162.got - 2010.06.03 18:28:57.
