data_PCOD9503874
_publ_section_title
;
Structure prediction by ZEFSAII (Michael W. Deem and Ramdas Pophale) SiO2 
 PCOD9503874
Probable space group: C M M A
;
_chemical_formula_sum "Si O2"
_cell_formula_units_Z 80
_cell_length_a 19.574737
_cell_length_b 8.743866
_cell_length_c 25.638586
_cell_angle_alpha 90.000000
_cell_angle_beta 90.000000
_cell_angle_gamma 90.000000
_cell_volume 4388.271596
_symmetry_space_group_name_H-M "C M M A"
_symmetry_group_IT_number 67
_symmetry_cell_setting 'orthorhombic'
loop_
_space_group_symop_operation_xyz
x,y,z
-x,1/2-y,z
x,-y,-z
-x,1/2+y,-z
-x,-y,-z
x,1/2+y,-z
-x,y,z
x,1/2-y,z
1/2+x,1/2+y,z
1/2-x,-y,z
1/2+x,1/2-y,-z
1/2-x,y,-z
1/2-x,1/2-y,-z
1/2+x,y,-z
1/2-x,1/2+y,z
1/2+x,-y,z
loop_
_atom_site_type_symbol
_atom_site_label
_atom_site_fract_x
_atom_site_fract_y
_atom_site_fract_z
Si Si1 0.080348 0.566755 0.145566
Si Si2 0.676673 0.566735 0.057883
Si Si3 0.675198 0.432482 0.643987
Si Si4 0.579989 0.567318 0.555385
Si Si5 0.174596 0.566657 0.765180
O O1 0.087513 0.750000 0.141809
O O2 0.118132 0.489199 0.096717
O O3 0.119413 0.506809 0.196663
O O4 0.000000 0.529484 0.146985
O O5 0.680284 0.750000 0.056053
O O6 0.750000 0.500000 0.075930
O O7 0.665278 0.500000 0.000000
O O8 0.677032 0.250000 0.638715
O O9 0.750000 0.500000 0.633261
O O10 0.622142 0.501687 0.603451
O O11 0.658807 0.468207 0.704516
O O12 0.604096 0.500000 0.500000
O O13 0.500000 0.526070 0.560969
O O14 0.585688 0.750000 0.554027
O O15 0.175984 0.750000 0.771964
O O16 0.250000 0.500000 0.776485
#
# Coordination Sequence:
#
# PCOD9503874 Si02
#       5
#    16  16  16  16  16
#     4  11  24  40  58  83 116 152 190 232 279 331
#     4  11  22  39  63  88 116 149 189 233 278 332
#     4  10  21  37  58  84 113 145 184 231 280 331
#     4  10  21  37  57  81 111 147 186 228 276 332
#     4  10  21  38  60  84 112 147 187 231 279 332
#
# _framework density 18.230412000000001
#
# number of rings (size 3 to 8) (size 9 to 14) (size 15 to 20)
#    0.000    1.600    0.000    5.400    0.000    6.800 
#    0.000    6.000    0.000    0.000    0.000    0.000 
#    0.000    0.000    0.000    0.000    0.000    0.000 
#
# Total GULP energy -223600.000926 kJ/mol
# GULP energy per Si atom -5590.000023 kJ/mol
# Density = 1.818892 g / cm^3
# Si number density = 18.230412 Si / 1000 Ang^3
#
#
#
# Elastic Constant Matrix: (Units=GPa)
#
#
# Indices 1 2 3 4 5 6 
#
# 1 140.5321 77.9046 105.2947 0.0000 0.0000 0.0000
# 2 77.9046 105.6546 70.1876 0.0000 0.0000 0.0000
# 3 105.2947 70.1876 122.0382 0.0000 0.0000 0.0000
# 4 0.0000 0.0000 0.0000 36.0694 0.0000 0.0000
# 5 0.0000 0.0000 0.0000 0.0000 76.4935 0.0000
# 6 0.0000 0.0000 0.0000 0.0000 0.0000 31.5678
#
#
#
# Elastic Compliance Matrix: (Units=1/GPa)
#
#
# Indices 1 2 3 4 5 6 
#
# 1 0.022185 -0.005895 -0.015751 0.000000 0.000000 0.000000
# 2 -0.005895 0.016883 -0.004624 0.000000 0.000000 0.000000
# 3 -0.015751 -0.004624 0.024444 0.000000 0.000000 0.000000
# 4 0.000000 0.000000 0.000000 0.027724 0.000000 0.000000
# 5 0.000000 0.000000 0.000000 0.000000 0.013073 0.000000
# 6 0.000000 0.000000 0.000000 0.000000 0.000000 0.031678
#
#
# Mechanical properties :
#
#
# Convention : Reuss Voigt Hill
#
# Bulk Modulus (GPa) = 91.13941 97.22208 94.18075
# Shear Modulus (GPa) = 26.01661 36.48201 31.24931
#
# Velocity S-wave (km/s) = 3.78179 4.47829 4.14470
# Velocity P-wave (km/s) = 8.31690 8.95463 8.64165
#
# Compressibility (1/GPa) = 0.01097220
#
# Stress axis : x y z
#
# Youngs Moduli (GPa) = 45.07473 59.23130 40.90992
#
# Poissons Ratio (x) = 0.34914 0.64439
# Poissons Ratio (y) = 0.26570 0.18917
# Poissons Ratio (z) = 0.70999 0.27389
#
# Static dielectric constant tensor:
#      x y z
#    x 1.593870 0.000000 0.000000 
#    y 0.000000 1.608040 0.000000 
#    z 0.000000 0.000000 1.613700 
# 
# From -- ./inp_files/43326.got.cif
#   From: 2010.05.17/outbox.cif.g08.bks.cpg/sg67_22_cif.got.tgz:43326.got - 2010.06.03 18:28:57.
