data_PCOD9503565
_publ_section_title
;
Structure prediction by ZEFSAII (Michael W. Deem and Ramdas Pophale) SiO2 
 PCOD9503565
Probable space group: C M M A
;
_chemical_formula_sum "Si O2"
_cell_formula_units_Z 56
_cell_length_a 16.616360
_cell_length_b 25.406115
_cell_length_c 6.729960
_cell_angle_alpha 90.000000
_cell_angle_beta 90.000000
_cell_angle_gamma 90.000000
_cell_volume 2841.100754
_symmetry_space_group_name_H-M "C M M A"
_symmetry_group_IT_number 67
_symmetry_cell_setting 'orthorhombic'
loop_
_space_group_symop_operation_xyz
x,y,z
-x,1/2-y,z
x,-y,-z
-x,1/2+y,-z
-x,-y,-z
x,1/2+y,-z
-x,y,z
x,1/2-y,z
1/2+x,1/2+y,z
1/2-x,-y,z
1/2+x,1/2-y,-z
1/2-x,y,-z
1/2-x,1/2-y,-z
1/2+x,y,-z
1/2-x,1/2+y,z
1/2+x,-y,z
loop_
_atom_site_type_symbol
_atom_site_label
_atom_site_fract_x
_atom_site_fract_y
_atom_site_fract_z
Si Si1 0.500000 0.871239 0.136451
Si Si2 0.000000 0.250000 0.267366
Si Si3 0.000000 0.063065 0.534495
Si Si4 0.250000 0.000000 0.000000
Si Si5 0.250000 0.329027 0.000000
Si Si6 0.317313 0.250000 0.681268
Si Si7 0.364224 0.588091 0.843554
O O1 0.500000 0.806997 0.150680
O O2 0.500000 0.898751 0.348046
O O3 0.576132 0.896082 0.022286
O O4 0.087648 0.250000 0.380114
O O5 0.079093 0.078211 0.658390
O O6 0.000000 0.000000 0.500000
O O7 0.309349 0.962754 0.877419
O O8 0.197674 0.296872 0.159786
O O9 0.303423 0.363681 0.148718
O O10 0.250000 0.250000 0.500000
#
# Coordination Sequence:
#
# PCOD9503565 Si02
#       7
#     8   4   8   4   8   8  16
#     4  11  23  43  65  98 137 173 229 281 342 420
#     4  12  24  44  70 104 140 188 222 286 352 420
#     4  11  24  41  66  96 128 177 230 283 346 410
#     4  10  20  40  66  90 124 170 216 282 358 388
#     4  10  22  42  64  96 130 176 224 272 348 412
#     4  11  25  43  67  98 140 178 231 289 333 419
#     4  10  22  41  65  92 130 171 218 283 340 416
#
# _framework density 19.710671999999999
#
# number of rings (size 3 to 8) (size 9 to 14) (size 15 to 20)
#    0.000    1.429    2.857    1.714    4.000    2.286 
#    0.000   17.857    0.000    0.000    0.000    0.000 
#    0.000    0.000    0.000    0.000    0.000    0.000 
#
# Total GULP energy -155889.926690 kJ/mol
# GULP energy per Si atom -5567.497382 kJ/mol
# Density = 1.966581 g / cm^3
# Si number density = 19.710672 Si / 1000 Ang^3
#
#
#
# Elastic Constant Matrix: (Units=GPa)
#
#
# Indices 1 2 3 4 5 6 
#
# 1 142.1375 58.1052 32.6290 0.0000 0.0000 0.0000
# 2 58.1052 135.7528 54.9352 0.0000 0.0000 0.0000
# 3 32.6290 54.9352 84.1543 0.0000 0.0000 0.0000
# 4 0.0000 0.0000 0.0000 30.2182 0.0000 0.0000
# 5 0.0000 0.0000 0.0000 0.0000 -5.9945 0.0000
# 6 0.0000 0.0000 0.0000 0.0000 0.0000 19.6347
#
#
#
# Elastic Compliance Matrix: (Units=1/GPa)
#
#
# Indices 1 2 3 4 5 6 
#
# 1 0.008626 -0.003178 -0.001270 0.000000 0.000000 0.000000
# 2 -0.003178 0.011182 -0.006067 0.000000 0.000000 0.000000
# 3 -0.001270 -0.006067 0.016336 0.000000 0.000000 0.000000
# 4 0.000000 0.000000 0.000000 0.033093 0.000000 0.000000
# 5 0.000000 0.000000 0.000000 0.000000 -0.166821 0.000000
# 6 0.000000 0.000000 0.000000 0.000000 0.000000 0.050930
#
#
# Mechanical properties :
#
#
# Convention : Reuss Voigt Hill
#
# Bulk Modulus (GPa) = 66.16652 72.59816 69.38234
# Shear Modulus (GPa) = -242.89111 23.19669 -109.84721
#
# Velocity S-wave (km/s) = -11.11286 3.43426 -7.47334
# Velocity P-wave (km/s) = 11.44636 7.25516 6.26027
#
# Compressibility (1/GPa) = 0.01511338
#
# Stress axis : x y z
#
# Youngs Moduli (GPa) = 115.92531 89.43002 61.21502
#
# Poissons Ratio (x) = 0.28424 0.07773
# Poissons Ratio (y) = 0.36845 0.37140
# Poissons Ratio (z) = 0.14721 0.54258
#
# Static dielectric constant tensor:
#      x y z
#    x 1.710370 0.000000 0.000000 
#    y 0.000000 1.737970 0.000000 
#    z 0.000000 0.000000 1.665150 
# 
# From -- ./inp_files/2118.got.cif
#   From: 2010.05.17/outbox.cif.g08.bks.cpg/sg67_2_cif.got.tgz:2118.got - 2010.06.03 18:28:57.
