data_PCOD9503111
_publ_section_title
;
Structure prediction by ZEFSAII (Michael W. Deem and Ramdas Pophale) SiO2 
 PCOD9503111
Probable space group: C M M A
;
_chemical_formula_sum "Si O2"
_cell_formula_units_Z 72
_cell_length_a 8.680945
_cell_length_b 21.707376
_cell_length_c 20.204278
_cell_angle_alpha 90.000000
_cell_angle_beta 90.000000
_cell_angle_gamma 90.000000
_cell_volume 3807.304999
_symmetry_space_group_name_H-M "C M M A"
_symmetry_group_IT_number 67
_symmetry_cell_setting 'orthorhombic'
loop_
_space_group_symop_operation_xyz
x,y,z
-x,1/2-y,z
x,-y,-z
-x,1/2+y,-z
-x,-y,-z
x,1/2+y,-z
-x,y,z
x,1/2-y,z
1/2+x,1/2+y,z
1/2-x,-y,z
1/2+x,1/2-y,-z
1/2-x,y,-z
1/2-x,1/2-y,-z
1/2+x,y,-z
1/2-x,1/2+y,z
1/2+x,-y,z
loop_
_atom_site_type_symbol
_atom_site_label
_atom_site_fract_x
_atom_site_fract_y
_atom_site_fract_z
Si Si1 0.684683 0.250000 0.573852
Si Si2 0.815003 0.679863 0.210128
Si Si3 0.814493 0.114520 0.425610
Si Si4 0.825114 0.175450 0.068124
Si Si5 0.684661 0.436366 0.296518
O O1 0.500000 0.250000 0.572258
O O2 0.750000 0.250000 0.500000
O O3 0.732550 0.183474 0.600055
O O4 0.757255 0.750000 0.225086
O O5 0.768520 0.663657 0.134997
O O6 0.760606 0.624519 0.257051
O O7 0.000000 0.682155 0.214902
O O8 0.750000 0.106366 0.500000
O O9 0.744495 0.069710 0.371582
O O10 0.000000 0.110337 0.427633
O O11 0.830253 0.250000 0.062977
O O12 0.000000 0.153247 0.074699
O O13 0.750000 0.152530 0.000000
O O14 0.500000 0.437799 0.295785
O O15 0.750000 0.500000 0.267878
#
# Coordination Sequence:
#
# PCOD9503111 Si02
#       5
#     8  16  16  16  16
#     4   8  16  30  50  78 108 136 165 210 267 322
#     4   9  19  36  57  82 111 145 185 227 272 325
#     4  10  20  36  57  82 110 141 181 227 278 333
#     4   9  16  27  48  80 115 148 181 222 270 319
#     4  11  24  40  58  80 110 148 186 229 281 333
#
# _framework density 18.911014000000002
#
# number of rings (size 3 to 8) (size 9 to 14) (size 15 to 20)
#    0.000    2.444    0.000    2.000    1.556    5.778 
#    0.000    2.222    0.000    0.667    0.000    4.667 
#    0.000    0.000    0.000    0.000    0.000    0.000 
#
# Total GULP energy -200630.044355 kJ/mol
# GULP energy per Si atom -5573.056788 kJ/mol
# Density = 1.886797 g / cm^3
# Si number density = 18.911014 Si / 1000 Ang^3
#
#
#
# Elastic Constant Matrix: (Units=GPa)
#
#
# Indices 1 2 3 4 5 6 
#
# 1 28.2026 27.1163 13.5790 0.0000 0.0000 0.0000
# 2 27.1163 114.2633 61.7248 0.0000 0.0000 0.0000
# 3 13.5790 61.7248 98.7275 0.0000 0.0000 0.0000
# 4 0.0000 0.0000 0.0000 7.9660 0.0000 0.0000
# 5 0.0000 0.0000 0.0000 0.0000 24.7943 0.0000
# 6 0.0000 0.0000 0.0000 0.0000 0.0000 22.2673
#
#
#
# Elastic Compliance Matrix: (Units=1/GPa)
#
#
# Indices 1 2 3 4 5 6 
#
# 1 0.045977 -0.011317 0.000752 0.000000 0.000000 0.000000
# 2 -0.011317 0.016000 -0.008447 0.000000 0.000000 0.000000
# 3 0.000752 -0.008447 0.015307 0.000000 0.000000 0.000000
# 4 0.000000 0.000000 0.000000 0.125534 0.000000 0.000000
# 5 0.000000 0.000000 0.000000 0.000000 0.040332 0.000000
# 6 0.000000 0.000000 0.000000 0.000000 0.000000 0.044909
#
#
# Mechanical properties :
#
#
# Convention : Reuss Voigt Hill
#
# Bulk Modulus (GPa) = 25.47156 49.55928 37.51542
# Shear Modulus (GPa) = 14.74188 20.25708 17.49948
#
# Velocity S-wave (km/s) = 2.79505 3.27644 3.04527
# Velocity P-wave (km/s) = 4.89028 6.37000 5.67854
#
# Compressibility (1/GPa) = 0.03925947
#
# Stress axis : x y z
#
# Youngs Moduli (GPa) = 21.75000 62.49818 65.33145
#
# Poissons Ratio (x) = 0.70730 -0.04912
# Poissons Ratio (y) = 0.24615 0.55185
# Poissons Ratio (z) = -0.01635 0.52792
#
# Static dielectric constant tensor:
#      x y z
#    x 1.645620 0.000000 0.000000 
#    y 0.000000 1.709530 0.000000 
#    z 0.000000 0.000000 1.633550 
# 
# From -- ./inp_files/36734.got.cif
#   From: 2010.05.17/outbox.cif.g08.bks.cpg/sg67_19_cif.got.tgz:36734.got - 2010.06.03 18:28:57.
