data_PCOD9503502
_publ_section_title
;
Structure prediction by ZEFSAII (Michael W. Deem and Ramdas Pophale) SiO2 
 PCOD9503502
Probable space group: C M M A
;
_chemical_formula_sum "Si O2"
_cell_formula_units_Z 112
_cell_length_a 14.817818
_cell_length_b 24.526864
_cell_length_c 14.273813
_cell_angle_alpha 90.000000
_cell_angle_beta 90.000000
_cell_angle_gamma 90.000000
_cell_volume 5187.597616
_symmetry_space_group_name_H-M "C M M A"
_symmetry_group_IT_number 67
_symmetry_cell_setting 'orthorhombic'
loop_
_space_group_symop_operation_xyz
x,y,z
-x,1/2-y,z
x,-y,-z
-x,1/2+y,-z
-x,-y,-z
x,1/2+y,-z
-x,y,z
x,1/2-y,z
1/2+x,1/2+y,z
1/2-x,-y,z
1/2+x,1/2-y,-z
1/2-x,y,-z
1/2-x,1/2-y,-z
1/2+x,y,-z
1/2-x,1/2+y,z
1/2+x,-y,z
loop_
_atom_site_type_symbol
_atom_site_label
_atom_site_fract_x
_atom_site_fract_y
_atom_site_fract_z
Si Si1 0.638521 0.897466 0.098588
Si Si2 0.644308 0.884924 0.886218
Si Si3 0.605160 0.685953 0.717085
Si Si4 0.359123 0.503751 0.788784
Si Si5 0.396970 0.040871 0.586367
Si Si6 0.735784 0.856232 0.396524
Si Si7 0.901586 0.690245 0.747219
O O1 0.747213 0.890985 0.105514
O O2 0.614046 0.957025 0.137172
O O3 0.602415 0.854293 0.172448
O O4 0.610062 0.886678 0.992392
O O5 0.620224 0.832489 0.824635
O O6 0.613291 0.937861 0.828297
O O7 0.500000 0.679555 0.693568
O O8 0.629214 0.750000 0.703895
O O9 0.668100 0.645867 0.655630
O O10 0.250000 0.500000 0.782803
O O11 0.394227 0.490226 0.685633
O O12 0.500000 0.062978 0.574721
O O13 0.319142 0.086915 0.592813
O O14 0.379776 0.000000 0.500000
O O15 0.750000 0.833826 0.500000
O O16 0.673029 0.820721 0.329680
O O17 0.889109 0.750000 0.789210
O O18 0.000000 0.687567 0.701688
#
# Coordination Sequence:
#
# PCOD9503502 Si02
#       7
#    16  16  16  16  16  16  16
#     4  10  20  38  66 101 141 183 231 291 344 415
#     4  10  21  38  66 101 136 186 238 283 349 416
#     4  11  26  48  71 101 141 184 236 296 357 425
#     4  10  20  38  65  96 140 185 229 281 343 413
#     4  11  26  43  68 106 145 185 232 287 352 422
#     4  12  26  46  74  99 133 180 231 286 356 421
#     4  11  24  43  69 102 137 178 230 285 346 414
#
# _framework density 21.589953999999999
#
# number of rings (size 3 to 8) (size 9 to 14) (size 15 to 20)
#    0.000    1.286    2.857    2.143    4.000    5.714 
#    0.000    4.286    0.000    3.000    0.000    0.000 
#    0.000    0.000    0.000    0.000    0.000    0.000 
#
# Total GULP energy -313124.276013 kJ/mol
# GULP energy per Si atom -5591.504929 kJ/mol
# Density = 2.154081 g / cm^3
# Si number density = 21.589954 Si / 1000 Ang^3
#
#
#
# Elastic Constant Matrix: (Units=GPa)
#
#
# Indices 1 2 3 4 5 6 
#
# 1 118.8820 41.6782 41.5396 0.0000 0.0000 0.0000
# 2 41.6782 90.3571 20.1662 0.0000 0.0000 0.0000
# 3 41.5396 20.1662 126.6626 0.0000 0.0000 0.0000
# 4 0.0000 0.0000 0.0000 12.8763 0.0000 0.0000
# 5 0.0000 0.0000 0.0000 0.0000 -50.6381 0.0000
# 6 0.0000 0.0000 0.0000 0.0000 0.0000 30.3768
#
#
#
# Elastic Compliance Matrix: (Units=1/GPa)
#
#
# Indices 1 2 3 4 5 6 
#
# 1 0.010971 -0.004414 -0.002895 0.000000 0.000000 0.000000
# 2 -0.004414 0.013251 -0.000662 0.000000 0.000000 0.000000
# 3 -0.002895 -0.000662 0.008950 0.000000 0.000000 0.000000
# 4 0.000000 0.000000 0.000000 0.077662 0.000000 0.000000
# 5 0.000000 0.000000 0.000000 0.000000 -0.019748 0.000000
# 6 0.000000 0.000000 0.000000 0.000000 0.000000 0.032920
#
#
# Mechanical properties :
#
#
# Convention : Reuss Voigt Hill
#
# Bulk Modulus (GPa) = 58.04204 60.29664 59.16934
# Shear Modulus (GPa) = 34.31904 14.02419 24.17162
#
# Velocity S-wave (km/s) = 3.99128 2.55143 3.34964
# Velocity P-wave (km/s) = 6.94137 6.05545 6.51349
#
# Compressibility (1/GPa) = 0.01722889
#
# Stress axis : x y z
#
# Youngs Moduli (GPa) = 91.15020 75.46544 111.73342
#
# Poissons Ratio (x) = 0.33313 0.32349
# Poissons Ratio (y) = 0.40236 0.07397
# Poissons Ratio (z) = 0.26389 0.04996
#
# Static dielectric constant tensor:
#      x y z
#    x 1.864890 0.000000 0.000000 
#    y 0.000000 1.761660 0.000000 
#    z 0.000000 0.000000 1.738900 
# 
# From -- ./inp_files/27511.got.cif
#   From: 2010.05.17/outbox.cif.g08.bks.cpg/sg67_14_cif.got.tgz:27511.got - 2010.06.03 18:28:57.
