data_PCOD9503517
_publ_section_title
;
Structure prediction by ZEFSAII (Michael W. Deem and Ramdas Pophale) SiO2 
 PCOD9503517
Probable space group: C M M A
;
_chemical_formula_sum "Si O2"
_cell_formula_units_Z 56
_cell_length_a 18.513488
_cell_length_b 14.030281
_cell_length_c 8.015099
_cell_angle_alpha 90.000000
_cell_angle_beta 90.000000
_cell_angle_gamma 90.000000
_cell_volume 2081.917468
_symmetry_space_group_name_H-M "C M M A"
_symmetry_group_IT_number 67
_symmetry_cell_setting 'orthorhombic'
loop_
_space_group_symop_operation_xyz
x,y,z
-x,1/2-y,z
x,-y,-z
-x,1/2+y,-z
-x,-y,-z
x,1/2+y,-z
-x,y,z
x,1/2-y,z
1/2+x,1/2+y,z
1/2-x,-y,z
1/2+x,1/2-y,-z
1/2-x,y,-z
1/2-x,1/2-y,-z
1/2+x,y,-z
1/2-x,1/2+y,z
1/2+x,-y,z
loop_
_atom_site_type_symbol
_atom_site_label
_atom_site_fract_x
_atom_site_fract_y
_atom_site_fract_z
Si Si1 0.250000 0.500000 0.500000
Si Si2 0.500000 0.366439 0.949187
Si Si3 0.777497 0.359555 0.250000
Si Si4 0.750000 0.000000 0.000000
Si Si5 0.500000 0.366439 0.550812
Si Si6 0.602716 0.637298 0.750000
O O1 0.201066 0.574241 0.599258
O O2 0.500000 0.250000 0.936372
O O3 0.565376 0.395178 0.076541
O O4 0.500000 0.397484 0.750000
O O5 0.799529 0.250000 0.250000
O O6 0.798934 0.425759 0.099259
O O7 0.689874 0.367995 0.250000
O O8 0.500000 0.250000 0.563628
O O9 0.565376 0.395179 0.423459
O O10 0.588200 0.750000 0.749999
#
# Coordination Sequence:
#
# PCOD9503517 Si02
#       6
#     4   8  16   4   8  16
#     4  10  22  38  60  86 112 154 194 246 292 346
#     4   8  13  25  46  79 112 143 189 231 275 348
#     4  10  20  39  60  85 117 152 193 241 295 347
#     4  10  22  38  60  86 112 154 194 246 292 346
#     4   8  13  25  46  79 112 143 189 231 275 348
#     4   8  15  28  50  78 113 149 184 234 287 339
#
# _framework density 26.89828
#
# number of rings (size 3 to 8) (size 9 to 14) (size 15 to 20)
#    0.000    3.143    0.000    2.571    0.000    0.000 
#   10.286    0.000    0.000    6.857    0.000    0.000 
#    0.000    0.000    0.000    2.286    0.000    2.286 
#
# Total GULP energy -155869.334614 kJ/mol
# GULP energy per Si atom -5566.761950 kJ/mol
# Density = 2.683706 g / cm^3
# Si number density = 26.898280 Si / 1000 Ang^3
#
#
#
# Elastic Constant Matrix: (Units=GPa)
#
#
# Indices 1 2 3 4 5 6 
#
# 1 142.8724 4.2392 60.5487 0.0000 0.0000 0.0000
# 2 4.2392 229.5313 81.1118 0.0000 0.0000 0.0000
# 3 60.5487 81.1118 268.2297 0.0000 0.0000 0.0000
# 4 0.0000 0.0000 0.0000 107.7580 0.0000 0.0000
# 5 0.0000 0.0000 0.0000 0.0000 48.5424 0.0000
# 6 0.0000 0.0000 0.0000 0.0000 0.0000 -2.6642
#
#
#
# Elastic Compliance Matrix: (Units=1/GPa)
#
#
# Indices 1 2 3 4 5 6 
#
# 1 0.007798 0.000535 -0.001922 0.000000 0.000000 0.000000
# 2 0.000535 0.004915 -0.001607 0.000000 0.000000 0.000000
# 3 -0.001922 -0.001607 0.004648 0.000000 0.000000 0.000000
# 4 0.000000 0.000000 0.000000 0.009280 0.000000 0.000000
# 5 0.000000 0.000000 0.000000 0.000000 0.020601 0.000000
# 6 0.000000 0.000000 0.000000 0.000000 0.000000 -0.375352
#
#
# Mechanical properties :
#
#
# Convention : Reuss Voigt Hill
#
# Bulk Modulus (GPa) = 87.92882 103.60366 95.76624
# Shear Modulus (GPa) = -15.70689 63.70950 24.00130
#
# Velocity S-wave (km/s) = -2.41910 4.87204 2.99038
# Velocity P-wave (km/s) = 4.99576 8.38150 6.89953
#
# Compressibility (1/GPa) = 0.01137284
#
# Stress axis : x y z
#
# Youngs Moduli (GPa) = 128.23875 203.47108 215.14675
#
# Poissons Ratio (x) = -0.10890 0.41354
# Poissons Ratio (y) = -0.06864 0.34574
# Poissons Ratio (z) = 0.24649 0.32698
#
# Static dielectric constant tensor:
#      x y z
#    x 2.132500 0.000000 0.000000 
#    y 0.000000 2.000580 0.000000 
#    z 0.000000 0.000000 2.672740 
# 
# From -- ./inp_files/10686.got.cif
#   From: 2010.05.17/outbox.cif.g08.bks.cpg/sg67_6_cif.got.tgz:10686.got - 2010.06.03 18:28:57.
