data_PCOD9503270
_publ_section_title
;
Structure prediction by ZEFSAII (Michael W. Deem and Ramdas Pophale) SiO2 
 PCOD9503270
Probable space group: C M M A
;
_chemical_formula_sum "Si O2"
_cell_formula_units_Z 116
_cell_length_a 19.499896
_cell_length_b 25.574111
_cell_length_c 11.600269
_cell_angle_alpha 90.000000
_cell_angle_beta 90.000000
_cell_angle_gamma 90.000000
_cell_volume 5784.967204
_symmetry_space_group_name_H-M "C M M A"
_symmetry_group_IT_number 67
_symmetry_cell_setting 'orthorhombic'
loop_
_space_group_symop_operation_xyz
x,y,z
-x,1/2-y,z
x,-y,-z
-x,1/2+y,-z
-x,-y,-z
x,1/2+y,-z
-x,y,z
x,1/2-y,z
1/2+x,1/2+y,z
1/2-x,-y,z
1/2+x,1/2-y,-z
1/2-x,y,-z
1/2-x,1/2-y,-z
1/2+x,y,-z
1/2-x,1/2+y,z
1/2+x,-y,z
loop_
_atom_site_type_symbol
_atom_site_label
_atom_site_fract_x
_atom_site_fract_y
_atom_site_fract_z
Si Si1 0.421187 0.071735 0.216973
Si Si2 0.500000 0.250000 0.343943
Si Si3 0.421786 0.349268 0.897664
Si Si4 0.609330 0.688486 0.350298
Si Si5 0.684265 0.643514 0.925950
Si Si6 0.232959 0.188894 0.687791
Si Si7 0.417834 0.030817 0.884878
Si Si8 0.403577 0.846810 0.591907
O O1 0.500000 0.075894 0.170773
O O2 0.366376 0.101445 0.135667
O O3 0.421413 0.101123 0.338505
O O4 0.402612 0.010385 0.216476
O O5 0.440910 0.203096 0.349586
O O6 0.500000 0.348673 0.942641
O O7 0.421941 0.321893 0.774305
O O8 0.395584 0.409262 0.878259
O O9 0.367201 0.326256 0.987563
O O10 0.601935 0.750000 0.380048
O O11 0.689035 0.674375 0.336098
O O12 0.579498 0.656386 0.457174
O O13 0.713821 0.676877 0.820202
O O14 0.750000 0.624269 0.000000
O O15 0.227168 0.250000 0.664496
O O16 0.177530 0.160599 0.608887
O O17 0.500000 0.035279 0.890597
O O18 0.394867 0.000000 0.000000
#
# Coordination Sequence:
#
# PCOD9503270 Si02
#       8
#    16   4  16  16  16  16  16  16
#     4  10  20  36  62  87 115 153 195 249 295 345
#     4  12  20  36  58  92 124 154 200 260 286 354
#     4  11  23  38  58  87 119 156 196 244 304 364
#     4  11  23  39  61  83 119 160 198 241 296 366
#     4  11  21  36  55  85 117 147 193 245 289 352
#     4  10  21  38  59  80 111 159 202 237 286 351
#     4   9  17  35  60  84 113 154 196 234 294 361
#     4  11  22  36  59  88 120 151 199 248 293 343
#
# _framework density 20.051971999999999
#
# number of rings (size 3 to 8) (size 9 to 14) (size 15 to 20)
#    0.000    1.517    4.828    0.828    0.966    2.207 
#    0.000    2.069    0.000    2.483    0.000    1.931 
#    0.000    0.000    0.000    0.000    0.000    0.000 
#
# Total GULP energy -322938.704327 kJ/mol
# GULP energy per Si atom -5567.908695 kJ/mol
# Density = 2.000633 g / cm^3
# Si number density = 20.051972 Si / 1000 Ang^3
#
#
#
# Elastic Constant Matrix: (Units=GPa)
#
#
# Indices 1 2 3 4 5 6 
#
# 1 104.7672 -2.0234 16.6960 0.0000 0.0000 0.0000
# 2 -2.0234 35.6701 13.4224 0.0000 0.0000 0.0000
# 3 16.6960 13.4224 105.7070 0.0000 0.0000 0.0000
# 4 0.0000 0.0000 0.0000 23.5236 0.0000 0.0000
# 5 0.0000 0.0000 0.0000 0.0000 -8.6792 0.0000
# 6 0.0000 0.0000 0.0000 0.0000 0.0000 11.6984
#
#
#
# Elastic Compliance Matrix: (Units=1/GPa)
#
#
# Indices 1 2 3 4 5 6 
#
# 1 0.009840 0.001200 -0.001707 0.000000 0.000000 0.000000
# 2 0.001200 0.029588 -0.003947 0.000000 0.000000 0.000000
# 3 -0.001707 -0.003947 0.010231 0.000000 0.000000 0.000000
# 4 0.000000 0.000000 0.000000 0.042510 0.000000 0.000000
# 5 0.000000 0.000000 0.000000 0.000000 -0.115218 0.000000
# 6 0.000000 0.000000 0.000000 0.000000 0.000000 0.085482
#
#
# Mechanical properties :
#
#
# Convention : Reuss Voigt Hill
#
# Bulk Modulus (GPa) = 24.53804 33.59272 29.06538
# Shear Modulus (GPa) = 58.87709 19.84518 39.36114
#
# Velocity S-wave (km/s) = 5.42457 3.14934 4.43533
# Velocity P-wave (km/s) = 7.17624 5.47847 6.38405
#
# Compressibility (1/GPa) = 0.04075305
#
# Stress axis : x y z
#
# Youngs Moduli (GPa) = 101.62464 33.79769 97.74412
#
# Poissons Ratio (x) = -0.04057 0.16681
# Poissons Ratio (y) = -0.12199 0.38576
# Poissons Ratio (z) = 0.17344 0.13339
#
# Static dielectric constant tensor:
#      x y z
#    x 1.753890 0.000000 0.000000 
#    y 0.000000 1.699390 0.000000 
#    z 0.000000 0.000000 1.755300 
# 
# From -- ./inp_files/19979.got.cif
#   From: 2010.05.17/outbox.cif.g08.bks.cpg/sg67_10_cif.got.tgz:19979.got - 2010.06.03 18:28:57.
