data_PCOD9503298
_publ_section_title
;
Structure prediction by ZEFSAII (Michael W. Deem and Ramdas Pophale) SiO2 
 PCOD9503298
Probable space group: C M M A
;
_chemical_formula_sum "Si O2"
_cell_formula_units_Z 72
_cell_length_a 22.938445
_cell_length_b 14.160995
_cell_length_c 9.230773
_cell_angle_alpha 90.000000
_cell_angle_beta 90.000000
_cell_angle_gamma 90.000000
_cell_volume 2998.443116
_symmetry_space_group_name_H-M "C M M A"
_symmetry_group_IT_number 67
_symmetry_cell_setting 'orthorhombic'
loop_
_space_group_symop_operation_xyz
x,y,z
-x,1/2-y,z
x,-y,-z
-x,1/2+y,-z
-x,-y,-z
x,1/2+y,-z
-x,y,z
x,1/2-y,z
1/2+x,1/2+y,z
1/2-x,-y,z
1/2+x,1/2-y,-z
1/2-x,y,-z
1/2-x,1/2-y,-z
1/2+x,y,-z
1/2-x,1/2+y,z
1/2+x,-y,z
loop_
_atom_site_type_symbol
_atom_site_label
_atom_site_fract_x
_atom_site_fract_y
_atom_site_fract_z
Si Si1 0.782464 0.750000 0.791877
Si Si2 0.123640 0.043221 0.842191
Si Si3 0.500000 0.750000 0.540454
Si Si4 0.125992 0.750000 0.033197
Si Si5 0.794264 0.398286 0.633270
Si Si6 0.500000 0.250000 0.990904
Si Si7 0.370780 0.750000 0.469709
Si Si8 0.000000 0.417014 0.774648
O O1 0.814377 0.750000 0.944227
O O2 0.742135 0.661737 0.750246
O O3 0.835570 0.750000 0.678242
O O4 0.173232 0.020434 0.724198
O O5 0.058794 0.021892 0.784734
O O6 0.123871 0.156300 0.869797
O O7 0.133946 0.000000 0.000000
O O8 0.439670 0.750000 0.455256
O O9 0.500000 0.843996 0.641200
O O10 0.066800 0.750000 0.933843
O O11 0.750000 0.410885 0.500000
O O12 0.846845 0.338838 0.561494
O O13 0.500000 0.154254 0.087598
#
# Coordination Sequence:
#
# PCOD9503298 Si02
#       8
#     8  16   4   8  16   4   8   8
#     4   9  19  33  55  78 115 162 203 260 316 371
#     4  11  21  35  60  92 124 167 214 259 326 392
#     4  11  14  25  58  94 124 161 211 264 314 389
#     4  10  20  37  55  84 124 161 204 266 316 368
#     4   9  18  34  54  81 118 161 208 261 315 375
#     4   7  16  29  52  76 114 163 183 238 318 359
#     4   9  16  29  54  86 115 161 211 247 317 379
#     4   9  17  30  52  88 129 154 198 263 314 366
#
# _framework density 24.012460999999998
#
# number of rings (size 3 to 8) (size 9 to 14) (size 15 to 20)
#    0.000    2.444    2.222    3.667    0.000    2.222 
#    0.000    2.222    0.000   13.333    0.000    1.556 
#    0.000    0.000    0.000   19.333    0.000    0.000 
#
# Total GULP energy -201100.794026 kJ/mol
# GULP energy per Si atom -5586.133167 kJ/mol
# Density = 2.395781 g / cm^3
# Si number density = 24.012461 Si / 1000 Ang^3
#
#
#
# Elastic Constant Matrix: (Units=GPa)
#
#
# Indices 1 2 3 4 5 6 
#
# 1 236.0278 9.3610 66.6345 0.0000 0.0000 0.0000
# 2 9.3610 40.7860 -2.4195 0.0000 0.0000 0.0000
# 3 66.6345 -2.4195 81.2239 0.0000 0.0000 0.0000
# 4 0.0000 0.0000 0.0000 37.0666 0.0000 0.0000
# 5 0.0000 0.0000 0.0000 0.0000 45.9898 0.0000
# 6 0.0000 0.0000 0.0000 0.0000 0.0000 232.1926
#
#
#
# Elastic Compliance Matrix: (Units=1/GPa)
#
#
# Indices 1 2 3 4 5 6 
#
# 1 0.005612 -0.001564 -0.004650 0.000000 0.000000 0.000000
# 2 -0.001564 0.024997 0.002028 0.000000 0.000000 0.000000
# 3 -0.004650 0.002028 0.016187 0.000000 0.000000 0.000000
# 4 0.000000 0.000000 0.000000 0.026978 0.000000 0.000000
# 5 0.000000 0.000000 0.000000 0.000000 0.021744 0.000000
# 6 0.000000 0.000000 0.000000 0.000000 0.000000 0.004307
#
#
# Mechanical properties :
#
#
# Convention : Reuss Voigt Hill
#
# Bulk Modulus (GPa) = 26.02603 56.13216 41.07910
# Shear Modulus (GPa) = 41.32024 82.01392 61.66708
#
# Velocity S-wave (km/s) = 4.15273 5.85055 5.07317
# Velocity P-wave (km/s) = 5.81856 8.31057 7.17360
#
# Compressibility (1/GPa) = 0.03842307
#
# Stress axis : x y z
#
# Youngs Moduli (GPa) = 178.20031 40.00410 61.77780
#
# Poissons Ratio (x) = 0.06256 0.28728
# Poissons Ratio (y) = 0.27867 -0.12526
# Poissons Ratio (z) = 0.82868 -0.08111
#
# Static dielectric constant tensor:
#      x y z
#    x 1.988450 0.000000 0.000000 
#    y 0.000000 2.031920 0.000000 
#    z 0.000000 0.000000 1.908580 
# 
# From -- ./inp_files/12287.got.cif
#   From: 2010.05.17/outbox.cif.g08.bks.cpg/sg67_7_cif.got.tgz:12287.got - 2010.06.03 18:28:57.
