data_PCOD9503265
_publ_section_title
;
Structure prediction by ZEFSAII (Michael W. Deem and Ramdas Pophale) SiO2 
 PCOD9503265
Probable space group: C M M A
;
_chemical_formula_sum "Si O2"
_cell_formula_units_Z 52
_cell_length_a 8.810946
_cell_length_b 14.938681
_cell_length_c 17.870863
_cell_angle_alpha 90.000000
_cell_angle_beta 90.000000
_cell_angle_gamma 90.000000
_cell_volume 2352.232892
_symmetry_space_group_name_H-M "C M M A"
_symmetry_group_IT_number 67
_symmetry_cell_setting 'orthorhombic'
loop_
_space_group_symop_operation_xyz
x,y,z
-x,1/2-y,z
x,-y,-z
-x,1/2+y,-z
-x,-y,-z
x,1/2+y,-z
-x,y,z
x,1/2-y,z
1/2+x,1/2+y,z
1/2-x,-y,z
1/2+x,1/2-y,-z
1/2-x,y,-z
1/2-x,1/2-y,-z
1/2+x,y,-z
1/2-x,1/2+y,z
1/2+x,-y,z
loop_
_atom_site_type_symbol
_atom_site_label
_atom_site_fract_x
_atom_site_fract_y
_atom_site_fract_z
Si Si1 0.819684 0.405628 0.613869
Si Si2 0.250000 0.250000 0.500000
Si Si3 0.825647 0.640502 0.077684
Si Si4 0.173193 0.358508 0.232153
O O1 0.750000 0.500000 0.591323
O O2 0.746704 0.327600 0.564968
O O3 0.779084 0.390781 0.700795
O O4 0.000000 0.401930 0.602270
O O5 0.825273 0.750000 0.077394
O O6 0.733129 0.612693 0.151048
O O7 0.000000 0.611435 0.082266
O O8 0.750000 0.611839 0.000000
O O9 0.174214 0.250000 0.232996
O O10 0.000000 0.388587 0.244948
#
# Coordination Sequence:
#
# PCOD9503265 Si02
#       4
#    16   4  16  16
#     4  12  27  47  72 103 138 178 224 276 337 404
#     4  12  28  48  76 104 132 176 218 278 334 406
#     4   9  16  27  48  82 125 171 223 278 331 390
#     4  10  20  36  61  92 130 176 224 276 336 398
#
# _framework density 22.106655
#
# number of rings (size 3 to 8) (size 9 to 14) (size 15 to 20)
#    0.000    1.538    1.538    3.692    0.000   11.077 
#    0.000    0.000    0.000    0.923    0.000    6.462 
#    0.000    0.000    0.000    0.000    0.000    0.000 
#
# Total GULP energy -145016.706880 kJ/mol
# GULP energy per Si atom -5577.565649 kJ/mol
# Density = 2.205634 g / cm^3
# Si number density = 22.106655 Si / 1000 Ang^3
#
#
#
# Elastic Constant Matrix: (Units=GPa)
#
#
# Indices 1 2 3 4 5 6 
#
# 1 28.1887 8.2410 -16.1678 0.0000 0.0000 0.0000
# 2 8.2410 117.9199 34.9056 0.0000 0.0000 0.0000
# 3 -16.1678 34.9056 136.4178 0.0000 0.0000 0.0000
# 4 0.0000 0.0000 0.0000 73.5202 0.0000 0.0000
# 5 0.0000 0.0000 0.0000 0.0000 -102.7520 0.0000
# 6 0.0000 0.0000 0.0000 0.0000 0.0000 7.6551
#
#
#
# Elastic Compliance Matrix: (Units=1/GPa)
#
#
# Indices 1 2 3 4 5 6 
#
# 1 0.040214 -0.004567 0.005935 0.000000 0.000000 0.000000
# 2 -0.004567 0.009694 -0.003022 0.000000 0.000000 0.000000
# 3 0.005935 -0.003022 0.008807 0.000000 0.000000 0.000000
# 4 0.000000 0.000000 0.000000 0.013602 0.000000 0.000000
# 5 0.000000 0.000000 0.000000 0.000000 -0.009732 0.000000
# 6 0.000000 0.000000 0.000000 0.000000 0.000000 0.130631
#
#
# Mechanical properties :
#
#
# Convention : Reuss Voigt Hill
#
# Bulk Modulus (GPa) = 18.04831 37.38710 27.71770
# Shear Modulus (GPa) = 23.25656 12.72119 17.98887
#
# Velocity S-wave (km/s) = 3.24700 2.40145 2.85569
# Velocity P-wave (km/s) = 4.71585 4.96368 4.84135
#
# Compressibility (1/GPa) = 0.05540685
#
# Stress axis : x y z
#
# Youngs Moduli (GPa) = 24.86679 103.15684 113.54665
#
# Poissons Ratio (x) = 0.47113 -0.67386
# Poissons Ratio (y) = 0.11357 0.34310
# Poissons Ratio (z) = -0.14758 0.31171
#
# Static dielectric constant tensor:
#      x y z
#    x 1.795860 0.000000 0.000000 
#    y 0.000000 1.824990 0.000000 
#    z 0.000000 0.000000 1.769490 
# 
# From -- ./inp_files/31564.got.cif
#   From: 2010.05.17/outbox.cif.g08.bks.cpg/sg67_16_cif.got.tgz:31564.got - 2010.06.03 18:28:57.
