data_PCOD9503113
_publ_section_title
;
Structure prediction by ZEFSAII (Michael W. Deem and Ramdas Pophale) SiO2 
 PCOD9503113
Probable space group: C M M A
;
_chemical_formula_sum "Si O2"
_cell_formula_units_Z 80
_cell_length_a 16.727452
_cell_length_b 27.240176
_cell_length_c 8.928414
_cell_angle_alpha 90.000000
_cell_angle_beta 90.000000
_cell_angle_gamma 90.000000
_cell_volume 4068.309842
_symmetry_space_group_name_H-M "C M M A"
_symmetry_group_IT_number 67
_symmetry_cell_setting 'orthorhombic'
loop_
_space_group_symop_operation_xyz
x,y,z
-x,1/2-y,z
x,-y,-z
-x,1/2+y,-z
-x,-y,-z
x,1/2+y,-z
-x,y,z
x,1/2-y,z
1/2+x,1/2+y,z
1/2-x,-y,z
1/2+x,1/2-y,-z
1/2-x,y,-z
1/2-x,1/2-y,-z
1/2+x,y,-z
1/2-x,1/2+y,z
1/2+x,-y,z
loop_
_atom_site_type_symbol
_atom_site_label
_atom_site_fract_x
_atom_site_fract_y
_atom_site_fract_z
Si Si1 0.904433 0.548257 0.916748
Si Si2 0.163080 0.649209 0.427462
Si Si3 0.906905 0.750000 0.384252
Si Si4 0.096703 0.448955 0.423852
Si Si5 0.841625 0.250000 0.943623
Si Si6 0.838949 0.643887 0.067016
O O1 0.873827 0.552283 0.747357
O O2 0.000000 0.542735 0.906153
O O3 0.872209 0.500000 0.000000
O O4 0.885934 0.597115 0.008376
O O5 0.250000 0.655200 0.500000
O O6 0.113569 0.698819 0.464681
O O7 0.125815 0.599431 0.491802
O O8 0.165260 0.644200 0.247118
O O9 0.850991 0.750000 0.236320
O O10 0.000000 0.750000 0.339944
O O11 0.122737 0.500000 0.500000
O O12 0.000000 0.448607 0.425246
O O13 0.874993 0.303494 0.987025
O O14 0.750000 0.250000 0.000000
O O15 0.750000 0.640652 0.000000
#
# Coordination Sequence:
#
# PCOD9503113 Si02
#       6
#    16  16   8  16   8  16
#     4  10  21  37  57  82 112 147 189 238 291 344
#     4  11  22  37  59  86 119 156 195 243 299 355
#     4  10  21  37  60  89 119 156 202 246 293 359
#     4  10  21  38  59  84 116 153 195 244 298 358
#     4   8  18  35  56  83 116 152 188 238 296 349
#     4  10  20  36  57  82 112 148 189 233 282 343
#
# _framework density 19.664185
#
# number of rings (size 3 to 8) (size 9 to 14) (size 15 to 20)
#    0.000    2.000    0.000    3.300    0.000    6.400 
#    0.000    7.000    0.000    2.400    0.000    1.400 
#    0.000    0.000    0.000    0.000    0.000    0.000 
#
# Total GULP energy -223111.425590 kJ/mol
# GULP energy per Si atom -5577.785640 kJ/mol
# Density = 1.961943 g / cm^3
# Si number density = 19.664185 Si / 1000 Ang^3
#
#
#
# Elastic Constant Matrix: (Units=GPa)
#
#
# Indices 1 2 3 4 5 6 
#
# 1 29.2515 28.0615 28.8931 0.0000 0.0000 0.0000
# 2 28.0615 212.2532 76.1436 0.0000 0.0000 0.0000
# 3 28.8931 76.1436 117.4945 0.0000 0.0000 0.0000
# 4 0.0000 0.0000 0.0000 31.7027 0.0000 0.0000
# 5 0.0000 0.0000 0.0000 0.0000 25.5886 0.0000
# 6 0.0000 0.0000 0.0000 0.0000 0.0000 23.2622
#
#
#
# Elastic Compliance Matrix: (Units=1/GPa)
#
#
# Indices 1 2 3 4 5 6 
#
# 1 0.046272 -0.002652 -0.009660 0.000000 0.000000 0.000000
# 2 -0.002652 0.006290 -0.003424 0.000000 0.000000 0.000000
# 3 -0.009660 -0.003424 0.013106 0.000000 0.000000 0.000000
# 4 0.000000 0.000000 0.000000 0.031543 0.000000 0.000000
# 5 0.000000 0.000000 0.000000 0.000000 0.039080 0.000000
# 6 0.000000 0.000000 0.000000 0.000000 0.000000 0.042988
#
#
# Mechanical properties :
#
#
# Convention : Reuss Voigt Hill
#
# Bulk Modulus (GPa) = 29.24379 69.46617 49.35498
# Shear Modulus (GPa) = 22.50718 31.17076 26.83897
#
# Velocity S-wave (km/s) = 3.38683 3.98572 3.69842
# Velocity P-wave (km/s) = 5.49527 7.52225 6.58719
#
# Compressibility (1/GPa) = 0.03419530
#
# Stress axis : x y z
#
# Youngs Moduli (GPa) = 21.61120 158.97084 76.30213
#
# Poissons Ratio (x) = 0.42161 0.73709
# Poissons Ratio (y) = 0.05732 0.26129
# Poissons Ratio (z) = 0.20877 0.54438
#
# Static dielectric constant tensor:
#      x y z
#    x 1.678750 0.000000 0.000000 
#    y 0.000000 1.711180 0.000000 
#    z 0.000000 0.000000 1.686660 
# 
# From -- ./inp_files/10000.got.cif
#   From: 2010.05.17/outbox.cif.g08.bks.cpg/sg67_5_cif.got.tgz:10000.got - 2010.06.03 18:28:57.
