data_PCOD9503725
_publ_section_title
;
Structure prediction by ZEFSAII (Michael W. Deem and Ramdas Pophale) SiO2 
 PCOD9503725
Probable space group: C M M A
;
_chemical_formula_sum "Si O2"
_cell_formula_units_Z 80
_cell_length_a 18.749130
_cell_length_b 8.231542
_cell_length_c 26.625599
_cell_angle_alpha 90.000000
_cell_angle_beta 90.000000
_cell_angle_gamma 90.000000
_cell_volume 4109.241881
_symmetry_space_group_name_H-M "C M M A"
_symmetry_group_IT_number 67
_symmetry_cell_setting 'orthorhombic'
loop_
_space_group_symop_operation_xyz
x,y,z
-x,1/2-y,z
x,-y,-z
-x,1/2+y,-z
-x,-y,-z
x,1/2+y,-z
-x,y,z
x,1/2-y,z
1/2+x,1/2+y,z
1/2-x,-y,z
1/2+x,1/2-y,-z
1/2-x,y,-z
1/2-x,1/2-y,-z
1/2+x,y,-z
1/2-x,1/2+y,z
1/2+x,-y,z
loop_
_atom_site_type_symbol
_atom_site_label
_atom_site_fract_x
_atom_site_fract_y
_atom_site_fract_z
Si Si1 0.417751 0.445974 0.055120
Si Si2 0.668489 0.553491 0.847644
Si Si3 0.581754 0.053734 0.250406
Si Si4 0.082193 0.445948 0.444793
Si Si5 0.331411 0.055437 0.652137
O O1 0.500000 0.501293 0.061628
O O2 0.418335 0.250000 0.056163
O O3 0.368883 0.503555 0.100907
O O4 0.393175 0.500000 0.000000
O O5 0.666545 0.750000 0.847762
O O6 0.750000 0.500000 0.844392
O O7 0.623640 0.497238 0.799253
O O8 0.500000 0.995640 0.251058
O O9 0.580215 0.250000 0.248751
O O10 0.623637 0.002623 0.300095
O O11 0.106379 0.500000 0.500000
O O12 0.081691 0.250000 0.443843
O O13 0.131333 0.504439 0.399248
O O14 0.000000 0.501665 0.438010
O O15 0.332878 0.250000 0.651538
O O16 0.250000 0.000000 0.655631
#
# Coordination Sequence:
#
# PCOD9503725 Si02
#       5
#    16  16  16  16  16
#     4   9  18  34  55  77 103 137 177 220 264 312
#     4  10  21  36  54  78 109 142 176 218 267 318
#     4  10  21  38  60  83 107 140 182 224 270 326
#     4   9  19  36  57  80 107 141 181 224 269 318
#     4  11  23  38  56  81 114 147 181 224 273 322
#
# _framework density 19.468312000000001
#
# number of rings (size 3 to 8) (size 9 to 14) (size 15 to 20)
#    0.000    2.200    0.000    2.400    0.000    9.200 
#    0.000    6.000    0.000    3.600    0.000    0.000 
#    0.000    0.000    0.000    0.000    0.000    0.000 
#
# Total GULP energy -223405.084464 kJ/mol
# GULP energy per Si atom -5585.127112 kJ/mol
# Density = 1.942400 g / cm^3
# Si number density = 19.468312 Si / 1000 Ang^3
#
#
#
# Elastic Constant Matrix: (Units=GPa)
#
#
# Indices 1 2 3 4 5 6 
#
# 1 173.3957 15.8829 141.2978 0.0000 0.0000 0.0000
# 2 15.8829 9.7436 19.3615 0.0000 0.0000 0.0000
# 3 141.2978 19.3615 225.7948 0.0000 0.0000 0.0000
# 4 0.0000 0.0000 0.0000 26.9234 0.0000 0.0000
# 5 0.0000 0.0000 0.0000 0.0000 183.2590 0.0000
# 6 0.0000 0.0000 0.0000 0.0000 0.0000 24.5725
#
#
#
# Elastic Compliance Matrix: (Units=1/GPa)
#
#
# Indices 1 2 3 4 5 6 
#
# 1 0.012016 -0.005600 -0.007040 0.000000 0.000000 0.000000
# 2 -0.005600 0.126320 -0.007328 0.000000 0.000000 0.000000
# 3 -0.007040 -0.007328 0.009462 0.000000 0.000000 0.000000
# 4 0.000000 0.000000 0.000000 0.037142 0.000000 0.000000
# 5 0.000000 0.000000 0.000000 0.000000 0.005457 0.000000
# 6 0.000000 0.000000 0.000000 0.000000 0.000000 0.040696
#
#
# Mechanical properties :
#
#
# Convention : Reuss Voigt Hill
#
# Bulk Modulus (GPa) = 9.27083 84.66871 46.96977
# Shear Modulus (GPa) = 16.28759 62.44378 39.36568
#
# Velocity S-wave (km/s) = 2.89558 5.66959 4.50159
# Velocity P-wave (km/s) = 3.99393 9.29752 7.15526
#
# Compressibility (1/GPa) = 0.10786526
#
# Stress axis : x y z
#
# Youngs Moduli (GPa) = 83.21912 7.91641 105.68248
#
# Poissons Ratio (x) = 0.04433 0.74395
# Poissons Ratio (y) = 0.46599 0.77440
# Poissons Ratio (z) = 0.58582 0.05801
#
# Static dielectric constant tensor:
#      x y z
#    x 1.657310 0.000000 0.000000 
#    y 0.000000 1.686920 0.000000 
#    z 0.000000 0.000000 1.662600 
# 
# From -- ./inp_files/43243.got.cif
#   From: 2010.05.17/outbox.cif.g08.bks.cpg/sg67_22_cif.got.tgz:43243.got - 2010.06.03 18:28:57.
