data_PCOD9503988
_publ_section_title
;
Structure prediction by ZEFSAII (Michael W. Deem and Ramdas Pophale) SiO2 
 PCOD9503988
Probable space group: C M M A
;
_chemical_formula_sum "Si O2"
_cell_formula_units_Z 64
_cell_length_a 17.696391
_cell_length_b 19.551730
_cell_length_c 9.459389
_cell_angle_alpha 90.000000
_cell_angle_beta 90.000000
_cell_angle_gamma 90.000000
_cell_volume 3272.901853
_symmetry_space_group_name_H-M "C M M A"
_symmetry_group_IT_number 67
_symmetry_cell_setting 'orthorhombic'
loop_
_space_group_symop_operation_xyz
x,y,z
-x,1/2-y,z
x,-y,-z
-x,1/2+y,-z
-x,-y,-z
x,1/2+y,-z
-x,y,z
x,1/2-y,z
1/2+x,1/2+y,z
1/2-x,-y,z
1/2+x,1/2-y,-z
1/2-x,y,-z
1/2-x,1/2-y,-z
1/2+x,y,-z
1/2-x,1/2+y,z
1/2+x,-y,z
loop_
_atom_site_type_symbol
_atom_site_label
_atom_site_fract_x
_atom_site_fract_y
_atom_site_fract_z
Si Si1 0.590214 0.436002 0.658193
Si Si2 0.307649 0.330005 0.129481
Si Si3 0.410520 0.326229 0.888251
Si Si4 0.323989 0.423404 0.399432
O O1 0.500000 0.450255 0.666300
O O2 0.614719 0.385627 0.783216
O O3 0.640409 0.505138 0.658117
O O4 0.610732 0.400036 0.509080
O O5 0.298736 0.250000 0.165402
O O6 0.304580 0.375847 0.267712
O O7 0.250000 0.345981 0.000000
O O8 0.387070 0.339809 0.048878
O O9 0.500000 0.324029 0.874825
O O10 0.380505 0.250000 0.851859
O O11 0.250000 0.428114 0.500000
#
# Coordination Sequence:
#
# PCOD9503988 Si02
#       4
#    16  16  16  16
#     4  10  21  38  58  82 115 148 181 226 277 329
#     4  10  22  39  58  82 112 145 185 233 279 325
#     4   9  19  37  60  85 113 145 182 226 276 329
#     4  11  22  36  56  82 112 148 188 229 274 327
#
# _framework density 19.554513
#
# number of rings (size 3 to 8) (size 9 to 14) (size 15 to 20)
#    0.000    2.000    0.000    4.500    0.000    4.500 
#    0.000    3.750    0.000    2.250    0.000    0.000 
#    0.000    0.000    0.000    0.000    0.000    0.000 
#
# Total GULP energy -178272.496569 kJ/mol
# GULP energy per Si atom -5571.015518 kJ/mol
# Density = 1.951001 g / cm^3
# Si number density = 19.554513 Si / 1000 Ang^3
#
#
#
# Elastic Constant Matrix: (Units=GPa)
#
#
# Indices 1 2 3 4 5 6 
#
# 1 75.2720 63.2493 50.8900 0.0000 0.0000 0.0000
# 2 63.2493 112.3374 113.7832 0.0000 0.0000 0.0000
# 3 50.8900 113.7832 158.5804 0.0000 0.0000 0.0000
# 4 0.0000 0.0000 0.0000 38.1442 0.0000 0.0000
# 5 0.0000 0.0000 0.0000 0.0000 34.2962 0.0000
# 6 0.0000 0.0000 0.0000 0.0000 0.0000 18.9620
#
#
#
# Elastic Compliance Matrix: (Units=1/GPa)
#
#
# Indices 1 2 3 4 5 6 
#
# 1 0.028046 -0.024426 0.008526 0.000000 0.000000 0.000000
# 2 -0.024426 0.053851 -0.030800 0.000000 0.000000 0.000000
# 3 0.008526 -0.030800 0.025669 0.000000 0.000000 0.000000
# 4 0.000000 0.000000 0.000000 0.026216 0.000000 0.000000
# 5 0.000000 0.000000 0.000000 0.000000 0.029158 0.000000
# 6 0.000000 0.000000 0.000000 0.000000 0.000000 0.052737
#
#
# Mechanical properties :
#
#
# Convention : Reuss Voigt Hill
#
# Bulk Modulus (GPa) = 70.59530 89.11497 79.85514
# Shear Modulus (GPa) = 15.93375 26.16495 21.04935
#
# Velocity S-wave (km/s) = 2.85763 3.66191 3.28448
# Velocity P-wave (km/s) = 6.86063 7.97188 7.43704
#
# Compressibility (1/GPa) = 0.01416525
#
# Stress axis : x y z
#
# Youngs Moduli (GPa) = 35.65599 18.56980 38.95725
#
# Poissons Ratio (x) = 0.45359 -0.33215
# Poissons Ratio (y) = 0.87095 1.19988
# Poissons Ratio (z) = -0.30400 0.57195
#
# Static dielectric constant tensor:
#      x y z
#    x 1.781020 0.000000 0.000000 
#    y 0.000000 1.706270 0.000000 
#    z 0.000000 0.000000 1.676550 
# 
# From -- ./inp_files/9620.got.cif
#   From: 2010.05.17/outbox.cif.g08.bks.cpg/sg67_5_cif.got.tgz:9620.got - 2010.06.03 18:28:57.
