data_PCOD9503114
_publ_section_title
;
Structure prediction by ZEFSAII (Michael W. Deem and Ramdas Pophale) SiO2 
 PCOD9503114
Probable space group: C M M A
;
_chemical_formula_sum "Si O2"
_cell_formula_units_Z 92
_cell_length_a 27.039590
_cell_length_b 9.141344
_cell_length_c 20.051503
_cell_angle_alpha 90.000000
_cell_angle_beta 90.000000
_cell_angle_gamma 90.000000
_cell_volume 4956.294295
_symmetry_space_group_name_H-M "C M M A"
_symmetry_group_IT_number 67
_symmetry_cell_setting 'orthorhombic'
loop_
_space_group_symop_operation_xyz
x,y,z
-x,1/2-y,z
x,-y,-z
-x,1/2+y,-z
-x,-y,-z
x,1/2+y,-z
-x,y,z
x,1/2-y,z
1/2+x,1/2+y,z
1/2-x,-y,z
1/2+x,1/2-y,-z
1/2-x,y,-z
1/2-x,1/2-y,-z
1/2+x,y,-z
1/2-x,1/2+y,z
1/2+x,-y,z
loop_
_atom_site_type_symbol
_atom_site_label
_atom_site_fract_x
_atom_site_fract_y
_atom_site_fract_z
Si Si1 0.801005 0.422307 0.149368
Si Si2 0.442639 0.582226 0.183005
Si Si3 0.099682 0.080163 0.689595
Si Si4 0.500000 0.750000 0.474811
Si Si5 0.698411 0.921921 0.310845
Si Si6 0.609176 0.425710 0.072134
Si Si7 0.500000 0.458488 0.396512
O O1 0.801731 0.250000 0.131835
O O2 0.750000 0.500000 0.130088
O O3 0.804740 0.432467 0.229887
O O4 0.844030 0.510823 0.112861
O O5 0.500000 0.587145 0.201257
O O6 0.424909 0.750000 0.173539
O O7 0.414222 0.504299 0.242838
O O8 0.435612 0.488275 0.116414
O O9 0.111183 0.250000 0.703359
O O10 0.050529 0.074027 0.644095
O O11 0.149174 0.001889 0.661871
O O12 0.500000 0.624994 0.417238
O O13 0.500000 0.629511 0.535197
O O14 0.698954 0.750000 0.328151
O O15 0.750000 0.000000 0.330408
O O16 0.609673 0.250000 0.068435
O O17 0.608623 0.500000 0.000000
#
# Coordination Sequence:
#
# PCOD9503114 Si02
#       7
#    16  16  16   4  16  16   8
#     4  10  20  36  57  82 115 151 197 251 314 372
#     4  11  24  40  60  87 119 154 203 260 309 372
#     4  12  22  36  62  98 131 169 215 257 311 369
#     4  10  24  46  64  98 146 178 214 254 300 364
#     4  10  21  36  58  89 128 167 208 266 321 371
#     4  12  25  41  60  80 111 155 203 256 317 379
#     4  11  24  42  68 100 141 180 214 252 307 366
#
# _framework density 18.562256000000001
#
# number of rings (size 3 to 8) (size 9 to 14) (size 15 to 20)
#    0.000    1.043    3.478    3.652    2.435    3.130 
#    0.000    1.739    0.000    0.000    0.000    3.652 
#    0.000    0.000    0.000    0.000    0.000    0.000 
#
# Total GULP energy -256296.493918 kJ/mol
# GULP energy per Si atom -5571.662911 kJ/mol
# Density = 1.852001 g / cm^3
# Si number density = 18.562256 Si / 1000 Ang^3
#
#
#
# Elastic Constant Matrix: (Units=GPa)
#
#
# Indices 1 2 3 4 5 6 
#
# 1 129.8642 52.0477 11.2971 0.0000 0.0000 0.0000
# 2 52.0477 196.2796 18.4678 0.0000 0.0000 0.0000
# 3 11.2971 18.4678 27.9716 0.0000 0.0000 0.0000
# 4 0.0000 0.0000 0.0000 28.8962 0.0000 0.0000
# 5 0.0000 0.0000 0.0000 0.0000 -128.1504 0.0000
# 6 0.0000 0.0000 0.0000 0.0000 0.0000 46.2435
#
#
#
# Elastic Compliance Matrix: (Units=1/GPa)
#
#
# Indices 1 2 3 4 5 6 
#
# 1 0.008734 -0.002115 -0.002131 0.000000 0.000000 0.000000
# 2 -0.002115 0.005945 -0.003070 0.000000 0.000000 0.000000
# 3 -0.002131 -0.003070 0.038638 0.000000 0.000000 0.000000
# 4 0.000000 0.000000 0.000000 0.034607 0.000000 0.000000
# 5 0.000000 0.000000 0.000000 0.000000 -0.007803 0.000000
# 6 0.000000 0.000000 0.000000 0.000000 0.000000 0.021625
#
#
# Mechanical properties :
#
#
# Convention : Reuss Voigt Hill
#
# Bulk Modulus (GPa) = 25.85088 57.52672 41.68880
# Shear Modulus (GPa) = 38.67822 7.55139 23.11481
#
# Velocity S-wave (km/s) = 4.56971 2.01915 3.53265
# Velocity P-wave (km/s) = 6.46528 6.04107 6.25677
#
# Compressibility (1/GPa) = 0.03868340
#
# Stress axis : x y z
#
# Youngs Moduli (GPa) = 114.50133 168.21948 25.88110
#
# Poissons Ratio (x) = 0.35585 0.05514
# Poissons Ratio (y) = 0.24222 0.07947
# Poissons Ratio (z) = 0.24396 0.51651
#
# Static dielectric constant tensor:
#      x y z
#    x 1.691620 0.000000 0.000000 
#    y 0.000000 1.640170 0.000000 
#    z 0.000000 0.000000 1.602280 
# 
# From -- ./inp_files/39897.got.cif
#   From: 2010.05.17/outbox.cif.g08.bks.cpg/sg67_20_cif.got.tgz:39897.got - 2010.06.03 18:28:57.
