data_PCOD9503530
_publ_section_title
;
Structure prediction by ZEFSAII (Michael W. Deem and Ramdas Pophale) SiO2 
 PCOD9503530
Probable space group: C M M A
;
_chemical_formula_sum "Si O2"
_cell_formula_units_Z 96
_cell_length_a 14.584521
_cell_length_b 16.736664
_cell_length_c 21.018007
_cell_angle_alpha 90.000000
_cell_angle_beta 90.000000
_cell_angle_gamma 90.000000
_cell_volume 5130.416220
_symmetry_space_group_name_H-M "C M M A"
_symmetry_group_IT_number 67
_symmetry_cell_setting 'orthorhombic'
loop_
_space_group_symop_operation_xyz
x,y,z
-x,1/2-y,z
x,-y,-z
-x,1/2+y,-z
-x,-y,-z
x,1/2+y,-z
-x,y,z
x,1/2-y,z
1/2+x,1/2+y,z
1/2-x,-y,z
1/2+x,1/2-y,-z
1/2-x,y,-z
1/2-x,1/2-y,-z
1/2+x,y,-z
1/2-x,1/2+y,z
1/2+x,-y,z
loop_
_atom_site_type_symbol
_atom_site_label
_atom_site_fract_x
_atom_site_fract_y
_atom_site_fract_z
Si Si1 0.500000 0.052083 0.169292
Si Si2 0.000000 0.933773 0.945268
Si Si3 0.500000 0.155641 0.607717
Si Si4 0.196477 0.420326 0.686028
Si Si5 0.691019 0.653947 0.061326
Si Si6 0.180802 0.344649 0.822168
Si Si7 0.296195 0.844968 0.435112
Si Si8 0.500000 0.507102 0.684963
O O1 0.589294 0.106869 0.161435
O O2 0.500000 0.013134 0.238955
O O3 0.500000 0.982006 0.119702
O O4 0.909143 0.881241 0.947053
O O5 0.000000 0.000000 0.000000
O O6 0.500000 0.250000 0.629980
O O7 0.405975 0.144031 0.568478
O O8 0.500000 0.084069 0.659707
O O9 0.250000 0.500000 0.705992
O O10 0.198795 0.363813 0.747905
O O11 0.249457 0.384096 0.626156
O O12 0.093240 0.446117 0.666360
O O13 0.686636 0.750000 0.060955
O O14 0.740090 0.630525 0.127847
O O15 0.750000 0.628202 0.000000
O O16 0.166476 0.250000 0.829753
O O17 0.279128 0.750000 0.431711
O O18 0.250000 0.875457 0.500000
#
# Coordination Sequence:
#
# PCOD9503530 Si02
#       8
#     8   8   8  16  16  16  16   8
#     4  10  23  37  62  86 125 152 194 257 291 358
#     4  12  25  38  58  92 119 157 199 249 309 356
#     4  10  20  39  62  85 120 157 201 247 295 366
#     4  11  22  38  62  88 126 156 197 255 300 360
#     4  10  23  42  63  87 121 160 203 249 298 362
#     4  10  22  40  63  88 117 163 203 242 300 357
#     4  10  22  40  62  89 120 161 205 247 302 363
#     4  10  22  40  56  93 117 158 199 245 308 344
#
# _framework density 18.711932000000001
#
# number of rings (size 3 to 8) (size 9 to 14) (size 15 to 20)
#    0.000    1.667    1.667    2.000    4.667    2.667 
#    0.000    7.083    0.000    0.000    0.000    0.000 
#    0.000    0.000    0.000    0.000    0.000    0.000 
#
# Total GULP energy -267970.937237 kJ/mol
# GULP energy per Si atom -5582.727859 kJ/mol
# Density = 1.866934 g / cm^3
# Si number density = 18.711932 Si / 1000 Ang^3
#
#
#
# Elastic Constant Matrix: (Units=GPa)
#
#
# Indices 1 2 3 4 5 6 
#
# 1 167.0573 48.4688 72.7765 0.0000 0.0000 0.0000
# 2 48.4688 54.9418 36.9214 0.0000 0.0000 0.0000
# 3 72.7765 36.9214 87.6779 0.0000 0.0000 0.0000
# 4 0.0000 0.0000 0.0000 24.8218 0.0000 0.0000
# 5 0.0000 0.0000 0.0000 0.0000 26.4957 0.0000
# 6 0.0000 0.0000 0.0000 0.0000 0.0000 24.2173
#
#
#
# Elastic Compliance Matrix: (Units=1/GPa)
#
#
# Indices 1 2 3 4 5 6 
#
# 1 0.010143 -0.004589 -0.006487 0.000000 0.000000 0.000000
# 2 -0.004589 0.027461 -0.007755 0.000000 0.000000 0.000000
# 3 -0.006487 -0.007755 0.020055 0.000000 0.000000 0.000000
# 4 0.000000 0.000000 0.000000 0.040287 0.000000 0.000000
# 5 0.000000 0.000000 0.000000 0.000000 0.037742 0.000000
# 6 0.000000 0.000000 0.000000 0.000000 0.000000 0.041293
#
#
# Mechanical properties :
#
#
# Convention : Reuss Voigt Hill
#
# Bulk Modulus (GPa) = 50.00486 69.55669 59.78077
# Shear Modulus (GPa) = 22.59289 25.20767 23.90028
#
# Velocity S-wave (km/s) = 3.47854 3.67433 3.57778
# Velocity P-wave (km/s) = 6.55097 7.43330 7.00604
#
# Compressibility (1/GPa) = 0.01999806
#
# Stress axis : x y z
#
# Youngs Moduli (GPa) = 98.58648 36.41576 49.86193
#
# Poissons Ratio (x) = 0.16711 0.32345
# Poissons Ratio (y) = 0.45241 0.38666
# Poissons Ratio (z) = 0.63953 0.28239
#
# Static dielectric constant tensor:
#      x y z
#    x 1.699440 0.000000 0.000000 
#    y 0.000000 1.626190 0.000000 
#    z 0.000000 0.000000 1.545220 
# 
# From -- ./inp_files/38593.got.cif
#   From: 2010.05.17/outbox.cif.g08.bks.cpg/sg67_20_cif.got.tgz:38593.got - 2010.06.03 18:28:57.
