data_PCOD9503768
_publ_section_title
;
Structure prediction by ZEFSAII (Michael W. Deem and Ramdas Pophale) SiO2 
 PCOD9503768
Probable space group: C M M A
;
_chemical_formula_sum "Si O2"
_cell_formula_units_Z 80
_cell_length_a 25.272838
_cell_length_b 14.750227
_cell_length_c 10.053223
_cell_angle_alpha 90.000000
_cell_angle_beta 90.000000
_cell_angle_gamma 90.000000
_cell_volume 3747.641449
_symmetry_space_group_name_H-M "C M M A"
_symmetry_group_IT_number 67
_symmetry_cell_setting 'orthorhombic'
loop_
_space_group_symop_operation_xyz
x,y,z
-x,1/2-y,z
x,-y,-z
-x,1/2+y,-z
-x,-y,-z
x,1/2+y,-z
-x,y,z
x,1/2-y,z
1/2+x,1/2+y,z
1/2-x,-y,z
1/2+x,1/2-y,-z
1/2-x,y,-z
1/2-x,1/2-y,-z
1/2+x,y,-z
1/2-x,1/2+y,z
1/2+x,-y,z
loop_
_atom_site_type_symbol
_atom_site_label
_atom_site_fract_x
_atom_site_fract_y
_atom_site_fract_z
Si Si1 0.109479 0.480355 0.359536
Si Si2 0.832198 0.606545 0.982653
Si Si3 0.940060 0.355583 0.138236
Si Si4 0.677342 0.148261 0.275676
Si Si5 0.205103 0.145149 0.316701
O O1 0.082955 0.500000 0.500000
O O2 0.073923 0.424173 0.257296
O O3 0.132766 0.573242 0.299535
O O4 0.161430 0.417612 0.384524
O O5 0.894832 0.625996 0.969909
O O6 0.807995 0.636420 0.841815
O O7 0.822637 0.500000 0.000000
O O8 0.812320 0.651104 0.116984
O O9 0.934567 0.250000 0.180967
O O10 0.000000 0.368922 0.091684
O O11 0.663434 0.250000 0.319953
O O12 0.733763 0.120294 0.338010
O O13 0.198559 0.250000 0.354145
#
# Coordination Sequence:
#
# PCOD9503768 Si02
#       5
#    16  16  16  16  16
#     4  11  23  39  58  82 114 151 196 246 283 328
#     4  11  19  34  59  87 116 149 184 235 289 346
#     4  10  22  42  66  87 110 145 189 238 297 359
#     4  11  22  35  54  85 120 156 190 229 283 337
#     4  10  21  36  56  82 117 158 197 230 273 340
#
# _framework density 21.346758000000001
#
# number of rings (size 3 to 8) (size 9 to 14) (size 15 to 20)
#    0.000    1.400    4.000    4.800    0.000    6.400 
#    0.000    2.000    0.000    0.600    0.000    0.000 
#    0.000    0.000    0.000    0.000    0.000    0.000 
#
# Total GULP energy -223635.541080 kJ/mol
# GULP energy per Si atom -5590.888527 kJ/mol
# Density = 2.129817 g / cm^3
# Si number density = 21.346758 Si / 1000 Ang^3
#
#
#
# Elastic Constant Matrix: (Units=GPa)
#
#
# Indices 1 2 3 4 5 6 
#
# 1 82.2809 14.9498 -3.1385 0.0000 0.0000 0.0000
# 2 14.9498 109.9585 -6.1017 0.0000 0.0000 0.0000
# 3 -3.1385 -6.1017 53.8957 0.0000 0.0000 0.0000
# 4 0.0000 0.0000 0.0000 -71.5917 0.0000 0.0000
# 5 0.0000 0.0000 0.0000 0.0000 14.4364 0.0000
# 6 0.0000 0.0000 0.0000 0.0000 0.0000 20.6665
#
#
#
# Elastic Compliance Matrix: (Units=1/GPa)
#
#
# Indices 1 2 3 4 5 6 
#
# 1 0.012477 -0.001666 0.000538 0.000000 0.000000 0.000000
# 2 -0.001666 0.009374 0.000964 0.000000 0.000000 0.000000
# 3 0.000538 0.000964 0.018695 0.000000 0.000000 0.000000
# 4 0.000000 0.000000 0.000000 -0.013968 0.000000 0.000000
# 5 0.000000 0.000000 0.000000 0.000000 0.069269 0.000000
# 6 0.000000 0.000000 0.000000 0.000000 0.000000 0.048387
#
#
# Mechanical properties :
#
#
# Convention : Reuss Voigt Hill
#
# Bulk Modulus (GPa) = 24.86488 28.61716 26.74102
# Shear Modulus (GPa) = 31.65177 8.73063 20.19120
#
# Velocity S-wave (km/s) = 3.85482 2.02455 3.07883
# Velocity P-wave (km/s) = 5.61126 4.34741 5.01927
#
# Compressibility (1/GPa) = 0.04021737
#
# Stress axis : x y z
#
# Youngs Moduli (GPa) = 80.14882 106.67333 53.49072
#
# Poissons Ratio (x) = 0.17777 -0.02877
# Poissons Ratio (y) = 0.13357 -0.05158
# Poissons Ratio (z) = -0.04311 -0.10286
#
# Static dielectric constant tensor:
#      x y z
#    x 1.749350 0.000000 0.000000 
#    y 0.000000 1.767400 0.000000 
#    z 0.000000 0.000000 1.787180 
# 
# From -- ./inp_files/18232.got.cif
#   From: 2010.05.17/outbox.cif.g08.bks.cpg/sg67_10_cif.got.tgz:18232.got - 2010.06.03 18:28:57.
