data_PCOD9503234
_publ_section_title
;
Structure prediction by ZEFSAII (Michael W. Deem and Ramdas Pophale) SiO2 
 PCOD9503234
Probable space group: C M M A
;
_chemical_formula_sum "Si O2"
_cell_formula_units_Z 120
_cell_length_a 26.174557
_cell_length_b 20.075607
_cell_length_c 10.221857
_cell_angle_alpha 90.000000
_cell_angle_beta 90.000000
_cell_angle_gamma 90.000000
_cell_volume 5371.280422
_symmetry_space_group_name_H-M "C M M A"
_symmetry_group_IT_number 67
_symmetry_cell_setting 'orthorhombic'
loop_
_space_group_symop_operation_xyz
x,y,z
-x,1/2-y,z
x,-y,-z
-x,1/2+y,-z
-x,-y,-z
x,1/2+y,-z
-x,y,z
x,1/2-y,z
1/2+x,1/2+y,z
1/2-x,-y,z
1/2+x,1/2-y,-z
1/2-x,y,-z
1/2-x,1/2-y,-z
1/2+x,y,-z
1/2-x,1/2+y,z
1/2+x,-y,z
loop_
_atom_site_type_symbol
_atom_site_label
_atom_site_fract_x
_atom_site_fract_y
_atom_site_fract_z
Si Si1 0.442987 0.420000 0.003278
Si Si2 0.942220 0.632542 0.430687
Si Si3 0.588912 0.609055 0.279475
Si Si4 0.850814 0.826601 0.055954
Si Si5 0.311778 0.826381 0.228826
Si Si6 0.131792 0.524182 0.352427
Si Si7 0.642812 0.250000 0.427437
Si Si8 0.792017 0.360619 0.685321
O O1 0.500000 0.409620 0.058306
O O2 0.441996 0.391000 0.854455
O O3 0.434007 0.500000 0.000000
O O4 0.397423 0.378311 0.070048
O O5 0.940915 0.611696 0.584849
O O6 0.918895 0.570059 0.352323
O O7 0.902086 0.691988 0.414583
O O8 0.000000 0.648887 0.393889
O O9 0.631480 0.666709 0.286834
O O10 0.621946 0.541346 0.269684
O O11 0.869640 0.750000 0.042242
O O12 0.813908 0.828998 0.179765
O O13 0.819963 0.843604 0.923783
O O14 0.295273 0.750000 0.237760
O O15 0.268393 0.867466 0.301109
O O16 0.138157 0.500000 0.500000
O O17 0.180030 0.568994 0.321325
O O18 0.687032 0.309547 0.422865
#
# Coordination Sequence:
#
# PCOD9503234 Si02
#       8
#    16  16  16  16  16  16   8  16
#     4  10  21  37  57  84 118 156 198 243 299 369
#     4  10  21  38  60  83 112 150 196 245 295 350
#     4  10  21  38  58  82 116 149 196 245 291 351
#     4  10  20  36  60  88 121 152 200 253 299 365
#     4  10  21  36  58  90 115 154 200 240 294 367
#     4   9  21  38  57  85 115 151 197 249 292 348
#     4  10  21  36  56  88 116 142 193 242 289 346
#     4  11  19  38  63  82 120 158 191 244 308 354
#
# _framework density 22.34104
#
# number of rings (size 3 to 8) (size 9 to 14) (size 15 to 20)
#    0.000    2.000    1.333    1.800    0.933    4.800 
#    0.000   13.333    0.000    2.400    0.000    0.000 
#    0.000    0.000    0.000    0.000    0.000    0.000 
#
# Total GULP energy -334268.038275 kJ/mol
# GULP energy per Si atom -5571.133971 kJ/mol
# Density = 2.229019 g / cm^3
# Si number density = 22.341040 Si / 1000 Ang^3
#
#
#
# Elastic Constant Matrix: (Units=GPa)
#
#
# Indices 1 2 3 4 5 6 
#
# 1 130.0739 27.6509 11.0838 0.0000 0.0000 0.0000
# 2 27.6509 76.1098 -8.0353 0.0000 0.0000 0.0000
# 3 11.0838 -8.0353 41.0916 0.0000 0.0000 0.0000
# 4 0.0000 0.0000 0.0000 2.1837 0.0000 0.0000
# 5 0.0000 0.0000 0.0000 0.0000 13.6117 0.0000
# 6 0.0000 0.0000 0.0000 0.0000 0.0000 11.7361
#
#
#
# Elastic Compliance Matrix: (Units=1/GPa)
#
#
# Indices 1 2 3 4 5 6 
#
# 1 0.008684 -0.003474 -0.003022 0.000000 0.000000 0.000000
# 2 -0.003474 0.014806 0.003832 0.000000 0.000000 0.000000
# 3 -0.003022 0.003832 0.025900 0.000000 0.000000 0.000000
# 4 0.000000 0.000000 0.000000 0.457936 0.000000 0.000000
# 5 0.000000 0.000000 0.000000 0.000000 0.073466 0.000000
# 6 0.000000 0.000000 0.000000 0.000000 0.000000 0.085207
#
#
# Mechanical properties :
#
#
# Convention : Reuss Voigt Hill
#
# Bulk Modulus (GPa) = 22.69472 34.29710 28.49591
# Shear Modulus (GPa) = 7.28848 19.94470 13.61659
#
# Velocity S-wave (km/s) = 1.80816 2.99111 2.47146
# Velocity P-wave (km/s) = 3.81309 5.22628 4.57458
#
# Compressibility (1/GPa) = 0.04406311
#
# Stress axis : x y z
#
# Youngs Moduli (GPa) = 115.15581 67.54211 38.60961
#
# Poissons Ratio (x) = 0.23463 0.11666
# Poissons Ratio (y) = 0.40004 -0.14796
# Poissons Ratio (z) = 0.34796 -0.25884
#
# Static dielectric constant tensor:
#      x y z
#    x 1.786880 0.000000 0.000000 
#    y 0.000000 1.967230 0.000000 
#    z 0.000000 0.000000 1.913500 
# 
# From -- ./inp_files/22216.got.cif
#   From: 2010.05.17/outbox.cif.g08.bks.cpg/sg67_12_cif.got.tgz:22216.got - 2010.06.03 18:28:57.
