data_PCOD9503698
_publ_section_title
;
Structure prediction by ZEFSAII (Michael W. Deem and Ramdas Pophale) SiO2 
 PCOD9503698
Probable space group: C M M A
;
_chemical_formula_sum "Si O2"
_cell_formula_units_Z 116
_cell_length_a 8.109455
_cell_length_b 30.036401
_cell_length_c 22.992144
_cell_angle_alpha 90.000000
_cell_angle_beta 90.000000
_cell_angle_gamma 90.000000
_cell_volume 5600.399817
_symmetry_space_group_name_H-M "C M M A"
_symmetry_group_IT_number 67
_symmetry_cell_setting 'orthorhombic'
loop_
_space_group_symop_operation_xyz
x,y,z
-x,1/2-y,z
x,-y,-z
-x,1/2+y,-z
-x,-y,-z
x,1/2+y,-z
-x,y,z
x,1/2-y,z
1/2+x,1/2+y,z
1/2-x,-y,z
1/2+x,1/2-y,-z
1/2-x,y,-z
1/2-x,1/2-y,-z
1/2+x,y,-z
1/2-x,1/2+y,z
1/2+x,-y,z
loop_
_atom_site_type_symbol
_atom_site_label
_atom_site_fract_x
_atom_site_fract_y
_atom_site_fract_z
Si Si1 0.700793 0.104147 0.214018
Si Si2 0.311246 0.082282 0.085645
Si Si3 0.250000 0.500000 0.000000
Si Si4 0.806596 0.298308 0.814099
Si Si5 0.199169 0.105572 0.566810
Si Si6 0.698965 0.702785 0.567823
Si Si7 0.311681 0.177426 0.937846
Si Si8 0.300855 0.550350 0.674440
O O1 0.500000 0.105886 0.216597
O O2 0.738507 0.078322 0.153605
O O3 0.762603 0.155133 0.210265
O O4 0.760084 0.079417 0.271280
O O5 0.500000 0.098881 0.084616
O O6 0.203379 0.123317 0.062408
O O7 0.309746 0.037379 0.047464
O O8 0.735332 0.250000 0.797423
O O9 0.790352 0.304384 0.883558
O O10 0.000000 0.297463 0.798635
O O11 0.250000 0.098826 0.500000
O O12 0.255947 0.154565 0.588832
O O13 0.258804 0.069410 0.612703
O O14 0.000000 0.105752 0.567116
O O15 0.500000 0.702952 0.571452
O O16 0.758331 0.750000 0.593521
O O17 0.750000 0.703180 0.500000
O O18 0.500000 0.189975 0.928514
O O19 0.250000 0.193283 0.000000
O O20 0.500000 0.553071 0.674233
O O21 0.250000 0.500000 0.682328
#
# Coordination Sequence:
#
# PCOD9503698 Si02
#       8
#    16  16   4  16  16  16  16  16
#     4   8  17  36  57  76 105 141 174 217 265 316
#     4  10  21  36  52  75 109 142 177 224 276 329
#     4  12  22  28  56  86 108 136 176 224 282 332
#     4   9  18  35  59  82 105 136 173 215 269 328
#     4   9  18  32  51  77 108 142 175 220 269 312
#     4   8  13  23  41  66  97 131 165 200 246 304
#     4  11  21  34  52  74 106 143 178 219 268 321
#     4  10  21  37  56  77 105 140 182 224 265 315
#
# _framework density 20.712807000000002
#
# number of rings (size 3 to 8) (size 9 to 14) (size 15 to 20)
#    0.000    2.621    0.690    2.276    0.966    1.931 
#    0.000    4.828    0.000    4.138    0.000    0.000 
#    0.000    7.724    0.000    0.000    0.000    0.000 
#
# Total GULP energy -322955.994880 kJ/mol
# GULP energy per Si atom -5568.206808 kJ/mol
# Density = 2.066566 g / cm^3
# Si number density = 20.712807 Si / 1000 Ang^3
#
#
#
# Elastic Constant Matrix: (Units=GPa)
#
#
# Indices 1 2 3 4 5 6 
#
# 1 14.8606 7.1753 4.8855 0.0000 0.0000 0.0000
# 2 7.1753 154.0313 75.2148 0.0000 0.0000 0.0000
# 3 4.8855 75.2148 111.9153 0.0000 0.0000 0.0000
# 4 0.0000 0.0000 0.0000 66.8354 0.0000 0.0000
# 5 0.0000 0.0000 0.0000 0.0000 12.3497 0.0000
# 6 0.0000 0.0000 0.0000 0.0000 0.0000 12.1960
#
#
#
# Elastic Compliance Matrix: (Units=1/GPa)
#
#
# Indices 1 2 3 4 5 6 
#
# 1 0.068961 -0.002594 -0.001267 0.000000 0.000000 0.000000
# 2 -0.002594 0.009761 -0.006447 0.000000 0.000000 0.000000
# 3 -0.001267 -0.006447 0.013323 0.000000 0.000000 0.000000
# 4 0.000000 0.000000 0.000000 0.014962 0.000000 0.000000
# 5 0.000000 0.000000 0.000000 0.000000 0.080974 0.000000
# 6 0.000000 0.000000 0.000000 0.000000 0.000000 0.081994
#
#
# Mechanical properties :
#
#
# Convention : Reuss Voigt Hill
#
# Bulk Modulus (GPa) = 13.99974 50.59538 32.29756
# Shear Modulus (GPa) = 15.90327 31.17834 23.54081
#
# Velocity S-wave (km/s) = 2.77392 3.88399 3.37491
# Velocity P-wave (km/s) = 4.12713 6.67787 5.55100
#
# Compressibility (1/GPa) = 0.07142988
#
# Stress axis : x y z
#
# Youngs Moduli (GPa) = 14.50095 102.44767 75.05589
#
# Poissons Ratio (x) = 0.26571 0.09512
# Poissons Ratio (y) = 0.03761 0.48388
# Poissons Ratio (z) = 0.01838 0.66047
#
# Static dielectric constant tensor:
#      x y z
#    x 3.088930 0.000000 0.000000 
#    y 0.000000 1.781690 0.000000 
#    z 0.000000 0.000000 1.713660 
# 
# From -- ./inp_files/41236.got.cif
#   From: 2010.05.17/outbox.cif.g08.bks.cpg/sg67_21_cif.got.tgz:41236.got - 2010.06.03 18:28:57.
