data_PCOD9503325
_publ_section_title
;
Structure prediction by ZEFSAII (Michael W. Deem and Ramdas Pophale) SiO2 
 PCOD9503325
Probable space group: C M M A
;
_chemical_formula_sum "Si O2"
_cell_formula_units_Z 72
_cell_length_a 8.579791
_cell_length_b 15.316781
_cell_length_c 26.897433
_cell_angle_alpha 90.000000
_cell_angle_beta 90.000000
_cell_angle_gamma 90.000000
_cell_volume 3534.720234
_symmetry_space_group_name_H-M "C M M A"
_symmetry_group_IT_number 67
_symmetry_cell_setting 'orthorhombic'
loop_
_space_group_symop_operation_xyz
x,y,z
-x,1/2-y,z
x,-y,-z
-x,1/2+y,-z
-x,-y,-z
x,1/2+y,-z
-x,y,z
x,1/2-y,z
1/2+x,1/2+y,z
1/2-x,-y,z
1/2+x,1/2-y,-z
1/2-x,y,-z
1/2-x,1/2-y,-z
1/2+x,y,-z
1/2-x,1/2+y,z
1/2+x,-y,z
loop_
_atom_site_type_symbol
_atom_site_label
_atom_site_fract_x
_atom_site_fract_y
_atom_site_fract_z
Si Si1 0.810811 0.098397 0.841935
Si Si2 0.813190 0.901309 0.630204
Si Si3 0.174193 0.854207 0.050433
Si Si4 0.188129 0.250000 0.444314
Si Si5 0.812363 0.400174 0.734571
O O1 0.751900 0.132517 0.895171
O O2 0.765966 0.139118 0.788392
O O3 0.000000 0.102927 0.842811
O O4 0.750000 0.000000 0.840185
O O5 0.762836 0.835961 0.586562
O O6 0.755514 0.864168 0.683386
O O7 0.000000 0.905587 0.631357
O O8 0.750000 0.000000 0.623942
O O9 0.163932 0.750000 0.044742
O O10 0.000000 0.891285 0.052579
O O11 0.250000 0.888826 0.000000
O O12 0.250000 0.250000 0.500000
O O13 0.000000 0.250000 0.445415
O O14 0.750000 0.500000 0.735294
O O15 0.000000 0.400384 0.731547
#
# Coordination Sequence:
#
# PCOD9503325 Si02
#       5
#    16  16  16   8  16
#     4   9  18  31  48  72  99 127 161 206 257 305
#     4  10  20  37  59  84 114 150 186 226 275 324
#     4   9  18  33  49  64  89 125 164 207 252 303
#     4  10  24  42  60  84 118 152 187 230 273 318
#     4   9  16  29  50  77 104 136 172 210 259 316
#
# _framework density 20.369363
#
# number of rings (size 3 to 8) (size 9 to 14) (size 15 to 20)
#    0.000    2.667    0.000    2.667    0.000    4.444 
#    2.000    4.444    0.000    0.000    0.000    0.000 
#    0.000    0.000    0.000    0.000    0.000    0.000 
#
# Total GULP energy -200478.906467 kJ/mol
# GULP energy per Si atom -5568.858513 kJ/mol
# Density = 2.032300 g / cm^3
# Si number density = 20.369363 Si / 1000 Ang^3
#
#
#
# Elastic Constant Matrix: (Units=GPa)
#
#
# Indices 1 2 3 4 5 6 
#
# 1 31.1608 13.4771 44.3987 0.0000 0.0000 0.0000
# 2 13.4771 58.3323 59.7672 0.0000 0.0000 0.0000
# 3 44.3987 59.7672 255.9802 0.0000 0.0000 0.0000
# 4 0.0000 0.0000 0.0000 34.0999 0.0000 0.0000
# 5 0.0000 0.0000 0.0000 0.0000 32.9226 0.0000
# 6 0.0000 0.0000 0.0000 0.0000 0.0000 7.3302
#
#
#
# Elastic Compliance Matrix: (Units=1/GPa)
#
#
# Indices 1 2 3 4 5 6 
#
# 1 0.043026 -0.003016 -0.006758 0.000000 0.000000 0.000000
# 2 -0.003016 0.022745 -0.004788 0.000000 0.000000 0.000000
# 3 -0.006758 -0.004788 0.006197 0.000000 0.000000 0.000000
# 4 0.000000 0.000000 0.000000 0.029326 0.000000 0.000000
# 5 0.000000 0.000000 0.000000 0.000000 0.030374 0.000000
# 6 0.000000 0.000000 0.000000 0.000000 0.000000 0.136422
#
#
# Mechanical properties :
#
#
# Convention : Reuss Voigt Hill
#
# Bulk Modulus (GPa) = 23.34068 64.52879 43.93474
# Shear Modulus (GPa) = 16.05167 30.05925 23.05546
#
# Velocity S-wave (km/s) = 2.81023 3.84566 3.36798
# Velocity P-wave (km/s) = 4.69185 7.17405 6.06137
#
# Compressibility (1/GPa) = 0.04284365
#
# Stress axis : x y z
#
# Youngs Moduli (GPa) = 23.24197 43.96519 161.37910
#
# Poissons Ratio (x) = 0.13260 1.09067
# Poissons Ratio (y) = 0.07010 0.77261
# Poissons Ratio (z) = 0.15708 0.21049
#
# Static dielectric constant tensor:
#      x y z
#    x 1.729740 0.000000 0.000000 
#    y 0.000000 1.778990 0.000000 
#    z 0.000000 0.000000 1.792920 
# 
# From -- ./inp_files/40479.got.cif
#   From: 2010.05.17/outbox.cif.g08.bks.cpg/sg67_21_cif.got.tgz:40479.got - 2010.06.03 18:28:57.
