data_PCOD9503665
_publ_section_title
;
Structure prediction by ZEFSAII (Michael W. Deem and Ramdas Pophale) SiO2 
 PCOD9503665
Probable space group: C M M A
;
_chemical_formula_sum "Si O2"
_cell_formula_units_Z 64
_cell_length_a 16.793567
_cell_length_b 22.437914
_cell_length_c 7.734675
_cell_angle_alpha 90.000000
_cell_angle_beta 90.000000
_cell_angle_gamma 90.000000
_cell_volume 2914.523090
_symmetry_space_group_name_H-M "C M M A"
_symmetry_group_IT_number 67
_symmetry_cell_setting 'orthorhombic'
loop_
_space_group_symop_operation_xyz
x,y,z
-x,1/2-y,z
x,-y,-z
-x,1/2+y,-z
-x,-y,-z
x,1/2+y,-z
-x,y,z
x,1/2-y,z
1/2+x,1/2+y,z
1/2-x,-y,z
1/2+x,1/2-y,-z
1/2-x,y,-z
1/2-x,1/2-y,-z
1/2+x,y,-z
1/2-x,1/2+y,z
1/2+x,-y,z
loop_
_atom_site_type_symbol
_atom_site_label
_atom_site_fract_x
_atom_site_fract_y
_atom_site_fract_z
Si Si1 0.658835 0.436765 0.945153
Si Si2 0.404869 0.313625 0.922829
Si Si3 0.844862 0.815164 0.524474
Si Si4 0.408499 0.065877 0.576185
O O1 0.621590 0.374938 0.010876
O O2 0.649617 0.435201 0.739383
O O3 0.621185 0.500000 0.000000
O O4 0.750000 0.436947 0.000000
O O5 0.500000 0.314148 0.909130
O O6 0.380039 0.250000 0.003498
O O7 0.368926 0.313639 0.728169
O O8 0.870948 0.750000 0.454012
O O9 0.750000 0.819090 0.500000
O O10 0.884206 0.876969 0.461055
O O11 0.500000 0.075629 0.633826
O O12 0.404287 0.000000 0.500000
#
# Coordination Sequence:
#
# PCOD9503665 Si02
#       4
#    16  16  16  16
#     4  10  21  35  54  84 114 144 181 226 279 328
#     4   9  18  34  55  77 104 142 185 225 269 325
#     4   9  17  29  50  80 109 139 178 225 274 323
#     4  10  22  39  59  82 110 148 189 228 273 328
#
# _framework density 21.958997
#
# number of rings (size 3 to 8) (size 9 to 14) (size 15 to 20)
#    0.000    2.500    0.000    3.000    0.000   12.500 
#    0.000    0.000    0.000    1.500    0.000    0.000 
#    0.000    0.000    0.000    0.000    0.000    0.000 
#
# Total GULP energy -178293.852684 kJ/mol
# GULP energy per Si atom -5571.682896 kJ/mol
# Density = 2.190902 g / cm^3
# Si number density = 21.958997 Si / 1000 Ang^3
#
#
#
# Elastic Constant Matrix: (Units=GPa)
#
#
# Indices 1 2 3 4 5 6 
#
# 1 98.7824 43.8578 21.2079 0.0000 0.0000 0.0000
# 2 43.8578 279.5830 13.4134 0.0000 0.0000 0.0000
# 3 21.2079 13.4134 33.2609 0.0000 0.0000 0.0000
# 4 0.0000 0.0000 0.0000 16.7886 0.0000 0.0000
# 5 0.0000 0.0000 0.0000 0.0000 22.3159 0.0000
# 6 0.0000 0.0000 0.0000 0.0000 0.0000 39.0282
#
#
#
# Elastic Compliance Matrix: (Units=1/GPa)
#
#
# Indices 1 2 3 4 5 6 
#
# 1 0.012390 -0.001595 -0.007256 0.000000 0.000000 0.000000
# 2 -0.001595 0.003853 -0.000536 0.000000 0.000000 0.000000
# 3 -0.007256 -0.000536 0.034909 0.000000 0.000000 0.000000
# 4 0.000000 0.000000 0.000000 0.059564 0.000000 0.000000
# 5 0.000000 0.000000 0.000000 0.000000 0.044811 0.000000
# 6 0.000000 0.000000 0.000000 0.000000 0.000000 0.025623
#
#
# Mechanical properties :
#
#
# Convention : Reuss Voigt Hill
#
# Bulk Modulus (GPa) = 30.88882 63.17606 47.03244
# Shear Modulus (GPa) = 23.72855 37.83636 30.78245
#
# Velocity S-wave (km/s) = 3.29079 4.15546 3.74814
# Velocity P-wave (km/s) = 5.34193 7.20113 6.34005
#
# Compressibility (1/GPa) = 0.03237417
#
# Stress axis : x y z
#
# Youngs Moduli (GPa) = 80.71350 259.55425 28.64629
#
# Poissons Ratio (x) = 0.41409 0.20787
# Poissons Ratio (y) = 0.12877 0.01537
# Poissons Ratio (z) = 0.58569 0.13924
#
# Static dielectric constant tensor:
#      x y z
#    x 1.747470 0.000000 0.000000 
#    y 0.000000 1.973560 0.000000 
#    z 0.000000 0.000000 1.829310 
# 
# From -- ./inp_files/7976.got.cif
#   From: 2010.05.17/outbox.cif.g08.bks.cpg/sg67_4_cif.got.tgz:7976.got - 2010.06.03 18:28:57.
