data_PCOD9503394
_publ_section_title
;
Structure prediction by ZEFSAII (Michael W. Deem and Ramdas Pophale) SiO2 
 PCOD9503394
Probable space group: C M M A
;
_chemical_formula_sum "Si O2"
_cell_formula_units_Z 80
_cell_length_a 15.002144
_cell_length_b 23.460430
_cell_length_c 10.826695
_cell_angle_alpha 90.000000
_cell_angle_beta 90.000000
_cell_angle_gamma 90.000000
_cell_volume 3810.528376
_symmetry_space_group_name_H-M "C M M A"
_symmetry_group_IT_number 67
_symmetry_cell_setting 'orthorhombic'
loop_
_space_group_symop_operation_xyz
x,y,z
-x,1/2-y,z
x,-y,-z
-x,1/2+y,-z
-x,-y,-z
x,1/2+y,-z
-x,y,z
x,1/2-y,z
1/2+x,1/2+y,z
1/2-x,-y,z
1/2+x,1/2-y,-z
1/2-x,y,-z
1/2-x,1/2-y,-z
1/2+x,y,-z
1/2-x,1/2+y,z
1/2+x,-y,z
loop_
_atom_site_type_symbol
_atom_site_label
_atom_site_fract_x
_atom_site_fract_y
_atom_site_fract_z
Si Si1 0.665400 0.107337 0.796039
Si Si2 0.815184 0.379325 0.612345
Si Si3 0.394562 0.014964 0.308230
Si Si4 0.000000 0.684309 0.720135
Si Si5 0.000000 0.184554 0.577086
Si Si6 0.900597 0.434326 0.957455
O O1 0.754858 0.129596 0.733640
O O2 0.644422 0.046275 0.729130
O O3 0.586183 0.150285 0.765218
O O4 0.661999 0.095660 0.942593
O O5 0.750000 0.362042 0.500000
O O6 0.843597 0.445893 0.593961
O O7 0.908676 0.346157 0.616756
O O8 0.500000 0.008632 0.334569
O O9 0.384601 0.055810 0.186796
O O10 0.000000 0.750000 0.760595
O O11 0.000000 0.683080 0.571670
O O12 0.000000 0.250000 0.618592
O O13 0.000000 0.409647 0.972919
O O14 0.903440 0.500000 0.000000
#
# Coordination Sequence:
#
# PCOD9503394 Si02
#       6
#    16  16  16   8   8  16
#     4  11  20  37  62  96 131 165 208 261 319 381
#     4  12  25  40  62  95 124 162 209 264 327 374
#     4  10  20  37  62  92 135 173 201 249 322 397
#     4  11  22  39  63  91 123 163 218 281 320 367
#     4  11  26  49  66  83 120 171 227 270 315 380
#     4   8  15  31  59  90 124 169 206 238 297 377
#
# _framework density 20.994464000000001
#
# number of rings (size 3 to 8) (size 9 to 14) (size 15 to 20)
#    0.000    1.600    5.000    1.800    0.000    3.600 
#    0.000    5.000    0.000    2.400    0.000    2.800 
#    0.000    0.000    0.000    0.000    0.000    0.000 
#
# Total GULP energy -223295.565458 kJ/mol
# GULP energy per Si atom -5582.389136 kJ/mol
# Density = 2.094668 g / cm^3
# Si number density = 20.994464 Si / 1000 Ang^3
#
#
#
# Elastic Constant Matrix: (Units=GPa)
#
#
# Indices 1 2 3 4 5 6 
#
# 1 176.4719 69.9342 43.8670 0.0000 0.0000 0.0000
# 2 69.9342 120.7392 21.4950 0.0000 0.0000 0.0000
# 3 43.8670 21.4950 47.9767 0.0000 0.0000 0.0000
# 4 0.0000 0.0000 0.0000 20.8439 0.0000 0.0000
# 5 0.0000 0.0000 0.0000 0.0000 31.3934 0.0000
# 6 0.0000 0.0000 0.0000 0.0000 0.0000 -9.6354
#
#
#
# Elastic Compliance Matrix: (Units=1/GPa)
#
#
# Indices 1 2 3 4 5 6 
#
# 1 0.008802 -0.003983 -0.006264 0.000000 0.000000 0.000000
# 2 -0.003983 0.010803 -0.001198 0.000000 0.000000 0.000000
# 3 -0.006264 -0.001198 0.027107 0.000000 0.000000 0.000000
# 4 0.000000 0.000000 0.000000 0.047976 0.000000 0.000000
# 5 0.000000 0.000000 0.000000 0.000000 0.031854 0.000000
# 6 0.000000 0.000000 0.000000 0.000000 0.000000 -0.103784
#
#
# Mechanical properties :
#
#
# Convention : Reuss Voigt Hill
#
# Bulk Modulus (GPa) = 41.97684 68.42003 55.19844
# Shear Modulus (GPa) = 93.30491 22.51316 57.90903
#
# Velocity S-wave (km/s) = 6.67376 3.27821 5.25765
# Velocity P-wave (km/s) = 8.91197 6.85487 7.95023
#
# Compressibility (1/GPa) = 0.02382266
#
# Stress axis : x y z
#
# Youngs Moduli (GPa) = 113.60900 92.56909 36.89062
#
# Poissons Ratio (x) = 0.36873 0.23106
# Poissons Ratio (y) = 0.45253 0.04419
# Poissons Ratio (z) = 0.71159 0.11089
#
# Static dielectric constant tensor:
#      x y z
#    x 1.790620 0.000000 0.000000 
#    y 0.000000 1.715820 0.000000 
#    z 0.000000 0.000000 1.870950 
# 
# From -- ./inp_files/18269.got.cif
#   From: 2010.05.17/outbox.cif.g08.bks.cpg/sg67_10_cif.got.tgz:18269.got - 2010.06.03 18:28:57.
