data_PCOD9503203
_publ_section_title
;
Structure prediction by ZEFSAII (Michael W. Deem and Ramdas Pophale) SiO2 
 PCOD9503203
Probable space group: C M M A
;
_chemical_formula_sum "Si O2"
_cell_formula_units_Z 80
_cell_length_a 14.866153
_cell_length_b 18.004685
_cell_length_c 15.006375
_cell_angle_alpha 90.000000
_cell_angle_beta 90.000000
_cell_angle_gamma 90.000000
_cell_volume 4016.612364
_symmetry_space_group_name_H-M "C M M A"
_symmetry_group_IT_number 67
_symmetry_cell_setting 'orthorhombic'
loop_
_space_group_symop_operation_xyz
x,y,z
-x,1/2-y,z
x,-y,-z
-x,1/2+y,-z
-x,-y,-z
x,1/2+y,-z
-x,y,z
x,1/2-y,z
1/2+x,1/2+y,z
1/2-x,-y,z
1/2+x,1/2-y,-z
1/2-x,y,-z
1/2-x,1/2-y,-z
1/2+x,y,-z
1/2-x,1/2+y,z
1/2+x,-y,z
loop_
_atom_site_type_symbol
_atom_site_label
_atom_site_fract_x
_atom_site_fract_y
_atom_site_fract_z
Si Si1 0.740335 0.334181 0.647331
Si Si2 0.856902 0.012940 0.099841
Si Si3 0.399136 0.438501 0.281952
Si Si4 0.397059 0.831492 0.187218
Si Si5 0.103155 0.062482 0.425292
O O1 0.765306 0.250000 0.623773
O O2 0.824891 0.383082 0.679116
O O3 0.672855 0.331519 0.732077
O O4 0.678561 0.374955 0.574067
O O5 0.878272 0.097397 0.126938
O O6 0.750000 0.000000 0.099816
O O7 0.891569 0.958137 0.177572
O O8 0.891002 0.000000 0.000000
O O9 0.500000 0.411866 0.302338
O O10 0.387304 0.516874 0.333081
O O11 0.500000 0.837525 0.220635
O O12 0.389172 0.750000 0.142353
O O13 0.000000 0.089572 0.433548
O O14 0.117313 0.000000 0.500000
#
# Coordination Sequence:
#
# PCOD9503203 Si02
#       5
#    16  16  16  16  16
#     4  11  22  38  61  90 124 161 202 252 311 371
#     4  11  21  37  61  91 121 164 213 257 312 380
#     4  11  22  39  60  84 121 164 209 258 307 365
#     4  10  20  36  59  87 118 151 195 255 312 360
#     4  10  21  39  65  94 121 155 200 252 307 364
#
# _framework density 19.917282
#
# number of rings (size 3 to 8) (size 9 to 14) (size 15 to 20)
#    0.000    1.400    4.000    1.800    0.000    4.800 
#    0.000    5.000    0.000    3.600    0.000    0.000 
#    0.000    0.000    0.000    0.000    0.000    0.000 
#
# Total GULP energy -223451.602242 kJ/mol
# GULP energy per Si atom -5586.290056 kJ/mol
# Density = 1.987195 g / cm^3
# Si number density = 19.917282 Si / 1000 Ang^3
#
#
#
# Elastic Constant Matrix: (Units=GPa)
#
#
# Indices 1 2 3 4 5 6 
#
# 1 139.1322 76.2412 10.3853 0.0000 0.0000 0.0000
# 2 76.2412 136.6580 18.6742 0.0000 0.0000 0.0000
# 3 10.3853 18.6742 61.4724 0.0000 0.0000 0.0000
# 4 0.0000 0.0000 0.0000 23.2431 0.0000 0.0000
# 5 0.0000 0.0000 0.0000 0.0000 14.4778 0.0000
# 6 0.0000 0.0000 0.0000 0.0000 0.0000 22.7411
#
#
#
# Elastic Compliance Matrix: (Units=1/GPa)
#
#
# Indices 1 2 3 4 5 6 
#
# 1 0.010352 -0.005776 0.000006 0.000000 0.000000 0.000000
# 2 -0.005776 0.010857 -0.002322 0.000000 0.000000 0.000000
# 3 0.000006 -0.002322 0.016972 0.000000 0.000000 0.000000
# 4 0.000000 0.000000 0.000000 0.043023 0.000000 0.000000
# 5 0.000000 0.000000 0.000000 0.000000 0.069071 0.000000
# 6 0.000000 0.000000 0.000000 0.000000 0.000000 0.043973
#
#
# Mechanical properties :
#
#
# Convention : Reuss Voigt Hill
#
# Bulk Modulus (GPa) = 45.46311 60.87377 53.16844
# Shear Modulus (GPa) = 22.96026 27.55653 25.25840
#
# Velocity S-wave (km/s) = 3.39895 3.72364 3.56499
# Velocity P-wave (km/s) = 6.18703 7.00835 6.61046
#
# Compressibility (1/GPa) = 0.02199585
#
# Stress axis : x y z
#
# Youngs Moduli (GPa) = 96.59730 92.10238 58.92059
#
# Poissons Ratio (x) = 0.53201 -0.00034
# Poissons Ratio (y) = 0.55797 0.13684
# Poissons Ratio (z) = -0.00056 0.21390
#
# Static dielectric constant tensor:
#      x y z
#    x 1.703990 0.000000 0.000000 
#    y 0.000000 1.706050 0.000000 
#    z 0.000000 0.000000 1.738390 
# 
# From -- ./inp_files/33566.got.cif
#   From: 2010.05.17/outbox.cif.g08.bks.cpg/sg67_17_cif.got.tgz:33566.got - 2010.06.03 18:28:57.
