data_PCOD9503763
_publ_section_title
;
Structure prediction by ZEFSAII (Michael W. Deem and Ramdas Pophale) SiO2 
 PCOD9503763
Probable space group: C M M A
;
_chemical_formula_sum "Si O2"
_cell_formula_units_Z 96
_cell_length_a 14.219704
_cell_length_b 15.773464
_cell_length_c 21.212426
_cell_angle_alpha 90.000000
_cell_angle_beta 90.000000
_cell_angle_gamma 90.000000
_cell_volume 4757.819647
_symmetry_space_group_name_H-M "C M M A"
_symmetry_group_IT_number 67
_symmetry_cell_setting 'orthorhombic'
loop_
_space_group_symop_operation_xyz
x,y,z
-x,1/2-y,z
x,-y,-z
-x,1/2+y,-z
-x,-y,-z
x,1/2+y,-z
-x,y,z
x,1/2-y,z
1/2+x,1/2+y,z
1/2-x,-y,z
1/2+x,1/2-y,-z
1/2-x,y,-z
1/2-x,1/2-y,-z
1/2+x,y,-z
1/2-x,1/2+y,z
1/2+x,-y,z
loop_
_atom_site_type_symbol
_atom_site_label
_atom_site_fract_x
_atom_site_fract_y
_atom_site_fract_z
Si Si1 0.393340 0.066624 0.133843
Si Si2 0.109520 0.654044 0.011220
Si Si3 0.389922 0.998268 0.575807
Si Si4 0.753195 0.645792 0.622837
Si Si5 0.234525 0.842334 0.228439
Si Si6 0.392740 0.366651 0.871023
O O1 0.500000 0.100859 0.138717
O O2 0.332785 0.092839 0.193401
O O3 0.396636 0.967042 0.130979
O O4 0.351484 0.097368 0.067123
O O5 0.112020 0.750000 0.034844
O O6 0.147292 0.655001 0.940282
O O7 0.000000 0.626975 0.002831
O O8 0.500000 0.995980 0.594256
O O9 0.339813 0.085978 0.599048
O O10 0.383561 0.000000 0.500000
O O11 0.335236 0.912546 0.598928
O O12 0.753373 0.750000 0.606993
O O13 0.753308 0.640817 0.698687
O O14 0.188161 0.750000 0.223770
O O15 0.328643 0.839821 0.186790
O O16 0.500000 0.336214 0.866211
#
# Coordination Sequence:
#
# PCOD9503763 Si02
#       6
#    16  16  16  16  16  16
#     4  10  21  36  56  80 108 146 194 249 305 361
#     4   9  17  32  53  76 106 143 187 246 309 362
#     4  10  23  43  70 103 135 170 215 262 309 369
#     4  10  23  42  65  96 138 179 214 261 316 374
#     4  11  24  39  56  83 117 154 199 242 291 361
#     4  10  21  36  56  80 108 146 194 249 305 361
#
# _framework density 20.177309999999999
#
# number of rings (size 3 to 8) (size 9 to 14) (size 15 to 20)
#    0.000    2.000    0.000    3.000    4.667    8.000 
#    0.000    8.333    0.000    0.000    0.000    0.000 
#    0.000    0.000    0.000    0.000    0.000    0.000 
#
# Total GULP energy -267579.599009 kJ/mol
# GULP energy per Si atom -5574.574979 kJ/mol
# Density = 2.013139 g / cm^3
# Si number density = 20.177310 Si / 1000 Ang^3
#
#
#
# Elastic Constant Matrix: (Units=GPa)
#
#
# Indices 1 2 3 4 5 6 
#
# 1 112.4510 57.4207 30.2846 0.0000 0.0000 0.0000
# 2 57.4207 158.9719 61.9578 0.0000 0.0000 0.0000
# 3 30.2846 61.9578 103.9857 0.0000 0.0000 0.0000
# 4 0.0000 0.0000 0.0000 58.5515 0.0000 0.0000
# 5 0.0000 0.0000 0.0000 0.0000 -90.8818 0.0000
# 6 0.0000 0.0000 0.0000 0.0000 0.0000 84.4838
#
#
#
# Elastic Compliance Matrix: (Units=1/GPa)
#
#
# Indices 1 2 3 4 5 6 
#
# 1 0.010998 -0.003548 -0.001089 0.000000 0.000000 0.000000
# 2 -0.003548 0.009338 -0.004530 0.000000 0.000000 0.000000
# 3 -0.001089 -0.004530 0.012633 0.000000 0.000000 0.000000
# 4 0.000000 0.000000 0.000000 0.017079 0.000000 0.000000
# 5 0.000000 0.000000 0.000000 0.000000 -0.011003 0.000000
# 6 0.000000 0.000000 0.000000 0.000000 0.000000 0.011837
#
#
# Mechanical properties :
#
#
# Convention : Reuss Voigt Hill
#
# Bulk Modulus (GPa) = 68.33418 74.97055 71.65237
# Shear Modulus (GPa) = 67.48253 25.48041 46.48147
#
# Velocity S-wave (km/s) = 5.78942 3.55748 4.80484
# Velocity P-wave (km/s) = 8.86737 7.35600 8.14681
#
# Compressibility (1/GPa) = 0.01463397
#
# Stress axis : x y z
#
# Youngs Moduli (GPa) = 90.92785 107.09398 79.15676
#
# Poissons Ratio (x) = 0.37997 0.08620
# Poissons Ratio (y) = 0.32261 0.35860
# Poissons Ratio (z) = 0.09902 0.48517
#
# Static dielectric constant tensor:
#      x y z
#    x 1.789230 0.000000 0.000000 
#    y 0.000000 1.727740 0.000000 
#    z 0.000000 0.000000 1.688240 
# 
# From -- ./inp_files/38399.got.cif
#   From: 2010.05.17/outbox.cif.g08.bks.cpg/sg67_20_cif.got.tgz:38399.got - 2010.06.03 18:28:57.
