data_PCOD9503871
_publ_section_title
;
Structure prediction by ZEFSAII (Michael W. Deem and Ramdas Pophale) SiO2 
 PCOD9503871
Probable space group: C M M A
;
_chemical_formula_sum "Si O2"
_cell_formula_units_Z 96
_cell_length_a 14.700431
_cell_length_b 15.276027
_cell_length_c 21.748139
_cell_angle_alpha 90.000000
_cell_angle_beta 90.000000
_cell_angle_gamma 90.000000
_cell_volume 4883.853020
_symmetry_space_group_name_H-M "C M M A"
_symmetry_group_IT_number 67
_symmetry_cell_setting 'orthorhombic'
loop_
_space_group_symop_operation_xyz
x,y,z
-x,1/2-y,z
x,-y,-z
-x,1/2+y,-z
-x,-y,-z
x,1/2+y,-z
-x,y,z
x,1/2-y,z
1/2+x,1/2+y,z
1/2-x,-y,z
1/2+x,1/2-y,-z
1/2-x,y,-z
1/2-x,1/2-y,-z
1/2+x,y,-z
1/2-x,1/2+y,z
1/2+x,-y,z
loop_
_atom_site_type_symbol
_atom_site_label
_atom_site_fract_x
_atom_site_fract_y
_atom_site_fract_z
Si Si1 0.392856 0.349614 0.828650
Si Si2 0.610715 0.648356 0.500000
Si Si3 0.610858 0.000000 0.404618
Si Si4 0.250000 0.394866 0.070115
Si Si5 0.110571 0.000000 0.264284
Si Si6 0.392856 0.650386 0.828650
O O1 0.500000 0.364558 0.839968
O O2 0.380265 0.250000 0.808276
O O3 0.336630 0.364761 0.890547
O O4 0.362236 0.416138 0.775817
O O5 0.500000 0.651139 0.500000
O O6 0.641058 0.750000 0.500000
O O7 0.637973 0.587702 0.558165
O O8 0.637973 0.587702 0.441835
O O9 0.500000 0.000000 0.405025
O O10 0.641982 0.000000 0.334368
O O11 0.250000 0.500000 0.069361
O O12 0.336631 0.364762 0.109453
O O13 0.250000 0.363290 0.000000
O O14 0.137764 0.916138 0.224183
O O15 0.000000 0.000000 0.266823
O O16 0.500000 0.635443 0.839967
O O17 0.380263 0.750000 0.808275
#
# Coordination Sequence:
#
# PCOD9503871 Si02
#       6
#    16  16  16  16  16  16
#     4  10  21  37  57  81 110 144 182 227 276 325
#     4   8  13  21  34  57  91 130 173 218 262 310
#     4   8  14  23  37  59  91 133 175 217 264 312
#     4  11  23  39  61  84 109 145 182 222 275 329
#     4   9  17  31  48  70 103 140 182 226 270 324
#     4  10  21  37  57  81 110 144 182 227 276 325
#
# _framework density 19.656611999999999
#
# number of rings (size 3 to 8) (size 9 to 14) (size 15 to 20)
#    0.000    2.667    1.667    1.500    0.000    3.333 
#    0.000   10.000    0.000    0.000    0.000    0.000 
#    0.000   10.667    0.000   20.000    0.000   51.333 
#
# Total GULP energy -267881.241935 kJ/mol
# GULP energy per Si atom -5580.859207 kJ/mol
# Density = 1.961187 g / cm^3
# Si number density = 19.656612 Si / 1000 Ang^3
#
#
#
# Elastic Constant Matrix: (Units=GPa)
#
#
# Indices 1 2 3 4 5 6 
#
# 1 75.1237 42.6512 44.8060 0.0000 0.0000 0.0000
# 2 42.6512 175.4792 106.3297 0.0000 0.0000 0.0000
# 3 44.8060 106.3297 216.4137 0.0000 0.0000 0.0000
# 4 0.0000 0.0000 0.0000 -15.9292 0.0000 0.0000
# 5 0.0000 0.0000 0.0000 0.0000 70.0076 0.0000
# 6 0.0000 0.0000 0.0000 0.0000 0.0000 22.1251
#
#
#
# Elastic Compliance Matrix: (Units=1/GPa)
#
#
# Indices 1 2 3 4 5 6 
#
# 1 0.016028 -0.002684 -0.002000 0.000000 0.000000 0.000000
# 2 -0.002684 0.008564 -0.003652 0.000000 0.000000 0.000000
# 3 -0.002000 -0.003652 0.006829 0.000000 0.000000 0.000000
# 4 0.000000 0.000000 0.000000 -0.062778 0.000000 0.000000
# 5 0.000000 0.000000 0.000000 0.000000 0.014284 0.000000
# 6 0.000000 0.000000 0.000000 0.000000 0.000000 0.045197
#
#
# Mechanical properties :
#
#
# Convention : Reuss Voigt Hill
#
# Bulk Modulus (GPa) = 67.79845 94.95449 81.37647
# Shear Modulus (GPa) = 100.57779 33.45601 67.01690
#
# Velocity S-wave (km/s) = 7.16090 4.13003 5.84533
# Velocity P-wave (km/s) = 10.14582 8.43531 9.32985
#
# Compressibility (1/GPa) = 0.01474960
#
# Stress axis : x y z
#
# Youngs Moduli (GPa) = 62.39135 116.76895 146.43192
#
# Poissons Ratio (x) = 0.31340 0.29282
# Poissons Ratio (y) = 0.16746 0.53477
# Poissons Ratio (z) = 0.12476 0.42644
#
# Static dielectric constant tensor:
#      x y z
#    x 1.752740 0.000000 0.000000 
#    y 0.000000 1.681020 0.000000 
#    z 0.000000 0.000000 1.647950 
# 
# From -- ./inp_files/38433.got.cif
#   From: 2010.05.17/outbox.cif.g08.bks.cpg/sg67_20_cif.got.tgz:38433.got - 2010.06.03 18:28:57.
