data_PCOD9503050
_publ_section_title
;
Structure prediction by ZEFSAII (Michael W. Deem and Ramdas Pophale) SiO2 
 PCOD9503050
Probable space group: C M M A
;
_chemical_formula_sum "Si O2"
_cell_formula_units_Z 88
_cell_length_a 24.962218
_cell_length_b 14.476771
_cell_length_c 12.146101
_cell_angle_alpha 90.000000
_cell_angle_beta 90.000000
_cell_angle_gamma 90.000000
_cell_volume 4389.264620
_symmetry_space_group_name_H-M "C M M A"
_symmetry_group_IT_number 67
_symmetry_cell_setting 'orthorhombic'
loop_
_space_group_symop_operation_xyz
x,y,z
-x,1/2-y,z
x,-y,-z
-x,1/2+y,-z
-x,-y,-z
x,1/2+y,-z
-x,y,z
x,1/2-y,z
1/2+x,1/2+y,z
1/2-x,-y,z
1/2+x,1/2-y,-z
1/2-x,y,-z
1/2-x,1/2-y,-z
1/2+x,y,-z
1/2-x,1/2+y,z
1/2+x,-y,z
loop_
_atom_site_type_symbol
_atom_site_label
_atom_site_fract_x
_atom_site_fract_y
_atom_site_fract_z
Si Si1 0.058837 0.639923 0.257577
Si Si2 0.250000 0.500000 0.282484
Si Si3 0.368162 0.506223 0.370748
Si Si4 0.597023 0.138217 0.022477
Si Si5 0.711698 0.856181 0.894869
Si Si6 0.562674 0.638709 0.221325
O O1 0.065787 0.750000 0.269706
O O2 0.106516 0.584956 0.314605
O O3 0.059970 0.619103 0.127026
O O4 0.000000 0.614444 0.302076
O O5 0.304649 0.514817 0.349629
O O6 0.262510 0.414446 0.202021
O O7 0.378810 0.500000 0.500000
O O8 0.399650 0.588773 0.309401
O O9 0.600094 0.250000 0.012816
O O10 0.655311 0.105179 0.061398
O O11 0.578728 0.106513 0.902424
O O12 0.703457 0.750000 0.859404
O O13 0.750000 0.856761 0.000000
O O14 0.500000 0.617563 0.239540
O O15 0.568822 0.750000 0.226726
#
# Coordination Sequence:
#
# PCOD9503050 Si02
#       6
#    16   8  16  16  16  16
#     4  10  21  40  67  95 123 158 201 255 317 377
#     4  12  24  42  64  84 122 167 215 262 314 358
#     4  12  27  44  62  87 121 168 224 269 306 358
#     4   9  17  35  62  95 129 155 191 245 308 382
#     4  10  20  35  60  93 127 161 197 243 307 381
#     4  10  22  41  66  97 132 166 201 250 315 382
#
# _framework density 20.048915999999998
#
# number of rings (size 3 to 8) (size 9 to 14) (size 15 to 20)
#    0.000    1.636    1.818    2.727    0.000    7.273 
#    0.000    3.636    0.000    3.273    0.000    0.000 
#    0.000    0.000    0.000    0.000    0.000    0.000 
#
# Total GULP energy -245867.851490 kJ/mol
# GULP energy per Si atom -5587.905716 kJ/mol
# Density = 2.000328 g / cm^3
# Si number density = 20.048916 Si / 1000 Ang^3
#
#
#
# Elastic Constant Matrix: (Units=GPa)
#
#
# Indices 1 2 3 4 5 6 
#
# 1 164.5343 38.9957 58.3846 0.0000 0.0000 0.0000
# 2 38.9957 83.3703 38.4535 0.0000 0.0000 0.0000
# 3 58.3846 38.4535 141.7455 0.0000 0.0000 0.0000
# 4 0.0000 0.0000 0.0000 16.5608 0.0000 0.0000
# 5 0.0000 0.0000 0.0000 0.0000 10.1164 0.0000
# 6 0.0000 0.0000 0.0000 0.0000 0.0000 22.8655
#
#
#
# Elastic Compliance Matrix: (Units=1/GPa)
#
#
# Indices 1 2 3 4 5 6 
#
# 1 0.007511 -0.002385 -0.002447 0.000000 0.000000 0.000000
# 2 -0.002385 0.014467 -0.002943 0.000000 0.000000 0.000000
# 3 -0.002447 -0.002943 0.008861 0.000000 0.000000 0.000000
# 4 0.000000 0.000000 0.000000 0.060384 0.000000 0.000000
# 5 0.000000 0.000000 0.000000 0.000000 0.098849 0.000000
# 6 0.000000 0.000000 0.000000 0.000000 0.000000 0.043734
#
#
# Mechanical properties :
#
#
# Convention : Reuss Voigt Hill
#
# Bulk Modulus (GPa) = 65.39667 73.47973 69.43820
# Shear Modulus (GPa) = 19.65009 26.82963 23.23986
#
# Velocity S-wave (km/s) = 3.13406 3.66212 3.40833
# Velocity P-wave (km/s) = 6.76652 7.38995 7.08509
#
# Compressibility (1/GPa) = 0.01529130
#
# Stress axis : x y z
#
# Youngs Moduli (GPa) = 133.13393 69.12136 112.85353
#
# Poissons Ratio (x) = 0.16483 0.27614
# Poissons Ratio (y) = 0.31748 0.33207
# Poissons Ratio (z) = 0.32577 0.20339
#
# Static dielectric constant tensor:
#      x y z
#    x 1.740030 0.000000 0.000000 
#    y 0.000000 1.746460 0.000000 
#    z 0.000000 0.000000 1.668750 
# 
# From -- ./inp_files/18077.got.cif
#   From: 2010.05.17/outbox.cif.g08.bks.cpg/sg67_10_cif.got.tgz:18077.got - 2010.06.03 18:28:57.
