data_PCOD9503385
_publ_section_title
;
Structure prediction by ZEFSAII (Michael W. Deem and Ramdas Pophale) SiO2 
 PCOD9503385
Probable space group: C M M A
;
_chemical_formula_sum "Si O2"
_cell_formula_units_Z 48
_cell_length_a 17.446416
_cell_length_b 15.757701
_cell_length_c 7.549174
_cell_angle_alpha 90.000000
_cell_angle_beta 90.000000
_cell_angle_gamma 90.000000
_cell_volume 2075.384242
_symmetry_space_group_name_H-M "C M M A"
_symmetry_group_IT_number 67
_symmetry_cell_setting 'orthorhombic'
loop_
_space_group_symop_operation_xyz
x,y,z
-x,1/2-y,z
x,-y,-z
-x,1/2+y,-z
-x,-y,-z
x,1/2+y,-z
-x,y,z
x,1/2-y,z
1/2+x,1/2+y,z
1/2-x,-y,z
1/2+x,1/2-y,-z
1/2-x,y,-z
1/2-x,1/2-y,-z
1/2+x,y,-z
1/2-x,1/2+y,z
1/2+x,-y,z
loop_
_atom_site_type_symbol
_atom_site_label
_atom_site_fract_x
_atom_site_fract_y
_atom_site_fract_z
Si Si1 0.585018 0.852643 0.517905
Si Si2 0.702878 0.087110 0.765100
Si Si3 0.144079 0.845776 0.113194
O O1 0.500000 0.874367 0.452196
O O2 0.593974 0.750000 0.508310
O O3 0.651672 0.895240 0.404495
O O4 0.592323 0.876162 0.724649
O O5 0.770623 0.154538 0.800422
O O6 0.750000 0.000000 0.757520
O O7 0.650187 0.096979 0.939397
O O8 0.122090 0.750000 0.061941
#
# Coordination Sequence:
#
# PCOD9503385 Si02
#       3
#    16  16  16
#     4  10  22  40  64  95 128 165 211 262 318 379
#     4  11  22  37  61  91 125 165 209 259 318 379
#     4  10  20  37  62  89 119 164 221 270 308 359
#
# _framework density 23.128247999999999
#
# number of rings (size 3 to 8) (size 9 to 14) (size 15 to 20)
#    0.000    1.667    0.000    7.000    0.000    8.000 
#    0.000    6.667    0.000   12.000    0.000    0.000 
#    0.000    0.000    0.000    0.000    0.000    0.000 
#
# Total GULP energy -134212.569263 kJ/mol
# GULP energy per Si atom -5592.190386 kJ/mol
# Density = 2.307561 g / cm^3
# Si number density = 23.128248 Si / 1000 Ang^3
#
#
#
# Elastic Constant Matrix: (Units=GPa)
#
#
# Indices 1 2 3 4 5 6 
#
# 1 63.3725 21.6766 46.7106 0.0000 0.0000 0.0000
# 2 21.6766 90.0453 49.4026 0.0000 0.0000 0.0000
# 3 46.7106 49.4026 132.3982 0.0000 0.0000 0.0000
# 4 0.0000 0.0000 0.0000 26.1367 0.0000 0.0000
# 5 0.0000 0.0000 0.0000 0.0000 22.6693 0.0000
# 6 0.0000 0.0000 0.0000 0.0000 0.0000 11.3461
#
#
#
# Elastic Compliance Matrix: (Units=1/GPa)
#
#
# Indices 1 2 3 4 5 6 
#
# 1 0.021440 -0.001272 -0.007090 0.000000 0.000000 0.000000
# 2 -0.001272 0.014040 -0.004790 0.000000 0.000000 0.000000
# 3 -0.007090 -0.004790 0.011842 0.000000 0.000000 0.000000
# 4 0.000000 0.000000 0.000000 0.038260 0.000000 0.000000
# 5 0.000000 0.000000 0.000000 0.000000 0.044113 0.000000
# 6 0.000000 0.000000 0.000000 0.000000 0.000000 0.088136
#
#
# Mechanical properties :
#
#
# Convention : Reuss Voigt Hill
#
# Bulk Modulus (GPa) = 47.57650 57.93285 52.75467
# Shear Modulus (GPa) = 19.90923 23.23216 21.57069
#
# Velocity S-wave (km/s) = 2.93715 3.17281 3.05725
# Velocity P-wave (km/s) = 5.66726 6.20687 5.94319
#
# Compressibility (1/GPa) = 0.02101878
#
# Stress axis : x y z
#
# Youngs Moduli (GPa) = 46.64089 71.22667 84.44773
#
# Poissons Ratio (x) = 0.09057 0.59872
# Poissons Ratio (y) = 0.05931 0.40451
# Poissons Ratio (z) = 0.33067 0.34118
#
# Static dielectric constant tensor:
#      x y z
#    x 1.846230 0.000000 0.000000 
#    y 0.000000 1.917970 0.000000 
#    z 0.000000 0.000000 1.890290 
# 
# From -- ./inp_files/8813.got.cif
#   From: 2010.05.17/outbox.cif.g08.bks.cpg/sg67_5_cif.got.tgz:8813.got - 2010.06.03 18:28:57.
