data_PCOD9503064
_publ_section_title
;
Structure prediction by ZEFSAII (Michael W. Deem and Ramdas Pophale) SiO2 
 PCOD9503064
Probable space group: C M M A
;
_chemical_formula_sum "Si O2"
_cell_formula_units_Z 88
_cell_length_a 11.180971
_cell_length_b 20.021356
_cell_length_c 19.089686
_cell_angle_alpha 90.000000
_cell_angle_beta 90.000000
_cell_angle_gamma 90.000000
_cell_volume 4273.382762
_symmetry_space_group_name_H-M "C M M A"
_symmetry_group_IT_number 67
_symmetry_cell_setting 'orthorhombic'
loop_
_space_group_symop_operation_xyz
x,y,z
-x,1/2-y,z
x,-y,-z
-x,1/2+y,-z
-x,-y,-z
x,1/2+y,-z
-x,y,z
x,1/2-y,z
1/2+x,1/2+y,z
1/2-x,-y,z
1/2+x,1/2-y,-z
1/2-x,y,-z
1/2-x,1/2-y,-z
1/2+x,y,-z
1/2-x,1/2+y,z
1/2+x,-y,z
loop_
_atom_site_type_symbol
_atom_site_label
_atom_site_fract_x
_atom_site_fract_y
_atom_site_fract_z
Si Si1 0.864976 0.599978 0.551262
Si Si2 0.810183 0.823955 0.076237
Si Si3 0.631277 0.250000 0.545770
Si Si4 0.637198 0.955648 0.297191
Si Si5 0.375009 0.525448 0.919316
Si Si6 0.861467 0.677119 0.790920
O O1 0.750000 0.591661 0.500000
O O2 0.864268 0.676932 0.580124
O O3 0.856928 0.553786 0.618916
O O4 0.000000 0.590564 0.519367
O O5 0.867904 0.750000 0.082679
O O6 0.876452 0.894472 0.081290
O O7 0.714877 0.827771 0.138788
O O8 0.750000 0.825121 0.000000
O O9 0.500000 0.250000 0.508698
O O10 0.750000 0.250000 0.500000
O O11 0.500000 0.978300 0.281172
O O12 0.656613 0.884211 0.260557
O O13 0.750000 0.000000 0.275824
O O14 0.500000 0.499910 0.887423
O O15 0.250000 0.500000 0.888224
O O16 0.374453 0.500000 0.000000
O O17 0.835709 0.750000 0.757934
O O18 0.000000 0.676334 0.811344
#
# Coordination Sequence:
#
# PCOD9503064 Si02
#       6
#    16  16   8  16  16  16
#     4   9  18  32  55  87 120 155 196 247 299 350
#     4  10  20  36  58  87 118 148 188 245 304 356
#     4   8  14  26  46  78 114 146 185 234 290 342
#     4  10  22  40  61  87 122 163 204 246 297 356
#     4  10  20  36  54  79 114 150 186 227 282 348
#     4   9  20  39  64  90 116 153 203 252 299 356
#
# _framework density 20.592585
#
# number of rings (size 3 to 8) (size 9 to 14) (size 15 to 20)
#    0.000    2.545    1.818    0.000    1.273    3.636 
#    0.000    6.364    0.000    1.636    0.000    0.000 
#    0.000    0.000    0.000    0.000    0.000    0.000 
#
# Total GULP energy -244951.865313 kJ/mol
# GULP energy per Si atom -5567.087848 kJ/mol
# Density = 2.054572 g / cm^3
# Si number density = 20.592585 Si / 1000 Ang^3
#
#
#
# Elastic Constant Matrix: (Units=GPa)
#
#
# Indices 1 2 3 4 5 6 
#
# 1 189.9561 78.2106 52.7331 0.0000 0.0000 0.0000
# 2 78.2106 112.1159 16.9803 0.0000 0.0000 0.0000
# 3 52.7331 16.9803 70.0465 0.0000 0.0000 0.0000
# 4 0.0000 0.0000 0.0000 107.3377 0.0000 0.0000
# 5 0.0000 0.0000 0.0000 0.0000 34.1923 0.0000
# 6 0.0000 0.0000 0.0000 0.0000 0.0000 19.9023
#
#
#
# Elastic Compliance Matrix: (Units=1/GPa)
#
#
# Indices 1 2 3 4 5 6 
#
# 1 0.009040 -0.005476 -0.005478 0.000000 0.000000 0.000000
# 2 -0.005476 0.012577 0.001074 0.000000 0.000000 0.000000
# 3 -0.005478 0.001074 0.018140 0.000000 0.000000 0.000000
# 4 0.000000 0.000000 0.000000 0.009316 0.000000 0.000000
# 5 0.000000 0.000000 0.000000 0.000000 0.029246 0.000000
# 6 0.000000 0.000000 0.000000 0.000000 0.000000 0.050245
#
#
# Mechanical properties :
#
#
# Convention : Reuss Voigt Hill
#
# Bulk Modulus (GPa) = 50.01018 74.21849 62.11433
# Shear Modulus (GPa) = 32.25991 47.23275 39.74633
#
# Velocity S-wave (km/s) = 3.96230 4.79443 4.39809
# Velocity P-wave (km/s) = 6.72840 8.17119 7.48464
#
# Compressibility (1/GPa) = 0.01999593
#
# Stress axis : x y z
#
# Youngs Moduli (GPa) = 110.62045 79.51020 55.12727
#
# Poissons Ratio (x) = 0.43544 0.30198
# Poissons Ratio (y) = 0.60581 -0.05921
# Poissons Ratio (z) = 0.60597 -0.08539
#
# Static dielectric constant tensor:
#      x y z
#    x 1.724810 0.000000 0.000000 
#    y 0.000000 1.802870 0.000000 
#    z 0.000000 0.000000 1.691320 
# 
# From -- ./inp_files/32928.got.cif
#   From: 2010.05.17/outbox.cif.g08.bks.cpg/sg67_17_cif.got.tgz:32928.got - 2010.06.03 18:28:57.
