data_PCOD9503675
_publ_section_title
;
Structure prediction by ZEFSAII (Michael W. Deem and Ramdas Pophale) SiO2 
 PCOD9503675
Probable space group: C M M A
;
_chemical_formula_sum "Si O2"
_cell_formula_units_Z 128
_cell_length_a 22.513298
_cell_length_b 25.858115
_cell_length_c 10.061971
_cell_angle_alpha 90.000000
_cell_angle_beta 90.000000
_cell_angle_gamma 90.000000
_cell_volume 5857.590995
_symmetry_space_group_name_H-M "C M M A"
_symmetry_group_IT_number 67
_symmetry_cell_setting 'orthorhombic'
loop_
_space_group_symop_operation_xyz
x,y,z
-x,1/2-y,z
x,-y,-z
-x,1/2+y,-z
-x,-y,-z
x,1/2+y,-z
-x,y,z
x,1/2-y,z
1/2+x,1/2+y,z
1/2-x,-y,z
1/2+x,1/2-y,-z
1/2-x,y,-z
1/2-x,1/2-y,-z
1/2+x,y,-z
1/2-x,1/2+y,z
1/2+x,-y,z
loop_
_atom_site_type_symbol
_atom_site_label
_atom_site_fract_x
_atom_site_fract_y
_atom_site_fract_z
Si Si1 0.148137 0.978328 0.862675
Si Si2 0.931320 0.433889 0.730234
Si Si3 0.850372 0.653097 0.202664
Si Si4 0.934356 0.612041 0.847972
Si Si5 0.180495 0.808870 0.481547
Si Si6 0.067912 0.380552 0.456402
Si Si7 0.739736 0.902145 0.157894
Si Si8 0.842049 0.309487 0.096402
O O1 0.107099 0.930665 0.912912
O O2 0.201087 0.949085 0.787404
O O3 0.109319 0.019850 0.784932
O O4 0.172930 0.000000 0.000000
O O5 0.912067 0.377870 0.791065
O O6 0.924554 0.422818 0.572319
O O7 0.000000 0.445463 0.759090
O O8 0.836820 0.689926 0.325403
O O9 0.802848 0.606759 0.221653
O O10 0.838538 0.679904 0.062011
O O11 0.933694 0.597841 0.692254
O O12 0.906133 0.668496 0.862852
O O13 0.000000 0.609894 0.901271
O O14 0.177805 0.750000 0.532924
O O15 0.250000 0.826275 0.500000
O O16 0.125852 0.843163 0.538990
O O17 0.000000 0.357834 0.477736
O O18 0.703745 0.848152 0.168181
O O19 0.750000 0.908679 0.000000
O O20 0.831809 0.250000 0.125442
#
# Coordination Sequence:
#
# PCOD9503675 Si02
#       8
#    16  16  16  16  16  16  16  16
#     4  11  22  35  58  89 117 149 193 245 299 359
#     4  10  21  38  60  84 112 152 197 241 294 355
#     4  10  21  38  58  86 119 156 192 243 297 357
#     4  10  22  39  59  85 119 156 198 251 303 355
#     4  10  22  37  61  92 122 160 205 254 301 352
#     4   9  21  42  62  83 118 162 205 250 301 364
#     4   9  20  36  55  82 118 155 192 235 291 357
#     4  10  21  35  56  85 117 153 195 242 296 358
#
# _framework density 21.851987000000001
#
# number of rings (size 3 to 8) (size 9 to 14) (size 15 to 20)
#    0.000    2.125    0.000    3.000    3.500    8.500 
#    0.000    3.125    0.000    2.250    0.000    0.000 
#    0.000    0.000    0.000    0.000    0.000    0.000 
#
# Total GULP energy -357128.438781 kJ/mol
# GULP energy per Si atom -5580.131856 kJ/mol
# Density = 2.180225 g / cm^3
# Si number density = 21.851987 Si / 1000 Ang^3
#
#
#
# Elastic Constant Matrix: (Units=GPa)
#
#
# Indices 1 2 3 4 5 6 
#
# 1 87.9998 55.1846 -10.1639 0.0000 0.0000 0.0000
# 2 55.1846 117.3855 14.0128 0.0000 0.0000 0.0000
# 3 -10.1639 14.0128 47.1457 0.0000 0.0000 0.0000
# 4 0.0000 0.0000 0.0000 9.0441 0.0000 0.0000
# 5 0.0000 0.0000 0.0000 0.0000 24.0892 0.0000
# 6 0.0000 0.0000 0.0000 0.0000 0.0000 17.9289
#
#
#
# Elastic Compliance Matrix: (Units=1/GPa)
#
#
# Indices 1 2 3 4 5 6 
#
# 1 0.017894 -0.009199 0.006592 0.000000 0.000000 0.000000
# 2 -0.009199 0.013561 -0.006014 0.000000 0.000000 0.000000
# 3 0.006592 -0.006014 0.024419 0.000000 0.000000 0.000000
# 4 0.000000 0.000000 0.000000 0.110569 0.000000 0.000000
# 5 0.000000 0.000000 0.000000 0.000000 0.041512 0.000000
# 6 0.000000 0.000000 0.000000 0.000000 0.000000 0.055776
#
#
# Mechanical properties :
#
#
# Convention : Reuss Voigt Hill
#
# Bulk Modulus (GPa) = 25.88512 41.17756 33.53134
# Shear Modulus (GPa) = 17.01540 23.11227 20.06383
#
# Velocity S-wave (km/s) = 2.79349 3.25572 3.03342
# Velocity P-wave (km/s) = 4.71976 5.74610 5.25803
#
# Compressibility (1/GPa) = 0.03863223
#
# Stress axis : x y z
#
# Youngs Moduli (GPa) = 55.88570 73.73865 40.95102
#
# Poissons Ratio (x) = 0.67832 -0.26994
# Poissons Ratio (y) = 0.51409 0.24628
# Poissons Ratio (z) = -0.36839 0.44346
#
# Static dielectric constant tensor:
#      x y z
#    x 1.853700 0.000000 0.000000 
#    y 0.000000 1.795820 0.000000 
#    z 0.000000 0.000000 1.823150 
# 
# From -- ./inp_files/22326.got.cif
#   From: 2010.05.17/outbox.cif.g08.bks.cpg/sg67_12_cif.got.tgz:22326.got - 2010.06.03 18:28:57.
