data_PCOD9503386
_publ_section_title
;
Structure prediction by ZEFSAII (Michael W. Deem and Ramdas Pophale) SiO2 
 PCOD9503386
Probable space group: C M M A
;
_chemical_formula_sum "Si O2"
_cell_formula_units_Z 72
_cell_length_a 8.618198
_cell_length_b 16.466880
_cell_length_c 25.087079
_cell_angle_alpha 90.000000
_cell_angle_beta 90.000000
_cell_angle_gamma 90.000000
_cell_volume 3560.228609
_symmetry_space_group_name_H-M "C M M A"
_symmetry_group_IT_number 67
_symmetry_cell_setting 'orthorhombic'
loop_
_space_group_symop_operation_xyz
x,y,z
-x,1/2-y,z
x,-y,-z
-x,1/2+y,-z
-x,-y,-z
x,1/2+y,-z
-x,y,z
x,1/2-y,z
1/2+x,1/2+y,z
1/2-x,-y,z
1/2+x,1/2-y,-z
1/2-x,y,-z
1/2-x,1/2-y,-z
1/2+x,y,-z
1/2-x,1/2+y,z
1/2+x,-y,z
loop_
_atom_site_type_symbol
_atom_site_label
_atom_site_fract_x
_atom_site_fract_y
_atom_site_fract_z
Si Si1 0.814247 0.750000 0.440164
Si Si2 0.186496 0.345246 0.944477
Si Si3 0.183442 0.412680 0.384157
Si Si4 0.814554 0.843441 0.280866
Si Si5 0.313009 0.088543 0.168749
O O1 0.750000 0.750000 0.500000
O O2 0.755981 0.833338 0.412502
O O3 0.000000 0.750000 0.438982
O O4 0.228986 0.250000 0.942434
O O5 0.243926 0.384361 0.889552
O O6 0.000000 0.350560 0.945808
O O7 0.250000 0.379967 0.000000
O O8 0.250000 0.500000 0.401998
O O9 0.225058 0.400388 0.321773
O O10 0.000000 0.411915 0.392101
O O11 0.786000 0.750000 0.295582
O O12 0.770495 0.856319 0.219223
O O13 0.000000 0.858589 0.285916
O O14 0.500000 0.088458 0.166186
O O15 0.250000 0.000000 0.180459
#
# Coordination Sequence:
#
# PCOD9503386 Si02
#       5
#     8  16  16  16  16
#     4  12  26  48  74 104 140 180 225 274 325 382
#     4   9  18  34  54  74  99 135 184 237 294 361
#     4  12  25  43  68 101 138 179 224 273 327 386
#     4  10  20  37  62  89 121 162 207 257 318 381
#     4  10  21  35  52  78 111 149 192 242 300 368
#
# _framework density 20.223420999999998
#
# number of rings (size 3 to 8) (size 9 to 14) (size 15 to 20)
#    0.000    1.556    1.111    4.333    0.000    7.111 
#    0.000    4.444    0.000    4.000    0.000    0.000 
#    0.000    0.000    0.000    0.000    0.000    0.000 
#
# Total GULP energy -201098.703594 kJ/mol
# GULP energy per Si atom -5586.075100 kJ/mol
# Density = 2.017739 g / cm^3
# Si number density = 20.223421 Si / 1000 Ang^3
#
#
#
# Elastic Constant Matrix: (Units=GPa)
#
#
# Indices 1 2 3 4 5 6 
#
# 1 80.2670 57.5963 38.5989 0.0000 0.0000 0.0000
# 2 57.5963 119.8300 49.2647 0.0000 0.0000 0.0000
# 3 38.5989 49.2647 118.5381 0.0000 0.0000 0.0000
# 4 0.0000 0.0000 0.0000 18.1285 0.0000 0.0000
# 5 0.0000 0.0000 0.0000 0.0000 34.2421 0.0000
# 6 0.0000 0.0000 0.0000 0.0000 0.0000 27.5676
#
#
#
# Elastic Compliance Matrix: (Units=1/GPa)
#
#
# Indices 1 2 3 4 5 6 
#
# 1 0.019873 -0.008312 -0.003017 0.000000 0.000000 0.000000
# 2 -0.008312 0.013541 -0.002921 0.000000 0.000000 0.000000
# 3 -0.003017 -0.002921 0.010633 0.000000 0.000000 0.000000
# 4 0.000000 0.000000 0.000000 0.055162 0.000000 0.000000
# 5 0.000000 0.000000 0.000000 0.000000 0.029204 0.000000
# 6 0.000000 0.000000 0.000000 0.000000 0.000000 0.036274
#
#
# Mechanical properties :
#
#
# Convention : Reuss Voigt Hill
#
# Bulk Modulus (GPa) = 64.31977 67.72833 66.02405
# Shear Modulus (GPa) = 25.20547 27.53265 26.36906
#
# Velocity S-wave (km/s) = 3.53420 3.69375 3.61486
# Velocity P-wave (km/s) = 6.96618 7.19406 7.08104
#
# Compressibility (1/GPa) = 0.01554732
#
# Stress axis : x y z
#
# Youngs Moduli (GPa) = 50.31846 73.84854 94.05101
#
# Poissons Ratio (x) = 0.61382 0.28374
# Poissons Ratio (y) = 0.41824 0.27474
# Poissons Ratio (z) = 0.15180 0.21573
#
# Static dielectric constant tensor:
#      x y z
#    x 1.686980 0.000000 0.000000 
#    y 0.000000 1.710500 0.000000 
#    z 0.000000 0.000000 1.747320 
# 
# From -- ./inp_files/42124.got.cif
#   From: 2010.05.17/outbox.cif.g08.bks.cpg/sg67_22_cif.got.tgz:42124.got - 2010.06.03 18:28:57.
