data_PCOD9503668
_publ_section_title
;
Structure prediction by ZEFSAII (Michael W. Deem and Ramdas Pophale) SiO2 
 PCOD9503668
Probable space group: C M M A
;
_chemical_formula_sum "Si O2"
_cell_formula_units_Z 80
_cell_length_a 26.230153
_cell_length_b 18.355364
_cell_length_c 7.274396
_cell_angle_alpha 90.000000
_cell_angle_beta 90.000000
_cell_angle_gamma 90.000000
_cell_volume 3502.359840
_symmetry_space_group_name_H-M "C M M A"
_symmetry_group_IT_number 67
_symmetry_cell_setting 'orthorhombic'
loop_
_space_group_symop_operation_xyz
x,y,z
-x,1/2-y,z
x,-y,-z
-x,1/2+y,-z
-x,-y,-z
x,1/2+y,-z
-x,y,z
x,1/2-y,z
1/2+x,1/2+y,z
1/2-x,-y,z
1/2+x,1/2-y,-z
1/2-x,y,-z
1/2-x,1/2-y,-z
1/2+x,y,-z
1/2-x,1/2+y,z
1/2+x,-y,z
loop_
_atom_site_type_symbol
_atom_site_label
_atom_site_fract_x
_atom_site_fract_y
_atom_site_fract_z
Si Si1 0.295973 0.334761 0.737662
Si Si2 0.000000 0.834757 0.995011
Si Si3 0.814785 0.335454 0.706400
Si Si4 0.500000 0.034279 0.202957
Si Si5 0.601366 0.564401 0.607046
Si Si6 0.594623 0.338012 0.738548
O O1 0.292521 0.250000 0.790998
O O2 0.239681 0.363191 0.781787
O O3 0.305709 0.336056 0.516197
O O4 0.349784 0.363201 0.811470
O O5 0.950317 0.854346 0.878121
O O6 0.000000 0.750000 0.027732
O O7 0.000000 0.878598 0.180329
O O8 0.824286 0.250000 0.755874
O O9 0.861712 0.389472 0.739003
O O10 0.446488 0.022664 0.303161
O O11 0.500000 0.000000 0.000000
O O12 0.631244 0.500000 0.500000
O O13 0.584000 0.623280 0.454959
O O14 0.596615 0.250000 0.713533
#
# Coordination Sequence:
#
# PCOD9503668 Si02
#       6
#    16   8  16   8  16  16
#     4   7  11  23  47  76 109 138 156 189 256 318
#     4  10  21  35  55  81 108 137 175 217 257 300
#     4   8  14  27  48  79 109 130 158 206 260 308
#     4  12  26  41  52  67 104 147 176 211 264 322
#     4  11  21  34  55  77  98 132 179 221 257 302
#     4   9  17  33  56  83 110 135 166 211 257 305
#
# _framework density 22.841742
#
# number of rings (size 3 to 8) (size 9 to 14) (size 15 to 20)
#    0.000    2.800    0.000    5.100    0.000    1.600 
#    0.000    8.000    0.000    1.200    0.000    7.000 
#    0.000    0.000    0.000    0.000    0.000    0.000 
#
# Total GULP energy -223065.590028 kJ/mol
# GULP energy per Si atom -5576.639751 kJ/mol
# Density = 2.278975 g / cm^3
# Si number density = 22.841742 Si / 1000 Ang^3
#
#
#
# Elastic Constant Matrix: (Units=GPa)
#
#
# Indices 1 2 3 4 5 6 
#
# 1 156.9854 41.7824 13.3768 0.0000 0.0000 0.0000
# 2 41.7824 60.7743 22.3388 0.0000 0.0000 0.0000
# 3 13.3768 22.3388 47.4101 0.0000 0.0000 0.0000
# 4 0.0000 0.0000 0.0000 23.5682 0.0000 0.0000
# 5 0.0000 0.0000 0.0000 0.0000 -16.4979 0.0000
# 6 0.0000 0.0000 0.0000 0.0000 0.0000 6.5940
#
#
#
# Elastic Compliance Matrix: (Units=1/GPa)
#
#
# Indices 1 2 3 4 5 6 
#
# 1 0.007803 -0.005509 0.000394 0.000000 0.000000 0.000000
# 2 -0.005509 0.023791 -0.009655 0.000000 0.000000 0.000000
# 3 0.000394 -0.009655 0.025531 0.000000 0.000000 0.000000
# 4 0.000000 0.000000 0.000000 0.042430 0.000000 0.000000
# 5 0.000000 0.000000 0.000000 0.000000 -0.060614 0.000000
# 6 0.000000 0.000000 0.000000 0.000000 0.000000 0.151654
#
#
# Mechanical properties :
#
#
# Convention : Reuss Voigt Hill
#
# Bulk Modulus (GPa) = 36.25333 46.68508 41.46921
# Shear Modulus (GPa) = 21.80261 15.24431 18.52346
#
# Velocity S-wave (km/s) = 3.09286 2.58619 2.85080
# Velocity P-wave (km/s) = 5.35354 5.42224 5.38800
#
# Compressibility (1/GPa) = 0.02758367
#
# Stress axis : x y z
#
# Youngs Moduli (GPa) = 128.15977 42.03260 39.16849
#
# Poissons Ratio (x) = 0.23157 -0.01545
# Poissons Ratio (y) = 0.70608 0.37819
# Poissons Ratio (z) = -0.05054 0.40584
#
# Static dielectric constant tensor:
#      x y z
#    x 2.002340 0.000000 0.000000 
#    y 0.000000 1.832690 0.000000 
#    z 0.000000 0.000000 1.906330 
# 
# From -- ./inp_files/13576.got.cif
#   From: 2010.05.17/outbox.cif.g08.bks.cpg/sg67_7_cif.got.tgz:13576.got - 2010.06.03 18:28:57.
