data_PCOD9503147
_publ_section_title
;
Structure prediction by ZEFSAII (Michael W. Deem and Ramdas Pophale) SiO2 
 PCOD9503147
Probable space group: C M M A
;
_chemical_formula_sum "Si O2"
_cell_formula_units_Z 104
_cell_length_a 28.113964
_cell_length_b 9.073822
_cell_length_c 21.405129
_cell_angle_alpha 90.000000
_cell_angle_beta 90.000000
_cell_angle_gamma 90.000000
_cell_volume 5460.472062
_symmetry_space_group_name_H-M "C M M A"
_symmetry_group_IT_number 67
_symmetry_cell_setting 'orthorhombic'
loop_
_space_group_symop_operation_xyz
x,y,z
-x,1/2-y,z
x,-y,-z
-x,1/2+y,-z
-x,-y,-z
x,1/2+y,-z
-x,y,z
x,1/2-y,z
1/2+x,1/2+y,z
1/2-x,-y,z
1/2+x,1/2-y,-z
1/2-x,y,-z
1/2-x,1/2-y,-z
1/2+x,y,-z
1/2-x,1/2+y,z
1/2+x,-y,z
loop_
_atom_site_type_symbol
_atom_site_label
_atom_site_fract_x
_atom_site_fract_y
_atom_site_fract_z
Si Si1 0.125327 0.000000 0.000000
Si Si2 0.124843 0.927356 0.656939
Si Si3 0.554381 0.417665 0.107559
Si Si4 0.198133 0.927967 0.435470
Si Si5 0.125563 0.573124 0.802941
Si Si6 0.443102 0.419954 0.434940
Si Si7 0.298512 0.916943 0.100600
O O1 0.162232 0.916532 0.954590
O O2 0.088975 0.078673 0.952629
O O3 0.129555 0.750000 0.649947
O O4 0.124870 0.964128 0.730206
O O5 0.166394 0.013790 0.621079
O O6 0.078224 0.986861 0.621804
O O7 0.500000 0.463992 0.093236
O O8 0.552945 0.250000 0.130180
O O9 0.579765 0.515061 0.160015
O O10 0.200169 0.750000 0.439459
O O11 0.179246 0.000000 0.500000
O O12 0.250000 0.000000 0.427935
O O13 0.126268 0.750000 0.808365
O O14 0.172524 0.518173 0.840129
O O15 0.430857 0.500000 0.500000
O O16 0.500000 0.416438 0.430746
O O17 0.425554 0.250000 0.434522
O O18 0.284811 0.750000 0.114800
O O19 0.250000 0.000000 0.084618
#
# Coordination Sequence:
#
# PCOD9503147 Si02
#       7
#     8  16  16  16  16  16  16
#     4  10  20  36  58  84 116 148 182 222 272 332
#     4  11  22  38  59  82 111 149 192 235 283 340
#     4  10  21  37  59  86 114 146 186 232 279 327
#     4  11  22  38  59  85 116 149 188 235 288 343
#     4   9  22  41  57  78 111 150 190 229 274 334
#     4  10  21  37  57  83 114 147 186 233 285 340
#     4  10  21  37  57  81 110 144 182 224 271 323
#
# _framework density 19.045973
#
# number of rings (size 3 to 8) (size 9 to 14) (size 15 to 20)
#    0.000    1.846    0.000    4.154    0.000    8.000 
#    0.000    4.615    0.000    0.000    0.000    0.000 
#    0.000    0.000    0.000    0.000    0.000    0.000 
#
# Total GULP energy -290042.775550 kJ/mol
# GULP energy per Si atom -5577.745684 kJ/mol
# Density = 1.900262 g / cm^3
# Si number density = 19.045973 Si / 1000 Ang^3
#
#
#
# Elastic Constant Matrix: (Units=GPa)
#
#
# Indices 1 2 3 4 5 6 
#
# 1 136.1586 41.5883 54.6605 0.0000 0.0000 0.0000
# 2 41.5883 95.0483 50.8417 0.0000 0.0000 0.0000
# 3 54.6605 50.8417 144.6763 0.0000 0.0000 0.0000
# 4 0.0000 0.0000 0.0000 17.1450 0.0000 0.0000
# 5 0.0000 0.0000 0.0000 0.0000 25.8822 0.0000
# 6 0.0000 0.0000 0.0000 0.0000 0.0000 4.7668
#
#
#
# Elastic Compliance Matrix: (Units=1/GPa)
#
#
# Indices 1 2 3 4 5 6 
#
# 1 0.009173 -0.002660 -0.002531 0.000000 0.000000 0.000000
# 2 -0.002660 0.013728 -0.003819 0.000000 0.000000 0.000000
# 3 -0.002531 -0.003819 0.009210 0.000000 0.000000 0.000000
# 4 0.000000 0.000000 0.000000 0.058326 0.000000 0.000000
# 5 0.000000 0.000000 0.000000 0.000000 0.038637 0.000000
# 6 0.000000 0.000000 0.000000 0.000000 0.000000 0.209783
#
#
# Mechanical properties :
#
#
# Convention : Reuss Voigt Hill
#
# Bulk Modulus (GPa) = 70.96741 74.45159 72.70950
# Shear Modulus (GPa) = 13.82845 24.81165 19.32005
#
# Velocity S-wave (km/s) = 2.69747 3.61324 3.18840
# Velocity P-wave (km/s) = 6.85885 7.52215 7.19814
#
# Compressibility (1/GPa) = 0.01409097
#
# Stress axis : x y z
#
# Youngs Moduli (GPa) = 109.01795 72.84555 108.57357
#
# Poissons Ratio (x) = 0.19375 0.27479
# Poissons Ratio (y) = 0.28996 0.41467
# Poissons Ratio (z) = 0.27592 0.27822
#
# Static dielectric constant tensor:
#      x y z
#    x 1.685660 0.000000 0.000000 
#    y 0.000000 1.655890 0.000000 
#    z 0.000000 0.000000 1.652850 
# 
# From -- ./inp_files/39976.got.cif
#   From: 2010.05.17/outbox.cif.g08.bks.cpg/sg67_20_cif.got.tgz:39976.got - 2010.06.03 18:28:57.
