data_PCOD9503212
_publ_section_title
;
Structure prediction by ZEFSAII (Michael W. Deem and Ramdas Pophale) SiO2 
 PCOD9503212
Probable space group: C M M A
;
_chemical_formula_sum "Si O2"
_cell_formula_units_Z 88
_cell_length_a 24.072342
_cell_length_b 21.658425
_cell_length_c 7.305691
_cell_angle_alpha 90.000000
_cell_angle_beta 90.000000
_cell_angle_gamma 90.000000
_cell_volume 3808.960912
_symmetry_space_group_name_H-M "C M M A"
_symmetry_group_IT_number 67
_symmetry_cell_setting 'orthorhombic'
loop_
_space_group_symop_operation_xyz
x,y,z
-x,1/2-y,z
x,-y,-z
-x,1/2+y,-z
-x,-y,-z
x,1/2+y,-z
-x,y,z
x,1/2-y,z
1/2+x,1/2+y,z
1/2-x,-y,z
1/2+x,1/2-y,-z
1/2-x,y,-z
1/2-x,1/2-y,-z
1/2+x,y,-z
1/2-x,1/2+y,z
1/2+x,-y,z
loop_
_atom_site_type_symbol
_atom_site_label
_atom_site_fract_x
_atom_site_fract_y
_atom_site_fract_z
Si Si1 0.564055 0.349874 0.811649
Si Si2 0.350354 0.549615 0.236798
Si Si3 0.148870 0.250000 0.331387
Si Si4 0.343444 0.085570 0.340411
Si Si5 0.064885 0.818338 0.239777
Si Si6 0.234761 0.149924 0.194138
O O1 0.500000 0.350947 0.756935
O O2 0.591538 0.417675 0.810366
O O3 0.600791 0.304251 0.690276
O O4 0.567967 0.324067 0.019132
O O5 0.339622 0.563480 0.451494
O O6 0.347768 0.476282 0.217221
O O7 0.302634 0.590135 0.143037
O O8 0.197396 0.196046 0.311285
O O9 0.397559 0.127517 0.316099
O O10 0.290149 0.126120 0.290034
O O11 0.086905 0.750000 0.292054
O O12 0.000000 0.822713 0.289933
O O13 0.250000 0.180077 0.000000
#
# Coordination Sequence:
#
# PCOD9503212 Si02
#       6
#    16  16   8  16  16  16
#     4  10  20  39  66  91 123 162 206 257 308 365
#     4  10  24  42  60  93 124 171 209 249 312 370
#     4  10  20  36  59  92 122 156 203 246 309 368
#     4  11  23  42  64  85 133 168 205 257 307 368
#     4  10  22  40  64  93 123 161 206 256 314 366
#     4  11  23  37  62  94 125 161 210 258 310 366
#
# _framework density 23.103411999999999
#
# number of rings (size 3 to 8) (size 9 to 14) (size 15 to 20)
#    0.000    1.636    0.909    3.818    1.273    6.545 
#    6.545    7.273    0.000    0.000    0.000    0.000 
#    0.000    0.000    0.000    0.000    0.000    0.000 
#
# Total GULP energy -245352.389593 kJ/mol
# GULP energy per Si atom -5576.190673 kJ/mol
# Density = 2.305083 g / cm^3
# Si number density = 23.103412 Si / 1000 Ang^3
#
#
#
# Elastic Constant Matrix: (Units=GPa)
#
#
# Indices 1 2 3 4 5 6 
#
# 1 130.6737 66.5795 4.1182 0.0000 0.0000 0.0000
# 2 66.5795 151.2083 13.5976 0.0000 0.0000 0.0000
# 3 4.1182 13.5976 51.7234 0.0000 0.0000 0.0000
# 4 0.0000 0.0000 0.0000 25.3507 0.0000 0.0000
# 5 0.0000 0.0000 0.0000 0.0000 41.6784 0.0000
# 6 0.0000 0.0000 0.0000 0.0000 0.0000 -79.9688
#
#
#
# Elastic Compliance Matrix: (Units=1/GPa)
#
#
# Indices 1 2 3 4 5 6 
#
# 1 0.009873 -0.004380 0.000365 0.000000 0.000000 0.000000
# 2 -0.004380 0.008717 -0.001943 0.000000 0.000000 0.000000
# 3 0.000365 -0.001943 0.019815 0.000000 0.000000 0.000000
# 4 0.000000 0.000000 0.000000 0.039447 0.000000 0.000000
# 5 0.000000 0.000000 0.000000 0.000000 0.023993 0.000000
# 6 0.000000 0.000000 0.000000 0.000000 0.000000 -0.012505
#
#
# Mechanical properties :
#
#
# Convention : Reuss Voigt Hill
#
# Bulk Modulus (GPa) = 37.75023 55.79956 46.77490
# Shear Modulus (GPa) = 45.41964 14.03274 29.72619
#
# Velocity S-wave (km/s) = 4.43869 2.46720 3.59089
# Velocity P-wave (km/s) = 6.53027 5.68512 6.12230
#
# Compressibility (1/GPa) = 0.02648990
#
# Stress axis : x y z
#
# Youngs Moduli (GPa) = 101.28852 114.72242 50.46619
#
# Poissons Ratio (x) = 0.50249 -0.01844
# Poissons Ratio (y) = 0.44364 0.09805
# Poissons Ratio (z) = -0.03701 0.22288
#
# Static dielectric constant tensor:
#      x y z
#    x 1.819290 0.000000 0.000000 
#    y 0.000000 1.860140 0.000000 
#    z 0.000000 0.000000 2.015590 
# 
# From -- ./inp_files/12427.got.cif
#   From: 2010.05.17/outbox.cif.g08.bks.cpg/sg67_7_cif.got.tgz:12427.got - 2010.06.03 18:28:57.
