data_PCOD9503317
_publ_section_title
;
Structure prediction by ZEFSAII (Michael W. Deem and Ramdas Pophale) SiO2 
 PCOD9503317
Probable space group: C M M A
;
_chemical_formula_sum "Si O2"
_cell_formula_units_Z 88
_cell_length_a 15.880307
_cell_length_b 8.748725
_cell_length_c 31.403210
_cell_angle_alpha 90.000000
_cell_angle_beta 90.000000
_cell_angle_gamma 90.000000
_cell_volume 4362.924553
_symmetry_space_group_name_H-M "C M M A"
_symmetry_group_IT_number 67
_symmetry_cell_setting 'orthorhombic'
loop_
_space_group_symop_operation_xyz
x,y,z
-x,1/2-y,z
x,-y,-z
-x,1/2+y,-z
-x,-y,-z
x,1/2+y,-z
-x,y,z
x,1/2-y,z
1/2+x,1/2+y,z
1/2-x,-y,z
1/2+x,1/2-y,-z
1/2-x,y,-z
1/2-x,1/2-y,-z
1/2+x,y,-z
1/2-x,1/2+y,z
1/2+x,-y,z
loop_
_atom_site_type_symbol
_atom_site_label
_atom_site_fract_x
_atom_site_fract_y
_atom_site_fract_z
Si Si1 0.337823 0.565374 0.898221
Si Si2 0.345266 0.933157 0.635876
Si Si3 0.500000 0.065179 0.047272
Si Si4 0.344012 0.069152 0.721948
Si Si5 0.098141 0.573488 0.192041
Si Si6 0.654647 0.566890 0.542926
O O1 0.335984 0.750000 0.897763
O O2 0.250000 0.500000 0.914226
O O3 0.416803 0.517277 0.926827
O O4 0.352325 0.515435 0.849219
O O5 0.341359 0.750000 0.639341
O O6 0.383301 0.970971 0.589404
O O7 0.250000 0.000000 0.635145
O O8 0.384395 0.000471 0.678854
O O9 0.500000 0.250000 0.045664
O O10 0.500000 0.000000 0.000000
O O11 0.338998 0.250000 0.717726
O O12 0.250000 0.000000 0.725299
O O13 0.389188 0.021381 0.765275
O O14 0.123330 0.750000 0.200823
O O15 0.000000 0.574761 0.179978
O O16 0.614337 0.500000 0.500000
O O17 0.659018 0.750000 0.539386
O O18 0.750000 0.500000 0.544000
#
# Coordination Sequence:
#
# PCOD9503317 Si02
#       6
#    16  16   8  16  16  16
#     4  10  21  39  63  90 121 159 201 245 293 350
#     4   9  16  26  39  57  84 121 164 209 259 320
#     4  10  22  42  64  90 126 164 204 248 297 348
#     4  11  21  32  48  72 102 136 175 221 270 328
#     4  10  20  37  59  80 108 146 183 227 284 341
#     4   9  15  21  32  50  75 110 153 200 252 313
#
# _framework density 20.169957
#
# number of rings (size 3 to 8) (size 9 to 14) (size 15 to 20)
#    0.000    2.182    0.909    4.909    0.000    5.818 
#    0.000    1.818    0.000    0.000    0.000    0.000 
#    0.000    0.727    0.000    2.364    0.000    8.909 
#
# Total GULP energy -245518.046224 kJ/mol
# GULP energy per Si atom -5579.955596 kJ/mol
# Density = 2.012405 g / cm^3
# Si number density = 20.169957 Si / 1000 Ang^3
#
#
#
# Elastic Constant Matrix: (Units=GPa)
#
#
# Indices 1 2 3 4 5 6 
#
# 1 74.8435 16.0932 49.6401 0.0000 0.0000 0.0000
# 2 16.0932 72.5665 47.9923 0.0000 0.0000 0.0000
# 3 49.6401 47.9923 171.1530 0.0000 0.0000 0.0000
# 4 0.0000 0.0000 0.0000 29.2008 0.0000 0.0000
# 5 0.0000 0.0000 0.0000 0.0000 24.9010 0.0000
# 6 0.0000 0.0000 0.0000 0.0000 0.0000 15.4326
#
#
#
# Elastic Compliance Matrix: (Units=1/GPa)
#
#
# Indices 1 2 3 4 5 6 
#
# 1 0.016566 -0.000609 -0.004634 0.000000 0.000000 0.000000
# 2 -0.000609 0.016940 -0.004573 0.000000 0.000000 0.000000
# 3 -0.004634 -0.004573 0.008469 0.000000 0.000000 0.000000
# 4 0.000000 0.000000 0.000000 0.034246 0.000000 0.000000
# 5 0.000000 0.000000 0.000000 0.000000 0.040159 0.000000
# 6 0.000000 0.000000 0.000000 0.000000 0.000000 0.064798
#
#
# Mechanical properties :
#
#
# Convention : Reuss Voigt Hill
#
# Bulk Modulus (GPa) = 44.75858 60.66825 52.71342
# Shear Modulus (GPa) = 24.00872 27.56270 25.78571
#
# Velocity S-wave (km/s) = 3.45385 3.70066 3.57938
# Velocity P-wave (km/s) = 6.17611 6.95728 6.57830
#
# Compressibility (1/GPa) = 0.02234208
#
# Stress axis : x y z
#
# Youngs Moduli (GPa) = 60.36626 59.03097 118.07643
#
# Poissons Ratio (x) = 0.03596 0.54714
# Poissons Ratio (y) = 0.03678 0.54002
# Poissons Ratio (z) = 0.27972 0.26998
#
# Static dielectric constant tensor:
#      x y z
#    x 1.737790 0.000000 0.000000 
#    y 0.000000 1.680140 0.000000 
#    z 0.000000 0.000000 1.759410 
# 
# From -- ./inp_files/45782.got.cif
#   From: 2010.05.17/outbox.cif.g08.bks.cpg/sg67_23_cif.got.tgz:45782.got - 2010.06.03 18:28:57.
