data_PCOD9503616
_publ_section_title
;
Structure prediction by ZEFSAII (Michael W. Deem and Ramdas Pophale) SiO2 
 PCOD9503616
Probable space group: C M M A
;
_chemical_formula_sum "Si O2"
_cell_formula_units_Z 48
_cell_length_a 28.909271
_cell_length_b 8.253771
_cell_length_c 9.260166
_cell_angle_alpha 90.000000
_cell_angle_beta 90.000000
_cell_angle_gamma 90.000000
_cell_volume 2209.572864
_symmetry_space_group_name_H-M "C M M A"
_symmetry_group_IT_number 67
_symmetry_cell_setting 'orthorhombic'
loop_
_space_group_symop_operation_xyz
x,y,z
-x,1/2-y,z
x,-y,-z
-x,1/2+y,-z
-x,-y,-z
x,1/2+y,-z
-x,y,z
x,1/2-y,z
1/2+x,1/2+y,z
1/2-x,-y,z
1/2+x,1/2-y,-z
1/2-x,y,-z
1/2-x,1/2-y,-z
1/2+x,y,-z
1/2-x,1/2+y,z
1/2+x,-y,z
loop_
_atom_site_type_symbol
_atom_site_label
_atom_site_fract_x
_atom_site_fract_y
_atom_site_fract_z
Si Si1 0.554727 0.750000 0.963103
Si Si2 0.054669 0.250000 0.307640
Si Si3 0.397391 0.070816 0.279281
Si Si4 0.699928 0.556501 0.332642
O O1 0.500000 0.750000 0.938653
O O2 0.576804 0.603085 0.871986
O O3 0.562141 0.750000 0.133173
O O4 0.078570 0.417641 0.354260
O O5 0.000000 0.250000 0.339053
O O6 0.400235 0.250000 0.351170
O O7 0.343945 0.025386 0.257778
O O8 0.697205 0.500000 0.500000
O O9 0.696500 0.750000 0.325968
O O10 0.750000 0.500000 0.277481
#
# Coordination Sequence:
#
# PCOD9503616 Si02
#       4
#     8   8  16  16
#     4   9  20  36  58  83 116 152 192 235 272 324
#     4  11  20  36  58  85 114 154 196 231 276 326
#     4  10  21  34  55  87 117 145 185 238 279 325
#     4  11  21  38  62  87 111 143 186 232 280 340
#
# _framework density 21.723655000000001
#
# number of rings (size 3 to 8) (size 9 to 14) (size 15 to 20)
#    1.000    0.667    1.667    6.000    0.000    2.667 
#    0.000    0.000    0.000   12.000    0.000    0.000 
#    0.000    0.000    0.000    0.000    0.000    0.000 
#
# Total GULP energy -133954.337257 kJ/mol
# GULP energy per Si atom -5581.430719 kJ/mol
# Density = 2.167421 g / cm^3
# Si number density = 21.723655 Si / 1000 Ang^3
#
#
#
# Elastic Constant Matrix: (Units=GPa)
#
#
# Indices 1 2 3 4 5 6 
#
# 1 157.7517 82.9535 47.4043 0.0000 0.0000 0.0000
# 2 82.9535 235.7245 26.9002 0.0000 0.0000 0.0000
# 3 47.4043 26.9002 57.9421 0.0000 0.0000 0.0000
# 4 0.0000 0.0000 0.0000 30.1769 0.0000 0.0000
# 5 0.0000 0.0000 0.0000 0.0000 -798.0252 0.0000
# 6 0.0000 0.0000 0.0000 0.0000 0.0000 69.3994
#
#
#
# Elastic Compliance Matrix: (Units=1/GPa)
#
#
# Indices 1 2 3 4 5 6 
#
# 1 0.009772 -0.002668 -0.006756 0.000000 0.000000 0.000000
# 2 -0.002668 0.005208 -0.000235 0.000000 0.000000 0.000000
# 3 -0.006756 -0.000235 0.022895 0.000000 0.000000 0.000000
# 4 0.000000 0.000000 0.000000 0.033138 0.000000 0.000000
# 5 0.000000 0.000000 0.000000 0.000000 -0.001253 0.000000
# 6 0.000000 0.000000 0.000000 0.000000 0.000000 0.014409
#
#
# Mechanical properties :
#
#
# Convention : Reuss Voigt Hill
#
# Bulk Modulus (GPa) = 53.88886 85.10382 69.49634
# Shear Modulus (GPa) = 45.58952 -120.07908 -37.24478
#
# Velocity S-wave (km/s) = 4.58603 -7.44283 -4.14512
# Velocity P-wave (km/s) = 7.27342 5.88220 3.02509
#
# Compressibility (1/GPa) = 0.01855671
#
# Stress axis : x y z
#
# Youngs Moduli (GPa) = 102.32994 192.01449 43.67686
#
# Poissons Ratio (x) = 0.51228 0.29510
# Poissons Ratio (y) = 0.27301 0.01027
# Poissons Ratio (z) = 0.69139 0.04514
#
# Static dielectric constant tensor:
#      x y z
#    x 1.760140 0.000000 0.000000 
#    y 0.000000 1.820260 0.000000 
#    z 0.000000 0.000000 1.819100 
# 
# From -- ./inp_files/22490.got.cif
#   From: 2010.05.17/outbox.cif.g08.bks.cpg/sg67_12_cif.got.tgz:22490.got - 2010.06.03 18:28:57.
