data_PCOD9503383
_publ_section_title
;
Structure prediction by ZEFSAII (Michael W. Deem and Ramdas Pophale) SiO2 
 PCOD9503383
Probable space group: C M M A
;
_chemical_formula_sum "Si O2"
_cell_formula_units_Z 112
_cell_length_a 17.123346
_cell_length_b 15.655318
_cell_length_c 21.628409
_cell_angle_alpha 90.000000
_cell_angle_beta 90.000000
_cell_angle_gamma 90.000000
_cell_volume 5797.958461
_symmetry_space_group_name_H-M "C M M A"
_symmetry_group_IT_number 67
_symmetry_cell_setting 'orthorhombic'
loop_
_space_group_symop_operation_xyz
x,y,z
-x,1/2-y,z
x,-y,-z
-x,1/2+y,-z
-x,-y,-z
x,1/2+y,-z
-x,y,z
x,1/2-y,z
1/2+x,1/2+y,z
1/2-x,-y,z
1/2+x,1/2-y,-z
1/2-x,y,-z
1/2-x,1/2-y,-z
1/2+x,y,-z
1/2-x,1/2+y,z
1/2+x,-y,z
loop_
_atom_site_type_symbol
_atom_site_label
_atom_site_fract_x
_atom_site_fract_y
_atom_site_fract_z
Si Si1 0.672374 0.653895 0.359278
Si Si2 0.155398 0.599297 0.504784
Si Si3 0.860854 0.844522 0.371120
Si Si4 0.158183 0.993465 0.154454
Si Si5 0.905845 0.152588 0.079030
Si Si6 0.410072 0.497060 0.711101
Si Si7 0.593728 0.650487 0.934705
O O1 0.652526 0.750000 0.339308
O O2 0.637861 0.636950 0.427984
O O3 0.766581 0.648134 0.363948
O O4 0.641658 0.580431 0.314845
O O5 0.133015 0.500000 0.500000
O O6 0.250000 0.603467 0.500000
O O7 0.122806 0.645332 0.444240
O O8 0.884665 0.750000 0.350255
O O9 0.897565 0.920863 0.332472
O O10 0.137293 0.915468 0.109051
O O11 0.250000 0.000000 0.165324
O O12 0.130005 0.080780 0.122130
O O13 0.115143 0.981596 0.219477
O O14 0.881948 0.250000 0.094226
O O15 0.000000 0.148681 0.083509
O O16 0.886171 0.136362 0.006915
O O17 0.500000 0.471057 0.709561
O O18 0.500000 0.637822 0.928645
O O19 0.610251 0.750000 0.920376
#
# Coordination Sequence:
#
# PCOD9503383 Si02
#       7
#    16  16  16  16  16  16  16
#     4  10  20  37  62  89 116 148 190 239 290 344
#     4   9  15  29  59  91 119 146 181 232 287 346
#     4  10  20  37  62  89 116 148 190 239 290 344
#     4  12  25  39  59  86 118 155 197 243 292 339
#     4   9  19  38  64  92 122 156 192 231 280 341
#     4  12  26  42  58  78 113 158 200 241 288 346
#     4   9  19  38  64  92 122 156 192 231 280 341
#
# _framework density 19.317145
#
# number of rings (size 3 to 8) (size 9 to 14) (size 15 to 20)
#    0.000    1.857    1.429    4.286    0.000    6.286 
#    0.000    2.857    0.000    1.714    0.000    0.000 
#    0.000    0.000    0.000    0.000    0.000    0.000 
#
# Total GULP energy -312866.413523 kJ/mol
# GULP energy per Si atom -5586.900241 kJ/mol
# Density = 1.927318 g / cm^3
# Si number density = 19.317145 Si / 1000 Ang^3
#
#
#
# Elastic Constant Matrix: (Units=GPa)
#
#
# Indices 1 2 3 4 5 6 
#
# 1 15.1482 -2.7008 -2.1400 0.0000 0.0000 0.0000
# 2 -2.7008 58.6232 12.9069 0.0000 0.0000 0.0000
# 3 -2.1400 12.9069 57.0962 0.0000 0.0000 0.0000
# 4 0.0000 0.0000 0.0000 -12.3222 0.0000 0.0000
# 5 0.0000 0.0000 0.0000 0.0000 37.0810 0.0000
# 6 0.0000 0.0000 0.0000 0.0000 0.0000 15.0187
#
#
#
# Elastic Compliance Matrix: (Units=1/GPa)
#
#
# Indices 1 2 3 4 5 6 
#
# 1 0.066757 0.002657 0.001901 0.000000 0.000000 0.000000
# 2 0.002657 0.018057 -0.003982 0.000000 0.000000 0.000000
# 3 0.001901 -0.003982 0.018486 0.000000 0.000000 0.000000
# 4 0.000000 0.000000 0.000000 -0.081154 0.000000 0.000000
# 5 0.000000 0.000000 0.000000 0.000000 0.026968 0.000000
# 6 0.000000 0.000000 0.000000 0.000000 0.000000 0.066584
#
#
# Mechanical properties :
#
#
# Convention : Reuss Voigt Hill
#
# Bulk Modulus (GPa) = 9.57382 16.33333 12.95358
# Shear Modulus (GPa) = 33.47564 16.14226 24.80895
#
# Velocity S-wave (km/s) = 4.16739 2.89389 3.58760
# Velocity P-wave (km/s) = 5.30312 4.43168 4.88686
#
# Compressibility (1/GPa) = 0.10445151
#
# Stress axis : x y z
#
# Youngs Moduli (GPa) = 14.97980 55.37931 54.09559
#
# Poissons Ratio (x) = -0.14714 -0.10286
# Poissons Ratio (y) = -0.03980 0.21543
# Poissons Ratio (z) = -0.02848 0.22054
#
# Static dielectric constant tensor:
#      x y z
#    x 1.666840 0.000000 0.000000 
#    y 0.000000 1.661260 0.000000 
#    z 0.000000 0.000000 1.647520 
# 
# From -- ./inp_files/41940.got.cif
#   From: 2010.05.17/outbox.cif.g08.bks.cpg/sg67_21_cif.got.tgz:41940.got - 2010.06.03 18:28:57.
