data_PCOD9503166
_publ_section_title
;
Structure prediction by ZEFSAII (Michael W. Deem and Ramdas Pophale) SiO2 
 PCOD9503166
Probable space group: C M M A
;
_chemical_formula_sum "Si O2"
_cell_formula_units_Z 112
_cell_length_a 14.589647
_cell_length_b 27.588691
_cell_length_c 12.659256
_cell_angle_alpha 90.000000
_cell_angle_beta 90.000000
_cell_angle_gamma 90.000000
_cell_volume 5095.467801
_symmetry_space_group_name_H-M "C M M A"
_symmetry_group_IT_number 67
_symmetry_cell_setting 'orthorhombic'
loop_
_space_group_symop_operation_xyz
x,y,z
-x,1/2-y,z
x,-y,-z
-x,1/2+y,-z
-x,-y,-z
x,1/2+y,-z
-x,y,z
x,1/2-y,z
1/2+x,1/2+y,z
1/2-x,-y,z
1/2+x,1/2-y,-z
1/2-x,y,-z
1/2-x,1/2-y,-z
1/2+x,y,-z
1/2-x,1/2+y,z
1/2+x,-y,z
loop_
_atom_site_type_symbol
_atom_site_label
_atom_site_fract_x
_atom_site_fract_y
_atom_site_fract_z
Si Si1 0.897619 0.407142 0.636484
Si Si2 0.110081 0.645523 0.937829
Si Si3 0.890966 0.660275 0.184915
Si Si4 0.705103 0.695542 0.256842
Si Si5 0.647973 0.987311 0.334491
Si Si6 0.609025 0.120587 0.585935
Si Si7 0.111193 0.965845 0.904248
O O1 0.869307 0.390536 0.753544
O O2 0.902064 0.464663 0.626479
O O3 0.853439 0.382660 0.534256
O O4 0.000000 0.388139 0.628993
O O5 0.160927 0.679802 0.855249
O O6 0.139393 0.589931 0.918087
O O7 0.000000 0.648545 0.920227
O O8 0.127303 0.657274 0.060352
O O9 0.815080 0.693406 0.240657
O O10 0.000000 0.672276 0.194868
O O11 0.677550 0.750000 0.285379
O O12 0.666207 0.656786 0.340707
O O13 0.616926 0.934896 0.373183
O O14 0.642400 0.985423 0.208120
O O15 0.750000 0.000000 0.368630
O O16 0.500000 0.133198 0.591450
O O17 0.000000 0.966164 0.903505
O O18 0.141042 0.000000 0.000000
#
# Coordination Sequence:
#
# PCOD9503166 Si02
#       7
#    16  16  16  16  16  16  16
#     4  10  22  41  66  94 128 175 220 263 327 404
#     4  10  21  40  67  97 134 174 217 274 331 395
#     4  10  23  44  67  95 133 173 217 273 335 402
#     4  12  26  44  69  99 130 172 227 284 338 391
#     4  12  23  35  58  95 134 174 220 267 322 395
#     4  11  24  44  67  95 134 174 220 281 335 392
#     4  10  20  36  58  87 129 177 218 261 323 396
#
# _framework density 21.980319000000001
#
# number of rings (size 3 to 8) (size 9 to 14) (size 15 to 20)
#    0.000    1.286    1.429    4.286    0.000    9.143 
#    2.571    2.857    0.000    2.571    0.000    0.000 
#    0.000    0.000    0.000    0.000    0.000    0.000 
#
# Total GULP energy -312747.096464 kJ/mol
# GULP energy per Si atom -5584.769580 kJ/mol
# Density = 2.193029 g / cm^3
# Si number density = 21.980319 Si / 1000 Ang^3
#
#
#
# Elastic Constant Matrix: (Units=GPa)
#
#
# Indices 1 2 3 4 5 6 
#
# 1 55.4317 -0.2761 -19.5685 0.0000 0.0000 0.0000
# 2 -0.2761 86.0091 -4.1446 0.0000 0.0000 0.0000
# 3 -19.5685 -4.1446 51.7132 0.0000 0.0000 0.0000
# 4 0.0000 0.0000 0.0000 7.4927 0.0000 0.0000
# 5 0.0000 0.0000 0.0000 0.0000 18.0906 0.0000
# 6 0.0000 0.0000 0.0000 0.0000 0.0000 15.3840
#
#
#
# Elastic Compliance Matrix: (Units=1/GPa)
#
#
# Indices 1 2 3 4 5 6 
#
# 1 0.020839 0.000449 0.007921 0.000000 0.000000 0.000000
# 2 0.000449 0.011681 0.001106 0.000000 0.000000 0.000000
# 3 0.007921 0.001106 0.022424 0.000000 0.000000 0.000000
# 4 0.000000 0.000000 0.000000 0.133463 0.000000 0.000000
# 5 0.000000 0.000000 0.000000 0.000000 0.055277 0.000000
# 6 0.000000 0.000000 0.000000 0.000000 0.000000 0.065003
#
#
# Mechanical properties :
#
#
# Convention : Reuss Voigt Hill
#
# Bulk Modulus (GPa) = 13.53253 16.13063 14.83158
# Shear Modulus (GPa) = 15.90497 22.66967 19.28732
#
# Velocity S-wave (km/s) = 2.69290 3.21497 2.96544
# Velocity P-wave (km/s) = 3.97982 4.59738 4.29970
#
# Compressibility (1/GPa) = 0.07389603
#
# Stress axis : x y z
#
# Youngs Moduli (GPa) = 47.98715 85.60611 44.59593
#
# Poissons Ratio (x) = -0.03840 -0.35327
# Poissons Ratio (y) = -0.02153 -0.04932
# Poissons Ratio (z) = -0.38013 -0.09468
#
# Static dielectric constant tensor:
#      x y z
#    x 1.780180 0.000000 0.000000 
#    y 0.000000 1.780280 0.000000 
#    z 0.000000 0.000000 1.822040 
# 
# From -- ./inp_files/18627.got.cif
#   From: 2010.05.17/outbox.cif.g08.bks.cpg/sg67_10_cif.got.tgz:18627.got - 2010.06.03 18:28:57.
