data_PCOD9503637
_publ_section_title
;
Structure prediction by ZEFSAII (Michael W. Deem and Ramdas Pophale) SiO2 
 PCOD9503637
Probable space group: C M M A
;
_chemical_formula_sum "Si O2"
_cell_formula_units_Z 88
_cell_length_a 26.201012
_cell_length_b 7.658961
_cell_length_c 18.662771
_cell_angle_alpha 90.000000
_cell_angle_beta 90.000000
_cell_angle_gamma 90.000000
_cell_volume 3745.105456
_symmetry_space_group_name_H-M "C M M A"
_symmetry_group_IT_number 67
_symmetry_cell_setting 'orthorhombic'
loop_
_space_group_symop_operation_xyz
x,y,z
-x,1/2-y,z
x,-y,-z
-x,1/2+y,-z
-x,-y,-z
x,1/2+y,-z
-x,y,z
x,1/2-y,z
1/2+x,1/2+y,z
1/2-x,-y,z
1/2+x,1/2-y,-z
1/2-x,y,-z
1/2-x,1/2-y,-z
1/2+x,y,-z
1/2-x,1/2+y,z
1/2+x,-y,z
loop_
_atom_site_type_symbol
_atom_site_label
_atom_site_fract_x
_atom_site_fract_y
_atom_site_fract_z
Si Si1 0.663981 0.947085 0.282666
Si Si2 0.305107 0.040812 0.868200
Si Si3 0.000000 0.959005 0.584848
Si Si4 0.944799 0.452831 0.767813
Si Si5 0.913872 0.457859 0.079114
Si Si6 0.386629 0.039240 0.583473
O O1 0.684170 0.750000 0.290824
O O2 0.691282 0.030719 0.213862
O O3 0.656632 0.027306 0.361486
O O4 0.604781 0.943147 0.256796
O O5 0.309478 0.250000 0.862853
O O6 0.354780 0.980328 0.911372
O O7 0.250000 0.000000 0.899500
O O8 0.056456 0.025923 0.606170
O O9 0.000000 0.750000 0.594610
O O10 0.000000 0.000000 0.500000
O O11 0.939399 0.250000 0.748084
O O12 0.943291 0.462285 0.854098
O O13 0.000000 0.519566 0.742543
O O14 0.915738 0.250000 0.088204
O O15 0.932365 0.500000 0.000000
O O16 0.387310 0.250000 0.590236
O O17 0.378295 0.000000 0.500000
#
# Coordination Sequence:
#
# PCOD9503637 Si02
#       6
#    16  16   8  16  16  16
#     4   9  19  34  52  74 101 134 173 213 255 307
#     4   9  19  35  54  77 101 129 165 207 256 307
#     4   8  14  24  38  60  88 122 157 190 235 284
#     4  10  21  35  51  75 105 138 176 213 249 293
#     4  10  21  37  56  79 106 135 169 207 249 299
#     4   9  17  29  46  69  98 131 168 209 253 300
#
# _framework density 23.497335
#
# number of rings (size 3 to 8) (size 9 to 14) (size 15 to 20)
#    0.000    2.727    0.000    2.182    1.273    6.545 
#    0.000    1.818    0.000    0.545    0.000    3.818 
#    0.000    0.000    0.000    0.000    0.000    0.000 
#
# Total GULP energy -245516.645001 kJ/mol
# GULP energy per Si atom -5579.923750 kJ/mol
# Density = 2.344385 g / cm^3
# Si number density = 23.497335 Si / 1000 Ang^3
#
#
#
# Elastic Constant Matrix: (Units=GPa)
#
#
# Indices 1 2 3 4 5 6 
#
# 1 57.0645 -2.0906 -15.6439 0.0000 0.0000 0.0000
# 2 -2.0906 74.8048 3.7007 0.0000 0.0000 0.0000
# 3 -15.6439 3.7007 101.9478 0.0000 0.0000 0.0000
# 4 0.0000 0.0000 0.0000 22.0436 0.0000 0.0000
# 5 0.0000 0.0000 0.0000 0.0000 13.1043 0.0000
# 6 0.0000 0.0000 0.0000 0.0000 0.0000 11.0661
#
#
#
# Elastic Compliance Matrix: (Units=1/GPa)
#
#
# Indices 1 2 3 4 5 6 
#
# 1 0.018304 0.000373 0.002795 0.000000 0.000000 0.000000
# 2 0.000373 0.013400 -0.000429 0.000000 0.000000 0.000000
# 3 0.002795 -0.000429 0.010253 0.000000 0.000000 0.000000
# 4 0.000000 0.000000 0.000000 0.045365 0.000000 0.000000
# 5 0.000000 0.000000 0.000000 0.000000 0.076311 0.000000
# 6 0.000000 0.000000 0.000000 0.000000 0.000000 0.090366
#
#
# Mechanical properties :
#
#
# Convention : Reuss Voigt Hill
#
# Bulk Modulus (GPa) = 21.08109 22.86106 21.97107
# Shear Modulus (GPa) = 18.91560 25.76618 22.34089
#
# Velocity S-wave (km/s) = 2.84035 3.31502 3.08682
# Velocity P-wave (km/s) = 4.44387 4.93992 4.69845
#
# Compressibility (1/GPa) = 0.04743588
#
# Stress axis : x y z
#
# Youngs Moduli (GPa) = 54.63288 74.62800 97.52827
#
# Poissons Ratio (x) = -0.02786 -0.27261
# Poissons Ratio (y) = -0.02039 0.04185
# Poissons Ratio (z) = -0.15271 0.03203
#
# Static dielectric constant tensor:
#      x y z
#    x 1.879710 0.000000 0.000000 
#    y 0.000000 1.871690 0.000000 
#    z 0.000000 0.000000 2.315370 
# 
# From -- ./inp_files/39589.got.cif
#   From: 2010.05.17/outbox.cif.g08.bks.cpg/sg67_20_cif.got.tgz:39589.got - 2010.06.03 18:28:57.
