data_PCOD9503907
_publ_section_title
;
Structure prediction by ZEFSAII (Michael W. Deem and Ramdas Pophale) SiO2 
 PCOD9503907
Probable space group: C M M A
;
_chemical_formula_sum "Si O2"
_cell_formula_units_Z 60
_cell_length_a 9.067874
_cell_length_b 23.855939
_cell_length_c 15.144558
_cell_angle_alpha 90.000000
_cell_angle_beta 90.000000
_cell_angle_gamma 90.000000
_cell_volume 3276.110905
_symmetry_space_group_name_H-M "C M M A"
_symmetry_group_IT_number 67
_symmetry_cell_setting 'orthorhombic'
loop_
_space_group_symop_operation_xyz
x,y,z
-x,1/2-y,z
x,-y,-z
-x,1/2+y,-z
-x,-y,-z
x,1/2+y,-z
-x,y,z
x,1/2-y,z
1/2+x,1/2+y,z
1/2-x,-y,z
1/2+x,1/2-y,-z
1/2-x,y,-z
1/2-x,1/2-y,-z
1/2+x,y,-z
1/2-x,1/2+y,z
1/2+x,-y,z
loop_
_atom_site_type_symbol
_atom_site_label
_atom_site_fract_x
_atom_site_fract_y
_atom_site_fract_z
Si Si1 0.331487 0.864918 0.762486
Si Si2 0.675536 0.183669 0.595049
Si Si3 0.678290 0.561804 0.089897
Si Si4 0.000000 0.250000 0.038496
Si Si5 0.298499 0.250000 0.134375
O O1 0.500000 0.886283 0.754335
O O2 0.254679 0.853607 0.668971
O O3 0.233286 0.904025 0.825752
O O4 0.337365 0.805243 0.811302
O O5 0.500000 0.173403 0.591923
O O6 0.696709 0.250000 0.616407
O O7 0.750000 0.174167 0.500000
O O8 0.500000 0.560172 0.082589
O O9 0.750000 0.500000 0.095864
O O10 0.750000 0.587405 0.000000
O O11 0.127078 0.250000 0.113954
O O12 0.120854 0.250000 0.958604
#
# Coordination Sequence:
#
# PCOD9503907 Si02
#       5
#    16  16  16   4   8
#     4  12  23  37  59  86 119 155 198 242 290 351
#     4  10  21  37  58  85 119 156 195 242 295 353
#     4  11  24  42  62  86 116 156 202 248 296 346
#     4  10  24  38  48  74 120 162 192 236 284 352
#     4  11  24  36  53  80 118 156 198 232 290 347
#
# _framework density 18.314398000000001
#
# number of rings (size 3 to 8) (size 9 to 14) (size 15 to 20)
#    0.000    1.067    2.667    4.800    7.467    1.067 
#    0.000    0.000    0.000    0.800    0.000    5.600 
#    0.000    0.000    0.000    0.000    0.000    0.000 
#
# Total GULP energy -167029.076846 kJ/mol
# GULP energy per Si atom -5567.635895 kJ/mol
# Density = 1.827271 g / cm^3
# Si number density = 18.314398 Si / 1000 Ang^3
#
#
#
# Elastic Constant Matrix: (Units=GPa)
#
#
# Indices 1 2 3 4 5 6 
#
# 1 222.3296 26.3487 77.0886 0.0000 0.0000 0.0000
# 2 26.3487 45.1160 37.8391 0.0000 0.0000 0.0000
# 3 77.0886 37.8391 138.1457 0.0000 0.0000 0.0000
# 4 0.0000 0.0000 0.0000 -28.1495 0.0000 0.0000
# 5 0.0000 0.0000 0.0000 0.0000 39.0598 0.0000
# 6 0.0000 0.0000 0.0000 0.0000 0.0000 30.1766
#
#
#
# Elastic Compliance Matrix: (Units=1/GPa)
#
#
# Indices 1 2 3 4 5 6 
#
# 1 0.005601 -0.000844 -0.002895 0.000000 0.000000 0.000000
# 2 -0.000844 0.028903 -0.007446 0.000000 0.000000 0.000000
# 3 -0.002895 -0.007446 0.010894 0.000000 0.000000 0.000000
# 4 0.000000 0.000000 0.000000 -0.035525 0.000000 0.000000
# 5 0.000000 0.000000 0.000000 0.000000 0.025602 0.000000
# 6 0.000000 0.000000 0.000000 0.000000 0.000000 0.033138
#
#
# Mechanical properties :
#
#
# Convention : Reuss Voigt Hill
#
# Bulk Modulus (GPa) = 43.42291 76.46045 59.94168
# Shear Modulus (GPa) = 50.68010 25.83836 38.25923
#
# Velocity S-wave (km/s) = 5.26615 3.76017 4.57554
# Velocity P-wave (km/s) = 7.79344 7.79046 7.79195
#
# Compressibility (1/GPa) = 0.02302932
#
# Stress axis : x y z
#
# Youngs Moduli (GPa) = 178.52419 34.59886 91.79753
#
# Poissons Ratio (x) = 0.02919 0.26573
# Poissons Ratio (y) = 0.15060 0.68352
# Poissons Ratio (z) = 0.51677 0.25762
#
# Static dielectric constant tensor:
#      x y z
#    x 1.659680 0.000000 0.000000 
#    y 0.000000 1.647010 0.000000 
#    z 0.000000 0.000000 1.607660 
# 
# From -- ./inp_files/24767.got.cif
#   From: 2010.05.17/outbox.cif.g08.bks.cpg/sg67_13_cif.got.tgz:24767.got - 2010.06.03 18:28:57.
