data_PCOD9503478
_publ_section_title
;
Structure prediction by ZEFSAII (Michael W. Deem and Ramdas Pophale) SiO2 
 PCOD9503478
Probable space group: C M M A
;
_chemical_formula_sum "Si O2"
_cell_formula_units_Z 88
_cell_length_a 14.509362
_cell_length_b 14.010157
_cell_length_c 21.071435
_cell_angle_alpha 90.000000
_cell_angle_beta 90.000000
_cell_angle_gamma 90.000000
_cell_volume 4283.368427
_symmetry_space_group_name_H-M "C M M A"
_symmetry_group_IT_number 67
_symmetry_cell_setting 'orthorhombic'
loop_
_space_group_symop_operation_xyz
x,y,z
-x,1/2-y,z
x,-y,-z
-x,1/2+y,-z
-x,-y,-z
x,1/2+y,-z
-x,y,z
x,1/2-y,z
1/2+x,1/2+y,z
1/2-x,-y,z
1/2+x,1/2-y,-z
1/2-x,y,-z
1/2-x,1/2-y,-z
1/2+x,y,-z
1/2-x,1/2+y,z
1/2+x,-y,z
loop_
_atom_site_type_symbol
_atom_site_label
_atom_site_fract_x
_atom_site_fract_y
_atom_site_fract_z
Si Si1 0.296249 0.134834 0.598997
Si Si2 0.500000 0.144106 0.128720
Si Si3 0.809565 0.366295 0.814748
Si Si4 0.250000 0.000000 0.704182
Si Si5 0.201344 0.360036 0.063739
Si Si6 0.500000 0.610204 0.016815
Si Si7 0.103712 0.134587 0.530978
O O1 0.303437 0.250000 0.610139
O O2 0.190653 0.113348 0.576424
O O3 0.362639 0.109014 0.540109
O O4 0.312117 0.067975 0.659341
O O5 0.500000 0.250000 0.156863
O O6 0.405038 0.101870 0.152370
O O7 0.500000 0.153222 0.053344
O O8 0.806473 0.250000 0.804797
O O9 0.799291 0.424036 0.750126
O O10 0.733022 0.394025 0.867367
O O11 0.232662 0.250000 0.064922
O O12 0.250000 0.400107 0.000000
O O13 0.092693 0.365323 0.053486
O O14 0.500000 0.500000 0.000000
O O15 0.099431 0.250000 0.531469
O O16 0.000000 0.099639 0.545587
#
# Coordination Sequence:
#
# PCOD9503478 Si02
#       7
#    16   8  16   8  16   8  16
#     4   9  19  37  60  89 120 155 195 241 297 348
#     4  10  20  42  64  84 114 151 198 251 305 361
#     4  10  23  41  64  86 116 160 202 248 300 357
#     4  12  24  39  57  80 126 164 202 240 280 352
#     4  10  20  38  63  86 109 146 194 247 307 360
#     4  12  24  32  60  94 120 138 182 254 317 375
#     4   8  15  33  63  92 119 149 191 246 299 348
#
# _framework density 20.54458
#
# number of rings (size 3 to 8) (size 9 to 14) (size 15 to 20)
#    0.000    2.182    1.818    2.455    2.545    1.818 
#    3.273    0.909    0.000    0.000    0.000    0.000 
#    0.000    0.000    0.000    0.000    0.000    0.000 
#
# Total GULP energy -245351.982390 kJ/mol
# GULP energy per Si atom -5576.181418 kJ/mol
# Density = 2.049782 g / cm^3
# Si number density = 20.544580 Si / 1000 Ang^3
#
#
#
# Elastic Constant Matrix: (Units=GPa)
#
#
# Indices 1 2 3 4 5 6 
#
# 1 103.0060 -4.0764 32.2340 0.0000 0.0000 0.0000
# 2 -4.0764 98.6904 34.3745 0.0000 0.0000 0.0000
# 3 32.2340 34.3745 105.1289 0.0000 0.0000 0.0000
# 4 0.0000 0.0000 0.0000 -102.9944 0.0000 0.0000
# 5 0.0000 0.0000 0.0000 0.0000 -652.8954 0.0000
# 6 0.0000 0.0000 0.0000 0.0000 0.0000 33.4550
#
#
#
# Elastic Compliance Matrix: (Units=1/GPa)
#
#
# Indices 1 2 3 4 5 6 
#
# 1 0.011028 0.001843 -0.003984 0.000000 0.000000 0.000000
# 2 0.001843 0.011743 -0.004405 0.000000 0.000000 0.000000
# 3 -0.003984 -0.004405 0.012174 0.000000 0.000000 0.000000
# 4 0.000000 0.000000 0.000000 -0.009709 0.000000 0.000000
# 5 0.000000 0.000000 0.000000 0.000000 -0.001532 0.000000
# 6 0.000000 0.000000 0.000000 0.000000 0.000000 0.029891
#
#
# Mechanical properties :
#
#
# Convention : Reuss Voigt Hill
#
# Bulk Modulus (GPa) = 45.75910 47.98771 46.87341
# Shear Modulus (GPa) = 67.59443 -128.20075 -30.30316
#
# Velocity S-wave (km/s) = 5.74219 -7.90802 -3.84473
# Velocity P-wave (km/s) = 8.14157 7.74427 1.77643
#
# Compressibility (1/GPa) = 0.02185357
#
# Stress axis : x y z
#
# Youngs Moduli (GPa) = 90.67967 85.15667 82.14276
#
# Poissons Ratio (x) = -0.15696 0.32725
# Poissons Ratio (y) = -0.16714 0.36182
# Poissons Ratio (z) = 0.36126 0.37510
#
# Static dielectric constant tensor:
#      x y z
#    x 1.717510 0.000000 0.000000 
#    y 0.000000 1.813460 0.000000 
#    z 0.000000 0.000000 1.732030 
# 
# From -- ./inp_files/38343.got.cif
#   From: 2010.05.17/outbox.cif.g08.bks.cpg/sg67_20_cif.got.tgz:38343.got - 2010.06.03 18:28:57.
