data_PCOD9503644
_publ_section_title
;
Structure prediction by ZEFSAII (Michael W. Deem and Ramdas Pophale) SiO2 
 PCOD9503644
Probable space group: C M M A
;
_chemical_formula_sum "Si O2"
_cell_formula_units_Z 96
_cell_length_a 19.083113
_cell_length_b 8.767300
_cell_length_c 31.403067
_cell_angle_alpha 90.000000
_cell_angle_beta 90.000000
_cell_angle_gamma 90.000000
_cell_volume 5253.964757
_symmetry_space_group_name_H-M "C M M A"
_symmetry_group_IT_number 67
_symmetry_cell_setting 'orthorhombic'
loop_
_space_group_symop_operation_xyz
x,y,z
-x,1/2-y,z
x,-y,-z
-x,1/2+y,-z
-x,-y,-z
x,1/2+y,-z
-x,y,z
x,1/2-y,z
1/2+x,1/2+y,z
1/2-x,-y,z
1/2+x,1/2-y,-z
1/2-x,y,-z
1/2-x,1/2-y,-z
1/2+x,y,-z
1/2-x,1/2+y,z
1/2+x,-y,z
loop_
_atom_site_type_symbol
_atom_site_label
_atom_site_fract_x
_atom_site_fract_y
_atom_site_fract_z
Si Si1 0.581857 0.567000 0.791450
Si Si2 0.917824 0.432356 0.453432
Si Si3 0.081292 0.433909 0.954436
Si Si4 0.672240 0.431776 0.376745
Si Si5 0.672333 0.934507 0.873319
Si Si6 0.082417 0.931812 0.699500
O O1 0.500000 0.535246 0.801105
O O2 0.588299 0.750000 0.785709
O O3 0.630058 0.520015 0.830871
O O4 0.600018 0.485413 0.747258
O O5 0.902293 0.500000 0.500000
O O6 0.908859 0.250000 0.453866
O O7 0.869431 0.505508 0.417634
O O8 0.000000 0.464620 0.444159
O O9 0.083323 0.250000 0.956470
O O10 0.129594 0.483641 0.915307
O O11 0.000000 0.478734 0.947166
O O12 0.103505 0.500000 0.000000
O O13 0.675535 0.250000 0.378242
O O14 0.750000 0.500000 0.375943
O O15 0.629883 0.485782 0.335149
O O16 0.674929 0.750000 0.873703
O O17 0.750000 0.000000 0.873279
O O18 0.090736 0.750000 0.695574
O O19 0.000000 0.968327 0.692437
#
# Coordination Sequence:
#
# PCOD9503644 Si02
#       6
#    16  16  16  16  16  16
#     4   9  18  35  58  80 103 138 184 227 267 316
#     4  10  21  39  63  90 119 151 190 235 281 331
#     4   9  18  34  55  77 101 133 175 220 264 312
#     4  12  25  40  59  84 116 153 192 233 281 335
#     4  10  21  35  52  76 107 141 175 216 267 322
#     4  10  21  38  60  86 115 146 183 229 278 329
#
# _framework density 18.271916000000001
#
# number of rings (size 3 to 8) (size 9 to 14) (size 15 to 20)
#    0.000    2.000    0.000    3.500    0.000    8.667 
#    0.000    5.000    0.000    5.000    0.000    0.000 
#    0.000    0.000    0.000    0.000    0.000    0.000 
#
# Total GULP energy -268172.165961 kJ/mol
# GULP energy per Si atom -5586.920124 kJ/mol
# Density = 1.823033 g / cm^3
# Si number density = 18.271916 Si / 1000 Ang^3
#
#
#
# Elastic Constant Matrix: (Units=GPa)
#
#
# Indices 1 2 3 4 5 6 
#
# 1 129.2788 65.4631 129.4157 0.0000 0.0000 0.0000
# 2 65.4631 68.9526 74.1939 0.0000 0.0000 0.0000
# 3 129.4157 74.1939 183.2354 0.0000 0.0000 0.0000
# 4 0.0000 0.0000 0.0000 33.7465 0.0000 0.0000
# 5 0.0000 0.0000 0.0000 0.0000 -14.1522 0.0000
# 6 0.0000 0.0000 0.0000 0.0000 0.0000 32.0275
#
#
#
# Elastic Compliance Matrix: (Units=1/GPa)
#
#
# Indices 1 2 3 4 5 6 
#
# 1 0.029859 -0.010023 -0.017031 0.000000 0.000000 0.000000
# 2 -0.010023 0.029064 -0.004689 0.000000 0.000000 0.000000
# 3 -0.017031 -0.004689 0.019385 0.000000 0.000000 0.000000
# 4 0.000000 0.000000 0.000000 0.029633 0.000000 0.000000
# 5 0.000000 0.000000 0.000000 0.000000 -0.070660 0.000000
# 6 0.000000 0.000000 0.000000 0.000000 0.000000 0.031223
#
#
# Mechanical properties :
#
#
# Convention : Reuss Voigt Hill
#
# Bulk Modulus (GPa) = 67.46625 102.17914 84.82269
# Shear Modulus (GPa) = 36.51498 17.81731 27.16614
#
# Velocity S-wave (km/s) = 4.47522 3.12608 3.86005
# Velocity P-wave (km/s) = 7.98167 8.31100 8.14800
#
# Compressibility (1/GPa) = 0.01482223
#
# Stress axis : x y z
#
# Youngs Moduli (GPa) = 33.49064 34.40647 51.58734
#
# Poissons Ratio (x) = 0.34485 0.87856
# Poissons Ratio (y) = 0.33567 0.24192
# Poissons Ratio (z) = 0.57036 0.16135
#
# Static dielectric constant tensor:
#      x y z
#    x 1.602800 0.000000 0.000000 
#    y 0.000000 1.615060 0.000000 
#    z 0.000000 0.000000 1.600890 
# 
# From -- ./inp_files/44587.got.cif
#   From: 2010.05.17/outbox.cif.g08.bks.cpg/sg67_23_cif.got.tgz:44587.got - 2010.06.03 18:28:57.
