data_PCOD9503216
_publ_section_title
;
Structure prediction by ZEFSAII (Michael W. Deem and Ramdas Pophale) SiO2 
 PCOD9503216
Probable space group: C M M A
;
_chemical_formula_sum "Si O2"
_cell_formula_units_Z 100
_cell_length_a 10.689704
_cell_length_b 25.053798
_cell_length_c 19.904417
_cell_angle_alpha 90.000000
_cell_angle_beta 90.000000
_cell_angle_gamma 90.000000
_cell_volume 5330.754876
_symmetry_space_group_name_H-M "C M M A"
_symmetry_group_IT_number 67
_symmetry_cell_setting 'orthorhombic'
loop_
_space_group_symop_operation_xyz
x,y,z
-x,1/2-y,z
x,-y,-z
-x,1/2+y,-z
-x,-y,-z
x,1/2+y,-z
-x,y,z
x,1/2-y,z
1/2+x,1/2+y,z
1/2-x,-y,z
1/2+x,1/2-y,-z
1/2-x,y,-z
1/2-x,1/2-y,-z
1/2+x,y,-z
1/2-x,1/2+y,z
1/2+x,-y,z
loop_
_atom_site_type_symbol
_atom_site_label
_atom_site_fract_x
_atom_site_fract_y
_atom_site_fract_z
Si Si1 0.000000 0.250000 0.394672
Si Si2 0.139519 0.814130 0.952562
Si Si3 0.136794 0.963180 0.756522
Si Si4 0.860214 0.312657 0.694603
Si Si5 0.861100 0.960298 0.594652
Si Si6 0.793888 0.340410 0.426650
Si Si7 0.858418 0.658623 0.796910
O O1 0.108339 0.202601 0.398440
O O2 0.136967 0.750000 0.959921
O O3 0.161244 0.825762 0.874091
O O4 0.000000 0.834224 0.970097
O O5 0.250000 0.834954 0.000000
O O6 0.145980 0.955363 0.676002
O O7 0.142587 0.905039 0.789018
O O8 0.000000 0.987101 0.770526
O O9 0.250000 0.000000 0.778710
O O10 0.864986 0.250000 0.678643
O O11 0.818501 0.342606 0.627139
O O12 0.752359 0.320446 0.749953
O O13 0.000000 0.329256 0.716728
O O14 0.846647 0.900347 0.567453
O O15 0.000000 0.981057 0.578334
O O16 0.750000 0.000000 0.574525
O O17 0.750000 0.322480 0.500000
O O18 0.000000 0.677333 0.776750
#
# Coordination Sequence:
#
# PCOD9503216 Si02
#       7
#     4  16  16  16  16  16  16
#     4  12  26  44  70  86 116 166 212 252 310 390
#     4   9  18  33  54  83 116 154 191 230 279 339
#     4   9  18  33  56  82 112 143 187 240 292 352
#     4  11  25  38  54  84 121 151 190 249 307 355
#     4  10  21  41  64  89 117 154 201 252 312 366
#     4  12  26  42  65  88 117 161 209 255 309 377
#     4  10  20  36  60  85 112 150 200 239 284 352
#
# _framework density 18.759067999999999
#
# number of rings (size 3 to 8) (size 9 to 14) (size 15 to 20)
#    0.000    1.760    3.200    0.720    2.240    3.200 
#    0.000    2.400    0.000    0.480    0.000    3.360 
#    0.000    0.000    0.000    0.000    0.000    0.000 
#
# Total GULP energy -278552.399954 kJ/mol
# GULP energy per Si atom -5571.047999 kJ/mol
# Density = 1.871637 g / cm^3
# Si number density = 18.759068 Si / 1000 Ang^3
#
#
#
# Elastic Constant Matrix: (Units=GPa)
#
#
# Indices 1 2 3 4 5 6 
#
# 1 162.3184 30.3143 56.7300 0.0000 0.0000 0.0000
# 2 30.3143 57.5410 -11.5147 0.0000 0.0000 0.0000
# 3 56.7300 -11.5147 70.2515 0.0000 0.0000 0.0000
# 4 0.0000 0.0000 0.0000 18.2038 0.0000 0.0000
# 5 0.0000 0.0000 0.0000 0.0000 -12.9560 0.0000
# 6 0.0000 0.0000 0.0000 0.0000 0.0000 27.6933
#
#
#
# Elastic Compliance Matrix: (Units=1/GPa)
#
#
# Indices 1 2 3 4 5 6 
#
# 1 0.011323 -0.008060 -0.010465 0.000000 0.000000 0.000000
# 2 -0.008060 0.023705 0.010394 0.000000 0.000000 0.000000
# 3 -0.010465 0.010394 0.024389 0.000000 0.000000 0.000000
# 4 0.000000 0.000000 0.000000 0.054934 0.000000 0.000000
# 5 0.000000 0.000000 0.000000 0.000000 -0.077184 0.000000
# 6 0.000000 0.000000 0.000000 0.000000 0.000000 0.036110
#
#
# Mechanical properties :
#
#
# Convention : Reuss Voigt Hill
#
# Bulk Modulus (GPa) = 23.17196 49.01887 36.09542
# Shear Modulus (GPa) = 48.11224 20.89363 34.50294
#
# Velocity S-wave (km/s) = 5.06983 3.34097 4.29332
# Velocity P-wave (km/s) = 6.83009 6.40861 6.62270
#
# Compressibility (1/GPa) = 0.04315560
#
# Stress axis : x y z
#
# Youngs Moduli (GPa) = 88.31221 42.18526 41.00209
#
# Poissons Ratio (x) = 0.34000 0.42909
# Poissons Ratio (y) = 0.71177 -0.42617
# Poissons Ratio (z) = 0.92419 -0.43847
#
# Static dielectric constant tensor:
#      x y z
#    x 1.709930 0.000000 0.000000 
#    y 0.000000 1.636600 0.000000 
#    z 0.000000 0.000000 1.640440 
# 
# From -- ./inp_files/37310.got.cif
#   From: 2010.05.17/outbox.cif.g08.bks.cpg/sg67_19_cif.got.tgz:37310.got - 2010.06.03 18:28:57.
