data_PCOD9503014
_publ_section_title
;
Structure prediction by ZEFSAII (Michael W. Deem and Ramdas Pophale) SiO2 
 PCOD9503014
Probable space group: C M M A
;
_chemical_formula_sum "Si O2"
_cell_formula_units_Z 88
_cell_length_a 16.059612
_cell_length_b 9.191156
_cell_length_c 31.007072
_cell_angle_alpha 90.000000
_cell_angle_beta 90.000000
_cell_angle_gamma 90.000000
_cell_volume 4576.842247
_symmetry_space_group_name_H-M "C M M A"
_symmetry_group_IT_number 67
_symmetry_cell_setting 'orthorhombic'
loop_
_space_group_symop_operation_xyz
x,y,z
-x,1/2-y,z
x,-y,-z
-x,1/2+y,-z
-x,-y,-z
x,1/2+y,-z
-x,y,z
x,1/2-y,z
1/2+x,1/2+y,z
1/2-x,-y,z
1/2+x,1/2-y,-z
1/2-x,y,-z
1/2-x,1/2-y,-z
1/2+x,y,-z
1/2-x,1/2+y,z
1/2+x,-y,z
loop_
_atom_site_type_symbol
_atom_site_label
_atom_site_fract_x
_atom_site_fract_y
_atom_site_fract_z
Si Si1 0.900658 0.915079 0.228031
Si Si2 0.899969 0.584671 0.041693
Si Si3 0.836116 0.924735 0.397785
Si Si4 0.898768 0.919563 0.687223
Si Si5 0.500000 0.575548 0.546152
Si Si6 0.161181 0.573664 0.134483
O O1 0.867372 0.750000 0.233504
O O2 0.883073 0.965373 0.179367
O O3 0.000000 0.906934 0.232424
O O4 0.871338 0.019851 0.266154
O O5 0.869033 0.750000 0.039322
O O6 0.879074 0.525877 0.089168
O O7 0.000000 0.587636 0.038819
O O8 0.867620 0.500000 0.000000
O O9 0.827138 0.750000 0.397114
O O10 0.916063 0.962512 0.427448
O O11 0.750000 0.000000 0.412193
O O12 0.858338 0.985332 0.350416
O O13 0.877279 0.750000 0.682200
O O14 0.000000 0.931749 0.684174
O O15 0.500000 0.750000 0.541040
O O16 0.500000 0.500000 0.500000
O O17 0.164093 0.750000 0.133668
O O18 0.250000 0.500000 0.136172
#
# Coordination Sequence:
#
# PCOD9503014 Si02
#       6
#    16  16  16  16   8  16
#     4   9  18  34  56  78 104 145 191 233 278 333
#     4   9  18  34  55  76  97 125 167 215 262 319
#     4  11  23  41  64  94 127 166 211 257 307 365
#     4  10  20  35  58  88 120 156 197 245 298 353
#     4  10  24  44  68  94 128 168 210 258 311 364
#     4  10  21  35  51  73 103 138 174 217 270 328
#
# _framework density 19.227229999999999
#
# number of rings (size 3 to 8) (size 9 to 14) (size 15 to 20)
#    0.000    2.182    0.909    1.636    0.000    7.273 
#    0.000    5.455    0.000    5.455    0.000    0.000 
#    0.000    0.000    0.000    0.000    0.000    0.000 
#
# Total GULP energy -245450.904743 kJ/mol
# GULP energy per Si atom -5578.429653 kJ/mol
# Density = 1.918347 g / cm^3
# Si number density = 19.227230 Si / 1000 Ang^3
#
#
#
# Elastic Constant Matrix: (Units=GPa)
#
#
# Indices 1 2 3 4 5 6 
#
# 1 64.2625 40.9686 49.5171 0.0000 0.0000 0.0000
# 2 40.9686 57.2138 62.3861 0.0000 0.0000 0.0000
# 3 49.5171 62.3861 166.3740 0.0000 0.0000 0.0000
# 4 0.0000 0.0000 0.0000 34.7810 0.0000 0.0000
# 5 0.0000 0.0000 0.0000 0.0000 -6.3366 0.0000
# 6 0.0000 0.0000 0.0000 0.0000 0.0000 28.2252
#
#
#
# Elastic Compliance Matrix: (Units=1/GPa)
#
#
# Indices 1 2 3 4 5 6 
#
# 1 0.028829 -0.019095 -0.001420 0.000000 0.000000 0.000000
# 2 -0.019095 0.042215 -0.010147 0.000000 0.000000 0.000000
# 3 -0.001420 -0.010147 0.010238 0.000000 0.000000 0.000000
# 4 0.000000 0.000000 0.000000 0.028751 0.000000 0.000000
# 5 0.000000 0.000000 0.000000 0.000000 -0.157813 0.000000
# 6 0.000000 0.000000 0.000000 0.000000 0.000000 0.035429
#
#
# Mechanical properties :
#
#
# Convention : Reuss Voigt Hill
#
# Bulk Modulus (GPa) = 50.10253 65.95488 58.02870
# Shear Modulus (GPa) = 89.88833 20.33249 55.11041
#
# Velocity S-wave (km/s) = 6.84485 3.25543 5.35956
# Velocity P-wave (km/s) = 9.41191 6.96475 8.27924
#
# Compressibility (1/GPa) = 0.01995907
#
# Stress axis : x y z
#
# Youngs Moduli (GPa) = 34.68774 23.68827 97.67590
#
# Poissons Ratio (x) = 0.45232 0.13872
# Poissons Ratio (y) = 0.66235 0.99107
# Poissons Ratio (z) = 0.04926 0.24035
#
# Static dielectric constant tensor:
#      x y z
#    x 1.677500 0.000000 0.000000 
#    y 0.000000 1.668510 0.000000 
#    z 0.000000 0.000000 1.685550 
# 
# From -- ./inp_files/45223.got.cif
#   From: 2010.05.17/outbox.cif.g08.bks.cpg/sg67_23_cif.got.tgz:45223.got - 2010.06.03 18:28:57.
