data_PCOD9503773
_publ_section_title
;
Structure prediction by ZEFSAII (Michael W. Deem and Ramdas Pophale) SiO2 
 PCOD9503773
Probable space group: C M M A
;
_chemical_formula_sum "Si O2"
_cell_formula_units_Z 112
_cell_length_a 14.598726
_cell_length_b 17.566197
_cell_length_c 24.439395
_cell_angle_alpha 90.000000
_cell_angle_beta 90.000000
_cell_angle_gamma 90.000000
_cell_volume 6267.338579
_symmetry_space_group_name_H-M "C M M A"
_symmetry_group_IT_number 67
_symmetry_cell_setting 'orthorhombic'
loop_
_space_group_symop_operation_xyz
x,y,z
-x,1/2-y,z
x,-y,-z
-x,1/2+y,-z
-x,-y,-z
x,1/2+y,-z
-x,y,z
x,1/2-y,z
1/2+x,1/2+y,z
1/2-x,-y,z
1/2+x,1/2-y,-z
1/2-x,y,-z
1/2-x,1/2-y,-z
1/2+x,y,-z
1/2-x,1/2+y,z
1/2+x,-y,z
loop_
_atom_site_type_symbol
_atom_site_label
_atom_site_fract_x
_atom_site_fract_y
_atom_site_fract_z
Si Si1 0.890280 0.661356 0.560275
Si Si2 0.892496 0.841538 0.147824
Si Si3 0.892697 0.341464 0.146724
Si Si4 0.245702 0.409366 0.357369
Si Si5 0.249671 0.091258 0.935736
Si Si6 0.893835 0.841908 0.437698
Si Si7 0.751092 0.908209 0.768963
O O1 0.862378 0.750000 0.564267
O O2 0.842780 0.616958 0.608874
O O3 0.864857 0.633970 0.499128
O O4 0.000000 0.658016 0.563519
O O5 0.884028 0.750000 0.148287
O O6 0.838412 0.874381 0.095378
O O7 0.837641 0.875541 0.199582
O O8 0.000000 0.861243 0.147927
O O9 0.883963 0.250000 0.147802
O O10 0.838159 0.373874 0.094466
O O11 0.838798 0.376403 0.198361
O O12 0.000000 0.361105 0.146280
O O13 0.250000 0.500000 0.357600
O O14 0.330499 0.375842 0.391247
O O15 0.246235 0.384311 0.294296
O O16 0.250000 0.000000 0.928441
O O17 0.250000 0.108495 0.000000
O O18 0.888856 0.750000 0.436914
O O19 0.000000 0.863249 0.430085
O O20 0.750000 0.000000 0.772464
#
# Coordination Sequence:
#
# PCOD9503773 Si02
#       7
#    16  16  16  16  16  16  16
#     4   9  19  36  56  77 102 135 175 216 260 314
#     4  10  21  37  58  82 107 139 179 222 267 310
#     4  10  21  37  58  82 107 139 179 222 267 310
#     4  11  23  35  51  79 109 137 172 215 266 319
#     4  10  21  36  56  84 115 146 180 215 253 306
#     4   9  19  36  56  77 102 135 175 216 260 314
#     4  10  22  38  54  75 106 142 178 218 263 314
#
# _framework density 17.870424
#
# number of rings (size 3 to 8) (size 9 to 14) (size 15 to 20)
#    0.000    2.143    0.000    5.143    0.000   10.286 
#    0.000   10.000    0.000    0.000    0.000    0.000 
#    0.000    0.000    0.000    0.000    0.000    0.000 
#
# Total GULP energy -312640.927342 kJ/mol
# GULP energy per Si atom -5582.873703 kJ/mol
# Density = 1.782975 g / cm^3
# Si number density = 17.870424 Si / 1000 Ang^3
#
#
#
# Elastic Constant Matrix: (Units=GPa)
#
#
# Indices 1 2 3 4 5 6 
#
# 1 139.4017 45.8066 84.3529 0.0000 0.0000 0.0000
# 2 45.8066 56.8864 57.2568 0.0000 0.0000 0.0000
# 3 84.3529 57.2568 186.2258 0.0000 0.0000 0.0000
# 4 0.0000 0.0000 0.0000 40.6349 0.0000 0.0000
# 5 0.0000 0.0000 0.0000 0.0000 10.3891 0.0000
# 6 0.0000 0.0000 0.0000 0.0000 0.0000 42.8576
#
#
#
# Elastic Compliance Matrix: (Units=1/GPa)
#
#
# Indices 1 2 3 4 5 6 
#
# 1 0.010972 -0.005550 -0.003263 0.000000 0.000000 0.000000
# 2 -0.005550 0.028265 -0.006176 0.000000 0.000000 0.000000
# 3 -0.003263 -0.006176 0.008747 0.000000 0.000000 0.000000
# 4 0.000000 0.000000 0.000000 0.024609 0.000000 0.000000
# 5 0.000000 0.000000 0.000000 0.000000 0.096255 0.000000
# 6 0.000000 0.000000 0.000000 0.000000 0.000000 0.023333
#
#
# Mechanical properties :
#
#
# Convention : Reuss Voigt Hill
#
# Bulk Modulus (GPa) = 55.54391 84.14962 69.84676
# Shear Modulus (GPa) = 21.91431 31.78283 26.84857
#
# Velocity S-wave (km/s) = 3.50564 4.22182 3.88029
# Velocity P-wave (km/s) = 6.89456 8.42354 7.69711
#
# Compressibility (1/GPa) = 0.01800377
#
# Stress axis : x y z
#
# Youngs Moduli (GPa) = 91.14081 35.38003 114.32626
#
# Poissons Ratio (x) = 0.19637 0.37309
# Poissons Ratio (y) = 0.50587 0.70609
# Poissons Ratio (z) = 0.29743 0.21851
#
# Static dielectric constant tensor:
#      x y z
#    x 1.602070 0.000000 0.000000 
#    y 0.000000 1.602390 0.000000 
#    z 0.000000 0.000000 1.595830 
# 
# From -- ./inp_files/41908.got.cif
#   From: 2010.05.17/outbox.cif.g08.bks.cpg/sg67_21_cif.got.tgz:41908.got - 2010.06.03 18:28:57.
