data_PCOD9503026
_publ_section_title
;
Structure prediction by ZEFSAII (Michael W. Deem and Ramdas Pophale) SiO2 
 PCOD9503026
Probable space group: C M M A
;
_chemical_formula_sum "Si O2"
_cell_formula_units_Z 112
_cell_length_a 14.563244
_cell_length_b 14.766366
_cell_length_c 25.549386
_cell_angle_alpha 90.000000
_cell_angle_beta 90.000000
_cell_angle_gamma 90.000000
_cell_volume 5494.298143
_symmetry_space_group_name_H-M "C M M A"
_symmetry_group_IT_number 67
_symmetry_cell_setting 'orthorhombic'
loop_
_space_group_symop_operation_xyz
x,y,z
-x,1/2-y,z
x,-y,-z
-x,1/2+y,-z
-x,-y,-z
x,1/2+y,-z
-x,y,z
x,1/2-y,z
1/2+x,1/2+y,z
1/2-x,-y,z
1/2+x,1/2-y,-z
1/2-x,y,-z
1/2-x,1/2-y,-z
1/2+x,y,-z
1/2-x,1/2+y,z
1/2+x,-y,z
loop_
_atom_site_type_symbol
_atom_site_label
_atom_site_fract_x
_atom_site_fract_y
_atom_site_fract_z
Si Si1 0.802872 0.857626 0.145629
Si Si2 0.401605 0.354486 0.865055
Si Si3 0.393233 0.153366 0.636367
Si Si4 0.609634 0.548810 0.645979
Si Si5 0.390000 0.145576 0.250256
Si Si6 0.894417 0.021789 0.941350
Si Si7 0.227071 0.354054 0.558620
O O1 0.821231 0.750000 0.137386
O O2 0.696355 0.867805 0.161837
O O3 0.859843 0.894708 0.194881
O O4 0.831550 0.912109 0.093626
O O5 0.500000 0.367464 0.836476
O O6 0.400516 0.250000 0.883423
O O7 0.399466 0.426186 0.911573
O O8 0.500000 0.152476 0.620082
O O9 0.378085 0.250000 0.665007
O O10 0.324065 0.152005 0.588143
O O11 0.377151 0.056037 0.661758
O O12 0.500000 0.563697 0.638531
O O13 0.644752 0.604606 0.695724
O O14 0.662392 0.581793 0.593928
O O15 0.500000 0.141200 0.252498
O O16 0.360965 0.250000 0.248758
O O17 0.000000 0.058051 0.943468
O O18 0.863246 0.000000 0.000000
O O19 0.189317 0.250000 0.556779
O O20 0.250000 0.384568 0.500000
#
# Coordination Sequence:
#
# PCOD9503026 Si02
#       7
#    16  16  16  16  16  16  16
#     4  10  20  35  59  87 113 146 188 237 293 350
#     4   9  19  36  55  77 109 147 185 225 271 327
#     4   9  19  36  55  77 109 147 185 225 271 327
#     4  10  20  35  59  87 113 146 188 237 293 350
#     4   9  18  34  57  86 116 140 173 233 300 352
#     4  10  21  36  55  81 114 150 188 234 285 339
#     4  10  21  36  55  81 114 150 188 234 285 339
#
# _framework density 20.384771000000001
#
# number of rings (size 3 to 8) (size 9 to 14) (size 15 to 20)
#    0.000    2.429    0.000    1.714    0.000    5.143 
#    0.000    8.571    0.000    5.143    0.000   12.000 
#    0.000    0.000    0.000    0.000    0.000    0.000 
#
# Total GULP energy -311960.651977 kJ/mol
# GULP energy per Si atom -5570.725928 kJ/mol
# Density = 2.033837 g / cm^3
# Si number density = 20.384771 Si / 1000 Ang^3
#
#
#
# Elastic Constant Matrix: (Units=GPa)
#
#
# Indices 1 2 3 4 5 6 
#
# 1 63.5895 34.2367 23.1039 0.0000 0.0000 0.0000
# 2 34.2367 86.2347 33.9163 0.0000 0.0000 0.0000
# 3 23.1039 33.9163 85.4887 0.0000 0.0000 0.0000
# 4 0.0000 0.0000 0.0000 40.0564 0.0000 0.0000
# 5 0.0000 0.0000 0.0000 0.0000 36.9278 0.0000
# 6 0.0000 0.0000 0.0000 0.0000 0.0000 28.1245
#
#
#
# Elastic Compliance Matrix: (Units=1/GPa)
#
#
# Indices 1 2 3 4 5 6 
#
# 1 0.020530 -0.007072 -0.002743 0.000000 0.000000 0.000000
# 2 -0.007072 0.016176 -0.004506 0.000000 0.000000 0.000000
# 3 -0.002743 -0.004506 0.014227 0.000000 0.000000 0.000000
# 4 0.000000 0.000000 0.000000 0.024965 0.000000 0.000000
# 5 0.000000 0.000000 0.000000 0.000000 0.027080 0.000000
# 6 0.000000 0.000000 0.000000 0.000000 0.000000 0.035556
#
#
# Mechanical properties :
#
#
# Convention : Reuss Voigt Hill
#
# Bulk Modulus (GPa) = 44.86201 46.42518 45.64360
# Shear Modulus (GPa) = 28.63586 30.62547 29.63067
#
# Velocity S-wave (km/s) = 3.75209 3.88025 3.81671
# Velocity P-wave (km/s) = 6.38954 6.54973 6.47013
#
# Compressibility (1/GPa) = 0.02229057
#
# Stress axis : x y z
#
# Youngs Moduli (GPa) = 48.70934 61.81850 70.29121
#
# Poissons Ratio (x) = 0.43718 0.19278
# Poissons Ratio (y) = 0.34448 0.31676
# Poissons Ratio (z) = 0.13359 0.27858
#
# Static dielectric constant tensor:
#      x y z
#    x 1.767870 0.000000 0.000000 
#    y 0.000000 1.778010 0.000000 
#    z 0.000000 0.000000 1.686030 
# 
# From -- ./inp_files/41984.got.cif
#   From: 2010.05.17/outbox.cif.g08.bks.cpg/sg67_21_cif.got.tgz:41984.got - 2010.06.03 18:28:57.
