data_PCOD9503544
_publ_section_title
;
Structure prediction by ZEFSAII (Michael W. Deem and Ramdas Pophale) SiO2 
 PCOD9503544
Probable space group: C M M A
;
_chemical_formula_sum "Si O2"
_cell_formula_units_Z 116
_cell_length_a 16.501139
_cell_length_b 17.810893
_cell_length_c 20.150536
_cell_angle_alpha 90.000000
_cell_angle_beta 90.000000
_cell_angle_gamma 90.000000
_cell_volume 5922.242956
_symmetry_space_group_name_H-M "C M M A"
_symmetry_group_IT_number 67
_symmetry_cell_setting 'orthorhombic'
loop_
_space_group_symop_operation_xyz
x,y,z
-x,1/2-y,z
x,-y,-z
-x,1/2+y,-z
-x,-y,-z
x,1/2+y,-z
-x,y,z
x,1/2-y,z
1/2+x,1/2+y,z
1/2-x,-y,z
1/2+x,1/2-y,-z
1/2-x,y,-z
1/2-x,1/2-y,-z
1/2+x,y,-z
1/2-x,1/2+y,z
1/2+x,-y,z
loop_
_atom_site_type_symbol
_atom_site_label
_atom_site_fract_x
_atom_site_fract_y
_atom_site_fract_z
Si Si1 0.363522 0.377838 0.162662
Si Si2 0.347281 0.983749 0.074115
Si Si3 0.177282 0.337509 0.148574
Si Si4 0.151408 0.590670 0.431342
Si Si5 0.906760 0.339742 0.287151
Si Si6 0.500000 0.750000 0.858371
Si Si7 0.596144 0.334861 0.299267
Si Si8 0.653693 0.914242 0.422039
O O1 0.380841 0.455652 0.125850
O O2 0.273946 0.348522 0.144717
O O3 0.429225 0.315564 0.144354
O O4 0.365945 0.386350 0.242528
O O5 0.359885 0.898599 0.098271
O O6 0.250000 0.000000 0.073936
O O7 0.377220 0.000000 0.000000
O O8 0.156354 0.250000 0.135996
O O9 0.147587 0.357769 0.222975
O O10 0.112836 0.637797 0.372807
O O11 0.248880 0.594925 0.424093
O O12 0.132583 0.502575 0.422078
O O13 0.126010 0.614944 0.505490
O O14 0.902207 0.250000 0.295822
O O15 0.879527 0.376794 0.355948
O O16 0.000000 0.360245 0.273039
O O17 0.500000 0.332589 0.287674
O O18 0.627864 0.250000 0.289881
#
# Coordination Sequence:
#
# PCOD9503544 Si02
#       8
#    16  16  16  16  16   4  16  16
#     4  11  20  38  63  90 132 163 204 258 313 376
#     4   9  21  41  63  96 129 161 209 254 301 375
#     4  10  20  39  66  92 120 169 210 254 311 370
#     4   9  20  35  56  77 111 147 195 244 298 370
#     4  10  22  38  58  82 116 153 204 255 295 354
#     4  12  20  40  62  98 132 164 204 258 322 362
#     4  11  21  35  52  81 115 149 189 240 297 360
#     4   9  19  38  54  78 108 150 193 245 305 357
#
# _framework density 19.587173
#
# number of rings (size 3 to 8) (size 9 to 14) (size 15 to 20)
#    0.000    2.069    2.069    1.655    1.931    3.310 
#    2.483    5.862    0.000    0.000    0.000    0.000 
#    0.000    0.000    0.000    0.000    0.000    0.000 
#
# Total GULP energy -323149.330545 kJ/mol
# GULP energy per Si atom -5571.540182 kJ/mol
# Density = 1.954259 g / cm^3
# Si number density = 19.587173 Si / 1000 Ang^3
#
#
#
# Elastic Constant Matrix: (Units=GPa)
#
#
# Indices 1 2 3 4 5 6 
#
# 1 47.7850 30.4245 22.9437 0.0000 0.0000 0.0000
# 2 30.4245 93.2468 81.2694 0.0000 0.0000 0.0000
# 3 22.9437 81.2694 147.2646 0.0000 0.0000 0.0000
# 4 0.0000 0.0000 0.0000 70.0622 0.0000 0.0000
# 5 0.0000 0.0000 0.0000 0.0000 -4.9817 0.0000
# 6 0.0000 0.0000 0.0000 0.0000 0.0000 21.8558
#
#
#
# Elastic Compliance Matrix: (Units=1/GPa)
#
#
# Indices 1 2 3 4 5 6 
#
# 1 0.026531 -0.009738 0.001240 0.000000 0.000000 0.000000
# 2 -0.009738 0.024236 -0.011858 0.000000 0.000000 0.000000
# 3 0.001240 -0.011858 0.013141 0.000000 0.000000 0.000000
# 4 0.000000 0.000000 0.000000 0.014273 0.000000 0.000000
# 5 0.000000 0.000000 0.000000 0.000000 -0.200733 0.000000
# 6 0.000000 0.000000 0.000000 0.000000 0.000000 0.045754
#
#
# Mechanical properties :
#
#
# Convention : Reuss Voigt Hill
#
# Bulk Modulus (GPa) = 43.10657 61.95240 52.52948
# Shear Modulus (GPa) = -176.34213 27.63118 -74.35547
#
# Velocity S-wave (km/s) = -9.49868 3.75997 -6.16796
# Velocity P-wave (km/s) = 9.91183 7.10968 4.88349
#
# Compressibility (1/GPa) = 0.02319832
#
# Stress axis : x y z
#
# Youngs Moduli (GPa) = 37.69106 41.26075 76.09693
#
# Poissons Ratio (x) = 0.40178 -0.09438
# Poissons Ratio (y) = 0.36702 0.90234
# Poissons Ratio (z) = -0.04674 0.48926
#
# Static dielectric constant tensor:
#      x y z
#    x 1.686730 0.000000 0.000000 
#    y 0.000000 1.673780 0.000000 
#    z 0.000000 0.000000 1.698040 
# 
# From -- ./inp_files/34375.got.cif
#   From: 2010.05.17/outbox.cif.g08.bks.cpg/sg67_18_cif.got.tgz:34375.got - 2010.06.03 18:28:57.
