data_PCOD9503054
_publ_section_title
;
Structure prediction by ZEFSAII (Michael W. Deem and Ramdas Pophale) SiO2 
 PCOD9503054
Probable space group: C M M A
;
_chemical_formula_sum "Si O2"
_cell_formula_units_Z 48
_cell_length_a 17.728667
_cell_length_b 10.551458
_cell_length_c 12.599948
_cell_angle_alpha 90.000000
_cell_angle_beta 90.000000
_cell_angle_gamma 90.000000
_cell_volume 2356.987667
_symmetry_space_group_name_H-M "C M M A"
_symmetry_group_IT_number 67
_symmetry_cell_setting 'orthorhombic'
loop_
_space_group_symop_operation_xyz
x,y,z
-x,1/2-y,z
x,-y,-z
-x,1/2+y,-z
-x,-y,-z
x,1/2+y,-z
-x,y,z
x,1/2-y,z
1/2+x,1/2+y,z
1/2-x,-y,z
1/2+x,1/2-y,-z
1/2-x,y,-z
1/2-x,1/2-y,-z
1/2+x,y,-z
1/2-x,1/2+y,z
1/2+x,-y,z
loop_
_atom_site_type_symbol
_atom_site_label
_atom_site_fract_x
_atom_site_fract_y
_atom_site_fract_z
Si Si1 0.911176 0.750000 0.417760
Si Si2 0.166411 0.518577 0.297475
Si Si3 0.332255 0.613667 0.942143
Si Si4 0.089504 0.750000 0.671240
O O1 0.877194 0.877796 0.367162
O O2 0.899307 0.750000 0.543913
O O3 0.000000 0.750000 0.396808
O O4 0.250000 0.500000 0.343101
O O5 0.176224 0.579096 0.180571
O O6 0.126814 0.381161 0.288749
O O7 0.368992 0.750000 0.953435
O O8 0.374290 0.500000 0.000000
O O9 0.250000 0.621916 0.000000
O O10 0.000000 0.750000 0.693262
#
# Coordination Sequence:
#
# PCOD9503054 Si02
#       4
#     8  16  16   8
#     4  11  25  47  65  88 136 188 217 257 335 399
#     4  12  23  39  70 106 126 165 226 283 314 377
#     4  10  20  35  61  98 128 166 202 263 328 397
#     4  11  27  45  65  92 138 186 213 257 337 405
#
# _framework density 20.364977
#
# number of rings (size 3 to 8) (size 9 to 14) (size 15 to 20)
#    0.000    1.000    5.000    3.000    2.333    6.667 
#    0.000    0.000    0.000    6.000    0.000    0.000 
#    0.000    0.000    0.000    0.000    0.000    0.000 
#
# Total GULP energy -134015.152732 kJ/mol
# GULP energy per Si atom -5583.964697 kJ/mol
# Density = 2.031863 g / cm^3
# Si number density = 20.364977 Si / 1000 Ang^3
#
#
#
# Elastic Constant Matrix: (Units=GPa)
#
#
# Indices 1 2 3 4 5 6 
#
# 1 69.2782 47.9426 37.2866 0.0000 0.0000 0.0000
# 2 47.9426 216.5681 30.8978 0.0000 0.0000 0.0000
# 3 37.2866 30.8978 64.8068 0.0000 0.0000 0.0000
# 4 0.0000 0.0000 0.0000 41.4162 0.0000 0.0000
# 5 0.0000 0.0000 0.0000 0.0000 36.9637 0.0000
# 6 0.0000 0.0000 0.0000 0.0000 0.0000 -110.5885
#
#
#
# Elastic Compliance Matrix: (Units=1/GPa)
#
#
# Indices 1 2 3 4 5 6 
#
# 1 0.023086 -0.003450 -0.011637 0.000000 0.000000 0.000000
# 2 -0.003450 0.005470 -0.000623 0.000000 0.000000 0.000000
# 3 -0.011637 -0.000623 0.022423 0.000000 0.000000 0.000000
# 4 0.000000 0.000000 0.000000 0.024145 0.000000 0.000000
# 5 0.000000 0.000000 0.000000 0.000000 0.027054 0.000000
# 6 0.000000 0.000000 0.000000 0.000000 0.000000 -0.009043
#
#
# Mechanical properties :
#
#
# Convention : Reuss Voigt Hill
#
# Bulk Modulus (GPa) = 51.13051 64.76747 57.94899
# Shear Modulus (GPa) = 38.14600 9.19334 23.66967
#
# Velocity S-wave (km/s) = 4.33265 2.12699 3.41291
# Velocity P-wave (km/s) = 7.08454 6.15667 6.63684
#
# Compressibility (1/GPa) = 0.01955779
#
# Stress axis : x y z
#
# Youngs Moduli (GPa) = 43.31692 182.81032 44.59704
#
# Poissons Ratio (x) = 0.63074 0.51899
# Poissons Ratio (y) = 0.14945 0.02778
# Poissons Ratio (z) = 0.50410 0.11387
#
# Static dielectric constant tensor:
#      x y z
#    x 1.723630 0.000000 0.000000 
#    y 0.000000 1.784280 0.000000 
#    z 0.000000 0.000000 1.733980 
# 
# From -- ./inp_files/18807.got.cif
#   From: 2010.05.17/outbox.cif.g08.bks.cpg/sg67_10_cif.got.tgz:18807.got - 2010.06.03 18:28:57.
