data_PCOD9503420
_publ_section_title
;
Structure prediction by ZEFSAII (Michael W. Deem and Ramdas Pophale) SiO2 
 PCOD9503420
Probable space group: C M M A
;
_chemical_formula_sum "Si O2"
_cell_formula_units_Z 60
_cell_length_a 20.716324
_cell_length_b 10.163558
_cell_length_c 11.852630
_cell_angle_alpha 90.000000
_cell_angle_beta 90.000000
_cell_angle_gamma 90.000000
_cell_volume 2495.589743
_symmetry_space_group_name_H-M "C M M A"
_symmetry_group_IT_number 67
_symmetry_cell_setting 'orthorhombic'
loop_
_space_group_symop_operation_xyz
x,y,z
-x,1/2-y,z
x,-y,-z
-x,1/2+y,-z
-x,-y,-z
x,1/2+y,-z
-x,y,z
x,1/2-y,z
1/2+x,1/2+y,z
1/2-x,-y,z
1/2+x,1/2-y,-z
1/2-x,y,-z
1/2-x,1/2-y,-z
1/2+x,y,-z
1/2-x,1/2+y,z
1/2+x,-y,z
loop_
_atom_site_type_symbol
_atom_site_label
_atom_site_fract_x
_atom_site_fract_y
_atom_site_fract_z
Si Si1 0.830246 0.250000 0.432661
Si Si2 0.287497 0.885702 0.881030
Si Si3 0.427459 0.750000 0.641531
Si Si4 0.250000 0.500000 0.500000
Si Si5 0.072068 0.454766 0.843552
Si Si6 0.571695 0.750000 0.230317
O O1 0.873384 0.250000 0.546873
O O2 0.792757 0.109587 0.433737
O O3 0.875382 0.250000 0.325156
O O4 0.280255 0.750000 0.816668
O O5 0.362808 0.907346 0.903103
O O6 0.250000 0.000000 0.818392
O O7 0.250000 0.875512 0.000000
O O8 0.500000 0.750000 0.592411
O O9 0.423192 0.621648 0.723261
O O10 0.076468 0.612338 0.835691
O O11 0.000000 0.420033 0.887591
O O12 0.500000 0.750000 0.281852
#
# Coordination Sequence:
#
# PCOD9503420 Si02
#       6
#     8  16   8   4  16   8
#     4  11  21  42  56  86 127 171 220 256 314 367
#     4  10  22  42  64  92 126 157 205 252 315 395
#     4  10  20  37  65  89 116 162 221 270 316 362
#     4  10  24  38  54  78 132 166 210 264 308 382
#     4  10  21  40  63  95 126 164 214 268 318 371
#     4  10  22  39  63  91 126 164 215 270 316 360
#
# _framework density 24.042413
#
# number of rings (size 3 to 8) (size 9 to 14) (size 15 to 20)
#    0.000    1.867    1.333    2.000    1.867    0.000 
#   14.400    8.000    0.000    1.600    0.000    0.000 
#    0.000    0.000    0.000    0.000    0.000    0.000 
#
# Total GULP energy -167467.716080 kJ/mol
# GULP energy per Si atom -5582.257203 kJ/mol
# Density = 2.398769 g / cm^3
# Si number density = 24.042413 Si / 1000 Ang^3
#
#
#
# Elastic Constant Matrix: (Units=GPa)
#
#
# Indices 1 2 3 4 5 6 
#
# 1 219.5388 71.3320 51.0925 0.0000 0.0000 0.0000
# 2 71.3320 227.3087 10.4797 0.0000 0.0000 0.0000
# 3 51.0925 10.4797 51.0891 0.0000 0.0000 0.0000
# 4 0.0000 0.0000 0.0000 19.9150 0.0000 0.0000
# 5 0.0000 0.0000 0.0000 0.0000 39.6000 0.0000
# 6 0.0000 0.0000 0.0000 0.0000 0.0000 51.1346
#
#
#
# Elastic Compliance Matrix: (Units=1/GPa)
#
#
# Indices 1 2 3 4 5 6 
#
# 1 0.006579 -0.001778 -0.006215 0.000000 0.000000 0.000000
# 2 -0.001778 0.004922 0.000769 0.000000 0.000000 0.000000
# 3 -0.006215 0.000769 0.025631 0.000000 0.000000 0.000000
# 4 0.000000 0.000000 0.000000 0.050214 0.000000 0.000000
# 5 0.000000 0.000000 0.000000 0.000000 0.025253 0.000000
# 6 0.000000 0.000000 0.000000 0.000000 0.000000 0.019556
#
#
# Mechanical properties :
#
#
# Convention : Reuss Voigt Hill
#
# Bulk Modulus (GPa) = 44.08476 84.86055 64.47266
# Shear Modulus (GPa) = 32.43298 46.46541 39.44919
#
# Velocity S-wave (km/s) = 3.67684 4.40095 4.05509
# Velocity P-wave (km/s) = 6.03338 7.82287 6.98566
#
# Compressibility (1/GPa) = 0.02268357
#
# Stress axis : x y z
#
# Youngs Moduli (GPa) = 151.99718 203.17582 39.01499
#
# Poissons Ratio (x) = 0.36126 0.24247
# Poissons Ratio (y) = 0.27026 -0.02999
# Poissons Ratio (z) = 0.94463 -0.15616
#
# Static dielectric constant tensor:
#      x y z
#    x 1.930840 0.000000 0.000000 
#    y 0.000000 2.056370 0.000000 
#    z 0.000000 0.000000 1.951990 
# 
# From -- ./inp_files/20337.got.cif
#   From: 2010.05.17/outbox.cif.g08.bks.cpg/sg67_11_cif.got.tgz:20337.got - 2010.06.03 18:28:57.
