data_PCOD9503915
_publ_section_title
;
Structure prediction by ZEFSAII (Michael W. Deem and Ramdas Pophale) SiO2 
 PCOD9503915
Probable space group: C M M A
;
_chemical_formula_sum "Si O2"
_cell_formula_units_Z 80
_cell_length_a 23.388298
_cell_length_b 22.388866
_cell_length_c 7.403161
_cell_angle_alpha 90.000000
_cell_angle_beta 90.000000
_cell_angle_gamma 90.000000
_cell_volume 3876.572495
_symmetry_space_group_name_H-M "C M M A"
_symmetry_group_IT_number 67
_symmetry_cell_setting 'orthorhombic'
loop_
_space_group_symop_operation_xyz
x,y,z
-x,1/2-y,z
x,-y,-z
-x,1/2+y,-z
-x,-y,-z
x,1/2+y,-z
-x,y,z
x,1/2-y,z
1/2+x,1/2+y,z
1/2-x,-y,z
1/2+x,1/2-y,-z
1/2-x,y,-z
1/2-x,1/2-y,-z
1/2+x,y,-z
1/2-x,1/2+y,z
1/2+x,-y,z
loop_
_atom_site_type_symbol
_atom_site_label
_atom_site_fract_x
_atom_site_fract_y
_atom_site_fract_z
Si Si1 0.437141 0.115771 0.535349
Si Si2 0.705475 0.750000 0.674561
Si Si3 0.647969 0.943767 0.745459
Si Si4 0.752142 0.875058 0.792749
Si Si5 0.432363 0.250000 0.408054
Si Si6 0.868402 0.418506 0.157294
O O1 0.500000 0.097163 0.478542
O O2 0.393679 0.080153 0.407874
O O3 0.432025 0.186901 0.510473
O O4 0.425786 0.099450 0.742675
O O5 0.750000 0.750000 0.500000
O O6 0.724396 0.810443 0.773776
O O7 0.635204 0.750000 0.666121
O O8 0.711117 0.921276 0.693304
O O9 0.646204 0.013919 0.784040
O O10 0.630876 0.914751 0.940530
O O11 0.819028 0.877128 0.753900
O O12 0.750000 0.895963 0.000000
O O13 0.500000 0.250000 0.322959
#
# Coordination Sequence:
#
# PCOD9503915 Si02
#       6
#    16   8  16  16   8  16
#     4  11  23  41  62  86 118 162 210 255 304 363
#     4  12  21  35  62  91 121 157 207 260 309 360
#     4  10  21  39  61  87 124 160 197 244 308 370
#     4  10  21  37  58  88 122 157 195 250 308 369
#     4  10  22  41  62  85 124 167 207 259 314 373
#     4  10  22  38  60  91 122 158 198 249 305 368
#
# _framework density 20.636785
#
# number of rings (size 3 to 8) (size 9 to 14) (size 15 to 20)
#    0.000    1.600    2.000    2.700    0.000    4.800 
#    0.000    6.000    0.000    3.600    0.000    0.000 
#    0.000    0.000    0.000    0.000    0.000    0.000 
#
# Total GULP energy -222748.871161 kJ/mol
# GULP energy per Si atom -5568.721779 kJ/mol
# Density = 2.058981 g / cm^3
# Si number density = 20.636785 Si / 1000 Ang^3
#
#
#
# Elastic Constant Matrix: (Units=GPa)
#
#
# Indices 1 2 3 4 5 6 
#
# 1 101.5068 8.3996 24.0171 0.0000 0.0000 0.0000
# 2 8.3996 45.9837 -7.1699 0.0000 0.0000 0.0000
# 3 24.0171 -7.1699 62.4038 0.0000 0.0000 0.0000
# 4 0.0000 0.0000 0.0000 7.2172 0.0000 0.0000
# 5 0.0000 0.0000 0.0000 0.0000 26.6348 0.0000
# 6 0.0000 0.0000 0.0000 0.0000 0.0000 57.7060
#
#
#
# Elastic Compliance Matrix: (Units=1/GPa)
#
#
# Indices 1 2 3 4 5 6 
#
# 1 0.011172 -0.002761 -0.004617 0.000000 0.000000 0.000000
# 2 -0.002761 0.022826 0.003685 0.000000 0.000000 0.000000
# 3 -0.004617 0.003685 0.018225 0.000000 0.000000 0.000000
# 4 0.000000 0.000000 0.000000 0.138557 0.000000 0.000000
# 5 0.000000 0.000000 0.000000 0.000000 0.037545 0.000000
# 6 0.000000 0.000000 0.000000 0.000000 0.000000 0.017329
#
#
# Mechanical properties :
#
#
# Convention : Reuss Voigt Hill
#
# Bulk Modulus (GPa) = 22.30266 28.93198 25.61732
# Shear Modulus (GPa) = 18.65769 30.62146 24.63957
#
# Velocity S-wave (km/s) = 3.01009 3.85623 3.45913
# Velocity P-wave (km/s) = 4.78660 5.82043 5.32864
#
# Compressibility (1/GPa) = 0.04483771
#
# Stress axis : x y z
#
# Youngs Moduli (GPa) = 89.50601 43.81024 54.86965
#
# Poissons Ratio (x) = 0.12095 0.25334
# Poissons Ratio (y) = 0.24710 -0.20220
# Poissons Ratio (z) = 0.41326 -0.16144
#
# Static dielectric constant tensor:
#      x y z
#    x 1.812880 0.000000 0.000000 
#    y 0.000000 1.705740 0.000000 
#    z 0.000000 0.000000 1.747230 
# 
# From -- ./inp_files/12378.got.cif
#   From: 2010.05.17/outbox.cif.g08.bks.cpg/sg67_7_cif.got.tgz:12378.got - 2010.06.03 18:28:57.
