data_PCOD9503474
_publ_section_title
;
Structure prediction by ZEFSAII (Michael W. Deem and Ramdas Pophale) SiO2 
 PCOD9503474
Probable space group: C M M A
;
_chemical_formula_sum "Si O2"
_cell_formula_units_Z 100
_cell_length_a 21.373221
_cell_length_b 7.863640
_cell_length_c 30.220980
_cell_angle_alpha 90.000000
_cell_angle_beta 90.000000
_cell_angle_gamma 90.000000
_cell_volume 5079.279867
_symmetry_space_group_name_H-M "C M M A"
_symmetry_group_IT_number 67
_symmetry_cell_setting 'orthorhombic'
loop_
_space_group_symop_operation_xyz
x,y,z
-x,1/2-y,z
x,-y,-z
-x,1/2+y,-z
-x,-y,-z
x,1/2+y,-z
-x,y,z
x,1/2-y,z
1/2+x,1/2+y,z
1/2-x,-y,z
1/2+x,1/2-y,-z
1/2-x,y,-z
1/2-x,1/2-y,-z
1/2+x,y,-z
1/2-x,1/2+y,z
1/2+x,-y,z
loop_
_atom_site_type_symbol
_atom_site_label
_atom_site_fract_x
_atom_site_fract_y
_atom_site_fract_z
Si Si1 0.069967 0.452121 0.550720
Si Si2 0.819877 0.049210 0.382954
Si Si3 0.000000 0.750000 0.810383
Si Si4 0.103768 0.948356 0.198744
Si Si5 0.321341 0.954705 0.282572
Si Si6 0.430735 0.044742 0.051407
Si Si7 0.320644 0.548610 0.886631
O O1 0.084094 0.500000 0.500000
O O2 0.066395 0.250000 0.552880
O O3 0.124807 0.504769 0.583676
O O4 0.000000 0.521564 0.561373
O O5 0.819178 0.250000 0.378402
O O6 0.830403 0.981175 0.333090
O O7 0.750000 0.000000 0.398199
O O8 0.946298 0.596754 0.808681
O O9 0.083118 0.750000 0.190961
O O10 0.159116 0.985793 0.163607
O O11 0.131207 0.964111 0.247981
O O12 0.328936 0.750000 0.281019
O O13 0.250000 0.000000 0.270517
O O14 0.500000 0.982342 0.065557
O O15 0.431997 0.250000 0.054769
O O16 0.374467 0.975832 0.081222
O O17 0.422270 0.000000 0.000000
O O18 0.323489 0.750000 0.892498
O O19 0.250000 0.500000 0.896633
#
# Coordination Sequence:
#
# PCOD9503474 Si02
#       7
#    16  16   4  16  16  16  16
#     4  10  21  38  59  83 115 153 198 246 305 369
#     4  10  21  37  60  88 121 156 200 250 299 354
#     4  12  26  44  64  94 130 162 216 254 310 380
#     4  11  24  43  65  92 128 168 206 258 313 367
#     4  10  20  38  62  90 123 162 206 254 304 367
#     4   9  19  38  59  84 117 157 202 250 309 374
#     4  10  23  39  61  90 122 159 206 258 311 368
#
# _framework density 19.687830000000002
#
# number of rings (size 3 to 8) (size 9 to 14) (size 15 to 20)
#    0.000    1.920    0.800    2.160    2.240    5.440 
#    1.440    3.200    0.000    0.000    0.000    0.000 
#    0.000    0.000    0.000    0.000    0.000    0.000 
#
# Total GULP energy -278480.348396 kJ/mol
# GULP energy per Si atom -5569.606968 kJ/mol
# Density = 1.964302 g / cm^3
# Si number density = 19.687830 Si / 1000 Ang^3
#
#
#
# Elastic Constant Matrix: (Units=GPa)
#
#
# Indices 1 2 3 4 5 6 
#
# 1 162.5201 31.0041 82.5741 0.0000 0.0000 0.0000
# 2 31.0041 73.1451 11.6934 0.0000 0.0000 0.0000
# 3 82.5741 11.6934 80.4149 0.0000 0.0000 0.0000
# 4 0.0000 0.0000 0.0000 24.1268 0.0000 0.0000
# 5 0.0000 0.0000 0.0000 0.0000 118.3172 0.0000
# 6 0.0000 0.0000 0.0000 0.0000 0.0000 33.7274
#
#
#
# Elastic Compliance Matrix: (Units=1/GPa)
#
#
# Indices 1 2 3 4 5 6 
#
# 1 0.013759 -0.003659 -0.013597 0.000000 0.000000 0.000000
# 2 -0.003659 0.014970 0.001580 0.000000 0.000000 0.000000
# 3 -0.013597 0.001580 0.026168 0.000000 0.000000 0.000000
# 4 0.000000 0.000000 0.000000 0.041448 0.000000 0.000000
# 5 0.000000 0.000000 0.000000 0.000000 0.008452 0.000000
# 6 0.000000 0.000000 0.000000 0.000000 0.000000 0.029649
#
#
# Mechanical properties :
#
#
# Convention : Reuss Voigt Hill
#
# Bulk Modulus (GPa) = 42.47022 62.95815 52.71419
# Shear Modulus (GPa) = 28.79435 47.95484 38.37459
#
# Velocity S-wave (km/s) = 3.82847 4.94070 4.41971
# Velocity P-wave (km/s) = 6.41573 8.03710 7.27174
#
# Compressibility (1/GPa) = 0.02354591
#
# Stress axis : x y z
#
# Youngs Moduli (GPa) = 72.67768 66.80193 38.21510
#
# Poissons Ratio (x) = 0.24440 0.51960
# Poissons Ratio (y) = 0.26589 -0.06038
# Poissons Ratio (z) = 0.98819 -0.10555
#
# Static dielectric constant tensor:
#      x y z
#    x 1.590780 0.000000 0.000000 
#    y 0.000000 1.707020 0.000000 
#    z 0.000000 0.000000 0.524100 
# 
# From -- ./inp_files/43584.got.cif
#   From: 2010.05.17/outbox.cif.g08.bks.cpg/sg67_22_cif.got.tgz:43584.got - 2010.06.03 18:28:57.
