data_PCOD9503446
_publ_section_title
;
Structure prediction by ZEFSAII (Michael W. Deem and Ramdas Pophale) SiO2 
 PCOD9503446
Probable space group: C M M A
;
_chemical_formula_sum "Si O2"
_cell_formula_units_Z 60
_cell_length_a 13.989798
_cell_length_b 19.519335
_cell_length_c 10.780095
_cell_angle_alpha 90.000000
_cell_angle_beta 90.000000
_cell_angle_gamma 90.000000
_cell_volume 2943.737291
_symmetry_space_group_name_H-M "C M M A"
_symmetry_group_IT_number 67
_symmetry_cell_setting 'orthorhombic'
loop_
_space_group_symop_operation_xyz
x,y,z
-x,1/2-y,z
x,-y,-z
-x,1/2+y,-z
-x,-y,-z
x,1/2+y,-z
-x,y,z
x,1/2-y,z
1/2+x,1/2+y,z
1/2-x,-y,z
1/2+x,1/2-y,-z
1/2-x,y,-z
1/2-x,1/2-y,-z
1/2+x,y,-z
1/2-x,1/2+y,z
1/2+x,-y,z
loop_
_atom_site_type_symbol
_atom_site_label
_atom_site_fract_x
_atom_site_fract_y
_atom_site_fract_z
Si Si1 0.211136 0.578147 0.626832
Si Si2 0.000000 0.516893 0.141448
Si Si3 0.861171 0.250000 0.974564
Si Si4 0.500000 0.250000 0.796207
Si Si5 0.315311 0.608789 0.875020
Si Si6 0.500000 0.603563 0.326040
O O1 0.250000 0.500000 0.633365
O O2 0.250000 0.610485 0.500000
O O3 0.244848 0.612490 0.756258
O O4 0.097816 0.582477 0.609644
O O5 0.899346 0.555794 0.162057
O O6 0.000000 0.444044 0.206009
O O7 0.000000 0.500000 0.000000
O O8 0.873468 0.178943 0.902442
O O9 0.750000 0.250000 0.000000
O O10 0.913139 0.250000 0.105998
O O11 0.500000 0.317542 0.713152
O O12 0.250000 0.593070 0.000000
#
# Coordination Sequence:
#
# PCOD9503446 Si02
#       6
#    16   8   8   4  16   8
#     4  11  25  44  68 100 135 178 224 284 344 397
#     4  12  22  34  62  95 126 168 220 285 324 391
#     4  10  20  38  60  91 138 179 213 263 333 399
#     4  12  24  44  66 104 142 184 214 276 352 406
#     4  11  23  39  63  97 133 175 228 277 338 397
#     4  12  24  44  68  96 133 180 225 269 342 406
#
# _framework density 20.382252999999999
#
# number of rings (size 3 to 8) (size 9 to 14) (size 15 to 20)
#    0.000    0.800    2.667    7.200    0.000    3.200 
#    0.000    2.667    0.000    0.000    0.000    0.000 
#    0.000    0.000    0.000    0.000    0.000    0.000 
#
# Total GULP energy -167342.159560 kJ/mol
# GULP energy per Si atom -5578.071985 kJ/mol
# Density = 2.033586 g / cm^3
# Si number density = 20.382253 Si / 1000 Ang^3
#
#
#
# Elastic Constant Matrix: (Units=GPa)
#
#
# Indices 1 2 3 4 5 6 
#
# 1 158.8003 13.9686 34.7478 0.0000 0.0000 0.0000
# 2 13.9686 101.4287 -6.6334 0.0000 0.0000 0.0000
# 3 34.7478 -6.6334 105.8952 0.0000 0.0000 0.0000
# 4 0.0000 0.0000 0.0000 2.6252 0.0000 0.0000
# 5 0.0000 0.0000 0.0000 0.0000 19.9589 0.0000
# 6 0.0000 0.0000 0.0000 0.0000 0.0000 15.8816
#
#
#
# Elastic Compliance Matrix: (Units=1/GPa)
#
#
# Indices 1 2 3 4 5 6 
#
# 1 0.006905 -0.001104 -0.002335 0.000000 0.000000 0.000000
# 2 -0.001104 0.010076 0.000993 0.000000 0.000000 0.000000
# 3 -0.002335 0.000993 0.010272 0.000000 0.000000 0.000000
# 4 0.000000 0.000000 0.000000 0.380923 0.000000 0.000000
# 5 0.000000 0.000000 0.000000 0.000000 0.050103 0.000000
# 6 0.000000 0.000000 0.000000 0.000000 0.000000 0.062966
#
#
# Mechanical properties :
#
#
# Convention : Reuss Voigt Hill
#
# Bulk Modulus (GPa) = 44.71794 50.03224 47.37509
# Shear Modulus (GPa) = 9.37049 29.29588 19.33318
#
# Velocity S-wave (km/s) = 2.14648 3.79532 3.08316
# Velocity P-wave (km/s) = 5.30381 6.61862 5.99736
#
# Compressibility (1/GPa) = 0.02236239
#
# Stress axis : x y z
#
# Youngs Moduli (GPa) = 144.81785 99.24468 97.35485
#
# Poissons Ratio (x) = 0.10953 0.22732
# Poissons Ratio (y) = 0.15983 -0.09671
# Poissons Ratio (z) = 0.33815 -0.09858
#
# Static dielectric constant tensor:
#      x y z
#    x 1.843170 0.000000 0.000000 
#    y 0.000000 1.840440 0.000000 
#    z 0.000000 0.000000 1.714470 
# 
# From -- ./inp_files/16390.got.cif
#   From: 2010.05.17/outbox.cif.g08.bks.cpg/sg67_9_cif.got.tgz:16390.got - 2010.06.03 18:28:57.
