data_PCOD9503953
_publ_section_title
;
Structure prediction by ZEFSAII (Michael W. Deem and Ramdas Pophale) SiO2 
 PCOD9503953
Probable space group: C M M A
;
_chemical_formula_sum "Si O2"
_cell_formula_units_Z 80
_cell_length_a 22.114508
_cell_length_b 12.046341
_cell_length_c 13.886796
_cell_angle_alpha 90.000000
_cell_angle_beta 90.000000
_cell_angle_gamma 90.000000
_cell_volume 3699.427240
_symmetry_space_group_name_H-M "C M M A"
_symmetry_group_IT_number 67
_symmetry_cell_setting 'orthorhombic'
loop_
_space_group_symop_operation_xyz
x,y,z
-x,1/2-y,z
x,-y,-z
-x,1/2+y,-z
-x,-y,-z
x,1/2+y,-z
-x,y,z
x,1/2-y,z
1/2+x,1/2+y,z
1/2-x,-y,z
1/2+x,1/2-y,-z
1/2-x,y,-z
1/2-x,1/2-y,-z
1/2+x,y,-z
1/2-x,1/2+y,z
1/2+x,-y,z
loop_
_atom_site_type_symbol
_atom_site_label
_atom_site_fract_x
_atom_site_fract_y
_atom_site_fract_z
Si Si1 0.615568 0.128392 0.717609
Si Si2 0.849637 0.944969 0.408998
Si Si3 0.429190 0.750000 0.808217
Si Si4 0.431021 0.750000 0.575330
Si Si5 0.244203 0.875490 0.243793
Si Si6 0.926895 0.984856 0.110986
O O1 0.589863 0.250000 0.697704
O O2 0.688347 0.135492 0.714593
O O3 0.596892 0.083824 0.822408
O O4 0.604314 0.028074 0.645438
O O5 0.892263 0.853704 0.455547
O O6 0.803950 0.894950 0.329736
O O7 0.817477 0.000000 0.500000
O O8 0.500000 0.750000 0.837683
O O9 0.428170 0.750000 0.692908
O O10 0.403748 0.634152 0.849003
O O11 0.500000 0.750000 0.545372
O O12 0.231547 0.750000 0.200531
O O13 0.250000 0.000000 0.192630
O O14 0.000000 0.985728 0.117727
O O15 0.909933 0.000000 0.000000
#
# Coordination Sequence:
#
# PCOD9503953 Si02
#       6
#    16  16   8   8  16  16
#     4  10  22  37  57  91 131 160 204 266 324 374
#     4  11  23  39  65  90 121 166 218 263 317 375
#     4   9  18  36  60  85 115 161 215 256 303 372
#     4  11  22  40  64  88 124 170 215 260 311 380
#     4   9  19  37  59  87 118 159 205 260 314 366
#     4  10  21  37  61  92 125 166 214 263 318 383
#
# _framework density 21.624969
#
# number of rings (size 3 to 8) (size 9 to 14) (size 15 to 20)
#    0.000    2.000    3.000    0.000    2.800    4.400 
#    0.000    5.000    0.000    5.400    0.000   19.600 
#    0.000    0.000    0.000    0.000    0.000    0.000 
#
# Total GULP energy -222824.013798 kJ/mol
# GULP energy per Si atom -5570.600345 kJ/mol
# Density = 2.157575 g / cm^3
# Si number density = 21.624969 Si / 1000 Ang^3
#
#
#
# Elastic Constant Matrix: (Units=GPa)
#
#
# Indices 1 2 3 4 5 6 
#
# 1 58.0959 15.8533 10.7307 0.0000 0.0000 0.0000
# 2 15.8533 157.7376 13.6175 0.0000 0.0000 0.0000
# 3 10.7307 13.6175 60.6836 0.0000 0.0000 0.0000
# 4 0.0000 0.0000 0.0000 25.0794 0.0000 0.0000
# 5 0.0000 0.0000 0.0000 0.0000 3.0017 0.0000
# 6 0.0000 0.0000 0.0000 0.0000 0.0000 14.0643
#
#
#
# Elastic Compliance Matrix: (Units=1/GPa)
#
#
# Indices 1 2 3 4 5 6 
#
# 1 0.018172 -0.001580 -0.002859 0.000000 0.000000 0.000000
# 2 -0.001580 0.006602 -0.001202 0.000000 0.000000 0.000000
# 3 -0.002859 -0.001202 0.017254 0.000000 0.000000 0.000000
# 4 0.000000 0.000000 0.000000 0.039873 0.000000 0.000000
# 5 0.000000 0.000000 0.000000 0.000000 0.333145 0.000000
# 6 0.000000 0.000000 0.000000 0.000000 0.000000 0.071102
#
#
# Mechanical properties :
#
#
# Convention : Reuss Voigt Hill
#
# Bulk Modulus (GPa) = 32.52343 39.65777 36.09060
# Shear Modulus (GPa) = 9.84875 24.18346 17.01610
#
# Velocity S-wave (km/s) = 2.13641 3.34775 2.80817
# Velocity P-wave (km/s) = 4.59979 5.77251 5.21919
#
# Compressibility (1/GPa) = 0.03074707
#
# Stress axis : x y z
#
# Youngs Moduli (GPa) = 55.02968 151.46506 57.95683
#
# Poissons Ratio (x) = 0.23925 0.16569
# Poissons Ratio (y) = 0.08692 0.06968
# Poissons Ratio (z) = 0.15732 0.18210
#
# Static dielectric constant tensor:
#      x y z
#    x 1.779100 0.000000 0.000000 
#    y 0.000000 2.045070 0.000000 
#    z 0.000000 0.000000 1.747580 
# 
# From -- ./inp_files/29880.got.cif
#   From: 2010.05.17/outbox.cif.g08.bks.cpg/sg67_15_cif.got.tgz:29880.got - 2010.06.03 18:28:57.
