data_PCOD9503230
_publ_section_title
;
Structure prediction by ZEFSAII (Michael W. Deem and Ramdas Pophale) SiO2 
 PCOD9503230
Probable space group: C M M A
;
_chemical_formula_sum "Si O2"
_cell_formula_units_Z 96
_cell_length_a 18.613315
_cell_length_b 22.062846
_cell_length_c 12.665632
_cell_angle_alpha 90.000000
_cell_angle_beta 90.000000
_cell_angle_gamma 90.000000
_cell_volume 5201.302665
_symmetry_space_group_name_H-M "C M M A"
_symmetry_group_IT_number 67
_symmetry_cell_setting 'orthorhombic'
loop_
_space_group_symop_operation_xyz
x,y,z
-x,1/2-y,z
x,-y,-z
-x,1/2+y,-z
-x,-y,-z
x,1/2+y,-z
-x,y,z
x,1/2-y,z
1/2+x,1/2+y,z
1/2-x,-y,z
1/2+x,1/2-y,-z
1/2-x,y,-z
1/2-x,1/2-y,-z
1/2+x,y,-z
1/2-x,1/2+y,z
1/2+x,-y,z
loop_
_atom_site_type_symbol
_atom_site_label
_atom_site_fract_x
_atom_site_fract_y
_atom_site_fract_z
Si Si1 0.914683 0.615594 0.629296
Si Si2 0.835995 0.995563 0.375231
Si Si3 0.670722 0.374224 0.241281
Si Si4 0.172492 0.820818 0.792493
Si Si5 0.584024 0.181562 0.419599
Si Si6 0.336128 0.679876 0.978116
O O1 0.876229 0.554595 0.667997
O O2 0.885917 0.668538 0.703379
O O3 0.893202 0.634701 0.510365
O O4 0.000000 0.609351 0.631312
O O5 0.848879 0.937238 0.300193
O O6 0.857864 0.000000 0.500000
O O7 0.750000 0.000000 0.375429
O O8 0.756047 0.359376 0.235962
O O9 0.632297 0.325999 0.317017
O O10 0.646262 0.363016 0.120459
O O11 0.193863 0.750000 0.799625
O O12 0.137515 0.837761 0.905496
O O13 0.500000 0.170603 0.394672
O O14 0.590041 0.250000 0.460933
O O15 0.355429 0.750000 0.953722
O O16 0.250000 0.678538 0.000000
#
# Coordination Sequence:
#
# PCOD9503230 Si02
#       6
#    16  16  16  16  16  16
#     4  11  23  39  57  81 115 156 195 230 281 345
#     4  11  22  38  56  81 114 150 192 239 278 328
#     4  11  19  35  61  83 114 149 191 242 289 335
#     4  10  20  36  60  88 117 150 188 237 293 345
#     4  10  21  35  53  83 119 150 187 236 289 347
#     4   8  16  32  56  87 115 144 187 236 289 343
#
# _framework density 18.456914000000001
#
# number of rings (size 3 to 8) (size 9 to 14) (size 15 to 20)
#    0.000    1.833    3.333    3.000    0.000    2.667 
#    0.000    3.333    0.000    2.000    0.000    0.000 
#    0.000    0.000    0.000    0.000    0.000    0.000 
#
# Total GULP energy -267233.827130 kJ/mol
# GULP energy per Si atom -5567.371399 kJ/mol
# Density = 1.841491 g / cm^3
# Si number density = 18.456914 Si / 1000 Ang^3
#
#
#
# Elastic Constant Matrix: (Units=GPa)
#
#
# Indices 1 2 3 4 5 6 
#
# 1 23.4807 20.3529 32.0998 0.0000 0.0000 0.0000
# 2 20.3529 87.1690 48.5660 0.0000 0.0000 0.0000
# 3 32.0998 48.5660 137.3222 0.0000 0.0000 0.0000
# 4 0.0000 0.0000 0.0000 27.1188 0.0000 0.0000
# 5 0.0000 0.0000 0.0000 0.0000 8.6751 0.0000
# 6 0.0000 0.0000 0.0000 0.0000 0.0000 19.1303
#
#
#
# Elastic Compliance Matrix: (Units=1/GPa)
#
#
# Indices 1 2 3 4 5 6 
#
# 1 0.067477 -0.008677 -0.012704 0.000000 0.000000 0.000000
# 2 -0.008677 0.015403 -0.003419 0.000000 0.000000 0.000000
# 3 -0.012704 -0.003419 0.011461 0.000000 0.000000 0.000000
# 4 0.000000 0.000000 0.000000 0.036875 0.000000 0.000000
# 5 0.000000 0.000000 0.000000 0.000000 0.115272 0.000000
# 6 0.000000 0.000000 0.000000 0.000000 0.000000 0.052273
#
#
# Mechanical properties :
#
#
# Convention : Reuss Voigt Hill
#
# Bulk Modulus (GPa) = 22.35131 50.00103 36.17617
# Shear Modulus (GPa) = 13.76369 20.78174 17.27271
#
# Velocity S-wave (km/s) = 2.73375 3.35917 3.06247
# Velocity P-wave (km/s) = 4.70115 6.49576 5.66991
#
# Compressibility (1/GPa) = 0.04474011
#
# Stress axis : x y z
#
# Youngs Moduli (GPa) = 14.81989 64.92288 87.25149
#
# Poissons Ratio (x) = 0.56332 1.10848
# Poissons Ratio (y) = 0.12859 0.29833
# Poissons Ratio (z) = 0.18828 0.22199
#
# Static dielectric constant tensor:
#      x y z
#    x 1.616550 0.000000 0.000000 
#    y 0.000000 1.677030 0.000000 
#    z 0.000000 0.000000 1.677650 
# 
# From -- ./inp_files/20850.got.cif
#   From: 2010.05.17/outbox.cif.g08.bks.cpg/sg67_11_cif.got.tgz:20850.got - 2010.06.03 18:28:57.
