data_PCOD9503214
_publ_section_title
;
Structure prediction by ZEFSAII (Michael W. Deem and Ramdas Pophale) SiO2 
 PCOD9503214
Probable space group: C M M A
;
_chemical_formula_sum "Si O2"
_cell_formula_units_Z 112
_cell_length_a 15.055648
_cell_length_b 14.575769
_cell_length_c 24.227254
_cell_angle_alpha 90.000000
_cell_angle_beta 90.000000
_cell_angle_gamma 90.000000
_cell_volume 5316.613893
_symmetry_space_group_name_H-M "C M M A"
_symmetry_group_IT_number 67
_symmetry_cell_setting 'orthorhombic'
loop_
_space_group_symop_operation_xyz
x,y,z
-x,1/2-y,z
x,-y,-z
-x,1/2+y,-z
-x,-y,-z
x,1/2+y,-z
-x,y,z
x,1/2-y,z
1/2+x,1/2+y,z
1/2-x,-y,z
1/2+x,1/2-y,-z
1/2-x,y,-z
1/2-x,1/2-y,-z
1/2+x,y,-z
1/2-x,1/2+y,z
1/2+x,-y,z
loop_
_atom_site_type_symbol
_atom_site_label
_atom_site_fract_x
_atom_site_fract_y
_atom_site_fract_z
Si Si1 0.127549 0.355378 0.047099
Si Si2 0.608508 0.647759 0.236880
Si Si3 0.099052 0.489433 0.145985
Si Si4 0.336661 0.645749 0.926383
Si Si5 0.731836 0.644035 0.437557
Si Si6 0.396440 0.649793 0.642989
Si Si7 0.894577 0.055149 0.349436
O O1 0.098262 0.250000 0.053651
O O2 0.091864 0.422151 0.093318
O O3 0.233224 0.355421 0.058141
O O4 0.114025 0.383009 0.983271
O O5 0.500000 0.647533 0.233452
O O6 0.638818 0.750000 0.222103
O O7 0.640653 0.570738 0.194608
O O8 0.631606 0.621835 0.299350
O O9 0.148474 0.577801 0.123613
O O10 0.000000 0.517639 0.163395
O O11 0.363049 0.750000 0.914033
O O12 0.697731 0.750000 0.438606
O O13 0.750000 0.614202 0.500000
O O14 0.826259 0.646920 0.406485
O O15 0.664667 0.581381 0.402225
O O16 0.500000 0.648659 0.625301
O O17 0.382935 0.750000 0.671438
O O18 0.382165 0.550367 0.670816
O O19 0.000000 0.067203 0.360857
#
# Coordination Sequence:
#
# PCOD9503214 Si02
#       7
#    16  16  16  16  16  16  16
#     4   9  18  34  54  73  99 140 184 224 270 325
#     4   9  19  36  55  77 108 143 180 225 276 330
#     4  11  21  32  51  79 107 135 172 224 282 329
#     4   9  19  35  52  72 104 145 183 219 265 328
#     4  10  21  36  56  85 119 150 183 229 280 332
#     4   9  19  36  55  77 111 151 184 218 269 333
#     4  10  20  36  60  84 108 147 195 238 282 335
#
# _framework density 21.066040000000001
#
# number of rings (size 3 to 8) (size 9 to 14) (size 15 to 20)
#    0.000    2.429    0.000    3.000    0.000    6.000 
#    0.000    7.857    0.000    6.000    0.000    0.000 
#    0.000    0.000    0.000    0.000    0.000    0.000 
#
# Total GULP energy -312371.417696 kJ/mol
# GULP energy per Si atom -5578.061030 kJ/mol
# Density = 2.101809 g / cm^3
# Si number density = 21.066040 Si / 1000 Ang^3
#
#
#
# Elastic Constant Matrix: (Units=GPa)
#
#
# Indices 1 2 3 4 5 6 
#
# 1 41.4798 19.5156 13.7648 0.0000 0.0000 0.0000
# 2 19.5156 117.3539 48.6977 0.0000 0.0000 0.0000
# 3 13.7648 48.6977 82.3754 0.0000 0.0000 0.0000
# 4 0.0000 0.0000 0.0000 28.2891 0.0000 0.0000
# 5 0.0000 0.0000 0.0000 0.0000 18.2710 0.0000
# 6 0.0000 0.0000 0.0000 0.0000 0.0000 24.7819
#
#
#
# Elastic Compliance Matrix: (Units=1/GPa)
#
#
# Indices 1 2 3 4 5 6 
#
# 1 0.026513 -0.003406 -0.002417 0.000000 0.000000 0.000000
# 2 -0.003406 0.011729 -0.006364 0.000000 0.000000 0.000000
# 3 -0.002417 -0.006364 0.016306 0.000000 0.000000 0.000000
# 4 0.000000 0.000000 0.000000 0.035349 0.000000 0.000000
# 5 0.000000 0.000000 0.000000 0.000000 0.054732 0.000000
# 6 0.000000 0.000000 0.000000 0.000000 0.000000 0.040352
#
#
# Mechanical properties :
#
#
# Convention : Reuss Voigt Hill
#
# Bulk Modulus (GPa) = 33.14256 45.01835 39.08046
# Shear Modulus (GPa) = 22.78816 24.88379 23.83597
#
# Velocity S-wave (km/s) = 3.29256 3.44063 3.36741
# Velocity P-wave (km/s) = 5.49741 6.09921 5.80611
#
# Compressibility (1/GPa) = 0.03017268
#
# Stress axis : x y z
#
# Youngs Moduli (GPa) = 37.71792 85.26103 61.32777
#
# Poissons Ratio (x) = 0.29041 0.14820
# Poissons Ratio (y) = 0.12847 0.39032
# Poissons Ratio (z) = 0.09115 0.54264
#
# Static dielectric constant tensor:
#      x y z
#    x 1.805810 0.000000 0.000000 
#    y 0.000000 1.806600 0.000000 
#    z 0.000000 0.000000 1.722000 
# 
# From -- ./inp_files/41962.got.cif
#   From: 2010.05.17/outbox.cif.g08.bks.cpg/sg67_21_cif.got.tgz:41962.got - 2010.06.03 18:28:57.
