data_PCOD9503438
_publ_section_title
;
Structure prediction by ZEFSAII (Michael W. Deem and Ramdas Pophale) SiO2 
 PCOD9503438
Probable space group: C M M A
;
_chemical_formula_sum "Si O2"
_cell_formula_units_Z 72
_cell_length_a 10.188429
_cell_length_b 29.612690
_cell_length_c 13.134450
_cell_angle_alpha 90.000000
_cell_angle_beta 90.000000
_cell_angle_gamma 90.000000
_cell_volume 3962.752742
_symmetry_space_group_name_H-M "C M M A"
_symmetry_group_IT_number 67
_symmetry_cell_setting 'orthorhombic'
loop_
_space_group_symop_operation_xyz
x,y,z
-x,1/2-y,z
x,-y,-z
-x,1/2+y,-z
-x,-y,-z
x,1/2+y,-z
-x,y,z
x,1/2-y,z
1/2+x,1/2+y,z
1/2-x,-y,z
1/2+x,1/2-y,-z
1/2-x,y,-z
1/2-x,1/2-y,-z
1/2+x,y,-z
1/2-x,1/2+y,z
1/2+x,-y,z
loop_
_atom_site_type_symbol
_atom_site_label
_atom_site_fract_x
_atom_site_fract_y
_atom_site_fract_z
Si Si1 0.856722 0.105584 0.588692
Si Si2 0.770680 0.053077 0.783937
Si Si3 0.500000 0.699001 0.251825
Si Si4 0.731308 0.701239 0.621722
Si Si5 0.000000 0.949325 0.051724
Si Si6 0.000000 0.601792 0.845178
O O1 0.750000 0.101467 0.500000
O O2 0.832667 0.071570 0.680323
O O3 0.847244 0.155532 0.638134
O O4 0.000000 0.099565 0.542380
O O5 0.871864 0.057584 0.878012
O O6 0.632785 0.078953 0.800956
O O7 0.750000 0.000000 0.773837
O O8 0.500000 0.750000 0.205414
O O9 0.628562 0.696411 0.323172
O O10 0.500000 0.655252 0.179231
O O11 0.674261 0.750000 0.652812
O O12 0.750000 0.702897 0.500000
O O13 0.000000 0.912527 0.962802
O O14 0.000000 0.000000 0.000000
#
# Coordination Sequence:
#
# PCOD9503438 Si02
#       6
#    16  16   8  16   8   8
#     4  11  25  41  61  89 131 170 211 252 315 393
#     4  12  24  42  64  96 126 161 212 269 319 376
#     4  10  20  38  59  92 127 167 215 259 318 394
#     4   9  19  33  57  86 119 158 208 263 311 363
#     4  12  24  44  66  96 125 159 216 277 322 364
#     4  12  24  38  69  92 126 167 208 267 334 369
#
# _framework density 18.169188999999999
#
# number of rings (size 3 to 8) (size 9 to 14) (size 15 to 20)
#    0.000    1.111    5.556    0.667    7.778    0.889 
#    0.000    1.111    0.000    4.000    0.000    0.000 
#    0.000    0.000    0.000    0.000    0.000    0.000 
#
# Total GULP energy -200862.624431 kJ/mol
# GULP energy per Si atom -5579.517345 kJ/mol
# Density = 1.812784 g / cm^3
# Si number density = 18.169189 Si / 1000 Ang^3
#
#
#
# Elastic Constant Matrix: (Units=GPa)
#
#
# Indices 1 2 3 4 5 6 
#
# 1 137.8632 44.9063 42.1287 0.0000 0.0000 0.0000
# 2 44.9063 147.0045 60.3527 0.0000 0.0000 0.0000
# 3 42.1287 60.3527 79.8878 0.0000 0.0000 0.0000
# 4 0.0000 0.0000 0.0000 78.6820 0.0000 0.0000
# 5 0.0000 0.0000 0.0000 0.0000 33.6204 0.0000
# 6 0.0000 0.0000 0.0000 0.0000 0.0000 72.1574
#
#
#
# Elastic Compliance Matrix: (Units=1/GPa)
#
#
# Indices 1 2 3 4 5 6 
#
# 1 0.008775 -0.001132 -0.003772 0.000000 0.000000 0.000000
# 2 -0.001132 0.010007 -0.006963 0.000000 0.000000 0.000000
# 3 -0.003772 -0.006963 0.019767 0.000000 0.000000 0.000000
# 4 0.000000 0.000000 0.000000 0.012709 0.000000 0.000000
# 5 0.000000 0.000000 0.000000 0.000000 0.029744 0.000000
# 6 0.000000 0.000000 0.000000 0.000000 0.000000 0.013859
#
#
# Mechanical properties :
#
#
# Convention : Reuss Voigt Hill
#
# Bulk Modulus (GPa) = 67.50073 73.28120 70.39096
# Shear Modulus (GPa) = 40.47468 51.38314 45.92891
#
# Velocity S-wave (km/s) = 4.72492 5.32370 5.03322
# Velocity P-wave (km/s) = 8.18525 8.84360 8.52079
#
# Compressibility (1/GPa) = 0.01481465
#
# Stress axis : x y z
#
# Youngs Moduli (GPa) = 113.95977 99.93073 50.58849
#
# Poissons Ratio (x) = 0.11310 0.19084
# Poissons Ratio (y) = 0.12898 0.35225
# Poissons Ratio (z) = 0.42991 0.69583
#
# Static dielectric constant tensor:
#      x y z
#    x 1.659440 0.000000 0.000000 
#    y 0.000000 1.655870 0.000000 
#    z 0.000000 0.000000 1.589900 
# 
# From -- ./inp_files/25144.got.cif
#   From: 2010.05.17/outbox.cif.g08.bks.cpg/sg67_13_cif.got.tgz:25144.got - 2010.06.03 18:28:57.
