data_PCOD9503455
_publ_section_title
;
Structure prediction by ZEFSAII (Michael W. Deem and Ramdas Pophale) SiO2 
 PCOD9503455
Probable space group: C M M A
;
_chemical_formula_sum "Si O2"
_cell_formula_units_Z 112
_cell_length_a 17.341853
_cell_length_b 20.598933
_cell_length_c 17.396985
_cell_angle_alpha 90.000000
_cell_angle_beta 90.000000
_cell_angle_gamma 90.000000
_cell_volume 6214.614795
_symmetry_space_group_name_H-M "C M M A"
_symmetry_group_IT_number 67
_symmetry_cell_setting 'orthorhombic'
loop_
_space_group_symop_operation_xyz
x,y,z
-x,1/2-y,z
x,-y,-z
-x,1/2+y,-z
-x,-y,-z
x,1/2+y,-z
-x,y,z
x,1/2-y,z
1/2+x,1/2+y,z
1/2-x,-y,z
1/2+x,1/2-y,-z
1/2-x,y,-z
1/2-x,1/2-y,-z
1/2+x,y,-z
1/2-x,1/2+y,z
1/2+x,-y,z
loop_
_atom_site_type_symbol
_atom_site_label
_atom_site_fract_x
_atom_site_fract_y
_atom_site_fract_z
Si Si1 0.297629 0.172212 0.694836
Si Si2 0.912816 0.172908 0.171182
Si Si3 0.907207 0.092182 0.033826
Si Si4 0.684591 0.055404 0.282251
Si Si5 0.659764 0.324030 0.522203
Si Si6 0.093249 0.041479 0.876319
Si Si7 0.091670 0.053621 0.562060
O O1 0.280073 0.250000 0.699726
O O2 0.355520 0.151793 0.762457
O O3 0.224537 0.125391 0.703190
O O4 0.339994 0.162208 0.613284
O O5 0.916890 0.250000 0.175587
O O6 0.884809 0.151751 0.087193
O O7 0.000000 0.146711 0.182401
O O8 0.000000 0.091873 0.025993
O O9 0.889172 0.028810 0.085464
O O10 0.879647 0.088385 0.946258
O O11 0.636495 0.053261 0.203158
O O12 0.631801 0.042527 0.356410
O O13 0.750000 0.000000 0.278516
O O14 0.633099 0.250000 0.508970
O O15 0.750000 0.327174 0.500000
O O16 0.614513 0.376738 0.473249
O O17 0.000000 0.045614 0.865627
O O18 0.000000 0.048941 0.570457
O O19 0.117994 0.000000 0.500000
#
# Coordination Sequence:
#
# PCOD9503455 Si02
#       7
#    16  16  16  16  16  16  16
#     4  10  21  36  55  81 112 143 179 221 272 328
#     4   9  17  31  53  80 109 139 174 220 272 328
#     4   8  15  31  54  77 102 136 176 220 272 321
#     4  12  23  36  57  81 109 147 184 221 274 333
#     4  10  20  38  62  82 106 149 194 227 270 333
#     4   9  18  34  55  76 102 137 181 229 267 314
#     4  11  25  40  57  85 116 145 184 234 281 328
#
# _framework density 18.022034000000001
#
# number of rings (size 3 to 8) (size 9 to 14) (size 15 to 20)
#    0.000    2.143    1.429    3.000    0.000    0.857 
#    0.000   10.714    0.000    3.857    0.000    0.000 
#    0.000    0.000    0.000    0.000    0.000    0.000 
#
# Total GULP energy -312250.263006 kJ/mol
# GULP energy per Si atom -5575.897554 kJ/mol
# Density = 1.798101 g / cm^3
# Si number density = 18.022034 Si / 1000 Ang^3
#
#
#
# Elastic Constant Matrix: (Units=GPa)
#
#
# Indices 1 2 3 4 5 6 
#
# 1 46.7667 20.7106 54.5690 0.0000 0.0000 0.0000
# 2 20.7106 36.8275 36.9534 0.0000 0.0000 0.0000
# 3 54.5690 36.9534 174.2634 0.0000 0.0000 0.0000
# 4 0.0000 0.0000 0.0000 27.7407 0.0000 0.0000
# 5 0.0000 0.0000 0.0000 0.0000 651.0021 0.0000
# 6 0.0000 0.0000 0.0000 0.0000 0.0000 11.0767
#
#
#
# Elastic Compliance Matrix: (Units=1/GPa)
#
#
# Indices 1 2 3 4 5 6 
#
# 1 0.037316 -0.011763 -0.009191 0.000000 0.000000 0.000000
# 2 -0.011763 0.038201 -0.004417 0.000000 0.000000 0.000000
# 3 -0.009191 -0.004417 0.009553 0.000000 0.000000 0.000000
# 4 0.000000 0.000000 0.000000 0.036048 0.000000 0.000000
# 5 0.000000 0.000000 0.000000 0.000000 0.001536 0.000000
# 6 0.000000 0.000000 0.000000 0.000000 0.000000 0.090279
#
#
# Mechanical properties :
#
#
# Convention : Reuss Voigt Hill
#
# Bulk Modulus (GPa) = 29.13066 53.59151 41.36108
# Shear Modulus (GPa) = 18.17393 147.67221 82.92307
#
# Velocity S-wave (km/s) = 3.17902 9.06188 6.79058
# Velocity P-wave (km/s) = 5.44738 11.80218 9.19145
#
# Compressibility (1/GPa) = 0.03432809
#
# Stress axis : x y z
#
# Youngs Moduli (GPa) = 26.79799 26.17721 104.67760
#
# Poissons Ratio (x) = 0.30793 0.96207
# Poissons Ratio (y) = 0.31523 0.46238
# Poissons Ratio (z) = 0.24629 0.11563
#
# Static dielectric constant tensor:
#      x y z
#    x 1.616990 0.000000 0.000000 
#    y 0.000000 1.635740 0.000000 
#    z 0.000000 0.000000 1.633690 
# 
# From -- ./inp_files/27488.got.cif
#   From: 2010.05.17/outbox.cif.g08.bks.cpg/sg67_14_cif.got.tgz:27488.got - 2010.06.03 18:28:57.
