data_PCOD9503781
_publ_section_title
;
Structure prediction by ZEFSAII (Michael W. Deem and Ramdas Pophale) SiO2 
 PCOD9503781
Probable space group: C M M A
;
_chemical_formula_sum "Si O2"
_cell_formula_units_Z 112
_cell_length_a 21.380529
_cell_length_b 24.318490
_cell_length_c 11.541607
_cell_angle_alpha 90.000000
_cell_angle_beta 90.000000
_cell_angle_gamma 90.000000
_cell_volume 6000.968312
_symmetry_space_group_name_H-M "C M M A"
_symmetry_group_IT_number 67
_symmetry_cell_setting 'orthorhombic'
loop_
_space_group_symop_operation_xyz
x,y,z
-x,1/2-y,z
x,-y,-z
-x,1/2+y,-z
-x,-y,-z
x,1/2+y,-z
-x,y,z
x,1/2-y,z
1/2+x,1/2+y,z
1/2-x,-y,z
1/2+x,1/2-y,-z
1/2-x,y,-z
1/2-x,1/2-y,-z
1/2+x,y,-z
1/2-x,1/2+y,z
1/2+x,-y,z
loop_
_atom_site_type_symbol
_atom_site_label
_atom_site_fract_x
_atom_site_fract_y
_atom_site_fract_z
Si Si1 0.072989 0.686622 0.900249
Si Si2 0.115522 0.019865 0.866354
Si Si3 0.375323 0.588584 0.253182
Si Si4 0.929247 0.622000 0.261668
Si Si5 0.574328 0.434839 0.506270
Si Si6 0.741135 0.580218 0.866248
Si Si7 0.838267 0.812129 0.124794
O O1 0.078639 0.750000 0.858636
O O2 0.094115 0.641148 0.808271
O O3 0.000000 0.678203 0.932607
O O4 0.118974 0.681174 0.010189
O O5 0.076833 0.074720 0.837554
O O6 0.185235 0.039784 0.827603
O O7 0.093111 0.968070 0.791882
O O8 0.115055 0.000000 0.000000
O O9 0.385350 0.590394 0.389963
O O10 0.304221 0.581948 0.207364
O O11 0.912710 0.592715 0.382446
O O12 0.883623 0.671329 0.229854
O O13 0.000000 0.641375 0.267102
O O14 0.586354 0.500000 0.500000
O O15 0.500000 0.427474 0.530938
O O16 0.714872 0.642164 0.871906
O O17 0.750000 0.564274 0.000000
O O18 0.815141 0.750000 0.129919
#
# Coordination Sequence:
#
# PCOD9503781 Si02
#       7
#    16  16  16  16  16  16  16
#     4  10  21  36  56  87 121 149 190 246 296 350
#     4  11  21  33  54  85 120 151 188 238 296 354
#     4  12  21  35  60  83 116 161 195 232 295 345
#     4  10  21  38  58  84 117 150 193 245 295 353
#     4  10  21  39  60  84 116 156 199 240 287 351
#     4  11  21  36  55  85 119 154 191 236 285 349
#     4  10  21  38  60  85 114 151 196 242 294 350
#
# _framework density 18.663654999999999
#
# number of rings (size 3 to 8) (size 9 to 14) (size 15 to 20)
#    0.000    1.429    4.286    2.143    0.000    2.571 
#    0.000    3.571    0.000    1.714    0.000    0.000 
#    0.000    0.000    0.000    0.000    0.000    0.000 
#
# Total GULP energy -312605.192225 kJ/mol
# GULP energy per Si atom -5582.235575 kJ/mol
# Density = 1.862118 g / cm^3
# Si number density = 18.663655 Si / 1000 Ang^3
#
#
#
# Elastic Constant Matrix: (Units=GPa)
#
#
# Indices 1 2 3 4 5 6 
#
# 1 42.6221 12.8365 16.0544 0.0000 0.0000 0.0000
# 2 12.8365 109.4262 20.3614 0.0000 0.0000 0.0000
# 3 16.0544 20.3614 72.9813 0.0000 0.0000 0.0000
# 4 0.0000 0.0000 0.0000 24.6385 0.0000 0.0000
# 5 0.0000 0.0000 0.0000 0.0000 15.6527 0.0000
# 6 0.0000 0.0000 0.0000 0.0000 0.0000 13.1205
#
#
#
# Elastic Compliance Matrix: (Units=1/GPa)
#
#
# Indices 1 2 3 4 5 6 
#
# 1 0.026030 -0.002097 -0.005141 0.000000 0.000000 0.000000
# 2 -0.002097 0.009808 -0.002275 0.000000 0.000000 0.000000
# 3 -0.005141 -0.002275 0.015468 0.000000 0.000000 0.000000
# 4 0.000000 0.000000 0.000000 0.040587 0.000000 0.000000
# 5 0.000000 0.000000 0.000000 0.000000 0.063887 0.000000
# 6 0.000000 0.000000 0.000000 0.000000 0.000000 0.076216
#
#
# Mechanical properties :
#
#
# Convention : Reuss Voigt Hill
#
# Bulk Modulus (GPa) = 30.97924 35.94823 33.46373
# Shear Modulus (GPa) = 19.09988 22.40083 20.75035
#
# Velocity S-wave (km/s) = 3.20249 3.46820 3.33799
# Velocity P-wave (km/s) = 5.50539 5.94481 5.72932
#
# Compressibility (1/GPa) = 0.03227968
#
# Stress axis : x y z
#
# Youngs Moduli (GPa) = 38.41723 101.95872 64.65045
#
# Poissons Ratio (x) = 0.21380 0.33237
# Poissons Ratio (y) = 0.08056 0.14708
# Poissons Ratio (z) = 0.19750 0.23196
#
# Static dielectric constant tensor:
#      x y z
#    x 1.676070 0.000000 0.000000 
#    y 0.000000 1.641600 0.000000 
#    z 0.000000 0.000000 1.637250 
# 
# From -- ./inp_files/21099.got.cif
#   From: 2010.05.17/outbox.cif.g08.bks.cpg/sg67_11_cif.got.tgz:21099.got - 2010.06.03 18:28:57.
