data_PCOD9503227
_publ_section_title
;
Structure prediction by ZEFSAII (Michael W. Deem and Ramdas Pophale) SiO2 
 PCOD9503227
Probable space group: C M M A
;
_chemical_formula_sum "Si O2"
_cell_formula_units_Z 112
_cell_length_a 14.669829
_cell_length_b 14.727329
_cell_length_c 24.781461
_cell_angle_alpha 90.000000
_cell_angle_beta 90.000000
_cell_angle_gamma 90.000000
_cell_volume 5353.970169
_symmetry_space_group_name_H-M "C M M A"
_symmetry_group_IT_number 67
_symmetry_cell_setting 'orthorhombic'
loop_
_space_group_symop_operation_xyz
x,y,z
-x,1/2-y,z
x,-y,-z
-x,1/2+y,-z
-x,-y,-z
x,1/2+y,-z
-x,y,z
x,1/2-y,z
1/2+x,1/2+y,z
1/2-x,-y,z
1/2+x,1/2-y,-z
1/2-x,y,-z
1/2-x,1/2-y,-z
1/2+x,y,-z
1/2-x,1/2+y,z
1/2+x,-y,z
loop_
_atom_site_type_symbol
_atom_site_label
_atom_site_fract_x
_atom_site_fract_y
_atom_site_fract_z
Si Si1 0.606327 0.645429 0.487562
Si Si2 0.901667 0.152644 0.675875
Si Si3 0.895035 0.858761 0.844593
Si Si4 0.895035 0.641813 0.142959
Si Si5 0.766270 0.098021 0.763106
Si Si6 0.350502 0.480072 0.414231
Si Si7 0.738220 0.359151 0.939381
O O1 0.500000 0.648541 0.503264
O O2 0.636319 0.750000 0.478249
O O3 0.655038 0.591998 0.536223
O O4 0.612189 0.575259 0.437404
O O5 0.899171 0.250000 0.646185
O O6 0.816945 0.152126 0.716362
O O7 0.899824 0.070919 0.633979
O O8 0.000000 0.148745 0.705611
O O9 0.901138 0.750000 0.850841
O O10 0.826144 0.871816 0.793669
O O11 0.840738 0.893832 0.898213
O O12 0.000000 0.892349 0.838894
O O13 0.888685 0.750000 0.155953
O O14 0.842298 0.590502 0.190045
O O15 0.834523 0.627495 0.090209
O O16 0.000000 0.617916 0.137032
O O17 0.750000 0.000000 0.739211
O O18 0.250000 0.500000 0.394840
O O19 0.722736 0.250000 0.943095
O O20 0.750000 0.394074 0.000000
#
# Coordination Sequence:
#
# PCOD9503227 Si02
#       7
#    16  16  16  16  16  16  16
#     4  10  20  36  60  87 118 159 203 245 287 337
#     4  11  23  40  63  86 111 146 188 242 304 358
#     4   9  18  33  53  76 105 143 184 225 275 340
#     4   9  17  31  52  76 102 135 179 230 280 333
#     4  11  22  36  54  79 107 137 179 231 285 345
#     4  11  22  36  56  87 123 156 193 239 290 351
#     4   8  14  25  44  75 111 140 173 224 281 335
#
# _framework density 20.919056999999999
#
# number of rings (size 3 to 8) (size 9 to 14) (size 15 to 20)
#    0.000    2.143    0.000    6.000    0.000    5.714 
#    0.000    2.857    0.000    6.857    0.000   12.000 
#    0.000    0.000    0.000    0.000    0.000    0.000 
#
# Total GULP energy -312176.847189 kJ/mol
# GULP energy per Si atom -5574.586557 kJ/mol
# Density = 2.087144 g / cm^3
# Si number density = 20.919057 Si / 1000 Ang^3
#
#
#
# Elastic Constant Matrix: (Units=GPa)
#
#
# Indices 1 2 3 4 5 6 
#
# 1 161.0967 30.0961 42.1705 0.0000 0.0000 0.0000
# 2 30.0961 119.1337 33.8099 0.0000 0.0000 0.0000
# 3 42.1705 33.8099 87.8304 0.0000 0.0000 0.0000
# 4 0.0000 0.0000 0.0000 -36.6546 0.0000 0.0000
# 5 0.0000 0.0000 0.0000 0.0000 18.1709 0.0000
# 6 0.0000 0.0000 0.0000 0.0000 0.0000 18.1137
#
#
#
# Elastic Compliance Matrix: (Units=1/GPa)
#
#
# Indices 1 2 3 4 5 6 
#
# 1 0.007192 -0.000940 -0.003092 0.000000 0.000000 0.000000
# 2 -0.000940 0.009546 -0.003224 0.000000 0.000000 0.000000
# 3 -0.003092 -0.003224 0.014111 0.000000 0.000000 0.000000
# 4 0.000000 0.000000 0.000000 -0.027282 0.000000 0.000000
# 5 0.000000 0.000000 0.000000 0.000000 0.055033 0.000000
# 6 0.000000 0.000000 0.000000 0.000000 0.000000 0.055207
#
#
# Mechanical properties :
#
#
# Convention : Reuss Voigt Hill
#
# Bulk Modulus (GPa) = 61.20045 64.46821 62.83433
# Shear Modulus (GPa) = 37.37944 17.39164 27.38554
#
# Velocity S-wave (km/s) = 4.23171 2.88649 3.62210
# Velocity P-wave (km/s) = 7.29355 6.48027 6.89891
#
# Compressibility (1/GPa) = 0.01633975
#
# Stress axis : x y z
#
# Youngs Moduli (GPa) = 139.03811 104.75438 70.86725
#
# Poissons Ratio (x) = 0.09842 0.21909
# Poissons Ratio (y) = 0.13063 0.22845
# Poissons Ratio (z) = 0.42985 0.33769
#
# Static dielectric constant tensor:
#      x y z
#    x 1.760930 0.000000 0.000000 
#    y 0.000000 1.808570 0.000000 
#    z 0.000000 0.000000 1.736550 
# 
# From -- ./inp_files/41964.got.cif
#   From: 2010.05.17/outbox.cif.g08.bks.cpg/sg67_21_cif.got.tgz:41964.got - 2010.06.03 18:28:57.
