data_PCOD9503627
_publ_section_title
;
Structure prediction by ZEFSAII (Michael W. Deem and Ramdas Pophale) SiO2 
 PCOD9503627
Probable space group: C M M A
;
_chemical_formula_sum "Si O2"
_cell_formula_units_Z 72
_cell_length_a 15.824327
_cell_length_b 8.463421
_cell_length_c 28.926977
_cell_angle_alpha 90.000000
_cell_angle_beta 90.000000
_cell_angle_gamma 90.000000
_cell_volume 3874.130482
_symmetry_space_group_name_H-M "C M M A"
_symmetry_group_IT_number 67
_symmetry_cell_setting 'orthorhombic'
loop_
_space_group_symop_operation_xyz
x,y,z
-x,1/2-y,z
x,-y,-z
-x,1/2+y,-z
-x,-y,-z
x,1/2+y,-z
-x,y,z
x,1/2-y,z
1/2+x,1/2+y,z
1/2-x,-y,z
1/2+x,1/2-y,-z
1/2-x,y,-z
1/2-x,1/2-y,-z
1/2+x,y,-z
1/2-x,1/2+y,z
1/2+x,-y,z
loop_
_atom_site_type_symbol
_atom_site_label
_atom_site_fract_x
_atom_site_fract_y
_atom_site_fract_z
Si Si1 0.000000 0.056924 0.217752
Si Si2 0.000000 0.939943 0.888864
Si Si3 0.842715 0.440747 0.279456
Si Si4 0.500000 0.558644 0.447780
Si Si5 0.157332 0.561459 0.052168
Si Si6 0.157266 0.940677 0.614142
O O1 0.083288 0.005018 0.245500
O O2 0.000000 0.250000 0.218249
O O3 0.000000 0.007432 0.164530
O O4 0.000000 0.750000 0.890153
O O5 0.916899 0.000892 0.915035
O O6 0.842210 0.250000 0.279126
O O7 0.750000 0.500000 0.265928
O O8 0.858685 0.491254 0.332659
O O9 0.500000 0.750000 0.447788
O O10 0.500000 0.500000 0.500000
O O11 0.583176 0.505524 0.419799
O O12 0.158227 0.750000 0.051368
O O13 0.250000 0.500000 0.066552
O O14 0.142317 0.500000 0.000000
O O15 0.157840 0.750000 0.613903
O O16 0.250000 0.000000 0.600572
#
# Coordination Sequence:
#
# PCOD9503627 Si02
#       6
#     8   8  16   8  16  16
#     4   9  19  34  54  77 106 142 176 209 256 312
#     4  11  22  37  55  81 115 150 183 219 265 321
#     4   9  17  33  55  78 101 132 172 215 257 304
#     4  10  21  35  50  72 101 136 169 206 254 309
#     4  11  22  39  61  85 110 142 183 228 273 320
#     4   9  18  33  54  76 100 130 170 213 257 304
#
# _framework density 18.584816
#
# number of rings (size 3 to 8) (size 9 to 14) (size 15 to 20)
#    0.000    2.222    0.000    4.000    0.000    4.889 
#    0.000    7.222    0.000    5.333    0.000    0.000 
#    0.000    0.000    0.000    0.000    0.000    0.000 
#
# Total GULP energy -201014.496024 kJ/mol
# GULP energy per Si atom -5583.736001 kJ/mol
# Density = 1.854252 g / cm^3
# Si number density = 18.584816 Si / 1000 Ang^3
#
#
#
# Elastic Constant Matrix: (Units=GPa)
#
#
# Indices 1 2 3 4 5 6 
#
# 1 213.7857 39.7117 148.8307 0.0000 0.0000 0.0000
# 2 39.7117 52.8398 33.6907 0.0000 0.0000 0.0000
# 3 148.8307 33.6907 141.8367 0.0000 0.0000 0.0000
# 4 0.0000 0.0000 0.0000 19.4238 0.0000 0.0000
# 5 0.0000 0.0000 0.0000 0.0000 -8.1936 0.0000
# 6 0.0000 0.0000 0.0000 0.0000 0.0000 32.1186
#
#
#
# Elastic Compliance Matrix: (Units=1/GPa)
#
#
# Indices 1 2 3 4 5 6 
#
# 1 0.017485 -0.001700 -0.017943 0.000000 0.000000 0.000000
# 2 -0.001700 0.022468 -0.003553 0.000000 0.000000 0.000000
# 3 -0.017943 -0.003553 0.026722 0.000000 0.000000 0.000000
# 4 0.000000 0.000000 0.000000 0.051483 0.000000 0.000000
# 5 0.000000 0.000000 0.000000 0.000000 -0.122046 0.000000
# 6 0.000000 0.000000 0.000000 0.000000 0.000000 0.031135
#
#
# Mechanical properties :
#
#
# Convention : Reuss Voigt Hill
#
# Bulk Modulus (GPa) = 49.30285 94.76985 72.03635
# Shear Modulus (GPa) = 62.18810 21.08501 41.63655
#
# Velocity S-wave (km/s) = 5.79089 3.37193 4.73837
# Velocity P-wave (km/s) = 8.44386 8.14025 8.29345
#
# Compressibility (1/GPa) = 0.02028280
#
# Stress axis : x y z
#
# Youngs Moduli (GPa) = 57.19216 44.50726 37.42183
#
# Poissons Ratio (x) = 0.07567 0.67147
# Poissons Ratio (y) = 0.09723 0.13296
# Poissons Ratio (z) = 1.02621 0.15813
#
# Static dielectric constant tensor:
#      x y z
#    x 1.621760 0.000000 0.000000 
#    y 0.000000 1.638760 0.000000 
#    z 0.000000 0.000000 1.621710 
# 
# From -- ./inp_files/44274.got.cif
#   From: 2010.05.17/outbox.cif.g08.bks.cpg/sg67_23_cif.got.tgz:44274.got - 2010.06.03 18:28:57.
