data_PCOD9503716
_publ_section_title
;
Structure prediction by ZEFSAII (Michael W. Deem and Ramdas Pophale) SiO2 
 PCOD9503716
Probable space group: C M M A
;
_chemical_formula_sum "Si O2"
_cell_formula_units_Z 104
_cell_length_a 14.545695
_cell_length_b 21.459594
_cell_length_c 17.648986
_cell_angle_alpha 90.000000
_cell_angle_beta 90.000000
_cell_angle_gamma 90.000000
_cell_volume 5509.037602
_symmetry_space_group_name_H-M "C M M A"
_symmetry_group_IT_number 67
_symmetry_cell_setting 'orthorhombic'
loop_
_space_group_symop_operation_xyz
x,y,z
-x,1/2-y,z
x,-y,-z
-x,1/2+y,-z
-x,-y,-z
x,1/2+y,-z
-x,y,z
x,1/2-y,z
1/2+x,1/2+y,z
1/2-x,-y,z
1/2+x,1/2-y,-z
1/2-x,y,-z
1/2-x,1/2-y,-z
1/2+x,y,-z
1/2-x,1/2+y,z
1/2+x,-y,z
loop_
_atom_site_type_symbol
_atom_site_label
_atom_site_fract_x
_atom_site_fract_y
_atom_site_fract_z
Si Si1 0.767058 0.174216 0.085586
Si Si2 0.889039 0.894785 0.621830
Si Si3 0.750000 0.500000 0.643771
Si Si4 0.889977 0.177797 0.224067
Si Si5 0.099781 0.824306 0.187851
Si Si6 0.610878 0.319460 0.473208
Si Si7 0.606572 0.096538 0.335135
O O1 0.770675 0.250000 0.080767
O O2 0.850585 0.157445 0.142217
O O3 0.679105 0.153981 0.133482
O O4 0.750000 0.151752 0.000000
O O5 0.865323 0.866236 0.704658
O O6 0.871977 0.842635 0.558028
O O7 0.000000 0.909223 0.620114
O O8 0.822627 0.953141 0.603436
O O9 0.677889 0.543420 0.687610
O O10 0.858753 0.250000 0.237967
O O11 0.000000 0.178650 0.221174
O O12 0.104284 0.750000 0.191846
O O13 0.108358 0.851108 0.271345
O O14 0.000000 0.842549 0.157546
O O15 0.500000 0.316455 0.464120
O O16 0.647173 0.250000 0.458703
O O17 0.639473 0.371750 0.413114
O O18 0.500000 0.074994 0.342922
#
# Coordination Sequence:
#
# PCOD9503716 Si02
#       7
#    16  16   8  16  16  16  16
#     4   9  17  28  44  72 109 141 164 191 240 310
#     4  10  21  36  54  76 102 135 174 213 254 299
#     4  12  24  37  50  70 103 142 178 214 251 296
#     4   9  17  31  52  76 102 132 167 209 255 301
#     4   9  17  31  52  76 102 132 167 209 255 301
#     4   9  18  35  58  80 104 134 169 213 259 300
#     4  10  21  36  54  76 102 135 174 213 254 299
#
# _framework density 18.878070000000001
#
# number of rings (size 3 to 8) (size 9 to 14) (size 15 to 20)
#    0.000    2.462    0.000    2.308    0.000    6.154 
#    0.000    8.462    0.000    0.000    0.000    8.615 
#    0.000   19.692    0.000    0.000    0.000    0.000 
#
# Total GULP energy -289647.131110 kJ/mol
# GULP energy per Si atom -5570.137137 kJ/mol
# Density = 1.883510 g / cm^3
# Si number density = 18.878070 Si / 1000 Ang^3
#
#
#
# Elastic Constant Matrix: (Units=GPa)
#
#
# Indices 1 2 3 4 5 6 
#
# 1 74.0793 22.7526 26.9066 0.0000 0.0000 0.0000
# 2 22.7526 32.4081 18.8250 0.0000 0.0000 0.0000
# 3 26.9066 18.8250 97.0936 0.0000 0.0000 0.0000
# 4 0.0000 0.0000 0.0000 -19.5922 0.0000 0.0000
# 5 0.0000 0.0000 0.0000 0.0000 21.4297 0.0000
# 6 0.0000 0.0000 0.0000 0.0000 0.0000 12.8106
#
#
#
# Elastic Compliance Matrix: (Units=1/GPa)
#
#
# Indices 1 2 3 4 5 6 
#
# 1 0.017879 -0.010902 -0.002841 0.000000 0.000000 0.000000
# 2 -0.010902 0.041420 -0.005010 0.000000 0.000000 0.000000
# 3 -0.002841 -0.005010 0.012058 0.000000 0.000000 0.000000
# 4 0.000000 0.000000 0.000000 -0.051041 0.000000 0.000000
# 5 0.000000 0.000000 0.000000 0.000000 0.046664 0.000000
# 6 0.000000 0.000000 0.000000 0.000000 0.000000 0.078061
#
#
# Mechanical properties :
#
#
# Convention : Reuss Voigt Hill
#
# Bulk Modulus (GPa) = 29.54018 37.83882 33.68950
# Shear Modulus (GPa) = 25.79559 11.93607 18.86583
#
# Velocity S-wave (km/s) = 3.70054 2.51723 3.16468
# Velocity P-wave (km/s) = 5.82585 5.34190 5.58911
#
# Compressibility (1/GPa) = 0.03385220
#
# Stress axis : x y z
#
# Youngs Moduli (GPa) = 55.93027 24.14265 82.93311
#
# Poissons Ratio (x) = 0.26321 0.23561
# Poissons Ratio (y) = 0.60977 0.41546
# Poissons Ratio (z) = 0.15890 0.12094
#
# Static dielectric constant tensor:
#      x y z
#    x 1.723820 0.000000 0.000000 
#    y 0.000000 1.670060 0.000000 
#    z 0.000000 0.000000 1.647400 
# 
# From -- ./inp_files/33709.got.cif
#   From: 2010.05.17/outbox.cif.g08.bks.cpg/sg67_17_cif.got.tgz:33709.got - 2010.06.03 18:28:57.
