data_PCOD9503628
_publ_section_title
;
Structure prediction by ZEFSAII (Michael W. Deem and Ramdas Pophale) SiO2 
 PCOD9503628
Probable space group: C M M A
;
_chemical_formula_sum "Si O2"
_cell_formula_units_Z 96
_cell_length_a 32.185862
_cell_length_b 14.910098
_cell_length_c 9.667818
_cell_angle_alpha 90.000000
_cell_angle_beta 90.000000
_cell_angle_gamma 90.000000
_cell_volume 4639.531299
_symmetry_space_group_name_H-M "C M M A"
_symmetry_group_IT_number 67
_symmetry_cell_setting 'orthorhombic'
loop_
_space_group_symop_operation_xyz
x,y,z
-x,1/2-y,z
x,-y,-z
-x,1/2+y,-z
-x,-y,-z
x,1/2+y,-z
-x,y,z
x,1/2-y,z
1/2+x,1/2+y,z
1/2-x,-y,z
1/2+x,1/2-y,-z
1/2-x,y,-z
1/2-x,1/2-y,-z
1/2+x,y,-z
1/2-x,1/2+y,z
1/2+x,-y,z
loop_
_atom_site_type_symbol
_atom_site_label
_atom_site_fract_x
_atom_site_fract_y
_atom_site_fract_z
Si Si1 0.453462 0.858428 0.383625
Si Si2 0.209903 0.097484 0.571981
Si Si3 0.623646 0.854666 0.897088
Si Si4 0.784837 0.140493 0.890498
Si Si5 0.115693 0.855034 0.406341
Si Si6 0.045231 0.402574 0.068331
O O1 0.500000 0.874548 0.440832
O O2 0.449733 0.750000 0.362189
O O3 0.416976 0.891370 0.483358
O O4 0.450828 0.902381 0.233055
O O5 0.250000 0.142083 0.500000
O O6 0.218528 0.099555 0.736630
O O7 0.164098 0.138681 0.552419
O O8 0.207024 0.000000 0.500000
O O9 0.630406 0.750000 0.868726
O O10 0.669103 0.886039 0.943893
O O11 0.612393 0.896151 0.747597
O O12 0.586251 0.860923 0.002871
O O13 0.781855 0.250000 0.875852
O O14 0.750000 0.113231 0.000000
O O15 0.104466 0.750000 0.397431
O O16 0.000000 0.359319 0.037083
O O17 0.043990 0.500000 0.000000
#
# Coordination Sequence:
#
# PCOD9503628 Si02
#       6
#    16  16  16  16  16  16
#     4   9  18  33  52  76 106 137 172 215 261 311
#     4  10  21  36  53  79 112 144 179 219 269 326
#     4   9  18  34  56  81 105 131 172 222 267 312
#     4   9  19  37  59  82 109 141 181 230 277 324
#     4   9  19  35  56  81 106 135 174 219 264 316
#     4  10  21  35  50  72 104 141 180 218 259 313
#
# _framework density 20.691745000000001
#
# number of rings (size 3 to 8) (size 9 to 14) (size 15 to 20)
#    0.000    2.667    0.000    2.000    0.000    7.000 
#    0.000   10.000    0.000    3.500    0.000    0.000 
#    0.000    0.000    0.000    0.000    0.000    0.000 
#
# Total GULP energy -267480.212892 kJ/mol
# GULP energy per Si atom -5572.504435 kJ/mol
# Density = 2.064465 g / cm^3
# Si number density = 20.691745 Si / 1000 Ang^3
#
#
#
# Elastic Constant Matrix: (Units=GPa)
#
#
# Indices 1 2 3 4 5 6 
#
# 1 189.8177 -0.2026 112.9978 0.0000 0.0000 0.0000
# 2 -0.2026 44.4671 13.3882 0.0000 0.0000 0.0000
# 3 112.9978 13.3882 111.9452 0.0000 0.0000 0.0000
# 4 0.0000 0.0000 0.0000 -11.9081 0.0000 0.0000
# 5 0.0000 0.0000 0.0000 0.0000 41.4202 0.0000
# 6 0.0000 0.0000 0.0000 0.0000 0.0000 51.3812
#
#
#
# Elastic Compliance Matrix: (Units=1/GPa)
#
#
# Indices 1 2 3 4 5 6 
#
# 1 0.014012 0.004484 -0.014680 0.000000 0.000000 0.000000
# 2 0.004484 0.024763 -0.007487 0.000000 0.000000 0.000000
# 3 -0.014680 -0.007487 0.024646 0.000000 0.000000 0.000000
# 4 0.000000 0.000000 0.000000 -0.083976 0.000000 0.000000
# 5 0.000000 0.000000 0.000000 0.000000 0.024143 0.000000
# 6 0.000000 0.000000 0.000000 0.000000 0.000000 0.019462
#
#
# Mechanical properties :
#
#
# Convention : Reuss Voigt Hill
#
# Bulk Modulus (GPa) = 35.64525 66.51075 51.07800
# Shear Modulus (GPa) = 73.78032 30.84841 52.31437
#
# Velocity S-wave (km/s) = 5.97782 3.86535 5.03365
# Velocity P-wave (km/s) = 8.05667 7.22043 7.64999
#
# Compressibility (1/GPa) = 0.02805423
#
# Stress axis : x y z
#
# Youngs Moduli (GPa) = 71.36823 40.38242 40.57413
#
# Poissons Ratio (x) = -0.18106 0.59562
# Poissons Ratio (y) = -0.31999 0.30379
# Poissons Ratio (z) = 1.04767 0.30236
#
# Static dielectric constant tensor:
#      x y z
#    x 1.772040 0.000000 0.000000 
#    y 0.000000 1.794580 0.000000 
#    z 0.000000 0.000000 1.719290 
# 
# From -- ./inp_files/13692.got.cif
#   From: 2010.05.17/outbox.cif.g08.bks.cpg/sg67_7_cif.got.tgz:13692.got - 2010.06.03 18:28:57.
