data_PCOD9503428
_publ_section_title
;
Structure prediction by ZEFSAII (Michael W. Deem and Ramdas Pophale) SiO2 
 PCOD9503428
Probable space group: C M M A
;
_chemical_formula_sum "Si O2"
_cell_formula_units_Z 84
_cell_length_a 15.268914
_cell_length_b 22.206924
_cell_length_c 11.161232
_cell_angle_alpha 90.000000
_cell_angle_beta 90.000000
_cell_angle_gamma 90.000000
_cell_volume 3784.501580
_symmetry_space_group_name_H-M "C M M A"
_symmetry_group_IT_number 67
_symmetry_cell_setting 'orthorhombic'
loop_
_space_group_symop_operation_xyz
x,y,z
-x,1/2-y,z
x,-y,-z
-x,1/2+y,-z
-x,-y,-z
x,1/2+y,-z
-x,y,z
x,1/2-y,z
1/2+x,1/2+y,z
1/2-x,-y,z
1/2+x,1/2-y,-z
1/2-x,y,-z
1/2-x,1/2-y,-z
1/2+x,y,-z
1/2-x,1/2+y,z
1/2+x,-y,z
loop_
_atom_site_type_symbol
_atom_site_label
_atom_site_fract_x
_atom_site_fract_y
_atom_site_fract_z
Si Si1 0.000000 0.679264 0.110373
Si Si2 0.745464 0.130120 0.727446
Si Si3 0.345398 0.818697 0.057603
Si Si4 0.689900 0.750000 0.617071
Si Si5 0.000000 0.750000 0.342357
Si Si6 0.404548 0.413807 0.587931
Si Si7 0.903371 0.953280 0.311299
O O1 0.000000 0.750000 0.076989
O O2 0.000000 0.690757 0.253869
O O3 0.086262 0.657109 0.041179
O O4 0.673270 0.137966 0.831343
O O5 0.793927 0.192770 0.702599
O O6 0.683862 0.120824 0.612892
O O7 0.818600 0.078637 0.745213
O O8 0.368469 0.750000 0.097463
O O9 0.250000 0.814439 0.000000
O O10 0.750000 0.750000 0.500000
O O11 0.588030 0.750000 0.582899
O O12 0.500000 0.386523 0.617438
O O13 0.406189 0.428670 0.447480
O O14 0.395292 0.475314 0.665562
O O15 0.000000 0.941851 0.254565
#
# Coordination Sequence:
#
# PCOD9503428 Si02
#       7
#     8  16  16   8   4  16  16
#     4   8  18  36  65  78  98 153 214 262 281 333
#     4  12  22  35  58  86 125 161 192 250 324 361
#     4  10  20  38  57  83 113 148 207 262 291 350
#     4  12  26  39  52  93 135 168 195 234 301 397
#     4  10  22  44  68  78 116 180 216 242 284 350
#     4   9  19  37  61  83 116 157 212 259 298 363
#     4   9  19  37  59  86 112 159 216 257 292 368
#
# _framework density 22.195789999999999
#
# number of rings (size 3 to 8) (size 9 to 14) (size 15 to 20)
#    0.286    1.714    0.952    4.571    2.667    1.524 
#    3.429    0.000    0.000    2.286    0.000    2.667 
#    0.000    0.000    0.000    0.000    0.000    0.000 
#
# Total GULP energy -234199.836031 kJ/mol
# GULP energy per Si atom -5576.186572 kJ/mol
# Density = 2.214527 g / cm^3
# Si number density = 22.195790 Si / 1000 Ang^3
#
#
#
# Elastic Constant Matrix: (Units=GPa)
#
#
# Indices 1 2 3 4 5 6 
#
# 1 151.4346 19.3481 26.1825 0.0000 0.0000 0.0000
# 2 19.3481 33.7384 -3.7809 0.0000 0.0000 0.0000
# 3 26.1825 -3.7809 53.1723 0.0000 0.0000 0.0000
# 4 0.0000 0.0000 0.0000 17.0693 0.0000 0.0000
# 5 0.0000 0.0000 0.0000 0.0000 37.3615 0.0000
# 6 0.0000 0.0000 0.0000 0.0000 0.0000 29.4789
#
#
#
# Elastic Compliance Matrix: (Units=1/GPa)
#
#
# Indices 1 2 3 4 5 6 
#
# 1 0.007994 -0.005066 -0.004296 0.000000 0.000000 0.000000
# 2 -0.005066 0.033088 0.004847 0.000000 0.000000 0.000000
# 3 -0.004296 0.004847 0.021267 0.000000 0.000000 0.000000
# 4 0.000000 0.000000 0.000000 0.058585 0.000000 0.000000
# 5 0.000000 0.000000 0.000000 0.000000 0.026766 0.000000
# 6 0.000000 0.000000 0.000000 0.000000 0.000000 0.033923
#
#
# Mechanical properties :
#
#
# Convention : Reuss Voigt Hill
#
# Bulk Modulus (GPa) = 18.75504 35.76052 27.25778
# Shear Modulus (GPa) = 23.98959 29.88831 26.93895
#
# Velocity S-wave (km/s) = 3.29115 3.67355 3.48759
# Velocity P-wave (km/s) = 4.78648 5.84292 5.34088
#
# Compressibility (1/GPa) = 0.05331899
#
# Stress axis : x y z
#
# Youngs Moduli (GPa) = 125.10133 30.22242 47.02134
#
# Poissons Ratio (x) = 0.15309 0.20202
# Poissons Ratio (y) = 0.63371 -0.22792
# Poissons Ratio (z) = 0.53747 -0.14649
#
# Static dielectric constant tensor:
#      x y z
#    x 1.877920 0.000000 0.000000 
#    y 0.000000 1.888370 0.000000 
#    z 0.000000 0.000000 1.938990 
# 
# From -- ./inp_files/18146.got.cif
#   From: 2010.05.17/outbox.cif.g08.bks.cpg/sg67_10_cif.got.tgz:18146.got - 2010.06.03 18:28:57.
