data_PCOD9503396
_publ_section_title
;
Structure prediction by ZEFSAII (Michael W. Deem and Ramdas Pophale) SiO2 
 PCOD9503396
Probable space group: C M M A
;
_chemical_formula_sum "Si O2"
_cell_formula_units_Z 64
_cell_length_a 21.575013
_cell_length_b 14.580605
_cell_length_c 9.162844
_cell_angle_alpha 90.000000
_cell_angle_beta 90.000000
_cell_angle_gamma 90.000000
_cell_volume 2882.417617
_symmetry_space_group_name_H-M "C M M A"
_symmetry_group_IT_number 67
_symmetry_cell_setting 'orthorhombic'
loop_
_space_group_symop_operation_xyz
x,y,z
-x,1/2-y,z
x,-y,-z
-x,1/2+y,-z
-x,-y,-z
x,1/2+y,-z
-x,y,z
x,1/2-y,z
1/2+x,1/2+y,z
1/2-x,-y,z
1/2+x,1/2-y,-z
1/2-x,y,-z
1/2-x,1/2-y,-z
1/2+x,y,-z
1/2-x,1/2+y,z
1/2+x,-y,z
loop_
_atom_site_type_symbol
_atom_site_label
_atom_site_fract_x
_atom_site_fract_y
_atom_site_fract_z
Si Si1 0.219695 0.355077 0.339052
Si Si2 0.100796 0.515825 0.659481
Si Si3 0.158035 0.358545 0.831330
Si Si4 0.933119 0.858052 0.916383
O O1 0.198054 0.250000 0.311036
O O2 0.250000 0.354656 0.500000
O O3 0.334414 0.571590 0.349401
O O4 0.270886 0.377685 0.214621
O O5 0.073931 0.500000 0.500000
O O6 0.116168 0.416566 0.722732
O O7 0.065727 0.577367 0.776573
O O8 0.150344 0.250000 0.810636
O O9 0.128167 0.380466 0.988813
O O10 0.929667 0.750000 0.879456
O O11 0.000000 0.870922 0.995675
#
# Coordination Sequence:
#
# PCOD9503396 Si02
#       4
#    16  16  16  16
#     4  10  20  37  62  93 133 168 208 264 325 393
#     4  12  23  36  65  98 133 168 213 265 333 399
#     4  10  22  39  63  92 127 175 218 266 324 386
#     4  10  24  47  68  90 126 171 224 280 328 382
#
# _framework density 22.203583999999999
#
# number of rings (size 3 to 8) (size 9 to 14) (size 15 to 20)
#    0.000    1.500    2.500    2.250    0.000    4.500 
#    0.000    6.250    0.000    3.000    0.000    0.000 
#    0.000    0.000    0.000    0.000    0.000    0.000 
#
# Total GULP energy -178685.756724 kJ/mol
# GULP energy per Si atom -5583.929898 kJ/mol
# Density = 2.215305 g / cm^3
# Si number density = 22.203584 Si / 1000 Ang^3
#
#
#
# Elastic Constant Matrix: (Units=GPa)
#
#
# Indices 1 2 3 4 5 6 
#
# 1 109.9880 23.3298 50.6437 0.0000 0.0000 0.0000
# 2 23.3298 54.1728 26.5337 0.0000 0.0000 0.0000
# 3 50.6437 26.5337 96.5601 0.0000 0.0000 0.0000
# 4 0.0000 0.0000 0.0000 35.8888 0.0000 0.0000
# 5 0.0000 0.0000 0.0000 0.0000 9.2130 0.0000
# 6 0.0000 0.0000 0.0000 0.0000 0.0000 38.1430
#
#
#
# Elastic Compliance Matrix: (Units=1/GPa)
#
#
# Indices 1 2 3 4 5 6 
#
# 1 0.012264 -0.002463 -0.005756 0.000000 0.000000 0.000000
# 2 -0.002463 0.021825 -0.004706 0.000000 0.000000 0.000000
# 3 -0.005756 -0.004706 0.014668 0.000000 0.000000 0.000000
# 4 0.000000 0.000000 0.000000 0.027864 0.000000 0.000000
# 5 0.000000 0.000000 0.000000 0.000000 0.108543 0.000000
# 6 0.000000 0.000000 0.000000 0.000000 0.000000 0.026217
#
#
# Mechanical properties :
#
#
# Convention : Reuss Voigt Hill
#
# Bulk Modulus (GPa) = 43.65033 51.30394 47.47714
# Shear Modulus (GPa) = 20.41938 27.32987 23.87462
#
# Velocity S-wave (km/s) = 3.03585 3.51219 3.28267
# Velocity P-wave (km/s) = 5.65600 6.29314 5.98306
#
# Compressibility (1/GPa) = 0.02290933
#
# Stress axis : x y z
#
# Youngs Moduli (GPa) = 81.53635 45.81941 68.17526
#
# Poissons Ratio (x) = 0.11284 0.39240
# Poissons Ratio (y) = 0.20079 0.32081
# Poissons Ratio (z) = 0.46930 0.21561
#
# Static dielectric constant tensor:
#      x y z
#    x 1.847260 0.000000 0.000000 
#    y 0.000000 1.781250 0.000000 
#    z 0.000000 0.000000 1.842590 
# 
# From -- ./inp_files/12074.got.cif
#   From: 2010.05.17/outbox.cif.g08.bks.cpg/sg67_7_cif.got.tgz:12074.got - 2010.06.03 18:28:57.
