data_PCOD9503200
_publ_section_title
;
Structure prediction by ZEFSAII (Michael W. Deem and Ramdas Pophale) SiO2 
 PCOD9503200
Probable space group: C M M A
;
_chemical_formula_sum "Si O2"
_cell_formula_units_Z 72
_cell_length_a 16.166657
_cell_length_b 8.739371
_cell_length_c 25.824212
_cell_angle_alpha 90.000000
_cell_angle_beta 90.000000
_cell_angle_gamma 90.000000
_cell_volume 3648.610291
_symmetry_space_group_name_H-M "C M M A"
_symmetry_group_IT_number 67
_symmetry_cell_setting 'orthorhombic'
loop_
_space_group_symop_operation_xyz
x,y,z
-x,1/2-y,z
x,-y,-z
-x,1/2+y,-z
-x,-y,-z
x,1/2+y,-z
-x,y,z
x,1/2-y,z
1/2+x,1/2+y,z
1/2-x,-y,z
1/2+x,1/2-y,-z
1/2-x,y,-z
1/2-x,1/2-y,-z
1/2+x,y,-z
1/2-x,1/2+y,z
1/2+x,-y,z
loop_
_atom_site_type_symbol
_atom_site_label
_atom_site_fract_x
_atom_site_fract_y
_atom_site_fract_z
Si Si1 0.500000 0.434977 0.442465
Si Si2 0.158031 0.569334 0.948037
Si Si3 0.337188 0.434781 0.378222
Si Si4 0.596327 0.436549 0.268409
Si Si5 0.901089 0.075995 0.843854
O O1 0.500000 0.250000 0.443963
O O2 0.500000 0.500000 0.500000
O O3 0.416905 0.481856 0.411837
O O4 0.161686 0.750000 0.953616
O O5 0.250000 0.500000 0.945730
O O6 0.117365 0.522274 0.894115
O O7 0.117414 0.500000 0.000000
O O8 0.333978 0.250000 0.378773
O O9 0.250000 0.500000 0.396916
O O10 0.353638 0.485399 0.318843
O O11 0.500000 0.482457 0.274951
O O12 0.596599 0.250000 0.266969
O O13 0.628774 0.485825 0.211901
O O14 0.869470 0.250000 0.852043
O O15 0.000000 0.085606 0.837977
#
# Coordination Sequence:
#
# PCOD9503200 Si02
#       5
#     8  16  16  16  16
#     4  10  22  40  62  84 116 158 197 238 287 340
#     4  11  22  37  55  73 100 137 180 228 279 334
#     4  10  20  36  59  87 116 152 196 239 286 341
#     4   8  14  30  56  80 107 145 185 223 272 335
#     4   9  18  33  55  82 109 140 178 220 269 330
#
# _framework density 19.733540999999999
#
# number of rings (size 3 to 8) (size 9 to 14) (size 15 to 20)
#    0.000    2.444    1.111    4.000    0.000    3.111 
#    0.000    5.556    0.000    1.333    0.000    0.000 
#    0.000    0.000    0.000    0.000    0.000    0.000 
#
# Total GULP energy -200810.824234 kJ/mol
# GULP energy per Si atom -5578.078451 kJ/mol
# Density = 1.968863 g / cm^3
# Si number density = 19.733541 Si / 1000 Ang^3
#
#
#
# Elastic Constant Matrix: (Units=GPa)
#
#
# Indices 1 2 3 4 5 6 
#
# 1 93.0886 20.5114 62.5102 0.0000 0.0000 0.0000
# 2 20.5114 59.7904 43.2346 0.0000 0.0000 0.0000
# 3 62.5102 43.2346 170.0846 0.0000 0.0000 0.0000
# 4 0.0000 0.0000 0.0000 27.1349 0.0000 0.0000
# 5 0.0000 0.0000 0.0000 0.0000 -8.0502 0.0000
# 6 0.0000 0.0000 0.0000 0.0000 0.0000 19.4766
#
#
#
# Elastic Compliance Matrix: (Units=1/GPa)
#
#
# Indices 1 2 3 4 5 6 
#
# 1 0.014352 -0.001359 -0.004929 0.000000 0.000000 0.000000
# 2 -0.001359 0.020620 -0.004742 0.000000 0.000000 0.000000
# 3 -0.004929 -0.004742 0.008896 0.000000 0.000000 0.000000
# 4 0.000000 0.000000 0.000000 0.036853 0.000000 0.000000
# 5 0.000000 0.000000 0.000000 0.000000 -0.124221 0.000000
# 6 0.000000 0.000000 0.000000 0.000000 0.000000 0.051344
#
#
# Mechanical properties :
#
#
# Convention : Reuss Voigt Hill
#
# Bulk Modulus (GPa) = 45.85502 63.94179 54.89841
# Shear Modulus (GPa) = 134.50193 20.82610 77.66401
#
# Velocity S-wave (km/s) = 8.26481 3.25216 6.28027
# Velocity P-wave (km/s) = 10.69409 6.82459 8.97047
#
# Compressibility (1/GPa) = 0.02180786
#
# Stress axis : x y z
#
# Youngs Moduli (GPa) = 69.67689 48.49575 112.40468
#
# Poissons Ratio (x) = 0.06592 0.55406
# Poissons Ratio (y) = 0.09471 0.53303
# Poissons Ratio (z) = 0.34345 0.22997
#
# Static dielectric constant tensor:
#      x y z
#    x 1.704750 0.000000 0.000000 
#    y 0.000000 1.686390 0.000000 
#    z 0.000000 0.000000 1.733120 
# 
# From -- ./inp_files/42125.got.cif
#   From: 2010.05.17/outbox.cif.g08.bks.cpg/sg67_22_cif.got.tgz:42125.got - 2010.06.03 18:28:57.
