data_PCOD9503580
_publ_section_title
;
Structure prediction by ZEFSAII (Michael W. Deem and Ramdas Pophale) SiO2 
 PCOD9503580
Probable space group: C M M A
;
_chemical_formula_sum "Si O2"
_cell_formula_units_Z 60
_cell_length_a 18.202512
_cell_length_b 19.510123
_cell_length_c 8.396878
_cell_angle_alpha 90.000000
_cell_angle_beta 90.000000
_cell_angle_gamma 90.000000
_cell_volume 2982.010557
_symmetry_space_group_name_H-M "C M M A"
_symmetry_group_IT_number 67
_symmetry_cell_setting 'orthorhombic'
loop_
_space_group_symop_operation_xyz
x,y,z
-x,1/2-y,z
x,-y,-z
-x,1/2+y,-z
-x,-y,-z
x,1/2+y,-z
-x,y,z
x,1/2-y,z
1/2+x,1/2+y,z
1/2-x,-y,z
1/2+x,1/2-y,-z
1/2-x,y,-z
1/2-x,1/2-y,-z
1/2+x,y,-z
1/2-x,1/2+y,z
1/2+x,-y,z
loop_
_atom_site_type_symbol
_atom_site_label
_atom_site_fract_x
_atom_site_fract_y
_atom_site_fract_z
Si Si1 0.133366 0.750000 0.868879
Si Si2 0.000000 0.250000 0.889132
Si Si3 0.208653 0.884598 0.766824
Si Si4 0.000000 0.870105 0.361629
Si Si5 0.847685 0.076833 0.558662
Si Si6 0.500000 0.250000 0.619511
Si Si7 0.750000 0.000000 0.000000
O O1 0.185667 0.816367 0.858841
O O2 0.076732 0.750000 0.015287
O O3 0.073780 0.750000 0.725004
O O4 0.000000 0.319193 0.786862
O O5 0.158018 0.884410 0.609604
O O6 0.289073 0.893244 0.684822
O O7 0.203399 0.949620 0.885269
O O8 0.072252 0.916034 0.369383
O O9 0.000000 0.817358 0.509696
O O10 0.830416 0.000000 0.500000
#
# Coordination Sequence:
#
# PCOD9503580 Si02
#       7
#     8   4  16   8  16   4   4
#     4  11  24  44  66 100 135 178 214 284 345 400
#     4  10  28  42  62 102 146 172 232 278 348 420
#     4  11  24  41  72  95 136 175 225 279 334 408
#     4  11  23  42  67  93 132 180 223 280 328 397
#     4  11  22  44  67 101 130 178 236 276 327 407
#     4  10  20  42  64  88 132 168 212 262 332 392
#     4  12  24  44  64 102 140 168 212 286 352 400
#
# _framework density 20.120653999999998
#
# number of rings (size 3 to 8) (size 9 to 14) (size 15 to 20)
#    0.000    1.067    5.333    1.200    3.733    4.800 
#    0.000    0.000    0.000    4.800    0.000    0.000 
#    0.000    0.000    0.000    0.000    0.000    0.000 
#
# Total GULP energy -167355.983120 kJ/mol
# GULP energy per Si atom -5578.532771 kJ/mol
# Density = 2.007486 g / cm^3
# Si number density = 20.120654 Si / 1000 Ang^3
#
#
#
# Elastic Constant Matrix: (Units=GPa)
#
#
# Indices 1 2 3 4 5 6 
#
# 1 149.7163 76.6251 55.9278 0.0000 0.0000 0.0000
# 2 76.6251 128.1903 40.4740 0.0000 0.0000 0.0000
# 3 55.9278 40.4740 106.2747 0.0000 0.0000 0.0000
# 4 0.0000 0.0000 0.0000 -0.6885 0.0000 0.0000
# 5 0.0000 0.0000 0.0000 0.0000 1.4080 0.0000
# 6 0.0000 0.0000 0.0000 0.0000 0.0000 26.4457
#
#
#
# Elastic Compliance Matrix: (Units=1/GPa)
#
#
# Indices 1 2 3 4 5 6 
#
# 1 0.010736 -0.005267 -0.003644 0.000000 0.000000 0.000000
# 2 -0.005267 0.011451 -0.001589 0.000000 0.000000 0.000000
# 3 -0.003644 -0.001589 0.011933 0.000000 0.000000 0.000000
# 4 0.000000 0.000000 0.000000 -1.452426 0.000000 0.000000
# 5 0.000000 0.000000 0.000000 0.000000 0.710210 0.000000
# 6 0.000000 0.000000 0.000000 0.000000 0.000000 0.037813
#
#
# Mechanical properties :
#
#
# Convention : Reuss Voigt Hill
#
# Bulk Modulus (GPa) = 76.22467 81.13722 78.68095
# Shear Modulus (GPa) = -7.75303 19.51000 5.87849
#
# Velocity S-wave (km/s) = -1.96510 3.11730 1.71113
# Velocity P-wave (km/s) = 5.72863 7.30545 6.56456
#
# Compressibility (1/GPa) = 0.01311911
#
# Stress axis : x y z
#
# Youngs Moduli (GPa) = 93.14255 87.32884 83.80414
#
# Poissons Ratio (x) = 0.45996 0.30539
# Poissons Ratio (y) = 0.49058 0.13319
# Poissons Ratio (z) = 0.33942 0.13879
#
# Static dielectric constant tensor:
#      x y z
#    x 1.696290 0.000000 0.000000 
#    y 0.000000 1.739230 0.000000 
#    z 0.000000 0.000000 1.755600 
# 
# From -- ./inp_files/9195.got.cif
#   From: 2010.05.17/outbox.cif.g08.bks.cpg/sg67_5_cif.got.tgz:9195.got - 2010.06.03 18:28:57.
