data_PCOD9503970
_publ_section_title
;
Structure prediction by ZEFSAII (Michael W. Deem and Ramdas Pophale) SiO2 
 PCOD9503970
Probable space group: C M M A
;
_chemical_formula_sum "Si O2"
_cell_formula_units_Z 64
_cell_length_a 14.397475
_cell_length_b 10.331660
_cell_length_c 21.841190
_cell_angle_alpha 90.000000
_cell_angle_beta 90.000000
_cell_angle_gamma 90.000000
_cell_volume 3248.873006
_symmetry_space_group_name_H-M "C M M A"
_symmetry_group_IT_number 67
_symmetry_cell_setting 'orthorhombic'
loop_
_space_group_symop_operation_xyz
x,y,z
-x,1/2-y,z
x,-y,-z
-x,1/2+y,-z
-x,-y,-z
x,1/2+y,-z
-x,y,z
x,1/2-y,z
1/2+x,1/2+y,z
1/2-x,-y,z
1/2+x,1/2-y,-z
1/2-x,y,-z
1/2-x,1/2-y,-z
1/2+x,y,-z
1/2-x,1/2+y,z
1/2+x,-y,z
loop_
_atom_site_type_symbol
_atom_site_label
_atom_site_fract_x
_atom_site_fract_y
_atom_site_fract_z
Si Si1 0.611802 0.250000 0.153677
Si Si2 0.388451 0.750000 0.141831
Si Si3 0.250000 0.500000 0.341722
Si Si4 0.887423 0.503982 0.070135
Si Si5 0.388878 0.901844 0.555821
Si Si6 0.235633 0.250000 0.257665
O O1 0.500000 0.250000 0.165187
O O2 0.635933 0.373258 0.111640
O O3 0.670399 0.250000 0.216259
O O4 0.500000 0.750000 0.144217
O O5 0.357255 0.875896 0.105081
O O6 0.346559 0.750000 0.208722
O O7 0.333821 0.455427 0.385823
O O8 0.229158 0.377088 0.299254
O O9 0.000000 0.502966 0.067504
O O10 0.855409 0.500000 0.000000
O O11 0.500000 0.905826 0.565630
O O12 0.364124 0.750000 0.543848
O O13 0.367739 0.000000 0.500000
#
# Coordination Sequence:
#
# PCOD9503970 Si02
#       6
#     8   8   8  16  16   8
#     4  10  21  38  58  81 116 159 202 258 316 370
#     4  10  21  38  56  79 116 153 194 256 312 364
#     4  12  25  42  64  92 129 174 212 258 298 360
#     4   9  17  33  59  85 109 145 195 255 326 386
#     4  10  23  44  71 102 133 164 203 255 313 367
#     4  12  26  40  58  86 122 168 220 248 294 368
#
# _framework density 19.699138999999999
#
# number of rings (size 3 to 8) (size 9 to 14) (size 15 to 20)
#    0.000    1.750    1.250    2.625    1.750    6.000 
#    0.000    3.750    0.000    0.000    0.000    0.000 
#    0.000    0.000    0.000    0.000    0.000    0.000 
#
# Total GULP energy -178831.341362 kJ/mol
# GULP energy per Si atom -5588.479418 kJ/mol
# Density = 1.965430 g / cm^3
# Si number density = 19.699139 Si / 1000 Ang^3
#
#
#
# Elastic Constant Matrix: (Units=GPa)
#
#
# Indices 1 2 3 4 5 6 
#
# 1 86.2136 41.8616 44.4538 0.0000 0.0000 0.0000
# 2 41.8616 234.9912 119.2473 0.0000 0.0000 0.0000
# 3 44.4538 119.2473 174.2464 0.0000 0.0000 0.0000
# 4 0.0000 0.0000 0.0000 48.4132 0.0000 0.0000
# 5 0.0000 0.0000 0.0000 0.0000 17.0394 0.0000
# 6 0.0000 0.0000 0.0000 0.0000 0.0000 30.9081
#
#
#
# Elastic Compliance Matrix: (Units=1/GPa)
#
#
# Indices 1 2 3 4 5 6 
#
# 1 0.013510 -0.001008 -0.002757 0.000000 0.000000 0.000000
# 2 -0.001008 0.006595 -0.004256 0.000000 0.000000 0.000000
# 3 -0.002757 -0.004256 0.009355 0.000000 0.000000 0.000000
# 4 0.000000 0.000000 0.000000 0.020656 0.000000 0.000000
# 5 0.000000 0.000000 0.000000 0.000000 0.058687 0.000000
# 6 0.000000 0.000000 0.000000 0.000000 0.000000 0.032354
#
#
# Mechanical properties :
#
#
# Convention : Reuss Voigt Hill
#
# Bulk Modulus (GPa) = 74.52569 100.73073 87.62821
# Shear Modulus (GPa) = 30.92698 38.59805 34.76251
#
# Velocity S-wave (km/s) = 3.96658 4.43129 4.20536
# Velocity P-wave (km/s) = 7.67414 8.79928 8.25590
#
# Compressibility (1/GPa) = 0.01341819
#
# Stress axis : x y z
#
# Youngs Moduli (GPa) = 74.01939 151.63546 106.89316
#
# Poissons Ratio (x) = 0.15278 0.29472
# Poissons Ratio (y) = 0.07458 0.45495
# Poissons Ratio (z) = 0.20408 0.64538
#
# Static dielectric constant tensor:
#      x y z
#    x 1.723700 0.000000 0.000000 
#    y 0.000000 1.646040 0.000000 
#    z 0.000000 0.000000 1.738930 
# 
# From -- ./inp_files/41733.got.cif
#   From: 2010.05.17/outbox.cif.g08.bks.cpg/sg67_21_cif.got.tgz:41733.got - 2010.06.03 18:28:57.
