data_PCOD9503077
_publ_section_title
;
Structure prediction by ZEFSAII (Michael W. Deem and Ramdas Pophale) SiO2 
 PCOD9503077
Probable space group: C M M A
;
_chemical_formula_sum "Si O2"
_cell_formula_units_Z 96
_cell_length_a 23.877684
_cell_length_b 8.723522
_cell_length_c 26.576512
_cell_angle_alpha 90.000000
_cell_angle_beta 90.000000
_cell_angle_gamma 90.000000
_cell_volume 5535.821053
_symmetry_space_group_name_H-M "C M M A"
_symmetry_group_IT_number 67
_symmetry_cell_setting 'orthorhombic'
loop_
_space_group_symop_operation_xyz
x,y,z
-x,1/2-y,z
x,-y,-z
-x,1/2+y,-z
-x,-y,-z
x,1/2+y,-z
-x,y,z
x,1/2-y,z
1/2+x,1/2+y,z
1/2-x,-y,z
1/2+x,1/2-y,-z
1/2-x,y,-z
1/2-x,1/2-y,-z
1/2+x,y,-z
1/2-x,1/2+y,z
1/2+x,-y,z
loop_
_atom_site_type_symbol
_atom_site_label
_atom_site_fract_x
_atom_site_fract_y
_atom_site_fract_z
Si Si1 0.311999 0.067360 0.853050
Si Si2 0.103247 0.933106 0.765267
Si Si3 0.379062 0.432817 0.051925
Si Si4 0.500000 0.570494 0.072227
Si Si5 0.066088 0.067818 0.551747
Si Si6 0.065629 0.933240 0.656605
Si Si7 0.500000 0.927206 0.821571
O O1 0.310624 0.250000 0.860800
O O2 0.342429 0.038709 0.799479
O O3 0.250000 0.000000 0.853467
O O4 0.347824 0.994474 0.898509
O O5 0.089733 0.750000 0.769881
O O6 0.102192 0.968372 0.705966
O O7 0.054341 0.033904 0.789366
O O8 0.377430 0.250000 0.051024
O O9 0.443135 0.490860 0.054407
O O10 0.354310 0.500000 0.000000
O O11 0.500000 0.750000 0.059268
O O12 0.500000 0.543430 0.131945
O O13 0.069691 0.250000 0.549968
O O14 0.000000 0.023002 0.552576
O O15 0.090171 0.000000 0.500000
O O16 0.087586 0.006968 0.605114
O O17 0.065007 0.750000 0.650091
O O18 0.000000 0.980277 0.665435
O O19 0.500000 0.750000 0.838689
#
# Coordination Sequence:
#
# PCOD9503077 Si02
#       7
#    16  16  16   8  16  16   8
#     4  11  24  42  63  83 108 143 181 225 271 322
#     4  10  20  36  56  77 107 143 178 217 270 324
#     4  12  25  42  63  89 115 143 179 219 266 320
#     4  12  23  39  60  86 119 149 177 213 264 319
#     4   9  16  25  37  57  90 133 176 216 254 299
#     4   9  16  27  45  69  97 134 175 213 257 313
#     4  12  22  31  53  84 111 141 177 217 264 317
#
# _framework density 17.3416
#
# number of rings (size 3 to 8) (size 9 to 14) (size 15 to 20)
#    0.000    1.500    2.500    4.250    0.000    3.667 
#    0.000    1.667    0.000    0.000    0.000    0.000 
#    0.000    0.667    0.000    7.667    0.000    2.667 
#
# Total GULP energy -267892.025907 kJ/mol
# GULP energy per Si atom -5581.083873 kJ/mol
# Density = 1.730213 g / cm^3
# Si number density = 17.341600 Si / 1000 Ang^3
#
#
#
# Elastic Constant Matrix: (Units=GPa)
#
#
# Indices 1 2 3 4 5 6 
#
# 1 79.4334 38.5765 44.7984 0.0000 0.0000 0.0000
# 2 38.5765 71.2906 49.8342 0.0000 0.0000 0.0000
# 3 44.7984 49.8342 166.3503 0.0000 0.0000 0.0000
# 4 0.0000 0.0000 0.0000 30.0006 0.0000 0.0000
# 5 0.0000 0.0000 0.0000 0.0000 5.4375 0.0000
# 6 0.0000 0.0000 0.0000 0.0000 0.0000 18.8486
#
#
#
# Elastic Compliance Matrix: (Units=1/GPa)
#
#
# Indices 1 2 3 4 5 6 
#
# 1 0.017812 -0.007950 -0.002415 0.000000 0.000000 0.000000
# 2 -0.007950 0.021291 -0.004237 0.000000 0.000000 0.000000
# 3 -0.002415 -0.004237 0.007931 0.000000 0.000000 0.000000
# 4 0.000000 0.000000 0.000000 0.033333 0.000000 0.000000
# 5 0.000000 0.000000 0.000000 0.000000 0.183907 0.000000
# 6 0.000000 0.000000 0.000000 0.000000 0.000000 0.053054
#
#
# Mechanical properties :
#
#
# Convention : Reuss Voigt Hill
#
# Bulk Modulus (GPa) = 56.08773 64.83249 60.46011
# Shear Modulus (GPa) = 14.18534 23.11502 18.65018
#
# Velocity S-wave (km/s) = 2.86316 3.65488 3.28298
# Velocity P-wave (km/s) = 6.58357 7.43489 7.02214
#
# Compressibility (1/GPa) = 0.01782921
#
# Stress axis : x y z
#
# Youngs Moduli (GPa) = 56.14116 46.96816 126.08448
#
# Poissons Ratio (x) = 0.37341 0.30452
# Poissons Ratio (y) = 0.44633 0.53425
# Poissons Ratio (z) = 0.13559 0.19901
#
# Static dielectric constant tensor:
#      x y z
#    x 1.562840 0.000000 0.000000 
#    y 0.000000 1.580260 0.000000 
#    z 0.000000 0.000000 1.629980 
# 
# From -- ./inp_files/42605.got.cif
#   From: 2010.05.17/outbox.cif.g08.bks.cpg/sg67_22_cif.got.tgz:42605.got - 2010.06.03 18:28:57.
