data_PCOD9503186
_publ_section_title
;
Structure prediction by ZEFSAII (Michael W. Deem and Ramdas Pophale) SiO2 
 PCOD9503186
Probable space group: C M M A
;
_chemical_formula_sum "Si O2"
_cell_formula_units_Z 96
_cell_length_a 17.066832
_cell_length_b 14.920702
_cell_length_c 19.423208
_cell_angle_alpha 90.000000
_cell_angle_beta 90.000000
_cell_angle_gamma 90.000000
_cell_volume 4946.102715
_symmetry_space_group_name_H-M "C M M A"
_symmetry_group_IT_number 67
_symmetry_cell_setting 'orthorhombic'
loop_
_space_group_symop_operation_xyz
x,y,z
-x,1/2-y,z
x,-y,-z
-x,1/2+y,-z
-x,-y,-z
x,1/2+y,-z
-x,y,z
x,1/2-y,z
1/2+x,1/2+y,z
1/2-x,-y,z
1/2+x,1/2-y,-z
1/2-x,y,-z
1/2-x,1/2-y,-z
1/2+x,y,-z
1/2-x,1/2+y,z
1/2+x,-y,z
loop_
_atom_site_type_symbol
_atom_site_label
_atom_site_fract_x
_atom_site_fract_y
_atom_site_fract_z
Si Si1 0.659830 0.607161 0.005631
Si Si2 0.156874 0.489533 0.603828
Si Si3 0.589801 0.501812 0.246699
Si Si4 0.137950 0.148052 0.856472
Si Si5 0.823679 0.353372 0.157313
Si Si6 0.905868 0.645101 0.510192
O O1 0.635678 0.633251 0.082496
O O2 0.660081 0.500000 0.000000
O O3 0.750000 0.640231 0.000000
O O4 0.616887 0.641079 0.937403
O O5 0.250000 0.500000 0.600500
O O6 0.128294 0.474922 0.681243
O O7 0.129908 0.407204 0.555453
O O8 0.120083 0.581669 0.573550
O O9 0.500000 0.527521 0.258204
O O10 0.594422 0.421164 0.191922
O O11 0.637822 0.582463 0.212581
O O12 0.127105 0.250000 0.833831
O O13 0.231118 0.124758 0.851310
O O14 0.829563 0.250000 0.176947
O O15 0.882125 0.750000 0.515196
O O16 0.000000 0.642413 0.505021
#
# Coordination Sequence:
#
# PCOD9503186 Si02
#       6
#    16  16  16  16  16  16
#     4   9  15  29  57  85 111 142 187 246 299 350
#     4  11  23  40  64  91 121 156 198 243 281 328
#     4  12  25  40  57  80 119 160 195 238 293 352
#     4  10  20  36  59  85 112 147 195 247 297 350
#     4  10  20  36  59  85 112 147 195 247 297 350
#     4  10  21  40  67  97 128 158 187 225 280 343
#
# _framework density 19.409220999999999
#
# number of rings (size 3 to 8) (size 9 to 14) (size 15 to 20)
#    0.000    1.667    1.667    5.000    0.000    5.333 
#    0.000    1.667    0.000    2.000    0.000    0.000 
#    0.000    0.000    0.000    0.000    0.000    0.000 
#
# Total GULP energy -268071.928611 kJ/mol
# GULP energy per Si atom -5584.831846 kJ/mol
# Density = 1.936504 g / cm^3
# Si number density = 19.409221 Si / 1000 Ang^3
#
#
#
# Elastic Constant Matrix: (Units=GPa)
#
#
# Indices 1 2 3 4 5 6 
#
# 1 47.2483 6.1463 -4.2290 0.0000 0.0000 0.0000
# 2 6.1463 80.2372 2.5080 0.0000 0.0000 0.0000
# 3 -4.2290 2.5080 76.4526 0.0000 0.0000 0.0000
# 4 0.0000 0.0000 0.0000 -6.4941 0.0000 0.0000
# 5 0.0000 0.0000 0.0000 0.0000 288.4401 0.0000
# 6 0.0000 0.0000 0.0000 0.0000 0.0000 9.5430
#
#
#
# Elastic Compliance Matrix: (Units=1/GPa)
#
#
# Indices 1 2 3 4 5 6 
#
# 1 0.021495 -0.001685 0.001244 0.000000 0.000000 0.000000
# 2 -0.001685 0.012608 -0.000507 0.000000 0.000000 0.000000
# 3 0.001244 -0.000507 0.013165 0.000000 0.000000 0.000000
# 4 0.000000 0.000000 0.000000 -0.153986 0.000000 0.000000
# 5 0.000000 0.000000 0.000000 0.000000 0.003467 0.000000
# 6 0.000000 0.000000 0.000000 0.000000 0.000000 0.104789
#
#
# Mechanical properties :
#
#
# Convention : Reuss Voigt Hill
#
# Bulk Modulus (GPa) = 22.03959 23.64318 22.84138
# Shear Modulus (GPa) = 269.40824 71.59866 170.50345
#
# Velocity S-wave (km/s) = 11.79430 6.08022 9.38282
# Velocity P-wave (km/s) = 14.03047 7.84219 11.36560
#
# Compressibility (1/GPa) = 0.04537289
#
# Stress axis : x y z
#
# Youngs Moduli (GPa) = 46.52156 79.31473 75.95637
#
# Poissons Ratio (x) = 0.13368 -0.09451
# Poissons Ratio (y) = 0.07841 0.03850
# Poissons Ratio (z) = -0.05789 0.04020
#
# Static dielectric constant tensor:
#      x y z
#    x 1.691860 0.000000 0.000000 
#    y 0.000000 1.668280 0.000000 
#    z 0.000000 0.000000 1.672940 
# 
# From -- ./inp_files/38483.got.cif
#   From: 2010.05.17/outbox.cif.g08.bks.cpg/sg67_20_cif.got.tgz:38483.got - 2010.06.03 18:28:57.
