data_PCOD9503868
_publ_section_title
;
Structure prediction by ZEFSAII (Michael W. Deem and Ramdas Pophale) SiO2 
 PCOD9503868
Probable space group: C M M A
;
_chemical_formula_sum "Si O2"
_cell_formula_units_Z 104
_cell_length_a 22.188933
_cell_length_b 8.084239
_cell_length_c 28.935572
_cell_angle_alpha 90.000000
_cell_angle_beta 90.000000
_cell_angle_gamma 90.000000
_cell_volume 5190.481353
_symmetry_space_group_name_H-M "C M M A"
_symmetry_group_IT_number 67
_symmetry_cell_setting 'orthorhombic'
loop_
_space_group_symop_operation_xyz
x,y,z
-x,1/2-y,z
x,-y,-z
-x,1/2+y,-z
-x,-y,-z
x,1/2+y,-z
-x,y,z
x,1/2-y,z
1/2+x,1/2+y,z
1/2-x,-y,z
1/2+x,1/2-y,-z
1/2-x,y,-z
1/2-x,1/2-y,-z
1/2+x,y,-z
1/2-x,1/2+y,z
1/2+x,-y,z
loop_
_atom_site_type_symbol
_atom_site_label
_atom_site_fract_x
_atom_site_fract_y
_atom_site_fract_z
Si Si1 0.316240 0.949564 0.110528
Si Si2 0.183592 0.449883 0.217373
Si Si3 0.098735 0.055764 0.623483
Si Si4 0.431802 0.554084 0.274762
Si Si5 0.932655 0.050172 0.053433
Si Si6 0.000000 0.551083 0.447650
Si Si7 0.681455 0.445774 0.549483
O O1 0.318019 0.750000 0.110466
O O2 0.320056 0.006017 0.163924
O O3 0.374694 0.009623 0.082270
O O4 0.250000 0.000000 0.092362
O O5 0.182003 0.250000 0.217972
O O6 0.250000 0.500000 0.235480
O O7 0.124825 0.512109 0.245077
O O8 0.087620 0.250000 0.631131
O O9 0.055697 0.991263 0.582692
O O10 0.085359 0.969620 0.671619
O O11 0.160936 0.028181 0.597504
O O12 0.500000 0.486733 0.266738
O O13 0.434990 0.750000 0.265049
O O14 0.932676 0.250000 0.056127
O O15 0.000000 0.994193 0.068952
O O16 0.926162 0.000000 0.000000
O O17 0.000000 0.500000 0.500000
O O18 0.000000 0.750000 0.447022
O O19 0.652036 0.500000 0.500000
O O20 0.674950 0.250000 0.552927
O O21 0.750000 0.500000 0.545334
#
# Coordination Sequence:
#
# PCOD9503868 Si02
#       7
#    16  16  16  16  16   8  16
#     4   9  18  33  53  77 106 140 180 228 278 332
#     4   9  19  36  57  81 108 140 181 227 279 335
#     4  11  22  38  56  79 108 141 176 215 262 316
#     4  10  21  37  57  81 109 142 181 227 277 328
#     4   9  18  32  50  74 106 145 186 228 276 327
#     4  10  22  36  54  78 104 136 172 208 253 304
#     4  11  22  38  58  82 109 141 176 216 261 312
#
# _framework density 20.036677000000001
#
# number of rings (size 3 to 8) (size 9 to 14) (size 15 to 20)
#    0.000    2.154    0.769    2.769    0.000    5.231 
#    0.000    6.154    0.000    0.000    0.000    6.462 
#    0.000    0.000    0.000    0.000    0.000    0.000 
#
# Total GULP energy -289815.548229 kJ/mol
# GULP energy per Si atom -5573.375927 kJ/mol
# Density = 1.999107 g / cm^3
# Si number density = 20.036677 Si / 1000 Ang^3
#
#
#
# Elastic Constant Matrix: (Units=GPa)
#
#
# Indices 1 2 3 4 5 6 
#
# 1 185.8834 1.7994 87.6807 0.0000 0.0000 0.0000
# 2 1.7994 18.3008 -0.0009 0.0000 0.0000 0.0000
# 3 87.6807 -0.0009 84.3010 0.0000 0.0000 0.0000
# 4 0.0000 0.0000 0.0000 20.0533 0.0000 0.0000
# 5 0.0000 0.0000 0.0000 0.0000 -473.3110 0.0000
# 6 0.0000 0.0000 0.0000 0.0000 0.0000 16.0855
#
#
#
# Elastic Compliance Matrix: (Units=1/GPa)
#
#
# Indices 1 2 3 4 5 6 
#
# 1 0.010581 -0.001041 -0.011005 0.000000 0.000000 0.000000
# 2 -0.001041 0.054745 0.001083 0.000000 0.000000 0.000000
# 3 -0.011005 0.001083 0.023308 0.000000 0.000000 0.000000
# 4 0.000000 0.000000 0.000000 0.049867 0.000000 0.000000
# 5 0.000000 0.000000 0.000000 0.000000 -0.002113 0.000000
# 6 0.000000 0.000000 0.000000 0.000000 0.000000 0.062168
#
#
# Mechanical properties :
#
#
# Convention : Reuss Voigt Hill
#
# Bulk Modulus (GPa) = 14.99060 51.93818 33.46439
# Shear Modulus (GPa) = 20.60006 -74.16738 -26.78366
#
# Velocity S-wave (km/s) = 3.20991 -6.09066 -3.66010
# Velocity P-wave (km/s) = 4.60823 4.84600 1.06017
#
# Compressibility (1/GPa) = 0.06670848
#
# Stress axis : x y z
#
# Youngs Moduli (GPa) = 94.51049 18.26662 42.90283
#
# Poissons Ratio (x) = 0.01901 0.47215
# Poissons Ratio (y) = 0.09837 -0.04647
# Poissons Ratio (z) = 1.04009 -0.01978
#
# Static dielectric constant tensor:
#      x y z
#    x 1.972840 0.000000 0.000000 
#    y 0.000000 1.733940 0.000000 
#    z 0.000000 0.000000 1.675890 
# 
# From -- ./inp_files/44698.got.cif
#   From: 2010.05.17/outbox.cif.g08.bks.cpg/sg67_23_cif.got.tgz:44698.got - 2010.06.03 18:28:57.
