data_PCOD9503652
_publ_section_title
;
Structure prediction by ZEFSAII (Michael W. Deem and Ramdas Pophale) SiO2 
 PCOD9503652
Probable space group: C M M A
;
_chemical_formula_sum "Si O2"
_cell_formula_units_Z 88
_cell_length_a 22.154026
_cell_length_b 9.429437
_cell_length_c 22.392992
_cell_angle_alpha 90.000000
_cell_angle_beta 90.000000
_cell_angle_gamma 90.000000
_cell_volume 4677.895860
_symmetry_space_group_name_H-M "C M M A"
_symmetry_group_IT_number 67
_symmetry_cell_setting 'orthorhombic'
loop_
_space_group_symop_operation_xyz
x,y,z
-x,1/2-y,z
x,-y,-z
-x,1/2+y,-z
-x,-y,-z
x,1/2+y,-z
-x,y,z
x,1/2-y,z
1/2+x,1/2+y,z
1/2-x,-y,z
1/2+x,1/2-y,-z
1/2-x,y,-z
1/2-x,1/2-y,-z
1/2+x,y,-z
1/2-x,1/2+y,z
1/2+x,-y,z
loop_
_atom_site_type_symbol
_atom_site_label
_atom_site_fract_x
_atom_site_fract_y
_atom_site_fract_z
Si Si1 0.071239 0.585035 0.669041
Si Si2 0.352399 0.590110 0.440965
Si Si3 0.339516 0.588858 0.745394
Si Si4 0.750000 0.000000 0.645813
Si Si5 0.432256 0.919349 0.062771
Si Si6 0.309537 0.578968 0.135803
O O1 0.091393 0.750000 0.677976
O O2 0.094165 0.541627 0.603232
O O3 0.101551 0.483718 0.717303
O O4 0.000000 0.581149 0.672796
O O5 0.343897 0.500000 0.500000
O O6 0.364751 0.750000 0.459571
O O7 0.294166 0.584206 0.398021
O O8 0.348290 0.750000 0.766178
O O9 0.291838 0.587935 0.690882
O O10 0.317423 0.488018 0.798531
O O11 0.500000 0.952359 0.088196
O O12 0.431035 0.750000 0.052785
O O13 0.372873 0.951803 0.101970
O O14 0.427674 0.000000 0.000000
O O15 0.300797 0.750000 0.137688
O O16 0.250000 0.500000 0.109644
#
# Coordination Sequence:
#
# PCOD9503652 Si02
#       6
#    16  16  16   8  16  16
#     4   9  20  39  58  76 106 148 188 229 286 351
#     4  10  21  35  53  78 105 138 180 227 282 342
#     4  11  22  36  58  85 113 146 189 238 288 343
#     4  10  21  36  56  76 109 144 184 224 282 346
#     4   9  20  40  64  89 119 159 204 247 293 346
#     4  11  23  38  59  89 125 161 200 245 297 355
#
# _framework density 18.811876999999999
#
# number of rings (size 3 to 8) (size 9 to 14) (size 15 to 20)
#    0.000    2.000    0.909    1.909    0.000    9.091 
#    0.000    3.636    0.000    0.000    0.000    0.000 
#    0.000    0.000    0.000    0.000    0.000    0.000 
#
# Total GULP energy -245326.417004 kJ/mol
# GULP energy per Si atom -5575.600386 kJ/mol
# Density = 1.876906 g / cm^3
# Si number density = 18.811877 Si / 1000 Ang^3
#
#
#
# Elastic Constant Matrix: (Units=GPa)
#
#
# Indices 1 2 3 4 5 6 
#
# 1 137.2422 50.6200 48.5932 0.0000 0.0000 0.0000
# 2 50.6200 71.8005 37.4882 0.0000 0.0000 0.0000
# 3 48.5932 37.4882 65.0415 0.0000 0.0000 0.0000
# 4 0.0000 0.0000 0.0000 17.3593 0.0000 0.0000
# 5 0.0000 0.0000 0.0000 0.0000 14.4436 0.0000
# 6 0.0000 0.0000 0.0000 0.0000 0.0000 20.4802
#
#
#
# Elastic Compliance Matrix: (Units=1/GPa)
#
#
# Indices 1 2 3 4 5 6 
#
# 1 0.011019 -0.004964 -0.005371 0.000000 0.000000 0.000000
# 2 -0.004964 0.022159 -0.009063 0.000000 0.000000 0.000000
# 3 -0.005371 -0.009063 0.024612 0.000000 0.000000 0.000000
# 4 0.000000 0.000000 0.000000 0.057606 0.000000 0.000000
# 5 0.000000 0.000000 0.000000 0.000000 0.069235 0.000000
# 6 0.000000 0.000000 0.000000 0.000000 0.000000 0.048828
#
#
# Mechanical properties :
#
#
# Convention : Reuss Voigt Hill
#
# Bulk Modulus (GPa) = 52.65212 60.83189 56.74200
# Shear Modulus (GPa) = 17.94771 19.61547 18.78159
#
# Velocity S-wave (km/s) = 3.09214 3.23262 3.16316
# Velocity P-wave (km/s) = 6.38733 6.80737 6.60069
#
# Compressibility (1/GPa) = 0.01899259
#
# Stress axis : x y z
#
# Youngs Moduli (GPa) = 90.75087 45.12776 40.63117
#
# Poissons Ratio (x) = 0.22402 0.21824
# Poissons Ratio (y) = 0.45050 0.36825
# Poissons Ratio (z) = 0.48746 0.40901
#
# Static dielectric constant tensor:
#      x y z
#    x 1.690410 0.000000 0.000000 
#    y 0.000000 1.670110 0.000000 
#    z 0.000000 0.000000 1.632370 
# 
# From -- ./inp_files/39599.got.cif
#   From: 2010.05.17/outbox.cif.g08.bks.cpg/sg67_20_cif.got.tgz:39599.got - 2010.06.03 18:28:57.
