data_PCOD9503470
_publ_section_title
;
Structure prediction by ZEFSAII (Michael W. Deem and Ramdas Pophale) SiO2 
 PCOD9503470
Probable space group: C M M A
;
_chemical_formula_sum "Si O2"
_cell_formula_units_Z 56
_cell_length_a 14.795466
_cell_length_b 8.501975
_cell_length_c 21.428700
_cell_angle_alpha 90.000000
_cell_angle_beta 90.000000
_cell_angle_gamma 90.000000
_cell_volume 2695.530788
_symmetry_space_group_name_H-M "C M M A"
_symmetry_group_IT_number 67
_symmetry_cell_setting 'orthorhombic'
loop_
_space_group_symop_operation_xyz
x,y,z
-x,1/2-y,z
x,-y,-z
-x,1/2+y,-z
-x,-y,-z
x,1/2+y,-z
-x,y,z
x,1/2-y,z
1/2+x,1/2+y,z
1/2-x,-y,z
1/2+x,1/2-y,-z
1/2-x,y,-z
1/2-x,1/2-y,-z
1/2+x,y,-z
1/2-x,1/2+y,z
1/2+x,-y,z
loop_
_atom_site_type_symbol
_atom_site_label
_atom_site_fract_x
_atom_site_fract_y
_atom_site_fract_z
Si Si1 0.353807 0.561289 0.435355
Si Si2 0.146743 0.560005 0.699362
Si Si3 0.147518 0.439162 0.163901
Si Si4 0.000000 0.063447 0.929923
O O1 0.394692 0.500000 0.500000
O O2 0.353643 0.750000 0.437890
O O3 0.250000 0.500000 0.434699
O O4 0.392898 0.510845 0.367843
O O5 0.145970 0.750000 0.698994
O O6 0.250000 0.500000 0.699377
O O7 0.110630 0.511299 0.767196
O O8 0.147133 0.250000 0.161724
O O9 0.250000 0.500000 0.158687
O O10 0.086238 0.503992 0.108929
O O11 0.000000 0.250000 0.931588
O O12 0.000000 0.000000 0.000000
#
# Coordination Sequence:
#
# PCOD9503470 Si02
#       4
#    16  16  16   8
#     4   9  14  20  31  54  89 131 174 220 268 317
#     4   8  15  26  43  67  99 137 180 224 272 325
#     4  10  20  38  62  89 119 154 192 236 285 338
#     4  12  26  44  64  90 119 150 187 230 279 340
#
# _framework density 20.775129
#
# number of rings (size 3 to 8) (size 9 to 14) (size 15 to 20)
#    0.000    2.571    0.000    3.857    0.000    2.857 
#    0.000    2.857    0.000    0.000    0.000    1.000 
#    0.000    0.000    0.000    0.857    0.000    0.000 
#
# Total GULP energy -156106.502672 kJ/mol
# GULP energy per Si atom -5575.232238 kJ/mol
# Density = 2.072784 g / cm^3
# Si number density = 20.775129 Si / 1000 Ang^3
#
#
#
# Elastic Constant Matrix: (Units=GPa)
#
#
# Indices 1 2 3 4 5 6 
#
# 1 90.9282 21.6084 72.3677 0.0000 0.0000 0.0000
# 2 21.6084 72.9453 67.7353 0.0000 0.0000 0.0000
# 3 72.3677 67.7353 285.9585 0.0000 0.0000 0.0000
# 4 0.0000 0.0000 0.0000 30.6324 0.0000 0.0000
# 5 0.0000 0.0000 0.0000 0.0000 117.6888 0.0000
# 6 0.0000 0.0000 0.0000 0.0000 0.0000 11.9972
#
#
#
# Elastic Compliance Matrix: (Units=1/GPa)
#
#
# Indices 1 2 3 4 5 6 
#
# 1 0.013838 -0.001086 -0.003245 0.000000 0.000000 0.000000
# 2 -0.001086 0.017660 -0.003908 0.000000 0.000000 0.000000
# 3 -0.003245 -0.003908 0.005244 0.000000 0.000000 0.000000
# 4 0.000000 0.000000 0.000000 0.032645 0.000000 0.000000
# 5 0.000000 0.000000 0.000000 0.000000 0.008497 0.000000
# 6 0.000000 0.000000 0.000000 0.000000 0.000000 0.083353
#
#
# Mechanical properties :
#
#
# Convention : Reuss Voigt Hill
#
# Bulk Modulus (GPa) = 49.34984 85.91720 67.63352
# Shear Modulus (GPa) = 27.10468 51.27172 39.18820
#
# Velocity S-wave (km/s) = 3.61594 4.97322 4.34787
# Velocity P-wave (km/s) = 6.42178 8.62687 7.60467
#
# Compressibility (1/GPa) = 0.02026349
#
# Stress axis : x y z
#
# Youngs Moduli (GPa) = 72.26345 56.62603 190.69790
#
# Poissons Ratio (x) = 0.06151 0.61877
# Poissons Ratio (y) = 0.07850 0.74528
# Poissons Ratio (z) = 0.23448 0.22130
#
# Static dielectric constant tensor:
#      x y z
#    x 1.796250 0.000000 0.000000 
#    y 0.000000 1.702050 0.000000 
#    z 0.000000 0.000000 1.809270 
# 
# From -- ./inp_files/36511.got.cif
#   From: 2010.05.17/outbox.cif.g08.bks.cpg/sg67_19_cif.got.tgz:36511.got - 2010.06.03 18:28:57.
