data_PCOD9503381
_publ_section_title
;
Structure prediction by ZEFSAII (Michael W. Deem and Ramdas Pophale) SiO2 
 PCOD9503381
Probable space group: C M M A
;
_chemical_formula_sum "Si O2"
_cell_formula_units_Z 68
_cell_length_a 15.484615
_cell_length_b 7.553494
_cell_length_c 23.911156
_cell_angle_alpha 90.000000
_cell_angle_beta 90.000000
_cell_angle_gamma 90.000000
_cell_volume 2796.719260
_symmetry_space_group_name_H-M "C M M A"
_symmetry_group_IT_number 67
_symmetry_cell_setting 'orthorhombic'
loop_
_space_group_symop_operation_xyz
x,y,z
-x,1/2-y,z
x,-y,-z
-x,1/2+y,-z
-x,-y,-z
x,1/2+y,-z
-x,y,z
x,1/2-y,z
1/2+x,1/2+y,z
1/2-x,-y,z
1/2+x,1/2-y,-z
1/2-x,y,-z
1/2-x,1/2-y,-z
1/2+x,y,-z
1/2-x,1/2+y,z
1/2+x,-y,z
loop_
_atom_site_type_symbol
_atom_site_label
_atom_site_fract_x
_atom_site_fract_y
_atom_site_fract_z
Si Si1 0.250000 0.500000 0.500000
Si Si2 0.403329 0.042728 0.424256
Si Si3 0.147389 0.961292 0.698583
Si Si4 0.149361 0.961513 0.818688
Si Si5 0.902516 0.462237 0.059500
O O1 0.323711 0.443638 0.545828
O O2 0.500000 0.979851 0.438664
O O3 0.394342 0.250000 0.440320
O O4 0.394032 0.033952 0.357500
O O5 0.135912 0.750000 0.697605
O O6 0.112743 0.026736 0.759101
O O7 0.250000 0.000000 0.695369
O O8 0.132918 0.750000 0.819895
O O9 0.127118 0.031844 0.880265
O O10 0.250000 0.000000 0.813382
O O11 0.903114 0.250000 0.063585
O O12 0.000000 0.530537 0.054307
O O13 0.857366 0.500000 0.000000
#
# Coordination Sequence:
#
# PCOD9503381 Si02
#       5
#     4  16  16  16  16
#     4  12  24  44  72  92 126 176 202 244 302 366
#     4  11  25  43  65  96 130 163 205 254 303 359
#     4  10  20  37  62  88 119 158 199 246 303 362
#     4   9  19  34  54  81 111 147 187 234 288 345
#     4   9  18  33  51  72 103 143 188 236 286 340
#
# _framework density 24.314204
#
# number of rings (size 3 to 8) (size 9 to 14) (size 15 to 20)
#    0.000    2.118    1.176    1.412    0.000    4.706 
#    0.000    4.706    0.000    2.824    0.000    0.000 
#    0.000    0.000    0.000    0.000    0.000    0.000 
#
# Total GULP energy -189366.910523 kJ/mol
# GULP energy per Si atom -5569.615015 kJ/mol
# Density = 2.425886 g / cm^3
# Si number density = 24.314204 Si / 1000 Ang^3
#
#
#
# Elastic Constant Matrix: (Units=GPa)
#
#
# Indices 1 2 3 4 5 6 
#
# 1 124.5191 5.0941 69.4777 0.0000 0.0000 0.0000
# 2 5.0941 82.3928 12.5668 0.0000 0.0000 0.0000
# 3 69.4777 12.5668 285.6167 0.0000 0.0000 0.0000
# 4 0.0000 0.0000 0.0000 4.8623 0.0000 0.0000
# 5 0.0000 0.0000 0.0000 0.0000 51.4706 0.0000
# 6 0.0000 0.0000 0.0000 0.0000 0.0000 -0.0095
#
#
#
# Elastic Compliance Matrix: (Units=1/GPa)
#
#
# Indices 1 2 3 4 5 6 
#
# 1 0.009296 -0.000231 -0.002251 0.000000 0.000000 0.000000
# 2 -0.000231 0.012225 -0.000482 0.000000 0.000000 0.000000
# 3 -0.002251 -0.000482 0.004070 0.000000 0.000000 0.000000
# 4 0.000000 0.000000 0.000000 0.205662 0.000000 0.000000
# 5 0.000000 0.000000 0.000000 0.000000 0.019429 0.000000
# 6 0.000000 0.000000 0.000000 0.000000 0.000000**********
#
#
# Mechanical properties :
#
#
# Convention : Reuss Voigt Hill
#
# Bulk Modulus (GPa) = 50.85750 74.08954 62.47352
# Shear Modulus (GPa) = -0.04783 38.29069 19.12143
#
# Velocity S-wave (km/s) = -0.14041 3.97272 2.80738
# Velocity P-wave (km/s) = 4.57558 7.18200 6.02151
#
# Compressibility (1/GPa) = 0.01966278
#
# Stress axis : x y z
#
# Youngs Moduli (GPa) = 107.56759 81.80132 245.69970
#
# Poissons Ratio (x) = 0.01893 0.55313
# Poissons Ratio (y) = 0.02489 0.11833
# Poissons Ratio (z) = 0.24216 0.03939
#
# Static dielectric constant tensor:
#      x y z
#    x 1.886370 0.000000 0.000000 
#    y 0.000000 2.088950 0.000000 
#    z 0.000000 0.000000 2.040900 
# 
# From -- ./inp_files/42096.got.cif
#   From: 2010.05.17/outbox.cif.g08.bks.cpg/sg67_22_cif.got.tgz:42096.got - 2010.06.03 18:28:57.
