data_PCOD9503160
_publ_section_title
;
Structure prediction by ZEFSAII (Michael W. Deem and Ramdas Pophale) SiO2 
 PCOD9503160
Probable space group: C M M A
;
_chemical_formula_sum "Si O2"
_cell_formula_units_Z 88
_cell_length_a 16.414557
_cell_length_b 10.204676
_cell_length_c 26.773706
_cell_angle_alpha 90.000000
_cell_angle_beta 90.000000
_cell_angle_gamma 90.000000
_cell_volume 4484.735939
_symmetry_space_group_name_H-M "C M M A"
_symmetry_group_IT_number 67
_symmetry_cell_setting 'orthorhombic'
loop_
_space_group_symop_operation_xyz
x,y,z
-x,1/2-y,z
x,-y,-z
-x,1/2+y,-z
-x,-y,-z
x,1/2+y,-z
-x,y,z
x,1/2-y,z
1/2+x,1/2+y,z
1/2-x,-y,z
1/2+x,1/2-y,-z
1/2-x,y,-z
1/2-x,1/2-y,-z
1/2+x,y,-z
1/2-x,1/2+y,z
1/2+x,-y,z
loop_
_atom_site_type_symbol
_atom_site_label
_atom_site_fract_x
_atom_site_fract_y
_atom_site_fract_z
Si Si1 0.094717 0.250000 0.528476
Si Si2 0.097928 0.400969 0.043142
Si Si3 0.332927 0.527918 0.594463
Si Si4 0.325853 0.404368 0.848390
Si Si5 0.590523 0.405326 0.746626
Si Si6 0.402813 0.750000 0.415598
Si Si7 0.750000 0.000000 0.687636
O O1 0.114944 0.376359 0.561395
O O2 0.130733 0.250000 0.472761
O O3 0.000000 0.250000 0.518832
O O4 0.115419 0.250000 0.029218
O O5 0.138590 0.427430 0.096500
O O6 0.000000 0.413273 0.048571
O O7 0.125075 0.500000 0.000000
O O8 0.250000 0.500000 0.564669
O O9 0.373901 0.388432 0.606799
O O10 0.297897 0.588897 0.646159
O O11 0.302431 0.250000 0.844633
O O12 0.250000 0.500000 0.839779
O O13 0.393189 0.427379 0.805533
O O14 0.500000 0.458548 0.732155
O O15 0.587061 0.250000 0.737684
O O16 0.674414 0.451006 0.720364
O O17 0.500000 0.750000 0.413401
#
# Coordination Sequence:
#
# PCOD9503160 Si02
#       7
#     8  16  16  16  16   8   8
#     4  11  23  41  63  91 125 161 203 250 301 357
#     4   9  18  33  54  81 115 154 200 251 304 365
#     4  10  24  39  60  90 122 157 196 251 303 357
#     4  10  20  36  58  86 118 155 203 257 304 363
#     4  10  21  39  67  90 116 162 211 258 308 370
#     4  11  23  41  65  91 121 163 209 246 291 367
#     4  10  24  40  61  92 123 154 204 258 308 370
#
# _framework density 19.622115000000001
#
# number of rings (size 3 to 8) (size 9 to 14) (size 15 to 20)
#    0.545    1.455    0.909    2.182    2.545    8.364 
#    0.000    1.818    0.000    2.727    0.000    0.000 
#    0.000    0.000    0.000    0.000    0.000    0.000 
#
# Total GULP energy -244956.237924 kJ/mol
# GULP energy per Si atom -5567.187226 kJ/mol
# Density = 1.957745 g / cm^3
# Si number density = 19.622115 Si / 1000 Ang^3
#
#
#
# Elastic Constant Matrix: (Units=GPa)
#
#
# Indices 1 2 3 4 5 6 
#
# 1 116.1847 46.5424 39.6171 0.0000 0.0000 0.0000
# 2 46.5424 67.1105 29.7670 0.0000 0.0000 0.0000
# 3 39.6171 29.7670 95.7097 0.0000 0.0000 0.0000
# 4 0.0000 0.0000 0.0000 100.4277 0.0000 0.0000
# 5 0.0000 0.0000 0.0000 0.0000 23.0175 0.0000
# 6 0.0000 0.0000 0.0000 0.0000 0.0000 31.2249
#
#
#
# Elastic Compliance Matrix: (Units=1/GPa)
#
#
# Indices 1 2 3 4 5 6 
#
# 1 0.012572 -0.007436 -0.002891 0.000000 0.000000 0.000000
# 2 -0.007436 0.021684 -0.003666 0.000000 0.000000 0.000000
# 3 -0.002891 -0.003666 0.012785 0.000000 0.000000 0.000000
# 4 0.000000 0.000000 0.000000 0.009957 0.000000 0.000000
# 5 0.000000 0.000000 0.000000 0.000000 0.043445 0.000000
# 6 0.000000 0.000000 0.000000 0.000000 0.000000 0.032026
#
#
# Mechanical properties :
#
#
# Convention : Reuss Voigt Hill
#
# Bulk Modulus (GPa) = 52.48159 56.76200 54.62179
# Shear Modulus (GPa) = 29.97470 41.80591 35.89031
#
# Velocity S-wave (km/s) = 3.91269 4.62080 4.28141
# Velocity P-wave (km/s) = 6.87142 7.58020 7.23449
#
# Compressibility (1/GPa) = 0.01905430
#
# Stress axis : x y z
#
# Youngs Moduli (GPa) = 79.54358 46.11669 78.21625
#
# Poissons Ratio (x) = 0.34294 0.22612
# Poissons Ratio (y) = 0.59152 0.28673
# Poissons Ratio (z) = 0.22996 0.16906
#
# Static dielectric constant tensor:
#      x y z
#    x 1.722460 0.000000 0.000000 
#    y 0.000000 1.685500 0.000000 
#    z 0.000000 0.000000 1.714360 
# 
# From -- ./inp_files/44329.got.cif
#   From: 2010.05.17/outbox.cif.g08.bks.cpg/sg67_23_cif.got.tgz:44329.got - 2010.06.03 18:28:57.
