data_PCOD9503332
_publ_section_title
;
Structure prediction by ZEFSAII (Michael W. Deem and Ramdas Pophale) SiO2 
 PCOD9503332
Probable space group: C M M A
;
_chemical_formula_sum "Si O2"
_cell_formula_units_Z 72
_cell_length_a 21.510798
_cell_length_b 8.756723
_cell_length_c 19.952599
_cell_angle_alpha 90.000000
_cell_angle_beta 90.000000
_cell_angle_gamma 90.000000
_cell_volume 3758.353345
_symmetry_space_group_name_H-M "C M M A"
_symmetry_group_IT_number 67
_symmetry_cell_setting 'orthorhombic'
loop_
_space_group_symop_operation_xyz
x,y,z
-x,1/2-y,z
x,-y,-z
-x,1/2+y,-z
-x,-y,-z
x,1/2+y,-z
-x,y,z
x,1/2-y,z
1/2+x,1/2+y,z
1/2-x,-y,z
1/2+x,1/2-y,-z
1/2-x,y,-z
1/2-x,1/2-y,-z
1/2+x,y,-z
1/2-x,1/2+y,z
1/2+x,-y,z
loop_
_atom_site_type_symbol
_atom_site_label
_atom_site_fract_x
_atom_site_fract_y
_atom_site_fract_z
Si Si1 0.924952 0.076114 0.068560
Si Si2 0.927818 0.067837 0.788090
Si Si3 0.813513 0.068536 0.294118
Si Si4 0.862773 0.933936 0.424933
Si Si5 0.000000 0.567454 0.425855
O O1 0.902230 0.250000 0.076832
O O2 0.000000 0.084303 0.062496
O O3 0.914087 0.976893 0.134837
O O4 0.901434 0.000000 0.000000
O O5 0.924773 0.250000 0.778438
O O6 0.000000 0.021141 0.773422
O O7 0.874833 0.989068 0.744236
O O8 0.810907 0.250000 0.293677
O O9 0.750000 0.000000 0.264187
O O10 0.818690 0.006578 0.370066
O O11 0.857082 0.750000 0.426949
O O12 0.932732 0.975759 0.398699
O O13 0.855111 0.000000 0.500000
O O14 0.000000 0.500000 0.500000
O O15 0.000000 0.750000 0.428864
#
# Coordination Sequence:
#
# PCOD9503332 Si02
#       5
#    16  16  16  16   8
#     4   9  16  28  50  83 121 157 195 240 289 339
#     4  10  21  38  61  89 121 157 197 242 292 347
#     4  12  26  43  61  84 115 155 198 244 297 353
#     4  10  20  37  59  86 115 149 190 238 293 349
#     4   8  16  30  52  80 112 142 173 218 277 336
#
# _framework density 19.157325
#
# number of rings (size 3 to 8) (size 9 to 14) (size 15 to 20)
#    0.000    2.000    0.000    4.000    1.556    5.333 
#    0.000    2.222    0.000    0.667    0.000    4.667 
#    0.000    0.000    0.000    0.000    0.000    0.000 
#
# Total GULP energy -200836.050494 kJ/mol
# GULP energy per Si atom -5578.779180 kJ/mol
# Density = 1.911372 g / cm^3
# Si number density = 19.157325 Si / 1000 Ang^3
#
#
#
# Elastic Constant Matrix: (Units=GPa)
#
#
# Indices 1 2 3 4 5 6 
#
# 1 114.7710 53.3724 56.8248 0.0000 0.0000 0.0000
# 2 53.3724 108.3645 40.4455 0.0000 0.0000 0.0000
# 3 56.8248 40.4455 93.7413 0.0000 0.0000 0.0000
# 4 0.0000 0.0000 0.0000 33.0446 0.0000 0.0000
# 5 0.0000 0.0000 0.0000 0.0000 5.1480 0.0000
# 6 0.0000 0.0000 0.0000 0.0000 0.0000 20.8348
#
#
#
# Elastic Compliance Matrix: (Units=1/GPa)
#
#
# Indices 1 2 3 4 5 6 
#
# 1 0.014052 -0.004460 -0.006594 0.000000 0.000000 0.000000
# 2 -0.004460 0.012415 -0.002653 0.000000 0.000000 0.000000
# 3 -0.006594 -0.002653 0.015809 0.000000 0.000000 0.000000
# 4 0.000000 0.000000 0.000000 0.030262 0.000000 0.000000
# 5 0.000000 0.000000 0.000000 0.000000 0.194252 0.000000
# 6 0.000000 0.000000 0.000000 0.000000 0.000000 0.047997
#
#
# Mechanical properties :
#
#
# Convention : Reuss Voigt Hill
#
# Bulk Modulus (GPa) = 67.28208 68.68466 67.98337
# Shear Modulus (GPa) = 14.40286 22.88777 18.64532
#
# Velocity S-wave (km/s) = 2.74491 3.46023 3.12312
# Velocity P-wave (km/s) = 6.72630 7.20382 6.96915
#
# Compressibility (1/GPa) = 0.01486280
#
# Stress axis : x y z
#
# Youngs Moduli (GPa) = 71.16642 80.54852 63.25379
#
# Poissons Ratio (x) = 0.35923 0.41707
# Poissons Ratio (y) = 0.31739 0.16781
# Poissons Ratio (z) = 0.46925 0.21370
#
# Static dielectric constant tensor:
#      x y z
#    x 1.704660 0.000000 0.000000 
#    y 0.000000 1.658470 0.000000 
#    z 0.000000 0.000000 1.661790 
# 
# From -- ./inp_files/39227.got.cif
#   From: 2010.05.17/outbox.cif.g08.bks.cpg/sg67_20_cif.got.tgz:39227.got - 2010.06.03 18:28:57.
