data_PCOD9503043
_publ_section_title
;
Structure prediction by ZEFSAII (Michael W. Deem and Ramdas Pophale) SiO2 
 PCOD9503043
Probable space group: C M M A
;
_chemical_formula_sum "Si O2"
_cell_formula_units_Z 104
_cell_length_a 9.089729
_cell_length_b 30.792431
_cell_length_c 20.300780
_cell_angle_alpha 90.000000
_cell_angle_beta 90.000000
_cell_angle_gamma 90.000000
_cell_volume 5682.083835
_symmetry_space_group_name_H-M "C M M A"
_symmetry_group_IT_number 67
_symmetry_cell_setting 'orthorhombic'
loop_
_space_group_symop_operation_xyz
x,y,z
-x,1/2-y,z
x,-y,-z
-x,1/2+y,-z
-x,-y,-z
x,1/2+y,-z
-x,y,z
x,1/2-y,z
1/2+x,1/2+y,z
1/2-x,-y,z
1/2+x,1/2-y,-z
1/2-x,y,-z
1/2-x,1/2-y,-z
1/2+x,y,-z
1/2-x,1/2+y,z
1/2+x,-y,z
loop_
_atom_site_type_symbol
_atom_site_label
_atom_site_fract_x
_atom_site_fract_y
_atom_site_fract_z
Si Si1 0.323504 0.084144 0.429545
Si Si2 0.674561 0.955674 0.709476
Si Si3 0.171304 0.669315 0.631242
Si Si4 0.170404 0.800763 0.782487
Si Si5 0.175111 0.885355 0.184301
Si Si6 0.176410 0.454903 0.929280
Si Si7 0.327614 0.750000 0.569020
O O1 0.500000 0.090731 0.437838
O O2 0.250000 0.073036 0.500000
O O3 0.302422 0.050911 0.368802
O O4 0.243766 0.126660 0.399836
O O5 0.500000 0.959087 0.720762
O O6 0.726194 0.913929 0.752005
O O7 0.750000 0.000000 0.731361
O O8 0.174417 0.678350 0.709256
O O9 0.269465 0.708029 0.605037
O O10 0.000000 0.671942 0.610518
O O11 0.222241 0.750000 0.782090
O O12 0.256461 0.837584 0.822641
O O13 0.000000 0.799645 0.803007
O O14 0.203857 0.916303 0.122011
O O15 0.000000 0.879744 0.191906
O O16 0.250000 0.500000 0.905825
O O17 0.000000 0.460534 0.935749
O O18 0.250000 0.445759 0.000000
O O19 0.500000 0.750000 0.562647
O O20 0.250000 0.750000 0.500000
#
# Coordination Sequence:
#
# PCOD9503043 Si02
#       7
#    16  16  16  16  16  16   8
#     4  11  23  39  56  76 104 141 186 235 289 348
#     4  10  22  38  57  81 110 143 188 235 284 343
#     4  11  21  37  56  77 105 137 180 232 288 350
#     4  10  21  37  58  85 114 146 187 235 285 341
#     4  10  21  38  59  87 119 153 192 235 281 336
#     4  10  20  35  59  91 129 163 197 234 275 333
#     4  12  24  36  52  74 102 138 177 228 291 352
#
# _framework density 18.303145000000001
#
# number of rings (size 3 to 8) (size 9 to 14) (size 15 to 20)
#    0.000    1.538    2.308    3.462    0.000    4.308 
#    0.000    1.538    0.000    0.462    0.000    0.000 
#    0.000    0.000    0.000    0.000    0.000    0.000 
#
# Total GULP energy -289977.253209 kJ/mol
# GULP energy per Si atom -5576.485639 kJ/mol
# Density = 1.826149 g / cm^3
# Si number density = 18.303145 Si / 1000 Ang^3
#
#
#
# Elastic Constant Matrix: (Units=GPa)
#
#
# Indices 1 2 3 4 5 6 
#
# 1 91.8224 59.7611 43.9368 0.0000 0.0000 0.0000
# 2 59.7611 130.8019 42.0681 0.0000 0.0000 0.0000
# 3 43.9368 42.0681 70.3774 0.0000 0.0000 0.0000
# 4 0.0000 0.0000 0.0000 36.9317 0.0000 0.0000
# 5 0.0000 0.0000 0.0000 0.0000 24.4057 0.0000
# 6 0.0000 0.0000 0.0000 0.0000 0.0000 33.3160
#
#
#
# Elastic Compliance Matrix: (Units=1/GPa)
#
#
# Indices 1 2 3 4 5 6 
#
# 1 0.018597 -0.005896 -0.008086 0.000000 0.000000 0.000000
# 2 -0.005896 0.011334 -0.003094 0.000000 0.000000 0.000000
# 3 -0.008086 -0.003094 0.021106 0.000000 0.000000 0.000000
# 4 0.000000 0.000000 0.000000 0.027077 0.000000 0.000000
# 5 0.000000 0.000000 0.000000 0.000000 0.040974 0.000000
# 6 0.000000 0.000000 0.000000 0.000000 0.000000 0.030016
#
#
# Mechanical properties :
#
#
# Convention : Reuss Voigt Hill
#
# Bulk Modulus (GPa) = 59.22114 64.94817 62.08465
# Shear Modulus (GPa) = 26.47121 28.74640 27.60881
#
# Velocity S-wave (km/s) = 3.80711 3.96734 3.88805
# Velocity P-wave (km/s) = 7.19384 7.51985 7.35865
#
# Compressibility (1/GPa) = 0.01688586
#
# Stress axis : x y z
#
# Youngs Moduli (GPa) = 53.77211 88.22965 47.37883
#
# Poissons Ratio (x) = 0.52021 0.38309
# Poissons Ratio (y) = 0.31705 0.14659
# Poissons Ratio (z) = 0.43479 0.27298
#
# Static dielectric constant tensor:
#      x y z
#    x 1.618940 0.000000 0.000000 
#    y 0.000000 1.623700 0.000000 
#    z 0.000000 0.000000 1.643700 
# 
# From -- ./inp_files/37335.got.cif
#   From: 2010.05.17/outbox.cif.g08.bks.cpg/sg67_19_cif.got.tgz:37335.got - 2010.06.03 18:28:57.
