data_PCOD9503391
_publ_section_title
;
Structure prediction by ZEFSAII (Michael W. Deem and Ramdas Pophale) SiO2 
 PCOD9503391
Probable space group: C M M A
;
_chemical_formula_sum "Si O2"
_cell_formula_units_Z 60
_cell_length_a 9.241052
_cell_length_b 19.423158
_cell_length_c 17.251355
_cell_angle_alpha 90.000000
_cell_angle_beta 90.000000
_cell_angle_gamma 90.000000
_cell_volume 3096.452835
_symmetry_space_group_name_H-M "C M M A"
_symmetry_group_IT_number 67
_symmetry_cell_setting 'orthorhombic'
loop_
_space_group_symop_operation_xyz
x,y,z
-x,1/2-y,z
x,-y,-z
-x,1/2+y,-z
-x,-y,-z
x,1/2+y,-z
-x,y,z
x,1/2-y,z
1/2+x,1/2+y,z
1/2-x,-y,z
1/2+x,1/2-y,-z
1/2-x,y,-z
1/2-x,1/2-y,-z
1/2+x,y,-z
1/2-x,1/2+y,z
1/2+x,-y,z
loop_
_atom_site_type_symbol
_atom_site_label
_atom_site_fract_x
_atom_site_fract_y
_atom_site_fract_z
Si Si1 0.250000 0.359007 0.500000
Si Si2 0.667894 0.071147 0.657421
Si Si3 0.170855 0.169557 0.774292
Si Si4 0.327389 0.929439 0.918529
Si Si5 0.500000 0.750000 0.539590
O O1 0.312756 0.405443 0.568848
O O2 0.373879 0.310056 0.465147
O O3 0.500000 0.062561 0.676016
O O4 0.736236 0.130548 0.710445
O O5 0.750000 0.000000 0.671753
O O6 0.207621 0.250000 0.779323
O O7 0.191791 0.130186 0.855512
O O8 0.000000 0.164651 0.754063
O O9 0.500000 0.940433 0.929157
O O10 0.250000 0.000000 0.891118
O O11 0.250000 0.912612 0.000000
#
# Coordination Sequence:
#
# PCOD9503391 Si02
#       5
#     8  16  16  16   4
#     4  11  25  42  68  94 126 166 208 252 314 368
#     4  12  27  43  64  92 124 162 211 258 309 368
#     4  10  24  42  64  91 125 164 204 253 312 369
#     4  10  20  37  62  91 122 161 204 248 303 364
#     4  10  24  42  66  98 128 158 200 266 304 374
#
# _framework density 19.377009000000001
#
# number of rings (size 3 to 8) (size 9 to 14) (size 15 to 20)
#    0.000    1.333    1.333    3.600    7.467    6.400 
#    0.000    0.000    0.000    0.000    0.000    0.000 
#    0.000    0.000    0.000    0.000    0.000    0.000 
#
# Total GULP energy -167218.886118 kJ/mol
# GULP energy per Si atom -5573.962871 kJ/mol
# Density = 1.933291 g / cm^3
# Si number density = 19.377009 Si / 1000 Ang^3
#
#
#
# Elastic Constant Matrix: (Units=GPa)
#
#
# Indices 1 2 3 4 5 6 
#
# 1 138.3805 87.5962 49.2570 0.0000 0.0000 0.0000
# 2 87.5962 162.3172 72.2586 0.0000 0.0000 0.0000
# 3 49.2570 72.2586 81.9512 0.0000 0.0000 0.0000
# 4 0.0000 0.0000 0.0000 -7.0357 0.0000 0.0000
# 5 0.0000 0.0000 0.0000 0.0000 21.9775 0.0000
# 6 0.0000 0.0000 0.0000 0.0000 0.0000 29.1869
#
#
#
# Elastic Compliance Matrix: (Units=1/GPa)
#
#
# Indices 1 2 3 4 5 6 
#
# 1 0.011237 -0.005033 -0.002316 0.000000 0.000000 0.000000
# 2 -0.005033 0.012396 -0.007905 0.000000 0.000000 0.000000
# 3 -0.002316 -0.007905 0.020564 0.000000 0.000000 0.000000
# 4 0.000000 0.000000 0.000000 -0.142133 0.000000 0.000000
# 5 0.000000 0.000000 0.000000 0.000000 0.045501 0.000000
# 6 0.000000 0.000000 0.000000 0.000000 0.000000 0.034262
#
#
# Mechanical properties :
#
#
# Convention : Reuss Voigt Hill
#
# Bulk Modulus (GPa) = 73.04990 88.98582 81.01786
# Shear Modulus (GPa) = 295.89411 20.39488 158.14450
#
# Velocity S-wave (km/s) = 12.37074 3.24779 9.04388
# Velocity P-wave (km/s) = 15.55082 7.75160 12.28648
#
# Compressibility (1/GPa) = 0.01368927
#
# Stress axis : x y z
#
# Youngs Moduli (GPa) = 88.99308 80.67284 48.62806
#
# Poissons Ratio (x) = 0.40602 0.11263
# Poissons Ratio (y) = 0.44790 0.38439
# Poissons Ratio (z) = 0.20613 0.63769
#
# Static dielectric constant tensor:
#      x y z
#    x 1.653030 0.000000 0.000000 
#    y 0.000000 1.641030 0.000000 
#    z 0.000000 0.000000 1.685570 
# 
# From -- ./inp_files/31640.got.cif
#   From: 2010.05.17/outbox.cif.g08.bks.cpg/sg67_16_cif.got.tgz:31640.got - 2010.06.03 18:28:57.
