data_PCOD9503182
_publ_section_title
;
Structure prediction by ZEFSAII (Michael W. Deem and Ramdas Pophale) SiO2 
 PCOD9503182
Probable space group: C M M A
;
_chemical_formula_sum "Si O2"
_cell_formula_units_Z 48
_cell_length_a 17.763041
_cell_length_b 13.527672
_cell_length_c 9.102530
_cell_angle_alpha 90.000000
_cell_angle_beta 90.000000
_cell_angle_gamma 90.000000
_cell_volume 2187.270531
_symmetry_space_group_name_H-M "C M M A"
_symmetry_group_IT_number 67
_symmetry_cell_setting 'orthorhombic'
loop_
_space_group_symop_operation_xyz
x,y,z
-x,1/2-y,z
x,-y,-z
-x,1/2+y,-z
-x,-y,-z
x,1/2+y,-z
-x,y,z
x,1/2-y,z
1/2+x,1/2+y,z
1/2-x,-y,z
1/2+x,1/2-y,-z
1/2-x,y,-z
1/2-x,1/2-y,-z
1/2+x,y,-z
1/2-x,1/2+y,z
1/2+x,-y,z
loop_
_atom_site_type_symbol
_atom_site_label
_atom_site_fract_x
_atom_site_fract_y
_atom_site_fract_z
Si Si1 0.913746 0.416971 0.692271
Si Si2 0.765646 0.883870 0.163435
Si Si3 0.876331 0.359959 0.358183
O O1 0.852825 0.370216 0.799729
O O2 0.884637 0.383852 0.530991
O O3 0.909945 0.537449 0.707422
O O4 0.000000 0.386539 0.709696
O O5 0.707912 0.852769 0.291636
O O6 0.750000 0.000000 0.159847
O O7 0.750000 0.847906 0.000000
O O8 0.909807 0.250000 0.331007
#
# Coordination Sequence:
#
# PCOD9503182 Si02
#       3
#    16  16  16
#     4  10  21  37  58  85 116 148 187 238 288 332
#     4   9  19  37  57  81 113 151 192 228 275 340
#     4  10  20  36  59  84 113 150 191 232 276 335
#
# _framework density 21.945157999999999
#
# number of rings (size 3 to 8) (size 9 to 14) (size 15 to 20)
#    0.000    2.333    0.000    3.000    0.000   10.000 
#    0.000   15.000    0.000    0.000    0.000    0.000 
#    0.000    0.000    0.000    0.000    0.000    0.000 
#
# Total GULP energy -133658.711971 kJ/mol
# GULP energy per Si atom -5569.112999 kJ/mol
# Density = 2.189521 g / cm^3
# Si number density = 21.945158 Si / 1000 Ang^3
#
#
#
# Elastic Constant Matrix: (Units=GPa)
#
#
# Indices 1 2 3 4 5 6 
#
# 1 223.4030 29.6017 116.0732 0.0000 0.0000 0.0000
# 2 29.6017 149.4249 12.1597 0.0000 0.0000 0.0000
# 3 116.0732 12.1597 88.1139 0.0000 0.0000 0.0000
# 4 0.0000 0.0000 0.0000 -211.0532 0.0000 0.0000
# 5 0.0000 0.0000 0.0000 0.0000 -5.5656 0.0000
# 6 0.0000 0.0000 0.0000 0.0000 0.0000 -3.4372
#
#
#
# Elastic Compliance Matrix: (Units=1/GPa)
#
#
# Indices 1 2 3 4 5 6 
#
# 1 0.014440 -0.001328 -0.018839 0.000000 0.000000 0.000000
# 2 -0.001328 0.006890 0.000798 0.000000 0.000000 0.000000
# 3 -0.018839 0.000798 0.036056 0.000000 0.000000 0.000000
# 4 0.000000 0.000000 0.000000 -0.004738 0.000000 0.000000
# 5 0.000000 0.000000 0.000000 0.000000 -0.179675 0.000000
# 6 0.000000 0.000000 0.000000 0.000000 0.000000 -0.290934
#
#
# Mechanical properties :
#
#
# Convention : Reuss Voigt Hill
#
# Bulk Modulus (GPa) = 53.62217 86.29012 69.95614
# Shear Modulus (GPa) = -13.40458 -23.80405 -18.60432
#
# Velocity S-wave (km/s) = -2.47416 -3.29706 -2.91480
# Velocity P-wave (km/s) = 4.04051 4.99119 4.54080
#
# Compressibility (1/GPa) = 0.01864900
#
# Stress axis : x y z
#
# Youngs Moduli (GPa) = 69.25001 145.12961 27.73466
#
# Poissons Ratio (x) = 0.19268 0.52250
# Poissons Ratio (y) = 0.09194 -0.02213
# Poissons Ratio (z) = 1.30462 -0.11582
#
# Static dielectric constant tensor:
#      x y z
#    x 1.776660 0.000000 0.000000 
#    y 0.000000 1.847870 0.000000 
#    z 0.000000 0.000000 1.780140 
# 
# From -- ./inp_files/7343.got.cif
#   From: 2010.05.17/outbox.cif.g08.bks.cpg/sg67_4_cif.got.tgz:7343.got - 2010.06.03 18:28:57.
