data_PCOD9503058
_publ_section_title
;
Structure prediction by ZEFSAII (Michael W. Deem and Ramdas Pophale) SiO2 
 PCOD9503058
Probable space group: C M M A
;
_chemical_formula_sum "Si O2"
_cell_formula_units_Z 104
_cell_length_a 23.012450
_cell_length_b 17.100130
_cell_length_c 14.183588
_cell_angle_alpha 90.000000
_cell_angle_beta 90.000000
_cell_angle_gamma 90.000000
_cell_volume 5581.467207
_symmetry_space_group_name_H-M "C M M A"
_symmetry_group_IT_number 67
_symmetry_cell_setting 'orthorhombic'
loop_
_space_group_symop_operation_xyz
x,y,z
-x,1/2-y,z
x,-y,-z
-x,1/2+y,-z
-x,-y,-z
x,1/2+y,-z
-x,y,z
x,1/2-y,z
1/2+x,1/2+y,z
1/2-x,-y,z
1/2+x,1/2-y,-z
1/2-x,y,-z
1/2-x,1/2-y,-z
1/2+x,y,-z
1/2-x,1/2+y,z
1/2+x,-y,z
loop_
_atom_site_type_symbol
_atom_site_label
_atom_site_fract_x
_atom_site_fract_y
_atom_site_fract_z
Si Si1 0.500000 0.076148 0.796618
Si Si2 0.123073 0.155862 0.911869
Si Si3 0.609689 0.837666 0.119144
Si Si4 0.500000 0.989532 0.386592
Si Si5 0.368451 0.488565 0.610247
Si Si6 0.790166 0.071452 0.765947
Si Si7 0.683003 0.662562 0.307371
Si Si8 0.500000 0.565950 0.913896
O O1 0.556587 0.109447 0.847656
O O2 0.500000 0.087116 0.683610
O O3 0.500000 0.984349 0.818309
O O4 0.122402 0.250000 0.893765
O O5 0.167218 0.112043 0.841507
O O6 0.058009 0.118674 0.912265
O O7 0.140191 0.141556 0.021218
O O8 0.585603 0.750000 0.105981
O O9 0.654229 0.837089 0.204175
O O10 0.500000 0.000000 0.500000
O O11 0.565991 0.016281 0.367074
O O12 0.356339 0.500000 0.500000
O O13 0.327594 0.533253 0.682675
O O14 0.355040 0.397698 0.632070
O O15 0.747329 0.131719 0.713762
O O16 0.750000 0.000000 0.805592
O O17 0.682425 0.750000 0.346301
O O18 0.500000 0.500000 0.000000
#
# Coordination Sequence:
#
# PCOD9503058 Si02
#       8
#     8  16  16   8  16  16  16   8
#     4  12  19  36  59  89 123 154 201 249 311 355
#     4  11  23  41  59  86 127 169 204 254 314 371
#     4  10  21  35  57  86 121 159 200 250 310 362
#     4  10  20  35  63  89 115 147 186 240 312 365
#     4  10  21  41  64  91 121 152 198 257 314 374
#     4  10  23  39  61  88 120 165 214 258 303 365
#     4  10  21  39  59  88 119 156 206 254 305 363
#     4  12  23  33  59  90 122 156 212 252 294 367
#
# _framework density 18.633092999999999
#
# number of rings (size 3 to 8) (size 9 to 14) (size 15 to 20)
#    0.000    1.538    3.077    1.846    2.154    4.615 
#    0.000    7.308    0.000    0.000    0.000    3.231 
#    0.000    0.000    0.000    0.000    0.000    0.000 
#
# Total GULP energy -289514.064765 kJ/mol
# GULP energy per Si atom -5567.578169 kJ/mol
# Density = 1.859068 g / cm^3
# Si number density = 18.633093 Si / 1000 Ang^3
#
#
#
# Elastic Constant Matrix: (Units=GPa)
#
#
# Indices 1 2 3 4 5 6 
#
# 1 106.2189 49.3577 38.3235 0.0000 0.0000 0.0000
# 2 49.3577 101.4968 55.8106 0.0000 0.0000 0.0000
# 3 38.3235 55.8106 113.4438 0.0000 0.0000 0.0000
# 4 0.0000 0.0000 0.0000 18.3543 0.0000 0.0000
# 5 0.0000 0.0000 0.0000 0.0000 8.0715 0.0000
# 6 0.0000 0.0000 0.0000 0.0000 0.0000 19.2356
#
#
#
# Elastic Compliance Matrix: (Units=1/GPa)
#
#
# Indices 1 2 3 4 5 6 
#
# 1 0.012391 -0.005105 -0.001674 0.000000 0.000000 0.000000
# 2 -0.005105 0.015609 -0.005955 0.000000 0.000000 0.000000
# 3 -0.001674 -0.005955 0.012310 0.000000 0.000000 0.000000
# 4 0.000000 0.000000 0.000000 0.054483 0.000000 0.000000
# 5 0.000000 0.000000 0.000000 0.000000 0.123893 0.000000
# 6 0.000000 0.000000 0.000000 0.000000 0.000000 0.051987
#
#
# Mechanical properties :
#
#
# Convention : Reuss Voigt Hill
#
# Bulk Modulus (GPa) = 67.37561 67.57146 67.47354
# Shear Modulus (GPa) = 16.60639 20.97680 18.79160
#
# Velocity S-wave (km/s) = 2.98859 3.35891 3.17914
# Velocity P-wave (km/s) = 6.93877 7.16840 7.05452
#
# Compressibility (1/GPa) = 0.01484217
#
# Stress axis : x y z
#
# Youngs Moduli (GPa) = 80.70514 64.06384 81.23390
#
# Poissons Ratio (x) = 0.32704 0.13602
# Poissons Ratio (y) = 0.41199 0.48373
# Poissons Ratio (z) = 0.13513 0.38149
#
# Static dielectric constant tensor:
#      x y z
#    x 1.671500 0.000000 0.000000 
#    y 0.000000 1.691270 0.000000 
#    z 0.000000 0.000000 1.668500 
# 
# From -- ./inp_files/29515.got.cif
#   From: 2010.05.17/outbox.cif.g08.bks.cpg/sg67_15_cif.got.tgz:29515.got - 2010.06.03 18:28:57.
