data_PCOD9503191
_publ_section_title
;
Structure prediction by ZEFSAII (Michael W. Deem and Ramdas Pophale) SiO2 
 PCOD9503191
Probable space group: C M M A
;
_chemical_formula_sum "Si O2"
_cell_formula_units_Z 116
_cell_length_a 16.844441
_cell_length_b 23.095053
_cell_length_c 15.340812
_cell_angle_alpha 90.000000
_cell_angle_beta 90.000000
_cell_angle_gamma 90.000000
_cell_volume 5967.932659
_symmetry_space_group_name_H-M "C M M A"
_symmetry_group_IT_number 67
_symmetry_cell_setting 'orthorhombic'
loop_
_space_group_symop_operation_xyz
x,y,z
-x,1/2-y,z
x,-y,-z
-x,1/2+y,-z
-x,-y,-z
x,1/2+y,-z
-x,y,z
x,1/2-y,z
1/2+x,1/2+y,z
1/2-x,-y,z
1/2+x,1/2-y,-z
1/2-x,y,-z
1/2-x,1/2-y,-z
1/2+x,y,-z
1/2-x,1/2+y,z
1/2+x,-y,z
loop_
_atom_site_type_symbol
_atom_site_label
_atom_site_fract_x
_atom_site_fract_y
_atom_site_fract_z
Si Si1 0.624260 0.817228 0.663894
Si Si2 0.500000 0.000000 0.500000
Si Si3 0.823837 0.367860 0.160979
Si Si4 0.866494 0.385642 0.835565
Si Si5 0.589729 0.315102 0.996343
Si Si6 0.153730 0.493335 0.101204
Si Si7 0.815868 0.683342 0.653756
Si Si8 0.916389 0.120816 0.484682
O O1 0.599048 0.750000 0.667933
O O2 0.602178 0.852773 0.750712
O O3 0.720270 0.817395 0.657712
O O4 0.593831 0.849996 0.578755
O O5 0.568192 0.947765 0.494032
O O6 0.728787 0.376046 0.161556
O O7 0.862310 0.430428 0.140817
O O8 0.846078 0.339993 0.253065
O O9 0.849327 0.328344 0.080402
O O10 0.899455 0.358123 0.923682
O O11 0.880186 0.454346 0.841280
O O12 0.500000 0.320166 0.961725
O O13 0.601343 0.250000 0.029614
O O14 0.250000 0.500000 0.100248
O O15 0.128198 0.500000 0.000000
O O16 0.840212 0.750000 0.638244
O O17 0.846894 0.641692 0.577993
O O18 0.000000 0.143644 0.445656
#
# Coordination Sequence:
#
# PCOD9503191 Si02
#       8
#    16   4  16  16  16  16  16  16
#     4  10  21  37  61  95 123 149 197 252 302 361
#     4   8  24  44  60  88 120 150 214 242 272 364
#     4  10  20  36  59  85 115 152 195 245 297 351
#     4  10  20  36  59  85 115 152 195 245 297 351
#     4  11  23  36  51  76 116 159 198 245 296 349
#     4   9  16  31  56  84 112 145 193 241 282 344
#     4  10  21  37  61  95 123 149 197 252 302 361
#     4  10  22  42  64  82 121 161 193 238 295 348
#
# _framework density 19.437215999999999
#
# number of rings (size 3 to 8) (size 9 to 14) (size 15 to 20)
#    0.414    1.655    1.379    2.069    0.000    6.621 
#    0.000    4.138    0.000    0.000    0.000    0.000 
#    0.000    0.000    0.000    0.000    0.000    0.000 
#
# Total GULP energy -323025.291190 kJ/mol
# GULP energy per Si atom -5569.401572 kJ/mol
# Density = 1.939298 g / cm^3
# Si number density = 19.437216 Si / 1000 Ang^3
#
#
#
# Elastic Constant Matrix: (Units=GPa)
#
#
# Indices 1 2 3 4 5 6 
#
# 1 21.8620 23.6691 15.1518 0.0000 0.0000 0.0000
# 2 23.6691 142.8436 31.7820 0.0000 0.0000 0.0000
# 3 15.1518 31.7820 76.4125 0.0000 0.0000 0.0000
# 4 0.0000 0.0000 0.0000 21.7267 0.0000 0.0000
# 5 0.0000 0.0000 0.0000 0.0000 -69.1840 0.0000
# 6 0.0000 0.0000 0.0000 0.0000 0.0000 -29.4662
#
#
#
# Elastic Compliance Matrix: (Units=1/GPa)
#
#
# Indices 1 2 3 4 5 6 
#
# 1 0.060494 -0.008105 -0.008624 0.000000 0.000000 0.000000
# 2 -0.008105 0.008800 -0.002053 0.000000 0.000000 0.000000
# 3 -0.008624 -0.002053 0.015651 0.000000 0.000000 0.000000
# 4 0.000000 0.000000 0.000000 0.046026 0.000000 0.000000
# 5 0.000000 0.000000 0.000000 0.000000 -0.014454 0.000000
# 6 0.000000 0.000000 0.000000 0.000000 0.000000 -0.033937
#
#
# Mechanical properties :
#
#
# Convention : Reuss Voigt Hill
#
# Bulk Modulus (GPa) = 21.10582 42.48044 31.79313
# Shear Modulus (GPa) = 36.78143 -4.01703 16.38220
#
# Velocity S-wave (km/s) = 4.35480 -1.43915 2.90630
# Velocity P-wave (km/s) = 6.01396 4.37506 5.25875
#
# Compressibility (1/GPa) = 0.04738030
#
# Stress axis : x y z
#
# Youngs Moduli (GPa) = 16.53067 113.63018 63.89388
#
# Poissons Ratio (x) = 0.92096 0.55103
# Poissons Ratio (y) = 0.13398 0.13119
# Poissons Ratio (z) = 0.14256 0.23331
#
# Static dielectric constant tensor:
#      x y z
#    x 1.708670 0.000000 0.000000 
#    y 0.000000 1.667600 0.000000 
#    z 0.000000 0.000000 1.648440 
# 
# From -- ./inp_files/28777.got.cif
#   From: 2010.05.17/outbox.cif.g08.bks.cpg/sg67_15_cif.got.tgz:28777.got - 2010.06.03 18:28:57.
