data_PCOD9503559
_publ_section_title
;
Structure prediction by ZEFSAII (Michael W. Deem and Ramdas Pophale) SiO2 
 PCOD9503559
Probable space group: C M M A
;
_chemical_formula_sum "Si O2"
_cell_formula_units_Z 64
_cell_length_a 15.601737
_cell_length_b 28.720461
_cell_length_c 7.355015
_cell_angle_alpha 90.000000
_cell_angle_beta 90.000000
_cell_angle_gamma 90.000000
_cell_volume 3295.701898
_symmetry_space_group_name_H-M "C M M A"
_symmetry_group_IT_number 67
_symmetry_cell_setting 'orthorhombic'
loop_
_space_group_symop_operation_xyz
x,y,z
-x,1/2-y,z
x,-y,-z
-x,1/2+y,-z
-x,-y,-z
x,1/2+y,-z
-x,y,z
x,1/2-y,z
1/2+x,1/2+y,z
1/2-x,-y,z
1/2+x,1/2-y,-z
1/2-x,y,-z
1/2-x,1/2-y,-z
1/2+x,y,-z
1/2-x,1/2+y,z
1/2+x,-y,z
loop_
_atom_site_type_symbol
_atom_site_label
_atom_site_fract_x
_atom_site_fract_y
_atom_site_fract_z
Si Si1 0.657806 0.250000 0.089090
Si Si2 0.500000 0.154024 0.591673
Si Si3 0.750000 0.000000 0.000000
Si Si4 0.000000 0.750000 0.821019
Si Si5 0.689749 0.934741 0.676545
Si Si6 0.000000 0.055642 0.522289
Si Si7 0.674712 0.668905 0.631294
O O1 0.651943 0.295139 0.214096
O O2 0.750000 0.250000 0.000000
O O3 0.584478 0.250000 0.941636
O O4 0.500000 0.199749 0.719523
O O5 0.500000 0.097320 0.632750
O O6 0.412092 0.160227 0.480236
O O7 0.796764 0.033994 0.855024
O O8 0.750000 0.947539 0.500000
O O9 0.590026 0.937084 0.623997
O O10 0.708683 0.880244 0.709281
O O11 0.000000 0.000000 0.500000
O O12 0.750000 0.687280 0.500000
#
# Coordination Sequence:
#
# PCOD9503559 Si02
#       7
#     8   8   4   4  16   8  16
#     4  12  24  36  60  94 124 150 204 266 306 362
#     4  10  21  40  64  83 119 171 202 241 317 377
#     4  12  22  38  64  92 128 170 206 262 332 364
#     4  12  24  40  58  98 128 158 204 266 320 370
#     4  10  23  41  64  91 127 168 211 261 316 385
#     4  10  20  40  64  92 120 162 217 253 307 379
#     4  10  21  41  63  84 120 167 209 246 309 382
#
# _framework density 19.419232000000001
#
# number of rings (size 3 to 8) (size 9 to 14) (size 15 to 20)
#    0.000    1.500    0.000    5.250    1.750    0.500 
#    4.500    1.250    0.000    0.000    0.000    0.000 
#    0.000    0.000    0.000    0.000    0.000    0.000 
#
# Total GULP energy -178168.944983 kJ/mol
# GULP energy per Si atom -5567.779531 kJ/mol
# Density = 1.937503 g / cm^3
# Si number density = 19.419232 Si / 1000 Ang^3
#
#
#
# Elastic Constant Matrix: (Units=GPa)
#
#
# Indices 1 2 3 4 5 6 
#
# 1 132.1285 25.1103 50.4999 0.0000 0.0000 0.0000
# 2 25.1103 184.8630 82.5668 0.0000 0.0000 0.0000
# 3 50.4999 82.5668 98.8520 0.0000 0.0000 0.0000
# 4 0.0000 0.0000 0.0000 7.7378 0.0000 0.0000
# 5 0.0000 0.0000 0.0000 0.0000 32.2342 0.0000
# 6 0.0000 0.0000 0.0000 0.0000 0.0000 33.0957
#
#
#
# Elastic Compliance Matrix: (Units=1/GPa)
#
#
# Indices 1 2 3 4 5 6 
#
# 1 0.009632 0.001419 -0.006106 0.000000 0.000000 0.000000
# 2 0.001419 0.008837 -0.008106 0.000000 0.000000 0.000000
# 3 -0.006106 -0.008106 0.020006 0.000000 0.000000 0.000000
# 4 0.000000 0.000000 0.000000 0.129235 0.000000 0.000000
# 5 0.000000 0.000000 0.000000 0.000000 0.031023 0.000000
# 6 0.000000 0.000000 0.000000 0.000000 0.000000 0.030215
#
#
# Mechanical properties :
#
#
# Convention : Reuss Voigt Hill
#
# Bulk Modulus (GPa) = 77.58416 81.35527 79.46972
# Shear Modulus (GPa) = 19.31757 31.79133 25.55445
#
# Velocity S-wave (km/s) = 3.15741 4.05051 3.63152
# Velocity P-wave (km/s) = 7.30283 7.99128 7.65480
#
# Compressibility (1/GPa) = 0.01288923
#
# Stress axis : x y z
#
# Youngs Moduli (GPa) = 103.81577 113.15814 49.98483
#
# Poissons Ratio (x) = -0.16054 0.30520
# Poissons Ratio (y) = -0.14728 0.40518
# Poissons Ratio (z) = 0.63388 0.91727
#
# Static dielectric constant tensor:
#      x y z
#    x 1.682850 0.000000 0.000000 
#    y 0.000000 1.791740 0.000000 
#    z 0.000000 0.000000 1.662200 
# 
# From -- ./inp_files/2280.got.cif
#   From: 2010.05.17/outbox.cif.g08.bks.cpg/sg67_2_cif.got.tgz:2280.got - 2010.06.03 18:28:57.
