data_PCOD9503961
_publ_section_title
;
Structure prediction by ZEFSAII (Michael W. Deem and Ramdas Pophale) SiO2 
 PCOD9503961
Probable space group: C M M A
;
_chemical_formula_sum "Si O2"
_cell_formula_units_Z 56
_cell_length_a 8.185253
_cell_length_b 24.733678
_cell_length_c 13.964064
_cell_angle_alpha 90.000000
_cell_angle_beta 90.000000
_cell_angle_gamma 90.000000
_cell_volume 2827.044475
_symmetry_space_group_name_H-M "C M M A"
_symmetry_group_IT_number 67
_symmetry_cell_setting 'orthorhombic'
loop_
_space_group_symop_operation_xyz
x,y,z
-x,1/2-y,z
x,-y,-z
-x,1/2+y,-z
-x,-y,-z
x,1/2+y,-z
-x,y,z
x,1/2-y,z
1/2+x,1/2+y,z
1/2-x,-y,z
1/2+x,1/2-y,-z
1/2-x,y,-z
1/2-x,1/2-y,-z
1/2+x,y,-z
1/2-x,1/2+y,z
1/2+x,-y,z
loop_
_atom_site_type_symbol
_atom_site_label
_atom_site_fract_x
_atom_site_fract_y
_atom_site_fract_z
Si Si1 0.308328 0.250000 0.613503
Si Si2 0.803870 0.938482 0.109754
Si Si3 0.314588 0.148358 0.262008
Si Si4 0.695231 0.057387 0.609291
O O1 0.500000 0.250000 0.602854
O O2 0.250000 0.250000 0.500000
O O3 0.260572 0.199122 0.681229
O O4 0.741773 0.886882 0.172651
O O5 0.000000 0.937831 0.117263
O O6 0.750000 0.000000 0.136531
O O7 0.750000 0.931148 0.000000
O O8 0.500000 0.163355 0.236668
O O9 0.302377 0.102470 0.341634
O O10 0.500000 0.065559 0.619066
O O11 0.750000 0.057387 0.500000
O O12 0.750000 0.000000 0.650146
#
# Coordination Sequence:
#
# PCOD9503961 Si02
#       4
#     8  16  16  16
#     4  12  26  44  65  88 117 158 203 252 300 354
#     4  10  21  37  62  92 125 159 195 242 297 356
#     4  11  23  40  60  85 116 154 198 246 296 352
#     4  11  21  34  53  80 113 149 188 236 292 354
#
# _framework density 19.808672000000001
#
# number of rings (size 3 to 8) (size 9 to 14) (size 15 to 20)
#    0.000    1.143    0.000    9.000    0.000    6.857 
#    0.000    0.714    0.000    0.000    0.000    0.000 
#    0.000    0.000    0.000    0.000    0.000    0.000 
#
# Total GULP energy -155911.910396 kJ/mol
# GULP energy per Si atom -5568.282514 kJ/mol
# Density = 1.976359 g / cm^3
# Si number density = 19.808672 Si / 1000 Ang^3
#
#
#
# Elastic Constant Matrix: (Units=GPa)
#
#
# Indices 1 2 3 4 5 6 
#
# 1 80.7462 12.8263 14.6350 0.0000 0.0000 0.0000
# 2 12.8263 155.1695 71.9494 0.0000 0.0000 0.0000
# 3 14.6350 71.9494 153.1524 0.0000 0.0000 0.0000
# 4 0.0000 0.0000 0.0000 20.5793 0.0000 0.0000
# 5 0.0000 0.0000 0.0000 0.0000 17.3566 0.0000
# 6 0.0000 0.0000 0.0000 0.0000 0.0000 29.4895
#
#
#
# Elastic Compliance Matrix: (Units=1/GPa)
#
#
# Indices 1 2 3 4 5 6 
#
# 1 0.012649 -0.000620 -0.000917 0.000000 0.000000 0.000000
# 2 -0.000620 0.008270 -0.003826 0.000000 0.000000 0.000000
# 3 -0.000917 -0.003826 0.008414 0.000000 0.000000 0.000000
# 4 0.000000 0.000000 0.000000 0.048593 0.000000 0.000000
# 5 0.000000 0.000000 0.000000 0.000000 0.057615 0.000000
# 6 0.000000 0.000000 0.000000 0.000000 0.000000 0.033910
#
#
# Mechanical properties :
#
#
# Convention : Reuss Voigt Hill
#
# Bulk Modulus (GPa) = 53.74402 65.32105 59.53254
# Shear Modulus (GPa) = 26.82686 32.79557 29.81121
#
# Velocity S-wave (km/s) = 3.68407 4.07334 3.88359
# Velocity P-wave (km/s) = 6.72956 7.42768 7.08722
#
# Compressibility (1/GPa) = 0.01860672
#
# Stress axis : x y z
#
# Youngs Moduli (GPa) = 79.05591 120.92213 118.84358
#
# Poissons Ratio (x) = 0.07500 0.10902
# Poissons Ratio (y) = 0.04903 0.45467
# Poissons Ratio (z) = 0.07252 0.46262
#
# Static dielectric constant tensor:
#      x y z
#    x 1.732650 0.000000 0.000000 
#    y 0.000000 1.747060 0.000000 
#    z 0.000000 0.000000 0.953780 
# 
# From -- ./inp_files/24748.got.cif
#   From: 2010.05.17/outbox.cif.g08.bks.cpg/sg67_13_cif.got.tgz:24748.got - 2010.06.03 18:28:57.
