data_PCOD9503510
_publ_section_title
;
Structure prediction by ZEFSAII (Michael W. Deem and Ramdas Pophale) SiO2 
 PCOD9503510
Probable space group: C M M A
;
_chemical_formula_sum "Si O2"
_cell_formula_units_Z 52
_cell_length_a 25.011891
_cell_length_b 16.434301
_cell_length_c 5.534347
_cell_angle_alpha 90.000000
_cell_angle_beta 90.000000
_cell_angle_gamma 90.000000
_cell_volume 2274.909635
_symmetry_space_group_name_H-M "C M M A"
_symmetry_group_IT_number 67
_symmetry_cell_setting 'orthorhombic'
loop_
_space_group_symop_operation_xyz
x,y,z
-x,1/2-y,z
x,-y,-z
-x,1/2+y,-z
-x,-y,-z
x,1/2+y,-z
-x,y,z
x,1/2-y,z
1/2+x,1/2+y,z
1/2-x,-y,z
1/2+x,1/2-y,-z
1/2-x,y,-z
1/2-x,1/2-y,-z
1/2+x,y,-z
1/2-x,1/2+y,z
1/2+x,-y,z
loop_
_atom_site_type_symbol
_atom_site_label
_atom_site_fract_x
_atom_site_fract_y
_atom_site_fract_z
Si Si1 0.750000 0.500000 0.000000
Si Si2 0.441839 0.081198 0.837782
Si Si3 0.175390 0.919381 0.641693
Si Si4 0.159785 0.750000 0.518360
Si Si5 0.906545 0.250000 0.974693
O O1 0.791909 0.564159 0.882714
O O2 0.500000 0.081768 0.712551
O O3 0.388797 0.080787 0.675817
O O4 0.437570 0.164853 0.991403
O O5 0.439153 0.000000 0.000000
O O6 0.189528 0.835763 0.511764
O O7 0.189941 0.000000 0.500000
O O8 0.120459 0.750000 0.288063
O O9 0.133258 0.750000 0.789962
#
# Coordination Sequence:
#
# PCOD9503510 Si02
#       5
#     4  16  16   8   8
#     4  12  26  46  70  98 140 198 238 328 358 428
#     4  10  20  38  68 101 139 182 227 286 356 434
#     4  11  24  45  70 103 142 188 246 298 370 432
#     4  10  24  41  76  98 141 185 232 292 352 432
#     4  10  21  42  64 105 140 184 224 285 348 426
#
# _framework density 22.858049000000001
#
# number of rings (size 3 to 8) (size 9 to 14) (size 15 to 20)
#    0.000    1.538    1.538    2.769    4.308    1.231 
#    0.000   18.462    0.000    0.000    0.000    0.000 
#    0.000    0.000    0.000    0.000    0.000    0.000 
#
# Total GULP energy -144963.184131 kJ/mol
# GULP energy per Si atom -5575.507082 kJ/mol
# Density = 2.280602 g / cm^3
# Si number density = 22.858049 Si / 1000 Ang^3
#
#
#
# Elastic Constant Matrix: (Units=GPa)
#
#
# Indices 1 2 3 4 5 6 
#
# 1 155.4547 18.2056 23.2177 0.0000 0.0000 0.0000
# 2 18.2056 223.7825 13.0959 0.0000 0.0000 0.0000
# 3 23.2177 13.0959 46.4266 0.0000 0.0000 0.0000
# 4 0.0000 0.0000 0.0000 28.1601 0.0000 0.0000
# 5 0.0000 0.0000 0.0000 0.0000 -4.0482 0.0000
# 6 0.0000 0.0000 0.0000 0.0000 0.0000 393.6399
#
#
#
# Elastic Compliance Matrix: (Units=1/GPa)
#
#
# Indices 1 2 3 4 5 6 
#
# 1 0.006982 -0.000370 -0.003387 0.000000 0.000000 0.000000
# 2 -0.000370 0.004563 -0.001102 0.000000 0.000000 0.000000
# 3 -0.003387 -0.001102 0.023544 0.000000 0.000000 0.000000
# 4 0.000000 0.000000 0.000000 0.035511 0.000000 0.000000
# 5 0.000000 0.000000 0.000000 0.000000 -0.247024 0.000000
# 6 0.000000 0.000000 0.000000 0.000000 0.000000 0.002540
#
#
# Mechanical properties :
#
#
# Convention : Reuss Voigt Hill
#
# Bulk Modulus (GPa) = 39.41552 59.41134 49.41343
# Shear Modulus (GPa) = -32.11156 108.29334 38.09089
#
# Velocity S-wave (km/s) = -3.75217 6.89052 4.08660
# Velocity P-wave (km/s) = 1.22091 9.45270 6.62808
#
# Compressibility (1/GPa) = 0.02537072
#
# Stress axis : x y z
#
# Youngs Moduli (GPa) = 143.22636 219.14386 42.47319
#
# Poissons Ratio (x) = 0.08104 0.14387
# Poissons Ratio (y) = 0.05296 0.04682
# Poissons Ratio (z) = 0.48515 0.24155
#
# Static dielectric constant tensor:
#      x y z
#    x 1.852220 0.000000 0.000000 
#    y 0.000000 1.878050 0.000000 
#    z 0.000000 0.000000 2.072200 
# 
# From -- ./inp_files/1993.got.cif
#   From: 2010.05.17/outbox.cif.g08.bks.cpg/sg67_1_cif.got.tgz:1993.got - 2010.06.03 18:28:57.
