data_PCOD9503625
_publ_section_title
;
Structure prediction by ZEFSAII (Michael W. Deem and Ramdas Pophale) SiO2 
 PCOD9503625
Probable space group: C M M A
;
_chemical_formula_sum "Si O2"
_cell_formula_units_Z 80
_cell_length_a 10.868849
_cell_length_b 14.867244
_cell_length_c 24.950377
_cell_angle_alpha 90.000000
_cell_angle_beta 90.000000
_cell_angle_gamma 90.000000
_cell_volume 4031.727180
_symmetry_space_group_name_H-M "C M M A"
_symmetry_group_IT_number 67
_symmetry_cell_setting 'orthorhombic'
loop_
_space_group_symop_operation_xyz
x,y,z
-x,1/2-y,z
x,-y,-z
-x,1/2+y,-z
-x,-y,-z
x,1/2+y,-z
-x,y,z
x,1/2-y,z
1/2+x,1/2+y,z
1/2-x,-y,z
1/2+x,1/2-y,-z
1/2-x,y,-z
1/2-x,1/2-y,-z
1/2+x,y,-z
1/2-x,1/2+y,z
1/2+x,-y,z
loop_
_atom_site_type_symbol
_atom_site_label
_atom_site_fract_x
_atom_site_fract_y
_atom_site_fract_z
Si Si1 0.637627 0.140143 0.161165
Si Si2 0.134952 0.642627 0.768404
Si Si3 0.137791 0.931935 0.650299
Si Si4 0.361925 0.140230 0.037139
Si Si5 0.634151 0.642835 0.467322
O O1 0.500000 0.112746 0.178586
O O2 0.638514 0.250000 0.162050
O O3 0.748502 0.107895 0.198438
O O4 0.655319 0.113564 0.099160
O O5 0.133349 0.750000 0.775812
O O6 0.147420 0.623120 0.705375
O O7 0.000000 0.608114 0.785934
O O8 0.146724 0.874959 0.595892
O O9 0.000000 0.973791 0.650162
O O10 0.250000 0.000000 0.649661
O O11 0.500000 0.112888 0.019814
O O12 0.360832 0.250000 0.036198
O O13 0.250000 0.109438 0.000000
O O14 0.500000 0.607511 0.484761
O O15 0.632074 0.750000 0.475640
O O16 0.750000 0.605991 0.500000
#
# Coordination Sequence:
#
# PCOD9503625 Si02
#       5
#    16  16  16  16  16
#     4   8  14  24  37  56  83 113 146 186 230 272
#     4   9  17  30  48  67  87 116 155 194 230 271
#     4  10  21  35  50  70  97 126 155 190 232 275
#     4   8  13  20  30  47  75 110 144 178 219 267
#     4   9  18  34  55  76  98 125 157 192 228 268
#
# _framework density 19.842613
#
# number of rings (size 3 to 8) (size 9 to 14) (size 15 to 20)
#    0.000    3.200    0.000    1.800    0.000    5.200 
#    0.000    6.000    0.000    6.000    0.000    0.000 
#    0.000    0.800    0.000    8.800    0.000   14.400 
#
# Total GULP energy -222954.702143 kJ/mol
# GULP energy per Si atom -5573.867554 kJ/mol
# Density = 1.979745 g / cm^3
# Si number density = 19.842613 Si / 1000 Ang^3
#
#
#
# Elastic Constant Matrix: (Units=GPa)
#
#
# Indices 1 2 3 4 5 6 
#
# 1 234.6267 19.7941 117.8402 0.0000 0.0000 0.0000
# 2 19.7941 36.9066 1.2656 0.0000 0.0000 0.0000
# 3 117.8402 1.2656 96.7771 0.0000 0.0000 0.0000
# 4 0.0000 0.0000 0.0000 -29.0169 0.0000 0.0000
# 5 0.0000 0.0000 0.0000 0.0000 43.6983 0.0000
# 6 0.0000 0.0000 0.0000 0.0000 0.0000 0.7951
#
#
#
# Elastic Compliance Matrix: (Units=1/GPa)
#
#
# Indices 1 2 3 4 5 6 
#
# 1 0.012179 -0.006026 -0.014751 0.000000 0.000000 0.000000
# 2 -0.006026 0.030089 0.006944 0.000000 0.000000 0.000000
# 3 -0.014751 0.006944 0.028204 0.000000 0.000000 0.000000
# 4 0.000000 0.000000 0.000000 -0.034463 0.000000 0.000000
# 5 0.000000 0.000000 0.000000 0.000000 0.022884 0.000000
# 6 0.000000 0.000000 0.000000 0.000000 0.000000 1.257739
#
#
# Mechanical properties :
#
#
# Convention : Reuss Voigt Hill
#
# Bulk Modulus (GPa) = 23.36101 71.79003 47.57552
# Shear Modulus (GPa) = 3.68035 18.38932 11.03483
#
# Velocity S-wave (km/s) = 1.36338 3.04757 2.36077
# Velocity P-wave (km/s) = 3.77851 6.97437 5.60888
#
# Compressibility (1/GPa) = 0.04280636
#
# Stress axis : x y z
#
# Youngs Moduli (GPa) = 82.10743 33.23432 35.45619
#
# Poissons Ratio (x) = 0.20028 0.52302
# Poissons Ratio (y) = 0.49480 -0.24622
# Poissons Ratio (z) = 1.21117 -0.23079
#
# Static dielectric constant tensor:
#      x y z
#    x 1.732200 0.000000 0.000000 
#    y 0.000000 1.687500 0.000000 
#    z 0.000000 0.000000 1.670890 
# 
# From -- ./inp_files/41773.got.cif
#   From: 2010.05.17/outbox.cif.g08.bks.cpg/sg67_21_cif.got.tgz:41773.got - 2010.06.03 18:28:57.
