data_PCOD9503816
_publ_section_title
;
Structure prediction by ZEFSAII (Michael W. Deem and Ramdas Pophale) SiO2 
 PCOD9503816
Probable space group: C M M A
;
_chemical_formula_sum "Si O2"
_cell_formula_units_Z 116
_cell_length_a 25.057162
_cell_length_b 30.629570
_cell_length_c 7.329678
_cell_angle_alpha 90.000000
_cell_angle_beta 90.000000
_cell_angle_gamma 90.000000
_cell_volume 5625.455283
_symmetry_space_group_name_H-M "C M M A"
_symmetry_group_IT_number 67
_symmetry_cell_setting 'orthorhombic'
loop_
_space_group_symop_operation_xyz
x,y,z
-x,1/2-y,z
x,-y,-z
-x,1/2+y,-z
-x,-y,-z
x,1/2+y,-z
-x,y,z
x,1/2-y,z
1/2+x,1/2+y,z
1/2-x,-y,z
1/2+x,1/2-y,-z
1/2-x,y,-z
1/2-x,1/2-y,-z
1/2+x,y,-z
1/2-x,1/2+y,z
1/2+x,-y,z
loop_
_atom_site_type_symbol
_atom_site_label
_atom_site_fract_x
_atom_site_fract_y
_atom_site_fract_z
Si Si1 0.156971 0.036812 0.757318
Si Si2 0.936954 0.616165 0.842825
Si Si3 0.839253 0.441504 0.184965
Si Si4 0.738854 0.386499 0.291352
Si Si5 0.701960 0.298021 0.355809
Si Si6 0.500000 0.250000 0.483258
Si Si7 0.909953 0.324468 0.469295
Si Si8 0.061729 0.595313 0.269084
O O1 0.197798 0.073649 0.695568
O O2 0.098499 0.053096 0.702997
O O3 0.170477 0.986948 0.710025
O O4 0.159437 0.043937 0.975411
O O5 0.896567 0.579076 0.770308
O O6 0.917478 0.659947 0.740527
O O7 0.000000 0.609709 0.803388
O O8 0.930550 0.614301 0.062562
O O9 0.792639 0.405687 0.203697
O O10 0.750000 0.376963 0.500000
O O11 0.714620 0.340105 0.226199
O O12 0.695548 0.250000 0.266086
O O13 0.750000 0.293428 0.500000
O O14 0.648557 0.308925 0.470779
O O15 0.453362 0.212018 0.487751
O O16 0.922540 0.367210 0.589900
O O17 0.000000 0.584281 0.288417
#
# Coordination Sequence:
#
# PCOD9503816 Si02
#       8
#    16  16  16  16  16   4  16  16
#     4  10  21  38  58  84 118 158 200 248 301 366
#     4  10  21  38  60  86 121 159 199 244 302 366
#     4  10  22  37  58  86 116 157 203 245 303 366
#     4  11  21  36  57  85 115 155 196 252 303 359
#     4  10  21  36  61  87 114 158 203 245 304 366
#     4  12  24  36  72  96 114 170 208 250 314 368
#     4  12  21  42  62  90 125 157 201 254 306 361
#     4  10  21  38  61  87 121 162 199 244 304 363
#
# _framework density 20.620553000000001
#
# number of rings (size 3 to 8) (size 9 to 14) (size 15 to 20)
#    0.000    1.517    3.448    2.483    0.000    2.759 
#    0.000    4.138    0.000    3.310    0.000    0.000 
#    0.000    0.000    0.000    0.000    0.000    0.000 
#
# Total GULP energy -322959.091718 kJ/mol
# GULP energy per Si atom -5568.260202 kJ/mol
# Density = 2.057362 g / cm^3
# Si number density = 20.620553 Si / 1000 Ang^3
#
#
#
# Elastic Constant Matrix: (Units=GPa)
#
#
# Indices 1 2 3 4 5 6 
#
# 1 133.4073 43.8191 4.5310 0.0000 0.0000 0.0000
# 2 43.8191 133.2845 5.3696 0.0000 0.0000 0.0000
# 3 4.5310 5.3696 25.6741 0.0000 0.0000 0.0000
# 4 0.0000 0.0000 0.0000 -0.1631 0.0000 0.0000
# 5 0.0000 0.0000 0.0000 0.0000 33.2046 0.0000
# 6 0.0000 0.0000 0.0000 0.0000 0.0000 32.5483
#
#
#
# Elastic Compliance Matrix: (Units=1/GPa)
#
#
# Indices 1 2 3 4 5 6 
#
# 1 0.008425 -0.002733 -0.000915 0.000000 0.000000 0.000000
# 2 -0.002733 0.008453 -0.001286 0.000000 0.000000 0.000000
# 3 -0.000915 -0.001286 0.039380 0.000000 0.000000 0.000000
# 4 0.000000 0.000000 0.000000 -6.132020 0.000000 0.000000
# 5 0.000000 0.000000 0.000000 0.000000 0.030116 0.000000
# 6 0.000000 0.000000 0.000000 0.000000 0.000000 0.030724
#
#
# Mechanical properties :
#
#
# Convention : Reuss Voigt Hill
#
# Bulk Modulus (GPa) = 21.55617 44.42280 32.98949
# Shear Modulus (GPa) = -0.83478 29.02771 14.09646
#
# Velocity S-wave (km/s) = -0.63695 3.75601 2.61743
# Velocity P-wave (km/s) = 3.15206 6.35609 5.01674
#
# Compressibility (1/GPa) = 0.04639043
#
# Stress axis : x y z
#
# Youngs Moduli (GPa) = 118.70075 118.30131 25.39350
#
# Poissons Ratio (x) = 0.32330 0.02324
# Poissons Ratio (y) = 0.32439 0.03265
# Poissons Ratio (z) = 0.10864 0.15209
#
# Static dielectric constant tensor:
#      x y z
#    x 1.711830 0.000000 0.000000 
#    y 0.000000 1.537770 0.000000 
#    z 0.000000 0.000000 1.773780 
# 
# From -- ./inp_files/12991.got.cif
#   From: 2010.05.17/outbox.cif.g08.bks.cpg/sg67_7_cif.got.tgz:12991.got - 2010.06.03 18:28:57.
