data_PCOD9503700
_publ_section_title
;
Structure prediction by ZEFSAII (Michael W. Deem and Ramdas Pophale) SiO2 
 PCOD9503700
Probable space group: C M M A
;
_chemical_formula_sum "Si O2"
_cell_formula_units_Z 48
_cell_length_a 10.166496
_cell_length_b 13.999538
_cell_length_c 14.710764
_cell_angle_alpha 90.000000
_cell_angle_beta 90.000000
_cell_angle_gamma 90.000000
_cell_volume 2093.727832
_symmetry_space_group_name_H-M "C M M A"
_symmetry_group_IT_number 67
_symmetry_cell_setting 'orthorhombic'
loop_
_space_group_symop_operation_xyz
x,y,z
-x,1/2-y,z
x,-y,-z
-x,1/2+y,-z
-x,-y,-z
x,1/2+y,-z
-x,y,z
x,1/2-y,z
1/2+x,1/2+y,z
1/2-x,-y,z
1/2+x,1/2-y,-z
1/2-x,y,-z
1/2-x,1/2-y,-z
1/2+x,y,-z
1/2-x,1/2+y,z
1/2+x,-y,z
loop_
_atom_site_type_symbol
_atom_site_label
_atom_site_fract_x
_atom_site_fract_y
_atom_site_fract_z
Si Si1 0.348629 0.634013 0.784783
Si Si2 0.353433 0.902777 0.061763
Si Si3 0.853064 0.133925 0.575243
O O1 0.500000 0.604648 0.813220
O O2 0.346919 0.750000 0.790050
O O3 0.227185 0.595871 0.844247
O O4 0.330235 0.605462 0.679705
O O5 0.500000 0.865520 0.074405
O O6 0.250000 0.846577 0.000000
O O7 0.369574 0.000000 0.000000
O O8 0.850469 0.250000 0.576772
O O9 0.750000 0.103225 0.500000
O O10 0.000000 0.104676 0.549559
#
# Coordination Sequence:
#
# PCOD9503700 Si02
#       3
#    16  16  16
#     4   9  18  32  50  75 107 140 175 216 259 304
#     4  10  21  36  53  73  97 130 174 219 265 318
#     4   8  14  25  42  67 101 138 172 206 246 295
#
# _framework density 22.925615000000001
#
# number of rings (size 3 to 8) (size 9 to 14) (size 15 to 20)
#    0.000    3.000    0.000    3.000    0.000    4.667 
#    0.000    3.333    0.000    0.000    0.000    4.667 
#    0.000   34.667    0.000    0.000    0.000    0.333 
#
# Total GULP energy -133690.658756 kJ/mol
# GULP energy per Si atom -5570.444115 kJ/mol
# Density = 2.287344 g / cm^3
# Si number density = 22.925615 Si / 1000 Ang^3
#
#
#
# Elastic Constant Matrix: (Units=GPa)
#
#
# Indices 1 2 3 4 5 6 
#
# 1 292.5011 29.3035 147.9729 0.0000 0.0000 0.0000
# 2 29.3035 89.9430 16.0497 0.0000 0.0000 0.0000
# 3 147.9729 16.0497 167.8727 0.0000 0.0000 0.0000
# 4 0.0000 0.0000 0.0000 18.0951 0.0000 0.0000
# 5 0.0000 0.0000 0.0000 0.0000 49.0773 0.0000
# 6 0.0000 0.0000 0.0000 0.0000 0.0000 -5.4992
#
#
#
# Elastic Compliance Matrix: (Units=1/GPa)
#
#
# Indices 1 2 3 4 5 6 
#
# 1 0.006271 -0.001075 -0.005425 0.000000 0.000000 0.000000
# 2 -0.001075 0.011495 -0.000151 0.000000 0.000000 0.000000
# 3 -0.005425 -0.000151 0.010753 0.000000 0.000000 0.000000
# 4 0.000000 0.000000 0.000000 0.055264 0.000000 0.000000
# 5 0.000000 0.000000 0.000000 0.000000 0.020376 0.000000
# 6 0.000000 0.000000 0.000000 0.000000 0.000000 -0.181843
#
#
# Mechanical properties :
#
#
# Convention : Reuss Voigt Hill
#
# Bulk Modulus (GPa) = 65.71626 104.10766 84.91196
# Shear Modulus (GPa) = -84.30260 36.13402 -24.08429
#
# Velocity S-wave (km/s) = -6.07059 3.97437 -3.24472
# Velocity P-wave (km/s) = 4.51762 8.15907 4.80425
#
# Compressibility (1/GPa) = 0.01521693
#
# Stress axis : x y z
#
# Youngs Moduli (GPa) = 159.47081 86.99112 92.99770
#
# Poissons Ratio (x) = 0.09352 0.50448
# Poissons Ratio (y) = 0.17144 0.01408
# Poissons Ratio (z) = 0.86507 0.01317
#
# Static dielectric constant tensor:
#      x y z
#    x 1.900110 0.000000 0.000000 
#    y 0.000000 1.986370 0.000000 
#    z 0.000000 0.000000 1.896510 
# 
# From -- ./inp_files/24686.got.cif
#   From: 2010.05.17/outbox.cif.g08.bks.cpg/sg67_13_cif.got.tgz:24686.got - 2010.06.03 18:28:57.
