data_PCOD9503808
_publ_section_title
;
Structure prediction by ZEFSAII (Michael W. Deem and Ramdas Pophale) SiO2 
 PCOD9503808
Probable space group: C M M A
;
_chemical_formula_sum "Si O2"
_cell_formula_units_Z 112
_cell_length_a 27.942827
_cell_length_b 30.536209
_cell_length_c 5.574964
_cell_angle_alpha 90.000000
_cell_angle_beta 90.000000
_cell_angle_gamma 90.000000
_cell_volume 4756.938412
_symmetry_space_group_name_H-M "C M M A"
_symmetry_group_IT_number 67
_symmetry_cell_setting 'orthorhombic'
loop_
_space_group_symop_operation_xyz
x,y,z
-x,1/2-y,z
x,-y,-z
-x,1/2+y,-z
-x,-y,-z
x,1/2+y,-z
-x,y,z
x,1/2-y,z
1/2+x,1/2+y,z
1/2-x,-y,z
1/2+x,1/2-y,-z
1/2-x,y,-z
1/2-x,1/2-y,-z
1/2+x,y,-z
1/2-x,1/2+y,z
1/2+x,-y,z
loop_
_atom_site_type_symbol
_atom_site_label
_atom_site_fract_x
_atom_site_fract_y
_atom_site_fract_z
Si Si1 0.310785 0.975065 0.251603
Si Si2 0.885585 0.862657 0.160852
Si Si3 0.574559 0.977762 0.244891
Si Si4 0.549743 0.401847 0.478931
Si Si5 0.946373 0.181748 0.214360
Si Si6 0.346049 0.700400 0.442895
Si Si7 0.704276 0.623866 0.165154
O O1 0.368408 0.973796 0.242481
O O2 0.290645 0.925359 0.267357
O O3 0.299446 0.000000 0.500000
O O4 0.298132 0.000000 0.000000
O O5 0.903089 0.903734 0.319683
O O6 0.863112 0.822976 0.313304
O O7 0.932055 0.844160 0.025468
O O8 0.844439 0.878888 0.987663
O O9 0.554391 0.929594 0.281219
O O10 0.560743 0.000000 0.500000
O O11 0.558558 0.000000 0.000000
O O12 0.500000 0.413226 0.355694
O O13 0.549219 0.352234 0.567680
O O14 0.895008 0.203582 0.281083
O O15 0.000000 0.201736 0.189781
O O16 0.328048 0.750000 0.472730
O O17 0.308211 0.665270 0.335388
O O18 0.750000 0.633248 0.000000
#
# Coordination Sequence:
#
# PCOD9503808 Si02
#       7
#    16  16  16  16  16  16  16
#     4  10  23  43  73 104 138 181 228 291 370 439
#     4  10  21  39  68  94 132 179 232 290 357 426
#     4  10  22  36  58  88 129 177 227 283 348 417
#     4  10  21  36  59  90 126 175 229 282 343 417
#     4   9  19  37  63  94 132 175 229 286 345 416
#     4  10  23  43  67  99 141 187 236 294 359 428
#     4  11  26  46  72 102 136 180 235 299 364 442
#
# _framework density 23.544554000000002
#
# number of rings (size 3 to 8) (size 9 to 14) (size 15 to 20)
#    0.000    2.000    0.000    3.000   10.000    4.857 
#    0.000    1.429    0.000    0.000    0.000    0.000 
#    0.000    0.000    0.000    0.000    0.000    0.000 
#
# Total GULP energy -312403.301288 kJ/mol
# GULP energy per Si atom -5578.630380 kJ/mol
# Density = 2.349097 g / cm^3
# Si number density = 23.544554 Si / 1000 Ang^3
#
#
#
# Elastic Constant Matrix: (Units=GPa)
#
#
# Indices 1 2 3 4 5 6 
#
# 1 90.2990 25.2774 11.7552 0.0000 0.0000 0.0000
# 2 25.2774 134.5537 43.6261 0.0000 0.0000 0.0000
# 3 11.7552 43.6261 107.9017 0.0000 0.0000 0.0000
# 4 0.0000 0.0000 0.0000 13.3113 0.0000 0.0000
# 5 0.0000 0.0000 0.0000 0.0000 23.7665 0.0000
# 6 0.0000 0.0000 0.0000 0.0000 0.0000 -44.0121
#
#
#
# Elastic Compliance Matrix: (Units=1/GPa)
#
#
# Indices 1 2 3 4 5 6 
#
# 1 0.011708 -0.002055 -0.000444 0.000000 0.000000 0.000000
# 2 -0.002055 0.008914 -0.003380 0.000000 0.000000 0.000000
# 3 -0.000444 -0.003380 0.010683 0.000000 0.000000 0.000000
# 4 0.000000 0.000000 0.000000 0.075124 0.000000 0.000000
# 5 0.000000 0.000000 0.000000 0.000000 0.042076 0.000000
# 6 0.000000 0.000000 0.000000 0.000000 0.000000 -0.022721
#
#
# Mechanical properties :
#
#
# Convention : Reuss Voigt Hill
#
# Bulk Modulus (GPa) = 51.16533 54.89686 53.03110
# Shear Modulus (GPa) = 34.70823 15.41953 25.06388
#
# Velocity S-wave (km/s) = 3.84363 2.56189 3.26625
# Velocity P-wave (km/s) = 6.44022 5.66726 6.06607
#
# Compressibility (1/GPa) = 0.01954448
#
# Stress axis : x y z
#
# Youngs Moduli (GPa) = 85.41524 112.18285 93.60883
#
# Poissons Ratio (x) = 0.23057 0.04161
# Poissons Ratio (y) = 0.17555 0.31641
# Poissons Ratio (z) = 0.03797 0.37919
#
# Static dielectric constant tensor:
#      x y z
#    x 1.907610 0.000000 0.000000 
#    y 0.000000 1.974820 0.000000 
#    z 0.000000 0.000000 1.952420 
# 
# From -- ./inp_files/4931.got.cif
#   From: 2010.05.17/outbox.cif.g08.bks.cpg/sg67_3_cif.got.tgz:4931.got - 2010.06.03 18:28:57.
