data_PCOD9503177
_publ_section_title
;
Structure prediction by ZEFSAII (Michael W. Deem and Ramdas Pophale) SiO2 
 PCOD9503177
Probable space group: C M M A
;
_chemical_formula_sum "Si O2"
_cell_formula_units_Z 104
_cell_length_a 9.055130
_cell_length_b 22.093750
_cell_length_c 28.031784
_cell_angle_alpha 90.000000
_cell_angle_beta 90.000000
_cell_angle_gamma 90.000000
_cell_volume 5608.088560
_symmetry_space_group_name_H-M "C M M A"
_symmetry_group_IT_number 67
_symmetry_cell_setting 'orthorhombic'
loop_
_space_group_symop_operation_xyz
x,y,z
-x,1/2-y,z
x,-y,-z
-x,1/2+y,-z
-x,-y,-z
x,1/2+y,-z
-x,y,z
x,1/2-y,z
1/2+x,1/2+y,z
1/2-x,-y,z
1/2+x,1/2-y,-z
1/2-x,y,-z
1/2-x,1/2-y,-z
1/2+x,y,-z
1/2-x,1/2+y,z
1/2+x,-y,z
loop_
_atom_site_type_symbol
_atom_site_label
_atom_site_fract_x
_atom_site_fract_y
_atom_site_fract_z
Si Si1 0.835841 0.402899 0.547845
Si Si2 0.677739 0.178455 0.851264
Si Si3 0.831264 0.322888 0.952513
Si Si4 0.666468 0.090057 0.700311
Si Si5 0.823072 0.819400 0.622289
Si Si6 0.250000 0.000000 0.620657
Si Si7 0.177059 0.935875 0.203102
O O1 0.750000 0.419376 0.500000
O O2 0.751122 0.352073 0.577759
O O3 0.840785 0.458141 0.584980
O O4 0.000000 0.383305 0.535120
O O5 0.500000 0.173109 0.848326
O O6 0.714115 0.250000 0.839339
O O7 0.735608 0.167331 0.905093
O O8 0.754898 0.125113 0.820688
O O9 0.841091 0.250000 0.957545
O O10 0.000000 0.345492 0.947769
O O11 0.750000 0.346201 0.000000
O O12 0.500000 0.096743 0.720108
O O13 0.717321 0.150234 0.672842
O O14 0.777172 0.070017 0.741298
O O15 0.662204 0.042708 0.656748
O O16 0.782769 0.750000 0.622477
O O17 0.000000 0.826009 0.618394
O O18 0.000000 0.938020 0.197219
O O19 0.250000 0.000000 0.186295
#
# Coordination Sequence:
#
# PCOD9503177 Si02
#       7
#    16  16  16  16  16   8  16
#     4  11  23  37  56  83 111 143 179 218 268 324
#     4  10  21  38  60  87 121 160 203 253 307 359
#     4   9  16  28  50  82 119 158 202 251 302 355
#     4  10  20  36  59  84 109 140 181 229 282 338
#     4   9  20  39  60  82 110 143 179 222 272 327
#     4  10  21  36  60  82 108 136 175 226 274 328
#     4  12  25  40  60  86 119 159 202 247 298 358
#
# _framework density 18.544644000000002
#
# number of rings (size 3 to 8) (size 9 to 14) (size 15 to 20)
#    0.000    1.846    0.769    3.462    0.000    8.923 
#    0.000    1.538    0.000    0.462    0.000    3.231 
#    0.000    0.000    0.000    0.000    0.000    0.000 
#
# Total GULP energy -289892.746728 kJ/mol
# GULP energy per Si atom -5574.860514 kJ/mol
# Density = 1.850244 g / cm^3
# Si number density = 18.544644 Si / 1000 Ang^3
#
#
#
# Elastic Constant Matrix: (Units=GPa)
#
#
# Indices 1 2 3 4 5 6 
#
# 1 103.3527 51.0900 45.7818 0.0000 0.0000 0.0000
# 2 51.0900 120.6099 56.3003 0.0000 0.0000 0.0000
# 3 45.7818 56.3003 85.7485 0.0000 0.0000 0.0000
# 4 0.0000 0.0000 0.0000 12.6160 0.0000 0.0000
# 5 0.0000 0.0000 0.0000 0.0000 25.9076 0.0000
# 6 0.0000 0.0000 0.0000 0.0000 0.0000 -364.0671
#
#
#
# Elastic Compliance Matrix: (Units=1/GPa)
#
#
# Indices 1 2 3 4 5 6 
#
# 1 0.013583 -0.003415 -0.005010 0.000000 0.000000 0.000000
# 2 -0.003415 0.012814 -0.006590 0.000000 0.000000 0.000000
# 3 -0.005010 -0.006590 0.018664 0.000000 0.000000 0.000000
# 4 0.000000 0.000000 0.000000 0.079265 0.000000 0.000000
# 5 0.000000 0.000000 0.000000 0.000000 0.038599 0.000000
# 6 0.000000 0.000000 0.000000 0.000000 0.000000 -0.002747
#
#
# Mechanical properties :
#
#
# Convention : Reuss Voigt Hill
#
# Bulk Modulus (GPa) = 66.53015 68.45059 67.49037
# Shear Modulus (GPa) = 25.61249 -54.67277 -14.53014
#
# Velocity S-wave (km/s) = 3.72038 -5.43560 -2.80218
# Velocity P-wave (km/s) = 7.37621 1.55013 5.09930
#
# Compressibility (1/GPa) = 0.01503078
#
# Stress axis : x y z
#
# Youngs Moduli (GPa) = 73.62173 78.03942 53.58035
#
# Poissons Ratio (x) = 0.26652 0.26842
# Poissons Ratio (y) = 0.25143 0.35309
# Poissons Ratio (z) = 0.36882 0.51428
#
# Static dielectric constant tensor:
#      x y z
#    x 1.651990 0.000000 0.000000 
#    y 0.000000 1.667410 0.000000 
#    z 0.000000 0.000000 1.626220 
# 
# From -- ./inp_files/43749.got.cif
#   From: 2010.05.17/outbox.cif.g08.bks.cpg/sg67_22_cif.got.tgz:43749.got - 2010.06.03 18:28:57.
