data_PCOD9503867
_publ_section_title
;
Structure prediction by ZEFSAII (Michael W. Deem and Ramdas Pophale) SiO2 
 PCOD9503867
Probable space group: C M M A
;
_chemical_formula_sum "Si O2"
_cell_formula_units_Z 96
_cell_length_a 19.168191
_cell_length_b 8.685686
_cell_length_c 32.189867
_cell_angle_alpha 90.000000
_cell_angle_beta 90.000000
_cell_angle_gamma 90.000000
_cell_volume 5359.255169
_symmetry_space_group_name_H-M "C M M A"
_symmetry_group_IT_number 67
_symmetry_cell_setting 'orthorhombic'
loop_
_space_group_symop_operation_xyz
x,y,z
-x,1/2-y,z
x,-y,-z
-x,1/2+y,-z
-x,-y,-z
x,1/2+y,-z
-x,y,z
x,1/2-y,z
1/2+x,1/2+y,z
1/2-x,-y,z
1/2+x,1/2-y,-z
1/2-x,y,-z
1/2-x,1/2-y,-z
1/2+x,y,-z
1/2-x,1/2+y,z
1/2+x,-y,z
loop_
_atom_site_type_symbol
_atom_site_label
_atom_site_fract_x
_atom_site_fract_y
_atom_site_fract_z
Si Si1 0.918444 0.935344 0.788055
Si Si2 0.080534 0.064410 0.455057
Si Si3 0.170992 0.934312 0.957898
Si Si4 0.418443 0.934146 0.698675
Si Si5 0.327850 0.065127 0.623618
Si Si6 0.328151 0.564164 0.133329
O O1 0.912165 0.750000 0.784310
O O2 0.874032 0.987176 0.827696
O O3 0.000000 0.971527 0.794573
O O4 0.896665 0.010458 0.744558
O O5 0.081729 0.250000 0.456770
O O6 0.130673 0.014289 0.417847
O O7 0.000000 0.016753 0.447051
O O8 0.101179 0.000000 0.500000
O O9 0.173637 0.750000 0.961121
O O10 0.141880 0.977247 0.912406
O O11 0.250000 0.000000 0.957009
O O12 0.137447 0.000000 0.000000
O O13 0.500000 0.979726 0.692997
O O14 0.414234 0.750000 0.696300
O O15 0.371029 0.008052 0.663362
O O16 0.325506 0.250000 0.623893
O O17 0.250000 0.000000 0.624049
O O18 0.324719 0.750000 0.134310
O O19 0.250000 0.500000 0.136734
#
# Coordination Sequence:
#
# PCOD9503867 Si02
#       6
#    16  16  16  16  16  16
#     4   9  18  34  54  73  96 130 169 206 247 298
#     4   9  19  36  58  82 107 139 179 219 258 303
#     4   9  15  24  39  61  89 119 154 194 237 286
#     4  10  21  37  57  80 104 133 172 215 258 307
#     4  11  23  38  56  80 111 144 178 216 261 310
#     4   9  18  30  46  70  96 124 159 200 246 294
#
# _framework density 17.912938
#
# number of rings (size 3 to 8) (size 9 to 14) (size 15 to 20)
#    0.000    2.500    0.000    2.500    0.000    5.333 
#    0.000    5.000    0.000    0.500    0.000    0.000 
#    0.000    0.000    0.000    0.000    0.000    4.500 
#
# Total GULP energy -267669.560665 kJ/mol
# GULP energy per Si atom -5576.449181 kJ/mol
# Density = 1.787217 g / cm^3
# Si number density = 17.912938 Si / 1000 Ang^3
#
#
#
# Elastic Constant Matrix: (Units=GPa)
#
#
# Indices 1 2 3 4 5 6 
#
# 1 75.2679 28.8330 100.8912 0.0000 0.0000 0.0000
# 2 28.8330 32.4279 49.7326 0.0000 0.0000 0.0000
# 3 100.8912 49.7326 216.5394 0.0000 0.0000 0.0000
# 4 0.0000 0.0000 0.0000 74.9385 0.0000 0.0000
# 5 0.0000 0.0000 0.0000 0.0000 32.3114 0.0000
# 6 0.0000 0.0000 0.0000 0.0000 0.0000 19.6421
#
#
#
# Elastic Compliance Matrix: (Units=1/GPa)
#
#
# Indices 1 2 3 4 5 6 
#
# 1 0.037405 -0.010081 -0.015113 0.000000 0.000000 0.000000
# 2 -0.010081 0.050323 -0.006861 0.000000 0.000000 0.000000
# 3 -0.015113 -0.006861 0.013235 0.000000 0.000000 0.000000
# 4 0.000000 0.000000 0.000000 0.013344 0.000000 0.000000
# 5 0.000000 0.000000 0.000000 0.000000 0.030949 0.000000
# 6 0.000000 0.000000 0.000000 0.000000 0.000000 0.050911
#
#
# Mechanical properties :
#
#
# Convention : Reuss Voigt Hill
#
# Bulk Modulus (GPa) = 27.13384 75.90541 51.51963
# Shear Modulus (GPa) = 18.34454 35.03031 26.68742
#
# Velocity S-wave (km/s) = 3.20362 4.42700 3.86403
# Velocity P-wave (km/s) = 5.37259 8.28237 6.98078
#
# Compressibility (1/GPa) = 0.03685434
#
# Stress axis : x y z
#
# Youngs Moduli (GPa) = 26.73427 19.87173 75.55631
#
# Poissons Ratio (x) = 0.20033 1.14186
# Poissons Ratio (y) = 0.26951 0.51836
# Poissons Ratio (z) = 0.40403 0.13633
#
# Static dielectric constant tensor:
#      x y z
#    x 1.588630 0.000000 0.000000 
#    y 0.000000 1.607730 0.000000 
#    z 0.000000 0.000000 1.631060 
# 
# From -- ./inp_files/43516.got.cif
#   From: 2010.05.17/outbox.cif.g08.bks.cpg/sg67_22_cif.got.tgz:43516.got - 2010.06.03 18:28:57.
