data_PCOD9503891
_publ_section_title
;
Structure prediction by ZEFSAII (Michael W. Deem and Ramdas Pophale) SiO2 
 PCOD9503891
Probable space group: C M M A
;
_chemical_formula_sum "Si O2"
_cell_formula_units_Z 96
_cell_length_a 29.438969
_cell_length_b 8.806486
_cell_length_c 20.972992
_cell_angle_alpha 90.000000
_cell_angle_beta 90.000000
_cell_angle_gamma 90.000000
_cell_volume 5437.329307
_symmetry_space_group_name_H-M "C M M A"
_symmetry_group_IT_number 67
_symmetry_cell_setting 'orthorhombic'
loop_
_space_group_symop_operation_xyz
x,y,z
-x,1/2-y,z
x,-y,-z
-x,1/2+y,-z
-x,-y,-z
x,1/2+y,-z
-x,y,z
x,1/2-y,z
1/2+x,1/2+y,z
1/2-x,-y,z
1/2+x,1/2-y,-z
1/2-x,y,-z
1/2-x,1/2-y,-z
1/2+x,y,-z
1/2-x,1/2+y,z
1/2+x,-y,z
loop_
_atom_site_type_symbol
_atom_site_label
_atom_site_fract_x
_atom_site_fract_y
_atom_site_fract_z
Si Si1 0.702551 0.067723 0.113060
Si Si2 0.553246 0.431606 0.569261
Si Si3 0.105128 0.432719 0.688772
Si Si4 0.396106 0.432599 0.066875
Si Si5 0.446065 0.931047 0.189242
Si Si6 0.702574 0.932335 0.737785
O O1 0.705563 0.250000 0.110764
O O2 0.656709 0.021300 0.077387
O O3 0.697199 0.022218 0.187661
O O4 0.750000 0.000000 0.089157
O O5 0.564084 0.500000 0.500000
O O6 0.500000 0.466498 0.582535
O O7 0.558108 0.250000 0.567985
O O8 0.583885 0.501993 0.624433
O O9 0.102716 0.250000 0.688727
O O10 0.077150 0.495800 0.748907
O O11 0.157668 0.478128 0.699655
O O12 0.398425 0.250000 0.066607
O O13 0.424296 0.496561 0.126178
O O14 0.412337 0.500000 0.000000
O O15 0.500000 0.957948 0.190708
O O16 0.438262 0.750000 0.189481
O O17 0.705400 0.750000 0.736637
O O18 0.750000 0.000000 0.714301
#
# Coordination Sequence:
#
# PCOD9503891 Si02
#       6
#    16  16  16  16  16  16
#     4   9  18  34  54  78 108 140 178 223 274 332
#     4  10  21  37  57  85 120 156 194 232 275 329
#     4  11  21  36  59  87 118 150 186 229 278 329
#     4  11  23  40  58  79 108 143 184 229 281 339
#     4  11  24  40  58  82 109 141 186 234 279 331
#     4   9  18  33  53  81 112 144 182 224 273 329
#
# _framework density 17.655726999999999
#
# number of rings (size 3 to 8) (size 9 to 14) (size 15 to 20)
#    0.000    1.833    1.667    2.500    0.000    7.667 
#    0.000    1.667    0.000    0.500    0.000    3.500 
#    0.000    0.000    0.000    0.000    0.000    0.000 
#
# Total GULP energy -268117.857819 kJ/mol
# GULP energy per Si atom -5585.788705 kJ/mol
# Density = 1.761554 g / cm^3
# Si number density = 17.655727 Si / 1000 Ang^3
#
#
#
# Elastic Constant Matrix: (Units=GPa)
#
#
# Indices 1 2 3 4 5 6 
#
# 1 118.0826 56.2754 79.9116 0.0000 0.0000 0.0000
# 2 56.2754 52.7915 47.9631 0.0000 0.0000 0.0000
# 3 79.9116 47.9631 132.1391 0.0000 0.0000 0.0000
# 4 0.0000 0.0000 0.0000 29.8071 0.0000 0.0000
# 5 0.0000 0.0000 0.0000 0.0000-1124.6413 0.0000
# 6 0.0000 0.0000 0.0000 0.0000 0.0000 30.9385
#
#
#
# Elastic Compliance Matrix: (Units=1/GPa)
#
#
# Indices 1 2 3 4 5 6 
#
# 1 0.020518 -0.015813 -0.006668 0.000000 0.000000 0.000000
# 2 -0.015813 0.040450 -0.005119 0.000000 0.000000 0.000000
# 3 -0.006668 -0.005119 0.013459 0.000000 0.000000 0.000000
# 4 0.000000 0.000000 0.000000 0.033549 0.000000 0.000000
# 5 0.000000 0.000000 0.000000 0.000000 -0.000889 0.000000
# 6 0.000000 0.000000 0.000000 0.000000 0.000000 0.032322
#
#
# Mechanical properties :
#
#
# Convention : Reuss Voigt Hill
#
# Bulk Modulus (GPa) = 52.01592 74.59035 63.30313
# Shear Modulus (GPa) = 24.87333 -204.85494 -89.99080
#
# Velocity S-wave (km/s) = 3.75747 -10.78329 -7.14706
# Velocity P-wave (km/s) = 6.95341 10.61604 5.67232
#
# Compressibility (1/GPa) = 0.01922488
#
# Stress axis : x y z
#
# Youngs Moduli (GPa) = 48.73874 24.72169 74.30174
#
# Poissons Ratio (x) = 0.39093 0.49547
# Poissons Ratio (y) = 0.77071 0.38038
# Poissons Ratio (z) = 0.32500 0.12656
#
# Static dielectric constant tensor:
#      x y z
#    x 1.599200 0.000000 0.000000 
#    y 0.000000 1.590160 0.000000 
#    z 0.000000 0.000000 1.574500 
# 
# From -- ./inp_files/37131.got.cif
#   From: 2010.05.17/outbox.cif.g08.bks.cpg/sg67_19_cif.got.tgz:37131.got - 2010.06.03 18:28:57.
