data_PCOD9503981
_publ_section_title
;
Structure prediction by ZEFSAII (Michael W. Deem and Ramdas Pophale) SiO2 
 PCOD9503981
Probable space group: C M M A
;
_chemical_formula_sum "Si O2"
_cell_formula_units_Z 96
_cell_length_a 8.728564
_cell_length_b 19.159885
_cell_length_c 32.732915
_cell_angle_alpha 90.000000
_cell_angle_beta 90.000000
_cell_angle_gamma 90.000000
_cell_volume 5474.196484
_symmetry_space_group_name_H-M "C M M A"
_symmetry_group_IT_number 67
_symmetry_cell_setting 'orthorhombic'
loop_
_space_group_symop_operation_xyz
x,y,z
-x,1/2-y,z
x,-y,-z
-x,1/2+y,-z
-x,-y,-z
x,1/2+y,-z
-x,y,z
x,1/2-y,z
1/2+x,1/2+y,z
1/2-x,-y,z
1/2+x,1/2-y,-z
1/2-x,y,-z
1/2-x,1/2-y,-z
1/2+x,y,-z
1/2-x,1/2+y,z
1/2+x,-y,z
loop_
_atom_site_type_symbol
_atom_site_label
_atom_site_fract_x
_atom_site_fract_y
_atom_site_fract_z
Si Si1 0.183898 0.421310 0.297912
Si Si2 0.182701 0.921563 0.381931
Si Si3 0.817444 0.167244 0.455801
Si Si4 0.184846 0.077939 0.208052
Si Si5 0.187429 0.669074 0.868596
Si Si6 0.678804 0.165214 0.957733
O O1 0.250000 0.500000 0.296588
O O2 0.255735 0.390282 0.338971
O O3 0.223302 0.391604 0.253084
O O4 0.000000 0.423145 0.302082
O O5 0.240120 0.876243 0.419820
O O6 0.000000 0.925514 0.380830
O O7 0.250000 0.000000 0.385607
O O8 0.788294 0.250000 0.450161
O O9 0.750000 0.147419 0.500000
O O10 0.000000 0.156105 0.455461
O O11 0.238153 0.123880 0.169901
O O12 0.000000 0.073888 0.206578
O O13 0.250000 0.000000 0.205024
O O14 0.232034 0.750000 0.863815
O O15 0.240772 0.642779 0.913317
O O16 0.000000 0.667947 0.869548
O O17 0.500000 0.148353 0.958985
O O18 0.692452 0.250000 0.957380
O O19 0.750000 0.139528 0.000000
#
# Coordination Sequence:
#
# PCOD9503981 Si02
#       6
#    16  16  16  16  16  16
#     4   9  16  28  46  69  95 123 157 195 237 281
#     4  11  21  34  54  78 104 132 166 207 248 288
#     4  10  21  38  58  79 105 136 169 203 242 291
#     4   9  17  29  47  68  90 119 155 191 228 277
#     4   8  14  26  44  65  88 115 148 186 227 272
#     4   8  13  22  38  59  82 108 140 179 222 268
#
# _framework density 17.536821
#
# number of rings (size 3 to 8) (size 9 to 14) (size 15 to 20)
#    0.000    2.833    0.000    4.500    0.000    2.000 
#    0.000    3.333    0.000    5.000    0.000    3.500 
#    0.000    0.000    0.000    0.000    0.000    0.000 
#
# Total GULP energy -267297.739712 kJ/mol
# GULP energy per Si atom -5568.702911 kJ/mol
# Density = 1.749691 g / cm^3
# Si number density = 17.536821 Si / 1000 Ang^3
#
#
#
# Elastic Constant Matrix: (Units=GPa)
#
#
# Indices 1 2 3 4 5 6 
#
# 1 59.0899 22.8311 65.9590 0.0000 0.0000 0.0000
# 2 22.8311 32.9493 64.9404 0.0000 0.0000 0.0000
# 3 65.9590 64.9404 234.0574 0.0000 0.0000 0.0000
# 4 0.0000 0.0000 0.0000 28.1139 0.0000 0.0000
# 5 0.0000 0.0000 0.0000 0.0000 27.0876 0.0000
# 6 0.0000 0.0000 0.0000 0.0000 0.0000 15.5587
#
#
#
# Elastic Compliance Matrix: (Units=1/GPa)
#
#
# Indices 1 2 3 4 5 6 
#
# 1 0.025557 -0.007755 -0.005051 0.000000 0.000000 0.000000
# 2 -0.007755 0.069326 -0.017050 0.000000 0.000000 0.000000
# 3 -0.005051 -0.017050 0.010426 0.000000 0.000000 0.000000
# 4 0.000000 0.000000 0.000000 0.035570 0.000000 0.000000
# 5 0.000000 0.000000 0.000000 0.000000 0.036917 0.000000
# 6 0.000000 0.000000 0.000000 0.000000 0.000000 0.064273
#
#
# Mechanical properties :
#
#
# Convention : Reuss Voigt Hill
#
# Bulk Modulus (GPa) = 21.92974 70.39530 46.16252
# Shear Modulus (GPa) = 15.77387 25.64311 20.70849
#
# Velocity S-wave (km/s) = 3.00237 3.82808 3.44009
# Velocity P-wave (km/s) = 4.95491 7.73094 6.49302
#
# Compressibility (1/GPa) = 0.04560017
#
# Stress axis : x y z
#
# Youngs Moduli (GPa) = 39.12750 14.42451 95.91142
#
# Poissons Ratio (x) = 0.11186 0.48442
# Poissons Ratio (y) = 0.30342 1.63526
# Poissons Ratio (z) = 0.19762 0.24593
#
# Static dielectric constant tensor:
#      x y z
#    x 1.596580 0.000000 0.000000 
#    y 0.000000 1.576210 0.000000 
#    z 0.000000 0.000000 1.649050 
# 
# From -- ./inp_files/40776.got.cif
#   From: 2010.05.17/outbox.cif.g08.bks.cpg/sg67_21_cif.got.tgz:40776.got - 2010.06.03 18:28:57.
