data_PCOD9503803
_publ_section_title
;
Structure prediction by ZEFSAII (Michael W. Deem and Ramdas Pophale) SiO2 
 PCOD9503803
Probable space group: C M M A
;
_chemical_formula_sum "Si O2"
_cell_formula_units_Z 112
_cell_length_a 24.179031
_cell_length_b 14.466148
_cell_length_c 14.242631
_cell_angle_alpha 90.000000
_cell_angle_beta 90.000000
_cell_angle_gamma 90.000000
_cell_volume 4981.751023
_symmetry_space_group_name_H-M "C M M A"
_symmetry_group_IT_number 67
_symmetry_cell_setting 'orthorhombic'
loop_
_space_group_symop_operation_xyz
x,y,z
-x,1/2-y,z
x,-y,-z
-x,1/2+y,-z
-x,-y,-z
x,1/2+y,-z
-x,y,z
x,1/2-y,z
1/2+x,1/2+y,z
1/2-x,-y,z
1/2+x,1/2-y,-z
1/2-x,y,-z
1/2-x,1/2-y,-z
1/2+x,y,-z
1/2-x,1/2+y,z
1/2+x,-y,z
loop_
_atom_site_type_symbol
_atom_site_label
_atom_site_fract_x
_atom_site_fract_y
_atom_site_fract_z
Si Si1 0.630408 0.359934 0.644668
Si Si2 0.063973 0.146342 0.902513
Si Si3 0.246081 0.111334 0.849920
Si Si4 0.255367 0.854685 0.639571
Si Si5 0.836404 0.889637 0.985676
Si Si6 0.933532 0.021759 0.727454
Si Si7 0.872002 0.360274 0.570401
O O1 0.629771 0.250000 0.666272
O O2 0.693965 0.395827 0.642569
O O3 0.594509 0.422332 0.713656
O O4 0.610125 0.372510 0.537290
O O5 0.068660 0.250000 0.861670
O O6 0.102137 0.141428 0.993626
O O7 0.082112 0.071423 0.825306
O O8 0.000000 0.130001 0.925109
O O9 0.228626 0.145839 0.748946
O O10 0.202510 0.142281 0.928234
O O11 0.250000 0.000000 0.845157
O O12 0.306386 0.138785 0.889856
O O13 0.253392 0.750000 0.394281
O O14 0.307729 0.891368 0.582670
O O15 0.835044 0.000000 0.000000
O O16 0.909405 0.084611 0.643327
O O17 0.000000 0.017394 0.722935
O O18 0.872980 0.250000 0.590808
#
# Coordination Sequence:
#
# PCOD9503803 Si02
#       7
#    16  16  16  16  16  16  16
#     4  10  23  40  59  86 122 162 205 254 306 366
#     4  10  22  40  62  89 120 157 204 258 310 360
#     4   9  19  33  53  87 120 153 187 236 294 353
#     4  10  21  36  58  88 122 159 201 247 302 367
#     4   9  19  35  57  85 120 154 191 239 293 356
#     4  11  24  40  61  89 119 157 210 260 305 363
#     4  10  21  38  60  89 124 160 199 251 311 367
#
# _framework density 22.482054000000002
#
# number of rings (size 3 to 8) (size 9 to 14) (size 15 to 20)
#    0.000    2.143    0.000    3.000    6.000    6.571 
#    0.000    4.286    0.000    0.000    0.000    0.000 
#    0.000    0.000    0.000    0.000    0.000    0.000 
#
# Total GULP energy -313007.240676 kJ/mol
# GULP energy per Si atom -5589.415012 kJ/mol
# Density = 2.243088 g / cm^3
# Si number density = 22.482054 Si / 1000 Ang^3
#
#
#
# Elastic Constant Matrix: (Units=GPa)
#
#
# Indices 1 2 3 4 5 6 
#
# 1 95.9505 29.9826 24.4196 0.0000 0.0000 0.0000
# 2 29.9826 97.9970 6.0314 0.0000 0.0000 0.0000
# 3 24.4196 6.0314 45.8605 0.0000 0.0000 0.0000
# 4 0.0000 0.0000 0.0000 16.1908 0.0000 0.0000
# 5 0.0000 0.0000 0.0000 0.0000 29.5823 0.0000
# 6 0.0000 0.0000 0.0000 0.0000 0.0000 -1.6825
#
#
#
# Elastic Compliance Matrix: (Units=1/GPa)
#
#
# Indices 1 2 3 4 5 6 
#
# 1 0.013232 -0.003644 -0.006566 0.000000 0.000000 0.000000
# 2 -0.003644 0.011291 0.000455 0.000000 0.000000 0.000000
# 3 -0.006566 0.000455 0.025242 0.000000 0.000000 0.000000
# 4 0.000000 0.000000 0.000000 0.061763 0.000000 0.000000
# 5 0.000000 0.000000 0.000000 0.000000 0.033804 0.000000
# 6 0.000000 0.000000 0.000000 0.000000 0.000000 -0.594369
#
#
# Mechanical properties :
#
#
# Convention : Reuss Voigt Hill
#
# Bulk Modulus (GPa) = 33.05265 40.07502 36.56384
# Shear Modulus (GPa) = -11.92062 20.77642 4.42790
#
# Velocity S-wave (km/s) = -2.30517 3.04325 1.40492
# Velocity P-wave (km/s) = 2.76562 5.49660 4.35093
#
# Compressibility (1/GPa) = 0.03025476
#
# Stress axis : x y z
#
# Youngs Moduli (GPa) = 75.57460 88.56357 39.61678
#
# Poissons Ratio (x) = 0.32275 0.26014
# Poissons Ratio (y) = 0.27541 -0.01804
# Poissons Ratio (z) = 0.49626 -0.04034
#
# Static dielectric constant tensor:
#      x y z
#    x 1.821240 0.000000 0.000000 
#    y 0.000000 1.883440 0.000000 
#    z 0.000000 0.000000 1.836500 
# 
# From -- ./inp_files/30193.got.cif
#   From: 2010.05.17/outbox.cif.g08.bks.cpg/sg67_16_cif.got.tgz:30193.got - 2010.06.03 18:28:57.
