data_PCOD9503489
_publ_section_title
;
Structure prediction by ZEFSAII (Michael W. Deem and Ramdas Pophale) SiO2 
 PCOD9503489
Probable space group: C M M A
;
_chemical_formula_sum "Si O2"
_cell_formula_units_Z 112
_cell_length_a 15.176498
_cell_length_b 27.306492
_cell_length_c 12.256136
_cell_angle_alpha 90.000000
_cell_angle_beta 90.000000
_cell_angle_gamma 90.000000
_cell_volume 5079.150147
_symmetry_space_group_name_H-M "C M M A"
_symmetry_group_IT_number 67
_symmetry_cell_setting 'orthorhombic'
loop_
_space_group_symop_operation_xyz
x,y,z
-x,1/2-y,z
x,-y,-z
-x,1/2+y,-z
-x,-y,-z
x,1/2+y,-z
-x,y,z
x,1/2-y,z
1/2+x,1/2+y,z
1/2-x,-y,z
1/2+x,1/2-y,-z
1/2-x,y,-z
1/2-x,1/2-y,-z
1/2+x,y,-z
1/2-x,1/2+y,z
1/2+x,-y,z
loop_
_atom_site_type_symbol
_atom_site_label
_atom_site_fract_x
_atom_site_fract_y
_atom_site_fract_z
Si Si1 0.649528 0.591280 0.962142
Si Si2 0.770492 0.806478 0.377011
Si Si3 0.398522 0.561017 0.188947
Si Si4 0.356986 0.801596 0.007245
Si Si5 0.852841 0.987201 0.381932
Si Si6 0.602917 0.168927 0.753516
Si Si7 0.605322 0.389314 0.275924
O O1 0.636799 0.582184 0.835021
O O2 0.750000 0.595410 0.000000
O O3 0.615767 0.555776 0.058334
O O4 0.609654 0.646327 0.965150
O O5 0.802960 0.750000 0.379613
O O6 0.750000 0.824093 0.500000
O O7 0.673681 0.807168 0.324387
O O8 0.836698 0.841614 0.308264
O O9 0.500000 0.571378 0.197730
O O10 0.380550 0.518712 0.275540
O O11 0.359405 0.613497 0.225458
O O12 0.385885 0.750000 0.956157
O O13 0.387782 0.803907 0.131515
O O14 0.250000 0.802045 0.000000
O O15 0.874092 0.930516 0.365191
O O16 0.892449 0.000000 0.500000
O O17 0.750000 0.000000 0.387753
O O18 0.500000 0.169617 0.719020
O O19 0.500000 0.379850 0.270061
#
# Coordination Sequence:
#
# PCOD9503489 Si02
#       7
#    16  16  16  16  16  16  16
#     4  10  20  38  63  93 136 183 228 281 349 422
#     4  11  26  46  68  95 136 188 237 290 359 428
#     4  10  21  39  63  95 135 173 216 272 345 413
#     4   9  17  31  55  88 125 167 216 271 334 400
#     4  11  25  44  71 101 132 177 230 291 353 424
#     4  10  21  38  65  96 128 171 226 286 336 398
#     4  12  27  45  70 105 143 183 238 296 357 433
#
# _framework density 22.050933000000001
#
# number of rings (size 3 to 8) (size 9 to 14) (size 15 to 20)
#    0.000    1.571    0.000    5.571    4.000    6.000 
#    0.000    4.286    0.000    0.000    0.000    0.000 
#    0.000    0.000    0.000    0.000    0.000    0.000 
#
# Total GULP energy -312009.807826 kJ/mol
# GULP energy per Si atom -5571.603711 kJ/mol
# Density = 2.200074 g / cm^3
# Si number density = 22.050933 Si / 1000 Ang^3
#
#
#
# Elastic Constant Matrix: (Units=GPa)
#
#
# Indices 1 2 3 4 5 6 
#
# 1 107.0826 7.9152 21.2061 0.0000 0.0000 0.0000
# 2 7.9152 95.5973 30.1142 0.0000 0.0000 0.0000
# 3 21.2061 30.1142 108.5495 0.0000 0.0000 0.0000
# 4 0.0000 0.0000 0.0000 7.1386 0.0000 0.0000
# 5 0.0000 0.0000 0.0000 0.0000 -79.1174 0.0000
# 6 0.0000 0.0000 0.0000 0.0000 0.0000 50.4673
#
#
#
# Elastic Compliance Matrix: (Units=1/GPa)
#
#
# Indices 1 2 3 4 5 6 
#
# 1 0.009719 -0.000226 -0.001836 0.000000 0.000000 0.000000
# 2 -0.000226 0.011468 -0.003137 0.000000 0.000000 0.000000
# 3 -0.001836 -0.003137 0.010441 0.000000 0.000000 0.000000
# 4 0.000000 0.000000 0.000000 0.140083 0.000000 0.000000
# 5 0.000000 0.000000 0.000000 0.000000 -0.012639 0.000000
# 6 0.000000 0.000000 0.000000 0.000000 0.000000 0.019815
#
#
# Mechanical properties :
#
#
# Convention : Reuss Voigt Hill
#
# Bulk Modulus (GPa) = 47.10537 47.74448 47.42493
# Shear Modulus (GPa) = 25.46327 12.49730 18.98029
#
# Velocity S-wave (km/s) = 3.40185 2.38323 2.93703
# Velocity P-wave (km/s) = 6.06947 5.41036 5.74937
#
# Compressibility (1/GPa) = 0.02122900
#
# Stress axis : x y z
#
# Youngs Moduli (GPa) = 102.89250 87.20274 95.77299
#
# Poissons Ratio (x) = 0.01974 0.17583
# Poissons Ratio (y) = 0.02329 0.30045
# Poissons Ratio (z) = 0.18890 0.27357
#
# Static dielectric constant tensor:
#      x y z
#    x 1.794130 0.000000 0.000000 
#    y 0.000000 1.561620 0.000000 
#    z 0.000000 0.000000 1.860810 
# 
# From -- ./inp_files/18638.got.cif
#   From: 2010.05.17/outbox.cif.g08.bks.cpg/sg67_10_cif.got.tgz:18638.got - 2010.06.03 18:28:57.
