data_PCOD9503996
_publ_section_title
;
Structure prediction by ZEFSAII (Michael W. Deem and Ramdas Pophale) SiO2 
 PCOD9503996
Probable space group: C M M A
;
_chemical_formula_sum "Si O2"
_cell_formula_units_Z 48
_cell_length_a 13.976086
_cell_length_b 13.140154
_cell_length_c 13.627729
_cell_angle_alpha 90.000000
_cell_angle_beta 90.000000
_cell_angle_gamma 90.000000
_cell_volume 2502.704117
_symmetry_space_group_name_H-M "C M M A"
_symmetry_group_IT_number 67
_symmetry_cell_setting 'orthorhombic'
loop_
_space_group_symop_operation_xyz
x,y,z
-x,1/2-y,z
x,-y,-z
-x,1/2+y,-z
-x,-y,-z
x,1/2+y,-z
-x,y,z
x,1/2-y,z
1/2+x,1/2+y,z
1/2-x,-y,z
1/2+x,1/2-y,-z
1/2-x,y,-z
1/2-x,1/2-y,-z
1/2+x,y,-z
1/2-x,1/2+y,z
1/2+x,-y,z
loop_
_atom_site_type_symbol
_atom_site_label
_atom_site_fract_x
_atom_site_fract_y
_atom_site_fract_z
Si Si1 0.884229 0.750000 0.206364
Si Si2 0.111408 0.137164 0.254826
Si Si3 0.241810 0.750000 0.615676
Si Si4 0.116105 0.539195 0.106653
O O1 0.834550 0.750000 0.313502
O O2 0.853944 0.850237 0.145461
O O3 0.000000 0.750000 0.216268
O O4 0.117394 0.250000 0.204899
O O5 0.178441 0.153510 0.348351
O O6 0.000000 0.122363 0.281438
O O7 0.142132 0.047118 0.184954
O O8 0.250000 0.750000 0.500000
O O9 0.000000 0.542969 0.103894
O O10 0.146381 0.500000 0.000000
#
# Coordination Sequence:
#
# PCOD9503996 Si02
#       4
#     8  16   8  16
#     4  10  22  36  53  84 117 141 182 228 267 325
#     4   8  17  35  58  81 108 140 183 224 265 327
#     4  10  21  38  59  80 106 145 185 236 281 317
#     4   9  18  34  58  83 114 151 177 215 273 330
#
# _framework density 19.179255000000001
#
# number of rings (size 3 to 8) (size 9 to 14) (size 15 to 20)
#    1.000    2.000    0.000    0.000    2.333    2.667 
#    0.000    8.333    0.000    6.000    0.000    0.000 
#    0.000    0.000    0.000    0.000    0.000    0.000 
#
# Total GULP energy -133644.545321 kJ/mol
# GULP energy per Si atom -5568.522722 kJ/mol
# Density = 1.913560 g / cm^3
# Si number density = 19.179255 Si / 1000 Ang^3
#
#
#
# Elastic Constant Matrix: (Units=GPa)
#
#
# Indices 1 2 3 4 5 6 
#
# 1 91.2228 42.6065 52.6919 0.0000 0.0000 0.0000
# 2 42.6065 152.0731 102.5443 0.0000 0.0000 0.0000
# 3 52.6919 102.5443 195.9666 0.0000 0.0000 0.0000
# 4 0.0000 0.0000 0.0000 23.6060 0.0000 0.0000
# 5 0.0000 0.0000 0.0000 0.0000 25.6187 0.0000
# 6 0.0000 0.0000 0.0000 0.0000 0.0000 12.7115
#
#
#
# Elastic Compliance Matrix: (Units=1/GPa)
#
#
# Indices 1 2 3 4 5 6 
#
# 1 0.013376 -0.002043 -0.002527 0.000000 0.000000 0.000000
# 2 -0.002043 0.010473 -0.004931 0.000000 0.000000 0.000000
# 3 -0.002527 -0.004931 0.008363 0.000000 0.000000 0.000000
# 4 0.000000 0.000000 0.000000 0.042362 0.000000 0.000000
# 5 0.000000 0.000000 0.000000 0.000000 0.039034 0.000000
# 6 0.000000 0.000000 0.000000 0.000000 0.000000 0.078669
#
#
# Mechanical properties :
#
#
# Convention : Reuss Voigt Hill
#
# Bulk Modulus (GPa) = 75.70675 92.77199 84.23937
# Shear Modulus (GPa) = 23.18208 28.48190 25.83199
#
# Velocity S-wave (km/s) = 3.48042 3.85780 3.67396
# Velocity P-wave (km/s) = 7.46391 8.26556 7.87494
#
# Compressibility (1/GPa) = 0.01320886
#
# Stress axis : x y z
#
# Youngs Moduli (GPa) = 74.75820 95.48093 119.57814
#
# Poissons Ratio (x) = 0.19511 0.30222
# Poissons Ratio (y) = 0.15276 0.58964
# Poissons Ratio (z) = 0.18894 0.47081
#
# Static dielectric constant tensor:
#      x y z
#    x 1.746670 0.000000 0.000000 
#    y 0.000000 1.665300 0.000000 
#    z 0.000000 0.000000 1.671410 
# 
# From -- ./inp_files/17156.got.cif
#   From: 2010.05.17/outbox.cif.g08.bks.cpg/sg67_9_cif.got.tgz:17156.got - 2010.06.03 18:28:57.
