data_PCOD9503794
_publ_section_title
;
Structure prediction by ZEFSAII (Michael W. Deem and Ramdas Pophale) SiO2 
 PCOD9503794
Probable space group: C M M A
;
_chemical_formula_sum "Si O2"
_cell_formula_units_Z 68
_cell_length_a 24.247290
_cell_length_b 17.167080
_cell_length_c 8.094502
_cell_angle_alpha 90.000000
_cell_angle_beta 90.000000
_cell_angle_gamma 90.000000
_cell_volume 3369.378284
_symmetry_space_group_name_H-M "C M M A"
_symmetry_group_IT_number 67
_symmetry_cell_setting 'orthorhombic'
loop_
_space_group_symop_operation_xyz
x,y,z
-x,1/2-y,z
x,-y,-z
-x,1/2+y,-z
-x,-y,-z
x,1/2+y,-z
-x,y,z
x,1/2-y,z
1/2+x,1/2+y,z
1/2-x,-y,z
1/2+x,1/2-y,-z
1/2-x,y,-z
1/2-x,1/2-y,-z
1/2+x,y,-z
1/2-x,1/2+y,z
1/2+x,-y,z
loop_
_atom_site_type_symbol
_atom_site_label
_atom_site_fract_x
_atom_site_fract_y
_atom_site_fract_z
Si Si1 0.398736 0.903664 0.361193
Si Si2 0.434671 0.340531 0.990354
Si Si3 0.347775 0.544894 0.840562
Si Si4 0.693840 0.161909 0.398718
Si Si5 0.000000 0.000000 0.500000
O O1 0.417072 0.854569 0.199994
O O2 0.357296 0.859029 0.481985
O O3 0.451901 0.935496 0.454956
O O4 0.368203 0.979576 0.286421
O O5 0.500000 0.357125 0.007721
O O6 0.424996 0.250000 0.034958
O O7 0.399267 0.401353 0.098535
O O8 0.305983 0.601706 0.750881
O O9 0.326031 0.500000 0.000000
O O10 0.687815 0.250000 0.338068
O O11 0.750000 0.155675 0.500000
#
# Coordination Sequence:
#
# PCOD9503794 Si02
#       5
#    16  16  16  16   4
#     4  11  22  38  62  91 126 166 214 262 316 376
#     4  10  21  36  57  89 129 171 211 260 320 381
#     4  10  22  38  62  92 123 162 205 259 310 378
#     4  11  24  44  67  91 126 170 216 266 313 367
#     4  12  20  36  62  92 128 164 208 270 318 382
#
# _framework density 20.181764000000001
#
# number of rings (size 3 to 8) (size 9 to 14) (size 15 to 20)
#    0.000    1.412    3.529    1.412    1.647    3.294 
#    0.000    8.235    0.000   12.706    0.000    0.000 
#    0.000    0.000    0.000    0.000    0.000    0.000 
#
# Total GULP energy -189529.079960 kJ/mol
# GULP energy per Si atom -5574.384705 kJ/mol
# Density = 2.013583 g / cm^3
# Si number density = 20.181764 Si / 1000 Ang^3
#
#
#
# Elastic Constant Matrix: (Units=GPa)
#
#
# Indices 1 2 3 4 5 6 
#
# 1 54.6307 25.4198 7.4777 0.0000 0.0000 0.0000
# 2 25.4198 125.3190 34.8744 0.0000 0.0000 0.0000
# 3 7.4777 34.8744 50.0537 0.0000 0.0000 0.0000
# 4 0.0000 0.0000 0.0000 27.4090 0.0000 0.0000
# 5 0.0000 0.0000 0.0000 0.0000 15.6365 0.0000
# 6 0.0000 0.0000 0.0000 0.0000 0.0000 22.0695
#
#
#
# Elastic Compliance Matrix: (Units=1/GPa)
#
#
# Indices 1 2 3 4 5 6 
#
# 1 0.020214 -0.004044 -0.000202 0.000000 0.000000 0.000000
# 2 -0.004044 0.010708 -0.006857 0.000000 0.000000 0.000000
# 3 -0.000202 -0.006857 0.024786 0.000000 0.000000 0.000000
# 4 0.000000 0.000000 0.000000 0.036484 0.000000 0.000000
# 5 0.000000 0.000000 0.000000 0.000000 0.063953 0.000000
# 6 0.000000 0.000000 0.000000 0.000000 0.000000 0.045311
#
#
# Mechanical properties :
#
#
# Convention : Reuss Voigt Hill
#
# Bulk Modulus (GPa) = 29.84848 40.61634 35.23241
# Shear Modulus (GPa) = 21.29204 23.83845 22.56524
#
# Velocity S-wave (km/s) = 3.25162 3.44057 3.34743
# Velocity P-wave (km/s) = 5.37767 5.99602 5.69525
#
# Compressibility (1/GPa) = 0.03350255
#
# Stress axis : x y z
#
# Youngs Moduli (GPa) = 49.47046 93.38822 40.34535
#
# Poissons Ratio (x) = 0.37766 0.00816
# Poissons Ratio (y) = 0.20006 0.27663
# Poissons Ratio (z) = 0.01001 0.64032
#
# Static dielectric constant tensor:
#      x y z
#    x 1.671000 0.000000 0.000000 
#    y 0.000000 1.705740 0.000000 
#    z 0.000000 0.000000 1.729320 
# 
# From -- ./inp_files/9519.got.cif
#   From: 2010.05.17/outbox.cif.g08.bks.cpg/sg67_5_cif.got.tgz:9519.got - 2010.06.03 18:28:57.
