data_PCOD9503254
_publ_section_title
;
Structure prediction by ZEFSAII (Michael W. Deem and Ramdas Pophale) SiO2 
 PCOD9503254
Probable space group: C M M A
;
_chemical_formula_sum "Si O2"
_cell_formula_units_Z 96
_cell_length_a 17.878138
_cell_length_b 18.750567
_cell_length_c 14.652784
_cell_angle_alpha 90.000000
_cell_angle_beta 90.000000
_cell_angle_gamma 90.000000
_cell_volume 4911.982805
_symmetry_space_group_name_H-M "C M M A"
_symmetry_group_IT_number 67
_symmetry_cell_setting 'orthorhombic'
loop_
_space_group_symop_operation_xyz
x,y,z
-x,1/2-y,z
x,-y,-z
-x,1/2+y,-z
-x,-y,-z
x,1/2+y,-z
-x,y,z
x,1/2-y,z
1/2+x,1/2+y,z
1/2-x,-y,z
1/2+x,1/2-y,-z
1/2-x,y,-z
1/2-x,1/2-y,-z
1/2+x,y,-z
1/2-x,1/2+y,z
1/2+x,-y,z
loop_
_atom_site_type_symbol
_atom_site_label
_atom_site_fract_x
_atom_site_fract_y
_atom_site_fract_z
Si Si1 0.701652 0.612026 0.707041
Si Si2 0.410312 0.332575 0.930337
Si Si3 0.913546 0.164417 0.856767
Si Si4 0.914890 0.750000 0.681368
Si Si5 0.263285 0.750000 0.395391
Si Si6 0.916054 0.517513 0.391851
Si Si7 0.131431 0.096954 0.243170
O O1 0.645795 0.628005 0.790482
O O2 0.728678 0.683094 0.656276
O O3 0.652953 0.566918 0.636245
O O4 0.780967 0.581727 0.740940
O O5 0.500000 0.328844 0.918849
O O6 0.382030 0.250000 0.913562
O O7 0.382724 0.396832 0.865306
O O8 0.395740 0.347932 0.036812
O O9 0.910304 0.250000 0.842214
O O10 0.000000 0.142064 0.839683
O O11 0.852948 0.750000 0.605174
O O12 0.895983 0.677424 0.734058
O O13 0.000000 0.750000 0.652767
O O14 0.250000 0.750000 0.500000
O O15 0.909073 0.500000 0.500000
O O16 0.909862 0.453257 0.317080
O O17 0.000000 0.548783 0.380959
#
# Coordination Sequence:
#
# PCOD9503254 Si02
#       7
#    16  16  16   8   8  16  16
#     4  11  23  40  61  88 126 164 198 253 318 370
#     4   9  17  32  59  92 124 160 202 253 307 363
#     4   9  18  35  59  89 125 164 205 247 304 379
#     4  10  20  36  61  87 119 155 199 257 306 355
#     4  10  24  40  59  93 123 159 207 258 309 366
#     4  11  26  45  64  86 116 162 214 258 310 381
#     4  11  22  37  61  92 124 157 204 256 311 365
#
# _framework density 19.544042999999999
#
# number of rings (size 3 to 8) (size 9 to 14) (size 15 to 20)
#    0.000    1.833    1.667    3.500    4.667    1.333 
#    0.000    3.333    0.000    5.000    0.000    0.000 
#    0.000    0.000    0.000    0.000    0.000    0.000 
#
# Total GULP energy -267312.879643 kJ/mol
# GULP energy per Si atom -5569.018326 kJ/mol
# Density = 1.949956 g / cm^3
# Si number density = 19.544043 Si / 1000 Ang^3
#
#
#
# Elastic Constant Matrix: (Units=GPa)
#
#
# Indices 1 2 3 4 5 6 
#
# 1 141.2441 27.6244 61.1682 0.0000 0.0000 0.0000
# 2 27.6244 34.4541 7.2848 0.0000 0.0000 0.0000
# 3 61.1682 7.2848 110.2158 0.0000 0.0000 0.0000
# 4 0.0000 0.0000 0.0000 52.6769 0.0000 0.0000
# 5 0.0000 0.0000 0.0000 0.0000 29.3323 0.0000
# 6 0.0000 0.0000 0.0000 0.0000 0.0000 7.5703
#
#
#
# Elastic Compliance Matrix: (Units=1/GPa)
#
#
# Indices 1 2 3 4 5 6 
#
# 1 0.010998 -0.007634 -0.005599 0.000000 0.000000 0.000000
# 2 -0.007634 0.034734 0.001941 0.000000 0.000000 0.000000
# 3 -0.005599 0.001941 0.012052 0.000000 0.000000 0.000000
# 4 0.000000 0.000000 0.000000 0.018984 0.000000 0.000000
# 5 0.000000 0.000000 0.000000 0.000000 0.034092 0.000000
# 6 0.000000 0.000000 0.000000 0.000000 0.000000 0.132095
#
#
# Mechanical properties :
#
#
# Convention : Reuss Voigt Hill
#
# Bulk Modulus (GPa) = 28.40880 53.11872 40.76376
# Shear Modulus (GPa) = 18.03282 30.57169 24.30226
#
# Velocity S-wave (km/s) = 3.04085 3.95935 3.53010
# Velocity P-wave (km/s) = 5.18617 6.93829 6.12520
#
# Compressibility (1/GPa) = 0.03520036
#
# Stress axis : x y z
#
# Youngs Moduli (GPa) = 90.92804 28.78991 82.97246
#
# Poissons Ratio (x) = 0.21978 0.46456
# Poissons Ratio (y) = 0.69413 -0.16104
# Poissons Ratio (z) = 0.50911 -0.05588
#
# Static dielectric constant tensor:
#      x y z
#    x 1.677020 0.000000 0.000000 
#    y 0.000000 1.721040 0.000000 
#    z 0.000000 0.000000 1.812650 
# 
# From -- ./inp_files/27265.got.cif
#   From: 2010.05.17/outbox.cif.g08.bks.cpg/sg67_14_cif.got.tgz:27265.got - 2010.06.03 18:28:57.
