data_PCOD9503240
_publ_section_title
;
Structure prediction by ZEFSAII (Michael W. Deem and Ramdas Pophale) SiO2 
 PCOD9503240
Probable space group: C M M A
;
_chemical_formula_sum "Si O2"
_cell_formula_units_Z 64
_cell_length_a 8.758102
_cell_length_b 15.051697
_cell_length_c 25.287167
_cell_angle_alpha 90.000000
_cell_angle_beta 90.000000
_cell_angle_gamma 90.000000
_cell_volume 3333.463028
_symmetry_space_group_name_H-M "C M M A"
_symmetry_group_IT_number 67
_symmetry_cell_setting 'orthorhombic'
loop_
_space_group_symop_operation_xyz
x,y,z
-x,1/2-y,z
x,-y,-z
-x,1/2+y,-z
-x,-y,-z
x,1/2+y,-z
-x,y,z
x,1/2-y,z
1/2+x,1/2+y,z
1/2-x,-y,z
1/2+x,1/2-y,-z
1/2-x,y,-z
1/2-x,1/2-y,-z
1/2+x,y,-z
1/2-x,1/2+y,z
1/2+x,-y,z
loop_
_atom_site_type_symbol
_atom_site_label
_atom_site_fract_x
_atom_site_fract_y
_atom_site_fract_z
Si Si1 0.316947 0.097826 0.443754
Si Si2 0.818335 0.250000 0.244412
Si Si3 0.816673 0.900526 0.170734
Si Si4 0.817617 0.900058 0.053050
Si Si5 0.316515 0.750000 0.639035
O O1 0.500000 0.093172 0.448171
O O2 0.250000 0.129200 0.500000
O O3 0.277530 0.164538 0.396636
O O4 0.250000 0.000000 0.434240
O O5 0.751853 0.164216 0.214293
O O6 0.765175 0.250000 0.304968
O O7 0.000000 0.250000 0.240924
O O8 0.780767 0.864141 0.111421
O O9 0.000000 0.904232 0.175303
O O10 0.750000 0.000000 0.175277
O O11 0.000000 0.903676 0.047895
O O12 0.750000 0.000000 0.054374
O O13 0.750000 0.857117 0.000000
O O14 0.500000 0.750000 0.647302
#
# Coordination Sequence:
#
# PCOD9503240 Si02
#       5
#    16   8  16  16   8
#     4  10  20  36  60  89 120 153 187 228 279 333
#     4  12  26  41  60  85 113 152 200 246 291 342
#     4  10  21  39  61  84 114 151 191 238 292 348
#     4   9  16  27  49  79 109 142 179 225 282 343
#     4  10  23  41  59  81 115 156 193 236 286 334
#
# _framework density 19.199252999999999
#
# number of rings (size 3 to 8) (size 9 to 14) (size 15 to 20)
#    0.000    2.000    0.000    5.250    0.000    6.000 
#    0.000    3.125    0.000    0.000    0.000    0.000 
#    0.000    0.000    0.000    0.000    0.000    0.000 
#
# Total GULP energy -178701.771826 kJ/mol
# GULP energy per Si atom -5584.430370 kJ/mol
# Density = 1.915555 g / cm^3
# Si number density = 19.199253 Si / 1000 Ang^3
#
#
#
# Elastic Constant Matrix: (Units=GPa)
#
#
# Indices 1 2 3 4 5 6 
#
# 1 96.3992 48.8914 91.9849 0.0000 0.0000 0.0000
# 2 48.8914 99.9740 90.1997 0.0000 0.0000 0.0000
# 3 91.9849 90.1997 207.5369 0.0000 0.0000 0.0000
# 4 0.0000 0.0000 0.0000 39.8849 0.0000 0.0000
# 5 0.0000 0.0000 0.0000 0.0000 34.9763 0.0000
# 6 0.0000 0.0000 0.0000 0.0000 0.0000 7.8530
#
#
#
# Elastic Compliance Matrix: (Units=1/GPa)
#
#
# Indices 1 2 3 4 5 6 
#
# 1 0.018409 -0.002700 -0.006986 0.000000 0.000000 0.000000
# 2 -0.002700 0.016851 -0.006127 0.000000 0.000000 0.000000
# 3 -0.006986 -0.006127 0.010578 0.000000 0.000000 0.000000
# 4 0.000000 0.000000 0.000000 0.025072 0.000000 0.000000
# 5 0.000000 0.000000 0.000000 0.000000 0.028591 0.000000
# 6 0.000000 0.000000 0.000000 0.000000 0.000000 0.127340
#
#
# Mechanical properties :
#
#
# Convention : Reuss Voigt Hill
#
# Bulk Modulus (GPa) = 70.36370 96.22913 83.29642
# Shear Modulus (GPa) = 18.99671 28.06512 23.53091
#
# Velocity S-wave (km/s) = 3.14897 3.82747 3.50468
# Velocity P-wave (km/s) = 7.06754 8.35241 7.73669
#
# Compressibility (1/GPa) = 0.01421187
#
# Stress axis : x y z
#
# Youngs Moduli (GPa) = 54.32228 59.34331 94.53910
#
# Poissons Ratio (x) = 0.16022 0.66042
# Poissons Ratio (y) = 0.14666 0.57926
# Poissons Ratio (z) = 0.37948 0.36361
#
# Static dielectric constant tensor:
#      x y z
#    x 1.638520 0.000000 0.000000 
#    y 0.000000 1.674300 0.000000 
#    z 0.000000 0.000000 1.673940 
# 
# From -- ./inp_files/40423.got.cif
#   From: 2010.05.17/outbox.cif.g08.bks.cpg/sg67_21_cif.got.tgz:40423.got - 2010.06.03 18:28:57.
