data_PCOD9503180
_publ_section_title
;
Structure prediction by ZEFSAII (Michael W. Deem and Ramdas Pophale) SiO2 
 PCOD9503180
Probable space group: C M M A
;
_chemical_formula_sum "Si O2"
_cell_formula_units_Z 112
_cell_length_a 16.593257
_cell_length_b 27.553537
_cell_length_c 12.746842
_cell_angle_alpha 90.000000
_cell_angle_beta 90.000000
_cell_angle_gamma 90.000000
_cell_volume 5827.893392
_symmetry_space_group_name_H-M "C M M A"
_symmetry_group_IT_number 67
_symmetry_cell_setting 'orthorhombic'
loop_
_space_group_symop_operation_xyz
x,y,z
-x,1/2-y,z
x,-y,-z
-x,1/2+y,-z
-x,-y,-z
x,1/2+y,-z
-x,y,z
x,1/2-y,z
1/2+x,1/2+y,z
1/2-x,-y,z
1/2+x,1/2-y,-z
1/2-x,y,-z
1/2-x,1/2-y,-z
1/2+x,y,-z
1/2-x,1/2+y,z
1/2+x,-y,z
loop_
_atom_site_type_symbol
_atom_site_label
_atom_site_fract_x
_atom_site_fract_y
_atom_site_fract_z
Si Si1 0.094372 0.946492 0.976393
Si Si2 0.595779 0.303945 0.678558
Si Si3 0.195981 0.131357 0.900699
Si Si4 0.155819 0.649727 0.469669
Si Si5 0.339502 0.095494 0.765759
Si Si6 0.596174 0.551248 0.444353
Si Si7 0.594312 0.192115 0.253411
O O1 0.137703 0.908431 0.050243
O O2 0.000000 0.946356 0.997791
O O3 0.110462 0.930218 0.857500
O O4 0.127051 0.000000 0.000000
O O5 0.500000 0.303830 0.692509
O O6 0.627110 0.250000 0.706075
O O7 0.615528 0.315974 0.557643
O O8 0.630094 0.349840 0.741355
O O9 0.251421 0.104472 0.813989
O O10 0.143563 0.172447 0.845750
O O11 0.250000 0.148492 0.000000
O O12 0.250000 0.646804 0.500000
O O13 0.116809 0.596460 0.480364
O O14 0.137866 0.671012 0.356301
O O15 0.352813 0.064159 0.660383
O O16 0.614448 0.500000 0.500000
O O17 0.500000 0.552214 0.419235
O O18 0.500000 0.176955 0.251290
O O19 0.596559 0.250000 0.257395
#
# Coordination Sequence:
#
# PCOD9503180 Si02
#       7
#    16  16  16  16  16  16  16
#     4  10  21  39  63  86 111 149 194 239 287 339
#     4  10  20  36  59  84 111 147 191 236 280 333
#     4  10  23  40  60  85 113 148 193 246 294 337
#     4  11  22  36  56  85 121 156 191 233 281 342
#     4  10  20  37  60  87 118 148 187 239 288 340
#     4  10  21  38  60  86 118 154 190 231 280 338
#     4  11  23  39  60  86 119 158 195 235 288 350
#
# _framework density 19.217922999999999
#
# number of rings (size 3 to 8) (size 9 to 14) (size 15 to 20)
#    0.000    1.714    0.000    6.000    0.000    8.286 
#    0.000    6.429    0.000    7.714    0.000    0.000 
#    0.000    0.571    0.000    0.000    0.000    0.000 
#
# Total GULP energy -312724.136016 kJ/mol
# GULP energy per Si atom -5584.359572 kJ/mol
# Density = 1.917418 g / cm^3
# Si number density = 19.217923 Si / 1000 Ang^3
#
#
#
# Elastic Constant Matrix: (Units=GPa)
#
#
# Indices 1 2 3 4 5 6 
#
# 1 75.1298 29.1046 42.2494 0.0000 0.0000 0.0000
# 2 29.1046 124.3808 75.7857 0.0000 0.0000 0.0000
# 3 42.2494 75.7857 112.3924 0.0000 0.0000 0.0000
# 4 0.0000 0.0000 0.0000 13.2834 0.0000 0.0000
# 5 0.0000 0.0000 0.0000 0.0000 33.3270 0.0000
# 6 0.0000 0.0000 0.0000 0.0000 0.0000 9.8646
#
#
#
# Elastic Compliance Matrix: (Units=1/GPa)
#
#
# Indices 1 2 3 4 5 6 
#
# 1 0.016880 -0.000142 -0.006250 0.000000 0.000000 0.000000
# 2 -0.000142 0.013648 -0.009149 0.000000 0.000000 0.000000
# 3 -0.006250 -0.009149 0.017416 0.000000 0.000000 0.000000
# 4 0.000000 0.000000 0.000000 0.075282 0.000000 0.000000
# 5 0.000000 0.000000 0.000000 0.000000 0.030006 0.000000
# 6 0.000000 0.000000 0.000000 0.000000 0.000000 0.101372
#
#
# Mechanical properties :
#
#
# Convention : Reuss Voigt Hill
#
# Bulk Modulus (GPa) = 59.30509 67.35360 63.32935
# Shear Modulus (GPa) = 17.16411 22.27922 19.72167
#
# Velocity S-wave (km/s) = 2.99177 3.40853 3.20693
# Velocity P-wave (km/s) = 6.54679 7.11436 6.83647
#
# Compressibility (1/GPa) = 0.01686196
#
# Stress axis : x y z
#
# Youngs Moduli (GPa) = 59.24273 73.27248 57.41861
#
# Poissons Ratio (x) = 0.01040 0.35884
# Poissons Ratio (y) = 0.00841 0.52534
# Poissons Ratio (z) = 0.37024 0.67039
#
# Static dielectric constant tensor:
#      x y z
#    x 1.690670 0.000000 0.000000 
#    y 0.000000 1.658340 0.000000 
#    z 0.000000 0.000000 1.661220 
# 
# From -- ./inp_files/18656.got.cif
#   From: 2010.05.17/outbox.cif.g08.bks.cpg/sg67_10_cif.got.tgz:18656.got - 2010.06.03 18:28:57.
