data_PCOD9503558
_publ_section_title
;
Structure prediction by ZEFSAII (Michael W. Deem and Ramdas Pophale) SiO2 
 PCOD9503558
Probable space group: C M M A
;
_chemical_formula_sum "Si O2"
_cell_formula_units_Z 72
_cell_length_a 27.895385
_cell_length_b 14.272923
_cell_length_c 9.529047
_cell_angle_alpha 90.000000
_cell_angle_beta 90.000000
_cell_angle_gamma 90.000000
_cell_volume 3793.977505
_symmetry_space_group_name_H-M "C M M A"
_symmetry_group_IT_number 67
_symmetry_cell_setting 'orthorhombic'
loop_
_space_group_symop_operation_xyz
x,y,z
-x,1/2-y,z
x,-y,-z
-x,1/2+y,-z
-x,-y,-z
x,1/2+y,-z
-x,y,z
x,1/2-y,z
1/2+x,1/2+y,z
1/2-x,-y,z
1/2+x,1/2-y,-z
1/2-x,y,-z
1/2-x,1/2-y,-z
1/2+x,y,-z
1/2-x,1/2+y,z
1/2+x,-y,z
loop_
_atom_site_type_symbol
_atom_site_label
_atom_site_fract_x
_atom_site_fract_y
_atom_site_fract_z
Si Si1 0.868302 0.500000 0.000000
Si Si2 0.306378 0.511663 0.724897
Si Si3 0.554556 0.638161 0.939169
Si Si4 0.552953 0.136511 0.388412
Si Si5 0.346018 0.638177 0.487141
O O1 0.835138 0.521976 0.131846
O O2 0.904727 0.586002 0.974677
O O3 0.250000 0.500000 0.747437
O O4 0.317205 0.599090 0.622075
O O5 0.326149 0.420291 0.643180
O O6 0.500000 0.615536 0.982610
O O7 0.559915 0.750000 0.946121
O O8 0.559853 0.609015 0.774909
O O9 0.500000 0.105051 0.434754
O O10 0.552054 0.250000 0.386440
O O11 0.598443 0.111675 0.482158
O O12 0.341881 0.750000 0.472628
#
# Coordination Sequence:
#
# PCOD9503558 Si02
#       5
#     8  16  16  16  16
#     4  12  22  38  60  84 120 156 194 234 290 352
#     4  11  25  40  57  84 114 150 198 250 295 337
#     4   9  18  34  57  86 120 156 191 227 277 347
#     4   8  14  29  56  86 113 144 182 225 278 341
#     4  10  20  40  64  84 111 151 194 239 294 350
#
# _framework density 18.977446
#
# number of rings (size 3 to 8) (size 9 to 14) (size 15 to 20)
#    0.000    2.222    2.222    3.333    0.000    2.667 
#    0.000    4.444    0.000    6.667    0.000    0.000 
#    0.000    0.000    0.000    0.000    0.000    0.000 
#
# Total GULP energy -200886.692868 kJ/mol
# GULP energy per Si atom -5580.185913 kJ/mol
# Density = 1.893425 g / cm^3
# Si number density = 18.977446 Si / 1000 Ang^3
#
#
#
# Elastic Constant Matrix: (Units=GPa)
#
#
# Indices 1 2 3 4 5 6 
#
# 1 131.0873 4.9710 -4.4206 0.0000 0.0000 0.0000
# 2 4.9710 71.3011 -9.2101 0.0000 0.0000 0.0000
# 3 -4.4206 -9.2101 15.5165 0.0000 0.0000 0.0000
# 4 0.0000 0.0000 0.0000 8.4043 0.0000 0.0000
# 5 0.0000 0.0000 0.0000 0.0000 39.4057 0.0000
# 6 0.0000 0.0000 0.0000 0.0000 0.0000 25.1854
#
#
#
# Elastic Compliance Matrix: (Units=1/GPa)
#
#
# Indices 1 2 3 4 5 6 
#
# 1 0.007707 -0.000275 0.002033 0.000000 0.000000 0.000000
# 2 -0.000275 0.015199 0.008944 0.000000 0.000000 0.000000
# 3 0.002033 0.008944 0.070335 0.000000 0.000000 0.000000
# 4 0.000000 0.000000 0.000000 0.118986 0.000000 0.000000
# 5 0.000000 0.000000 0.000000 0.000000 0.025377 0.000000
# 6 0.000000 0.000000 0.000000 0.000000 0.000000 0.039706
#
#
# Mechanical properties :
#
#
# Convention : Reuss Voigt Hill
#
# Bulk Modulus (GPa) = 8.72256 22.28728 15.50492
# Shear Modulus (GPa) = 16.99970 29.70339 23.35154
#
# Velocity S-wave (km/s) = 2.99621 3.96055 3.51164
# Velocity P-wave (km/s) = 4.07136 5.71700 4.96287
#
# Compressibility (1/GPa) = 0.11464526
#
# Stress axis : x y z
#
# Youngs Moduli (GPa) = 129.74417 65.79189 14.21762
#
# Poissons Ratio (x) = 0.01808 -0.02890
# Poissons Ratio (y) = 0.03565 -0.12716
# Poissons Ratio (z) = -0.26374 -0.58842
#
# Static dielectric constant tensor:
#      x y z
#    x 1.670590 0.000000 0.000000 
#    y 0.000000 1.662080 0.000000 
#    z 0.000000 0.000000 1.636510 
# 
# From -- ./inp_files/8504.got.cif
#   From: 2010.05.17/outbox.cif.g08.bks.cpg/sg67_5_cif.got.tgz:8504.got - 2010.06.03 18:28:57.
