data_PCOD9503096
_publ_section_title
;
Structure prediction by ZEFSAII (Michael W. Deem and Ramdas Pophale) SiO2 
 PCOD9503096
Probable space group: C M M A
;
_chemical_formula_sum "Si O2"
_cell_formula_units_Z 80
_cell_length_a 8.201333
_cell_length_b 14.913018
_cell_length_c 29.346480
_cell_angle_alpha 90.000000
_cell_angle_beta 90.000000
_cell_angle_gamma 90.000000
_cell_volume 3589.268973
_symmetry_space_group_name_H-M "C M M A"
_symmetry_group_IT_number 67
_symmetry_cell_setting 'orthorhombic'
loop_
_space_group_symop_operation_xyz
x,y,z
-x,1/2-y,z
x,-y,-z
-x,1/2+y,-z
-x,-y,-z
x,1/2+y,-z
-x,y,z
x,1/2-y,z
1/2+x,1/2+y,z
1/2-x,-y,z
1/2+x,1/2-y,-z
1/2-x,y,-z
1/2-x,1/2-y,-z
1/2+x,y,-z
1/2-x,1/2+y,z
1/2+x,-y,z
loop_
_atom_site_type_symbol
_atom_site_label
_atom_site_fract_x
_atom_site_fract_y
_atom_site_fract_z
Si Si1 0.687878 0.859444 0.949399
Si Si2 0.318539 0.142512 0.451936
Si Si3 0.175497 0.647476 0.262484
Si Si4 0.000000 0.859394 0.890671
Si Si5 0.500000 0.639665 0.215209
Si Si6 0.811152 0.899368 0.645584
O O1 0.500000 0.889563 0.941391
O O2 0.683331 0.750000 0.947573
O O3 0.832173 0.888978 0.915276
O O4 0.750000 0.883618 0.000000
O O5 0.500000 0.105580 0.444233
O O6 0.329189 0.250000 0.456158
O O7 0.250000 0.108720 0.500000
O O8 0.215190 0.125074 0.407002
O O9 0.167314 0.750000 0.245727
O O10 0.335599 0.606678 0.239694
O O11 0.206182 0.651342 0.316704
O O12 0.000000 0.604392 0.253285
O O13 0.000000 0.750000 0.893343
O O14 0.000000 0.883915 0.837762
O O15 0.500000 0.750000 0.219118
O O16 0.000000 0.887597 0.656887
O O17 0.750000 0.000000 0.650564
#
# Coordination Sequence:
#
# PCOD9503096 Si02
#       6
#    16  16  16   8   8  16
#     4   9  14  20  31  48  75 115 160 205 250 298
#     4  10  21  38  59  84 113 145 180 216 261 318
#     4  10  20  36  57  78 103 136 177 223 270 325
#     4   9  16  24  36  56  84 116 162 215 254 298
#     4   9  18  32  48  70  96 129 173 221 268 311
#     4  12  24  38  57  82 110 139 178 224 270 323
#
# _framework density 22.288661000000001
#
# number of rings (size 3 to 8) (size 9 to 14) (size 15 to 20)
#    0.000    2.000    2.000    3.000    0.000    4.800 
#    0.000    6.000    0.000    0.000    0.000    0.000 
#    0.000    0.000    0.000    0.000    0.000    3.000 
#
# Total GULP energy -223386.976125 kJ/mol
# GULP energy per Si atom -5584.674403 kJ/mol
# Density = 2.223793 g / cm^3
# Si number density = 22.288661 Si / 1000 Ang^3
#
#
#
# Elastic Constant Matrix: (Units=GPa)
#
#
# Indices 1 2 3 4 5 6 
#
# 1 231.8643 11.5917 86.5422 0.0000 0.0000 0.0000
# 2 11.5917 37.1856 -1.1214 0.0000 0.0000 0.0000
# 3 86.5422 -1.1214 133.8146 0.0000 0.0000 0.0000
# 4 0.0000 0.0000 0.0000 -44.9382 0.0000 0.0000
# 5 0.0000 0.0000 0.0000 0.0000 22.5347 0.0000
# 6 0.0000 0.0000 0.0000 0.0000 0.0000 12.0099
#
#
#
# Elastic Compliance Matrix: (Units=1/GPa)
#
#
# Indices 1 2 3 4 5 6 
#
# 1 0.005820 -0.001928 -0.003780 0.000000 0.000000 0.000000
# 2 -0.001928 0.027538 0.001478 0.000000 0.000000 0.000000
# 3 -0.003780 0.001478 0.009930 0.000000 0.000000 0.000000
# 4 0.000000 0.000000 0.000000 -0.022253 0.000000 0.000000
# 5 0.000000 0.000000 0.000000 0.000000 0.044376 0.000000
# 6 0.000000 0.000000 0.000000 0.000000 0.000000 0.083264
#
#
# Mechanical properties :
#
#
# Convention : Reuss Voigt Hill
#
# Bulk Modulus (GPa) = 28.71351 66.32105 47.51728
# Shear Modulus (GPa) = 29.63029 18.31144 23.97086
#
# Velocity S-wave (km/s) = 3.65003 2.86939 3.28300
# Velocity P-wave (km/s) = 5.53843 6.38733 5.97797
#
# Compressibility (1/GPa) = 0.03482681
#
# Stress axis : x y z
#
# Youngs Moduli (GPa) = 171.81400 36.31375 100.70240
#
# Poissons Ratio (x) = 0.07002 0.38069
# Poissons Ratio (y) = 0.33131 -0.14883
# Poissons Ratio (z) = 0.64951 -0.05367
#
# Static dielectric constant tensor:
#      x y z
#    x 1.826670 0.000000 0.000000 
#    y 0.000000 1.842330 0.000000 
#    z 0.000000 0.000000 1.799030 
# 
# From -- ./inp_files/43401.got.cif
#   From: 2010.05.17/outbox.cif.g08.bks.cpg/sg67_22_cif.got.tgz:43401.got - 2010.06.03 18:28:57.
