data_PCOD9503075
_publ_section_title
;
Structure prediction by ZEFSAII (Michael W. Deem and Ramdas Pophale) SiO2 
 PCOD9503075
Probable space group: C M M A
;
_chemical_formula_sum "Si O2"
_cell_formula_units_Z 52
_cell_length_a 12.804361
_cell_length_b 13.774503
_cell_length_c 15.680677
_cell_angle_alpha 90.000000
_cell_angle_beta 90.000000
_cell_angle_gamma 90.000000
_cell_volume 2765.659162
_symmetry_space_group_name_H-M "C M M A"
_symmetry_group_IT_number 67
_symmetry_cell_setting 'orthorhombic'
loop_
_space_group_symop_operation_xyz
x,y,z
-x,1/2-y,z
x,-y,-z
-x,1/2+y,-z
-x,-y,-z
x,1/2+y,-z
-x,y,z
x,1/2-y,z
1/2+x,1/2+y,z
1/2-x,-y,z
1/2+x,1/2-y,-z
1/2-x,y,-z
1/2-x,1/2-y,-z
1/2+x,y,-z
1/2-x,1/2+y,z
1/2+x,-y,z
loop_
_atom_site_type_symbol
_atom_site_label
_atom_site_fract_x
_atom_site_fract_y
_atom_site_fract_z
Si Si1 0.250000 0.000000 0.000000
Si Si2 0.123673 0.862226 0.873784
Si Si3 0.810145 0.139819 0.317902
Si Si4 0.385600 0.042574 0.405968
O O1 0.176680 0.933286 0.940923
O O2 0.129855 0.750000 0.902798
O O3 0.186400 0.867819 0.784330
O O4 0.000000 0.883575 0.859796
O O5 0.840390 0.250000 0.340235
O O6 0.701142 0.112084 0.364412
O O7 0.884874 0.055003 0.349998
O O8 0.500000 0.088343 0.407705
O O9 0.362504 0.000000 0.500000
#
# Coordination Sequence:
#
# PCOD9503075 Si02
#       4
#     4  16  16  16
#     4  12  20  36  64  84 106 144 180 220 276 332
#     4  10  22  38  56  82 112 141 179 225 273 328
#     4  10  20  36  56  76 105 144 181 218 265 322
#     4  10  21  35  52  79 111 140 179 228 269 311
#
# _framework density 18.802028
#
# number of rings (size 3 to 8) (size 9 to 14) (size 15 to 20)
#    0.000    1.846    0.000    5.538    0.000    4.923 
#    0.000    4.615    0.000    3.692    0.000    0.000 
#    0.000    0.000    0.000    0.000    0.000    0.000 
#
# Total GULP energy -144913.602642 kJ/mol
# GULP energy per Si atom -5573.600102 kJ/mol
# Density = 1.875923 g / cm^3
# Si number density = 18.802028 Si / 1000 Ang^3
#
#
#
# Elastic Constant Matrix: (Units=GPa)
#
#
# Indices 1 2 3 4 5 6 
#
# 1 104.3441 -10.9159 20.8115 0.0000 0.0000 0.0000
# 2 -10.9159 70.0605 35.6454 0.0000 0.0000 0.0000
# 3 20.8115 35.6454 88.9774 0.0000 0.0000 0.0000
# 4 0.0000 0.0000 0.0000 -15.1157 0.0000 0.0000
# 5 0.0000 0.0000 0.0000 0.0000 -113.0328 0.0000
# 6 0.0000 0.0000 0.0000 0.0000 0.0000 13.9452
#
#
#
# Elastic Compliance Matrix: (Units=1/GPa)
#
#
# Indices 1 2 3 4 5 6 
#
# 1 0.010772 0.003718 -0.004009 0.000000 0.000000 0.000000
# 2 0.003718 0.019211 -0.008566 0.000000 0.000000 0.000000
# 3 -0.004009 -0.008566 0.015608 0.000000 0.000000 0.000000
# 4 0.000000 0.000000 0.000000 -0.066156 0.000000 0.000000
# 5 0.000000 0.000000 0.000000 0.000000 -0.008847 0.000000
# 6 0.000000 0.000000 0.000000 0.000000 0.000000 0.071709
#
#
# Mechanical properties :
#
#
# Convention : Reuss Voigt Hill
#
# Bulk Modulus (GPa) = 35.87098 39.38489 37.62793
# Shear Modulus (GPa) = 72.14685 -8.31793 31.91446
#
# Velocity S-wave (km/s) = 6.20122 -2.10560 4.12441
# Velocity P-wave (km/s) = 8.39007 3.88345 6.53737
#
# Compressibility (1/GPa) = 0.02787769
#
# Stress axis : x y z
#
# Youngs Moduli (GPa) = 92.83099 52.05423 64.06950
#
# Poissons Ratio (x) = -0.19355 0.25686
# Poissons Ratio (y) = -0.34516 0.54880
# Poissons Ratio (z) = 0.37217 0.44588
#
# Static dielectric constant tensor:
#      x y z
#    x 1.677250 0.000000 0.000000 
#    y 0.000000 1.626940 0.000000 
#    z 0.000000 0.000000 1.674200 
# 
# From -- ./inp_files/17222.got.cif
#   From: 2010.05.17/outbox.cif.g08.bks.cpg/sg67_9_cif.got.tgz:17222.got - 2010.06.03 18:28:57.
