data_PCOD9503606
_publ_section_title
;
Structure prediction by ZEFSAII (Michael W. Deem and Ramdas Pophale) SiO2 
 PCOD9503606
Probable space group: C M M A
;
_chemical_formula_sum "Si O2"
_cell_formula_units_Z 96
_cell_length_a 18.793635
_cell_length_b 23.900177
_cell_length_c 11.234702
_cell_angle_alpha 90.000000
_cell_angle_beta 90.000000
_cell_angle_gamma 90.000000
_cell_volume 5046.304612
_symmetry_space_group_name_H-M "C M M A"
_symmetry_group_IT_number 67
_symmetry_cell_setting 'orthorhombic'
loop_
_space_group_symop_operation_xyz
x,y,z
-x,1/2-y,z
x,-y,-z
-x,1/2+y,-z
-x,-y,-z
x,1/2+y,-z
-x,y,z
x,1/2-y,z
1/2+x,1/2+y,z
1/2-x,-y,z
1/2+x,1/2-y,-z
1/2-x,y,-z
1/2-x,1/2-y,-z
1/2+x,y,-z
1/2-x,1/2+y,z
1/2+x,-y,z
loop_
_atom_site_type_symbol
_atom_site_label
_atom_site_fract_x
_atom_site_fract_y
_atom_site_fract_z
Si Si1 0.808555 0.117386 0.898837
Si Si2 0.081413 0.598929 0.730668
Si Si3 0.367148 0.314109 0.543162
Si Si4 0.280926 0.311942 0.315958
Si Si5 0.917592 0.685448 0.947094
Si Si6 0.335372 0.998452 0.858042
O O1 0.768775 0.146954 0.791918
O O2 0.863297 0.159769 0.958956
O O3 0.851502 0.066674 0.837646
O O4 0.750000 0.100640 0.000000
O O5 0.096020 0.633425 0.608583
O O6 0.128867 0.546553 0.778177
O O7 0.000000 0.578932 0.728990
O O8 0.088246 0.647080 0.830654
O O9 0.398438 0.250000 0.552409
O O10 0.345549 0.325461 0.406070
O O11 0.291253 0.310568 0.609380
O O12 0.294759 0.250000 0.267842
O O13 0.900942 0.750000 0.920009
O O14 0.000000 0.682499 0.987465
O O15 0.250000 0.000000 0.841933
O O16 0.352785 0.000000 0.000000
#
# Coordination Sequence:
#
# PCOD9503606 Si02
#       6
#    16  16  16  16  16  16
#     4  12  21  34  57  83 111 148 191 238 290 353
#     4  11  22  36  58  84 113 153 200 243 294 355
#     4   9  18  36  57  82 115 147 187 242 296 349
#     4   9  19  34  57  86 114 145 186 240 298 348
#     4  10  21  34  49  76 112 142 174 225 287 349
#     4  11  20  36  54  82 114 152 195 247 298 353
#
# _framework density 19.023821999999999
#
# number of rings (size 3 to 8) (size 9 to 14) (size 15 to 20)
#    0.000    1.667    3.333    4.000    0.000    4.667 
#    0.000    1.667    0.000    5.000    0.000    0.000 
#    0.000    0.000    0.000    0.000    0.000    0.000 
#
# Total GULP energy -267270.076189 kJ/mol
# GULP energy per Si atom -5568.126587 kJ/mol
# Density = 1.898052 g / cm^3
# Si number density = 19.023822 Si / 1000 Ang^3
#
#
#
# Elastic Constant Matrix: (Units=GPa)
#
#
# Indices 1 2 3 4 5 6 
#
# 1 65.4896 42.2257 12.4871 0.0000 0.0000 0.0000
# 2 42.2257 122.2177 39.8013 0.0000 0.0000 0.0000
# 3 12.4871 39.8013 47.1098 0.0000 0.0000 0.0000
# 4 0.0000 0.0000 0.0000 16.0768 0.0000 0.0000
# 5 0.0000 0.0000 0.0000 0.0000 22.8201 0.0000
# 6 0.0000 0.0000 0.0000 0.0000 0.0000 20.1266
#
#
#
# Elastic Compliance Matrix: (Units=1/GPa)
#
#
# Indices 1 2 3 4 5 6 
#
# 1 0.019664 -0.007031 0.000728 0.000000 0.000000 0.000000
# 2 -0.007031 0.013802 -0.009797 0.000000 0.000000 0.000000
# 3 0.000728 -0.009797 0.029311 0.000000 0.000000 0.000000
# 4 0.000000 0.000000 0.000000 0.062201 0.000000 0.000000
# 5 0.000000 0.000000 0.000000 0.000000 0.043821 0.000000
# 6 0.000000 0.000000 0.000000 0.000000 0.000000 0.049685
#
#
# Mechanical properties :
#
#
# Convention : Reuss Voigt Hill
#
# Bulk Modulus (GPa) = 32.70418 47.09391 39.89905
# Shear Modulus (GPa) = 19.16612 21.15824 20.16218
#
# Velocity S-wave (km/s) = 3.17753 3.33858 3.25905
# Velocity P-wave (km/s) = 5.53992 6.29845 5.93132
#
# Compressibility (1/GPa) = 0.03057713
#
# Stress axis : x y z
#
# Youngs Moduli (GPa) = 50.85395 72.45462 34.11679
#
# Poissons Ratio (x) = 0.50942 -0.02483
# Poissons Ratio (y) = 0.35755 0.33424
# Poissons Ratio (z) = -0.03702 0.70983
#
# Static dielectric constant tensor:
#      x y z
#    x 1.696000 0.000000 0.000000 
#    y 0.000000 1.740500 0.000000 
#    z 0.000000 0.000000 1.679410 
# 
# From -- ./inp_files/21008.got.cif
#   From: 2010.05.17/outbox.cif.g08.bks.cpg/sg67_11_cif.got.tgz:21008.got - 2010.06.03 18:28:57.
