data_PCOD9503860
_publ_section_title
;
Structure prediction by ZEFSAII (Michael W. Deem and Ramdas Pophale) SiO2 
 PCOD9503860
Probable space group: C M M A
;
_chemical_formula_sum "Si O2"
_cell_formula_units_Z 56
_cell_length_a 15.409370
_cell_length_b 8.811661
_cell_length_c 20.577270
_cell_angle_alpha 90.000000
_cell_angle_beta 90.000000
_cell_angle_gamma 90.000000
_cell_volume 2794.025852
_symmetry_space_group_name_H-M "C M M A"
_symmetry_group_IT_number 67
_symmetry_cell_setting 'orthorhombic'
loop_
_space_group_symop_operation_xyz
x,y,z
-x,1/2-y,z
x,-y,-z
-x,1/2+y,-z
-x,-y,-z
x,1/2+y,-z
-x,y,z
x,1/2-y,z
1/2+x,1/2+y,z
1/2-x,-y,z
1/2+x,1/2-y,-z
1/2-x,y,-z
1/2-x,1/2-y,-z
1/2+x,y,-z
1/2-x,1/2+y,z
1/2+x,-y,z
loop_
_atom_site_type_symbol
_atom_site_label
_atom_site_fract_x
_atom_site_fract_y
_atom_site_fract_z
Si Si1 0.500000 0.432470 0.071613
Si Si2 0.653831 0.069205 0.696606
Si Si3 0.153028 0.932730 0.169058
Si Si4 0.897215 0.580515 0.435748
O O1 0.500000 0.250000 0.067434
O O2 0.586049 0.475616 0.112318
O O3 0.500000 0.500000 0.000000
O O4 0.654740 0.250000 0.702121
O O5 0.750000 0.000000 0.693952
O O6 0.616613 0.996511 0.762534
O O7 0.612579 0.016929 0.629209
O O8 0.159060 0.750000 0.172996
O O9 0.250000 0.000000 0.159393
O O10 0.860382 0.500000 0.500000
O O11 0.860048 0.750000 0.426548
O O12 0.000000 0.596486 0.446520
#
# Coordination Sequence:
#
# PCOD9503860 Si02
#       4
#     8  16  16  16
#     4  10  24  42  64  92 125 160 201 242 296 360
#     4  11  22  37  58  85 114 150 195 242 293 352
#     4  10  21  40  62  90 123 161 201 249 302 356
#     4  10  21  37  56  80 113 151 192 242 295 350
#
# _framework density 20.042763000000001
#
# number of rings (size 3 to 8) (size 9 to 14) (size 15 to 20)
#    0.000    1.714    0.000    6.000    2.000    5.143 
#    0.000    5.714    0.000    0.000    0.000    0.000 
#    0.000    0.000    0.000    0.000    0.000    0.000 
#
# Total GULP energy -156370.722473 kJ/mol
# GULP energy per Si atom -5584.668660 kJ/mol
# Density = 1.999715 g / cm^3
# Si number density = 20.042763 Si / 1000 Ang^3
#
#
#
# Elastic Constant Matrix: (Units=GPa)
#
#
# Indices 1 2 3 4 5 6 
#
# 1 65.4745 33.6921 59.2597 0.0000 0.0000 0.0000
# 2 33.6921 137.2040 73.1081 0.0000 0.0000 0.0000
# 3 59.2597 73.1081 197.8631 0.0000 0.0000 0.0000
# 4 0.0000 0.0000 0.0000 32.5215 0.0000 0.0000
# 5 0.0000 0.0000 0.0000 0.0000 -90.0044 0.0000
# 6 0.0000 0.0000 0.0000 0.0000 0.0000 23.5123
#
#
#
# Elastic Compliance Matrix: (Units=1/GPa)
#
#
# Indices 1 2 3 4 5 6 
#
# 1 0.021522 -0.002304 -0.005595 0.000000 0.000000 0.000000
# 2 -0.002304 0.009322 -0.002754 0.000000 0.000000 0.000000
# 3 -0.005595 -0.002754 0.007747 0.000000 0.000000 0.000000
# 4 0.000000 0.000000 0.000000 0.030749 0.000000 0.000000
# 5 0.000000 0.000000 0.000000 0.000000 -0.011111 0.000000
# 6 0.000000 0.000000 0.000000 0.000000 0.000000 0.042531
#
#
# Mechanical properties :
#
#
# Convention : Reuss Voigt Hill
#
# Bulk Modulus (GPa) = 57.85163 81.40680 69.62922
# Shear Modulus (GPa) = 39.11508 8.83801 23.97655
#
# Velocity S-wave (km/s) = 4.42246 2.10218 3.46247
# Velocity P-wave (km/s) = 7.41649 6.82619 7.12746
#
# Compressibility (1/GPa) = 0.01728560
#
# Stress axis : x y z
#
# Youngs Moduli (GPa) = 46.46351 107.27579 129.07853
#
# Poissons Ratio (x) = 0.24717 0.72214
# Poissons Ratio (y) = 0.10705 0.35551
# Poissons Ratio (z) = 0.25994 0.29546
#
# Static dielectric constant tensor:
#      x y z
#    x 1.553160 0.000000 0.000000 
#    y 0.000000 1.702000 0.000000 
#    z 0.000000 0.000000 1.716760 
# 
# From -- ./inp_files/28932.got.cif
#   From: 2010.05.17/outbox.cif.g08.bks.cpg/sg67_15_cif.got.tgz:28932.got - 2010.06.03 18:28:57.
