data_PCOD9503514
_publ_section_title
;
Structure prediction by ZEFSAII (Michael W. Deem and Ramdas Pophale) SiO2 
 PCOD9503514
Probable space group: C M M A
;
_chemical_formula_sum "Si O2"
_cell_formula_units_Z 112
_cell_length_a 15.534213
_cell_length_b 14.630495
_cell_length_c 23.474540
_cell_angle_alpha 90.000000
_cell_angle_beta 90.000000
_cell_angle_gamma 90.000000
_cell_volume 5335.134426
_symmetry_space_group_name_H-M "C M M A"
_symmetry_group_IT_number 67
_symmetry_cell_setting 'orthorhombic'
loop_
_space_group_symop_operation_xyz
x,y,z
-x,1/2-y,z
x,-y,-z
-x,1/2+y,-z
-x,-y,-z
x,1/2+y,-z
-x,y,z
x,1/2-y,z
1/2+x,1/2+y,z
1/2-x,-y,z
1/2+x,1/2-y,-z
1/2-x,y,-z
1/2-x,1/2-y,-z
1/2+x,y,-z
1/2-x,1/2+y,z
1/2+x,-y,z
loop_
_atom_site_type_symbol
_atom_site_label
_atom_site_fract_x
_atom_site_fract_y
_atom_site_fract_z
Si Si1 0.908579 0.393168 0.687746
Si Si2 0.103244 0.500000 0.068394
Si Si3 0.750000 0.356185 0.894210
Si Si4 0.408579 0.606832 0.312254
Si Si5 0.149693 0.139997 0.561777
Si Si6 0.649693 0.360003 0.561777
Si Si7 0.750000 0.111768 0.761112
O O1 0.911389 0.500000 0.701836
O O2 0.894008 0.388456 0.619989
O O3 0.831258 0.355852 0.724600
O O4 0.000000 0.351464 0.701717
O O5 0.163728 0.586709 0.087254
O O6 0.163727 0.413291 0.087254
O O7 0.000000 0.500000 0.087241
O O8 0.100905 0.500000 0.000000
O O9 0.750000 0.250000 0.914202
O O10 0.750000 0.356693 0.825640
O O11 0.500000 0.648535 0.298283
O O12 0.394008 0.611544 0.380011
O O13 0.331258 0.644148 0.275400
O O14 0.147178 0.250000 0.561285
O O15 0.250000 0.112417 0.564950
O O16 0.115378 0.109200 0.500000
O O17 0.647177 0.250000 0.561285
O O18 0.750000 0.000000 0.762498
#
# Coordination Sequence:
#
# PCOD9503514 Si02
#       7
#    16  16  16  16  16  16  16
#     4  10  21  35  54  79 105 141 190 243 303 373
#     4  10  23  45  72 105 147 188 223 273 335 383
#     4  11  23  41  69 103 138 185 238 279 324 392
#     4  10  21  35  54  79 105 141 190 243 303 373
#     4   9  18  33  52  72  98 135 179 234 303 375
#     4   9  18  33  52  72  98 135 179 234 303 375
#     4  10  20  39  57  82 118 163 203 256 317 371
#
# _framework density 20.992910999999999
#
# number of rings (size 3 to 8) (size 9 to 14) (size 15 to 20)
#    0.000    2.143    2.857    1.714    0.000    5.714 
#    0.000    5.714    0.000    0.000    0.000    0.000 
#    0.000    0.000    0.000    0.000    0.000    0.000 
#
# Total GULP energy -312271.931855 kJ/mol
# GULP energy per Si atom -5576.284497 kJ/mol
# Density = 2.094513 g / cm^3
# Si number density = 20.992911 Si / 1000 Ang^3
#
#
#
# Elastic Constant Matrix: (Units=GPa)
#
#
# Indices 1 2 3 4 5 6 
#
# 1 186.3374 46.4860 75.6860 0.0000 0.0000 0.0000
# 2 46.4860 134.5737 9.9942 0.0000 0.0000 0.0000
# 3 75.6860 9.9942 120.5190 0.0000 0.0000 0.0000
# 4 0.0000 0.0000 0.0000 29.8134 0.0000 0.0000
# 5 0.0000 0.0000 0.0000 0.0000 374.1357 0.0000
# 6 0.0000 0.0000 0.0000 0.0000 0.0000 24.8653
#
#
#
# Elastic Compliance Matrix: (Units=1/GPa)
#
#
# Indices 1 2 3 4 5 6 
#
# 1 0.007892 -0.002373 -0.004759 0.000000 0.000000 0.000000
# 2 -0.002373 0.008190 0.000811 0.000000 0.000000 0.000000
# 3 -0.004759 0.000811 0.011219 0.000000 0.000000 0.000000
# 4 0.000000 0.000000 0.000000 0.033542 0.000000 0.000000
# 5 0.000000 0.000000 0.000000 0.000000 0.002673 0.000000
# 6 0.000000 0.000000 0.000000 0.000000 0.000000 0.040217
#
#
# Mechanical properties :
#
#
# Convention : Reuss Voigt Hill
#
# Bulk Modulus (GPa) = 68.21801 78.41804 73.31802
# Shear Modulus (GPa) = 41.23359 106.38047 73.80703
#
# Velocity S-wave (km/s) = 4.43670 7.12632 5.93586
# Velocity P-wave (km/s) = 7.66890 10.25418 9.05429
#
# Compressibility (1/GPa) = 0.01465889
#
# Stress axis : x y z
#
# Youngs Moduli (GPa) = 126.71773 122.09692 89.13476
#
# Poissons Ratio (x) = 0.28968 0.42421
# Poissons Ratio (y) = 0.30064 -0.07227
# Poissons Ratio (z) = 0.60307 -0.09899
#
# Static dielectric constant tensor:
#      x y z
#    x 1.791580 0.000000 0.000000 
#    y 0.000000 1.800450 0.000000 
#    z 0.000000 0.000000 1.714360 
# 
# From -- ./inp_files/41993.got.cif
#   From: 2010.05.17/outbox.cif.g08.bks.cpg/sg67_21_cif.got.tgz:41993.got - 2010.06.03 18:28:57.
