data_PCOD9503211
_publ_section_title
;
Structure prediction by ZEFSAII (Michael W. Deem and Ramdas Pophale) SiO2 
 PCOD9503211
Probable space group: C M M A
;
_chemical_formula_sum "Si O2"
_cell_formula_units_Z 96
_cell_length_a 21.337016
_cell_length_b 14.867315
_cell_length_c 14.424455
_cell_angle_alpha 90.000000
_cell_angle_beta 90.000000
_cell_angle_gamma 90.000000
_cell_volume 4575.785304
_symmetry_space_group_name_H-M "C M M A"
_symmetry_group_IT_number 67
_symmetry_cell_setting 'orthorhombic'
loop_
_space_group_symop_operation_xyz
x,y,z
-x,1/2-y,z
x,-y,-z
-x,1/2+y,-z
-x,-y,-z
x,1/2+y,-z
-x,y,z
x,1/2-y,z
1/2+x,1/2+y,z
1/2-x,-y,z
1/2+x,1/2-y,-z
1/2-x,y,-z
1/2-x,1/2-y,-z
1/2+x,y,-z
1/2-x,1/2+y,z
1/2+x,-y,z
loop_
_atom_site_type_symbol
_atom_site_label
_atom_site_fract_x
_atom_site_fract_y
_atom_site_fract_z
Si Si1 0.431974 0.950732 0.902026
Si Si2 0.349612 0.647612 0.626763
Si Si3 0.396646 0.964338 0.282624
Si Si4 0.432355 0.146019 0.546308
Si Si5 0.764176 0.394296 0.266880
Si Si6 0.298803 0.148229 0.075863
O O1 0.500000 0.902372 0.889891
O O2 0.365936 0.897808 0.906812
O O3 0.426824 0.021294 0.817276
O O4 0.434411 0.000000 0.000000
O O5 0.369745 0.750000 0.651355
O O6 0.376920 0.566235 0.688152
O O7 0.375282 0.629621 0.523973
O O8 0.275239 0.641879 0.645940
O O9 0.432572 0.921986 0.368705
O O10 0.338262 0.895450 0.274234
O O11 0.500000 0.137282 0.496063
O O12 0.427914 0.250000 0.577594
O O13 0.750000 0.500000 0.258710
O O14 0.737275 0.351515 0.173772
O O15 0.311670 0.250000 0.044895
O O16 0.250000 0.107969 0.000000
#
# Coordination Sequence:
#
# PCOD9503211 Si02
#       6
#    16  16  16  16  16  16
#     4  11  24  41  64  94 130 169 215 270 330 392
#     4  10  21  38  61  92 128 161 207 271 329 387
#     4  11  22  39  66  93 124 173 217 266 329 394
#     4  10  23  42  62  89 126 172 224 272 327 398
#     4  10  20  36  59  91 124 161 206 260 316 390
#     4  11  23  39  64  94 126 168 216 266 323 394
#
# _framework density 20.980004999999998
#
# number of rings (size 3 to 8) (size 9 to 14) (size 15 to 20)
#    0.000    1.500    3.333    2.500    0.000    4.333 
#    0.000    5.000    0.000    1.000    0.000    0.000 
#    0.000    0.000    0.000    0.000    0.000    0.000 
#
# Total GULP energy -267501.370569 kJ/mol
# GULP energy per Si atom -5572.945220 kJ/mol
# Density = 2.093225 g / cm^3
# Si number density = 20.980005 Si / 1000 Ang^3
#
#
#
# Elastic Constant Matrix: (Units=GPa)
#
#
# Indices 1 2 3 4 5 6 
#
# 1 161.3466 28.9543 59.7839 0.0000 0.0000 0.0000
# 2 28.9543 74.2192 40.5998 0.0000 0.0000 0.0000
# 3 59.7839 40.5998 116.0424 0.0000 0.0000 0.0000
# 4 0.0000 0.0000 0.0000 20.2710 0.0000 0.0000
# 5 0.0000 0.0000 0.0000 0.0000 48.8512 0.0000
# 6 0.0000 0.0000 0.0000 0.0000 0.0000 46.3731
#
#
#
# Elastic Compliance Matrix: (Units=1/GPa)
#
#
# Indices 1 2 3 4 5 6 
#
# 1 0.007724 -0.001034 -0.003617 0.000000 0.000000 0.000000
# 2 -0.001034 0.016801 -0.005345 0.000000 0.000000 0.000000
# 3 -0.003617 -0.005345 0.012351 0.000000 0.000000 0.000000
# 4 0.000000 0.000000 0.000000 0.049331 0.000000 0.000000
# 5 0.000000 0.000000 0.000000 0.000000 0.020470 0.000000
# 6 0.000000 0.000000 0.000000 0.000000 0.000000 0.021564
#
#
# Mechanical properties :
#
#
# Convention : Reuss Voigt Hill
#
# Bulk Modulus (GPa) = 59.23404 67.80936 63.52170
# Shear Modulus (GPa) = 32.49628 37.91709 35.20668
#
# Velocity S-wave (km/s) = 3.93990 4.25584 4.10091
# Velocity P-wave (km/s) = 6.99942 7.51936 7.26404
#
# Compressibility (1/GPa) = 0.01688219
#
# Stress axis : x y z
#
# Youngs Moduli (GPa) = 129.47007 59.51959 80.96309
#
# Poissons Ratio (x) = 0.06157 0.29287
# Poissons Ratio (y) = 0.13393 0.43277
# Poissons Ratio (z) = 0.46833 0.31815
#
# Static dielectric constant tensor:
#      x y z
#    x 1.842930 0.000000 0.000000 
#    y 0.000000 1.754790 0.000000 
#    z 0.000000 0.000000 1.737600 
# 
# From -- ./inp_files/29323.got.cif
#   From: 2010.05.17/outbox.cif.g08.bks.cpg/sg67_15_cif.got.tgz:29323.got - 2010.06.03 18:28:57.
