data_PCOD9503930
_publ_section_title
;
Structure prediction by ZEFSAII (Michael W. Deem and Ramdas Pophale) SiO2 
 PCOD9503930
Probable space group: C M M A
;
_chemical_formula_sum "Si O2"
_cell_formula_units_Z 88
_cell_length_a 22.628232
_cell_length_b 8.566300
_cell_length_c 24.483907
_cell_angle_alpha 90.000000
_cell_angle_beta 90.000000
_cell_angle_gamma 90.000000
_cell_volume 4745.966012
_symmetry_space_group_name_H-M "C M M A"
_symmetry_group_IT_number 67
_symmetry_cell_setting 'orthorhombic'
loop_
_space_group_symop_operation_xyz
x,y,z
-x,1/2-y,z
x,-y,-z
-x,1/2+y,-z
-x,-y,-z
x,1/2+y,-z
-x,y,z
x,1/2-y,z
1/2+x,1/2+y,z
1/2-x,-y,z
1/2+x,1/2-y,-z
1/2-x,y,-z
1/2-x,1/2-y,-z
1/2+x,y,-z
1/2-x,1/2+y,z
1/2+x,-y,z
loop_
_atom_site_type_symbol
_atom_site_label
_atom_site_fract_x
_atom_site_fract_y
_atom_site_fract_z
Si Si1 0.929808 0.929831 0.241044
Si Si2 0.815722 0.436479 0.444463
Si Si3 0.398274 0.563446 0.640053
Si Si4 0.931188 0.064719 0.122277
Si Si5 0.313890 0.936923 0.938068
Si Si6 0.000000 0.064712 0.438442
O O1 0.910434 0.750000 0.231234
O O2 0.902647 0.990836 0.297425
O O3 0.000000 0.925863 0.251516
O O4 0.921039 0.027323 0.186260
O O5 0.846804 0.500000 0.500000
O O6 0.819157 0.250000 0.444299
O O7 0.750000 0.500000 0.447717
O O8 0.839304 0.511059 0.389192
O O9 0.406098 0.750000 0.641051
O O10 0.445710 0.491505 0.598656
O O11 0.930105 0.250000 0.112603
O O12 0.000000 0.011013 0.109650
O O13 0.875097 0.989924 0.091064
O O14 0.311193 0.750000 0.937824
O O15 0.250000 0.000000 0.915769
O O16 0.317290 0.000000 0.000000
O O17 0.000000 0.250000 0.442404
O O18 0.000000 0.000000 0.500000
#
# Coordination Sequence:
#
# PCOD9503930 Si02
#       6
#    16  16  16  16  16   8
#     4   9  18  35  57  81 111 150 190 232 283 337
#     4  11  22  38  57  78 102 136 177 224 277 338
#     4  11  21  37  57  80 109 142 179 226 278 336
#     4  10  21  37  59  89 123 159 202 250 295 349
#     4  11  22  39  63  90 124 163 203 248 300 359
#     4  12  24  36  52  78 110 142 179 224 277 336
#
# _framework density 18.542064
#
# number of rings (size 3 to 8) (size 9 to 14) (size 15 to 20)
#    0.000    1.455    0.909    6.818    0.000    2.909 
#    0.000    0.909    0.000    4.364    0.000    0.000 
#    0.000    0.000    0.000    0.000    0.000    0.000 
#
# Total GULP energy -245317.376163 kJ/mol
# GULP energy per Si atom -5575.394913 kJ/mol
# Density = 1.849986 g / cm^3
# Si number density = 18.542064 Si / 1000 Ang^3
#
#
#
# Elastic Constant Matrix: (Units=GPa)
#
#
# Indices 1 2 3 4 5 6 
#
# 1 118.3283 37.2159 65.8192 0.0000 0.0000 0.0000
# 2 37.2159 104.4258 34.2153 0.0000 0.0000 0.0000
# 3 65.8192 34.2153 99.5227 0.0000 0.0000 0.0000
# 4 0.0000 0.0000 0.0000 26.1266 0.0000 0.0000
# 5 0.0000 0.0000 0.0000 0.0000 -6.5509 0.0000
# 6 0.0000 0.0000 0.0000 0.0000 0.0000 16.4666
#
#
#
# Elastic Compliance Matrix: (Units=1/GPa)
#
#
# Indices 1 2 3 4 5 6 
#
# 1 0.013793 -0.002171 -0.008375 0.000000 0.000000 0.000000
# 2 -0.002171 0.011134 -0.002392 0.000000 0.000000 0.000000
# 3 -0.008375 -0.002392 0.016409 0.000000 0.000000 0.000000
# 4 0.000000 0.000000 0.000000 0.038275 0.000000 0.000000
# 5 0.000000 0.000000 0.000000 0.000000 -0.152650 0.000000
# 6 0.000000 0.000000 0.000000 0.000000 0.000000 0.060729
#
#
# Mechanical properties :
#
#
# Convention : Reuss Voigt Hill
#
# Bulk Modulus (GPa) = 64.68751 66.30862 65.49806
# Shear Modulus (GPa) = 267.10742 19.54355 143.32549
#
# Velocity S-wave (km/s) = 12.01531 3.25008 8.80144
# Velocity P-wave (km/s) = 15.08154 7.06561 11.77658
#
# Compressibility (1/GPa) = 0.01545894
#
# Stress axis : x y z
#
# Youngs Moduli (GPa) = 72.50239 89.81776 60.94159
#
# Poissons Ratio (x) = 0.19503 0.51040
# Poissons Ratio (y) = 0.15743 0.14575
# Poissons Ratio (z) = 0.60723 0.21481
#
# Static dielectric constant tensor:
#      x y z
#    x 1.707610 0.000000 0.000000 
#    y 0.000000 1.633680 0.000000 
#    z 0.000000 0.000000 1.614730 
# 
# From -- ./inp_files/39577.got.cif
#   From: 2010.05.17/outbox.cif.g08.bks.cpg/sg67_20_cif.got.tgz:39577.got - 2010.06.03 18:28:57.
