data_PCOD9503801
_publ_section_title
;
Structure prediction by ZEFSAII (Michael W. Deem and Ramdas Pophale) SiO2 
 PCOD9503801
Probable space group: C M M A
;
_chemical_formula_sum "Si O2"
_cell_formula_units_Z 80
_cell_length_a 27.573677
_cell_length_b 16.042655
_cell_length_c 8.875419
_cell_angle_alpha 90.000000
_cell_angle_beta 90.000000
_cell_angle_gamma 90.000000
_cell_volume 3926.085858
_symmetry_space_group_name_H-M "C M M A"
_symmetry_group_IT_number 67
_symmetry_cell_setting 'orthorhombic'
loop_
_space_group_symop_operation_xyz
x,y,z
-x,1/2-y,z
x,-y,-z
-x,1/2+y,-z
-x,-y,-z
x,1/2+y,-z
-x,y,z
x,1/2-y,z
1/2+x,1/2+y,z
1/2-x,-y,z
1/2+x,1/2-y,-z
1/2-x,y,-z
1/2-x,1/2-y,-z
1/2+x,y,-z
1/2-x,1/2+y,z
1/2+x,-y,z
loop_
_atom_site_type_symbol
_atom_site_label
_atom_site_fract_x
_atom_site_fract_y
_atom_site_fract_z
Si Si1 0.413358 0.531933 0.344341
Si Si2 0.322010 0.849171 0.399790
Si Si3 0.446766 0.844323 0.096374
Si Si4 0.224079 0.847952 0.266494
Si Si5 0.634678 0.579836 0.894920
O O1 0.435930 0.500000 0.500000
O O2 0.368104 0.592591 0.382643
O O3 0.443911 0.587237 0.228061
O O4 0.392528 0.452819 0.254052
O O5 0.331688 0.750000 0.374742
O O6 0.279196 0.878793 0.286541
O O7 0.300528 0.856764 0.568273
O O8 0.500000 0.852788 0.021850
O O9 0.443248 0.750000 0.156357
O O10 0.402015 0.859883 0.984024
O O11 0.228055 0.750000 0.235815
O O12 0.187096 0.885854 0.148174
O O13 0.640598 0.500000 0.000000
#
# Coordination Sequence:
#
# PCOD9503801 Si02
#       5
#    16  16  16  16  16
#     4  11  21  36  59  90 122 153 192 248 305 352
#     4   9  18  33  56  84 118 158 195 238 291 345
#     4  10  23  44  65  83 112 158 203 246 302 364
#     4   9  17  33  56  83 115 158 204 239 281 344
#     4  10  21  36  58  87 122 158 196 242 302 356
#
# _framework density 20.376529000000001
#
# number of rings (size 3 to 8) (size 9 to 14) (size 15 to 20)
#    0.000    2.200    2.000    2.400    0.000    4.800 
#    0.000    7.000    0.000   13.200    0.000    0.000 
#    0.000    0.000    0.000    0.000    0.000    0.000 
#
# Total GULP energy -223256.193017 kJ/mol
# GULP energy per Si atom -5581.404825 kJ/mol
# Density = 2.033015 g / cm^3
# Si number density = 20.376529 Si / 1000 Ang^3
#
#
#
# Elastic Constant Matrix: (Units=GPa)
#
#
# Indices 1 2 3 4 5 6 
#
# 1 82.4821 25.6430 10.0401 0.0000 0.0000 0.0000
# 2 25.6430 42.2472 11.1541 0.0000 0.0000 0.0000
# 3 10.0401 11.1541 63.0987 0.0000 0.0000 0.0000
# 4 0.0000 0.0000 0.0000 16.6793 0.0000 0.0000
# 5 0.0000 0.0000 0.0000 0.0000 18.0882 0.0000
# 6 0.0000 0.0000 0.0000 0.0000 0.0000 3.0849
#
#
#
# Elastic Compliance Matrix: (Units=1/GPa)
#
#
# Indices 1 2 3 4 5 6 
#
# 1 0.014984 -0.008880 -0.000814 0.000000 0.000000 0.000000
# 2 -0.008880 0.030091 -0.003906 0.000000 0.000000 0.000000
# 3 -0.000814 -0.003906 0.016668 0.000000 0.000000 0.000000
# 4 0.000000 0.000000 0.000000 0.059955 0.000000 0.000000
# 5 0.000000 0.000000 0.000000 0.000000 0.055285 0.000000
# 6 0.000000 0.000000 0.000000 0.000000 0.000000 0.324157
#
#
# Mechanical properties :
#
#
# Convention : Reuss Voigt Hill
#
# Bulk Modulus (GPa) = 28.95011 31.27805 30.11408
# Shear Modulus (GPa) = 9.26175 16.96988 13.11582
#
# Velocity S-wave (km/s) = 2.13429 2.88898 2.53982
# Velocity P-wave (km/s) = 4.50688 5.14895 4.83858
#
# Compressibility (1/GPa) = 0.03454218
#
# Stress axis : x y z
#
# Youngs Moduli (GPa) = 66.73971 33.23225 59.99407
#
# Poissons Ratio (x) = 0.29509 0.04886
# Poissons Ratio (y) = 0.59262 0.23436
# Poissons Ratio (z) = 0.05436 0.12982
#
# Static dielectric constant tensor:
#      x y z
#    x 1.731840 0.000000 0.000000 
#    y 0.000000 1.709760 0.000000 
#    z 0.000000 0.000000 1.757350 
# 
# From -- ./inp_files/9925.got.cif
#   From: 2010.05.17/outbox.cif.g08.bks.cpg/sg67_5_cif.got.tgz:9925.got - 2010.06.03 18:28:57.
