data_PCOD9503225
_publ_section_title
;
Structure prediction by ZEFSAII (Michael W. Deem and Ramdas Pophale) SiO2 
 PCOD9503225
Probable space group: C M M A
;
_chemical_formula_sum "Si O2"
_cell_formula_units_Z 112
_cell_length_a 16.319906
_cell_length_b 23.231365
_cell_length_c 14.612679
_cell_angle_alpha 90.000000
_cell_angle_beta 90.000000
_cell_angle_gamma 90.000000
_cell_volume 5540.158955
_symmetry_space_group_name_H-M "C M M A"
_symmetry_group_IT_number 67
_symmetry_cell_setting 'orthorhombic'
loop_
_space_group_symop_operation_xyz
x,y,z
-x,1/2-y,z
x,-y,-z
-x,1/2+y,-z
-x,-y,-z
x,1/2+y,-z
-x,y,z
x,1/2-y,z
1/2+x,1/2+y,z
1/2-x,-y,z
1/2+x,1/2-y,-z
1/2-x,y,-z
1/2-x,1/2-y,-z
1/2+x,y,-z
1/2-x,1/2+y,z
1/2+x,-y,z
loop_
_atom_site_type_symbol
_atom_site_label
_atom_site_fract_x
_atom_site_fract_y
_atom_site_fract_z
Si Si1 0.595422 0.817154 0.548713
Si Si2 0.667886 0.602980 0.696751
Si Si3 0.400758 0.054896 0.124029
Si Si4 0.096518 0.187363 0.186044
Si Si5 0.099465 0.072883 0.088227
Si Si6 0.349142 0.867149 0.362805
Si Si7 0.092373 0.505044 0.609601
O O1 0.500000 0.822916 0.522085
O O2 0.614317 0.750000 0.561952
O O3 0.610580 0.853444 0.640177
O O4 0.647669 0.843473 0.465661
O O5 0.642552 0.594688 0.801625
O O6 0.758550 0.624439 0.676124
O O7 0.654414 0.540049 0.652656
O O8 0.500000 0.058269 0.134424
O O9 0.375147 0.987590 0.134077
O O10 0.380641 0.070928 0.019334
O O11 0.132093 0.250000 0.162214
O O12 0.130772 0.130739 0.135733
O O13 0.105812 0.175751 0.293809
O O14 0.000000 0.189043 0.163994
O O15 0.000000 0.072464 0.094139
O O16 0.391481 0.929563 0.362712
O O17 0.097347 0.500000 0.500000
O O18 0.000000 0.488567 0.638264
#
# Coordination Sequence:
#
# PCOD9503225 Si02
#       7
#    16  16  16  16  16  16  16
#     4  11  24  42  61  80 108 154 208 250 286 341
#     4  12  24  37  58  88 121 152 190 240 297 354
#     4   9  17  34  61  89 120 155 192 237 293 353
#     4  10  20  36  60  87 114 150 199 248 290 342
#     4   8  16  33  60  91 116 148 196 244 287 342
#     4  12  24  37  57  85 121 154 190 237 299 358
#     4  11  22  37  59  83 112 150 192 235 284 337
#
# _framework density 20.216025999999999
#
# number of rings (size 3 to 8) (size 9 to 14) (size 15 to 20)
#    0.000    1.571    1.429    5.571    0.000    4.571 
#    0.000    1.429    0.000    5.143    0.000    0.000 
#    0.000    0.000    0.000    0.000    0.000    0.000 
#
# Total GULP energy -312979.346635 kJ/mol
# GULP energy per Si atom -5588.916904 kJ/mol
# Density = 2.017001 g / cm^3
# Si number density = 20.216026 Si / 1000 Ang^3
#
#
#
# Elastic Constant Matrix: (Units=GPa)
#
#
# Indices 1 2 3 4 5 6 
#
# 1 43.4020 17.4823 18.8998 0.0000 0.0000 0.0000
# 2 17.4823 123.2182 46.4566 0.0000 0.0000 0.0000
# 3 18.8998 46.4566 99.8139 0.0000 0.0000 0.0000
# 4 0.0000 0.0000 0.0000 15.4618 0.0000 0.0000
# 5 0.0000 0.0000 0.0000 0.0000 18.5290 0.0000
# 6 0.0000 0.0000 0.0000 0.0000 0.0000 7.9017
#
#
#
# Elastic Compliance Matrix: (Units=1/GPa)
#
#
# Indices 1 2 3 4 5 6 
#
# 1 0.025588 -0.002188 -0.003827 0.000000 0.000000 0.000000
# 2 -0.002188 0.010030 -0.004254 0.000000 0.000000 0.000000
# 3 -0.003827 -0.004254 0.012723 0.000000 0.000000 0.000000
# 4 0.000000 0.000000 0.000000 0.064676 0.000000 0.000000
# 5 0.000000 0.000000 0.000000 0.000000 0.053970 0.000000
# 6 0.000000 0.000000 0.000000 0.000000 0.000000 0.126554
#
#
# Mechanical properties :
#
#
# Convention : Reuss Voigt Hill
#
# Bulk Modulus (GPa) = 35.96589 48.01237 41.98913
# Shear Modulus (GPa) = 15.46331 20.61818 18.04074
#
# Velocity S-wave (km/s) = 2.76869 3.19704 2.99054
# Velocity P-wave (km/s) = 5.29625 6.11795 5.72187
#
# Compressibility (1/GPa) = 0.02780413
#
# Stress axis : x y z
#
# Youngs Moduli (GPa) = 39.08073 99.70134 78.59632
#
# Poissons Ratio (x) = 0.21811 0.30078
# Poissons Ratio (y) = 0.08549 0.33435
# Poissons Ratio (z) = 0.14956 0.42413
#
# Static dielectric constant tensor:
#      x y z
#    x 1.744340 0.000000 0.000000 
#    y 0.000000 1.712210 0.000000 
#    z 0.000000 0.000000 1.708440 
# 
# From -- ./inp_files/27468.got.cif
#   From: 2010.05.17/outbox.cif.g08.bks.cpg/sg67_14_cif.got.tgz:27468.got - 2010.06.03 18:28:57.
