data_PCOD9503686
_publ_section_title
;
Structure prediction by ZEFSAII (Michael W. Deem and Ramdas Pophale) SiO2 
 PCOD9503686
Probable space group: C M M A
;
_chemical_formula_sum "Si O2"
_cell_formula_units_Z 64
_cell_length_a 33.294782
_cell_length_b 7.939900
_cell_length_c 11.982176
_cell_angle_alpha 90.000000
_cell_angle_beta 90.000000
_cell_angle_gamma 90.000000
_cell_volume 3167.574972
_symmetry_space_group_name_H-M "C M M A"
_symmetry_group_IT_number 67
_symmetry_cell_setting 'orthorhombic'
loop_
_space_group_symop_operation_xyz
x,y,z
-x,1/2-y,z
x,-y,-z
-x,1/2+y,-z
-x,-y,-z
x,1/2+y,-z
-x,y,z
x,1/2-y,z
1/2+x,1/2+y,z
1/2-x,-y,z
1/2+x,1/2-y,-z
1/2-x,y,-z
1/2-x,1/2-y,-z
1/2+x,y,-z
1/2-x,1/2+y,z
1/2+x,-y,z
loop_
_atom_site_type_symbol
_atom_site_label
_atom_site_fract_x
_atom_site_fract_y
_atom_site_fract_z
Si Si1 0.644708 0.051070 0.127917
Si Si2 0.912342 0.442545 0.315879
Si Si3 0.500000 0.450164 0.369753
Si Si4 0.856716 0.500000 0.500000
Si Si5 0.296227 0.451863 0.321132
O O1 0.637793 0.250000 0.133856
O O2 0.684971 0.015039 0.199297
O O3 0.608689 0.965717 0.196913
O O4 0.647555 0.000000 0.000000
O O5 0.905716 0.250000 0.355066
O O6 0.889146 0.558969 0.406268
O O7 0.959240 0.480082 0.316298
O O8 0.500000 0.250000 0.360864
O O9 0.500000 0.500000 0.500000
O O10 0.823387 0.556207 0.591717
O O11 0.301374 0.250000 0.345342
O O12 0.250000 0.500000 0.328668
#
# Coordination Sequence:
#
# PCOD9503686 Si02
#       5
#    16  16   8   8  16
#     4  10  22  41  62  85 115 152 199 246 297 352
#     4  11  22  38  62  89 120 157 197 240 295 351
#     4  12  24  38  59  90 127 160 196 239 287 343
#     4  10  21  35  58  84 120 154 198 237 291 356
#     4  10  22  37  55  83 116 153 194 243 294 350
#
# _framework density 20.204730999999999
#
# number of rings (size 3 to 8) (size 9 to 14) (size 15 to 20)
#    0.000    1.500    1.250    3.750    0.000    9.500 
#    0.000    3.125    0.000    0.000    0.000    0.000 
#    0.000    0.000    0.000    0.000    0.000    0.000 
#
# Total GULP energy -178211.223224 kJ/mol
# GULP energy per Si atom -5569.100726 kJ/mol
# Density = 2.015874 g / cm^3
# Si number density = 20.204731 Si / 1000 Ang^3
#
#
#
# Elastic Constant Matrix: (Units=GPa)
#
#
# Indices 1 2 3 4 5 6 
#
# 1 193.7170 30.8580 55.1006 0.0000 0.0000 0.0000
# 2 30.8580 100.6399 22.4446 0.0000 0.0000 0.0000
# 3 55.1006 22.4446 146.4483 0.0000 0.0000 0.0000
# 4 0.0000 0.0000 0.0000 -0.8375 0.0000 0.0000
# 5 0.0000 0.0000 0.0000 0.0000 12.7370 0.0000
# 6 0.0000 0.0000 0.0000 0.0000 0.0000 1.2565
#
#
#
# Elastic Compliance Matrix: (Units=1/GPa)
#
#
# Indices 1 2 3 4 5 6 
#
# 1 0.005959 -0.001374 -0.002031 0.000000 0.000000 0.000000
# 2 -0.001374 0.010605 -0.001108 0.000000 0.000000 0.000000
# 3 -0.002031 -0.001108 0.007763 0.000000 0.000000 0.000000
# 4 0.000000 0.000000 0.000000 -1.194009 0.000000 0.000000
# 5 0.000000 0.000000 0.000000 0.000000 0.078511 0.000000
# 6 0.000000 0.000000 0.000000 0.000000 0.000000 0.795839
#
#
# Mechanical properties :
#
#
# Convention : Reuss Voigt Hill
#
# Bulk Modulus (GPa) = 65.36499 73.06797 69.21648
# Shear Modulus (GPa) = -17.78062 24.79134 3.50536
#
# Velocity S-wave (km/s) = -2.96974 3.50667 1.31859
# Velocity P-wave (km/s) = 4.54560 7.25520 6.05394
#
# Compressibility (1/GPa) = 0.01529871
#
# Stress axis : x y z
#
# Youngs Moduli (GPa) = 167.81738 94.29604 128.82412
#
# Poissons Ratio (x) = 0.12957 0.26169
# Poissons Ratio (y) = 0.23059 0.14278
# Poissons Ratio (z) = 0.34091 0.10451
#
# Static dielectric constant tensor:
#      x y z
#    x 1.684190 0.000000 0.000000 
#    y 0.000000 1.857000 0.000000 
#    z 0.000000 0.000000 1.713660 
# 
# From -- ./inp_files/15836.got.cif
#   From: 2010.05.17/outbox.cif.g08.bks.cpg/sg67_8_cif.got.tgz:15836.got - 2010.06.03 18:28:57.
