data_PCOD9503807
_publ_section_title
;
Structure prediction by ZEFSAII (Michael W. Deem and Ramdas Pophale) SiO2 
 PCOD9503807
Probable space group: C M M A
;
_chemical_formula_sum "Si O2"
_cell_formula_units_Z 116
_cell_length_a 26.874207
_cell_length_b 14.897451
_cell_length_c 12.771659
_cell_angle_alpha 90.000000
_cell_angle_beta 90.000000
_cell_angle_gamma 90.000000
_cell_volume 5113.225406
_symmetry_space_group_name_H-M "C M M A"
_symmetry_group_IT_number 67
_symmetry_cell_setting 'orthorhombic'
loop_
_space_group_symop_operation_xyz
x,y,z
-x,1/2-y,z
x,-y,-z
-x,1/2+y,-z
-x,-y,-z
x,1/2+y,-z
-x,y,z
x,1/2-y,z
1/2+x,1/2+y,z
1/2-x,-y,z
1/2+x,1/2-y,-z
1/2-x,y,-z
1/2-x,1/2-y,-z
1/2+x,y,-z
1/2-x,1/2+y,z
1/2+x,-y,z
loop_
_atom_site_type_symbol
_atom_site_label
_atom_site_fract_x
_atom_site_fract_y
_atom_site_fract_z
Si Si1 0.941366 0.603034 0.783343
Si Si2 0.902688 0.603506 0.007652
Si Si3 0.500000 0.750000 0.685527
Si Si4 0.862323 0.113359 0.383000
Si Si5 0.207788 0.141807 0.916569
Si Si6 0.655572 0.903444 0.608948
Si Si7 0.748102 0.644273 0.304714
Si Si8 0.922700 0.113164 0.768565
O O1 0.908877 0.640945 0.687475
O O2 0.934722 0.493628 0.773962
O O3 0.000000 0.623034 0.780111
O O4 0.917189 0.637364 0.892768
O O5 0.844600 0.605558 0.040048
O O6 0.927877 0.644741 0.111006
O O7 0.918731 0.500000 0.000000
O O8 0.457723 0.670784 0.695508
O O9 0.861850 0.144880 0.503149
O O10 0.810119 0.133495 0.325754
O O11 0.862377 0.005648 0.392251
O O12 0.201840 0.250000 0.911439
O O13 0.231650 0.110479 0.807018
O O14 0.250000 0.120821 0.000000
O O15 0.715058 0.900915 0.612474
O O16 0.631656 0.869718 0.717923
O O17 0.758558 0.750000 0.310962
#
# Coordination Sequence:
#
# PCOD9503807 Si02
#       8
#    16  16   4  16  16  16  16  16
#     4  10  21  41  63  87 120 158 207 253 298 358
#     4  10  21  36  59  87 119 152 196 251 295 356
#     4  12  24  36  62  94 130 156 194 250 320 366
#     4  10  22  40  62  88 121 166 210 251 302 363
#     4  10  21  37  55  84 123 159 193 243 305 366
#     4  10  21  40  61  90 125 160 206 255 302 363
#     4  11  22  37  63  91 124 161 200 253 313 369
#     4  10  22  38  60  95 120 153 198 251 307 362
#
# _framework density 22.686267000000001
#
# number of rings (size 3 to 8) (size 9 to 14) (size 15 to 20)
#    0.000    1.793    2.069    1.655    2.897    3.310 
#    3.724    1.379    0.000    1.241    0.000    0.000 
#    0.000    0.000    0.000    0.000    0.000    0.000 
#
# Total GULP energy -323113.373460 kJ/mol
# GULP energy per Si atom -5570.920232 kJ/mol
# Density = 2.263463 g / cm^3
# Si number density = 22.686267 Si / 1000 Ang^3
#
#
#
# Elastic Constant Matrix: (Units=GPa)
#
#
# Indices 1 2 3 4 5 6 
#
# 1 118.0298 -7.7434 65.0912 0.0000 0.0000 0.0000
# 2 -7.7434 54.6087 8.1797 0.0000 0.0000 0.0000
# 3 65.0912 8.1797 158.3058 0.0000 0.0000 0.0000
# 4 0.0000 0.0000 0.0000 -1.0691 0.0000 0.0000
# 5 0.0000 0.0000 0.0000 0.0000 -80.6188 0.0000
# 6 0.0000 0.0000 0.0000 0.0000 0.0000 117.3813
#
#
#
# Elastic Compliance Matrix: (Units=1/GPa)
#
#
# Indices 1 2 3 4 5 6 
#
# 1 0.011237 0.002303 -0.004739 0.000000 0.000000 0.000000
# 2 0.002303 0.018927 -0.001925 0.000000 0.000000 0.000000
# 3 -0.004739 -0.001925 0.008365 0.000000 0.000000 0.000000
# 4 0.000000 0.000000 0.000000 -0.935342 0.000000 0.000000
# 5 0.000000 0.000000 0.000000 0.000000 -0.012404 0.000000
# 6 0.000000 0.000000 0.000000 0.000000 0.000000 0.008519
#
#
# Mechanical properties :
#
#
# Convention : Reuss Voigt Hill
#
# Bulk Modulus (GPa) = 33.54909 51.33328 42.44119
# Shear Modulus (GPa) = -5.66868 24.83313 9.58223
#
# Velocity S-wave (km/s) = -1.58245 3.31211 2.05742
# Velocity P-wave (km/s) = 3.38844 6.10765 4.93887
#
# Compressibility (1/GPa) = 0.02980707
#
# Stress axis : x y z
#
# Youngs Moduli (GPa) = 88.98945 52.83439 119.54415
#
# Poissons Ratio (x) = -0.12170 0.56658
# Poissons Ratio (y) = -0.20497 0.23013
# Poissons Ratio (z) = 0.42176 0.10171
#
# Static dielectric constant tensor:
#      x y z
#    x 1.861440 0.000000 0.000000 
#    y 0.000000 1.868850 0.000000 
#    z 0.000000 0.000000 1.893970 
# 
# From -- ./inp_files/23049.got.cif
#   From: 2010.05.17/outbox.cif.g08.bks.cpg/sg67_12_cif.got.tgz:23049.got - 2010.06.03 18:28:57.
