data_PCOD9503581
_publ_section_title
;
Structure prediction by ZEFSAII (Michael W. Deem and Ramdas Pophale) SiO2 
 PCOD9503581
Probable space group: C M M A
;
_chemical_formula_sum "Si O2"
_cell_formula_units_Z 56
_cell_length_a 31.369802
_cell_length_b 15.472675
_cell_length_c 5.213280
_cell_angle_alpha 90.000000
_cell_angle_beta 90.000000
_cell_angle_gamma 90.000000
_cell_volume 2530.394483
_symmetry_space_group_name_H-M "C M M A"
_symmetry_group_IT_number 67
_symmetry_cell_setting 'orthorhombic'
loop_
_space_group_symop_operation_xyz
x,y,z
-x,1/2-y,z
x,-y,-z
-x,1/2+y,-z
-x,-y,-z
x,1/2+y,-z
-x,y,z
x,1/2-y,z
1/2+x,1/2+y,z
1/2-x,-y,z
1/2+x,1/2-y,-z
1/2-x,y,-z
1/2-x,1/2-y,-z
1/2+x,y,-z
1/2-x,1/2+y,z
1/2+x,-y,z
loop_
_atom_site_type_symbol
_atom_site_label
_atom_site_fract_x
_atom_site_fract_y
_atom_site_fract_z
Si Si1 0.231008 0.902389 0.750723
Si Si2 0.408225 0.403008 0.385832
Si Si3 0.000000 0.561341 0.251827
Si Si4 0.139124 0.849226 0.872520
O O1 0.250000 0.859623 0.500000
O O2 0.180399 0.900515 0.770721
O O3 0.250000 0.000000 0.749790
O O4 0.250000 0.858692 0.000000
O O5 0.406281 0.500000 0.500000
O O6 0.455947 0.386839 0.278969
O O7 0.394299 0.350116 0.636696
O O8 0.378355 0.389195 0.137761
O O9 0.000000 0.500000 0.500000
O O10 0.000000 0.500000 0.000000
O O11 0.151044 0.750000 0.924362
#
# Coordination Sequence:
#
# PCOD9503581 Si02
#       4
#    16  16   8  16
#     4  10  23  40  63  92 129 170 234 273 333 402
#     4  11  24  42  73  98 134 183 230 278 336 405
#     4  10  20  42  65 106 133 168 233 286 315 386
#     4  12  26  43  65 103 142 175 224 287 349 407
#
# _framework density 22.130938
#
# number of rings (size 3 to 8) (size 9 to 14) (size 15 to 20)
#    0.000    1.143    0.000    6.857   12.000    1.143 
#    0.000    4.286    0.000    0.000    0.000    0.000 
#    0.000    0.000    0.000    0.000    0.000    0.000 
#
# Total GULP energy -156357.671429 kJ/mol
# GULP energy per Si atom -5584.202551 kJ/mol
# Density = 2.208057 g / cm^3
# Si number density = 22.130938 Si / 1000 Ang^3
#
#
#
# Elastic Constant Matrix: (Units=GPa)
#
#
# Indices 1 2 3 4 5 6 
#
# 1 136.5716 44.3789 57.2671 0.0000 0.0000 0.0000
# 2 44.3789 86.7735 16.5476 0.0000 0.0000 0.0000
# 3 57.2671 16.5476 217.5250 0.0000 0.0000 0.0000
# 4 0.0000 0.0000 0.0000 -25.6899 0.0000 0.0000
# 5 0.0000 0.0000 0.0000 0.0000 49.5146 0.0000
# 6 0.0000 0.0000 0.0000 0.0000 0.0000 6.7761
#
#
#
# Elastic Compliance Matrix: (Units=1/GPa)
#
#
# Indices 1 2 3 4 5 6 
#
# 1 0.009731 -0.004554 -0.002215 0.000000 0.000000 0.000000
# 2 -0.004554 0.013825 0.000147 0.000000 0.000000 0.000000
# 3 -0.002215 0.000147 0.005169 0.000000 0.000000 0.000000
# 4 0.000000 0.000000 0.000000 -0.038926 0.000000 0.000000
# 5 0.000000 0.000000 0.000000 0.000000 0.020196 0.000000
# 6 0.000000 0.000000 0.000000 0.000000 0.000000 0.147577
#
#
# Mechanical properties :
#
#
# Convention : Reuss Voigt Hill
#
# Bulk Modulus (GPa) = 64.59629 75.25081 69.92355
# Shear Modulus (GPa) = 28.41269 27.63195 28.02232
#
# Velocity S-wave (km/s) = 3.58697 3.53734 3.56224
# Velocity P-wave (km/s) = 6.81225 7.12461 6.97018
#
# Compressibility (1/GPa) = 0.01548077
#
# Stress axis : x y z
#
# Youngs Moduli (GPa) = 102.76393 72.33071 193.45311
#
# Poissons Ratio (x) = 0.32942 0.42858
# Poissons Ratio (y) = 0.46802 -0.02849
# Poissons Ratio (z) = 0.22766 -0.01065
#
# Static dielectric constant tensor:
#      x y z
#    x 1.881590 0.000000 0.000000 
#    y 0.000000 1.831150 0.000000 
#    z 0.000000 0.000000 1.806810 
# 
# From -- ./inp_files/4445.got.cif
#   From: 2010.05.17/outbox.cif.g08.bks.cpg/sg67_3_cif.got.tgz:4445.got - 2010.06.03 18:28:57.
