data_PCOD9503485
_publ_section_title
;
Structure prediction by ZEFSAII (Michael W. Deem and Ramdas Pophale) SiO2 
 PCOD9503485
Probable space group: C M M A
;
_chemical_formula_sum "Si O2"
_cell_formula_units_Z 52
_cell_length_a 15.188741
_cell_length_b 14.490680
_cell_length_c 11.956704
_cell_angle_alpha 90.000000
_cell_angle_beta 90.000000
_cell_angle_gamma 90.000000
_cell_volume 2631.612984
_symmetry_space_group_name_H-M "C M M A"
_symmetry_group_IT_number 67
_symmetry_cell_setting 'orthorhombic'
loop_
_space_group_symop_operation_xyz
x,y,z
-x,1/2-y,z
x,-y,-z
-x,1/2+y,-z
-x,-y,-z
x,1/2+y,-z
-x,y,z
x,1/2-y,z
1/2+x,1/2+y,z
1/2-x,-y,z
1/2+x,1/2-y,-z
1/2-x,y,-z
1/2-x,1/2-y,-z
1/2+x,y,-z
1/2-x,1/2+y,z
1/2+x,-y,z
loop_
_atom_site_type_symbol
_atom_site_label
_atom_site_fract_x
_atom_site_fract_y
_atom_site_fract_z
Si Si1 0.695375 0.639863 0.608626
Si Si2 0.250000 0.000000 0.000000
Si Si3 0.000000 0.647215 0.712894
Si Si4 0.000000 0.896408 0.460325
Si Si5 0.683385 0.863601 0.185131
O O1 0.704490 0.750000 0.604062
O O2 0.750000 0.604469 0.500000
O O3 0.591653 0.620416 0.601875
O O4 0.741040 0.613036 0.724362
O O5 0.196141 0.071568 0.078083
O O6 0.000000 0.654452 0.579466
O O7 0.908453 0.607970 0.756047
O O8 0.000000 0.750000 0.760663
O O9 0.000000 0.000000 0.500000
O O10 0.685792 0.750000 0.165545
#
# Coordination Sequence:
#
# PCOD9503485 Si02
#       5
#    16   4   8   8  16
#     4  10  20  38  63  90 124 161 201 248 308 376
#     4  12  26  42  66  82 132 166 218 268 308 354
#     4  10  20  41  66  90 124 163 206 252 314 382
#     4  12  24  32  58  97 136 160 195 244 311 394
#     4  10  23  42  67  94 123 167 213 258 312 370
#
# _framework density 19.759744000000001
#
# number of rings (size 3 to 8) (size 9 to 14) (size 15 to 20)
#    0.000    1.538    3.077    1.846    4.308    1.231 
#    0.000    1.538    0.000    3.692    0.000    0.000 
#    0.000    0.000    0.000    0.000    0.000    0.000 
#
# Total GULP energy -144955.281830 kJ/mol
# GULP energy per Si atom -5575.203147 kJ/mol
# Density = 1.971477 g / cm^3
# Si number density = 19.759744 Si / 1000 Ang^3
#
#
#
# Elastic Constant Matrix: (Units=GPa)
#
#
# Indices 1 2 3 4 5 6 
#
# 1 178.7669 16.1284 87.4930 0.0000 0.0000 0.0000
# 2 16.1284 91.3144 43.8732 0.0000 0.0000 0.0000
# 3 87.4930 43.8732 106.6845 0.0000 0.0000 0.0000
# 4 0.0000 0.0000 0.0000 29.6324 0.0000 0.0000
# 5 0.0000 0.0000 0.0000 0.0000 -0.6686 0.0000
# 6 0.0000 0.0000 0.0000 0.0000 0.0000 -29.4520
#
#
#
# Elastic Compliance Matrix: (Units=1/GPa)
#
#
# Indices 1 2 3 4 5 6 
#
# 1 0.009839 0.002666 -0.009166 0.000000 0.000000 0.000000
# 2 0.002666 0.014370 -0.008096 0.000000 0.000000 0.000000
# 3 -0.009166 -0.008096 0.020220 0.000000 0.000000 0.000000
# 4 0.000000 0.000000 0.000000 0.033747 0.000000 0.000000
# 5 0.000000 0.000000 0.000000 0.000000 -1.495673 0.000000
# 6 0.000000 0.000000 0.000000 0.000000 0.000000 -0.033954
#
#
# Mechanical properties :
#
#
# Convention : Reuss Voigt Hill
#
# Bulk Modulus (GPa) = 65.62667 74.63945 70.13306
# Shear Modulus (GPa) = -3.52813 15.18712 5.82950
#
# Velocity S-wave (km/s) = -1.33768 2.77535 1.71947
# Velocity P-wave (km/s) = 5.55865 6.93726 6.28586
#
# Compressibility (1/GPa) = 0.01523771
#
# Stress axis : x y z
#
# Youngs Moduli (GPa) = 101.63415 69.58901 49.45706
#
# Poissons Ratio (x) = -0.18551 0.45330
# Poissons Ratio (y) = -0.27094 0.40040
# Poissons Ratio (z) = 0.93153 0.56338
#
# Static dielectric constant tensor:
#      x y z
#    x 1.757100 0.000000 0.000000 
#    y 0.000000 1.704810 0.000000 
#    z 0.000000 0.000000 1.517340 
# 
# From -- ./inp_files/17242.got.cif
#   From: 2010.05.17/outbox.cif.g08.bks.cpg/sg67_9_cif.got.tgz:17242.got - 2010.06.03 18:28:57.
