data_PCOD9503747
_publ_section_title
;
Structure prediction by ZEFSAII (Michael W. Deem and Ramdas Pophale) SiO2 
 PCOD9503747
Probable space group: C M M A
;
_chemical_formula_sum "Si O2"
_cell_formula_units_Z 104
_cell_length_a 8.642882
_cell_length_b 26.725520
_cell_length_c 22.799946
_cell_angle_alpha 90.000000
_cell_angle_beta 90.000000
_cell_angle_gamma 90.000000
_cell_volume 5266.457286
_symmetry_space_group_name_H-M "C M M A"
_symmetry_group_IT_number 67
_symmetry_cell_setting 'orthorhombic'
loop_
_space_group_symop_operation_xyz
x,y,z
-x,1/2-y,z
x,-y,-z
-x,1/2+y,-z
-x,-y,-z
x,1/2+y,-z
-x,y,z
x,1/2-y,z
1/2+x,1/2+y,z
1/2-x,-y,z
1/2+x,1/2-y,-z
1/2-x,y,-z
1/2-x,1/2-y,-z
1/2+x,y,-z
1/2-x,1/2+y,z
1/2+x,-y,z
loop_
_atom_site_type_symbol
_atom_site_label
_atom_site_fract_x
_atom_site_fract_y
_atom_site_fract_z
Si Si1 0.313438 0.194526 0.113538
Si Si2 0.316197 0.652993 0.760709
Si Si3 0.314469 0.945036 0.565915
Si Si4 0.316557 0.593916 0.061298
Si Si5 0.684908 0.349386 0.633491
Si Si6 0.814437 0.552866 0.812977
Si Si7 0.313457 0.250000 0.564861
O O1 0.500000 0.191350 0.110195
O O2 0.264471 0.250000 0.095118
O O3 0.271192 0.185409 0.182014
O O4 0.244324 0.149644 0.075757
O O5 0.500000 0.658092 0.752447
O O6 0.230355 0.662784 0.700233
O O7 0.270359 0.596889 0.778793
O O8 0.500000 0.947071 0.563817
O O9 0.250000 0.935125 0.500000
O O10 0.260746 0.900274 0.608603
O O11 0.250000 0.000000 0.583391
O O12 0.500000 0.595614 0.057002
O O13 0.275396 0.561299 0.118268
O O14 0.250000 0.575550 0.000000
O O15 0.500000 0.355029 0.628774
O O16 0.736544 0.301131 0.596336
O O17 0.750000 0.500000 0.793296
O O18 0.000000 0.556623 0.806156
O O19 0.500000 0.250000 0.564971
O O20 0.250000 0.250000 0.500000
#
# Coordination Sequence:
#
# PCOD9503747 Si02
#       7
#    16  16  16  16  16  16   8
#     4   9  19  36  57  80 109 145 185 231 283 338
#     4  10  21  37  58  85 114 147 188 235 285 338
#     4  11  22  39  62  89 118 153 193 240 294 350
#     4  10  21  36  55  81 112 146 187 234 283 339
#     4  11  23  40  60  88 122 158 200 245 293 350
#     4  10  21  38  59  83 113 150 190 234 287 344
#     4  10  24  42  62  88 122 162 201 244 295 348
#
# _framework density 19.747622
#
# number of rings (size 3 to 8) (size 9 to 14) (size 15 to 20)
#    0.000    1.846    0.000    4.154    1.077    6.462 
#    0.000    4.615    0.000    0.000    0.000    0.000 
#    0.000    0.000    0.000    0.000    0.000    0.000 
#
# Total GULP energy -290539.228318 kJ/mol
# GULP energy per Si atom -5587.292852 kJ/mol
# Density = 1.970268 g / cm^3
# Si number density = 19.747622 Si / 1000 Ang^3
#
#
#
# Elastic Constant Matrix: (Units=GPa)
#
#
# Indices 1 2 3 4 5 6 
#
# 1 53.0358 8.0531 12.5232 0.0000 0.0000 0.0000
# 2 8.0531 56.6241 -8.0625 0.0000 0.0000 0.0000
# 3 12.5232 -8.0625 67.1196 0.0000 0.0000 0.0000
# 4 0.0000 0.0000 0.0000 -7.5191 0.0000 0.0000
# 5 0.0000 0.0000 0.0000 0.0000 36.9843 0.0000
# 6 0.0000 0.0000 0.0000 0.0000 0.0000 20.5167
#
#
#
# Elastic Compliance Matrix: (Units=1/GPa)
#
#
# Indices 1 2 3 4 5 6 
#
# 1 0.020384 -0.003500 -0.004224 0.000000 0.000000 0.000000
# 2 -0.003500 0.018569 0.002884 0.000000 0.000000 0.000000
# 3 -0.004224 0.002884 0.016033 0.000000 0.000000 0.000000
# 4 0.000000 0.000000 0.000000 -0.132995 0.000000 0.000000
# 5 0.000000 0.000000 0.000000 0.000000 0.027039 0.000000
# 6 0.000000 0.000000 0.000000 0.000000 0.000000 0.048741
#
#
# Mechanical properties :
#
#
# Convention : Reuss Voigt Hill
#
# Bulk Modulus (GPa) = 22.07267 22.42302 22.24784
# Shear Modulus (GPa) = 221.69966 20.94743 121.32354
#
# Velocity S-wave (km/s) = 10.60708 3.26046 7.84668
# Velocity P-wave (km/s) = 12.69706 5.05505 9.66356
#
# Compressibility (1/GPa) = 0.04530490
#
# Stress axis : x y z
#
# Youngs Moduli (GPa) = 49.05801 53.85391 62.37052
#
# Poissons Ratio (x) = 0.18851 0.26344
# Poissons Ratio (y) = 0.17172 -0.17985
# Poissons Ratio (z) = 0.20721 -0.15529
#
# Static dielectric constant tensor:
#      x y z
#    x 1.667980 0.000000 0.000000 
#    y 0.000000 2.812500 0.000000 
#    z 0.000000 0.000000 1.709050 
# 
# From -- ./inp_files/37330.got.cif
#   From: 2010.05.17/outbox.cif.g08.bks.cpg/sg67_19_cif.got.tgz:37330.got - 2010.06.03 18:28:57.
