data_PCOD9503286
_publ_section_title
;
Structure prediction by ZEFSAII (Michael W. Deem and Ramdas Pophale) SiO2 
 PCOD9503286
Probable space group: C M M A
;
_chemical_formula_sum "Si O2"
_cell_formula_units_Z 96
_cell_length_a 13.844470
_cell_length_b 23.508961
_cell_length_c 13.692589
_cell_angle_alpha 90.000000
_cell_angle_beta 90.000000
_cell_angle_gamma 90.000000
_cell_volume 4456.514691
_symmetry_space_group_name_H-M "C M M A"
_symmetry_group_IT_number 67
_symmetry_cell_setting 'orthorhombic'
loop_
_space_group_symop_operation_xyz
x,y,z
-x,1/2-y,z
x,-y,-z
-x,1/2+y,-z
-x,-y,-z
x,1/2+y,-z
-x,y,z
x,1/2-y,z
1/2+x,1/2+y,z
1/2-x,-y,z
1/2+x,1/2-y,-z
1/2-x,y,-z
1/2-x,1/2-y,-z
1/2+x,y,-z
1/2-x,1/2+y,z
1/2+x,-y,z
loop_
_atom_site_type_symbol
_atom_site_label
_atom_site_fract_x
_atom_site_fract_y
_atom_site_fract_z
Si Si1 0.381971 0.962559 0.291905
Si Si2 0.382903 0.633710 0.447516
Si Si3 0.830783 0.250000 0.355140
Si Si4 0.292697 0.310323 0.211669
Si Si5 0.250000 0.349051 0.000000
Si Si6 0.383425 0.091538 0.337053
Si Si7 0.115530 0.053497 0.068431
O O1 0.500000 0.961896 0.291740
O O2 0.351601 0.913790 0.368017
O O3 0.350306 0.952174 0.180351
O O4 0.353206 0.026352 0.321742
O O5 0.500000 0.635031 0.441608
O O6 0.350117 0.698385 0.431916
O O7 0.355547 0.613377 0.555723
O O8 0.806421 0.201068 0.270351
O O9 0.346444 0.250000 0.234568
O O10 0.343598 0.365099 0.256208
O O11 0.274281 0.315482 0.097724
O O12 0.339024 0.390390 0.976464
O O13 0.500000 0.092604 0.331397
O O14 0.000000 0.056963 0.069740
O O15 0.141088 0.000000 0.000000
#
# Coordination Sequence:
#
# PCOD9503286 Si02
#       7
#    16  16   8  16   8  16  16
#     4   9  18  36  60  92 127 156 200 264 324 382
#     4  10  20  36  63  91 119 162 208 256 314 382
#     4  10  23  40  55  82 120 162 202 253 297 358
#     4  10  25  41  60  83 119 165 208 265 314 373
#     4  12  22  42  66  88 120 173 219 260 328 383
#     4  10  21  38  63  92 123 158 204 258 322 389
#     4  10  21  36  61  95 128 163 209 266 325 393
#
# _framework density 21.541498000000001
#
# number of rings (size 3 to 8) (size 9 to 14) (size 15 to 20)
#    0.500    1.500    0.000    3.250    1.167    5.667 
#    0.000    3.333    0.000    5.000    0.000    0.000 
#    0.000    0.000    0.000    0.000    0.000    0.000 
#
# Total GULP energy -267206.548524 kJ/mol
# GULP energy per Si atom -5566.803094 kJ/mol
# Density = 2.149247 g / cm^3
# Si number density = 21.541498 Si / 1000 Ang^3
#
#
#
# Elastic Constant Matrix: (Units=GPa)
#
#
# Indices 1 2 3 4 5 6 
#
# 1 42.0817 28.8223 44.9196 0.0000 0.0000 0.0000
# 2 28.8223 184.4085 72.0064 0.0000 0.0000 0.0000
# 3 44.9196 72.0064 114.0059 0.0000 0.0000 0.0000
# 4 0.0000 0.0000 0.0000 48.2628 0.0000 0.0000
# 5 0.0000 0.0000 0.0000 0.0000 26.1296 0.0000
# 6 0.0000 0.0000 0.0000 0.0000 0.0000 27.6978
#
#
#
# Elastic Compliance Matrix: (Units=1/GPa)
#
#
# Indices 1 2 3 4 5 6 
#
# 1 0.041015 -0.000133 -0.016076 0.000000 0.000000 0.000000
# 2 -0.000133 0.007198 -0.004494 0.000000 0.000000 0.000000
# 3 -0.016076 -0.004494 0.017944 0.000000 0.000000 0.000000
# 4 0.000000 0.000000 0.000000 0.020720 0.000000 0.000000
# 5 0.000000 0.000000 0.000000 0.000000 0.038271 0.000000
# 6 0.000000 0.000000 0.000000 0.000000 0.000000 0.036104
#
#
# Mechanical properties :
#
#
# Convention : Reuss Voigt Hill
#
# Bulk Modulus (GPa) = 40.40311 70.22142 55.31226
# Shear Modulus (GPa) = 23.70689 33.40123 28.55406
#
# Velocity S-wave (km/s) = 3.32101 3.94198 3.64474
# Velocity P-wave (km/s) = 5.78810 7.30670 6.59128
#
# Compressibility (1/GPa) = 0.02475057
#
# Stress axis : x y z
#
# Youngs Moduli (GPa) = 24.38134 138.92078 55.72847
#
# Poissons Ratio (x) = 0.01850 0.89591
# Poissons Ratio (y) = 0.00325 0.25045
# Poissons Ratio (z) = 0.39196 0.62431
#
# Static dielectric constant tensor:
#      x y z
#    x 1.862670 0.000000 0.000000 
#    y 0.000000 1.769330 0.000000 
#    z 0.000000 0.000000 1.762060 
# 
# From -- ./inp_files/19715.got.cif
#   From: 2010.05.17/outbox.cif.g08.bks.cpg/sg67_10_cif.got.tgz:19715.got - 2010.06.03 18:28:57.
