data_PCOD9503226
_publ_section_title
;
Structure prediction by ZEFSAII (Michael W. Deem and Ramdas Pophale) SiO2 
 PCOD9503226
Probable space group: C M M A
;
_chemical_formula_sum "Si O2"
_cell_formula_units_Z 72
_cell_length_a 16.771274
_cell_length_b 8.095930
_cell_length_c 25.278845
_cell_angle_alpha 90.000000
_cell_angle_beta 90.000000
_cell_angle_gamma 90.000000
_cell_volume 3432.337820
_symmetry_space_group_name_H-M "C M M A"
_symmetry_group_IT_number 67
_symmetry_cell_setting 'orthorhombic'
loop_
_space_group_symop_operation_xyz
x,y,z
-x,1/2-y,z
x,-y,-z
-x,1/2+y,-z
-x,-y,-z
x,1/2+y,-z
-x,y,z
x,1/2-y,z
1/2+x,1/2+y,z
1/2-x,-y,z
1/2+x,1/2-y,-z
1/2-x,y,-z
1/2-x,1/2-y,-z
1/2+x,y,-z
1/2-x,1/2+y,z
1/2+x,-y,z
loop_
_atom_site_type_symbol
_atom_site_label
_atom_site_fract_x
_atom_site_fract_y
_atom_site_fract_z
Si Si1 0.092067 0.551088 0.056527
Si Si2 0.411021 0.550279 0.722593
Si Si3 0.840052 0.550862 0.167638
Si Si4 0.662319 0.445344 0.617017
Si Si5 0.500000 0.049878 0.560983
O O1 0.091977 0.750000 0.057961
O O2 0.133348 0.488977 0.109913
O O3 0.000000 0.493906 0.057564
O O4 0.127738 0.500000 0.000000
O O5 0.500000 0.493997 0.707786
O O6 0.409817 0.750000 0.722395
O O7 0.391278 0.494388 0.782076
O O8 0.349742 0.490202 0.678607
O O9 0.846267 0.750000 0.166188
O O10 0.750000 0.500000 0.177520
O O11 0.660236 0.250000 0.611358
O O12 0.750000 0.500000 0.598443
O O13 0.582677 0.512404 0.587707
O O14 0.500000 0.250000 0.565362
O O15 0.500000 0.000000 0.500000
#
# Coordination Sequence:
#
# PCOD9503226 Si02
#       5
#    16  16  16  16   8
#     4   9  18  34  54  73  97 132 176 227 279 337
#     4  10  20  36  60  87 115 153 197 241 295 357
#     4  10  21  35  51  76 109 143 182 230 283 342
#     4  11  23  41  63  93 128 164 204 252 303 355
#     4  10  24  44  66  92 128 166 207 252 299 350
#
# _framework density 20.976956000000001
#
# number of rings (size 3 to 8) (size 9 to 14) (size 15 to 20)
#    0.000    2.000    1.111    2.000    0.000    8.889 
#    0.000    4.444    0.000    4.000    0.000    0.000 
#    0.000    0.000    0.000    0.000    0.000    0.000 
#
# Total GULP energy -200966.426679 kJ/mol
# GULP energy per Si atom -5582.400741 kJ/mol
# Density = 2.092921 g / cm^3
# Si number density = 20.976956 Si / 1000 Ang^3
#
#
#
# Elastic Constant Matrix: (Units=GPa)
#
#
# Indices 1 2 3 4 5 6 
#
# 1 132.2507 14.7780 53.1621 0.0000 0.0000 0.0000
# 2 14.7780 13.0050 7.8291 0.0000 0.0000 0.0000
# 3 53.1621 7.8291 120.8386 0.0000 0.0000 0.0000
# 4 0.0000 0.0000 0.0000 26.8842 0.0000 0.0000
# 5 0.0000 0.0000 0.0000 0.0000 12.3897 0.0000
# 6 0.0000 0.0000 0.0000 0.0000 0.0000 25.8374
#
#
#
# Elastic Compliance Matrix: (Units=1/GPa)
#
#
# Indices 1 2 3 4 5 6 
#
# 1 0.010144 -0.009199 -0.003867 0.000000 0.000000 0.000000
# 2 -0.009199 0.088357 -0.001678 0.000000 0.000000 0.000000
# 3 -0.003867 -0.001678 0.010085 0.000000 0.000000 0.000000
# 4 0.000000 0.000000 0.000000 0.037197 0.000000 0.000000
# 5 0.000000 0.000000 0.000000 0.000000 0.080712 0.000000
# 6 0.000000 0.000000 0.000000 0.000000 0.000000 0.038704
#
#
# Mechanical properties :
#
#
# Convention : Reuss Voigt Hill
#
# Bulk Modulus (GPa) = 12.64233 46.40364 29.52298
# Shear Modulus (GPa) = 15.57386 25.71058 20.64222
#
# Velocity S-wave (km/s) = 2.72771 3.50474 3.14035
# Velocity P-wave (km/s) = 3.99504 6.20861 5.22050
#
# Compressibility (1/GPa) = 0.07909934
#
# Stress axis : x y z
#
# Youngs Moduli (GPa) = 98.58445 11.31777 99.15429
#
# Poissons Ratio (x) = 0.10411 0.38339
# Poissons Ratio (y) = 0.90685 0.16635
# Poissons Ratio (z) = 0.38119 0.01899
#
# Static dielectric constant tensor:
#      x y z
#    x 1.761990 0.000000 0.000000 
#    y 0.000000 1.749290 0.000000 
#    z 0.000000 0.000000 1.753120 
# 
# From -- ./inp_files/40526.got.cif
#   From: 2010.05.17/outbox.cif.g08.bks.cpg/sg67_21_cif.got.tgz:40526.got - 2010.06.03 18:28:57.
