data_PCOD9503835
_publ_section_title
;
Structure prediction by ZEFSAII (Michael W. Deem and Ramdas Pophale) SiO2 
 PCOD9503835
Probable space group: C M M A
;
_chemical_formula_sum "Si O2"
_cell_formula_units_Z 72
_cell_length_a 32.624311
_cell_length_b 8.647523
_cell_length_c 13.792346
_cell_angle_alpha 90.000000
_cell_angle_beta 90.000000
_cell_angle_gamma 90.000000
_cell_volume 3891.089478
_symmetry_space_group_name_H-M "C M M A"
_symmetry_group_IT_number 67
_symmetry_cell_setting 'orthorhombic'
loop_
_space_group_symop_operation_xyz
x,y,z
-x,1/2-y,z
x,-y,-z
-x,1/2+y,-z
-x,-y,-z
x,1/2+y,-z
-x,y,z
x,1/2-y,z
1/2+x,1/2+y,z
1/2-x,-y,z
1/2+x,1/2-y,-z
1/2-x,y,-z
1/2-x,1/2-y,-z
1/2+x,y,-z
1/2-x,1/2+y,z
1/2+x,-y,z
loop_
_atom_site_type_symbol
_atom_site_label
_atom_site_fract_x
_atom_site_fract_y
_atom_site_fract_z
Si Si1 0.666913 0.564994 0.895335
Si Si2 0.793660 0.935827 0.702419
Si Si3 0.500000 0.935092 0.891196
Si Si4 0.916024 0.063483 0.193744
Si Si5 0.122577 0.564822 0.603547
O O1 0.667522 0.750000 0.895627
O O2 0.695217 0.500901 0.808799
O O3 0.621128 0.504484 0.870195
O O4 0.679150 0.500000 0.000000
O O5 0.792970 0.750000 0.706916
O O6 0.831229 0.984217 0.632949
O O7 0.750000 0.000000 0.670473
O O8 0.500000 0.750000 0.892686
O O9 0.540766 0.997504 0.839447
O O10 0.500000 0.000000 0.000000
O O11 0.915375 0.250000 0.185248
O O12 0.905640 0.020860 0.305105
O O13 0.110284 0.500000 0.500000
O O14 0.122428 0.750000 0.598430
#
# Coordination Sequence:
#
# PCOD9503835 Si02
#       5
#    16  16   8  16  16
#     4  11  21  35  55  79 108 146 185 226 273 330
#     4  10  21  37  54  79 110 143 183 231 278 326
#     4  12  24  38  59  88 117 150 185 224 270 322
#     4  10  21  39  58  82 114 147 183 228 273 322
#     4   9  20  37  59  82 109 143 182 226 276 327
#
# _framework density 18.503813999999998
#
# number of rings (size 3 to 8) (size 9 to 14) (size 15 to 20)
#    0.000    1.778    0.000    6.333    0.000    6.222 
#    0.000    5.000    0.000    0.000    0.000    0.000 
#    0.000    0.000    0.000    0.000    0.000    0.000 
#
# Total GULP energy -201167.614526 kJ/mol
# GULP energy per Si atom -5587.989292 kJ/mol
# Density = 1.846170 g / cm^3
# Si number density = 18.503814 Si / 1000 Ang^3
#
#
#
# Elastic Constant Matrix: (Units=GPa)
#
#
# Indices 1 2 3 4 5 6 
#
# 1 97.0360 25.8774 22.4680 0.0000 0.0000 0.0000
# 2 25.8774 96.6169 24.0889 0.0000 0.0000 0.0000
# 3 22.4680 24.0889 101.6085 0.0000 0.0000 0.0000
# 4 0.0000 0.0000 0.0000 31.2906 0.0000 0.0000
# 5 0.0000 0.0000 0.0000 0.0000 5.0127 0.0000
# 6 0.0000 0.0000 0.0000 0.0000 0.0000 28.7403
#
#
#
# Elastic Compliance Matrix: (Units=1/GPa)
#
#
# Indices 1 2 3 4 5 6 
#
# 1 0.011439 -0.002586 -0.001916 0.000000 0.000000 0.000000
# 2 -0.002586 0.011585 -0.002175 0.000000 0.000000 0.000000
# 3 -0.001916 -0.002175 0.010781 0.000000 0.000000 0.000000
# 4 0.000000 0.000000 0.000000 0.031959 0.000000 0.000000
# 5 0.000000 0.000000 0.000000 0.000000 0.199494 0.000000
# 6 0.000000 0.000000 0.000000 0.000000 0.000000 0.034794
#
#
# Mechanical properties :
#
#
# Convention : Reuss Voigt Hill
#
# Bulk Modulus (GPa) = 48.89771 48.90333 48.90052
# Shear Modulus (GPa) = 15.61414 27.86386 21.73900
#
# Velocity S-wave (km/s) = 2.90803 3.88473 3.43131
# Velocity P-wave (km/s) = 6.14481 6.82698 6.49486
#
# Compressibility (1/GPa) = 0.02045085
#
# Stress axis : x y z
#
# Youngs Moduli (GPa) = 87.42200 86.31884 92.75572
#
# Poissons Ratio (x) = 0.22321 0.17775
# Poissons Ratio (y) = 0.22607 0.20172
# Poissons Ratio (z) = 0.16753 0.18772
#
# Static dielectric constant tensor:
#      x y z
#    x 1.624720 0.000000 0.000000 
#    y 0.000000 1.651500 0.000000 
#    z 0.000000 0.000000 1.622120 
# 
# From -- ./inp_files/25290.got.cif
#   From: 2010.05.17/outbox.cif.g08.bks.cpg/sg67_13_cif.got.tgz:25290.got - 2010.06.03 18:28:57.
