data_PCOD9503126
_publ_section_title
;
Structure prediction by ZEFSAII (Michael W. Deem and Ramdas Pophale) SiO2 
 PCOD9503126
Probable space group: C M M A
;
_chemical_formula_sum "Si O2"
_cell_formula_units_Z 96
_cell_length_a 14.045440
_cell_length_b 13.592441
_cell_length_c 24.866797
_cell_angle_alpha 90.000000
_cell_angle_beta 90.000000
_cell_angle_gamma 90.000000
_cell_volume 4747.365337
_symmetry_space_group_name_H-M "C M M A"
_symmetry_group_IT_number 67
_symmetry_cell_setting 'orthorhombic'
loop_
_space_group_symop_operation_xyz
x,y,z
-x,1/2-y,z
x,-y,-z
-x,1/2+y,-z
-x,-y,-z
x,1/2+y,-z
-x,y,z
x,1/2-y,z
1/2+x,1/2+y,z
1/2-x,-y,z
1/2+x,1/2-y,-z
1/2-x,y,-z
1/2-x,1/2-y,-z
1/2+x,y,-z
1/2-x,1/2+y,z
1/2+x,-y,z
loop_
_atom_site_type_symbol
_atom_site_label
_atom_site_fract_x
_atom_site_fract_y
_atom_site_fract_z
Si Si1 0.295323 0.866466 0.706599
Si Si2 0.203294 0.869486 0.416911
Si Si3 0.895290 0.630209 0.525351
Si Si4 0.109840 0.043457 0.113654
Si Si5 0.107648 0.959729 0.757529
Si Si6 0.780264 0.361172 0.938451
O O1 0.306515 0.750000 0.711131
O O2 0.310546 0.897727 0.644535
O O3 0.190403 0.897299 0.728152
O O4 0.370702 0.928490 0.740430
O O5 0.202371 0.750000 0.417056
O O6 0.129889 0.898069 0.463921
O O7 0.307949 0.900412 0.437145
O O8 0.895146 0.750000 0.526545
O O9 0.000000 0.597349 0.541505
O O10 0.149322 0.942794 0.086430
O O11 0.000000 0.058688 0.098855
O O12 0.117585 0.042579 0.178145
O O13 0.181514 0.126770 0.093489
O O14 0.000000 0.929797 0.743119
O O15 0.817583 0.250000 0.934669
O O16 0.750000 0.381458 0.000000
#
# Coordination Sequence:
#
# PCOD9503126 Si02
#       6
#    16  16  16  16  16  16
#     4  10  20  36  58  80 107 142 179 227 280 325
#     4   8  15  26  43  71  99 128 170 212 259 321
#     4   8  13  23  40  65  99 131 162 207 259 316
#     4  10  21  38  58  79 110 151 188 224 269 320
#     4  10  23  39  55  81 111 142 186 231 270 319
#     4  10  21  36  57  87 117 145 182 225 268 318
#
# _framework density 20.221743
#
# number of rings (size 3 to 8) (size 9 to 14) (size 15 to 20)
#    0.000    2.667    0.000    4.000    0.000    6.667 
#    0.000    8.333    0.000    8.000    0.000    9.333 
#    0.000    0.000    0.000    0.000    0.000    0.000 
#
# Total GULP energy -267942.120482 kJ/mol
# GULP energy per Si atom -5582.127510 kJ/mol
# Density = 2.017572 g / cm^3
# Si number density = 20.221743 Si / 1000 Ang^3
#
#
#
# Elastic Constant Matrix: (Units=GPa)
#
#
# Indices 1 2 3 4 5 6 
#
# 1 69.2784 -37.1492 12.9915 0.0000 0.0000 0.0000
# 2 -37.1492 49.9933 -14.3594 0.0000 0.0000 0.0000
# 3 12.9915 -14.3594 80.2475 0.0000 0.0000 0.0000
# 4 0.0000 0.0000 0.0000 -84.6144 0.0000 0.0000
# 5 0.0000 0.0000 0.0000 0.0000 -108.9359 0.0000
# 6 0.0000 0.0000 0.0000 0.0000 0.0000 9.5918
#
#
#
# Elastic Compliance Matrix: (Units=1/GPa)
#
#
# Indices 1 2 3 4 5 6 
#
# 1 0.024037 0.017651 -0.000733 0.000000 0.000000 0.000000
# 2 0.017651 0.034048 0.003235 0.000000 0.000000 0.000000
# 3 -0.000733 0.003235 0.013159 0.000000 0.000000 0.000000
# 4 0.000000 0.000000 0.000000 -0.011818 0.000000 0.000000
# 5 0.000000 0.000000 0.000000 0.000000 -0.009180 0.000000
# 6 0.000000 0.000000 0.000000 0.000000 0.000000 0.104256
#
#
# Mechanical properties :
#
#
# Convention : Reuss Voigt Hill
#
# Bulk Modulus (GPa) = 8.96463 13.60946 11.28704
# Shear Modulus (GPa) = 33.02966 -20.92263 6.05351
#
# Velocity S-wave (km/s) = 4.04589 -3.22010 1.73207
# Velocity P-wave (km/s) = 5.12527 2.66096 3.09739
#
# Compressibility (1/GPa) = 0.11154948
#
# Stress axis : x y z
#
# Youngs Moduli (GPa) = 41.60270 29.37038 75.99380
#
# Poissons Ratio (x) = -0.51841 0.05570
# Poissons Ratio (y) = -0.73432 -0.24584
# Poissons Ratio (z) = 0.03049 -0.09501
#
# Static dielectric constant tensor:
#      x y z
#    x 1.673510 0.000000 0.000000 
#    y 0.000000 1.767230 0.000000 
#    z 0.000000 0.000000 1.703080 
# 
# From -- ./inp_files/38367.got.cif
#   From: 2010.05.17/outbox.cif.g08.bks.cpg/sg67_20_cif.got.tgz:38367.got - 2010.06.03 18:28:57.
