data_PCOD9503730
_publ_section_title
;
Structure prediction by ZEFSAII (Michael W. Deem and Ramdas Pophale) SiO2 
 PCOD9503730
Probable space group: C M M A
;
_chemical_formula_sum "Si O2"
_cell_formula_units_Z 100
_cell_length_a 9.409798
_cell_length_b 25.420840
_cell_length_c 20.249069
_cell_angle_alpha 90.000000
_cell_angle_beta 90.000000
_cell_angle_gamma 90.000000
_cell_volume 4843.677930
_symmetry_space_group_name_H-M "C M M A"
_symmetry_group_IT_number 67
_symmetry_cell_setting 'orthorhombic'
loop_
_space_group_symop_operation_xyz
x,y,z
-x,1/2-y,z
x,-y,-z
-x,1/2+y,-z
-x,-y,-z
x,1/2+y,-z
-x,y,z
x,1/2-y,z
1/2+x,1/2+y,z
1/2-x,-y,z
1/2+x,1/2-y,-z
1/2-x,y,-z
1/2-x,1/2-y,-z
1/2+x,y,-z
1/2-x,1/2+y,z
1/2+x,-y,z
loop_
_atom_site_type_symbol
_atom_site_label
_atom_site_fract_x
_atom_site_fract_y
_atom_site_fract_z
Si Si1 0.671632 0.192768 0.429972
Si Si2 0.250000 0.000000 0.500000
Si Si3 0.834640 0.333130 0.064489
Si Si4 0.331787 0.078089 0.242373
Si Si5 0.834075 0.048506 0.109964
Si Si6 0.836278 0.692795 0.194552
Si Si7 0.333085 0.420739 0.384550
O O1 0.500000 0.189179 0.438345
O O2 0.699446 0.250000 0.397352
O O3 0.750000 0.194193 0.500000
O O4 0.722240 0.138086 0.398226
O O5 0.318970 0.959292 0.552779
O O6 0.822684 0.396582 0.071406
O O7 0.765121 0.311847 0.131524
O O8 0.000000 0.319328 0.060202
O O9 0.750000 0.315720 0.000000
O O10 0.500000 0.065328 0.232357
O O11 0.239727 0.058112 0.181179
O O12 0.318470 0.141858 0.240103
O O13 0.276622 0.059812 0.313853
O O14 0.000000 0.036039 0.117361
O O15 0.750000 0.000000 0.078906
O O16 0.816585 0.750000 0.226578
O O17 0.000000 0.690009 0.170686
O O18 0.500000 0.414704 0.372142
#
# Coordination Sequence:
#
# PCOD9503730 Si02
#       7
#    16   4  16  16  16  16  16
#     4   9  17  32  53  75 101 134 173 220 272 326
#     4  12  22  36  50  78 120 156 188 230 278 352
#     4  10  21  36  55  81 115 152 190 230 276 331
#     4   9  19  36  56  79 108 141 184 234 280 333
#     4  10  21  37  56  80 108 143 187 233 283 332
#     4   9  18  34  57  83 111 144 185 234 285 334
#     4  10  21  36  54  79 110 147 188 231 285 343
#
# _framework density 20.645468999999999
#
# number of rings (size 3 to 8) (size 9 to 14) (size 15 to 20)
#    0.000    2.400    0.800    1.200    1.120    3.520 
#    0.000    6.400    0.000    0.000    0.000    2.240 
#    0.000    0.000    0.000    0.000    0.000    0.000 
#
# Total GULP energy -278693.448816 kJ/mol
# GULP energy per Si atom -5573.868976 kJ/mol
# Density = 2.059848 g / cm^3
# Si number density = 20.645469 Si / 1000 Ang^3
#
#
#
# Elastic Constant Matrix: (Units=GPa)
#
#
# Indices 1 2 3 4 5 6 
#
# 1 68.7197 26.9628 35.1876 0.0000 0.0000 0.0000
# 2 26.9628 124.1419 10.8938 0.0000 0.0000 0.0000
# 3 35.1876 10.8938 102.0942 0.0000 0.0000 0.0000
# 4 0.0000 0.0000 0.0000 -9.2742 0.0000 0.0000
# 5 0.0000 0.0000 0.0000 0.0000 17.3459 0.0000
# 6 0.0000 0.0000 0.0000 0.0000 0.0000 20.4745
#
#
#
# Elastic Compliance Matrix: (Units=1/GPa)
#
#
# Indices 1 2 3 4 5 6 
#
# 1 0.019153 -0.003614 -0.006215 0.000000 0.000000 0.000000
# 2 -0.003614 0.008814 0.000305 0.000000 0.000000 0.000000
# 3 -0.006215 0.000305 0.011905 0.000000 0.000000 0.000000
# 4 0.000000 0.000000 0.000000 -0.107826 0.000000 0.000000
# 5 0.000000 0.000000 0.000000 0.000000 0.057650 0.000000
# 6 0.000000 0.000000 0.000000 0.000000 0.000000 0.048841
#
#
# Mechanical properties :
#
#
# Convention : Reuss Voigt Hill
#
# Bulk Modulus (GPa) = 48.02712 49.00491 48.51601
# Shear Modulus (GPa) = 77.48854 20.50335 48.99595
#
# Velocity S-wave (km/s) = 6.13306 3.15479 4.87684
# Velocity P-wave (km/s) = 8.57122 6.08755 7.43384
#
# Compressibility (1/GPa) = 0.02082157
#
# Stress axis : x y z
#
# Youngs Moduli (GPa) = 52.21224 113.46194 84.00182
#
# Poissons Ratio (x) = 0.41010 0.52211
# Poissons Ratio (y) = 0.18872 -0.02565
# Poissons Ratio (z) = 0.32452 -0.03464
#
# Static dielectric constant tensor:
#      x y z
#    x 1.694400 0.000000 0.000000 
#    y 0.000000 1.814020 0.000000 
#    z 0.000000 0.000000 1.725500 
# 
# From -- ./inp_files/37353.got.cif
#   From: 2010.05.17/outbox.cif.g08.bks.cpg/sg67_19_cif.got.tgz:37353.got - 2010.06.03 18:28:57.
