data_PCOD9503596
_publ_section_title
;
Structure prediction by ZEFSAII (Michael W. Deem and Ramdas Pophale) SiO2 
 PCOD9503596
Probable space group: C M M A
;
_chemical_formula_sum "Si O2"
_cell_formula_units_Z 80
_cell_length_a 27.404881
_cell_length_b 9.734873
_cell_length_c 19.434944
_cell_angle_alpha 90.000000
_cell_angle_beta 90.000000
_cell_angle_gamma 90.000000
_cell_volume 5184.913367
_symmetry_space_group_name_H-M "C M M A"
_symmetry_group_IT_number 67
_symmetry_cell_setting 'orthorhombic'
loop_
_space_group_symop_operation_xyz
x,y,z
-x,1/2-y,z
x,-y,-z
-x,1/2+y,-z
-x,-y,-z
x,1/2+y,-z
-x,y,z
x,1/2-y,z
1/2+x,1/2+y,z
1/2-x,-y,z
1/2+x,1/2-y,-z
1/2-x,y,-z
1/2-x,1/2-y,-z
1/2+x,y,-z
1/2-x,1/2+y,z
1/2+x,-y,z
loop_
_atom_site_type_symbol
_atom_site_label
_atom_site_fract_x
_atom_site_fract_y
_atom_site_fract_z
Si Si1 0.556779 0.411380 0.568051
Si Si2 0.646274 0.499906 0.650265
Si Si3 0.318722 0.250000 0.437396
Si Si4 0.295201 0.750000 0.404484
Si Si5 0.200384 0.410597 0.782371
Si Si6 0.698703 0.584410 0.937906
O O1 0.568819 0.500000 0.500000
O O2 0.500000 0.438440 0.584795
O O3 0.561936 0.250000 0.551638
O O4 0.592721 0.445986 0.631033
O O5 0.656493 0.618722 0.595387
O O6 0.685261 0.381761 0.634365
O O7 0.659882 0.552214 0.725829
O O8 0.318383 0.250000 0.519329
O O9 0.262440 0.250000 0.413534
O O10 0.213811 0.250000 0.774301
O O11 0.250000 0.500000 0.773952
O O12 0.179790 0.428258 0.859929
O O13 0.703617 0.750000 0.952125
O O14 0.750000 0.500000 0.932738
O O15 0.672977 0.500000 0.000000
#
# Coordination Sequence:
#
# PCOD9503596 Si02
#       6
#    16  16   8   8  16  16
#     4  10  22  39  57  74  91 118 161 212 261 306
#     4  12  22  34  50  71  96 128 162 206 251 287
#     4  11  22  34  49  65  98 128 167 198 235 289
#     4  11  22  34  47  69  92 132 167 200 235 285
#     4  10  21  33  48  69 100 135 167 199 240 290
#     4   9  16  28  44  66  92 126 165 200 232 274
#
# _framework density 15.42938
#
# number of rings (size 3 to 8) (size 9 to 14) (size 15 to 20)
#    0.000    1.600    2.000    4.800    2.800    2.400 
#    0.000    0.000    0.000    0.000    0.000    0.000 
#    0.000    0.800    0.000    0.800    0.000    1.200 
#
# Total GULP energy -222942.635524 kJ/mol
# GULP energy per Si atom -5573.565888 kJ/mol
# Density = 1.539426 g / cm^3
# Si number density = 15.429380 Si / 1000 Ang^3
#
#
#
# Elastic Constant Matrix: (Units=GPa)
#
#
# Indices 1 2 3 4 5 6 
#
# 1 51.3173 15.2319 40.5113 0.0000 0.0000 0.0000
# 2 15.2319 106.3129 43.2606 0.0000 0.0000 0.0000
# 3 40.5113 43.2606 111.7955 0.0000 0.0000 0.0000
# 4 0.0000 0.0000 0.0000 26.8914 0.0000 0.0000
# 5 0.0000 0.0000 0.0000 0.0000 12.5263 0.0000
# 6 0.0000 0.0000 0.0000 0.0000 0.0000 19.1870
#
#
#
# Elastic Compliance Matrix: (Units=1/GPa)
#
#
# Indices 1 2 3 4 5 6 
#
# 1 0.027296 0.000135 -0.009944 0.000000 0.000000 0.000000
# 2 0.000135 0.011165 -0.004369 0.000000 0.000000 0.000000
# 3 -0.009944 -0.004369 0.014239 0.000000 0.000000 0.000000
# 4 0.000000 0.000000 0.000000 0.037187 0.000000 0.000000
# 5 0.000000 0.000000 0.000000 0.000000 0.079832 0.000000
# 6 0.000000 0.000000 0.000000 0.000000 0.000000 0.052119
#
#
# Mechanical properties :
#
#
# Convention : Reuss Voigt Hill
#
# Bulk Modulus (GPa) = 41.07690 51.93705 46.50698
# Shear Modulus (GPa) = 19.35675 23.08239 21.21957
#
# Velocity S-wave (km/s) = 3.54579 3.87202 3.71249
# Velocity P-wave (km/s) = 6.59119 7.32968 6.97022
#
# Compressibility (1/GPa) = 0.02434458
#
# Stress axis : x y z
#
# Youngs Moduli (GPa) = 36.63504 89.56737 70.22954
#
# Poissons Ratio (x) = -0.01213 0.69835
# Poissons Ratio (y) = -0.00496 0.30686
# Poissons Ratio (z) = 0.36429 0.39136
#
# Static dielectric constant tensor:
#      x y z
#    x 1.500350 0.000000 0.000000 
#    y 0.000000 1.530150 0.000000 
#    z 0.000000 0.000000 1.551800 
# 
# From -- ./inp_files/39527.got.cif
#   From: 2010.05.17/outbox.cif.g08.bks.cpg/sg67_20_cif.got.tgz:39527.got - 2010.06.03 18:28:57.
