data_PCOD9503739
_publ_section_title
;
Structure prediction by ZEFSAII (Michael W. Deem and Ramdas Pophale) SiO2 
 PCOD9503739
Probable space group: C M M A
;
_chemical_formula_sum "Si O2"
_cell_formula_units_Z 116
_cell_length_a 9.262671
_cell_length_b 30.313769
_cell_length_c 23.545496
_cell_angle_alpha 90.000000
_cell_angle_beta 90.000000
_cell_angle_gamma 90.000000
_cell_volume 6611.256683
_symmetry_space_group_name_H-M "C M M A"
_symmetry_group_IT_number 67
_symmetry_cell_setting 'orthorhombic'
loop_
_space_group_symop_operation_xyz
x,y,z
-x,1/2-y,z
x,-y,-z
-x,1/2+y,-z
-x,-y,-z
x,1/2+y,-z
-x,y,z
x,1/2-y,z
1/2+x,1/2+y,z
1/2-x,-y,z
1/2+x,1/2-y,-z
1/2-x,y,-z
1/2-x,1/2-y,-z
1/2+x,y,-z
1/2-x,1/2+y,z
1/2+x,-y,z
loop_
_atom_site_type_symbol
_atom_site_label
_atom_site_fract_x
_atom_site_fract_y
_atom_site_fract_z
Si Si1 0.171410 0.198525 0.716321
Si Si2 0.827264 0.639515 0.942109
Si Si3 0.335623 0.913265 0.554346
Si Si4 0.250000 0.500000 0.500000
Si Si5 0.672890 0.883409 0.333291
Si Si6 0.169469 0.802149 0.149752
Si Si7 0.672609 0.544917 0.105958
Si Si8 0.827436 0.045038 0.238389
O O1 0.202004 0.250000 0.704628
O O2 0.264698 0.164727 0.680210
O O3 0.199150 0.190763 0.783455
O O4 0.000000 0.191345 0.706976
O O5 0.768855 0.668737 0.890328
O O6 0.789372 0.588476 0.928964
O O7 0.000000 0.643056 0.946550
O O8 0.750000 0.653522 0.000000
O O9 0.500000 0.897821 0.558055
O O10 0.250000 0.893862 0.500000
O O11 0.248087 0.902920 0.610902
O O12 0.335091 0.965774 0.539901
O O13 0.500000 0.882784 0.339733
O O14 0.709897 0.914903 0.279807
O O15 0.189588 0.750000 0.138513
O O16 0.000000 0.812420 0.139797
O O17 0.500000 0.538828 0.103042
O O18 0.750000 0.500000 0.087576
O O19 0.711160 0.553243 0.172389
O O20 0.000000 0.038884 0.240847
O O21 0.750000 0.000000 0.256415
#
# Coordination Sequence:
#
# PCOD9503739 Si02
#       8
#    16  16  16   4  16  16  16  16
#     4   9  19  37  60  85 112 143 180 223 274 329
#     4  11  23  37  54  77 105 137 177 222 269 323
#     4  10  21  36  55  78 110 148 190 232 274 319
#     4   8  22  36  58  76 108 152 198 236 276 324
#     4  11  22  34  53  83 116 148 187 229 271 322
#     4   9  19  37  60  84 110 140 175 217 269 329
#     4   9  19  36  54  72  99 135 176 220 267 317
#     4   9  19  33  49  74 106 139 174 216 265 320
#
# _framework density 17.545832999999998
#
# number of rings (size 3 to 8) (size 9 to 14) (size 15 to 20)
#    0.414    1.931    0.000    3.103    0.966    4.966 
#    0.000    5.517    0.000    0.414    0.000    0.000 
#    0.000    0.000    0.000    0.000    0.000    0.000 
#
# Total GULP energy -323461.363664 kJ/mol
# GULP energy per Si atom -5576.920063 kJ/mol
# Density = 1.750590 g / cm^3
# Si number density = 17.545833 Si / 1000 Ang^3
#
#
#
# Elastic Constant Matrix: (Units=GPa)
#
#
# Indices 1 2 3 4 5 6 
#
# 1 61.3452 41.4152 36.0993 0.0000 0.0000 0.0000
# 2 41.4152 69.9347 36.8219 0.0000 0.0000 0.0000
# 3 36.0993 36.8219 47.9758 0.0000 0.0000 0.0000
# 4 0.0000 0.0000 0.0000 2.7457 0.0000 0.0000
# 5 0.0000 0.0000 0.0000 0.0000 20.0765 0.0000
# 6 0.0000 0.0000 0.0000 0.0000 0.0000 28.5543
#
#
#
# Elastic Compliance Matrix: (Units=1/GPa)
#
#
# Indices 1 2 3 4 5 6 
#
# 1 0.033701 -0.011086 -0.016849 0.000000 0.000000 0.000000
# 2 -0.011086 0.027643 -0.012874 0.000000 0.000000 0.000000
# 3 -0.016849 -0.012874 0.043403 0.000000 0.000000 0.000000
# 4 0.000000 0.000000 0.000000 0.364203 0.000000 0.000000
# 5 0.000000 0.000000 0.000000 0.000000 0.049810 0.000000
# 6 0.000000 0.000000 0.000000 0.000000 0.000000 0.035021
#
#
# Mechanical properties :
#
#
# Convention : Reuss Voigt Hill
#
# Bulk Modulus (GPa) = 43.23921 45.32539 44.28230
# Shear Modulus (GPa) = 7.77473 14.60324 11.18899
#
# Velocity S-wave (km/s) = 2.10730 2.88808 2.52801
# Velocity P-wave (km/s) = 5.53336 6.08358 5.81498
#
# Compressibility (1/GPa) = 0.02312716
#
# Stress axis : x y z
#
# Youngs Moduli (GPa) = 29.67282 36.17576 23.03966
#
# Poissons Ratio (x) = 0.40105 0.38821
# Poissons Ratio (y) = 0.32895 0.29662
# Poissons Ratio (z) = 0.49997 0.46574
#
# Static dielectric constant tensor:
#      x y z
#    x 1.585900 0.000000 0.000000 
#    y 0.000000 1.582660 0.000000 
#    z 0.000000 0.000000 1.587940 
# 
# From -- ./inp_files/41217.got.cif
#   From: 2010.05.17/outbox.cif.g08.bks.cpg/sg67_21_cif.got.tgz:41217.got - 2010.06.03 18:28:57.
