data_PCOD9503932
_publ_section_title
;
Structure prediction by ZEFSAII (Michael W. Deem and Ramdas Pophale) SiO2 
 PCOD9503932
Probable space group: C M M A
;
_chemical_formula_sum "Si O2"
_cell_formula_units_Z 72
_cell_length_a 28.399794
_cell_length_b 22.866452
_cell_length_c 5.669263
_cell_angle_alpha 90.000000
_cell_angle_beta 90.000000
_cell_angle_gamma 90.000000
_cell_volume 3681.633715
_symmetry_space_group_name_H-M "C M M A"
_symmetry_group_IT_number 67
_symmetry_cell_setting 'orthorhombic'
loop_
_space_group_symop_operation_xyz
x,y,z
-x,1/2-y,z
x,-y,-z
-x,1/2+y,-z
-x,-y,-z
x,1/2+y,-z
-x,y,z
x,1/2-y,z
1/2+x,1/2+y,z
1/2-x,-y,z
1/2+x,1/2-y,-z
1/2-x,y,-z
1/2-x,1/2-y,-z
1/2+x,y,-z
1/2-x,1/2+y,z
1/2+x,-y,z
loop_
_atom_site_type_symbol
_atom_site_label
_atom_site_fract_x
_atom_site_fract_y
_atom_site_fract_z
Si Si1 0.277709 0.181288 0.749887
Si Si2 0.873165 0.388898 0.259858
Si Si3 0.448045 0.577602 0.884018
Si Si4 0.593511 0.500000 0.500000
Si Si5 0.448142 0.683859 0.521460
O O1 0.292018 0.250000 0.736884
O O2 0.250000 0.169965 0.500000
O O3 0.322135 0.138250 0.768297
O O4 0.250000 0.175009 0.000000
O O5 0.875215 0.443789 0.437214
O O6 0.907030 0.337220 0.352111
O O7 0.901626 0.414862 0.039504
O O8 0.500000 0.573225 0.998691
O O9 0.439495 0.522707 0.711601
O O10 0.449086 0.636501 0.727962
O O11 0.500000 0.681462 0.404906
O O12 0.440775 0.750000 0.605091
#
# Coordination Sequence:
#
# PCOD9503932 Si02
#       5
#    16  16  16   8  16
#     4  10  24  45  71  99 127 163 213 273 337 400
#     4  11  22  38  63  87 122 162 211 265 317 383
#     4  10  21  37  59  89 127 170 212 256 313 381
#     4  10  23  38  59  86 124 168 216 259 313 378
#     4   9  19  34  54  87 127 162 200 249 311 380
#
# _framework density 19.556536000000001
#
# number of rings (size 3 to 8) (size 9 to 14) (size 15 to 20)
#    0.000    2.000    0.000    2.333    6.222    5.333 
#    0.000    2.778    0.000    0.000    0.000    0.000 
#    0.000    0.000    0.000    0.000    0.000    0.000 
#
# Total GULP energy -200647.664944 kJ/mol
# GULP energy per Si atom -5573.546248 kJ/mol
# Density = 1.951202 g / cm^3
# Si number density = 19.556536 Si / 1000 Ang^3
#
#
#
# Elastic Constant Matrix: (Units=GPa)
#
#
# Indices 1 2 3 4 5 6 
#
# 1 126.8335 65.8271 54.3797 0.0000 0.0000 0.0000
# 2 65.8271 127.3821 26.9621 0.0000 0.0000 0.0000
# 3 54.3797 26.9621 79.9788 0.0000 0.0000 0.0000
# 4 0.0000 0.0000 0.0000 20.0836 0.0000 0.0000
# 5 0.0000 0.0000 0.0000 0.0000 28.0368 0.0000
# 6 0.0000 0.0000 0.0000 0.0000 0.0000 33.1402
#
#
#
# Elastic Compliance Matrix: (Units=1/GPa)
#
#
# Indices 1 2 3 4 5 6 
#
# 1 0.014126 -0.005672 -0.007693 0.000000 0.000000 0.000000
# 2 -0.005672 0.010731 0.000239 0.000000 0.000000 0.000000
# 3 -0.007693 0.000239 0.017653 0.000000 0.000000 0.000000
# 4 0.000000 0.000000 0.000000 0.049792 0.000000 0.000000
# 5 0.000000 0.000000 0.000000 0.000000 0.035667 0.000000
# 6 0.000000 0.000000 0.000000 0.000000 0.000000 0.030175
#
#
# Mechanical properties :
#
#
# Convention : Reuss Voigt Hill
#
# Bulk Modulus (GPa) = 61.50424 69.83689 65.67057
# Shear Modulus (GPa) = 26.34135 28.72049 27.53092
#
# Velocity S-wave (km/s) = 3.67404 3.83637 3.75608
# Velocity P-wave (km/s) = 7.03675 7.44389 7.24318
#
# Compressibility (1/GPa) = 0.01625904
#
# Stress axis : x y z
#
# Youngs Moduli (GPa) = 70.79007 93.18954 56.64652
#
# Poissons Ratio (x) = 0.52855 0.43577
# Poissons Ratio (y) = 0.40150 -0.01353
# Poissons Ratio (z) = 0.54457 -0.02226
#
# Static dielectric constant tensor:
#      x y z
#    x 1.669340 0.000000 0.000000 
#    y 0.000000 1.673970 0.000000 
#    z 0.000000 0.000000 1.771960 
# 
# From -- ./inp_files/3460.got.cif
#   From: 2010.05.17/outbox.cif.g08.bks.cpg/sg67_2_cif.got.tgz:3460.got - 2010.06.03 18:28:57.
