data_PCOD9503952
_publ_section_title
;
Structure prediction by ZEFSAII (Michael W. Deem and Ramdas Pophale) SiO2 
 PCOD9503952
Probable space group: C M M A
;
_chemical_formula_sum "Si O2"
_cell_formula_units_Z 116
_cell_length_a 15.167286
_cell_length_b 27.321669
_cell_length_c 12.879006
_cell_angle_alpha 90.000000
_cell_angle_beta 90.000000
_cell_angle_gamma 90.000000
_cell_volume 5337.003003
_symmetry_space_group_name_H-M "C M M A"
_symmetry_group_IT_number 67
_symmetry_cell_setting 'orthorhombic'
loop_
_space_group_symop_operation_xyz
x,y,z
-x,1/2-y,z
x,-y,-z
-x,1/2+y,-z
-x,-y,-z
x,1/2+y,-z
-x,y,z
x,1/2-y,z
1/2+x,1/2+y,z
1/2-x,-y,z
1/2+x,1/2-y,-z
1/2-x,y,-z
1/2-x,1/2-y,-z
1/2+x,y,-z
1/2-x,1/2+y,z
1/2+x,-y,z
loop_
_atom_site_type_symbol
_atom_site_label
_atom_site_fract_x
_atom_site_fract_y
_atom_site_fract_z
Si Si1 0.160862 0.306262 0.776693
Si Si2 0.601822 0.485573 0.335779
Si Si3 0.000000 0.750000 0.755646
Si Si4 0.147978 0.635496 0.029556
Si Si5 0.650995 0.976633 0.897466
Si Si6 0.106905 0.620511 0.401961
Si Si7 0.861847 0.835079 0.803982
Si Si8 0.107191 0.407833 0.374842
O O1 0.137355 0.250000 0.761769
O O2 0.115432 0.329138 0.879135
O O3 0.140882 0.338219 0.675132
O O4 0.264101 0.312587 0.802416
O O5 0.500000 0.483682 0.370409
O O6 0.606406 0.488529 0.211237
O O7 0.640231 0.433025 0.365675
O O8 0.639181 0.535990 0.381003
O O9 0.075308 0.706715 0.760651
O O10 0.147676 0.581087 0.077943
O O11 0.250000 0.644049 0.000000
O O12 0.106181 0.646631 0.917628
O O13 0.750000 0.000000 0.890149
O O14 0.609370 0.000000 0.000000
O O15 0.131250 0.623036 0.523085
O O16 0.000000 0.621415 0.394920
O O17 0.860133 0.881751 0.728365
O O18 0.000000 0.409425 0.369884
#
# Coordination Sequence:
#
# PCOD9503952 Si02
#       8
#    16  16   4  16  16  16  16  16
#     4  11  24  43  66  92 128 171 216 276 327 387
#     4  10  21  37  61  91 128 168 213 264 322 390
#     4  12  24  48  66  98 128 168 224 276 326 386
#     4  10  21  39  63  91 128 167 207 260 319 386
#     4  11  20  34  58  92 127 171 204 248 323 386
#     4  10  22  43  64  92 129 174 220 265 329 392
#     4  11  24  43  66  95 126 166 219 269 330 386
#     4  10  21  40  64  93 128 169 214 270 330 389
#
# _framework density 21.735045
#
# number of rings (size 3 to 8) (size 9 to 14) (size 15 to 20)
#    0.000    1.517    4.138    1.241    2.897    3.586 
#    3.724    0.690    0.000    2.483    0.000    0.000 
#    0.000    0.000    0.000    0.000    0.000    0.000 
#
# Total GULP energy -323399.651647 kJ/mol
# GULP energy per Si atom -5575.856063 kJ/mol
# Density = 2.168558 g / cm^3
# Si number density = 21.735045 Si / 1000 Ang^3
#
#
#
# Elastic Constant Matrix: (Units=GPa)
#
#
# Indices 1 2 3 4 5 6 
#
# 1 37.8365 3.5332 -8.1339 0.0000 0.0000 0.0000
# 2 3.5332 170.7773 53.8094 0.0000 0.0000 0.0000
# 3 -8.1339 53.8094 123.0812 0.0000 0.0000 0.0000
# 4 0.0000 0.0000 0.0000 11.6075 0.0000 0.0000
# 5 0.0000 0.0000 0.0000 0.0000 9.3997 0.0000
# 6 0.0000 0.0000 0.0000 0.0000 0.0000 22.2451
#
#
#
# Elastic Compliance Matrix: (Units=1/GPa)
#
#
# Indices 1 2 3 4 5 6 
#
# 1 0.027058 -0.001303 0.002358 0.000000 0.000000 0.000000
# 2 -0.001303 0.006854 -0.003082 0.000000 0.000000 0.000000
# 3 0.002358 -0.003082 0.009628 0.000000 0.000000 0.000000
# 4 0.000000 0.000000 0.000000 0.086151 0.000000 0.000000
# 5 0.000000 0.000000 0.000000 0.000000 0.106386 0.000000
# 6 0.000000 0.000000 0.000000 0.000000 0.000000 0.044954
#
#
# Mechanical properties :
#
#
# Convention : Reuss Voigt Hill
#
# Bulk Modulus (GPa) = 25.32612 47.79027 36.55819
# Shear Modulus (GPa) = 16.76459 27.48288 22.12373
#
# Velocity S-wave (km/s) = 2.78027 3.55977 3.19389
# Velocity P-wave (km/s) = 4.68871 6.23950 5.51885
#
# Compressibility (1/GPa) = 0.03948492
#
# Stress axis : x y z
#
# Youngs Moduli (GPa) = 36.95769 145.90513 103.86234
#
# Poissons Ratio (x) = 0.19007 -0.24487
# Poissons Ratio (y) = 0.04814 0.32015
# Poissons Ratio (z) = -0.08713 0.44975
#
# Static dielectric constant tensor:
#      x y z
#    x 1.832030 0.000000 0.000000 
#    y 0.000000 1.789720 0.000000 
#    z 0.000000 0.000000 1.807620 
# 
# From -- ./inp_files/20005.got.cif
#   From: 2010.05.17/outbox.cif.g08.bks.cpg/sg67_11_cif.got.tgz:20005.got - 2010.06.03 18:28:57.
