data_PCOD9503296
_publ_section_title
;
Structure prediction by ZEFSAII (Michael W. Deem and Ramdas Pophale) SiO2 
 PCOD9503296
Probable space group: C M M A
;
_chemical_formula_sum "Si O2"
_cell_formula_units_Z 104
_cell_length_a 22.466198
_cell_length_b 27.297460
_cell_length_c 8.215649
_cell_angle_alpha 90.000000
_cell_angle_beta 90.000000
_cell_angle_gamma 90.000000
_cell_volume 5038.412223
_symmetry_space_group_name_H-M "C M M A"
_symmetry_group_IT_number 67
_symmetry_cell_setting 'orthorhombic'
loop_
_space_group_symop_operation_xyz
x,y,z
-x,1/2-y,z
x,-y,-z
-x,1/2+y,-z
-x,-y,-z
x,1/2+y,-z
-x,y,z
x,1/2-y,z
1/2+x,1/2+y,z
1/2-x,-y,z
1/2+x,1/2-y,-z
1/2-x,y,-z
1/2-x,1/2-y,-z
1/2+x,y,-z
1/2-x,1/2+y,z
1/2+x,-y,z
loop_
_atom_site_type_symbol
_atom_site_label
_atom_site_fract_x
_atom_site_fract_y
_atom_site_fract_z
Si Si1 0.368662 0.079913 0.861977
Si Si2 0.000000 0.510471 0.197901
Si Si3 0.206101 0.140789 0.363541
Si Si4 0.124488 0.195242 0.595940
Si Si5 0.000000 0.305831 0.409670
Si Si6 0.626635 0.479620 0.315856
Si Si7 0.317549 0.615808 0.806738
Si Si8 0.000000 0.097484 0.190002
O O1 0.347733 0.108369 0.700814
O O2 0.437023 0.093225 0.900306
O O3 0.360630 0.023525 0.812308
O O4 0.330618 0.098620 0.011886
O O5 0.059853 0.535891 0.260749
O O6 0.000000 0.455715 0.281172
O O7 0.000000 0.500000 0.000000
O O8 0.250000 0.118943 0.500000
O O9 0.174272 0.185639 0.454793
O O10 0.254257 0.142808 0.219274
O O11 0.131675 0.250000 0.660637
O O12 0.059621 0.190564 0.516883
O O13 0.136029 0.154536 0.731930
O O14 0.000000 0.352063 0.288706
O O15 0.000000 0.250000 0.337092
O O16 0.627180 0.500000 0.500000
O O17 0.671624 0.434994 0.291275
#
# Coordination Sequence:
#
# PCOD9503296 Si02
#       8
#    16   8  16  16   8  16  16   8
#     4  11  22  41  61  92 132 166 210 262 329 386
#     4  10  21  36  57  89 130 172 214 258 327 389
#     4  10  21  39  63  89 120 166 215 260 309 379
#     4  10  22  42  67  95 127 165 219 278 327 388
#     4  10  20  38  68  98 123 165 216 270 331 376
#     4  11  22  37  59  89 124 170 219 264 313 386
#     4  11  24  38  61  91 129 171 211 263 324 388
#     4  10  20  36  67  88 126 167 208 263 320 383
#
# _framework density 20.641423
#
# number of rings (size 3 to 8) (size 9 to 14) (size 15 to 20)
#    0.000    1.538    1.538    4.846    2.154    4.615 
#    0.000    6.154    0.000    4.615    0.000    0.000 
#    0.000    0.000    0.000    0.000    0.000    0.000 
#
# Total GULP energy -289708.009767 kJ/mol
# GULP energy per Si atom -5571.307880 kJ/mol
# Density = 2.059444 g / cm^3
# Si number density = 20.641423 Si / 1000 Ang^3
#
#
#
# Elastic Constant Matrix: (Units=GPa)
#
#
# Indices 1 2 3 4 5 6 
#
# 1 83.3639 12.9280 27.3653 0.0000 0.0000 0.0000
# 2 12.9280 114.0238 37.4413 0.0000 0.0000 0.0000
# 3 27.3653 37.4413 93.2959 0.0000 0.0000 0.0000
# 4 0.0000 0.0000 0.0000 28.0979 0.0000 0.0000
# 5 0.0000 0.0000 0.0000 0.0000 22.5774 0.0000
# 6 0.0000 0.0000 0.0000 0.0000 0.0000 3.9102
#
#
#
# Elastic Compliance Matrix: (Units=1/GPa)
#
#
# Indices 1 2 3 4 5 6 
#
# 1 0.013280 -0.000261 -0.003791 0.000000 0.000000 0.000000
# 2 -0.000261 0.010106 -0.003979 0.000000 0.000000 0.000000
# 3 -0.003791 -0.003979 0.013427 0.000000 0.000000 0.000000
# 4 0.000000 0.000000 0.000000 0.035590 0.000000 0.000000
# 5 0.000000 0.000000 0.000000 0.000000 0.044292 0.000000
# 6 0.000000 0.000000 0.000000 0.000000 0.000000 0.255740
#
#
# Mechanical properties :
#
#
# Convention : Reuss Voigt Hill
#
# Bulk Modulus (GPa) = 48.18749 49.57253 48.88001
# Shear Modulus (GPa) = 12.64492 25.11371 18.87932
#
# Velocity S-wave (km/s) = 2.47776 3.49186 3.02757
# Velocity P-wave (km/s) = 5.61974 6.35024 5.99613
#
# Compressibility (1/GPa) = 0.02075228
#
# Stress axis : x y z
#
# Youngs Moduli (GPa) = 75.29896 98.94767 74.47463
#
# Poissons Ratio (x) = 0.02583 0.28230
# Poissons Ratio (y) = 0.01966 0.29636
# Poissons Ratio (z) = 0.28543 0.39374
#
# Static dielectric constant tensor:
#      x y z
#    x 1.832290 0.000000 0.000000 
#    y 0.000000 1.719380 0.000000 
#    z 0.000000 0.000000 1.830930 
# 
# From -- ./inp_files/11595.got.cif
#   From: 2010.05.17/outbox.cif.g08.bks.cpg/sg67_6_cif.got.tgz:11595.got - 2010.06.03 18:28:57.
