data_PCOD9503864
_publ_section_title
;
Structure prediction by ZEFSAII (Michael W. Deem and Ramdas Pophale) SiO2 
 PCOD9503864
Probable space group: C M M A
;
_chemical_formula_sum "Si O2"
_cell_formula_units_Z 104
_cell_length_a 8.615620
_cell_length_b 26.643502
_cell_length_c 22.789719
_cell_angle_alpha 90.000000
_cell_angle_beta 90.000000
_cell_angle_gamma 90.000000
_cell_volume 5231.386576
_symmetry_space_group_name_H-M "C M M A"
_symmetry_group_IT_number 67
_symmetry_cell_setting 'orthorhombic'
loop_
_space_group_symop_operation_xyz
x,y,z
-x,1/2-y,z
x,-y,-z
-x,1/2+y,-z
-x,-y,-z
x,1/2+y,-z
-x,y,z
x,1/2-y,z
1/2+x,1/2+y,z
1/2-x,-y,z
1/2+x,1/2-y,-z
1/2-x,y,-z
1/2-x,1/2-y,-z
1/2+x,y,-z
1/2-x,1/2+y,z
1/2+x,-y,z
loop_
_atom_site_type_symbol
_atom_site_label
_atom_site_fract_x
_atom_site_fract_y
_atom_site_fract_z
Si Si1 0.814377 0.194048 0.117204
Si Si2 0.313917 0.657361 0.761219
Si Si3 0.313140 0.944552 0.566333
Si Si4 0.185677 0.593859 0.062687
Si Si5 0.314587 0.346844 0.632280
Si Si6 0.684428 0.550830 0.816110
Si Si7 0.185927 0.250000 0.565218
O O1 0.777235 0.250000 0.095892
O O2 0.753070 0.188246 0.183916
O O3 0.737815 0.150387 0.078740
O O4 0.000000 0.187412 0.116920
O O5 0.500000 0.664591 0.758062
O O6 0.236489 0.665254 0.698763
O O7 0.280093 0.599734 0.778670
O O8 0.500000 0.945658 0.565309
O O9 0.250000 0.935251 0.500000
O O10 0.255883 0.899343 0.608122
O O11 0.250000 0.000000 0.583685
O O12 0.243858 0.560913 0.117701
O O13 0.000000 0.592192 0.061603
O O14 0.250000 0.578305 0.000000
O O15 0.500000 0.349496 0.627796
O O16 0.249352 0.300401 0.595188
O O17 0.500000 0.546804 0.819535
O O18 0.750000 0.500000 0.790934
O O19 0.500000 0.250000 0.433030
O O20 0.250000 0.250000 0.500000
#
# Coordination Sequence:
#
# PCOD9503864 Si02
#       7
#    16  16  16  16  16  16   8
#     4  10  21  37  58  83 112 148 190 238 294 352
#     4  10  22  40  59  85 118 154 196 242 294 352
#     4  11  22  40  64  92 124 161 204 252 308 366
#     4  10  21  37  56  82 114 149 193 241 292 353
#     4  12  25  42  64  93 126 164 209 257 308 369
#     4   9  20  37  58  83 114 152 194 239 293 353
#     4  12  26  46  68  94 128 168 209 258 313 372
#
# _framework density 19.880008
#
# number of rings (size 3 to 8) (size 9 to 14) (size 15 to 20)
#    0.000    1.538    0.000    6.692    1.077    6.154 
#    0.000    3.077    0.000    0.000    0.000    0.000 
#    0.000    0.000    0.000    0.000    0.000    0.000 
#
# Total GULP energy -290639.283192 kJ/mol
# GULP energy per Si atom -5589.216984 kJ/mol
# Density = 1.983476 g / cm^3
# Si number density = 19.880008 Si / 1000 Ang^3
#
#
#
# Elastic Constant Matrix: (Units=GPa)
#
#
# Indices 1 2 3 4 5 6 
#
# 1 95.6799 14.3678 16.7994 0.0000 0.0000 0.0000
# 2 14.3678 57.9366 -13.1506 0.0000 0.0000 0.0000
# 3 16.7994 -13.1506 65.1063 0.0000 0.0000 0.0000
# 4 0.0000 0.0000 0.0000 -12.0894 0.0000 0.0000
# 5 0.0000 0.0000 0.0000 0.0000 32.9750 0.0000
# 6 0.0000 0.0000 0.0000 0.0000 0.0000 33.2606
#
#
#
# Elastic Compliance Matrix: (Units=1/GPa)
#
#
# Indices 1 2 3 4 5 6 
#
# 1 0.011677 -0.003752 -0.003771 0.000000 0.000000 0.000000
# 2 -0.003752 0.019295 0.004865 0.000000 0.000000 0.000000
# 3 -0.003771 0.004865 0.017315 0.000000 0.000000 0.000000
# 4 0.000000 0.000000 0.000000 -0.082717 0.000000 0.000000
# 5 0.000000 0.000000 0.000000 0.000000 0.030326 0.000000
# 6 0.000000 0.000000 0.000000 0.000000 0.000000 0.030066
#
#
# Mechanical properties :
#
#
# Convention : Reuss Voigt Hill
#
# Bulk Modulus (GPa) = 23.27045 28.30622 25.78834
# Shear Modulus (GPa) = 109.64755 24.20962 66.92859
#
# Velocity S-wave (km/s) = 7.43468 3.49347 5.80856
# Velocity P-wave (km/s) = 9.24284 5.52647 7.61485
#
# Compressibility (1/GPa) = 0.04297295
#
# Stress axis : x y z
#
# Youngs Moduli (GPa) = 85.63865 51.82689 57.75262
#
# Poissons Ratio (x) = 0.19444 0.21777
# Poissons Ratio (y) = 0.32129 -0.28099
# Poissons Ratio (z) = 0.32293 -0.25216
#
# Static dielectric constant tensor:
#      x y z
#    x 1.668910 0.000000 0.000000 
#    y 0.000000 1.650020 0.000000 
#    z 0.000000 0.000000 1.678900 
# 
# From -- ./inp_files/37328.got.cif
#   From: 2010.05.17/outbox.cif.g08.bks.cpg/sg67_19_cif.got.tgz:37328.got - 2010.06.03 18:28:57.
