data_PCOD9503669
_publ_section_title
;
Structure prediction by ZEFSAII (Michael W. Deem and Ramdas Pophale) SiO2 
 PCOD9503669
Probable space group: C M M A
;
_chemical_formula_sum "Si O2"
_cell_formula_units_Z 56
_cell_length_a 32.817816
_cell_length_b 13.781280
_cell_length_c 5.220203
_cell_angle_alpha 90.000000
_cell_angle_beta 90.000000
_cell_angle_gamma 90.000000
_cell_volume 2360.949100
_symmetry_space_group_name_H-M "C M M A"
_symmetry_group_IT_number 67
_symmetry_cell_setting 'orthorhombic'
loop_
_space_group_symop_operation_xyz
x,y,z
-x,1/2-y,z
x,-y,-z
-x,1/2+y,-z
-x,-y,-z
x,1/2+y,-z
-x,y,z
x,1/2-y,z
1/2+x,1/2+y,z
1/2-x,-y,z
1/2+x,1/2-y,-z
1/2-x,y,-z
1/2-x,1/2-y,-z
1/2+x,y,-z
1/2-x,1/2+y,z
1/2+x,-y,z
loop_
_atom_site_type_symbol
_atom_site_label
_atom_site_fract_x
_atom_site_fract_y
_atom_site_fract_z
Si Si1 0.158284 0.500000 0.000000
Si Si2 0.545431 0.633103 0.209560
Si Si3 0.769526 0.606378 0.753901
Si Si4 0.595974 0.366876 0.293768
O O1 0.184229 0.422983 0.175433
O O2 0.133041 0.432077 0.806409
O O3 0.500000 0.593551 0.251738
O O4 0.542800 0.750000 0.231546
O O5 0.561646 0.614398 0.924248
O O6 0.577781 0.606340 0.429118
O O7 0.750000 0.500000 0.748513
O O8 0.750000 0.650528 0.500000
O O9 0.750000 0.654277 0.000000
O O10 0.605149 0.250000 0.291868
#
# Coordination Sequence:
#
# PCOD9503669 Si02
#       4
#     8  16  16  16
#     4  10  21  36  59  82 112 140 174 230 277 314
#     4   9  18  35  55  75 108 150 186 222 266 321
#     4   8  16  30  50  73  96 132 171 198 246 318
#     4  10  21  35  55  83 109 141 183 225 274 319
#
# _framework density 23.719273999999999
#
# number of rings (size 3 to 8) (size 9 to 14) (size 15 to 20)
#    0.000    3.143    0.000    0.857    0.000   13.714 
#    0.000    4.286    0.000   15.429    0.000    0.000 
#    0.000    0.000    0.000    0.000    0.000    0.000 
#
# Total GULP energy -156068.689616 kJ/mol
# GULP energy per Si atom -5573.881772 kJ/mol
# Density = 2.366529 g / cm^3
# Si number density = 23.719274 Si / 1000 Ang^3
#
#
#
# Elastic Constant Matrix: (Units=GPa)
#
#
# Indices 1 2 3 4 5 6 
#
# 1 108.0357 8.8277 27.4115 0.0000 0.0000 0.0000
# 2 8.8277 100.4213 -1.2552 0.0000 0.0000 0.0000
# 3 27.4115 -1.2552 165.4762 0.0000 0.0000 0.0000
# 4 0.0000 0.0000 0.0000 -23.2375 0.0000 0.0000
# 5 0.0000 0.0000 0.0000 0.0000 27.3587 0.0000
# 6 0.0000 0.0000 0.0000 0.0000 0.0000 44.2295
#
#
#
# Elastic Compliance Matrix: (Units=1/GPa)
#
#
# Indices 1 2 3 4 5 6 
#
# 1 0.009739 -0.000876 -0.001620 0.000000 0.000000 0.000000
# 2 -0.000876 0.010038 0.000221 0.000000 0.000000 0.000000
# 3 -0.001620 0.000221 0.006313 0.000000 0.000000 0.000000
# 4 0.000000 0.000000 0.000000 -0.043034 0.000000 0.000000
# 5 0.000000 0.000000 0.000000 0.000000 0.036551 0.000000
# 6 0.000000 0.000000 0.000000 0.000000 0.000000 0.022609
#
#
# Mechanical properties :
#
#
# Convention : Reuss Voigt Hill
#
# Bulk Modulus (GPa) = 46.42534 49.32235 47.87385
# Shear Modulus (GPa) = 92.68441 32.26678 62.47559
#
# Velocity S-wave (km/s) = 6.25783 3.69231 5.13778
# Velocity P-wave (km/s) = 8.47521 6.24635 7.44466
#
# Compressibility (1/GPa) = 0.02153996
#
# Stress axis : x y z
#
# Youngs Moduli (GPa) = 102.68187 99.62295 158.39870
#
# Poissons Ratio (x) = 0.08730 0.25659
# Poissons Ratio (y) = 0.08999 -0.03506
# Poissons Ratio (z) = 0.16633 -0.02205
#
# Static dielectric constant tensor:
#      x y z
#    x 1.961300 0.000000 0.000000 
#    y 0.000000 1.856520 0.000000 
#    z 0.000000 0.000000 1.638290 
# 
# From -- ./inp_files/4457.got.cif
#   From: 2010.05.17/outbox.cif.g08.bks.cpg/sg67_3_cif.got.tgz:4457.got - 2010.06.03 18:28:57.
