data_PCOD9503579
_publ_section_title
;
Structure prediction by ZEFSAII (Michael W. Deem and Ramdas Pophale) SiO2 
 PCOD9503579
Probable space group: C M M A
;
_chemical_formula_sum "Si O2"
_cell_formula_units_Z 72
_cell_length_a 9.890713
_cell_length_b 14.883548
_cell_length_c 26.063233
_cell_angle_alpha 90.000000
_cell_angle_beta 90.000000
_cell_angle_gamma 90.000000
_cell_volume 3836.739904
_symmetry_space_group_name_H-M "C M M A"
_symmetry_group_IT_number 67
_symmetry_cell_setting 'orthorhombic'
loop_
_space_group_symop_operation_xyz
x,y,z
-x,1/2-y,z
x,-y,-z
-x,1/2+y,-z
-x,-y,-z
x,1/2+y,-z
-x,y,z
x,1/2-y,z
1/2+x,1/2+y,z
1/2-x,-y,z
1/2+x,1/2-y,-z
1/2-x,y,-z
1/2-x,1/2-y,-z
1/2+x,y,-z
1/2-x,1/2+y,z
1/2+x,-y,z
loop_
_atom_site_type_symbol
_atom_site_label
_atom_site_fract_x
_atom_site_fract_y
_atom_site_fract_z
Si Si1 0.500000 0.750000 0.306035
Si Si2 0.000000 0.106410 0.800530
Si Si3 0.500000 0.394432 0.784791
Si Si4 0.500000 0.750000 0.714044
Si Si5 0.273560 0.750000 0.630079
Si Si6 0.838942 0.250000 0.051123
Si Si7 0.262992 0.106202 0.864797
Si Si8 0.333469 0.091463 0.448927
O O1 0.500000 0.663666 0.267206
O O2 0.626798 0.750000 0.344359
O O3 0.875050 0.128681 0.836739
O O4 0.000000 0.164908 0.750326
O O5 0.000000 0.002901 0.781390
O O6 0.627102 0.374152 0.820896
O O7 0.371919 0.750000 0.678031
O O8 0.306978 0.836048 0.595007
O O9 0.800182 0.335990 0.085875
O O10 0.000000 0.250000 0.040977
O O11 0.750000 0.250000 0.000000
O O12 0.250000 0.000000 0.876911
O O13 0.500000 0.080693 0.456042
O O14 0.250000 0.122130 0.500000
O O15 0.250000 0.000000 0.435919
#
# Coordination Sequence:
#
# PCOD9503579 Si02
#       8
#     4   8   8   4   8   8  16  16
#     4  12  26  36  65  96 131 176 216 258 320 378
#     4  10  22  36  70  89 125 163 219 258 307 368
#     4  10  20  42  62  95 121 169 217 262 307 362
#     4  12  22  42  55  94 131 174 194 264 316 376
#     4  12  27  41  63  95 140 171 210 258 327 383
#     4  12  26  42  63  93 131 165 203 260 323 383
#     4  10  21  41  67  94 122 165 213 263 309 371
#     4  11  24  45  72  97 125 167 217 268 318 382
#
# _framework density 18.765931999999999
#
# number of rings (size 3 to 8) (size 9 to 14) (size 15 to 20)
#    0.000    1.111    2.222    4.333    4.667    2.222 
#    0.000    1.111    0.000    0.000    0.000    0.000 
#    0.000    0.000    0.000    0.000    0.000    0.000 
#
# Total GULP energy -200864.766834 kJ/mol
# GULP energy per Si atom -5579.576857 kJ/mol
# Density = 1.872322 g / cm^3
# Si number density = 18.765932 Si / 1000 Ang^3
#
#
#
# Elastic Constant Matrix: (Units=GPa)
#
#
# Indices 1 2 3 4 5 6 
#
# 1 232.8520 63.2121 96.3301 0.0000 0.0000 0.0000
# 2 63.2121 83.2640 81.3696 0.0000 0.0000 0.0000
# 3 96.3301 81.3696 149.9565 0.0000 0.0000 0.0000
# 4 0.0000 0.0000 0.0000 88.8808 0.0000 0.0000
# 5 0.0000 0.0000 0.0000 0.0000 74.6627 0.0000
# 6 0.0000 0.0000 0.0000 0.0000 0.0000 14.7688
#
#
#
# Elastic Compliance Matrix: (Units=1/GPa)
#
#
# Indices 1 2 3 4 5 6 
#
# 1 0.005956 -0.001666 -0.002922 0.000000 0.000000 0.000000
# 2 -0.001666 0.026034 -0.013056 0.000000 0.000000 0.000000
# 3 -0.002922 -0.013056 0.015630 0.000000 0.000000 0.000000
# 4 0.000000 0.000000 0.000000 0.011251 0.000000 0.000000
# 5 0.000000 0.000000 0.000000 0.000000 0.013394 0.000000
# 6 0.000000 0.000000 0.000000 0.000000 0.000000 0.067710
#
#
# Mechanical properties :
#
#
# Convention : Reuss Voigt Hill
#
# Bulk Modulus (GPa) = 81.09333 105.32177 93.20755
# Shear Modulus (GPa) = 27.87473 50.67318 39.27396
#
# Velocity S-wave (km/s) = 3.85826 5.20205 4.57971
# Velocity P-wave (km/s) = 7.94702 9.60872 8.81710
#
# Compressibility (1/GPa) = 0.01233147
#
# Stress axis : x y z
#
# Youngs Moduli (GPa) = 167.90998 38.41091 63.97869
#
# Poissons Ratio (x) = 0.06400 0.18693
# Poissons Ratio (y) = 0.27975 0.83534
# Poissons Ratio (z) = 0.49059 0.50151
#
# Static dielectric constant tensor:
#      x y z
#    x 1.600200 0.000000 0.000000 
#    y 0.000000 1.697880 0.000000 
#    z 0.000000 0.000000 1.596020 
# 
# From -- ./inp_files/43182.got.cif
#   From: 2010.05.17/outbox.cif.g08.bks.cpg/sg67_22_cif.got.tgz:43182.got - 2010.06.03 18:28:57.
