data_PCOD9503676
_publ_section_title
;
Structure prediction by ZEFSAII (Michael W. Deem and Ramdas Pophale) SiO2 
 PCOD9503676
Probable space group: C M M A
;
_chemical_formula_sum "Si O2"
_cell_formula_units_Z 88
_cell_length_a 17.932815
_cell_length_b 8.825259
_cell_length_c 29.022561
_cell_angle_alpha 90.000000
_cell_angle_beta 90.000000
_cell_angle_gamma 90.000000
_cell_volume 4593.160915
_symmetry_space_group_name_H-M "C M M A"
_symmetry_group_IT_number 67
_symmetry_cell_setting 'orthorhombic'
loop_
_space_group_symop_operation_xyz
x,y,z
-x,1/2-y,z
x,-y,-z
-x,1/2+y,-z
-x,-y,-z
x,1/2+y,-z
-x,y,z
x,1/2-y,z
1/2+x,1/2+y,z
1/2-x,-y,z
1/2+x,1/2-y,-z
1/2-x,y,-z
1/2-x,1/2-y,-z
1/2+x,y,-z
1/2-x,1/2+y,z
1/2+x,-y,z
loop_
_atom_site_type_symbol
_atom_site_label
_atom_site_fract_x
_atom_site_fract_y
_atom_site_fract_z
Si Si1 0.169894 0.571115 0.359991
Si Si2 0.587282 0.432862 0.451552
Si Si3 0.418277 0.532716 0.945558
Si Si4 0.630658 0.250000 0.890753
Si Si5 0.218545 0.750000 0.052586
Si Si6 0.909210 0.750000 0.785527
Si Si7 0.589552 0.573600 0.736725
O O1 0.180207 0.750000 0.366347
O O2 0.250000 0.500000 0.351298
O O3 0.132412 0.512265 0.406992
O O4 0.117516 0.552591 0.315568
O O5 0.614295 0.500000 0.500000
O O6 0.500000 0.474355 0.446208
O O7 0.591016 0.250000 0.453540
O O8 0.500000 0.600193 0.935670
O O9 0.411413 0.391055 0.912697
O O10 0.339387 0.614783 0.939638
O O11 0.419517 0.500000 0.000000
O O12 0.713536 0.250000 0.912264
O O13 0.625812 0.250000 0.836255
O O14 0.250000 0.750000 0.000000
O O15 0.887937 0.585340 0.762480
O O16 0.000000 0.750000 0.788149
O O17 0.500000 0.576865 0.738693
O O18 0.613620 0.750000 0.750957
#
# Coordination Sequence:
#
# PCOD9503676 Si02
#       7
#    16  16  16   8   8   8  16
#     4  10  21  35  56  85 117 158 202 255 312 374
#     4   9  18  34  54  79 114 154 200 253 307 368
#     4  11  22  39  64  93 124 165 211 253 301 365
#     4  12  24  40  67  94 130 168 200 265 322 371
#     4  12  23  40  63  92 129 164 209 255 301 371
#     4  10  22  42  67  98 131 163 210 266 320 378
#     4   9  19  40  69  93 119 161 211 266 318 373
#
# _framework density 19.158919000000001
#
# number of rings (size 3 to 8) (size 9 to 14) (size 15 to 20)
#    0.000    1.818    1.818    2.182    1.273    4.727 
#    1.636    3.636    0.000    0.000    0.000    0.000 
#    0.000    0.000    0.000    0.000    0.000    0.000 
#
# Total GULP energy -244984.503718 kJ/mol
# GULP energy per Si atom -5567.829630 kJ/mol
# Density = 1.911531 g / cm^3
# Si number density = 19.158919 Si / 1000 Ang^3
#
#
#
# Elastic Constant Matrix: (Units=GPa)
#
#
# Indices 1 2 3 4 5 6 
#
# 1 74.0740 38.2116 27.4378 0.0000 0.0000 0.0000
# 2 38.2116 111.9072 70.0813 0.0000 0.0000 0.0000
# 3 27.4378 70.0813 117.7386 0.0000 0.0000 0.0000
# 4 0.0000 0.0000 0.0000 29.5561 0.0000 0.0000
# 5 0.0000 0.0000 0.0000 0.0000 27.6364 0.0000
# 6 0.0000 0.0000 0.0000 0.0000 0.0000 28.9125
#
#
#
# Elastic Compliance Matrix: (Units=1/GPa)
#
#
# Indices 1 2 3 4 5 6 
#
# 1 0.016431 -0.005122 -0.000781 0.000000 0.000000 0.000000
# 2 -0.005122 0.015843 -0.008237 0.000000 0.000000 0.000000
# 3 -0.000781 -0.008237 0.013578 0.000000 0.000000 0.000000
# 4 0.000000 0.000000 0.000000 0.033834 0.000000 0.000000
# 5 0.000000 0.000000 0.000000 0.000000 0.036184 0.000000
# 6 0.000000 0.000000 0.000000 0.000000 0.000000 0.034587
#
#
# Mechanical properties :
#
#
# Convention : Reuss Voigt Hill
#
# Bulk Modulus (GPa) = 56.90108 63.90903 60.40505
# Shear Modulus (GPa) = 27.08657 28.42026 27.75341
#
# Velocity S-wave (km/s) = 3.76411 3.85567 3.81016
# Velocity P-wave (km/s) = 6.97534 7.29735 7.13816
#
# Compressibility (1/GPa) = 0.01757436
#
# Stress axis : x y z
#
# Youngs Moduli (GPa) = 60.85971 63.11945 73.64894
#
# Poissons Ratio (x) = 0.32328 0.05748
# Poissons Ratio (y) = 0.31171 0.60662
# Poissons Ratio (z) = 0.04750 0.51989
#
# Static dielectric constant tensor:
#      x y z
#    x 1.666140 0.000000 0.000000 
#    y 0.000000 1.780140 0.000000 
#    z 0.000000 0.000000 1.629920 
# 
# From -- ./inp_files/45820.got.cif
#   From: 2010.05.17/outbox.cif.g08.bks.cpg/sg67_23_cif.got.tgz:45820.got - 2010.06.03 18:28:57.
