data_PCOD9503858
_publ_section_title
;
Structure prediction by ZEFSAII (Michael W. Deem and Ramdas Pophale) SiO2 
 PCOD9503858
Probable space group: C M M A
;
_chemical_formula_sum "Si O2"
_cell_formula_units_Z 80
_cell_length_a 9.725106
_cell_length_b 18.046568
_cell_length_c 23.993952
_cell_angle_alpha 90.000000
_cell_angle_beta 90.000000
_cell_angle_gamma 90.000000
_cell_volume 4211.053429
_symmetry_space_group_name_H-M "C M M A"
_symmetry_group_IT_number 67
_symmetry_cell_setting 'orthorhombic'
loop_
_space_group_symop_operation_xyz
x,y,z
-x,1/2-y,z
x,-y,-z
-x,1/2+y,-z
-x,-y,-z
x,1/2+y,-z
-x,y,z
x,1/2-y,z
1/2+x,1/2+y,z
1/2-x,-y,z
1/2+x,1/2-y,-z
1/2-x,y,-z
1/2-x,1/2-y,-z
1/2+x,y,-z
1/2-x,1/2+y,z
1/2+x,-y,z
loop_
_atom_site_type_symbol
_atom_site_label
_atom_site_fract_x
_atom_site_fract_y
_atom_site_fract_z
Si Si1 0.341457 0.840450 0.659700
Si Si2 0.726328 0.914240 0.125596
Si Si3 0.000000 0.580057 0.969377
Si Si4 0.000000 0.837445 0.082720
Si Si5 0.340157 0.340391 0.553589
Si Si6 0.347288 0.161405 0.760189
O O1 0.500000 0.864478 0.654175
O O2 0.342499 0.750000 0.659429
O O3 0.243516 0.863461 0.608688
O O4 0.270298 0.863865 0.717493
O O5 0.629750 0.912151 0.071276
O O6 0.664004 0.875350 0.179627
O O7 0.867157 0.874016 0.110314
O O8 0.750000 0.000000 0.138682
O O9 0.000000 0.500000 0.000000
O O10 0.000000 0.640643 0.017721
O O11 0.000000 0.750000 0.090413
O O12 0.500000 0.364625 0.552078
O O13 0.343401 0.250000 0.553603
O O14 0.250000 0.362932 0.500000
O O15 0.500000 0.147307 0.736372
O O16 0.333721 0.250000 0.766923
#
# Coordination Sequence:
#
# PCOD9503858 Si02
#       6
#    16  16   8   8  16  16
#     4   9  17  29  46  69 103 146 188 243 309 364
#     4  12  24  43  67  89 122 160 199 247 308 374
#     4  12  24  46  68  92 122 162 201 247 310 379
#     4  12  28  42  66 100 128 156 201 255 307 367
#     4   9  15  23  38  63  98 143 196 246 297 364
#     4  10  21  37  56  80 111 148 196 245 296 361
#
# _framework density 18.997623000000001
#
# number of rings (size 3 to 8) (size 9 to 14) (size 15 to 20)
#    0.000    1.600    3.000    2.400    1.400    7.200 
#    0.000    0.000    0.000    0.000    0.000    0.000 
#    0.000    0.800    0.000    5.800    0.000    8.000 
#
# Total GULP energy -223356.659566 kJ/mol
# GULP energy per Si atom -5583.916489 kJ/mol
# Density = 1.895438 g / cm^3
# Si number density = 18.997623 Si / 1000 Ang^3
#
#
#
# Elastic Constant Matrix: (Units=GPa)
#
#
# Indices 1 2 3 4 5 6 
#
# 1 182.4257 46.2304 73.4190 0.0000 0.0000 0.0000
# 2 46.2304 50.4596 24.4241 0.0000 0.0000 0.0000
# 3 73.4190 24.4241 120.9890 0.0000 0.0000 0.0000
# 4 0.0000 0.0000 0.0000 19.5374 0.0000 0.0000
# 5 0.0000 0.0000 0.0000 0.0000 36.9699 0.0000
# 6 0.0000 0.0000 0.0000 0.0000 0.0000 -2.6944
#
#
#
# Elastic Compliance Matrix: (Units=1/GPa)
#
#
# Indices 1 2 3 4 5 6 
#
# 1 0.008605 -0.005937 -0.004024 0.000000 0.000000 0.000000
# 2 -0.005937 0.026060 -0.001658 0.000000 0.000000 0.000000
# 3 -0.004024 -0.001658 0.011042 0.000000 0.000000 0.000000
# 4 0.000000 0.000000 0.000000 0.051184 0.000000 0.000000
# 5 0.000000 0.000000 0.000000 0.000000 0.027049 0.000000
# 6 0.000000 0.000000 0.000000 0.000000 0.000000 -0.371142
#
#
# Mechanical properties :
#
#
# Convention : Reuss Voigt Hill
#
# Bulk Modulus (GPa) = 44.50420 71.33571 57.91995
# Shear Modulus (GPa) = -23.09721 24.74930 0.82605
#
# Velocity S-wave (km/s) = -3.49061 3.61329 0.66012
# Velocity P-wave (km/s) = 2.68910 7.41884 5.57989
#
# Compressibility (1/GPa) = 0.02246979
#
# Stress axis : x y z
#
# Youngs Moduli (GPa) = 116.20480 38.37369 90.56707
#
# Poissons Ratio (x) = 0.22781 0.36440
# Poissons Ratio (y) = 0.68987 0.15017
# Poissons Ratio (z) = 0.46756 0.06363
#
# Static dielectric constant tensor:
#      x y z
#    x 1.678190 0.000000 0.000000 
#    y 0.000000 1.640090 0.000000 
#    z 0.000000 0.000000 1.645660 
# 
# From -- ./inp_files/40588.got.cif
#   From: 2010.05.17/outbox.cif.g08.bks.cpg/sg67_21_cif.got.tgz:40588.got - 2010.06.03 18:28:57.
