data_PCOD9503643
_publ_section_title
;
Structure prediction by ZEFSAII (Michael W. Deem and Ramdas Pophale) SiO2 
 PCOD9503643
Probable space group: C M M A
;
_chemical_formula_sum "Si O2"
_cell_formula_units_Z 80
_cell_length_a 19.227229
_cell_length_b 8.738687
_cell_length_c 26.345484
_cell_angle_alpha 90.000000
_cell_angle_beta 90.000000
_cell_angle_gamma 90.000000
_cell_volume 4426.587615
_symmetry_space_group_name_H-M "C M M A"
_symmetry_group_IT_number 67
_symmetry_cell_setting 'orthorhombic'
loop_
_space_group_symop_operation_xyz
x,y,z
-x,1/2-y,z
x,-y,-z
-x,1/2+y,-z
-x,-y,-z
x,1/2+y,-z
-x,y,z
x,1/2-y,z
1/2+x,1/2+y,z
1/2-x,-y,z
1/2+x,1/2-y,-z
1/2-x,y,-z
1/2-x,1/2-y,-z
1/2+x,y,-z
1/2-x,1/2+y,z
1/2+x,-y,z
loop_
_atom_site_type_symbol
_atom_site_label
_atom_site_fract_x
_atom_site_fract_y
_atom_site_fract_z
Si Si1 0.918891 0.434277 0.752742
Si Si2 0.580496 0.434562 0.054739
Si Si3 0.827350 0.935163 0.150459
Si Si4 0.827239 0.067763 0.553551
Si Si5 0.082550 0.568666 0.643430
O O1 0.914873 0.250000 0.747503
O O2 0.870458 0.481257 0.799467
O O3 0.898211 0.510126 0.699567
O O4 0.000000 0.472414 0.763083
O O5 0.500000 0.479679 0.064516
O O6 0.582264 0.250000 0.052507
O O7 0.630298 0.484502 0.100339
O O8 0.600994 0.500000 0.000000
O O9 0.824735 0.750000 0.150071
O O10 0.750000 0.000000 0.150941
O O11 0.823222 0.250000 0.549943
O O12 0.853525 0.000000 0.500000
O O13 0.750000 0.000000 0.561081
O O14 0.875164 0.016850 0.599955
O O15 0.094789 0.750000 0.639606
O O16 0.000000 0.540106 0.637430
#
# Coordination Sequence:
#
# PCOD9503643 Si02
#       5
#    16  16  16  16  16
#     4   9  18  35  57  77 100 136 180 221 263 313
#     4   9  18  34  55  77 101 133 174 216 258 307
#     4  10  21  35  52  76 106 138 172 214 263 315
#     4  11  22  38  59  82 111 146 184 224 269 322
#     4  10  21  37  57  83 113 143 179 224 271 319
#
# _framework density 18.072610999999998
#
# number of rings (size 3 to 8) (size 9 to 14) (size 15 to 20)
#    0.000    2.200    0.000    3.600    0.000    6.800 
#    0.000    4.000    0.000    6.000    0.000    0.000 
#    0.000    0.000    0.000    0.000    0.000    0.000 
#
# Total GULP energy -223349.517369 kJ/mol
# GULP energy per Si atom -5583.737934 kJ/mol
# Density = 1.803148 g / cm^3
# Si number density = 18.072611 Si / 1000 Ang^3
#
#
#
# Elastic Constant Matrix: (Units=GPa)
#
#
# Indices 1 2 3 4 5 6 
#
# 1 91.7742 49.3984 108.4323 0.0000 0.0000 0.0000
# 2 49.3984 64.1933 71.7954 0.0000 0.0000 0.0000
# 3 108.4323 71.7954 194.7508 0.0000 0.0000 0.0000
# 4 0.0000 0.0000 0.0000 33.7915 0.0000 0.0000
# 5 0.0000 0.0000 0.0000 0.0000 -70.1378 0.0000
# 6 0.0000 0.0000 0.0000 0.0000 0.0000 30.4893
#
#
#
# Elastic Compliance Matrix: (Units=1/GPa)
#
#
# Indices 1 2 3 4 5 6 
#
# 1 0.034426 -0.008600 -0.015997 0.000000 0.000000 0.000000
# 2 -0.008600 0.028656 -0.005776 0.000000 0.000000 0.000000
# 3 -0.015997 -0.005776 0.016171 0.000000 0.000000 0.000000
# 4 0.000000 0.000000 0.000000 0.029593 0.000000 0.000000
# 5 0.000000 0.000000 0.000000 0.000000 -0.014258 0.000000
# 6 0.000000 0.000000 0.000000 0.000000 0.000000 0.032798
#
#
# Mechanical properties :
#
#
# Convention : Reuss Voigt Hill
#
# Bulk Modulus (GPa) = 54.03460 89.99670 72.01565
# Shear Modulus (GPa) = 25.73315 6.90141 16.31728
#
# Velocity S-wave (km/s) = 3.77752 1.95627 3.00804
# Velocity P-wave (km/s) = 6.99927 7.41674 7.21103
#
# Compressibility (1/GPa) = 0.01850666
#
# Stress axis : x y z
#
# Youngs Moduli (GPa) = 29.04743 34.89716 61.83997
#
# Poissons Ratio (x) = 0.30013 0.98927
# Poissons Ratio (y) = 0.24982 0.35716
# Poissons Ratio (z) = 0.46468 0.20155
#
# Static dielectric constant tensor:
#      x y z
#    x 1.597360 0.000000 0.000000 
#    y 0.000000 1.611540 0.000000 
#    z 0.000000 0.000000 1.598290 
# 
# From -- ./inp_files/43257.got.cif
#   From: 2010.05.17/outbox.cif.g08.bks.cpg/sg67_22_cif.got.tgz:43257.got - 2010.06.03 18:28:57.
