data_PCOD9503914
_publ_section_title
;
Structure prediction by ZEFSAII (Michael W. Deem and Ramdas Pophale) SiO2 
 PCOD9503914
Probable space group: C M M A
;
_chemical_formula_sum "Si O2"
_cell_formula_units_Z 44
_cell_length_a 8.343019
_cell_length_b 14.953074
_cell_length_c 17.023444
_cell_angle_alpha 90.000000
_cell_angle_beta 90.000000
_cell_angle_gamma 90.000000
_cell_volume 2123.738996
_symmetry_space_group_name_H-M "C M M A"
_symmetry_group_IT_number 67
_symmetry_cell_setting 'orthorhombic'
loop_
_space_group_symop_operation_xyz
x,y,z
-x,1/2-y,z
x,-y,-z
-x,1/2+y,-z
-x,-y,-z
x,1/2+y,-z
-x,y,z
x,1/2-y,z
1/2+x,1/2+y,z
1/2-x,-y,z
1/2+x,1/2-y,-z
1/2-x,y,-z
1/2-x,1/2-y,-z
1/2+x,y,-z
1/2-x,1/2+y,z
1/2+x,-y,z
loop_
_atom_site_type_symbol
_atom_site_label
_atom_site_fract_x
_atom_site_fract_y
_atom_site_fract_z
Si Si1 0.188660 0.250000 0.411336
Si Si2 0.309348 0.600448 0.705669
Si Si3 0.193657 0.646384 0.115041
Si Si4 0.750000 0.000000 0.000000
O O1 0.250000 0.250000 0.500000
O O2 0.244481 0.335484 0.361612
O O3 0.000000 0.250000 0.414235
O O4 0.500000 0.602889 0.701705
O O5 0.250000 0.500000 0.696320
O O6 0.266725 0.634256 0.793246
O O7 0.218353 0.750000 0.093573
O O8 0.000000 0.626088 0.103833
O O9 0.297428 0.576142 0.064680
#
# Coordination Sequence:
#
# PCOD9503914 Si02
#       4
#     8  16  16   4
#     4  12  26  46  72 105 134 171 218 271 332 405
#     4  11  22  42  68  97 134 179 222 276 335 398
#     4  10  21  37  58  87 128 173 220 274 336 391
#     4  12  20  36  60  92 126 172 232 276 330 390
#
# _framework density 20.718174999999999
#
# number of rings (size 3 to 8) (size 9 to 14) (size 15 to 20)
#    0.000    1.091    3.636    3.818    0.000    0.727 
#    0.000    3.636    0.000    0.000    0.000    0.000 
#    0.000    0.000    0.000    0.000    0.000    0.000 
#
# Total GULP energy -122698.882055 kJ/mol
# GULP energy per Si atom -5577.221912 kJ/mol
# Density = 2.067102 g / cm^3
# Si number density = 20.718175 Si / 1000 Ang^3
#
#
#
# Elastic Constant Matrix: (Units=GPa)
#
#
# Indices 1 2 3 4 5 6 
#
# 1 54.7995 34.7052 56.6457 0.0000 0.0000 0.0000
# 2 34.7052 195.0376 88.0496 0.0000 0.0000 0.0000
# 3 56.6457 88.0496 198.2547 0.0000 0.0000 0.0000
# 4 0.0000 0.0000 0.0000 71.8212 0.0000 0.0000
# 5 0.0000 0.0000 0.0000 0.0000 -20.9330 0.0000
# 6 0.0000 0.0000 0.0000 0.0000 0.0000 17.8315
#
#
#
# Elastic Compliance Matrix: (Units=1/GPa)
#
#
# Indices 1 2 3 4 5 6 
#
# 1 0.026295 -0.001610 -0.006798 0.000000 0.000000 0.000000
# 2 -0.001610 0.006512 -0.002432 0.000000 0.000000 0.000000
# 3 -0.006798 -0.002432 0.008066 0.000000 0.000000 0.000000
# 4 0.000000 0.000000 0.000000 0.013923 0.000000 0.000000
# 5 0.000000 0.000000 0.000000 0.000000 -0.047771 0.000000
# 6 0.000000 0.000000 0.000000 0.000000 0.000000 0.056080
#
#
# Mechanical properties :
#
#
# Convention : Reuss Voigt Hill
#
# Bulk Modulus (GPa) = 52.10195 89.65476 70.87836
# Shear Modulus (GPa) = 54.83462 31.65669 43.24566
#
# Velocity S-wave (km/s) = 5.15018 3.91316 4.57369
# Velocity P-wave (km/s) = 7.78257 7.98652 7.88521
#
# Compressibility (1/GPa) = 0.01919314
#
# Stress axis : x y z
#
# Youngs Moduli (GPa) = 38.02995 153.57214 123.97033
#
# Poissons Ratio (x) = 0.24725 0.84276
# Poissons Ratio (y) = 0.06123 0.30149
# Poissons Ratio (z) = 0.25853 0.37348
#
# Static dielectric constant tensor:
#      x y z
#    x 1.793310 0.000000 0.000000 
#    y 0.000000 1.698750 0.000000 
#    z 0.000000 0.000000 1.641650 
# 
# From -- ./inp_files/31489.got.cif
#   From: 2010.05.17/outbox.cif.g08.bks.cpg/sg67_16_cif.got.tgz:31489.got - 2010.06.03 18:28:57.
