data_PCOD9503389
_publ_section_title
;
Structure prediction by ZEFSAII (Michael W. Deem and Ramdas Pophale) SiO2 
 PCOD9503389
Probable space group: C M M A
;
_chemical_formula_sum "Si O2"
_cell_formula_units_Z 96
_cell_length_a 27.005492
_cell_length_b 19.722660
_cell_length_c 10.056744
_cell_angle_alpha 90.000000
_cell_angle_beta 90.000000
_cell_angle_gamma 90.000000
_cell_volume 5356.424366
_symmetry_space_group_name_H-M "C M M A"
_symmetry_group_IT_number 67
_symmetry_cell_setting 'orthorhombic'
loop_
_space_group_symop_operation_xyz
x,y,z
-x,1/2-y,z
x,-y,-z
-x,1/2+y,-z
-x,-y,-z
x,1/2+y,-z
-x,y,z
x,1/2-y,z
1/2+x,1/2+y,z
1/2-x,-y,z
1/2+x,1/2-y,-z
1/2-x,y,-z
1/2-x,1/2-y,-z
1/2+x,y,-z
1/2-x,1/2+y,z
1/2+x,-y,z
loop_
_atom_site_type_symbol
_atom_site_label
_atom_site_fract_x
_atom_site_fract_y
_atom_site_fract_z
Si Si1 0.601706 0.671265 0.497001
Si Si2 0.442063 0.324768 0.789860
Si Si3 0.276499 0.568610 0.141067
Si Si4 0.107453 0.039561 0.129248
Si Si5 0.210877 0.169679 0.382553
Si Si6 0.441840 0.544222 0.634894
O O1 0.602918 0.750000 0.542515
O O2 0.566102 0.667362 0.368401
O O3 0.656117 0.653251 0.439391
O O4 0.582367 0.617142 0.602976
O O5 0.500000 0.327319 0.818450
O O6 0.422294 0.250000 0.825002
O O7 0.415047 0.385733 0.860883
O O8 0.250000 0.500000 0.190256
O O9 0.333724 0.549190 0.121587
O O10 0.275655 0.626613 0.252580
O O11 0.250000 0.586286 0.000000
O O12 0.088949 0.996651 0.255367
O O13 0.089774 0.000000 0.000000
O O14 0.211040 0.250000 0.351732
O O15 0.250000 0.157108 0.500000
O O16 0.439679 0.500000 0.500000
O O17 0.500000 0.550509 0.671874
#
# Coordination Sequence:
#
# PCOD9503389 Si02
#       6
#    16  16  16  16  16  16
#     4  10  20  37  62  90 122 159 201 252 305 363
#     4  10  20  37  63  90 117 157 206 250 300 366
#     4  11  23  41  61  87 120 162 210 252 300 368
#     4  12  24  41  62  88 127 163 204 256 311 363
#     4  10  22  39  62  92 124 156 201 256 312 367
#     4  11  22  37  60  91 122 157 203 250 306 372
#
# _framework density 17.922402999999999
#
# number of rings (size 3 to 8) (size 9 to 14) (size 15 to 20)
#    0.000    1.333    5.000    1.000    2.333    3.000 
#    0.000    0.833    0.000    0.000    0.000    0.000 
#    0.000    0.000    0.000    0.000    0.000    0.000 
#
# Total GULP energy -267972.244850 kJ/mol
# GULP energy per Si atom -5582.755101 kJ/mol
# Density = 1.788161 g / cm^3
# Si number density = 17.922403 Si / 1000 Ang^3
#
#
#
# Elastic Constant Matrix: (Units=GPa)
#
#
# Indices 1 2 3 4 5 6 
#
# 1 109.1811 62.1096 53.5561 0.0000 0.0000 0.0000
# 2 62.1096 143.0930 66.8295 0.0000 0.0000 0.0000
# 3 53.5561 66.8295 97.8819 0.0000 0.0000 0.0000
# 4 0.0000 0.0000 0.0000 13.4819 0.0000 0.0000
# 5 0.0000 0.0000 0.0000 0.0000 28.3805 0.0000
# 6 0.0000 0.0000 0.0000 0.0000 0.0000 14.3065
#
#
#
# Elastic Compliance Matrix: (Units=1/GPa)
#
#
# Indices 1 2 3 4 5 6 
#
# 1 0.013664 -0.003581 -0.005031 0.000000 0.000000 0.000000
# 2 -0.003581 0.011199 -0.005687 0.000000 0.000000 0.000000
# 3 -0.005031 -0.005687 0.016852 0.000000 0.000000 0.000000
# 4 0.000000 0.000000 0.000000 0.074173 0.000000 0.000000
# 5 0.000000 0.000000 0.000000 0.000000 0.035236 0.000000
# 6 0.000000 0.000000 0.000000 0.000000 0.000000 0.069898
#
#
# Mechanical properties :
#
#
# Convention : Reuss Voigt Hill
#
# Bulk Modulus (GPa) = 76.23881 79.46071 77.84976
# Shear Modulus (GPa) = 19.68563 22.41116 21.04839
#
# Velocity S-wave (km/s) = 3.31778 3.54001 3.43070
# Velocity P-wave (km/s) = 7.57017 7.81928 7.69573
#
# Compressibility (1/GPa) = 0.01311668
#
# Stress axis : x y z
#
# Youngs Moduli (GPa) = 73.18321 89.29620 59.34073
#
# Poissons Ratio (x) = 0.31979 0.29857
# Poissons Ratio (y) = 0.26208 0.33744
# Poissons Ratio (z) = 0.36821 0.50779
#
# Static dielectric constant tensor:
#      x y z
#    x 1.647100 0.000000 0.000000 
#    y 0.000000 1.622630 0.000000 
#    z 0.000000 0.000000 1.594490 
# 
# From -- ./inp_files/13714.got.cif
#   From: 2010.05.17/outbox.cif.g08.bks.cpg/sg67_7_cif.got.tgz:13714.got - 2010.06.03 18:28:57.
