data_PCOD9503323
_publ_section_title
;
Structure prediction by ZEFSAII (Michael W. Deem and Ramdas Pophale) SiO2 
 PCOD9503323
Probable space group: C M M A
;
_chemical_formula_sum "Si O2"
_cell_formula_units_Z 104
_cell_length_a 27.052492
_cell_length_b 8.056969
_cell_length_c 22.942543
_cell_angle_alpha 90.000000
_cell_angle_beta 90.000000
_cell_angle_gamma 90.000000
_cell_volume 5000.581666
_symmetry_space_group_name_H-M "C M M A"
_symmetry_group_IT_number 67
_symmetry_cell_setting 'orthorhombic'
loop_
_space_group_symop_operation_xyz
x,y,z
-x,1/2-y,z
x,-y,-z
-x,1/2+y,-z
-x,-y,-z
x,1/2+y,-z
-x,y,z
x,1/2-y,z
1/2+x,1/2+y,z
1/2-x,-y,z
1/2+x,1/2-y,-z
1/2-x,y,-z
1/2-x,1/2-y,-z
1/2+x,y,-z
1/2-x,1/2+y,z
1/2+x,-y,z
loop_
_atom_site_type_symbol
_atom_site_label
_atom_site_fract_x
_atom_site_fract_y
_atom_site_fract_z
Si Si1 0.196237 0.050610 0.898660
Si Si2 0.553932 0.952469 0.811623
Si Si3 0.660839 0.452960 0.227778
Si Si4 0.500000 0.049857 0.568118
Si Si5 0.909893 0.449311 0.937809
Si Si6 0.196367 0.946340 0.351643
Si Si7 0.393239 0.551727 0.432526
O O1 0.194467 0.250000 0.899155
O O2 0.188435 0.994574 0.831411
O O3 0.147148 0.990160 0.931936
O O4 0.250000 0.000000 0.920665
O O5 0.500000 0.009040 0.790835
O O6 0.553853 0.750000 0.810542
O O7 0.603249 0.004327 0.777432
O O8 0.562196 0.003371 0.879168
O O9 0.661416 0.250000 0.227744
O O10 0.685409 0.515879 0.286900
O O11 0.500000 0.250000 0.572327
O O12 0.553137 0.989195 0.590749
O O13 0.500000 0.000000 0.500000
O O14 0.909280 0.250000 0.935810
O O15 0.930899 0.500000 0.000000
O O16 0.197149 0.750000 0.346165
O O17 0.250000 0.000000 0.373088
O O18 0.152238 0.992233 0.394484
O O19 0.388204 0.500000 0.500000
O O20 0.394030 0.750000 0.430820
#
# Coordination Sequence:
#
# PCOD9503323 Si02
#       7
#    16  16  16   8  16  16  16
#     4   9  17  30  47  66  90 122 161 203 249 296
#     4   8  14  28  50  72  96 127 162 203 253 304
#     4   8  16  31  49  71  99 128 165 211 254 304
#     4   8  16  32  56  80 106 140 176 212 255 304
#     4   9  18  30  44  66  95 125 158 200 245 296
#     4  11  22  36  54  80 111 143 180 223 268 319
#     4  10  20  37  59  84 113 147 183 221 265 314
#
# _framework density 20.79758
#
# number of rings (size 3 to 8) (size 9 to 14) (size 15 to 20)
#    0.000    2.923    0.000    3.231    0.000    2.154 
#    1.385    3.846    0.000    1.846    0.000    0.000 
#    0.000    0.000    0.000    0.000    0.000    0.000 
#
# Total GULP energy -289979.978600 kJ/mol
# GULP energy per Si atom -5576.538050 kJ/mol
# Density = 2.075024 g / cm^3
# Si number density = 20.797580 Si / 1000 Ang^3
#
#
#
# Elastic Constant Matrix: (Units=GPa)
#
#
# Indices 1 2 3 4 5 6 
#
# 1 141.0904 7.9112 23.7300 0.0000 0.0000 0.0000
# 2 7.9112 16.9474 3.1092 0.0000 0.0000 0.0000
# 3 23.7300 3.1092 49.7451 0.0000 0.0000 0.0000
# 4 0.0000 0.0000 0.0000 14.6608 0.0000 0.0000
# 5 0.0000 0.0000 0.0000 0.0000 5.5008 0.0000
# 6 0.0000 0.0000 0.0000 0.0000 0.0000 5.8850
#
#
#
# Elastic Compliance Matrix: (Units=1/GPa)
#
#
# Indices 1 2 3 4 5 6 
#
# 1 0.007855 -0.003014 -0.003559 0.000000 0.000000 0.000000
# 2 -0.003014 0.060847 -0.002365 0.000000 0.000000 0.000000
# 3 -0.003559 -0.002365 0.021948 0.000000 0.000000 0.000000
# 4 0.000000 0.000000 0.000000 0.068209 0.000000 0.000000
# 5 0.000000 0.000000 0.000000 0.000000 0.181793 0.000000
# 6 0.000000 0.000000 0.000000 0.000000 0.000000 0.169922
#
#
# Mechanical properties :
#
#
# Convention : Reuss Voigt Hill
#
# Bulk Modulus (GPa) = 13.74120 30.80932 22.27526
# Shear Modulus (GPa) = 9.04636 16.74482 12.89559
#
# Velocity S-wave (km/s) = 2.08786 2.84056 2.49279
# Velocity P-wave (km/s) = 3.52614 5.06009 4.36109
#
# Compressibility (1/GPa) = 0.07277382
#
# Stress axis : x y z
#
# Youngs Moduli (GPa) = 127.30404 16.43468 45.56224
#
# Poissons Ratio (x) = 0.04953 0.16215
# Poissons Ratio (y) = 0.38369 0.10777
# Poissons Ratio (z) = 0.45305 0.03887
#
# Static dielectric constant tensor:
#      x y z
#    x 1.884640 0.000000 0.000000 
#    y 0.000000 1.728460 0.000000 
#    z 0.000000 0.000000 1.723740 
# 
# From -- ./inp_files/39992.got.cif
#   From: 2010.05.17/outbox.cif.g08.bks.cpg/sg67_20_cif.got.tgz:39992.got - 2010.06.03 18:28:57.
