data_PCOD9503980
_publ_section_title
;
Structure prediction by ZEFSAII (Michael W. Deem and Ramdas Pophale) SiO2 
 PCOD9503980
Probable space group: C M M A
;
_chemical_formula_sum "Si O2"
_cell_formula_units_Z 88
_cell_length_a 14.958634
_cell_length_b 23.373885
_cell_length_c 12.987938
_cell_angle_alpha 90.000000
_cell_angle_beta 90.000000
_cell_angle_gamma 90.000000
_cell_volume 4541.120707
_symmetry_space_group_name_H-M "C M M A"
_symmetry_group_IT_number 67
_symmetry_cell_setting 'orthorhombic'
loop_
_space_group_symop_operation_xyz
x,y,z
-x,1/2-y,z
x,-y,-z
-x,1/2+y,-z
-x,-y,-z
x,1/2+y,-z
-x,y,z
x,1/2-y,z
1/2+x,1/2+y,z
1/2-x,-y,z
1/2+x,1/2-y,-z
1/2-x,y,-z
1/2-x,1/2-y,-z
1/2+x,y,-z
1/2-x,1/2+y,z
1/2+x,-y,z
loop_
_atom_site_type_symbol
_atom_site_label
_atom_site_fract_x
_atom_site_fract_y
_atom_site_fract_z
Si Si1 0.000000 0.111166 0.965657
Si Si2 0.321482 0.865022 0.207751
Si Si3 0.651855 0.855484 0.679684
Si Si4 0.500000 0.437247 0.266342
Si Si5 0.106072 0.250000 0.300212
Si Si6 0.108761 0.250000 0.537616
Si Si7 0.336977 0.316864 0.094742
Si Si8 0.500000 0.561759 0.179180
O O1 0.087448 0.151483 0.971468
O O2 0.000000 0.063312 0.054053
O O3 0.000000 0.084183 0.852541
O O4 0.250504 0.879974 0.297844
O O5 0.358939 0.804140 0.240138
O O6 0.255988 0.852136 0.110075
O O7 0.406204 0.905931 0.200889
O O8 0.584240 0.908448 0.677117
O O9 0.642887 0.808108 0.591810
O O10 0.629289 0.820916 0.785873
O O11 0.500000 0.504750 0.247632
O O12 0.136622 0.250000 0.418477
O O13 0.000000 0.250000 0.301420
O O14 0.000000 0.250000 0.544582
O O15 0.326823 0.250000 0.068597
#
# Coordination Sequence:
#
# PCOD9503980 Si02
#       8
#     8  16  16   8   8   8  16   8
#     4  10  22  38  58  86 112 141 209 260 298 322
#     4  10  21  38  58  78 123 161 190 222 304 363
#     4   9  18  35  61  91 113 146 182 243 300 359
#     4  10  21  40  62  81 112 147 209 258 294 331
#     4  11  21  37  59  95 128 159 176 229 286 380
#     4  11  19  31  69 102 120 137 190 240 300 352
#     4   9  17  35  58  85 116 148 179 246 294 362
#     4  12  25  40  56  75 114 173 201 244 284 349
#
# _framework density 19.378475000000002
#
# number of rings (size 3 to 8) (size 9 to 14) (size 15 to 20)
#    1.091    0.909    3.636    1.091    0.000    2.909 
#    3.273    0.909    4.000    2.182    0.000    2.545 
#    0.000    0.000    0.000    0.000    0.000    0.000 
#
# Total GULP energy -244994.714739 kJ/mol
# GULP energy per Si atom -5568.061699 kJ/mol
# Density = 1.933437 g / cm^3
# Si number density = 19.378475 Si / 1000 Ang^3
#
#
#
# Elastic Constant Matrix: (Units=GPa)
#
#
# Indices 1 2 3 4 5 6 
#
# 1 150.1296 68.5462 20.7839 0.0000 0.0000 0.0000
# 2 68.5462 117.2536 21.0505 0.0000 0.0000 0.0000
# 3 20.7839 21.0505 48.9482 0.0000 0.0000 0.0000
# 4 0.0000 0.0000 0.0000 -1.1195 0.0000 0.0000
# 5 0.0000 0.0000 0.0000 0.0000 4.0081 0.0000
# 6 0.0000 0.0000 0.0000 0.0000 0.0000 -7.8838
#
#
#
# Elastic Compliance Matrix: (Units=1/GPa)
#
#
# Indices 1 2 3 4 5 6 
#
# 1 0.009219 -0.005079 -0.001730 0.000000 0.000000 0.000000
# 2 -0.005079 0.012040 -0.003021 0.000000 0.000000 0.000000
# 3 -0.001730 -0.003021 0.022464 0.000000 0.000000 0.000000
# 4 0.000000 0.000000 0.000000 -0.893218 0.000000 0.000000
# 5 0.000000 0.000000 0.000000 0.000000 0.249494 0.000000
# 6 0.000000 0.000000 0.000000 0.000000 0.000000 -0.126842
#
#
# Mechanical properties :
#
#
# Convention : Reuss Voigt Hill
#
# Bulk Modulus (GPa) = 41.55943 59.67695 50.61819
# Shear Modulus (GPa) = -7.15143 12.73101 2.78979
#
# Velocity S-wave (km/s) = -1.92313 2.56592 1.20115
# Velocity P-wave (km/s) = 4.06958 6.29610 5.30106
#
# Compressibility (1/GPa) = 0.02406193
#
# Stress axis : x y z
#
# Youngs Moduli (GPa) = 108.46651 83.05574 44.51593
#
# Poissons Ratio (x) = 0.42184 0.07703
# Poissons Ratio (y) = 0.55090 0.13450
# Poissons Ratio (z) = 0.18769 0.25094
#
# Static dielectric constant tensor:
#      x y z
#    x 1.774300 0.000000 0.000000 
#    y 0.000000 1.635680 0.000000 
#    z 0.000000 0.000000 1.732840 
# 
# From -- ./inp_files/19520.got.cif
#   From: 2010.05.17/outbox.cif.g08.bks.cpg/sg67_10_cif.got.tgz:19520.got - 2010.06.03 18:28:57.
