data_PCOD9503722
_publ_section_title
;
Structure prediction by ZEFSAII (Michael W. Deem and Ramdas Pophale) SiO2 
 PCOD9503722
Probable space group: C M M A
;
_chemical_formula_sum "Si O2"
_cell_formula_units_Z 116
_cell_length_a 13.923271
_cell_length_b 28.012605
_cell_length_c 12.478684
_cell_angle_alpha 90.000000
_cell_angle_beta 90.000000
_cell_angle_gamma 90.000000
_cell_volume 4867.024818
_symmetry_space_group_name_H-M "C M M A"
_symmetry_group_IT_number 67
_symmetry_cell_setting 'orthorhombic'
loop_
_space_group_symop_operation_xyz
x,y,z
-x,1/2-y,z
x,-y,-z
-x,1/2+y,-z
-x,-y,-z
x,1/2+y,-z
-x,y,z
x,1/2-y,z
1/2+x,1/2+y,z
1/2-x,-y,z
1/2+x,1/2-y,-z
1/2-x,y,-z
1/2-x,1/2-y,-z
1/2+x,y,-z
1/2-x,1/2+y,z
1/2+x,-y,z
loop_
_atom_site_type_symbol
_atom_site_label
_atom_site_fract_x
_atom_site_fract_y
_atom_site_fract_z
Si Si1 0.117521 0.918541 0.346488
Si Si2 0.892009 0.406236 0.892804
Si Si3 0.383627 0.927428 0.121777
Si Si4 0.668347 0.198269 0.091496
Si Si5 0.332968 0.173152 0.767352
Si Si6 0.383626 0.023615 0.669407
Si Si7 0.000000 0.250000 0.187236
Si Si8 0.616711 0.376653 0.559617
O O1 0.151625 0.910823 0.225182
O O2 0.147673 0.972566 0.374145
O O3 0.147352 0.880360 0.435825
O O4 0.000000 0.916760 0.347238
O O5 0.892429 0.349590 0.918178
O O6 0.000000 0.424826 0.880998
O O7 0.852340 0.431166 0.998745
O O8 0.500000 0.925184 0.121053
O O9 0.348601 0.877122 0.170740
O O10 0.357338 0.968618 0.205861
O O11 0.619330 0.250000 0.083593
O O12 0.729859 0.193745 0.200120
O O13 0.750000 0.196630 0.000000
O O14 0.415660 0.208585 0.806855
O O15 0.345505 0.162720 0.641439
O O16 0.500000 0.022671 0.663475
O O17 0.356009 0.071560 0.608068
O O18 0.500000 0.373081 0.563873
#
# Coordination Sequence:
#
# PCOD9503722 Si02
#       8
#    16  16  16  16  16  16   4  16
#     4   9  17  30  51  79 111 151 192 224 269 332
#     4  10  21  36  54  77 114 152 186 227 276 340
#     4   9  16  29  48  78 113 143 178 221 280 333
#     4  11  23  38  56  82 109 139 185 235 284 346
#     4  11  19  33  55  84 113 140 180 238 289 333
#     4   8  14  25  48  82 113 140 180 237 276 314
#     4  12  20  32  58  92 116 138 184 248 294 334
#     4   9  16  29  52  81 116 146 185 230 281 330
#
# _framework density 23.833863000000001
#
# number of rings (size 3 to 8) (size 9 to 14) (size 15 to 20)
#    0.000    2.345    3.448    1.241    0.000    2.483 
#    0.000    3.448    1.517    4.138    0.000    3.862 
#    0.000    0.000    0.000    0.000    0.000    0.000 
#
# Total GULP energy -323700.033549 kJ/mol
# GULP energy per Si atom -5581.035061 kJ/mol
# Density = 2.377962 g / cm^3
# Si number density = 23.833863 Si / 1000 Ang^3
#
#
#
# Elastic Constant Matrix: (Units=GPa)
#
#
# Indices 1 2 3 4 5 6 
#
# 1 88.8562 -1.4397 5.1372 0.0000 0.0000 0.0000
# 2 -1.4397 37.6105 4.6077 0.0000 0.0000 0.0000
# 3 5.1372 4.6077 130.4400 0.0000 0.0000 0.0000
# 4 0.0000 0.0000 0.0000 15.8535 0.0000 0.0000
# 5 0.0000 0.0000 0.0000 0.0000 3.9865 0.0000
# 6 0.0000 0.0000 0.0000 0.0000 0.0000 29.6241
#
#
#
# Elastic Compliance Matrix: (Units=1/GPa)
#
#
# Indices 1 2 3 4 5 6 
#
# 1 0.011289 0.000489 -0.000462 0.000000 0.000000 0.000000
# 2 0.000489 0.026725 -0.000963 0.000000 0.000000 0.000000
# 3 -0.000462 -0.000963 0.007719 0.000000 0.000000 0.000000
# 4 0.000000 0.000000 0.000000 0.063078 0.000000 0.000000
# 5 0.000000 0.000000 0.000000 0.000000 0.250845 0.000000
# 6 0.000000 0.000000 0.000000 0.000000 0.000000 0.033756
#
#
# Mechanical properties :
#
#
# Convention : Reuss Voigt Hill
#
# Bulk Modulus (GPa) = 22.80006 30.39076 26.59541
# Shear Modulus (GPa) = 12.19799 26.46627 19.33213
#
# Velocity S-wave (km/s) = 2.26474 3.33595 2.85111
# Velocity P-wave (km/s) = 4.05287 5.25518 4.69269
#
# Compressibility (1/GPa) = 0.04385954
#
# Stress axis : x y z
#
# Youngs Moduli (GPa) = 88.58365 37.41809 129.55754
#
# Poissons Ratio (x) = -0.01829 0.05984
# Poissons Ratio (y) = -0.04329 0.12480
# Poissons Ratio (z) = 0.04091 0.03604
#
# Static dielectric constant tensor:
#      x y z
#    x 1.953480 0.000000 0.000000 
#    y 0.000000 1.864880 0.000000 
#    z 0.000000 0.000000 1.968460 
# 
# From -- ./inp_files/19961.got.cif
#   From: 2010.05.17/outbox.cif.g08.bks.cpg/sg67_10_cif.got.tgz:19961.got - 2010.06.03 18:28:57.
