data_PCOD9503894
_publ_section_title
;
Structure prediction by ZEFSAII (Michael W. Deem and Ramdas Pophale) SiO2 
 PCOD9503894
Probable space group: C M M A
;
_chemical_formula_sum "Si O2"
_cell_formula_units_Z 88
_cell_length_a 30.709593
_cell_length_b 24.685786
_cell_length_c 5.519513
_cell_angle_alpha 90.000000
_cell_angle_beta 90.000000
_cell_angle_gamma 90.000000
_cell_volume 4184.290044
_symmetry_space_group_name_H-M "C M M A"
_symmetry_group_IT_number 67
_symmetry_cell_setting 'orthorhombic'
loop_
_space_group_symop_operation_xyz
x,y,z
-x,1/2-y,z
x,-y,-z
-x,1/2+y,-z
-x,-y,-z
x,1/2+y,-z
-x,y,z
x,1/2-y,z
1/2+x,1/2+y,z
1/2-x,-y,z
1/2+x,1/2-y,-z
1/2-x,y,-z
1/2-x,1/2-y,-z
1/2+x,y,-z
1/2-x,1/2+y,z
1/2+x,-y,z
loop_
_atom_site_type_symbol
_atom_site_label
_atom_site_fract_x
_atom_site_fract_y
_atom_site_fract_z
Si Si1 0.250000 0.156639 0.500000
Si Si2 0.451201 0.375974 0.213546
Si Si3 0.626697 0.553196 0.639250
Si Si4 0.206618 0.577517 0.109855
Si Si5 0.162987 0.150213 0.297411
Si Si6 0.068274 0.311895 0.281402
O O1 0.228521 0.117507 0.696568
O O2 0.206075 0.182188 0.390179
O O3 0.500000 0.399003 0.225265
O O4 0.413001 0.420814 0.212153
O O5 0.444370 0.341208 0.463611
O O6 0.447635 0.341654 0.964207
O O7 0.611472 0.500000 0.500000
O O8 0.670691 0.537687 0.782063
O O9 0.644674 0.602427 0.472817
O O10 0.250000 0.553058 0.000000
O O11 0.179585 0.617013 0.933962
O O12 0.120849 0.186412 0.259114
O O13 0.053194 0.250000 0.287617
#
# Coordination Sequence:
#
# PCOD9503894 Si02
#       6
#     8  16  16  16  16  16
#     4   8  16  30  56  80 118 166 200 252 308 358
#     4  11  24  43  65  93 127 163 211 266 321 385
#     4  10  21  37  57  86 124 167 211 258 317 373
#     4   9  16  33  55  80 116 163 201 252 306 361
#     4   9  18  35  56  83 120 164 206 257 308 368
#     4  11  23  41  67  94 125 163 208 264 330 385
#
# _framework density 21.031047999999998
#
# number of rings (size 3 to 8) (size 9 to 14) (size 15 to 20)
#    0.000    2.182    1.818    1.091    0.000    3.273 
#    0.000   21.364    0.000    8.182    0.000    0.000 
#    0.000    0.000    0.000    0.000    0.000    0.000 
#
# Total GULP energy -245048.289813 kJ/mol
# GULP energy per Si atom -5569.279314 kJ/mol
# Density = 2.098318 g / cm^3
# Si number density = 21.031048 Si / 1000 Ang^3
#
#
#
# Elastic Constant Matrix: (Units=GPa)
#
#
# Indices 1 2 3 4 5 6 
#
# 1 169.4324 18.1094 23.1985 0.0000 0.0000 0.0000
# 2 18.1094 62.0318 6.9318 0.0000 0.0000 0.0000
# 3 23.1985 6.9318 80.6330 0.0000 0.0000 0.0000
# 4 0.0000 0.0000 0.0000 14.4992 0.0000 0.0000
# 5 0.0000 0.0000 0.0000 0.0000 23.3954 0.0000
# 6 0.0000 0.0000 0.0000 0.0000 0.0000 -9.9702
#
#
#
# Elastic Compliance Matrix: (Units=1/GPa)
#
#
# Indices 1 2 3 4 5 6 
#
# 1 0.006308 -0.001655 -0.001673 0.000000 0.000000 0.000000
# 2 -0.001655 0.016711 -0.000961 0.000000 0.000000 0.000000
# 3 -0.001673 -0.000961 0.012966 0.000000 0.000000 0.000000
# 4 0.000000 0.000000 0.000000 0.068969 0.000000 0.000000
# 5 0.000000 0.000000 0.000000 0.000000 0.042743 0.000000
# 6 0.000000 0.000000 0.000000 0.000000 0.000000 -0.100299
#
#
# Mechanical properties :
#
#
# Convention : Reuss Voigt Hill
#
# Bulk Modulus (GPa) = 36.48410 45.39739 40.94074
# Shear Modulus (GPa) = 76.79262 23.17538 49.98400
#
# Velocity S-wave (km/s) = 6.04923 3.32318 4.88041
# Velocity P-wave (km/s) = 8.13488 6.02971 7.16009
#
# Compressibility (1/GPa) = 0.02740920
#
# Stress axis : x y z
#
# Youngs Moduli (GPa) = 158.53098 59.84029 77.12679
#
# Poissons Ratio (x) = 0.09901 0.12900
# Poissons Ratio (y) = 0.26231 0.07409
# Poissons Ratio (z) = 0.26515 0.05748
#
# Static dielectric constant tensor:
#      x y z
#    x 1.739600 0.000000 0.000000 
#    y 0.000000 1.711230 0.000000 
#    z 0.000000 0.000000 1.854010 
# 
# From -- ./inp_files/4840.got.cif
#   From: 2010.05.17/outbox.cif.g08.bks.cpg/sg67_3_cif.got.tgz:4840.got - 2010.06.03 18:28:57.
