data_PCOD9503875
_publ_section_title
;
Structure prediction by ZEFSAII (Michael W. Deem and Ramdas Pophale) SiO2 
 PCOD9503875
Probable space group: C M M A
;
_chemical_formula_sum "Si O2"
_cell_formula_units_Z 96
_cell_length_a 18.860366
_cell_length_b 8.896203
_cell_length_c 31.367397
_cell_angle_alpha 90.000000
_cell_angle_beta 90.000000
_cell_angle_gamma 90.000000
_cell_volume 5262.998925
_symmetry_space_group_name_H-M "C M M A"
_symmetry_group_IT_number 67
_symmetry_cell_setting 'orthorhombic'
loop_
_space_group_symop_operation_xyz
x,y,z
-x,1/2-y,z
x,-y,-z
-x,1/2+y,-z
-x,-y,-z
x,1/2+y,-z
-x,y,z
x,1/2-y,z
1/2+x,1/2+y,z
1/2-x,-y,z
1/2+x,1/2-y,-z
1/2-x,y,-z
1/2-x,1/2-y,-z
1/2+x,y,-z
1/2-x,1/2+y,z
1/2+x,-y,z
loop_
_atom_site_type_symbol
_atom_site_label
_atom_site_fract_x
_atom_site_fract_y
_atom_site_fract_z
Si Si1 0.582000 0.069358 0.454683
Si Si2 0.328321 0.068804 0.371620
Si Si3 0.827200 0.070976 0.880328
Si Si4 0.916233 0.570106 0.706275
Si Si5 0.171994 0.930184 0.218092
Si Si6 0.085049 0.425916 0.044553
O O1 0.500000 0.024135 0.446065
O O2 0.583321 0.250000 0.458123
O O3 0.632670 0.026268 0.415805
O O4 0.603145 0.000000 0.500000
O O5 0.324960 0.250000 0.368954
O O6 0.250000 0.000000 0.369850
O O7 0.374809 0.005130 0.332892
O O8 0.823072 0.250000 0.884778
O O9 0.847474 0.037721 0.831201
O O10 0.750000 0.000000 0.887334
O O11 0.880038 0.004415 0.914976
O O12 0.906199 0.750000 0.705293
O O13 0.882787 0.503092 0.749292
O O14 0.000000 0.538256 0.703611
O O15 0.175107 0.750000 0.223829
O O16 0.250000 0.000000 0.225749
O O17 0.102851 0.250000 0.044314
O O18 0.000000 0.441228 0.046986
O O19 0.108531 0.500000 0.000000
#
# Coordination Sequence:
#
# PCOD9503875 Si02
#       6
#    16  16  16  16  16  16
#     4   9  19  36  58  83 111 146 186 229 278 330
#     4  11  23  39  59  83 114 150 189 232 279 332
#     4  10  21  37  58  84 113 146 185 228 275 329
#     4  11  24  40  59  84 113 146 186 231 278 330
#     4  10  21  38  60  84 113 148 184 226 276 330
#     4  10  21  37  57  81 111 147 186 230 279 330
#
# _framework density 18.240549999999999
#
# number of rings (size 3 to 8) (size 9 to 14) (size 15 to 20)
#    0.000    1.833    0.000    3.500    0.000    7.667 
#    0.000    8.333    0.000    0.000    0.000    0.000 
#    0.000    0.000    0.000    0.000    0.000    0.000 
#
# Total GULP energy -268204.697545 kJ/mol
# GULP energy per Si atom -5587.597866 kJ/mol
# Density = 1.819903 g / cm^3
# Si number density = 18.240550 Si / 1000 Ang^3
#
#
#
# Elastic Constant Matrix: (Units=GPa)
#
#
# Indices 1 2 3 4 5 6 
#
# 1 105.8206 72.4940 98.1438 0.0000 0.0000 0.0000
# 2 72.4940 90.9324 84.9229 0.0000 0.0000 0.0000
# 3 98.1438 84.9229 152.8369 0.0000 0.0000 0.0000
# 4 0.0000 0.0000 0.0000 37.5429 0.0000 0.0000
# 5 0.0000 0.0000 0.0000 0.0000 52.8373 0.0000
# 6 0.0000 0.0000 0.0000 0.0000 0.0000 29.4446
#
#
#
# Elastic Compliance Matrix: (Units=1/GPa)
#
#
# Indices 1 2 3 4 5 6 
#
# 1 0.028230 -0.011591 -0.011688 0.000000 0.000000 0.000000
# 2 -0.011591 0.027618 -0.007903 0.000000 0.000000 0.000000
# 3 -0.011688 -0.007903 0.018439 0.000000 0.000000 0.000000
# 4 0.000000 0.000000 0.000000 0.026636 0.000000 0.000000
# 5 0.000000 0.000000 0.000000 0.000000 0.018926 0.000000
# 6 0.000000 0.000000 0.000000 0.000000 0.000000 0.033962
#
#
# Mechanical properties :
#
#
# Convention : Reuss Voigt Hill
#
# Bulk Modulus (GPa) = 83.85621 95.63457 89.74539
# Shear Modulus (GPa) = 22.71185 30.23359 26.47272
#
# Velocity S-wave (km/s) = 3.53247 4.07565 3.81374
# Velocity P-wave (km/s) = 7.91896 8.64242 8.28859
#
# Compressibility (1/GPa) = 0.01192517
#
# Stress axis : x y z
#
# Youngs Moduli (GPa) = 35.42340 36.20775 54.23189
#
# Poissons Ratio (x) = 0.41967 0.63384
# Poissons Ratio (y) = 0.41058 0.42860
# Poissons Ratio (z) = 0.41401 0.28615
#
# Static dielectric constant tensor:
#      x y z
#    x 1.597810 0.000000 0.000000 
#    y 0.000000 1.611020 0.000000 
#    z 0.000000 0.000000 1.606860 
# 
# From -- ./inp_files/44595.got.cif
#   From: 2010.05.17/outbox.cif.g08.bks.cpg/sg67_23_cif.got.tgz:44595.got - 2010.06.03 18:28:57.
