data_PCOD9503158
_publ_section_title
;
Structure prediction by ZEFSAII (Michael W. Deem and Ramdas Pophale) SiO2 
 PCOD9503158
Probable space group: C M M A
;
_chemical_formula_sum "Si O2"
_cell_formula_units_Z 104
_cell_length_a 8.731809
_cell_length_b 20.497140
_cell_length_c 30.093491
_cell_angle_alpha 90.000000
_cell_angle_beta 90.000000
_cell_angle_gamma 90.000000
_cell_volume 5386.046095
_symmetry_space_group_name_H-M "C M M A"
_symmetry_group_IT_number 67
_symmetry_cell_setting 'orthorhombic'
loop_
_space_group_symop_operation_xyz
x,y,z
-x,1/2-y,z
x,-y,-z
-x,1/2+y,-z
-x,-y,-z
x,1/2+y,-z
-x,y,z
x,1/2-y,z
1/2+x,1/2+y,z
1/2-x,-y,z
1/2+x,1/2-y,-z
1/2-x,y,-z
1/2-x,1/2-y,-z
1/2+x,y,-z
1/2-x,1/2+y,z
1/2+x,-y,z
loop_
_atom_site_type_symbol
_atom_site_label
_atom_site_fract_x
_atom_site_fract_y
_atom_site_fract_z
Si Si1 0.683134 0.071557 0.220802
Si Si2 0.317130 0.434438 0.639801
Si Si3 0.185202 0.173913 0.290162
Si Si4 0.317248 0.750000 0.548908
Si Si5 0.316665 0.174354 0.951569
Si Si6 0.684239 0.606621 0.549769
Si Si7 0.682752 0.929293 0.883525
O O1 0.500000 0.069803 0.226577
O O2 0.751725 0.130758 0.249450
O O3 0.718602 0.082030 0.168569
O O4 0.750000 0.000000 0.232553
O O5 0.500000 0.437938 0.639324
O O6 0.250000 0.500000 0.661625
O O7 0.270404 0.369532 0.666802
O O8 0.254062 0.433454 0.589749
O O9 0.235979 0.250000 0.291339
O O10 0.000000 0.174485 0.288116
O O11 0.500000 0.750000 0.547332
O O12 0.250000 0.750000 0.500000
O O13 0.270540 0.820066 0.565942
O O14 0.500000 0.169849 0.952935
O O15 0.274538 0.250000 0.942480
O O16 0.251821 0.126456 0.914435
O O17 0.250000 0.157397 0.000000
O O18 0.500000 0.600509 0.547596
O O19 0.750000 0.595085 0.500000
O O20 0.500000 0.930650 0.888270
O O21 0.750000 0.000000 0.895724
#
# Coordination Sequence:
#
# PCOD9503158 Si02
#       7
#    16  16  16   8  16  16  16
#     4  10  21  38  62  90 120 156 195 240 293 351
#     4  11  24  41  61  85 116 153 192 234 284 339
#     4  10  23  42  63  89 120 153 191 238 290 345
#     4   8  16  30  50  78 110 142 176 216 264 318
#     4  10  21  37  57  82 115 157 203 250 302 356
#     4  10  20  36  58  86 117 150 189 231 279 333
#     4  10  21  37  58  86 119 154 197 246 296 351
#
# _framework density 19.309155000000001
#
# number of rings (size 3 to 8) (size 9 to 14) (size 15 to 20)
#    0.000    2.000    0.000    2.769    1.077    7.385 
#    0.000    6.154    0.000    0.000    0.000    0.000 
#    0.000    0.000    0.000    0.000    0.000    0.000 
#
# Total GULP energy -290129.388653 kJ/mol
# GULP energy per Si atom -5579.411320 kJ/mol
# Density = 1.926521 g / cm^3
# Si number density = 19.309155 Si / 1000 Ang^3
#
#
#
# Elastic Constant Matrix: (Units=GPa)
#
#
# Indices 1 2 3 4 5 6 
#
# 1 40.7626 50.7383 51.0746 0.0000 0.0000 0.0000
# 2 50.7383 184.9101 97.6147 0.0000 0.0000 0.0000
# 3 51.0746 97.6147 133.3192 0.0000 0.0000 0.0000
# 4 0.0000 0.0000 0.0000 36.1452 0.0000 0.0000
# 5 0.0000 0.0000 0.0000 0.0000 27.2694 0.0000
# 6 0.0000 0.0000 0.0000 0.0000 0.0000 33.2393
#
#
#
# Elastic Compliance Matrix: (Units=1/GPa)
#
#
# Indices 1 2 3 4 5 6 
#
# 1 0.050951 -0.005993 -0.015132 0.000000 0.000000 0.000000
# 2 -0.005993 0.009520 -0.004675 0.000000 0.000000 0.000000
# 3 -0.015132 -0.004675 0.016721 0.000000 0.000000 0.000000
# 4 0.000000 0.000000 0.000000 0.027666 0.000000 0.000000
# 5 0.000000 0.000000 0.000000 0.000000 0.036671 0.000000
# 6 0.000000 0.000000 0.000000 0.000000 0.000000 0.030085
#
#
# Mechanical properties :
#
#
# Convention : Reuss Voigt Hill
#
# Bulk Modulus (GPa) = 39.07208 84.20524 61.63866
# Shear Modulus (GPa) = 21.57557 29.96840 25.77199
#
# Velocity S-wave (km/s) = 3.34634 3.94386 3.65732
# Velocity P-wave (km/s) = 5.93377 8.02760 7.05875
#
# Compressibility (1/GPa) = 0.02559372
#
# Stress axis : x y z
#
# Youngs Moduli (GPa) = 19.62665 105.03948 59.80650
#
# Poissons Ratio (x) = 0.62946 0.90497
# Poissons Ratio (y) = 0.11762 0.27958
# Poissons Ratio (z) = 0.29698 0.49104
#
# Static dielectric constant tensor:
#      x y z
#    x 1.644170 0.000000 0.000000 
#    y 0.000000 1.729730 0.000000 
#    z 0.000000 0.000000 1.652600 
# 
# From -- ./inp_files/43590.got.cif
#   From: 2010.05.17/outbox.cif.g08.bks.cpg/sg67_22_cif.got.tgz:43590.got - 2010.06.03 18:28:57.
