data_PCOD9503304
_publ_section_title
;
Structure prediction by ZEFSAII (Michael W. Deem and Ramdas Pophale) SiO2 
 PCOD9503304
Probable space group: C M M A
;
_chemical_formula_sum "Si O2"
_cell_formula_units_Z 96
_cell_length_a 18.424506
_cell_length_b 19.457573
_cell_length_c 14.464870
_cell_angle_alpha 90.000000
_cell_angle_beta 90.000000
_cell_angle_gamma 90.000000
_cell_volume 5185.600502
_symmetry_space_group_name_H-M "C M M A"
_symmetry_group_IT_number 67
_symmetry_cell_setting 'orthorhombic'
loop_
_space_group_symop_operation_xyz
x,y,z
-x,1/2-y,z
x,-y,-z
-x,1/2+y,-z
-x,-y,-z
x,1/2+y,-z
-x,y,z
x,1/2-y,z
1/2+x,1/2+y,z
1/2-x,-y,z
1/2+x,1/2-y,-z
1/2-x,y,-z
1/2-x,1/2-y,-z
1/2+x,y,-z
1/2-x,1/2+y,z
1/2+x,-y,z
loop_
_atom_site_type_symbol
_atom_site_label
_atom_site_fract_x
_atom_site_fract_y
_atom_site_fract_z
Si Si1 0.914888 0.574743 0.255700
Si Si2 0.914212 0.457933 0.405492
Si Si3 0.717437 0.172386 0.245009
Si Si4 0.312659 0.827265 0.426685
Si Si5 0.585271 0.427086 0.032615
Si Si6 0.311259 0.327017 0.923077
O O1 0.897132 0.506361 0.316078
O O2 0.853932 0.631564 0.276225
O O3 0.909324 0.571745 0.143958
O O4 0.000000 0.591356 0.277355
O O5 0.899910 0.500000 0.500000
O O6 0.871216 0.386956 0.415159
O O7 0.000000 0.443923 0.400644
O O8 0.696250 0.250000 0.214332
O O9 0.770698 0.177231 0.330600
O O10 0.767086 0.140940 0.163131
O O11 0.340614 0.750000 0.450198
O O12 0.250000 0.845591 0.500000
O O13 0.500000 0.422597 0.010222
O O14 0.615126 0.500000 0.000000
O O15 0.626266 0.369574 0.973568
O O16 0.336529 0.250000 0.895749
O O17 0.250000 0.320402 0.000000
#
# Coordination Sequence:
#
# PCOD9503304 Si02
#       6
#    16  16  16  16  16  16
#     4  10  21  37  57  83 114 150 191 237 289 345
#     4  10  22  40  61  87 119 152 191 238 286 343
#     4  10  21  37  57  85 117 149 191 241 289 344
#     4  10  22  40  61  87 119 152 190 238 287 342
#     4  10  22  38  55  80 115 149 190 244 292 339
#     4  10  20  37  57  81 114 149 191 240 287 345
#
# _framework density 18.512802000000001
#
# number of rings (size 3 to 8) (size 9 to 14) (size 15 to 20)
#    0.000    2.000    1.667    1.000    2.333    3.667 
#    0.000    1.667    0.000    9.000    0.000    0.000 
#    0.000    0.000    0.000    0.000    0.000    0.000 
#
# Total GULP energy -267300.573459 kJ/mol
# GULP energy per Si atom -5568.761947 kJ/mol
# Density = 1.847067 g / cm^3
# Si number density = 18.512802 Si / 1000 Ang^3
#
#
#
# Elastic Constant Matrix: (Units=GPa)
#
#
# Indices 1 2 3 4 5 6 
#
# 1 80.0877 80.9677 31.8349 0.0000 0.0000 0.0000
# 2 80.9677 122.2140 22.7605 0.0000 0.0000 0.0000
# 3 31.8349 22.7605 74.8436 0.0000 0.0000 0.0000
# 4 0.0000 0.0000 0.0000 26.7638 0.0000 0.0000
# 5 0.0000 0.0000 0.0000 0.0000 29.6706 0.0000
# 6 0.0000 0.0000 0.0000 0.0000 0.0000 -4.0108
#
#
#
# Elastic Compliance Matrix: (Units=1/GPa)
#
#
# Indices 1 2 3 4 5 6 
#
# 1 0.044505 -0.027518 -0.010562 0.000000 0.000000 0.000000
# 2 -0.027518 0.025688 0.003893 0.000000 0.000000 0.000000
# 3 -0.010562 0.003893 0.016670 0.000000 0.000000 0.000000
# 4 0.000000 0.000000 0.000000 0.037364 0.000000 0.000000
# 5 0.000000 0.000000 0.000000 0.000000 0.033703 0.000000
# 6 0.000000 0.000000 0.000000 0.000000 0.000000 -0.249324
#
#
# Mechanical properties :
#
#
# Convention : Reuss Voigt Hill
#
# Bulk Modulus (GPa) = 54.08583 60.91905 57.50244
# Shear Modulus (GPa) = -296.59164 19.92353 -138.33405
#
# Velocity S-wave (km/s) = -12.67110 3.28411 -8.65365
# Velocity P-wave (km/s) = 13.59400 6.88174 8.28971
#
# Compressibility (1/GPa) = 0.01848913
#
# Stress axis : x y z
#
# Youngs Moduli (GPa) = 22.46958 38.92860 59.98853
#
# Poissons Ratio (x) = 1.07122 0.63359
# Poissons Ratio (y) = 0.61831 -0.23352
# Poissons Ratio (z) = 0.23732 -0.15154
#
# Static dielectric constant tensor:
#      x y z
#    x 1.631290 0.000000 0.000000 
#    y 0.000000 1.721970 0.000000 
#    z 0.000000 0.000000 2.378390 
# 
# From -- ./inp_files/27135.got.cif
#   From: 2010.05.17/outbox.cif.g08.bks.cpg/sg67_14_cif.got.tgz:27135.got - 2010.06.03 18:28:57.
