data_PCOD9503592
_publ_section_title
;
Structure prediction by ZEFSAII (Michael W. Deem and Ramdas Pophale) SiO2 
 PCOD9503592
Probable space group: C M M A
;
_chemical_formula_sum "Si O2"
_cell_formula_units_Z 88
_cell_length_a 20.674862
_cell_length_b 14.209393
_cell_length_c 16.397945
_cell_angle_alpha 90.000000
_cell_angle_beta 90.000000
_cell_angle_gamma 90.000000
_cell_volume 4817.343014
_symmetry_space_group_name_H-M "C M M A"
_symmetry_group_IT_number 67
_symmetry_cell_setting 'orthorhombic'
loop_
_space_group_symop_operation_xyz
x,y,z
-x,1/2-y,z
x,-y,-z
-x,1/2+y,-z
-x,-y,-z
x,1/2+y,-z
-x,y,z
x,1/2-y,z
1/2+x,1/2+y,z
1/2-x,-y,z
1/2+x,1/2-y,-z
1/2-x,y,-z
1/2-x,1/2-y,-z
1/2+x,y,-z
1/2-x,1/2+y,z
1/2+x,-y,z
loop_
_atom_site_type_symbol
_atom_site_label
_atom_site_fract_x
_atom_site_fract_y
_atom_site_fract_z
Si Si1 0.750000 0.000000 0.212780
Si Si2 0.874461 0.524008 0.307114
Si Si3 0.572027 0.356512 0.596257
Si Si4 0.573680 0.136885 0.151348
Si Si5 0.818106 0.360204 0.540409
Si Si6 0.705769 0.637583 0.923225
O O1 0.688214 0.977658 0.266437
O O2 0.735208 0.088255 0.155647
O O3 0.919163 0.440886 0.340525
O O4 0.907899 0.586792 0.236857
O O5 0.845180 0.584833 0.381550
O O6 0.500000 0.362550 0.559667
O O7 0.578736 0.250000 0.630632
O O8 0.627024 0.368055 0.528568
O O9 0.500000 0.112304 0.128244
O O10 0.576512 0.250000 0.163002
O O11 0.629218 0.112653 0.084328
O O12 0.810010 0.250000 0.562300
O O13 0.750000 0.391342 0.500000
O O14 0.709909 0.750000 0.918402
O O15 0.750000 0.608596 0.000000
#
# Coordination Sequence:
#
# PCOD9503592 Si02
#       6
#     8  16  16  16  16  16
#     4  10  21  32  51  80 106 130 166 210 251 300
#     4  11  20  32  52  75 102 138 173 212 264 313
#     4  10  22  37  51  70  99 138 181 221 261 306
#     4   9  18  32  52  81 110 132 163 210 260 309
#     4  10  21  36  53  74 101 134 177 225 267 311
#     4   9  18  34  56  79 104 136 169 201 244 300
#
# _framework density 18.267330999999999
#
# number of rings (size 3 to 8) (size 9 to 14) (size 15 to 20)
#    0.000    2.182    0.000    3.000    0.000    4.364 
#    0.000    1.818    0.000    9.818    0.000    2.545 
#    0.000    0.000    0.000    0.000    0.000    0.000 
#
# Total GULP energy -245269.424483 kJ/mol
# GULP energy per Si atom -5574.305102 kJ/mol
# Density = 1.822575 g / cm^3
# Si number density = 18.267331 Si / 1000 Ang^3
#
#
#
# Elastic Constant Matrix: (Units=GPa)
#
#
# Indices 1 2 3 4 5 6 
#
# 1 163.7942 45.4494 52.8332 0.0000 0.0000 0.0000
# 2 45.4494 58.7943 31.4930 0.0000 0.0000 0.0000
# 3 52.8332 31.4930 62.3507 0.0000 0.0000 0.0000
# 4 0.0000 0.0000 0.0000 19.8406 0.0000 0.0000
# 5 0.0000 0.0000 0.0000 0.0000 46.4855 0.0000
# 6 0.0000 0.0000 0.0000 0.0000 0.0000 14.1653
#
#
#
# Elastic Compliance Matrix: (Units=1/GPa)
#
#
# Indices 1 2 3 4 5 6 
#
# 1 0.009024 -0.003948 -0.005652 0.000000 0.000000 0.000000
# 2 -0.003948 0.025044 -0.009304 0.000000 0.000000 0.000000
# 3 -0.005652 -0.009304 0.025527 0.000000 0.000000 0.000000
# 4 0.000000 0.000000 0.000000 0.050402 0.000000 0.000000
# 5 0.000000 0.000000 0.000000 0.000000 0.021512 0.000000
# 6 0.000000 0.000000 0.000000 0.000000 0.000000 0.070595
#
#
# Mechanical properties :
#
#
# Convention : Reuss Voigt Hill
#
# Bulk Modulus (GPa) = 45.90066 60.49894 53.19980
# Shear Modulus (GPa) = 20.22853 26.44253 23.33553
#
# Velocity S-wave (km/s) = 3.33131 3.80877 3.57802
# Velocity P-wave (km/s) = 6.32286 7.24796 6.80116
#
# Compressibility (1/GPa) = 0.02178618
#
# Stress axis : x y z
#
# Youngs Moduli (GPa) = 110.81639 39.92946 39.17369
#
# Poissons Ratio (x) = 0.15764 0.22142
# Poissons Ratio (y) = 0.43751 0.36448
# Poissons Ratio (z) = 0.62637 0.37151
#
# Static dielectric constant tensor:
#      x y z
#    x 1.697040 0.000000 0.000000 
#    y 0.000000 1.638950 0.000000 
#    z 0.000000 0.000000 1.610010 
# 
# From -- ./inp_files/27038.got.cif
#   From: 2010.05.17/outbox.cif.g08.bks.cpg/sg67_14_cif.got.tgz:27038.got - 2010.06.03 18:28:57.
