data_PCOD9503640
_publ_section_title
;
Structure prediction by ZEFSAII (Michael W. Deem and Ramdas Pophale) SiO2 
 PCOD9503640
Probable space group: C M M A
;
_chemical_formula_sum "Si O2"
_cell_formula_units_Z 120
_cell_length_a 30.805656
_cell_length_b 13.802783
_cell_length_c 14.951173
_cell_angle_alpha 90.000000
_cell_angle_beta 90.000000
_cell_angle_gamma 90.000000
_cell_volume 6357.295349
_symmetry_space_group_name_H-M "C M M A"
_symmetry_group_IT_number 67
_symmetry_cell_setting 'orthorhombic'
loop_
_space_group_symop_operation_xyz
x,y,z
-x,1/2-y,z
x,-y,-z
-x,1/2+y,-z
-x,-y,-z
x,1/2+y,-z
-x,y,z
x,1/2-y,z
1/2+x,1/2+y,z
1/2-x,-y,z
1/2+x,1/2-y,-z
1/2-x,y,-z
1/2-x,1/2-y,-z
1/2+x,y,-z
1/2-x,1/2+y,z
1/2+x,-y,z
loop_
_atom_site_type_symbol
_atom_site_label
_atom_site_fract_x
_atom_site_fract_y
_atom_site_fract_z
Si Si1 0.668662 0.861369 0.563225
Si Si2 0.081031 0.858890 0.318474
Si Si3 0.201275 0.476474 0.717456
Si Si4 0.142537 0.861894 0.150967
Si Si5 0.857467 0.636321 0.638366
Si Si6 0.049978 0.636949 0.880491
Si Si7 0.109835 0.500000 0.000000
Si Si8 0.547587 0.067642 0.674911
O O1 0.682505 0.750000 0.571045
O O2 0.622103 0.869298 0.614138
O O3 0.700750 0.927047 0.619755
O O4 0.662175 0.883402 0.459664
O O5 0.063124 0.750000 0.330111
O O6 0.101025 0.866251 0.218306
O O7 0.051073 0.951412 0.332695
O O8 0.250000 0.500000 0.742790
O O9 0.181132 0.400728 0.786947
O O10 0.168129 0.567390 0.707538
O O11 0.148264 0.750000 0.125189
O O12 0.136450 0.932733 0.067879
O O13 0.852680 0.750000 0.659286
O O14 0.908605 0.610960 0.632978
O O15 0.062848 0.750000 0.881801
O O16 0.050753 0.599083 0.778696
O O17 0.000000 0.630558 0.911576
O O18 0.080194 0.571446 0.941269
O O19 0.500000 0.100107 0.641379
#
# Coordination Sequence:
#
# PCOD9503640 Si02
#       8
#    16  16  16  16  16  16   8  16
#     4   9  19  36  60  82 116 152 188 244 297 343
#     4   9  17  35  57  79 110 154 193 236 294 343
#     4  11  22  39  64  88 115 154 194 236 299 370
#     4  10  21  38  62  88 118 151 188 237 296 359
#     4  11  22  36  55  87 121 156 202 250 295 346
#     4  10  21  35  51  78 117 153 193 249 301 346
#     4  12  19  36  63  88 108 148 202 236 296 362
#     4  11  21  36  57  81 116 162 205 247 293 350
#
# _framework density 18.875952000000002
#
# number of rings (size 3 to 8) (size 9 to 14) (size 15 to 20)
#    0.000    1.733    4.000    2.600    0.000    3.200 
#    0.000    3.667    0.000    3.200    0.000    0.000 
#    0.000    0.000    0.000    0.000    0.000    0.000 
#
# Total GULP energy -334861.725410 kJ/mol
# GULP energy per Si atom -5581.028757 kJ/mol
# Density = 1.883299 g / cm^3
# Si number density = 18.875952 Si / 1000 Ang^3
#
#
#
# Elastic Constant Matrix: (Units=GPa)
#
#
# Indices 1 2 3 4 5 6 
#
# 1 40.8462 20.2733 -8.1039 0.0000 0.0000 0.0000
# 2 20.2733 106.8725 23.0377 0.0000 0.0000 0.0000
# 3 -8.1039 23.0377 30.6595 0.0000 0.0000 0.0000
# 4 0.0000 0.0000 0.0000 30.2482 0.0000 0.0000
# 5 0.0000 0.0000 0.0000 0.0000 9.7911 0.0000
# 6 0.0000 0.0000 0.0000 0.0000 0.0000 13.2834
#
#
#
# Elastic Compliance Matrix: (Units=1/GPa)
#
#
# Indices 1 2 3 4 5 6 
#
# 1 0.032316 -0.009512 0.015689 0.000000 0.000000 0.000000
# 2 -0.009512 0.013965 -0.013008 0.000000 0.000000 0.000000
# 3 0.015689 -0.013008 0.046537 0.000000 0.000000 0.000000
# 4 0.000000 0.000000 0.000000 0.033060 0.000000 0.000000
# 5 0.000000 0.000000 0.000000 0.000000 0.102133 0.000000
# 6 0.000000 0.000000 0.000000 0.000000 0.000000 0.075282
#
#
# Mechanical properties :
#
#
# Convention : Reuss Voigt Hill
#
# Bulk Modulus (GPa) = 12.63307 27.64358 20.13833
# Shear Modulus (GPa) = 14.56277 20.20930 17.38603
#
# Velocity S-wave (km/s) = 2.78060 3.27561 3.03820
# Velocity P-wave (km/s) = 4.12507 5.38357 4.79578
#
# Compressibility (1/GPa) = 0.07915731
#
# Stress axis : x y z
#
# Youngs Moduli (GPa) = 30.94433 71.60556 21.48805
#
# Poissons Ratio (x) = 0.68113 -0.33713
# Poissons Ratio (y) = 0.29435 0.27951
# Poissons Ratio (z) = -0.48550 0.93144
#
# Static dielectric constant tensor:
#      x y z
#    x 1.665000 0.000000 0.000000 
#    y 0.000000 1.674900 0.000000 
#    z 0.000000 0.000000 1.645640 
# 
# From -- ./inp_files/31256.got.cif
#   From: 2010.05.17/outbox.cif.g08.bks.cpg/sg67_16_cif.got.tgz:31256.got - 2010.06.03 18:28:57.
