data_PCOD9503810
_publ_section_title
;
Structure prediction by ZEFSAII (Michael W. Deem and Ramdas Pophale) SiO2 
 PCOD9503810
Probable space group: C M M A
;
_chemical_formula_sum "Si O2"
_cell_formula_units_Z 52
_cell_length_a 32.730726
_cell_length_b 14.048096
_cell_length_c 5.304278
_cell_angle_alpha 90.000000
_cell_angle_beta 90.000000
_cell_angle_gamma 90.000000
_cell_volume 2438.930262
_symmetry_space_group_name_H-M "C M M A"
_symmetry_group_IT_number 67
_symmetry_cell_setting 'orthorhombic'
loop_
_space_group_symop_operation_xyz
x,y,z
-x,1/2-y,z
x,-y,-z
-x,1/2+y,-z
-x,-y,-z
x,1/2+y,-z
-x,y,z
x,1/2-y,z
1/2+x,1/2+y,z
1/2-x,-y,z
1/2+x,1/2-y,-z
1/2-x,y,-z
1/2-x,1/2-y,-z
1/2+x,y,-z
1/2-x,1/2+y,z
1/2+x,-y,z
loop_
_atom_site_type_symbol
_atom_site_label
_atom_site_fract_x
_atom_site_fract_y
_atom_site_fract_z
Si Si1 0.044245 0.564262 0.250471
Si Si2 0.866032 0.862121 0.325375
Si Si3 0.317861 0.633843 0.179396
Si Si4 0.750000 0.000000 0.000000
O O1 0.042703 0.500000 0.500000
O O2 0.086273 0.619848 0.280167
O O3 0.000000 0.615999 0.235948
O O4 0.047067 0.500000 0.000000
O O5 0.860675 0.750000 0.339518
O O6 0.847161 0.896038 0.589629
O O7 0.840526 0.891579 0.081437
O O8 0.310796 0.750000 0.186749
O O9 0.276989 0.571512 0.170789
#
# Coordination Sequence:
#
# PCOD9503810 Si02
#       4
#    16  16  16   4
#     4  10  21  36  59  92 126 159 202 251 293 355
#     4  10  22  41  62  88 124 163 200 253 309 362
#     4  10  24  42  62  92 125 157 208 262 308 375
#     4  12  26  42  68  92 118 170 206 258 336 376
#
# _framework density 21.320823000000001
#
# number of rings (size 3 to 8) (size 9 to 14) (size 15 to 20)
#    0.000    1.846    0.000    2.308    6.462    3.077 
#    0.000    4.615    0.000   11.077    0.000    0.000 
#    0.000    0.000    0.000    0.000    0.000    0.000 
#
# Total GULP energy -145157.697834 kJ/mol
# GULP energy per Si atom -5582.988378 kJ/mol
# Density = 2.127230 g / cm^3
# Si number density = 21.320823 Si / 1000 Ang^3
#
#
#
# Elastic Constant Matrix: (Units=GPa)
#
#
# Indices 1 2 3 4 5 6 
#
# 1 139.4018 20.4017 52.7973 0.0000 0.0000 0.0000
# 2 20.4017 51.9431 21.1836 0.0000 0.0000 0.0000
# 3 52.7973 21.1836 170.1767 0.0000 0.0000 0.0000
# 4 0.0000 0.0000 0.0000 15.7026 0.0000 0.0000
# 5 0.0000 0.0000 0.0000 0.0000 87.1654 0.0000
# 6 0.0000 0.0000 0.0000 0.0000 0.0000 28.7831
#
#
#
# Elastic Compliance Matrix: (Units=1/GPa)
#
#
# Indices 1 2 3 4 5 6 
#
# 1 0.008393 -0.002354 -0.002311 0.000000 0.000000 0.000000
# 2 -0.002354 0.020942 -0.001876 0.000000 0.000000 0.000000
# 3 -0.002311 -0.001876 0.006827 0.000000 0.000000 0.000000
# 4 0.000000 0.000000 0.000000 0.063684 0.000000 0.000000
# 5 0.000000 0.000000 0.000000 0.000000 0.011472 0.000000
# 6 0.000000 0.000000 0.000000 0.000000 0.000000 0.034743
#
#
# Mechanical properties :
#
#
# Convention : Reuss Voigt Hill
#
# Bulk Modulus (GPa) = 43.33004 61.14297 52.23651
# Shear Modulus (GPa) = 29.96944 44.13949 37.05447
#
# Velocity S-wave (km/s) = 3.75326 4.55494 4.17339
# Velocity P-wave (km/s) = 6.25696 7.51020 6.91204
#
# Compressibility (1/GPa) = 0.02307868
#
# Stress axis : x y z
#
# Youngs Moduli (GPa) = 119.14253 47.75148 146.48133
#
# Poissons Ratio (x) = 0.11241 0.33851
# Poissons Ratio (y) = 0.28048 0.27487
# Poissons Ratio (z) = 0.27534 0.08960
#
# Static dielectric constant tensor:
#      x y z
#    x 1.838390 0.000000 0.000000 
#    y 0.000000 1.787220 0.000000 
#    z 0.000000 0.000000 1.784430 
# 
# From -- ./inp_files/1378.got.cif
#   From: 2010.05.17/outbox.cif.g08.bks.cpg/sg67_1_cif.got.tgz:1378.got - 2010.06.03 18:28:57.
