data_PCOD9503404
_publ_section_title
;
Structure prediction by ZEFSAII (Michael W. Deem and Ramdas Pophale) SiO2 
 PCOD9503404
Probable space group: C M M A
;
_chemical_formula_sum "Si O2"
_cell_formula_units_Z 108
_cell_length_a 13.511660
_cell_length_b 23.448509
_cell_length_c 13.643660
_cell_angle_alpha 90.000000
_cell_angle_beta 90.000000
_cell_angle_gamma 90.000000
_cell_volume 4322.697346
_symmetry_space_group_name_H-M "C M M A"
_symmetry_group_IT_number 67
_symmetry_cell_setting 'orthorhombic'
loop_
_space_group_symop_operation_xyz
x,y,z
-x,1/2-y,z
x,-y,-z
-x,1/2+y,-z
-x,-y,-z
x,1/2+y,-z
-x,y,z
x,1/2-y,z
1/2+x,1/2+y,z
1/2-x,-y,z
1/2+x,1/2-y,-z
1/2-x,y,-z
1/2-x,1/2-y,-z
1/2+x,y,-z
1/2-x,1/2+y,z
1/2+x,-y,z
loop_
_atom_site_type_symbol
_atom_site_label
_atom_site_fract_x
_atom_site_fract_y
_atom_site_fract_z
Si Si1 0.881910 0.159502 0.832190
Si Si2 0.830439 0.335764 0.604880
Si Si3 0.890369 0.971612 0.180218
Si Si4 0.381868 0.096939 0.852750
Si Si5 0.355353 0.030728 0.405209
Si Si6 0.250000 0.336945 0.000000
Si Si7 0.500000 0.750000 0.545778
Si Si8 0.383143 0.183617 0.672286
O O1 0.858279 0.174951 0.720235
O O2 0.813107 0.190131 0.911501
O O3 0.000000 0.166513 0.847793
O O4 0.852815 0.092023 0.839926
O O5 0.846065 0.401965 0.579271
O O6 0.912195 0.298413 0.551621
O O7 0.712677 0.323185 0.601863
O O8 0.843515 0.031990 0.152299
O O9 0.000000 0.971241 0.134772
O O10 0.900025 0.976042 0.297958
O O11 0.500000 0.094692 0.862792
O O12 0.333735 0.127586 0.944064
O O13 0.364777 0.135793 0.755992
O O14 0.399849 0.000000 0.500000
O O15 0.250000 0.000000 0.395055
O O16 0.500000 0.176633 0.641485
O O17 0.378820 0.250000 0.706881
#
# Coordination Sequence:
#
# PCOD9503404 Si02
#       8
#    16  16  16  16  16   8   4  16
#     4  10  21  36  55  85 127 173 225 282 345 424
#     4  11  21  41  68 102 143 187 238 289 349 428
#     4   9  20  37  57  85 123 166 214 272 346 425
#     4  10  21  36  54  83 120 164 220 281 344 421
#     4  10  22  39  67 105 139 177 225 286 358 425
#     4  12  22  33  55  82 120 174 213 292 357 400
#     4  12  24  40  76 108 144 198 242 282 358 428
#     4  10  20  37  63  91 125 176 236 291 338 407
#
# _framework density 24.984399
#
# number of rings (size 3 to 8) (size 9 to 14) (size 15 to 20)
#    0.000    1.778    2.963    1.333    3.111    1.481 
#    0.000    2.593    1.630    3.111    1.926    0.000 
#    0.000    0.000    0.000    0.000    0.000    0.000 
#
# Total GULP energy -301290.435644 kJ/mol
# GULP energy per Si atom -5579.452512 kJ/mol
# Density = 2.492753 g / cm^3
# Si number density = 24.984399 Si / 1000 Ang^3
#
#
#
# Elastic Constant Matrix: (Units=GPa)
#
#
# Indices 1 2 3 4 5 6 
#
# 1 181.2900 53.1752 46.3800 0.0000 0.0000 0.0000
# 2 53.1752 175.8596 31.6945 0.0000 0.0000 0.0000
# 3 46.3800 31.6945 101.1894 0.0000 0.0000 0.0000
# 4 0.0000 0.0000 0.0000 17.1555 0.0000 0.0000
# 5 0.0000 0.0000 0.0000 0.0000 41.5064 0.0000
# 6 0.0000 0.0000 0.0000 0.0000 0.0000 17.6962
#
#
#
# Elastic Compliance Matrix: (Units=1/GPa)
#
#
# Indices 1 2 3 4 5 6 
#
# 1 0.006621 -0.001542 -0.002552 0.000000 0.000000 0.000000
# 2 -0.001542 0.006386 -0.001293 0.000000 0.000000 0.000000
# 3 -0.002552 -0.001293 0.011457 0.000000 0.000000 0.000000
# 4 0.000000 0.000000 0.000000 0.058290 0.000000 0.000000
# 5 0.000000 0.000000 0.000000 0.000000 0.024093 0.000000
# 6 0.000000 0.000000 0.000000 0.000000 0.000000 0.056509
#
#
# Mechanical properties :
#
#
# Convention : Reuss Voigt Hill
#
# Bulk Modulus (GPa) = 73.04809 80.09316 76.57063
# Shear Modulus (GPa) = 27.98074 37.07756 32.52915
#
# Velocity S-wave (km/s) = 3.35016 3.85649 3.61221
# Velocity P-wave (km/s) = 6.65325 7.20811 6.93623
#
# Compressibility (1/GPa) = 0.01368961
#
# Stress axis : x y z
#
# Youngs Moduli (GPa) = 151.03004 156.59868 87.28176
#
# Poissons Ratio (x) = 0.24150 0.22272
# Poissons Ratio (y) = 0.23291 0.11288
# Poissons Ratio (z) = 0.38540 0.20253
#
# Static dielectric constant tensor:
#      x y z
#    x 1.975110 0.000000 0.000000 
#    y 0.000000 0.680990 0.000000 
#    z 0.000000 0.000000 2.031370 
# 
# From -- ./inp_files/27614.got.cif
#   From: 2010.05.17/outbox.cif.g08.bks.cpg/sg67_14_cif.got.tgz:27614.got - 2010.06.03 18:28:57.
