data_PCOD9503802
_publ_section_title
;
Structure prediction by ZEFSAII (Michael W. Deem and Ramdas Pophale) SiO2 
 PCOD9503802
Probable space group: C M M A
;
_chemical_formula_sum "Si O2"
_cell_formula_units_Z 112
_cell_length_a 15.383116
_cell_length_b 15.755978
_cell_length_c 23.447226
_cell_angle_alpha 90.000000
_cell_angle_beta 90.000000
_cell_angle_gamma 90.000000
_cell_volume 5683.045723
_symmetry_space_group_name_H-M "C M M A"
_symmetry_group_IT_number 67
_symmetry_cell_setting 'orthorhombic'
loop_
_space_group_symop_operation_xyz
x,y,z
-x,1/2-y,z
x,-y,-z
-x,1/2+y,-z
-x,-y,-z
x,1/2+y,-z
-x,y,z
x,1/2-y,z
1/2+x,1/2+y,z
1/2-x,-y,z
1/2+x,1/2-y,-z
1/2-x,y,-z
1/2-x,1/2-y,-z
1/2+x,y,-z
1/2-x,1/2+y,z
1/2+x,-y,z
loop_
_atom_site_type_symbol
_atom_site_label
_atom_site_fract_x
_atom_site_fract_y
_atom_site_fract_z
Si Si1 0.871764 0.654817 0.547547
Si Si2 0.331336 0.844903 0.579827
Si Si3 0.794418 0.846826 0.855931
Si Si4 0.400332 0.462695 0.938363
Si Si5 0.095493 0.006195 0.366194
Si Si6 0.404803 0.604218 0.841072
Si Si7 0.652501 0.466441 0.755790
O O1 0.903915 0.750000 0.561586
O O2 0.769114 0.656695 0.561555
O O3 0.882661 0.641572 0.479752
O O4 0.904117 0.576299 0.584306
O O5 0.353040 0.750000 0.602246
O O6 0.344206 0.925686 0.620031
O O7 0.820237 0.750000 0.861711
O O8 0.830076 0.899331 0.910423
O O9 0.689603 0.851281 0.846360
O O10 0.840305 0.890370 0.801120
O O11 0.500000 0.426962 0.941375
O O12 0.404479 0.541244 0.894963
O O13 0.377117 0.500000 0.000000
O O14 0.000000 0.968202 0.361767
O O15 0.117410 0.051522 0.306708
O O16 0.500000 0.648182 0.840386
O O17 0.399009 0.543025 0.785946
O O18 0.750000 0.500000 0.749036
#
# Coordination Sequence:
#
# PCOD9503802 Si02
#       7
#    16  16  16  16  16  16  16
#     4   9  19  36  56  77 103 140 184 226 273 333
#     4   9  19  37  58  77 101 137 183 232 276 327
#     4  10  21  36  58  88 116 146 186 234 289 339
#     4   9  18  35  59  83 111 153 199 236 270 316
#     4  12  23  33  52  82 112 143 179 224 284 347
#     4   9  18  35  57  80 112 152 188 225 275 336
#     4   9  19  37  57  75 102 144 191 230 267 325
#
# _framework density 19.707743000000001
#
# number of rings (size 3 to 8) (size 9 to 14) (size 15 to 20)
#    0.000    2.429    0.000    4.286    0.000    5.714 
#    0.000    7.143    0.000    6.000    0.000    0.000 
#    0.000    0.000    0.000    0.000    0.000    0.000 
#
# Total GULP energy -312032.251942 kJ/mol
# GULP energy per Si atom -5572.004499 kJ/mol
# Density = 1.966289 g / cm^3
# Si number density = 19.707743 Si / 1000 Ang^3
#
#
#
# Elastic Constant Matrix: (Units=GPa)
#
#
# Indices 1 2 3 4 5 6 
#
# 1 82.8712 27.5122 23.2072 0.0000 0.0000 0.0000
# 2 27.5122 95.5069 35.8249 0.0000 0.0000 0.0000
# 3 23.2072 35.8249 77.4742 0.0000 0.0000 0.0000
# 4 0.0000 0.0000 0.0000 9.8740 0.0000 0.0000
# 5 0.0000 0.0000 0.0000 0.0000 51.4205 0.0000
# 6 0.0000 0.0000 0.0000 0.0000 0.0000 45.1922
#
#
#
# Elastic Compliance Matrix: (Units=1/GPa)
#
#
# Indices 1 2 3 4 5 6 
#
# 1 0.013821 -0.002938 -0.002782 0.000000 0.000000 0.000000
# 2 -0.002938 0.013292 -0.005266 0.000000 0.000000 0.000000
# 3 -0.002782 -0.005266 0.016176 0.000000 0.000000 0.000000
# 4 0.000000 0.000000 0.000000 0.101276 0.000000 0.000000
# 5 0.000000 0.000000 0.000000 0.000000 0.019448 0.000000
# 6 0.000000 0.000000 0.000000 0.000000 0.000000 0.022128
#
#
# Mechanical properties :
#
#
# Convention : Reuss Voigt Hill
#
# Bulk Modulus (GPa) = 46.90984 47.66010 47.28497
# Shear Modulus (GPa) = 23.23223 32.58454 27.90838
#
# Velocity S-wave (km/s) = 3.43715 4.07060 3.76721
# Velocity P-wave (km/s) = 6.29336 6.80654 6.55497
#
# Compressibility (1/GPa) = 0.02131749
#
# Stress axis : x y z
#
# Youngs Moduli (GPa) = 72.35237 75.23190 61.82013
#
# Poissons Ratio (x) = 0.22103 0.17196
# Poissons Ratio (y) = 0.21257 0.32557
# Poissons Ratio (z) = 0.20125 0.39620
#
# Static dielectric constant tensor:
#      x y z
#    x 1.773590 0.000000 0.000000 
#    y 0.000000 1.685020 0.000000 
#    z 0.000000 0.000000 1.702530 
# 
# From -- ./inp_files/42006.got.cif
#   From: 2010.05.17/outbox.cif.g08.bks.cpg/sg67_22_cif.got.tgz:42006.got - 2010.06.03 18:28:57.
