data_PCOD9503239
_publ_section_title
;
Structure prediction by ZEFSAII (Michael W. Deem and Ramdas Pophale) SiO2 
 PCOD9503239
Probable space group: C M M A
;
_chemical_formula_sum "Si O2"
_cell_formula_units_Z 116
_cell_length_a 27.808114
_cell_length_b 23.975915
_cell_length_c 9.067051
_cell_angle_alpha 90.000000
_cell_angle_beta 90.000000
_cell_angle_gamma 90.000000
_cell_volume 6045.229375
_symmetry_space_group_name_H-M "C M M A"
_symmetry_group_IT_number 67
_symmetry_cell_setting 'orthorhombic'
loop_
_space_group_symop_operation_xyz
x,y,z
-x,1/2-y,z
x,-y,-z
-x,1/2+y,-z
-x,-y,-z
x,1/2+y,-z
-x,y,z
x,1/2-y,z
1/2+x,1/2+y,z
1/2-x,-y,z
1/2+x,1/2-y,-z
1/2-x,y,-z
1/2-x,1/2-y,-z
1/2+x,y,-z
1/2-x,1/2+y,z
1/2+x,-y,z
loop_
_atom_site_type_symbol
_atom_site_label
_atom_site_fract_x
_atom_site_fract_y
_atom_site_fract_z
Si Si1 0.446031 0.111748 0.821574
Si Si2 0.056083 0.508396 0.330418
Si Si3 0.290680 0.390909 0.112440
Si Si4 0.889589 0.183841 0.390465
Si Si5 0.750000 0.500000 0.000000
Si Si6 0.201482 0.684759 0.404711
Si Si7 0.053170 0.816049 0.327952
Si Si8 0.399343 0.898489 0.874111
O O1 0.500000 0.135124 0.800405
O O2 0.443170 0.052222 0.742525
O O3 0.404507 0.150774 0.754416
O O4 0.436469 0.100848 0.992612
O O5 0.071211 0.500000 0.500000
O O6 0.089118 0.550333 0.236269
O O7 0.000000 0.528064 0.330089
O O8 0.276907 0.456698 0.108667
O O9 0.292080 0.356611 0.265460
O O10 0.345922 0.393804 0.061651
O O11 0.250000 0.366630 0.000000
O O12 0.886845 0.250000 0.361956
O O13 0.841884 0.168520 0.483505
O O14 0.932977 0.171733 0.504308
O O15 0.192712 0.750000 0.358864
O O16 0.250000 0.683775 0.500000
O O17 0.054322 0.750000 0.310518
O O18 0.091304 0.843949 0.222656
O O19 0.000000 0.836876 0.293198
#
# Coordination Sequence:
#
# PCOD9503239 Si02
#       8
#    16  16  16  16   4  16  16  16
#     4  11  24  37  57  90 125 168 215 257 312 375
#     4  10  22  39  60  88 122 163 215 263 308 371
#     4  10  24  43  66  92 130 168 213 271 332 396
#     4  10  21  39  62  91 126 164 212 262 321 388
#     4   8  24  44  60  92 130 172 214 262 332 396
#     4  10  22  43  70  99 124 157 214 276 329 388
#     4  10  20  36  60  88 122 163 207 258 316 383
#     4  12  23  39  63  90 125 170 210 262 322 384
#
# _framework density 19.188685
#
# number of rings (size 3 to 8) (size 9 to 14) (size 15 to 20)
#    0.414    1.241    1.379    2.897    3.862    3.862 
#    0.000    0.345    0.000    0.000    0.000    0.000 
#    0.000    0.000    0.000    0.000    0.000    0.000 
#
# Total GULP energy -323264.087479 kJ/mol
# GULP energy per Si atom -5573.518750 kJ/mol
# Density = 1.914501 g / cm^3
# Si number density = 19.188685 Si / 1000 Ang^3
#
#
#
# Elastic Constant Matrix: (Units=GPa)
#
#
# Indices 1 2 3 4 5 6 
#
# 1 111.5025 23.5212 31.5736 0.0000 0.0000 0.0000
# 2 23.5212 47.8331 49.8155 0.0000 0.0000 0.0000
# 3 31.5736 49.8155 103.0594 0.0000 0.0000 0.0000
# 4 0.0000 0.0000 0.0000 36.9577 0.0000 0.0000
# 5 0.0000 0.0000 0.0000 0.0000 21.6105 0.0000
# 6 0.0000 0.0000 0.0000 0.0000 0.0000 19.7854
#
#
#
# Elastic Compliance Matrix: (Units=1/GPa)
#
#
# Indices 1 2 3 4 5 6 
#
# 1 0.010105 -0.003514 -0.001397 0.000000 0.000000 0.000000
# 2 -0.003514 0.043320 -0.019863 0.000000 0.000000 0.000000
# 3 -0.001397 -0.019863 0.019732 0.000000 0.000000 0.000000
# 4 0.000000 0.000000 0.000000 0.027058 0.000000 0.000000
# 5 0.000000 0.000000 0.000000 0.000000 0.046274 0.000000
# 6 0.000000 0.000000 0.000000 0.000000 0.000000 0.050542
#
#
# Mechanical properties :
#
#
# Convention : Reuss Voigt Hill
#
# Bulk Modulus (GPa) = 42.35613 52.46843 47.41228
# Shear Modulus (GPa) = 19.65020 26.16969 22.90994
#
# Velocity S-wave (km/s) = 3.20355 3.69698 3.45908
# Velocity P-wave (km/s) = 5.98373 6.75473 6.38089
#
# Compressibility (1/GPa) = 0.02360934
#
# Stress axis : x y z
#
# Youngs Moduli (GPa) = 98.95750 23.08396 50.67805
#
# Poissons Ratio (x) = 0.08111 0.07082
# Poissons Ratio (y) = 0.34771 1.00662
# Poissons Ratio (z) = 0.13829 0.45852
#
# Static dielectric constant tensor:
#      x y z
#    x 1.736770 0.000000 0.000000 
#    y 0.000000 1.667290 0.000000 
#    z 0.000000 0.000000 1.702760 
# 
# From -- ./inp_files/14030.got.cif
#   From: 2010.05.17/outbox.cif.g08.bks.cpg/sg67_8_cif.got.tgz:14030.got - 2010.06.03 18:28:57.
