data_PCOD9503537
_publ_section_title
;
Structure prediction by ZEFSAII (Michael W. Deem and Ramdas Pophale) SiO2 
 PCOD9503537
Probable space group: C M M A
;
_chemical_formula_sum "Si O2"
_cell_formula_units_Z 96
_cell_length_a 19.061902
_cell_length_b 19.396672
_cell_length_c 11.936148
_cell_angle_alpha 90.000000
_cell_angle_beta 90.000000
_cell_angle_gamma 90.000000
_cell_volume 4413.241053
_symmetry_space_group_name_H-M "C M M A"
_symmetry_group_IT_number 67
_symmetry_cell_setting 'orthorhombic'
loop_
_space_group_symop_operation_xyz
x,y,z
-x,1/2-y,z
x,-y,-z
-x,1/2+y,-z
-x,-y,-z
x,1/2+y,-z
-x,y,z
x,1/2-y,z
1/2+x,1/2+y,z
1/2-x,-y,z
1/2+x,1/2-y,-z
1/2-x,y,-z
1/2-x,1/2-y,-z
1/2+x,y,-z
1/2-x,1/2+y,z
1/2+x,-y,z
loop_
_atom_site_type_symbol
_atom_site_label
_atom_site_fract_x
_atom_site_fract_y
_atom_site_fract_z
Si Si1 0.679031 0.668387 0.437957
Si Si2 0.420887 0.361846 0.005671
Si Si3 0.075155 0.463052 0.800670
Si Si4 0.391810 0.327694 0.335942
Si Si5 0.159007 0.905824 0.796855
Si Si6 0.786070 0.323917 0.853197
O O1 0.686588 0.750000 0.415245
O O2 0.750000 0.643888 0.500000
O O3 0.619070 0.661265 0.532836
O O4 0.662733 0.629146 0.324158
O O5 0.500000 0.332661 0.018482
O O6 0.400233 0.373507 0.877723
O O7 0.422127 0.433725 0.073679
O O8 0.354892 0.326330 0.068292
O O9 0.075806 0.394374 0.723534
O O10 0.139127 0.514448 0.782110
O O11 0.000000 0.498554 0.782524
O O12 0.421428 0.250000 0.316984
O O13 0.316891 0.324850 0.272283
O O14 0.231688 0.886255 0.859942
O O15 0.749691 0.250000 0.870572
#
# Coordination Sequence:
#
# PCOD9503537 Si02
#       6
#    16  16  16  16  16  16
#     4  10  20  39  64  92 131 173 213 276 349 398
#     4  10  23  42  63  91 133 180 219 267 337 407
#     4  10  23  43  65  91 130 180 226 275 336 405
#     4   9  19  39  65  92 123 167 221 272 331 400
#     4  12  22  36  65  99 131 171 221 277 338 399
#     4  10  21  39  64  94 129 171 221 275 330 397
#
# _framework density 21.75272
#
# number of rings (size 3 to 8) (size 9 to 14) (size 15 to 20)
#    0.000    1.833    1.667    2.000    0.000    7.333 
#    0.000   10.000    0.000    8.000    0.000    0.000 
#    0.000    0.000    0.000    0.000    0.000    0.000 
#
# Total GULP energy -267669.436359 kJ/mol
# GULP energy per Si atom -5576.446591 kJ/mol
# Density = 2.170321 g / cm^3
# Si number density = 21.752720 Si / 1000 Ang^3
#
#
#
# Elastic Constant Matrix: (Units=GPa)
#
#
# Indices 1 2 3 4 5 6 
#
# 1 116.8593 69.0619 38.0506 0.0000 0.0000 0.0000
# 2 69.0619 118.2045 42.9095 0.0000 0.0000 0.0000
# 3 38.0506 42.9095 155.9114 0.0000 0.0000 0.0000
# 4 0.0000 0.0000 0.0000 16.1467 0.0000 0.0000
# 5 0.0000 0.0000 0.0000 0.0000 -0.2990 0.0000
# 6 0.0000 0.0000 0.0000 0.0000 0.0000 8.8035
#
#
#
# Elastic Compliance Matrix: (Units=1/GPa)
#
#
# Indices 1 2 3 4 5 6 
#
# 1 0.013279 -0.007312 -0.001228 0.000000 0.000000 0.000000
# 2 -0.007312 0.013426 -0.001910 0.000000 0.000000 0.000000
# 3 -0.001228 -0.001910 0.007239 0.000000 0.000000 0.000000
# 4 0.000000 0.000000 0.000000 0.061932 0.000000 0.000000
# 5 0.000000 0.000000 0.000000 0.000000 -3.344483 0.000000
# 6 0.000000 0.000000 0.000000 0.000000 0.000000 0.113591
#
#
# Mechanical properties :
#
#
# Convention : Reuss Voigt Hill
#
# Bulk Modulus (GPa) = 76.67573 76.77989 76.72781
# Shear Modulus (GPa) = -1.60784 20.99380 9.69298
#
# Velocity S-wave (km/s) = -0.86067 3.10999 2.11321
# Velocity P-wave (km/s) = 5.85983 6.94762 6.42678
#
# Compressibility (1/GPa) = 0.01304194
#
# Stress axis : x y z
#
# Youngs Moduli (GPa) = 75.30876 74.48414 138.13254
#
# Poissons Ratio (x) = 0.54465 0.16966
# Poissons Ratio (y) = 0.55068 0.26389
# Poissons Ratio (z) = 0.09250 0.14229
#
# Static dielectric constant tensor:
#      x y z
#    x 1.846050 0.000000 0.000000 
#    y 0.000000 1.804360 0.000000 
#    z 0.000000 0.000000 1.792730 
# 
# From -- ./inp_files/20868.got.cif
#   From: 2010.05.17/outbox.cif.g08.bks.cpg/sg67_11_cif.got.tgz:20868.got - 2010.06.03 18:28:57.
