data_PCOD9503715
_publ_section_title
;
Structure prediction by ZEFSAII (Michael W. Deem and Ramdas Pophale) SiO2 
 PCOD9503715
Probable space group: C M M A
;
_chemical_formula_sum "Si O2"
_cell_formula_units_Z 80
_cell_length_a 19.873281
_cell_length_b 9.094029
_cell_length_c 26.111570
_cell_angle_alpha 90.000000
_cell_angle_beta 90.000000
_cell_angle_gamma 90.000000
_cell_volume 4719.096882
_symmetry_space_group_name_H-M "C M M A"
_symmetry_group_IT_number 67
_symmetry_cell_setting 'orthorhombic'
loop_
_space_group_symop_operation_xyz
x,y,z
-x,1/2-y,z
x,-y,-z
-x,1/2+y,-z
-x,-y,-z
x,1/2+y,-z
-x,y,z
x,1/2-y,z
1/2+x,1/2+y,z
1/2-x,-y,z
1/2+x,1/2-y,-z
1/2-x,y,-z
1/2-x,1/2-y,-z
1/2+x,y,-z
1/2-x,1/2+y,z
1/2+x,-y,z
loop_
_atom_site_type_symbol
_atom_site_label
_atom_site_fract_x
_atom_site_fract_y
_atom_site_fract_z
Si Si1 0.579458 0.427648 0.335231
Si Si2 0.177724 0.425276 0.134930
Si Si3 0.322015 0.575207 0.254965
Si Si4 0.418143 0.920086 0.551088
Si Si5 0.920068 0.424341 0.945617
O O1 0.500000 0.459859 0.329323
O O2 0.586644 0.250000 0.332949
O O3 0.622993 0.504315 0.291916
O O4 0.601465 0.476543 0.392581
O O5 0.181578 0.250000 0.126256
O O6 0.250000 0.500000 0.125098
O O7 0.161467 0.449755 0.194971
O O8 0.122869 0.498913 0.098510
O O9 0.317298 0.750000 0.263097
O O10 0.250000 0.500000 0.264756
O O11 0.500000 0.925880 0.550858
O O12 0.398806 0.750000 0.547983
O O13 0.393939 0.000000 0.500000
O O14 0.906112 0.250000 0.947822
O O15 0.000000 0.443583 0.936527
O O16 0.904206 0.500000 0.000000
#
# Coordination Sequence:
#
# PCOD9503715 Si02
#       5
#    16  16  16  16  16
#     4   9  18  32  50  74 104 135 168 208 253 302
#     4  10  21  37  56  78 104 134 172 215 255 300
#     4  10  21  36  54  75 101 135 172 211 256 304
#     4   8  14  25  42  66  96 129 163 201 247 296
#     4  10  21  37  57  81 109 140 172 207 251 301
#
# _framework density 16.952396
#
# number of rings (size 3 to 8) (size 9 to 14) (size 15 to 20)
#    0.000    2.600    0.000    3.000    0.000    6.000 
#    0.000    8.000    0.000    0.600    0.000    4.200 
#    0.000    0.000    0.000    0.000    0.000    0.000 
#
# Total GULP energy -223033.003999 kJ/mol
# GULP energy per Si atom -5575.825100 kJ/mol
# Density = 1.691381 g / cm^3
# Si number density = 16.952396 Si / 1000 Ang^3
#
#
#
# Elastic Constant Matrix: (Units=GPa)
#
#
# Indices 1 2 3 4 5 6 
#
# 1 71.2078 63.5256 91.7938 0.0000 0.0000 0.0000
# 2 63.5256 96.6617 93.8766 0.0000 0.0000 0.0000
# 3 91.7938 93.8766 148.8011 0.0000 0.0000 0.0000
# 4 0.0000 0.0000 0.0000 36.4417 0.0000 0.0000
# 5 0.0000 0.0000 0.0000 0.0000 -70.9493 0.0000
# 6 0.0000 0.0000 0.0000 0.0000 0.0000 29.8761
#
#
#
# Elastic Compliance Matrix: (Units=1/GPa)
#
#
# Indices 1 2 3 4 5 6 
#
# 1 0.072784 -0.010915 -0.038013 0.000000 0.000000 0.000000
# 2 -0.010915 0.028349 -0.011152 0.000000 0.000000 0.000000
# 3 -0.038013 -0.011152 0.037206 0.000000 0.000000 0.000000
# 4 0.000000 0.000000 0.000000 0.027441 0.000000 0.000000
# 5 0.000000 0.000000 0.000000 0.000000 -0.014095 0.000000
# 6 0.000000 0.000000 0.000000 0.000000 0.000000 0.033472
#
#
# Mechanical properties :
#
#
# Convention : Reuss Voigt Hill
#
# Bulk Modulus (GPa) = 55.00996 90.56250 72.78623
# Shear Modulus (GPa) = 16.05775 3.57201 9.81488
#
# Velocity S-wave (km/s) = 3.08104 1.45315 2.40878
# Velocity P-wave (km/s) = 6.72140 7.50687 7.12497
#
# Compressibility (1/GPa) = 0.01817852
#
# Stress axis : x y z
#
# Youngs Moduli (GPa) = 13.73933 35.27466 26.87752
#
# Poissons Ratio (x) = 0.38502 1.02170
# Poissons Ratio (y) = 0.14997 0.29973
# Poissons Ratio (z) = 0.52228 0.39337
#
# Static dielectric constant tensor:
#      x y z
#    x 1.543210 0.000000 0.000000 
#    y 0.000000 1.564370 0.000000 
#    z 0.000000 0.000000 1.572560 
# 
# From -- ./inp_files/43279.got.cif
#   From: 2010.05.17/outbox.cif.g08.bks.cpg/sg67_22_cif.got.tgz:43279.got - 2010.06.03 18:28:57.
