data_PCOD9503993
_publ_section_title
;
Structure prediction by ZEFSAII (Michael W. Deem and Ramdas Pophale) SiO2 
 PCOD9503993
Probable space group: C M M A
;
_chemical_formula_sum "Si O2"
_cell_formula_units_Z 112
_cell_length_a 27.431581
_cell_length_b 15.667199
_cell_length_c 13.737393
_cell_angle_alpha 90.000000
_cell_angle_beta 90.000000
_cell_angle_gamma 90.000000
_cell_volume 5904.002342
_symmetry_space_group_name_H-M "C M M A"
_symmetry_group_IT_number 67
_symmetry_cell_setting 'orthorhombic'
loop_
_space_group_symop_operation_xyz
x,y,z
-x,1/2-y,z
x,-y,-z
-x,1/2+y,-z
-x,-y,-z
x,1/2+y,-z
-x,y,z
x,1/2-y,z
1/2+x,1/2+y,z
1/2-x,-y,z
1/2+x,1/2-y,-z
1/2-x,y,-z
1/2-x,1/2-y,-z
1/2+x,y,-z
1/2-x,1/2+y,z
1/2+x,-y,z
loop_
_atom_site_type_symbol
_atom_site_label
_atom_site_fract_x
_atom_site_fract_y
_atom_site_fract_z
Si Si1 0.371510 0.150695 0.176221
Si Si2 0.767341 0.401498 0.895298
Si Si3 0.638419 0.608023 0.397841
Si Si4 0.557854 0.653658 0.247749
Si Si5 0.340393 0.091379 0.384772
Si Si6 0.257139 0.845506 0.317671
Si Si7 0.558372 0.506228 0.887485
O O1 0.377751 0.250000 0.151333
O O2 0.325168 0.111507 0.118247
O O3 0.359224 0.140996 0.290443
O O4 0.416994 0.090317 0.155351
O O5 0.750000 0.500000 0.890882
O O6 0.745840 0.358502 0.798405
O O7 0.750000 0.367569 0.000000
O O8 0.591139 0.642542 0.342900
O O9 0.641048 0.505802 0.382961
O O10 0.642263 0.627688 0.512260
O O11 0.687861 0.642347 0.350244
O O12 0.500000 0.644160 0.268612
O O13 0.565115 0.750000 0.208836
O O14 0.572272 0.579044 0.172290
O O15 0.281644 0.093481 0.371563
O O16 0.240721 0.750000 0.341941
O O17 0.500000 0.512837 0.883082
O O18 0.573088 0.500000 0.000000
#
# Coordination Sequence:
#
# PCOD9503993 Si02
#       7
#    16  16  16  16  16  16  16
#     4  11  23  40  63  90 128 165 201 253 307 360
#     4  10  22  37  58  82 118 168 206 251 298 355
#     4  11  21  37  62  88 114 164 208 247 302 364
#     4  10  22  41  64  92 123 153 199 261 312 359
#     4  10  21  38  58  85 124 162 201 248 298 355
#     4  11  22  34  53  84 123 159 201 251 296 356
#     4  10  23  43  68  92 121 159 201 252 308 365
#
# _framework density 18.970182000000001
#
# number of rings (size 3 to 8) (size 9 to 14) (size 15 to 20)
#    0.000    1.571    1.429    4.714    2.000    6.000 
#    0.000    3.571    0.000    0.000    0.000    0.000 
#    0.000    0.000    0.000    0.000    0.000    0.000 
#
# Total GULP energy -312682.376405 kJ/mol
# GULP energy per Si atom -5583.613864 kJ/mol
# Density = 1.892701 g / cm^3
# Si number density = 18.970182 Si / 1000 Ang^3
#
#
#
# Elastic Constant Matrix: (Units=GPa)
#
#
# Indices 1 2 3 4 5 6 
#
# 1 49.5675 37.3768 45.9609 0.0000 0.0000 0.0000
# 2 37.3768 111.5223 26.7491 0.0000 0.0000 0.0000
# 3 45.9609 26.7491 110.2922 0.0000 0.0000 0.0000
# 4 0.0000 0.0000 0.0000 -9.9667 0.0000 0.0000
# 5 0.0000 0.0000 0.0000 0.0000 25.0759 0.0000
# 6 0.0000 0.0000 0.0000 0.0000 0.0000 23.3245
#
#
#
# Elastic Compliance Matrix: (Units=1/GPa)
#
#
# Indices 1 2 3 4 5 6 
#
# 1 0.041903 -0.010464 -0.014924 0.000000 0.000000 0.000000
# 2 -0.010464 0.012134 0.001418 0.000000 0.000000 0.000000
# 3 -0.014924 0.001418 0.014942 0.000000 0.000000 0.000000
# 4 0.000000 0.000000 0.000000 -0.100334 0.000000 0.000000
# 5 0.000000 0.000000 0.000000 0.000000 0.039879 0.000000
# 6 0.000000 0.000000 0.000000 0.000000 0.000000 0.042873
#
#
# Mechanical properties :
#
#
# Convention : Reuss Voigt Hill
#
# Bulk Modulus (GPa) = 47.53238 54.61731 51.07485
# Shear Modulus (GPa) = 47.01407 18.43976 32.72691
#
# Velocity S-wave (km/s) = 4.98367 3.12114 4.15803
# Velocity P-wave (km/s) = 7.63064 6.46856 7.07351
#
# Compressibility (1/GPa) = 0.02103829
#
# Stress axis : x y z
#
# Youngs Moduli (GPa) = 23.86439 82.41385 66.92505
#
# Poissons Ratio (x) = 0.86241 0.99879
# Poissons Ratio (y) = 0.24973 -0.09489
# Poissons Ratio (z) = 0.35615 -0.11685
#
# Static dielectric constant tensor:
#      x y z
#    x 1.639560 0.000000 0.000000 
#    y 0.000000 1.689430 0.000000 
#    z 0.000000 0.000000 1.653280 
# 
# From -- ./inp_files/30197.got.cif
#   From: 2010.05.17/outbox.cif.g08.bks.cpg/sg67_16_cif.got.tgz:30197.got - 2010.06.03 18:28:57.
