data_PCOD9503013
_publ_section_title
;
Structure prediction by ZEFSAII (Michael W. Deem and Ramdas Pophale) SiO2 
 PCOD9503013
Probable space group: C M M A
;
_chemical_formula_sum "Si O2"
_cell_formula_units_Z 64
_cell_length_a 15.830749
_cell_length_b 8.630305
_cell_length_c 24.334453
_cell_angle_alpha 90.000000
_cell_angle_beta 90.000000
_cell_angle_gamma 90.000000
_cell_volume 3324.674985
_symmetry_space_group_name_H-M "C M M A"
_symmetry_group_IT_number 67
_symmetry_cell_setting 'orthorhombic'
loop_
_space_group_symop_operation_xyz
x,y,z
-x,1/2-y,z
x,-y,-z
-x,1/2+y,-z
-x,-y,-z
x,1/2+y,-z
-x,y,z
x,1/2-y,z
1/2+x,1/2+y,z
1/2-x,-y,z
1/2+x,1/2-y,-z
1/2-x,y,-z
1/2-x,1/2-y,-z
1/2+x,y,-z
1/2-x,1/2+y,z
1/2+x,-y,z
loop_
_atom_site_type_symbol
_atom_site_label
_atom_site_fract_x
_atom_site_fract_y
_atom_site_fract_z
Si Si1 0.600747 0.934145 0.558675
Si Si2 0.000000 0.437076 0.129289
Si Si3 0.839020 0.064756 0.326926
Si Si4 0.000000 0.561421 0.743158
Si Si5 0.341510 0.436019 0.061783
O O1 0.500000 0.967174 0.563294
O O2 0.612595 0.750000 0.559778
O O3 0.629470 0.000000 0.500000
O O4 0.645121 0.009631 0.610841
O O5 0.000000 0.483382 0.193296
O O6 0.082964 0.502824 0.099488
O O7 0.000000 0.250000 0.125528
O O8 0.837343 0.250000 0.325992
O O9 0.916843 0.009204 0.289475
O O10 0.750000 0.000000 0.307032
O O11 0.000000 0.750000 0.741619
O O12 0.340066 0.250000 0.060570
O O13 0.250000 0.500000 0.080066
O O14 0.354951 0.500000 0.000000
#
# Coordination Sequence:
#
# PCOD9503013 Si02
#       5
#    16   8  16   8  16
#     4  10  20  35  58  88 118 151 189 236 294 355
#     4  11  22  40  63  90 123 162 205 251 300 357
#     4  11  22  40  62  87 116 153 196 243 296 353
#     4   9  22  42  63  84 117 158 200 247 298 347
#     4  11  22  39  62  93 127 164 203 248 301 356
#
# _framework density 19.250001999999999
#
# number of rings (size 3 to 8) (size 9 to 14) (size 15 to 20)
#    0.000    1.500    1.250    5.250    0.000    2.500 
#    0.000   10.000    0.000    0.000    0.000    0.000 
#    0.000    0.000    0.000    0.000    0.000    0.000 
#
# Total GULP energy -178933.545753 kJ/mol
# GULP energy per Si atom -5591.673305 kJ/mol
# Density = 1.920619 g / cm^3
# Si number density = 19.250002 Si / 1000 Ang^3
#
#
#
# Elastic Constant Matrix: (Units=GPa)
#
#
# Indices 1 2 3 4 5 6 
#
# 1 181.6927 61.2297 108.5083 0.0000 0.0000 0.0000
# 2 61.2297 85.0550 39.8558 0.0000 0.0000 0.0000
# 3 108.5083 39.8558 130.8514 0.0000 0.0000 0.0000
# 4 0.0000 0.0000 0.0000 20.6095 0.0000 0.0000
# 5 0.0000 0.0000 0.0000 0.0000 -6.4351 0.0000
# 6 0.0000 0.0000 0.0000 0.0000 0.0000 33.1681
#
#
#
# Elastic Compliance Matrix: (Units=1/GPa)
#
#
# Indices 1 2 3 4 5 6 
#
# 1 0.012373 -0.004782 -0.008804 0.000000 0.000000 0.000000
# 2 -0.004782 0.015562 -0.000775 0.000000 0.000000 0.000000
# 3 -0.008804 -0.000775 0.015179 0.000000 0.000000 0.000000
# 4 0.000000 0.000000 0.000000 0.048521 0.000000 0.000000
# 5 0.000000 0.000000 0.000000 0.000000 -0.155397 0.000000
# 6 0.000000 0.000000 0.000000 0.000000 0.000000 0.030149
#
#
# Mechanical properties :
#
#
# Convention : Reuss Voigt Hill
#
# Bulk Modulus (GPa) = 69.47629 90.75409 80.11519
# Shear Modulus (GPa) = -53190.91735 22.00219 -26584.45758
#
# Velocity S-wave (km/s) = -166.40802 3.38445 -117.64390
# Velocity P-wave (km/s) = 192.05728 7.90696 135.68987
#
# Compressibility (1/GPa) = 0.01439340
#
# Stress axis : x y z
#
# Youngs Moduli (GPa) = 80.82198 64.25709 65.88146
#
# Poissons Ratio (x) = 0.30726 0.58000
# Poissons Ratio (y) = 0.38647 0.05105
# Poissons Ratio (z) = 0.71154 0.04979
#
# Static dielectric constant tensor:
#      x y z
#    x 1.676580 0.000000 0.000000 
#    y 0.000000 1.642820 0.000000 
#    z 0.000000 0.000000 1.635380 
# 
# From -- ./inp_files/38776.got.cif
#   From: 2010.05.17/outbox.cif.g08.bks.cpg/sg67_20_cif.got.tgz:38776.got - 2010.06.03 18:28:57.
