data_PCOD9503820
_publ_section_title
;
Structure prediction by ZEFSAII (Michael W. Deem and Ramdas Pophale) SiO2 
 PCOD9503820
Probable space group: C M M A
;
_chemical_formula_sum "Si O2"
_cell_formula_units_Z 112
_cell_length_a 24.019542
_cell_length_b 18.393399
_cell_length_c 13.116016
_cell_angle_alpha 90.000000
_cell_angle_beta 90.000000
_cell_angle_gamma 90.000000
_cell_volume 5794.669245
_symmetry_space_group_name_H-M "C M M A"
_symmetry_group_IT_number 67
_symmetry_cell_setting 'orthorhombic'
loop_
_space_group_symop_operation_xyz
x,y,z
-x,1/2-y,z
x,-y,-z
-x,1/2+y,-z
-x,-y,-z
x,1/2+y,-z
-x,y,z
x,1/2-y,z
1/2+x,1/2+y,z
1/2-x,-y,z
1/2+x,1/2-y,-z
1/2-x,y,-z
1/2-x,1/2-y,-z
1/2+x,y,-z
1/2-x,1/2+y,z
1/2+x,-y,z
loop_
_atom_site_type_symbol
_atom_site_label
_atom_site_fract_x
_atom_site_fract_y
_atom_site_fract_z
Si Si1 0.656229 0.923089 0.053451
Si Si2 0.564488 0.084797 0.471659
Si Si3 0.675037 0.835331 0.858373
Si Si4 0.434826 0.166036 0.836609
Si Si5 0.861710 0.334311 0.367741
Si Si6 0.936552 0.664994 0.260794
Si Si7 0.268406 0.578935 0.255623
O O1 0.598885 0.887320 0.090558
O O2 0.695449 0.931425 0.151969
O O3 0.682512 0.870202 0.969116
O O4 0.648245 0.000000 0.000000
O O5 0.500000 0.102746 0.498335
O O6 0.607530 0.131325 0.536510
O O7 0.571055 0.108702 0.353928
O O8 0.572483 0.000000 0.500000
O O9 0.686988 0.750000 0.860701
O O10 0.611263 0.846446 0.822256
O O11 0.715207 0.874445 0.778010
O O12 0.500000 0.149692 0.829526
O O13 0.428317 0.250000 0.871630
O O14 0.405166 0.161133 0.726711
O O15 0.848195 0.250000 0.383863
O O16 0.807393 0.378597 0.334122
O O17 0.931410 0.750000 0.296359
O O18 0.000000 0.656742 0.222207
O O19 0.250000 0.500000 0.293221
#
# Coordination Sequence:
#
# PCOD9503820 Si02
#       7
#    16  16  16  16  16  16  16
#     4  11  22  36  56  84 115 155 202 243 297 357
#     4  10  21  36  61  94 124 157 199 244 297 360
#     4  11  23  38  61  86 114 157 203 247 295 355
#     4   9  19  35  55  83 119 153 191 243 298 352
#     4  10  21  38  62  89 117 156 203 247 300 361
#     4   9  20  39  61  87 119 155 196 243 297 358
#     4  11  23  39  61  85 118 156 195 254 305 356
#
# _framework density 19.328108
#
# number of rings (size 3 to 8) (size 9 to 14) (size 15 to 20)
#    0.000    1.857    1.429    2.143    2.000    4.571 
#    0.000    3.571    0.000    2.571    0.000    0.000 
#    0.000    0.000    0.000    0.000    0.000    0.000 
#
# Total GULP energy -312853.823092 kJ/mol
# GULP energy per Si atom -5586.675412 kJ/mol
# Density = 1.928412 g / cm^3
# Si number density = 19.328108 Si / 1000 Ang^3
#
#
#
# Elastic Constant Matrix: (Units=GPa)
#
#
# Indices 1 2 3 4 5 6 
#
# 1 89.1335 43.9240 7.7317 0.0000 0.0000 0.0000
# 2 43.9240 95.1618 12.8436 0.0000 0.0000 0.0000
# 3 7.7317 12.8436 21.6633 0.0000 0.0000 0.0000
# 4 0.0000 0.0000 0.0000 24.9360 0.0000 0.0000
# 5 0.0000 0.0000 0.0000 0.0000 23.2691 0.0000
# 6 0.0000 0.0000 0.0000 0.0000 0.0000 29.4498
#
#
#
# Elastic Compliance Matrix: (Units=1/GPa)
#
#
# Indices 1 2 3 4 5 6 
#
# 1 0.014557 -0.006541 -0.001317 0.000000 0.000000 0.000000
# 2 -0.006541 0.014362 -0.006180 0.000000 0.000000 0.000000
# 3 -0.001317 -0.006180 0.050295 0.000000 0.000000 0.000000
# 4 0.000000 0.000000 0.000000 0.040103 0.000000 0.000000
# 5 0.000000 0.000000 0.000000 0.000000 0.042975 0.000000
# 6 0.000000 0.000000 0.000000 0.000000 0.000000 0.033956
#
#
# Mechanical properties :
#
#
# Convention : Reuss Voigt Hill
#
# Bulk Modulus (GPa) = 19.55547 37.21747 28.38647
# Shear Modulus (GPa) = 20.71500 24.96158 22.83829
#
# Velocity S-wave (km/s) = 3.27732 3.59760 3.44119
# Velocity P-wave (km/s) = 4.94578 6.04602 5.52336
#
# Compressibility (1/GPa) = 0.05113659
#
# Stress axis : x y z
#
# Youngs Moduli (GPa) = 68.69625 69.62933 19.88260
#
# Poissons Ratio (x) = 0.45546 0.02619
# Poissons Ratio (y) = 0.44936 0.12288
# Poissons Ratio (z) = 0.09049 0.43032
#
# Static dielectric constant tensor:
#      x y z
#    x 1.658140 0.000000 0.000000 
#    y 0.000000 1.663350 0.000000 
#    z 0.000000 0.000000 1.658610 
# 
# From -- ./inp_files/27486.got.cif
#   From: 2010.05.17/outbox.cif.g08.bks.cpg/sg67_14_cif.got.tgz:27486.got - 2010.06.03 18:28:57.
