data_PCOD9503493
_publ_section_title
;
Structure prediction by ZEFSAII (Michael W. Deem and Ramdas Pophale) SiO2 
 PCOD9503493
Probable space group: C M M A
;
_chemical_formula_sum "Si O2"
_cell_formula_units_Z 68
_cell_length_a 18.283277
_cell_length_b 24.459044
_cell_length_c 6.891351
_cell_angle_alpha 90.000000
_cell_angle_beta 90.000000
_cell_angle_gamma 90.000000
_cell_volume 3081.753430
_symmetry_space_group_name_H-M "C M M A"
_symmetry_group_IT_number 67
_symmetry_cell_setting 'orthorhombic'
loop_
_space_group_symop_operation_xyz
x,y,z
-x,1/2-y,z
x,-y,-z
-x,1/2+y,-z
-x,-y,-z
x,1/2+y,-z
-x,y,z
x,1/2-y,z
1/2+x,1/2+y,z
1/2-x,-y,z
1/2+x,1/2-y,-z
1/2-x,y,-z
1/2-x,1/2-y,-z
1/2+x,y,-z
1/2-x,1/2+y,z
1/2+x,-y,z
loop_
_atom_site_type_symbol
_atom_site_label
_atom_site_fract_x
_atom_site_fract_y
_atom_site_fract_z
Si Si1 0.178003 0.605748 0.888562
Si Si2 0.143151 0.189953 0.400092
Si Si3 0.087104 0.110744 0.728548
Si Si4 0.418048 0.512575 0.231958
Si Si5 0.500000 0.250000 0.718664
O O1 0.119738 0.619195 0.057068
O O2 0.250000 0.586380 0.000000
O O3 0.192365 0.657926 0.753944
O O4 0.142452 0.558975 0.755225
O O5 0.170069 0.250000 0.458471
O O6 0.126063 0.151583 0.581751
O O7 0.065019 0.203186 0.298266
O O8 0.098285 0.046516 0.677064
O O9 0.000000 0.120446 0.729060
O O10 0.500000 0.530938 0.288156
O O11 0.420909 0.500000 0.000000
#
# Coordination Sequence:
#
# PCOD9503493 Si02
#       5
#    16  16  16  16   4
#     4  11  24  38  59  90 128 172 204 249 318 384
#     4  10  22  40  62  91 124 155 213 268 308 366
#     4  10  20  38  64  91 121 162 209 266 327 368
#     4   8  17  33  58  89 117 151 203 257 304 371
#     4   8  20  40  60  96 122 152 210 290 290 360
#
# _framework density 22.065360999999999
#
# number of rings (size 3 to 8) (size 9 to 14) (size 15 to 20)
#    0.706    1.647    1.176    2.118    3.294    7.529 
#    0.000    4.706    0.000    8.471    0.000    0.000 
#    0.000    0.000    0.000    0.000    0.000    0.000 
#
# Total GULP energy -189295.973108 kJ/mol
# GULP energy per Si atom -5567.528621 kJ/mol
# Density = 2.201514 g / cm^3
# Si number density = 22.065361 Si / 1000 Ang^3
#
#
#
# Elastic Constant Matrix: (Units=GPa)
#
#
# Indices 1 2 3 4 5 6 
#
# 1 82.0348 50.2029 32.6687 0.0000 0.0000 0.0000
# 2 50.2029 160.8056 53.3047 0.0000 0.0000 0.0000
# 3 32.6687 53.3047 88.3811 0.0000 0.0000 0.0000
# 4 0.0000 0.0000 0.0000 18.1246 0.0000 0.0000
# 5 0.0000 0.0000 0.0000 0.0000 9.7146 0.0000
# 6 0.0000 0.0000 0.0000 0.0000 0.0000 -20.4507
#
#
#
# Elastic Compliance Matrix: (Units=1/GPa)
#
#
# Indices 1 2 3 4 5 6 
#
# 1 0.015942 -0.003779 -0.003613 0.000000 0.000000 0.000000
# 2 -0.003779 0.008669 -0.003831 0.000000 0.000000 0.000000
# 3 -0.003613 -0.003831 0.014961 0.000000 0.000000 0.000000
# 4 0.000000 0.000000 0.000000 0.055174 0.000000 0.000000
# 5 0.000000 0.000000 0.000000 0.000000 0.102937 0.000000
# 6 0.000000 0.000000 0.000000 0.000000 0.000000 -0.048898
#
#
# Mechanical properties :
#
#
# Convention : Reuss Voigt Hill
#
# Bulk Modulus (GPa) = 58.39869 67.06377 62.73123
# Shear Modulus (GPa) = 28.25825 14.48072 21.36949
#
# Velocity S-wave (km/s) = 3.58252 2.56455 3.11539
# Velocity P-wave (km/s) = 6.60577 6.26326 6.43679
#
# Compressibility (1/GPa) = 0.01712367
#
# Stress axis : x y z
#
# Youngs Moduli (GPa) = 62.72898 115.35962 66.84063
#
# Poissons Ratio (x) = 0.43596 0.24151
# Poissons Ratio (y) = 0.23706 0.25609
# Poissons Ratio (z) = 0.22666 0.44198
#
# Static dielectric constant tensor:
#      x y z
#    x 1.789830 0.000000 0.000000 
#    y 0.000000 1.833870 0.000000 
#    z 0.000000 0.000000 1.853870 
# 
# From -- ./inp_files/2902.got.cif
#   From: 2010.05.17/outbox.cif.g08.bks.cpg/sg67_2_cif.got.tgz:2902.got - 2010.06.03 18:28:57.
