data_PCOD9503603
_publ_section_title
;
Structure prediction by ZEFSAII (Michael W. Deem and Ramdas Pophale) SiO2 
 PCOD9503603
Probable space group: C M M A
;
_chemical_formula_sum "Si O2"
_cell_formula_units_Z 56
_cell_length_a 10.723200
_cell_length_b 28.225445
_cell_length_c 9.349620
_cell_angle_alpha 90.000000
_cell_angle_beta 90.000000
_cell_angle_gamma 90.000000
_cell_volume 2829.822295
_symmetry_space_group_name_H-M "C M M A"
_symmetry_group_IT_number 67
_symmetry_cell_setting 'orthorhombic'
loop_
_space_group_symop_operation_xyz
x,y,z
-x,1/2-y,z
x,-y,-z
-x,1/2+y,-z
-x,-y,-z
x,1/2+y,-z
-x,y,z
x,1/2-y,z
1/2+x,1/2+y,z
1/2-x,-y,z
1/2+x,1/2-y,-z
1/2-x,y,-z
1/2-x,1/2-y,-z
1/2+x,y,-z
1/2-x,1/2+y,z
1/2+x,-y,z
loop_
_atom_site_type_symbol
_atom_site_label
_atom_site_fract_x
_atom_site_fract_y
_atom_site_fract_z
Si Si1 0.138930 0.566883 0.103135
Si Si2 0.357206 0.680535 0.886457
Si Si3 0.133377 0.551799 0.428343
Si Si4 0.646497 0.250000 0.375001
O O1 0.147532 0.623663 0.125638
O O2 0.151088 0.545330 0.260230
O O3 0.000000 0.556492 0.045835
O O4 0.250000 0.552759 0.000000
O O5 0.500000 0.692639 0.932251
O O6 0.337100 0.705558 0.733860
O O7 0.250000 0.694286 0.000000
O O8 0.126583 0.500000 0.500000
O O9 0.250000 0.577347 0.500000
O O10 0.000000 0.576085 0.450876
O O11 0.500000 0.250000 0.423793
O O12 0.750000 0.250000 0.500000
#
# Coordination Sequence:
#
# PCOD9503603 Si02
#       4
#    16  16  16   8
#     4   9  18  33  53  76 100 128 166 209 250 294
#     4   9  18  33  52  74 100 131 168 209 250 293
#     4   9  18  33  51  71  97 128 161 199 246 298
#     4  10  21  34  48  72 106 138 169 206 246 292
#
# _framework density 19.789228000000001
#
# number of rings (size 3 to 8) (size 9 to 14) (size 15 to 20)
#    0.000    2.857    0.000    0.429    0.000    3.429 
#    0.000    2.857    0.000   15.429    0.000    0.000 
#    0.000    0.000    0.000    0.000    0.000    0.000 
#
# Total GULP energy -156082.772942 kJ/mol
# GULP energy per Si atom -5574.384748 kJ/mol
# Density = 1.974419 g / cm^3
# Si number density = 19.789228 Si / 1000 Ang^3
#
#
#
# Elastic Constant Matrix: (Units=GPa)
#
#
# Indices 1 2 3 4 5 6 
#
# 1 235.4712 23.2775 123.0953 0.0000 0.0000 0.0000
# 2 23.2775 75.0724 30.0252 0.0000 0.0000 0.0000
# 3 123.0953 30.0252 124.4579 0.0000 0.0000 0.0000
# 4 0.0000 0.0000 0.0000 -311.0043 0.0000 0.0000
# 5 0.0000 0.0000 0.0000 0.0000 45.9788 0.0000
# 6 0.0000 0.0000 0.0000 0.0000 0.0000 40.2934
#
#
#
# Elastic Compliance Matrix: (Units=1/GPa)
#
#
# Indices 1 2 3 4 5 6 
#
# 1 0.008840 0.000837 -0.008946 0.000000 0.000000 0.000000
# 2 0.000837 0.014822 -0.004403 0.000000 0.000000 0.000000
# 3 -0.008946 -0.004403 0.017945 0.000000 0.000000 0.000000
# 4 0.000000 0.000000 0.000000 -0.003215 0.000000 0.000000
# 5 0.000000 0.000000 0.000000 0.000000 0.021749 0.000000
# 6 0.000000 0.000000 0.000000 0.000000 0.000000 0.024818
#
#
# Mechanical properties :
#
#
# Convention : Reuss Voigt Hill
#
# Bulk Modulus (GPa) = 60.30274 87.53303 73.91789
# Shear Modulus (GPa) = 43.28592 -27.70617 7.78987
#
# Velocity S-wave (km/s) = 4.68198 -3.74580 1.98619
# Velocity P-wave (km/s) = 7.73089 5.06169 6.53404
#
# Compressibility (1/GPa) = 0.01658299
#
# Stress axis : x y z
#
# Youngs Moduli (GPa) = 113.11624 67.46660 55.72681
#
# Poissons Ratio (x) = -0.05644 0.49850
# Poissons Ratio (y) = -0.09463 0.24538
# Poissons Ratio (z) = 1.01188 0.29707
#
# Static dielectric constant tensor:
#      x y z
#    x 1.756760 0.000000 0.000000 
#    y 0.000000 1.720830 0.000000 
#    z 0.000000 0.000000 1.654140 
# 
# From -- ./inp_files/6645.got.cif
#   From: 2010.05.17/outbox.cif.g08.bks.cpg/sg67_4_cif.got.tgz:6645.got - 2010.06.03 18:28:57.
