data_PCOD9503025
_publ_section_title
;
Structure prediction by ZEFSAII (Michael W. Deem and Ramdas Pophale) SiO2 
 PCOD9503025
Probable space group: C M M A
;
_chemical_formula_sum "Si O2"
_cell_formula_units_Z 60
_cell_length_a 13.837127
_cell_length_b 16.518955
_cell_length_c 14.073304
_cell_angle_alpha 90.000000
_cell_angle_beta 90.000000
_cell_angle_gamma 90.000000
_cell_volume 3216.803748
_symmetry_space_group_name_H-M "C M M A"
_symmetry_group_IT_number 67
_symmetry_cell_setting 'orthorhombic'
loop_
_space_group_symop_operation_xyz
x,y,z
-x,1/2-y,z
x,-y,-z
-x,1/2+y,-z
-x,-y,-z
x,1/2+y,-z
-x,y,z
x,1/2-y,z
1/2+x,1/2+y,z
1/2-x,-y,z
1/2+x,1/2-y,-z
1/2-x,y,-z
1/2-x,1/2-y,-z
1/2+x,y,-z
1/2-x,1/2+y,z
1/2+x,-y,z
loop_
_atom_site_type_symbol
_atom_site_label
_atom_site_fract_x
_atom_site_fract_y
_atom_site_fract_z
Si Si1 0.500000 0.750000 0.705510
Si Si2 0.000000 0.079207 0.744610
Si Si3 0.711591 0.087534 0.293654
Si Si4 0.500000 0.555868 0.093690
Si Si5 0.787703 0.750000 0.392842
Si Si6 0.200881 0.846846 0.897331
O O1 0.500000 0.673169 0.776045
O O2 0.402756 0.750000 0.639626
O O3 0.901701 0.076698 0.687446
O O4 0.000000 0.008921 0.821007
O O5 0.749967 0.166134 0.347992
O O6 0.735186 0.108699 0.183469
O O7 0.750000 0.000000 0.318381
O O8 0.595681 0.611272 0.100173
O O9 0.500000 0.500000 0.000000
O O10 0.750000 0.750000 0.500000
O O11 0.195276 0.750000 0.877575
O O12 0.250000 0.857204 0.000000
#
# Coordination Sequence:
#
# PCOD9503025 Si02
#       6
#     4   8  16   8   8  16
#     4   8  20  40  62  90 118 150 200 242 300 376
#     4  10  20  35  59  86 119 155 196 241 290 356
#     4  11  21  39  64  89 122 161 200 248 305 363
#     4  12  23  37  57  87 122 162 204 255 297 350
#     4  10  22  42  65  93 119 156 202 252 309 365
#     4  11  24  40  58  86 124 164 207 249 298 359
#
# _framework density 18.652054
#
# number of rings (size 3 to 8) (size 9 to 14) (size 15 to 20)
#    0.000    1.333    4.000    2.000    0.000    0.533 
#    2.400    2.667    0.000    4.800    0.000    0.000 
#    0.000    0.000    0.000    0.000    0.000    0.000 
#
# Total GULP energy -167105.316403 kJ/mol
# GULP energy per Si atom -5570.177213 kJ/mol
# Density = 1.860960 g / cm^3
# Si number density = 18.652054 Si / 1000 Ang^3
#
#
#
# Elastic Constant Matrix: (Units=GPa)
#
#
# Indices 1 2 3 4 5 6 
#
# 1 83.5805 49.4361 10.5681 0.0000 0.0000 0.0000
# 2 49.4361 181.1968 42.4509 0.0000 0.0000 0.0000
# 3 10.5681 42.4509 78.2843 0.0000 0.0000 0.0000
# 4 0.0000 0.0000 0.0000 9.4030 0.0000 0.0000
# 5 0.0000 0.0000 0.0000 0.0000 12.3318 0.0000
# 6 0.0000 0.0000 0.0000 0.0000 0.0000 29.8305
#
#
#
# Elastic Compliance Matrix: (Units=1/GPa)
#
#
# Indices 1 2 3 4 5 6 
#
# 1 0.014270 -0.003943 0.000212 0.000000 0.000000 0.000000
# 2 -0.003943 0.007411 -0.003487 0.000000 0.000000 0.000000
# 3 0.000212 -0.003487 0.014636 0.000000 0.000000 0.000000
# 4 0.000000 0.000000 0.000000 0.106349 0.000000 0.000000
# 5 0.000000 0.000000 0.000000 0.000000 0.081091 0.000000
# 6 0.000000 0.000000 0.000000 0.000000 0.000000 0.033523
#
#
# Mechanical properties :
#
#
# Convention : Reuss Voigt Hill
#
# Bulk Modulus (GPa) = 45.70033 60.88576 53.29305
# Shear Modulus (GPa) = 17.92049 26.35348 22.13699
#
# Velocity S-wave (km/s) = 3.10301 3.76293 3.44879
# Velocity P-wave (km/s) = 6.11497 7.18285 6.67032
#
# Compressibility (1/GPa) = 0.02188168
#
# Stress axis : x y z
#
# Youngs Moduli (GPa) = 70.07774 134.92603 68.32422
#
# Poissons Ratio (x) = 0.53199 -0.01446
# Poissons Ratio (y) = 0.27631 0.23823
# Poissons Ratio (z) = -0.01484 0.47045
#
# Static dielectric constant tensor:
#      x y z
#    x 1.679490 0.000000 0.000000 
#    y 0.000000 1.700420 0.000000 
#    z 0.000000 0.000000 1.616470 
# 
# From -- ./inp_files/17459.got.cif
#   From: 2010.05.17/outbox.cif.g08.bks.cpg/sg67_9_cif.got.tgz:17459.got - 2010.06.03 18:28:57.
