data_PCOD9503623
_publ_section_title
;
Structure prediction by ZEFSAII (Michael W. Deem and Ramdas Pophale) SiO2 
 PCOD9503623
Probable space group: C M M A
;
_chemical_formula_sum "Si O2"
_cell_formula_units_Z 96
_cell_length_a 9.289357
_cell_length_b 27.547651
_cell_length_c 24.306863
_cell_angle_alpha 90.000000
_cell_angle_beta 90.000000
_cell_angle_gamma 90.000000
_cell_volume 6220.125382
_symmetry_space_group_name_H-M "C M M A"
_symmetry_group_IT_number 67
_symmetry_cell_setting 'orthorhombic'
loop_
_space_group_symop_operation_xyz
x,y,z
-x,1/2-y,z
x,-y,-z
-x,1/2+y,-z
-x,-y,-z
x,1/2+y,-z
-x,y,z
x,1/2-y,z
1/2+x,1/2+y,z
1/2-x,-y,z
1/2+x,1/2-y,-z
1/2-x,y,-z
1/2-x,1/2-y,-z
1/2+x,y,-z
1/2-x,1/2+y,z
1/2+x,-y,z
loop_
_atom_site_type_symbol
_atom_site_label
_atom_site_fract_x
_atom_site_fract_y
_atom_site_fract_z
Si Si1 0.329797 0.895508 0.054384
Si Si2 0.328952 0.359794 0.221380
Si Si3 0.828451 0.692636 0.334870
Si Si4 0.670948 0.306232 0.107435
Si Si5 0.834069 0.809123 0.554585
Si Si6 0.670671 0.949270 0.169292
O O1 0.500000 0.890936 0.045045
O O2 0.261529 0.843605 0.071032
O O3 0.306324 0.930377 0.106723
O O4 0.250000 0.913516 0.000000
O O5 0.500000 0.370984 0.221723
O O6 0.290515 0.336060 0.279583
O O7 0.306184 0.322105 0.171022
O O8 0.238880 0.407552 0.207367
O O9 0.799615 0.750000 0.326352
O O10 0.743907 0.676112 0.389068
O O11 0.000000 0.687757 0.344213
O O12 0.500000 0.312205 0.096067
O O13 0.708790 0.250000 0.099227
O O14 0.831366 0.750000 0.554089
O O15 0.750000 0.825297 0.500000
O O16 0.000000 0.824305 0.553285
O O17 0.500000 0.953618 0.178245
O O18 0.750000 0.000000 0.177526
#
# Coordination Sequence:
#
# PCOD9503623 Si02
#       6
#    16  16  16  16  16  16
#     4  10  21  35  50  69  91 115 145 181 220 265
#     4   9  17  30  48  69  93 119 149 185 223 266
#     4   9  16  26  42  65  93 125 158 189 222 262
#     4   9  17  30  48  68  91 121 153 183 217 258
#     4   9  16  25  37  55  83 121 162 199 231 262
#     4  10  21  36  53  71  90 113 142 179 226 275
#
# _framework density 15.433771999999999
#
# number of rings (size 3 to 8) (size 9 to 14) (size 15 to 20)
#    0.000    2.667    0.000    2.000    0.000    7.667 
#    0.000    1.667    0.000    3.000    0.000    0.000 
#    0.000    0.667    0.000    7.000    0.000    3.333 
#
# Total GULP energy -267655.054340 kJ/mol
# GULP energy per Si atom -5576.146965 kJ/mol
# Density = 1.539864 g / cm^3
# Si number density = 15.433772 Si / 1000 Ang^3
#
#
#
# Elastic Constant Matrix: (Units=GPa)
#
#
# Indices 1 2 3 4 5 6 
#
# 1 69.6005 35.9968 60.6002 0.0000 0.0000 0.0000
# 2 35.9968 57.3842 19.9916 0.0000 0.0000 0.0000
# 3 60.6002 19.9916 108.2784 0.0000 0.0000 0.0000
# 4 0.0000 0.0000 0.0000 7.3403 0.0000 0.0000
# 5 0.0000 0.0000 0.0000 0.0000 27.2844 0.0000
# 6 0.0000 0.0000 0.0000 0.0000 0.0000 19.0387
#
#
#
# Elastic Compliance Matrix: (Units=1/GPa)
#
#
# Indices 1 2 3 4 5 6 
#
# 1 0.041284 -0.019075 -0.019584 0.000000 0.000000 0.000000
# 2 -0.019075 0.027438 0.005610 0.000000 0.000000 0.000000
# 3 -0.019584 0.005610 0.019160 0.000000 0.000000 0.000000
# 4 0.000000 0.000000 0.000000 0.136235 0.000000 0.000000
# 5 0.000000 0.000000 0.000000 0.000000 0.036651 0.000000
# 6 0.000000 0.000000 0.000000 0.000000 0.000000 0.052525
#
#
# Mechanical properties :
#
#
# Convention : Reuss Voigt Hill
#
# Bulk Modulus (GPa) = 45.90439 52.04892 48.97665
# Shear Modulus (GPa) = 12.93153 18.64431 15.78792
#
# Velocity S-wave (km/s) = 2.89774 3.47943 3.20182
# Velocity P-wave (km/s) = 6.40338 7.06676 6.74323
#
# Compressibility (1/GPa) = 0.02178441
#
# Stress axis : x y z
#
# Youngs Moduli (GPa) = 24.22224 36.44632 52.19158
#
# Poissons Ratio (x) = 0.69521 1.02211
# Poissons Ratio (y) = 0.46204 -0.29278
# Poissons Ratio (z) = 0.47436 -0.20445
#
# Static dielectric constant tensor:
#      x y z
#    x 1.512800 0.000000 0.000000 
#    y 0.000000 1.480140 0.000000 
#    z 0.000000 0.000000 1.507210 
# 
# From -- ./inp_files/39854.got.cif
#   From: 2010.05.17/outbox.cif.g08.bks.cpg/sg67_20_cif.got.tgz:39854.got - 2010.06.03 18:28:57.
