data_PCOD9503615
_publ_section_title
;
Structure prediction by ZEFSAII (Michael W. Deem and Ramdas Pophale) SiO2 
 PCOD9503615
Probable space group: C M M A
;
_chemical_formula_sum "Si O2"
_cell_formula_units_Z 60
_cell_length_a 26.991586
_cell_length_b 5.414554
_cell_length_c 24.740105
_cell_angle_alpha 90.000000
_cell_angle_beta 90.000000
_cell_angle_gamma 90.000000
_cell_volume 3615.702020
_symmetry_space_group_name_H-M "C M M A"
_symmetry_group_IT_number 67
_symmetry_cell_setting 'orthorhombic'
loop_
_space_group_symop_operation_xyz
x,y,z
-x,1/2-y,z
x,-y,-z
-x,1/2+y,-z
-x,-y,-z
x,1/2+y,-z
-x,y,z
x,1/2-y,z
1/2+x,1/2+y,z
1/2-x,-y,z
1/2+x,1/2-y,-z
1/2-x,y,-z
1/2-x,1/2-y,-z
1/2+x,y,-z
1/2-x,1/2+y,z
1/2+x,-y,z
loop_
_atom_site_type_symbol
_atom_site_label
_atom_site_fract_x
_atom_site_fract_y
_atom_site_fract_z
Si Si1 0.060460 0.750000 0.969149
Si Si2 0.060403 0.750000 0.220287
Si Si3 0.697525 0.750000 0.463030
Si Si4 0.385790 0.750000 0.665600
Si Si5 0.559570 0.250000 0.845309
Si Si6 0.000000 0.250000 0.466910
Si Si7 0.596168 0.250000 0.605126
Si Si8 0.231373 0.250000 0.643393
O O1 0.077891 0.750000 0.907051
O O2 0.000000 0.750000 0.968752
O O3 0.075637 0.500000 0.000000
O O4 0.095159 0.750000 0.273030
O O5 0.071868 0.501676 0.186406
O O6 0.000000 0.750000 0.232320
O O7 0.698483 0.500000 0.500000
O O8 0.646403 0.750000 0.430133
O O9 0.740091 0.750000 0.415733
O O10 0.405492 0.497617 0.639986
O O11 0.327622 0.750000 0.648136
O O12 0.500000 0.250000 0.848870
O O13 0.000000 0.500000 0.500000
O O14 0.049354 0.250000 0.432636
O O15 0.250000 0.500000 0.670153
#
# Coordination Sequence:
#
# PCOD9503615 Si02
#       8
#     8   8   8   8   8   4   8   8
#     4   9  15  23  40  66 101 141 177 220 265 301
#     4  10  21  34  55  73  98 140 184 230 260 294
#     4  12  24  40  60  84 104 130 157 199 260 323
#     4  12  24  42  57  83 104 134 178 218 272 312
#     4   9  17  31  46  73 103 136 188 230 258 298
#     4  12  26  46  60  82 110 140 170 206 266 314
#     4  12  25  42  61  81 108 136 170 216 250 330
#     4  12  23  43  57  85 109 129 160 212 262 335
#
# _framework density 16.594287000000001
#
# number of rings (size 3 to 8) (size 9 to 14) (size 15 to 20)
#    0.000    1.067    2.667    4.800    1.867    4.800 
#    0.000    0.000    0.000    0.000    0.000    0.000 
#    0.000    0.000    0.000    0.000    0.000   46.667 
#
# Total GULP energy -167314.566722 kJ/mol
# GULP energy per Si atom -5577.152224 kJ/mol
# Density = 1.655652 g / cm^3
# Si number density = 16.594287 Si / 1000 Ang^3
#
#
#
# Elastic Constant Matrix: (Units=GPa)
#
#
# Indices 1 2 3 4 5 6 
#
# 1 65.5048 42.9737 65.8684 0.0000 0.0000 0.0000
# 2 42.9737 206.4979 90.5475 0.0000 0.0000 0.0000
# 3 65.8684 90.5475 141.9441 0.0000 0.0000 0.0000
# 4 0.0000 0.0000 0.0000 28.1057 0.0000 0.0000
# 5 0.0000 0.0000 0.0000 0.0000 49.6638 0.0000
# 6 0.0000 0.0000 0.0000 0.0000 0.0000 30.7693
#
#
#
# Elastic Compliance Matrix: (Units=1/GPa)
#
#
# Indices 1 2 3 4 5 6 
#
# 1 0.028626 -0.000184 -0.013167 0.000000 0.000000 0.000000
# 2 -0.000184 0.006724 -0.004204 0.000000 0.000000 0.000000
# 3 -0.013167 -0.004204 0.015837 0.000000 0.000000 0.000000
# 4 0.000000 0.000000 0.000000 0.035580 0.000000 0.000000
# 5 0.000000 0.000000 0.000000 0.000000 0.020135 0.000000
# 6 0.000000 0.000000 0.000000 0.000000 0.000000 0.032500
#
#
# Mechanical properties :
#
#
# Convention : Reuss Voigt Hill
#
# Bulk Modulus (GPa) = 62.19616 90.30288 76.24952
# Shear Modulus (GPa) = 27.79756 36.01158 31.90457
#
# Velocity S-wave (km/s) = 4.09727 4.66351 4.38953
# Velocity P-wave (km/s) = 7.74244 9.13969 8.46993
#
# Compressibility (1/GPa) = 0.01607816
#
# Stress axis : x y z
#
# Youngs Moduli (GPa) = 34.93281 148.71065 63.14389
#
# Poissons Ratio (x) = 0.02735 0.83139
# Poissons Ratio (y) = 0.00642 0.26547
# Poissons Ratio (z) = 0.45995 0.62522
#
# Static dielectric constant tensor:
#      x y z
#    x 1.541520 0.000000 0.000000 
#    y 0.000000 1.595660 0.000000 
#    z 0.000000 0.000000 1.557960 
# 
# From -- ./inp_files/39467.got.cif
#   From: 2010.05.17/outbox.cif.g08.bks.cpg/sg67_20_cif.got.tgz:39467.got - 2010.06.03 18:28:57.
