data_PCOD9503322
_publ_section_title
;
Structure prediction by ZEFSAII (Michael W. Deem and Ramdas Pophale) SiO2 
 PCOD9503322
Probable space group: C M M A
;
_chemical_formula_sum "Si O2"
_cell_formula_units_Z 96
_cell_length_a 19.081972
_cell_length_b 23.574547
_cell_length_c 10.679074
_cell_angle_alpha 90.000000
_cell_angle_beta 90.000000
_cell_angle_gamma 90.000000
_cell_volume 4803.969113
_symmetry_space_group_name_H-M "C M M A"
_symmetry_group_IT_number 67
_symmetry_cell_setting 'orthorhombic'
loop_
_space_group_symop_operation_xyz
x,y,z
-x,1/2-y,z
x,-y,-z
-x,1/2+y,-z
-x,-y,-z
x,1/2+y,-z
-x,y,z
x,1/2-y,z
1/2+x,1/2+y,z
1/2-x,-y,z
1/2+x,1/2-y,-z
1/2-x,y,-z
1/2-x,1/2-y,-z
1/2+x,y,-z
1/2-x,1/2+y,z
1/2+x,-y,z
loop_
_atom_site_type_symbol
_atom_site_label
_atom_site_fract_x
_atom_site_fract_y
_atom_site_fract_z
Si Si1 0.795288 0.184136 0.792833
Si Si2 0.831605 0.514289 0.318279
Si Si3 0.825512 0.079245 0.944673
Si Si4 0.420553 0.574371 0.181560
Si Si5 0.367333 0.183411 0.711998
Si Si6 0.831359 0.623635 0.459726
O O1 0.808584 0.250000 0.813141
O O2 0.820688 0.145277 0.906470
O O3 0.711868 0.176242 0.767321
O O4 0.831442 0.161232 0.666234
O O5 0.750000 0.500000 0.341449
O O6 0.835277 0.546986 0.185448
O O7 0.876042 0.458224 0.288848
O O8 0.855865 0.560228 0.421493
O O9 0.750000 0.063819 0.000000
O O10 0.882926 0.066087 0.048439
O O11 0.500000 0.554100 0.181097
O O12 0.415741 0.641202 0.210340
O O13 0.384028 0.250000 0.713935
O O14 0.367033 0.158323 0.571112
O O15 0.750000 0.617661 0.500000
#
# Coordination Sequence:
#
# PCOD9503322 Si02
#       6
#    16  16  16  16  16  16
#     4   9  17  31  58  92 118 148 198 252 293 336
#     4  11  21  36  61  86 118 156 197 245 292 347
#     4  11  20  36  58  86 117 156 197 240 290 347
#     4  12  26  40  57  87 120 156 199 241 294 357
#     4  10  20  37  59  83 120 159 194 245 298 348
#     4   9  18  33  56  90 120 149 197 249 297 338
#
# _framework density 19.983476
#
# number of rings (size 3 to 8) (size 9 to 14) (size 15 to 20)
#    0.000    1.667    3.333    3.000    0.000    7.000 
#    0.000    1.667    0.000    1.000    0.000    0.000 
#    0.000    0.000    0.000    0.000    0.000    0.000 
#
# Total GULP energy -268174.951381 kJ/mol
# GULP energy per Si atom -5586.978154 kJ/mol
# Density = 1.993799 g / cm^3
# Si number density = 19.983476 Si / 1000 Ang^3
#
#
#
# Elastic Constant Matrix: (Units=GPa)
#
#
# Indices 1 2 3 4 5 6 
#
# 1 66.8159 23.0491 17.7883 0.0000 0.0000 0.0000
# 2 23.0491 138.0048 25.8821 0.0000 0.0000 0.0000
# 3 17.7883 25.8821 82.2536 0.0000 0.0000 0.0000
# 4 0.0000 0.0000 0.0000 19.6671 0.0000 0.0000
# 5 0.0000 0.0000 0.0000 0.0000 2.6216 0.0000
# 6 0.0000 0.0000 0.0000 0.0000 0.0000 7.4923
#
#
#
# Elastic Compliance Matrix: (Units=1/GPa)
#
#
# Indices 1 2 3 4 5 6 
#
# 1 0.016495 -0.002217 -0.002870 0.000000 0.000000 0.000000
# 2 -0.002217 0.007998 -0.002037 0.000000 0.000000 0.000000
# 3 -0.002870 -0.002037 0.013419 0.000000 0.000000 0.000000
# 4 0.000000 0.000000 0.000000 0.050846 0.000000 0.000000
# 5 0.000000 0.000000 0.000000 0.000000 0.381451 0.000000
# 6 0.000000 0.000000 0.000000 0.000000 0.000000 0.133470
#
#
# Mechanical properties :
#
#
# Convention : Reuss Voigt Hill
#
# Bulk Modulus (GPa) = 42.25640 46.72371 44.49005
# Shear Modulus (GPa) = 7.98956 20.64652 14.31804
#
# Velocity S-wave (km/s) = 2.00169 3.21780 2.67964
# Velocity P-wave (km/s) = 5.15111 6.10226 5.64675
#
# Compressibility (1/GPa) = 0.02366505
#
# Stress axis : x y z
#
# Youngs Moduli (GPa) = 60.62368 125.02395 74.51992
#
# Poissons Ratio (x) = 0.27715 0.21385
# Poissons Ratio (y) = 0.13439 0.15183
# Poissons Ratio (z) = 0.17397 0.25473
#
# Static dielectric constant tensor:
#      x y z
#    x 1.670840 0.000000 0.000000 
#    y 0.000000 1.749460 0.000000 
#    z 0.000000 0.000000 1.726210 
# 
# From -- ./inp_files/19657.got.cif
#   From: 2010.05.17/outbox.cif.g08.bks.cpg/sg67_10_cif.got.tgz:19657.got - 2010.06.03 18:28:57.
