data_PCOD9503136
_publ_section_title
;
Structure prediction by ZEFSAII (Michael W. Deem and Ramdas Pophale) SiO2 
 PCOD9503136
Probable space group: C M M A
;
_chemical_formula_sum "Si O2"
_cell_formula_units_Z 72
_cell_length_a 7.600189
_cell_length_b 28.566024
_cell_length_c 13.312441
_cell_angle_alpha 90.000000
_cell_angle_beta 90.000000
_cell_angle_gamma 90.000000
_cell_volume 2890.226543
_symmetry_space_group_name_H-M "C M M A"
_symmetry_group_IT_number 67
_symmetry_cell_setting 'orthorhombic'
loop_
_space_group_symop_operation_xyz
x,y,z
-x,1/2-y,z
x,-y,-z
-x,1/2+y,-z
-x,-y,-z
x,1/2+y,-z
-x,y,z
x,1/2-y,z
1/2+x,1/2+y,z
1/2-x,-y,z
1/2+x,1/2-y,-z
1/2-x,y,-z
1/2-x,1/2-y,-z
1/2+x,y,-z
1/2-x,1/2+y,z
1/2+x,-y,z
loop_
_atom_site_type_symbol
_atom_site_label
_atom_site_fract_x
_atom_site_fract_y
_atom_site_fract_z
Si Si1 0.288544 0.250000 0.620317
Si Si2 0.288363 0.850669 0.381882
Si Si3 0.302986 0.551852 0.308978
Si Si4 0.290065 0.903668 0.882835
Si Si5 0.788888 0.300428 0.880124
O O1 0.500000 0.250000 0.630703
O O2 0.250000 0.250000 0.500000
O O3 0.218720 0.199624 0.658544
O O4 0.500000 0.849527 0.366276
O O5 0.250000 0.849988 0.500000
O O6 0.211365 0.900205 0.344848
O O7 0.500000 0.556195 0.346316
O O8 0.250000 0.500000 0.339235
O O9 0.292179 0.557529 0.188794
O O10 0.500000 0.904871 0.870968
O O11 0.222279 0.851866 0.848674
O O12 0.250000 0.909668 0.000000
O O13 0.718218 0.250000 0.842759
O O14 0.000000 0.300448 0.868828
O O15 0.750000 0.300364 0.000000
#
# Coordination Sequence:
#
# PCOD9503136 Si02
#       5
#     8  16  16  16  16
#     4   8  14  30  56  86 117 148 181 224 275 334
#     4   9  19  36  61  89 119 151 187 229 281 340
#     4  11  24  41  58  82 114 151 195 243 289 341
#     4  10  20  36  58  82 111 149 192 241 290 341
#     4   8  14  26  46  72 103 137 174 217 268 326
#
# _framework density 24.911543000000002
#
# number of rings (size 3 to 8) (size 9 to 14) (size 15 to 20)
#    0.000    2.667    0.000    1.333    0.000    3.556 
#    2.000    4.444    0.000    0.000    0.000    0.000 
#    0.000    0.000    0.000    0.000    0.000    0.000 
#
# Total GULP energy -200983.627647 kJ/mol
# GULP energy per Si atom -5582.878546 kJ/mol
# Density = 2.485484 g / cm^3
# Si number density = 24.911543 Si / 1000 Ang^3
#
#
#
# Elastic Constant Matrix: (Units=GPa)
#
#
# Indices 1 2 3 4 5 6 
#
# 1 87.0825 18.0660 -6.7209 0.0000 0.0000 0.0000
# 2 18.0660 244.0909 41.4445 0.0000 0.0000 0.0000
# 3 -6.7209 41.4445 52.6817 0.0000 0.0000 0.0000
# 4 0.0000 0.0000 0.0000 42.2824 0.0000 0.0000
# 5 0.0000 0.0000 0.0000 0.0000 23.3467 0.0000
# 6 0.0000 0.0000 0.0000 0.0000 0.0000 15.9567
#
#
#
# Elastic Compliance Matrix: (Units=1/GPa)
#
#
# Indices 1 2 3 4 5 6 
#
# 1 0.011955 -0.001320 0.002564 0.000000 0.000000 0.000000
# 2 -0.001320 0.004874 -0.004003 0.000000 0.000000 0.000000
# 3 0.002564 -0.004003 0.022458 0.000000 0.000000 0.000000
# 4 0.000000 0.000000 0.000000 0.023650 0.000000 0.000000
# 5 0.000000 0.000000 0.000000 0.000000 0.042833 0.000000
# 6 0.000000 0.000000 0.000000 0.000000 0.000000 0.062669
#
#
# Mechanical properties :
#
#
# Convention : Reuss Voigt Hill
#
# Bulk Modulus (GPa) = 29.61320 54.38157 41.99738
# Shear Modulus (GPa) = 26.99568 38.38821 32.69195
#
# Velocity S-wave (km/s) = 3.29547 3.92979 3.62653
# Velocity P-wave (km/s) = 5.13744 6.51677 5.86778
#
# Compressibility (1/GPa) = 0.03376873
#
# Stress axis : x y z
#
# Youngs Moduli (GPa) = 83.64628 205.16166 44.52738
#
# Poissons Ratio (x) = 0.27084 -0.11416
# Poissons Ratio (y) = 0.11042 0.17824
# Poissons Ratio (z) = -0.21445 0.82125
#
# Static dielectric constant tensor:
#      x y z
#    x 1.945020 0.000000 0.000000 
#    y 0.000000 2.061090 0.000000 
#    z 0.000000 0.000000 2.039850 
# 
# From -- ./inp_files/25067.got.cif
#   From: 2010.05.17/outbox.cif.g08.bks.cpg/sg67_13_cif.got.tgz:25067.got - 2010.06.03 18:28:57.
