data_PCOD9503124
_publ_section_title
;
Structure prediction by ZEFSAII (Michael W. Deem and Ramdas Pophale) SiO2 
 PCOD9503124
Probable space group: C M M A
;
_chemical_formula_sum "Si O2"
_cell_formula_units_Z 116
_cell_length_a 17.761425
_cell_length_b 15.105252
_cell_length_c 22.025687
_cell_angle_alpha 90.000000
_cell_angle_beta 90.000000
_cell_angle_gamma 90.000000
_cell_volume 5909.289197
_symmetry_space_group_name_H-M "C M M A"
_symmetry_group_IT_number 67
_symmetry_cell_setting 'orthorhombic'
loop_
_space_group_symop_operation_xyz
x,y,z
-x,1/2-y,z
x,-y,-z
-x,1/2+y,-z
-x,-y,-z
x,1/2+y,-z
-x,y,z
x,1/2-y,z
1/2+x,1/2+y,z
1/2-x,-y,z
1/2+x,1/2-y,-z
1/2-x,y,-z
1/2-x,1/2-y,-z
1/2+x,y,-z
1/2-x,1/2+y,z
1/2+x,-y,z
loop_
_atom_site_type_symbol
_atom_site_label
_atom_site_fract_x
_atom_site_fract_y
_atom_site_fract_z
Si Si1 0.743381 0.395009 0.226621
Si Si2 0.876434 0.902613 0.011642
Si Si3 0.259218 0.852436 0.088743
Si Si4 0.000000 0.750000 0.032617
Si Si5 0.916213 0.648527 0.279371
Si Si6 0.184476 0.151712 0.351023
Si Si7 0.311966 0.850777 0.551850
Si Si8 0.085966 0.514134 0.393221
O O1 0.750000 0.500000 0.232651
O O2 0.768644 0.367406 0.159927
O O3 0.656359 0.367216 0.237527
O O4 0.794934 0.356360 0.280342
O O5 0.832798 0.873609 0.950372
O O6 0.934865 0.828104 0.030182
O O7 0.810310 0.908513 0.062244
O O8 0.908587 0.000000 0.000000
O O9 0.239727 0.750000 0.077846
O O10 0.911272 0.750000 0.302361
O O11 0.913701 0.578849 0.334216
O O12 0.000000 0.639820 0.250267
O O13 0.153998 0.250000 0.364402
O O14 0.263836 0.144015 0.386195
O O15 0.132175 0.073306 0.375331
O O16 0.341223 0.750000 0.544891
O O17 0.250000 0.865725 0.500000
O O18 0.373830 0.926561 0.555537
O O19 0.000000 0.493037 0.408284
#
# Coordination Sequence:
#
# PCOD9503124 Si02
#       8
#    16  16  16   4  16  16  16  16
#     4  12  21  37  63  93 124 168 213 260 312 381
#     4  11  22  42  65  94 123 167 212 263 321 381
#     4  11  21  40  65  91 126 161 220 269 310 378
#     4  12  22  42  68  86 140 166 202 264 330 396
#     4  10  20  36  57  88 124 154 191 252 317 370
#     4  11  22  39  60  87 122 165 217 258 304 368
#     4  10  21  39  64  93 123 158 203 258 312 372
#     4  11  22  38  62  88 126 162 204 255 311 372
#
# _framework density 19.630110999999999
#
# number of rings (size 3 to 8) (size 9 to 14) (size 15 to 20)
#    0.000    1.103    4.138    4.345    0.000    2.207 
#    1.241    1.379    3.034    2.483    0.000    0.000 
#    0.000    0.000    0.000    0.000    0.000    0.000 
#
# Total GULP energy -323562.625458 kJ/mol
# GULP energy per Si atom -5578.665956 kJ/mol
# Density = 1.958543 g / cm^3
# Si number density = 19.630111 Si / 1000 Ang^3
#
#
#
# Elastic Constant Matrix: (Units=GPa)
#
#
# Indices 1 2 3 4 5 6 
#
# 1 106.7869 43.4443 13.0932 0.0000 0.0000 0.0000
# 2 43.4443 135.4351 -1.2563 0.0000 0.0000 0.0000
# 3 13.0932 -1.2563 63.2047 0.0000 0.0000 0.0000
# 4 0.0000 0.0000 0.0000 22.7613 0.0000 0.0000
# 5 0.0000 0.0000 0.0000 0.0000 114.0261 0.0000
# 6 0.0000 0.0000 0.0000 0.0000 0.0000 22.9320
#
#
#
# Elastic Compliance Matrix: (Units=1/GPa)
#
#
# Indices 1 2 3 4 5 6 
#
# 1 0.011115 -0.003587 -0.002374 0.000000 0.000000 0.000000
# 2 -0.003587 0.008543 0.000913 0.000000 0.000000 0.000000
# 3 -0.002374 0.000913 0.016332 0.000000 0.000000 0.000000
# 4 0.000000 0.000000 0.000000 0.043934 0.000000 0.000000
# 5 0.000000 0.000000 0.000000 0.000000 0.008770 0.000000
# 6 0.000000 0.000000 0.000000 0.000000 0.000000 0.043607
#
#
# Mechanical properties :
#
#
# Convention : Reuss Voigt Hill
#
# Bulk Modulus (GPa) = 38.62089 46.22102 42.42096
# Shear Modulus (GPa) = 33.10636 48.62023 40.86330
#
# Velocity S-wave (km/s) = 4.11117 4.98216 4.56748
# Velocity P-wave (km/s) = 6.50020 7.52948 7.03369
#
# Compressibility (1/GPa) = 0.02589272
#
# Stress axis : x y z
#
# Youngs Moduli (GPa) = 89.96864 117.05706 61.23128
#
# Poissons Ratio (x) = 0.41994 0.14535
# Poissons Ratio (y) = 0.32276 -0.05590
# Poissons Ratio (z) = 0.21357 -0.10687
#
# Static dielectric constant tensor:
#      x y z
#    x 1.692780 0.000000 0.000000 
#    y 0.000000 1.701730 0.000000 
#    z 0.000000 0.000000 1.710610 
# 
# From -- ./inp_files/42209.got.cif
#   From: 2010.05.17/outbox.cif.g08.bks.cpg/sg67_22_cif.got.tgz:42209.got - 2010.06.03 18:28:57.
