data_PCOD9503107
_publ_section_title
;
Structure prediction by ZEFSAII (Michael W. Deem and Ramdas Pophale) SiO2 
 PCOD9503107
Probable space group: C M M A
;
_chemical_formula_sum "Si O2"
_cell_formula_units_Z 88
_cell_length_a 8.649064
_cell_length_b 25.546705
_cell_length_c 22.380528
_cell_angle_alpha 90.000000
_cell_angle_beta 90.000000
_cell_angle_gamma 90.000000
_cell_volume 4945.091501
_symmetry_space_group_name_H-M "C M M A"
_symmetry_group_IT_number 67
_symmetry_cell_setting 'orthorhombic'
loop_
_space_group_symop_operation_xyz
x,y,z
-x,1/2-y,z
x,-y,-z
-x,1/2+y,-z
-x,-y,-z
x,1/2+y,-z
-x,y,z
x,1/2-y,z
1/2+x,1/2+y,z
1/2-x,-y,z
1/2+x,1/2-y,-z
1/2-x,y,-z
1/2-x,1/2-y,-z
1/2+x,y,-z
1/2-x,1/2+y,z
1/2+x,-y,z
loop_
_atom_site_type_symbol
_atom_site_label
_atom_site_fract_x
_atom_site_fract_y
_atom_site_fract_z
Si Si1 0.185810 0.556694 0.656415
Si Si2 0.315531 0.640019 0.563790
Si Si3 0.185474 0.750000 0.933724
Si Si4 0.184587 0.250000 0.740297
Si Si5 0.815352 0.750000 0.606722
Si Si6 0.687537 0.168266 0.834050
Si Si7 0.314603 0.444216 0.795981
O O1 0.250000 0.500000 0.637682
O O2 0.256165 0.601809 0.615723
O O3 0.229579 0.563539 0.726241
O O4 0.000000 0.557588 0.652269
O O5 0.500000 0.640733 0.562601
O O6 0.250000 0.622017 0.500000
O O7 0.252062 0.697993 0.576697
O O8 0.231707 0.699566 0.893964
O O9 0.000000 0.750000 0.937036
O O10 0.250000 0.750000 0.000000
O O11 0.264116 0.250000 0.675935
O O12 0.239833 0.299989 0.778836
O O13 0.000000 0.250000 0.733642
O O14 0.000000 0.750000 0.602135
O O15 0.500000 0.171307 0.828194
O O16 0.734045 0.107665 0.831480
O O17 0.500000 0.447107 0.798032
O O18 0.250000 0.500000 0.816409
#
# Coordination Sequence:
#
# PCOD9503107 Si02
#       7
#    16  16   8   8   8  16  16
#     4  10  20  36  57  82 108 138 172 214 266 322
#     4  12  25  41  58  78 102 133 175 222 269 324
#     4   9  18  32  52  76 106 143 185 224 263 306
#     4  11  21  32  52  83 109 133 169 218 265 311
#     4  12  24  40  58  77 105 140 173 212 266 327
#     4   9  18  34  53  76 108 146 178 212 262 319
#     4   9  18  32  53  78 106 136 169 208 258 313
#
# _framework density 17.795425000000002
#
# number of rings (size 3 to 8) (size 9 to 14) (size 15 to 20)
#    0.000    1.818    0.000    5.727    0.000    4.727 
#    0.000    1.818    0.000    0.545    0.000    3.818 
#    0.000    0.000    0.000    0.000    0.000    0.000 
#
# Total GULP energy -245790.749781 kJ/mol
# GULP energy per Si atom -5586.153404 kJ/mol
# Density = 1.775492 g / cm^3
# Si number density = 17.795425 Si / 1000 Ang^3
#
#
#
# Elastic Constant Matrix: (Units=GPa)
#
#
# Indices 1 2 3 4 5 6 
#
# 1 78.5649 36.1718 23.2117 0.0000 0.0000 0.0000
# 2 36.1718 159.9829 47.2689 0.0000 0.0000 0.0000
# 3 23.2117 47.2689 74.5471 0.0000 0.0000 0.0000
# 4 0.0000 0.0000 0.0000 144.2988 0.0000 0.0000
# 5 0.0000 0.0000 0.0000 0.0000 26.9904 0.0000
# 6 0.0000 0.0000 0.0000 0.0000 0.0000 32.5565
#
#
#
# Elastic Compliance Matrix: (Units=1/GPa)
#
#
# Indices 1 2 3 4 5 6 
#
# 1 0.014750 -0.002434 -0.003049 0.000000 0.000000 0.000000
# 2 -0.002434 0.008093 -0.004374 0.000000 0.000000 0.000000
# 3 -0.003049 -0.004374 0.017137 0.000000 0.000000 0.000000
# 4 0.000000 0.000000 0.000000 0.006930 0.000000 0.000000
# 5 0.000000 0.000000 0.000000 0.000000 0.037050 0.000000
# 6 0.000000 0.000000 0.000000 0.000000 0.000000 0.030716
#
#
# Mechanical properties :
#
#
# Convention : Reuss Voigt Hill
#
# Bulk Modulus (GPa) = 49.34386 58.48885 53.91636
# Shear Modulus (GPa) = 35.42423 54.53197 44.97810
#
# Velocity S-wave (km/s) = 4.46650 5.54169 5.03289
# Velocity P-wave (km/s) = 7.37482 8.59569 8.00855
#
# Compressibility (1/GPa) = 0.02026594
#
# Stress axis : x y z
#
# Youngs Moduli (GPa) = 67.79729 123.55865 58.35235
#
# Poissons Ratio (x) = 0.30074 0.17794
# Poissons Ratio (y) = 0.16502 0.25523
# Poissons Ratio (z) = 0.20674 0.54044
#
# Static dielectric constant tensor:
#      x y z
#    x 1.598000 0.000000 0.000000 
#    y 0.000000 1.611740 0.000000 
#    z 0.000000 0.000000 1.584060 
# 
# From -- ./inp_files/36974.got.cif
#   From: 2010.05.17/outbox.cif.g08.bks.cpg/sg67_19_cif.got.tgz:36974.got - 2010.06.03 18:28:57.
