data_PCOD9503634
_publ_section_title
;
Structure prediction by ZEFSAII (Michael W. Deem and Ramdas Pophale) SiO2 
 PCOD9503634
Probable space group: C M M A
;
_chemical_formula_sum "Si O2"
_cell_formula_units_Z 72
_cell_length_a 8.540155
_cell_length_b 15.780840
_cell_length_c 28.825414
_cell_angle_alpha 90.000000
_cell_angle_beta 90.000000
_cell_angle_gamma 90.000000
_cell_volume 3884.824671
_symmetry_space_group_name_H-M "C M M A"
_symmetry_group_IT_number 67
_symmetry_cell_setting 'orthorhombic'
loop_
_space_group_symop_operation_xyz
x,y,z
-x,1/2-y,z
x,-y,-z
-x,1/2+y,-z
-x,-y,-z
x,1/2+y,-z
-x,y,z
x,1/2-y,z
1/2+x,1/2+y,z
1/2-x,-y,z
1/2+x,1/2-y,-z
1/2-x,y,-z
1/2-x,1/2-y,-z
1/2+x,y,-z
1/2-x,1/2+y,z
1/2+x,-y,z
loop_
_atom_site_type_symbol
_atom_site_label
_atom_site_fract_x
_atom_site_fract_y
_atom_site_fract_z
Si Si1 0.813312 0.250000 0.389228
Si Si2 0.811235 0.407431 0.778517
Si Si3 0.689631 0.250000 0.052176
Si Si4 0.190283 0.250000 0.715095
Si Si5 0.312734 0.907402 0.552138
Si Si6 0.189018 0.592647 0.114783
O O1 0.760357 0.250000 0.335961
O O2 0.746640 0.333067 0.414791
O O3 0.000000 0.250000 0.392832
O O4 0.750000 0.500000 0.765026
O O5 0.761373 0.333026 0.744150
O O6 0.761140 0.390726 0.831849
O O7 0.000000 0.409133 0.778396
O O8 0.500000 0.250000 0.051669
O O9 0.741476 0.166757 0.080508
O O10 0.750000 0.250000 0.000000
O O11 0.000000 0.250000 0.711948
O O12 0.500000 0.908905 0.551168
O O13 0.250000 0.891988 0.500000
O O14 0.250000 0.000000 0.566580
O O15 0.250000 0.500000 0.101393
O O16 0.000000 0.591323 0.114446
#
# Coordination Sequence:
#
# PCOD9503634 Si02
#       6
#     8  16   8   8  16  16
#     4  12  25  40  57  83 118 156 193 232 278 331
#     4   9  18  34  57  80 104 135 176 221 269 321
#     4  10  21  35  51  73 105 140 175 212 261 317
#     4  10  21  37  55  78 109 146 181 220 273 332
#     4  11  22  40  64  90 117 149 190 236 283 333
#     4   9  18  34  55  78 102 134 174 219 265 317
#
# _framework density 18.533655
#
# number of rings (size 3 to 8) (size 9 to 14) (size 15 to 20)
#    0.000    2.000    0.000    4.667    0.000    5.778 
#    0.000    4.444    0.000    6.667    0.000    0.000 
#    0.000    0.000    0.000    0.000    0.000    0.000 
#
# Total GULP energy -201093.165445 kJ/mol
# GULP energy per Si atom -5585.921262 kJ/mol
# Density = 1.849147 g / cm^3
# Si number density = 18.533655 Si / 1000 Ang^3
#
#
#
# Elastic Constant Matrix: (Units=GPa)
#
#
# Indices 1 2 3 4 5 6 
#
# 1 76.1847 56.2468 46.6629 0.0000 0.0000 0.0000
# 2 56.2468 207.6635 145.2006 0.0000 0.0000 0.0000
# 3 46.6629 145.2006 139.0428 0.0000 0.0000 0.0000
# 4 0.0000 0.0000 0.0000 0.8352 0.0000 0.0000
# 5 0.0000 0.0000 0.0000 0.0000 30.7211 0.0000
# 6 0.0000 0.0000 0.0000 0.0000 0.0000 33.8648
#
#
#
# Elastic Compliance Matrix: (Units=1/GPa)
#
#
# Indices 1 2 3 4 5 6 
#
# 1 0.016802 -0.002254 -0.003285 0.000000 0.000000 0.000000
# 2 -0.002254 0.018149 -0.018197 0.000000 0.000000 0.000000
# 3 -0.003285 -0.018197 0.027297 0.000000 0.000000 0.000000
# 4 0.000000 0.000000 0.000000 1.197315 0.000000 0.000000
# 5 0.000000 0.000000 0.000000 0.000000 0.032551 0.000000
# 6 0.000000 0.000000 0.000000 0.000000 0.000000 0.029529
#
#
# Mechanical properties :
#
#
# Convention : Reuss Voigt Hill
#
# Bulk Modulus (GPa) = 67.67178 102.12352 84.89765
# Shear Modulus (GPa) = 3.63890 24.73626 14.18758
#
# Velocity S-wave (km/s) = 1.40274 3.65727 2.76978
# Velocity P-wave (km/s) = 6.26225 8.54725 7.49237
#
# Compressibility (1/GPa) = 0.01477721
#
# Stress axis : x y z
#
# Youngs Moduli (GPa) = 59.51601 55.09860 36.63426
#
# Poissons Ratio (x) = 0.12420 0.12034
# Poissons Ratio (y) = 0.13416 0.66662
# Poissons Ratio (z) = 0.19550 1.00260
#
# Static dielectric constant tensor:
#      x y z
#    x 1.632950 0.000000 0.000000 
#    y 0.000000 1.618720 0.000000 
#    z 0.000000 0.000000 1.612150 
# 
# From -- ./inp_files/43151.got.cif
#   From: 2010.05.17/outbox.cif.g08.bks.cpg/sg67_22_cif.got.tgz:43151.got - 2010.06.03 18:28:57.
