data_PCOD9503906
_publ_section_title
;
Structure prediction by ZEFSAII (Michael W. Deem and Ramdas Pophale) SiO2 
 PCOD9503906
Probable space group: C M M A
;
_chemical_formula_sum "Si O2"
_cell_formula_units_Z 80
_cell_length_a 19.073482
_cell_length_b 8.785090
_cell_length_c 26.199586
_cell_angle_alpha 90.000000
_cell_angle_beta 90.000000
_cell_angle_gamma 90.000000
_cell_volume 4390.061736
_symmetry_space_group_name_H-M "C M M A"
_symmetry_group_IT_number 67
_symmetry_cell_setting 'orthorhombic'
loop_
_space_group_symop_operation_xyz
x,y,z
-x,1/2-y,z
x,-y,-z
-x,1/2+y,-z
-x,-y,-z
x,1/2+y,-z
-x,y,z
x,1/2-y,z
1/2+x,1/2+y,z
1/2-x,-y,z
1/2+x,1/2-y,-z
1/2-x,y,-z
1/2-x,1/2-y,-z
1/2+x,y,-z
1/2-x,1/2+y,z
1/2+x,-y,z
loop_
_atom_site_type_symbol
_atom_site_label
_atom_site_fract_x
_atom_site_fract_y
_atom_site_fract_z
Si Si1 0.917786 0.432093 0.444470
Si Si2 0.827684 0.068654 0.946436
Si Si3 0.172214 0.067044 0.647569
Si Si4 0.918251 0.432806 0.746518
Si Si5 0.583592 0.429582 0.855702
O O1 0.900524 0.500000 0.500000
O O2 0.909705 0.250000 0.445390
O O3 0.869922 0.503803 0.400908
O O4 0.000000 0.467101 0.434353
O O5 0.823370 0.250000 0.950355
O O6 0.750000 0.000000 0.939010
O O7 0.875597 0.018553 0.899480
O O8 0.854651 0.000000 0.000000
O O9 0.174831 0.250000 0.644980
O O10 0.129873 0.023732 0.698867
O O11 0.250000 0.000000 0.648698
O O12 0.914246 0.250000 0.753088
O O13 0.896918 0.511930 0.799298
O O14 0.000000 0.471178 0.736154
O O15 0.500000 0.453648 0.861083
O O16 0.597937 0.250000 0.860179
#
# Coordination Sequence:
#
# PCOD9503906 Si02
#       5
#    16  16  16  16  16
#     4  10  21  38  61  87 114 146 186 230 277 332
#     4  11  22  38  59  82 112 148 187 230 278 334
#     4  11  23  38  57  83 116 151 188 231 279 331
#     4   9  19  37  59  81 108 146 189 232 280 332
#     4  10  21  37  58  85 115 147 186 231 278 329
#
# _framework density 18.222978999999999
#
# number of rings (size 3 to 8) (size 9 to 14) (size 15 to 20)
#    0.000    1.800    0.000    4.800    0.000    6.400 
#    0.000    6.000    0.000    0.000    0.000    0.000 
#    0.000    0.000    0.000    0.000    0.000    0.000 
#
# Total GULP energy -223536.462888 kJ/mol
# GULP energy per Si atom -5588.411572 kJ/mol
# Density = 1.818150 g / cm^3
# Si number density = 18.222979 Si / 1000 Ang^3
#
#
#
# Elastic Constant Matrix: (Units=GPa)
#
#
# Indices 1 2 3 4 5 6 
#
# 1 86.3322 66.5996 103.0138 0.0000 0.0000 0.0000
# 2 66.5996 107.1722 91.6620 0.0000 0.0000 0.0000
# 3 103.0138 91.6620 186.0710 0.0000 0.0000 0.0000
# 4 0.0000 0.0000 0.0000 36.2946 0.0000 0.0000
# 5 0.0000 0.0000 0.0000 0.0000 8650.2506 0.0000
# 6 0.0000 0.0000 0.0000 0.0000 0.0000 24.3553
#
#
#
# Elastic Compliance Matrix: (Units=1/GPa)
#
#
# Indices 1 2 3 4 5 6 
#
# 1 0.039606 -0.010124 -0.016940 0.000000 0.000000 0.000000
# 2 -0.010124 0.018712 -0.003613 0.000000 0.000000 0.000000
# 3 -0.016940 -0.003613 0.016532 0.000000 0.000000 0.000000
# 4 0.000000 0.000000 0.000000 0.027552 0.000000 0.000000
# 5 0.000000 0.000000 0.000000 0.000000 0.000116 0.000000
# 6 0.000000 0.000000 0.000000 0.000000 0.000000 0.041059
#
#
# Mechanical properties :
#
#
# Convention : Reuss Voigt Hill
#
# Bulk Modulus (GPa) = 74.08981 100.23623 87.16302
# Shear Modulus (GPa) = 23.87432 1750.06677 886.97054
#
# Velocity S-wave (km/s) = 3.62349 31.02334 22.08594
# Velocity P-wave (km/s) = 7.63229 36.58399 26.42574
#
# Compressibility (1/GPa) = 0.01349713
#
# Stress axis : x y z
#
# Youngs Moduli (GPa) = 25.24870 53.44065 60.48748
#
# Poissons Ratio (x) = 0.54104 1.02463
# Poissons Ratio (y) = 0.25562 0.21854
# Poissons Ratio (z) = 0.42770 0.19308
#
# Static dielectric constant tensor:
#      x y z
#    x 1.604140 0.000000 0.000000 
#    y 0.000000 1.609770 0.000000 
#    z 0.000000 0.000000 1.595730 
# 
# From -- ./inp_files/43222.got.cif
#   From: 2010.05.17/outbox.cif.g08.bks.cpg/sg67_22_cif.got.tgz:43222.got - 2010.06.03 18:28:57.
