data_PCOD9503349
_publ_section_title
;
Structure prediction by ZEFSAII (Michael W. Deem and Ramdas Pophale) SiO2 
 PCOD9503349
Probable space group: C M M A
;
_chemical_formula_sum "Si O2"
_cell_formula_units_Z 104
_cell_length_a 31.926451
_cell_length_b 8.681336
_cell_length_c 19.913719
_cell_angle_alpha 90.000000
_cell_angle_beta 90.000000
_cell_angle_gamma 90.000000
_cell_volume 5519.370960
_symmetry_space_group_name_H-M "C M M A"
_symmetry_group_IT_number 67
_symmetry_cell_setting 'orthorhombic'
loop_
_space_group_symop_operation_xyz
x,y,z
-x,1/2-y,z
x,-y,-z
-x,1/2+y,-z
-x,-y,-z
x,1/2+y,-z
-x,y,z
x,1/2-y,z
1/2+x,1/2+y,z
1/2-x,-y,z
1/2+x,1/2-y,-z
1/2-x,y,-z
1/2-x,1/2-y,-z
1/2+x,y,-z
1/2-x,1/2+y,z
1/2+x,-y,z
loop_
_atom_site_type_symbol
_atom_site_label
_atom_site_fract_x
_atom_site_fract_y
_atom_site_fract_z
Si Si1 0.426038 0.934675 0.070417
Si Si2 0.000000 0.564918 0.575274
Si Si3 0.407570 0.435404 0.575395
Si Si4 0.171910 0.435096 0.070322
Si Si5 0.294610 0.434996 0.786454
Si Si6 0.627283 0.566691 0.704824
Si Si7 0.453303 0.063521 0.781915
O O1 0.427237 0.750000 0.066157
O O2 0.377074 0.982378 0.077093
O O3 0.448991 0.977996 0.139163
O O4 0.442343 0.000000 0.000000
O O5 0.000000 0.500000 0.500000
O O6 0.954461 0.519321 0.601897
O O7 0.000000 0.750000 0.574310
O O8 0.402835 0.500000 0.500000
O O9 0.405021 0.250000 0.573996
O O10 0.375876 0.505049 0.628836
O O11 0.172709 0.250000 0.067615
O O12 0.196341 0.485399 0.136575
O O13 0.188081 0.500000 0.000000
O O14 0.294532 0.250000 0.784668
O O15 0.250000 0.500000 0.764501
O O16 0.332687 0.496539 0.742044
O O17 0.629096 0.750000 0.705809
O O18 0.585507 0.509841 0.743310
O O19 0.500000 0.021488 0.757768
O O20 0.449527 0.250000 0.776320
#
# Coordination Sequence:
#
# PCOD9503349 Si02
#       7
#    16   8  16  16  16  16  16
#     4   9  17  32  52  77 107 148 195 244 297 350
#     4   8  16  30  52  82 116 154 193 230 277 330
#     4  10  20  37  60  88 121 160 200 242 289 345
#     4   9  18  33  55  80 113 149 189 238 294 353
#     4  11  23  42  64  89 118 153 195 244 299 358
#     4  12  25  40  60  88 121 158 198 244 295 351
#     4  10  21  38  58  80 113 158 204 248 299 355
#
# _framework density 18.842728000000001
#
# number of rings (size 3 to 8) (size 9 to 14) (size 15 to 20)
#    0.000    2.000    1.538    2.308    1.077    3.385 
#    0.000    1.538    0.000    0.462    0.000    3.231 
#    0.000    0.000    0.000    0.000    0.000    0.000 
#
# Total GULP energy -290337.544109 kJ/mol
# GULP energy per Si atom -5583.414310 kJ/mol
# Density = 1.879984 g / cm^3
# Si number density = 18.842728 Si / 1000 Ang^3
#
#
#
# Elastic Constant Matrix: (Units=GPa)
#
#
# Indices 1 2 3 4 5 6 
#
# 1 123.2419 45.3942 69.2752 0.0000 0.0000 0.0000
# 2 45.3942 55.6118 42.2913 0.0000 0.0000 0.0000
# 3 69.2752 42.2913 123.4307 0.0000 0.0000 0.0000
# 4 0.0000 0.0000 0.0000 30.7330 0.0000 0.0000
# 5 0.0000 0.0000 0.0000 0.0000 12.7985 0.0000
# 6 0.0000 0.0000 0.0000 0.0000 0.0000 21.6540
#
#
#
# Elastic Compliance Matrix: (Units=1/GPa)
#
#
# Indices 1 2 3 4 5 6 
#
# 1 0.013707 -0.007220 -0.005220 0.000000 0.000000 0.000000
# 2 -0.007220 0.028121 -0.005583 0.000000 0.000000 0.000000
# 3 -0.005220 -0.005583 0.012944 0.000000 0.000000 0.000000
# 4 0.000000 0.000000 0.000000 0.032538 0.000000 0.000000
# 5 0.000000 0.000000 0.000000 0.000000 0.078134 0.000000
# 6 0.000000 0.000000 0.000000 0.000000 0.000000 0.046181
#
#
# Mechanical properties :
#
#
# Convention : Reuss Voigt Hill
#
# Bulk Modulus (GPa) = 53.39669 68.46732 60.93200
# Shear Modulus (GPa) = 19.69183 22.72533 21.20858
#
# Velocity S-wave (km/s) = 3.23625 3.47660 3.35857
# Velocity P-wave (km/s) = 6.50877 7.24781 6.88820
#
# Compressibility (1/GPa) = 0.01872775
#
# Stress axis : x y z
#
# Youngs Moduli (GPa) = 72.95400 35.56100 77.25518
#
# Poissons Ratio (x) = 0.25673 0.40324
# Poissons Ratio (y) = 0.52669 0.43132
# Poissons Ratio (z) = 0.38079 0.19854
#
# Static dielectric constant tensor:
#      x y z
#    x 1.659800 0.000000 0.000000 
#    y 0.000000 1.633940 0.000000 
#    z 0.000000 0.000000 1.657100 
# 
# From -- ./inp_files/40208.got.cif
#   From: 2010.05.17/outbox.cif.g08.bks.cpg/sg67_21_cif.got.tgz:40208.got - 2010.06.03 18:28:57.
