data_PCOD9503352
_publ_section_title
;
Structure prediction by ZEFSAII (Michael W. Deem and Ramdas Pophale) SiO2 
 PCOD9503352
Probable space group: C M M A
;
_chemical_formula_sum "Si O2"
_cell_formula_units_Z 104
_cell_length_a 20.599776
_cell_length_b 8.228553
_cell_length_c 30.353085
_cell_angle_alpha 90.000000
_cell_angle_beta 90.000000
_cell_angle_gamma 90.000000
_cell_volume 5145.040607
_symmetry_space_group_name_H-M "C M M A"
_symmetry_group_IT_number 67
_symmetry_cell_setting 'orthorhombic'
loop_
_space_group_symop_operation_xyz
x,y,z
-x,1/2-y,z
x,-y,-z
-x,1/2+y,-z
-x,-y,-z
x,1/2+y,-z
-x,y,z
x,1/2-y,z
1/2+x,1/2+y,z
1/2-x,-y,z
1/2+x,1/2-y,-z
1/2-x,y,-z
1/2-x,1/2-y,-z
1/2+x,y,-z
1/2-x,1/2+y,z
1/2+x,-y,z
loop_
_atom_site_type_symbol
_atom_site_label
_atom_site_fract_x
_atom_site_fract_y
_atom_site_fract_z
Si Si1 0.677695 0.053790 0.379227
Si Si2 0.925484 0.444297 0.794239
Si Si3 0.425736 0.946375 0.549048
Si Si4 0.318605 0.060875 0.858747
Si Si5 0.177028 0.946577 0.278224
Si Si6 0.500000 0.944390 0.949822
Si Si7 0.857122 0.554000 0.050621
O O1 0.675961 0.250000 0.378982
O O2 0.623809 0.995209 0.413639
O O3 0.666039 0.999589 0.328794
O O4 0.750000 0.000000 0.392003
O O5 0.930629 0.250000 0.789374
O O6 0.880794 0.476202 0.836834
O O7 0.880304 0.505896 0.753933
O O8 0.000000 0.507045 0.796502
O O9 0.500000 0.001962 0.556643
O O10 0.425989 0.750000 0.550122
O O11 0.406368 0.000000 0.500000
O O12 0.324466 0.250000 0.850483
O O13 0.250000 0.000000 0.839817
O O14 0.316397 0.025683 0.910906
O O15 0.176163 0.750000 0.277094
O O16 0.250000 0.000000 0.265717
O O17 0.500000 0.750000 0.946448
O O18 0.430008 0.999740 0.934651
O O19 0.500000 0.000000 0.000000
O O20 0.852128 0.750000 0.051983
O O21 0.845180 0.500000 0.000000
#
# Coordination Sequence:
#
# PCOD9503352 Si02
#       7
#    16  16  16  16  16   8  16
#     4   9  18  32  51  77 107 140 181 227 276 329
#     4  10  22  40  62  88 117 148 184 229 280 335
#     4   9  18  32  49  70 100 140 184 230 278 329
#     4  12  26  43  62  86 116 154 194 234 281 334
#     4   9  18  34  57  83 111 145 182 224 276 335
#     4   8  16  30  52  80 112 146 178 216 264 314
#     4  10  20  37  60  89 120 154 191 232 279 329
#
# _framework density 20.213640000000002
#
# number of rings (size 3 to 8) (size 9 to 14) (size 15 to 20)
#    0.000    2.308    0.000    2.308    1.077    4.615 
#    0.000    6.154    0.000    0.000    0.000    6.462 
#    0.000    0.000    0.000    0.000    0.000    0.000 
#
# Total GULP energy -289975.974085 kJ/mol
# GULP energy per Si atom -5576.461040 kJ/mol
# Density = 2.016763 g / cm^3
# Si number density = 20.213640 Si / 1000 Ang^3
#
#
#
# Elastic Constant Matrix: (Units=GPa)
#
#
# Indices 1 2 3 4 5 6 
#
# 1 156.5150 4.6423 76.7831 0.0000 0.0000 0.0000
# 2 4.6423 13.2544 -2.6098 0.0000 0.0000 0.0000
# 3 76.7831 -2.6098 122.7124 0.0000 0.0000 0.0000
# 4 0.0000 0.0000 0.0000 21.6600 0.0000 0.0000
# 5 0.0000 0.0000 0.0000 0.0000 47.9600 0.0000
# 6 0.0000 0.0000 0.0000 0.0000 0.0000 20.0766
#
#
#
# Elastic Compliance Matrix: (Units=1/GPa)
#
#
# Indices 1 2 3 4 5 6 
#
# 1 0.009480 -0.004507 -0.006028 0.000000 0.000000 0.000000
# 2 -0.004507 0.077907 0.004477 0.000000 0.000000 0.000000
# 3 -0.006028 0.004477 0.012016 0.000000 0.000000 0.000000
# 4 0.000000 0.000000 0.000000 0.046168 0.000000 0.000000
# 5 0.000000 0.000000 0.000000 0.000000 0.020851 0.000000
# 6 0.000000 0.000000 0.000000 0.000000 0.000000 0.049809
#
#
# Mechanical properties :
#
#
# Convention : Reuss Voigt Hill
#
# Bulk Modulus (GPa) = 11.45641 50.01257 30.73449
# Shear Modulus (GPa) = 19.42188 32.18372 25.80280
#
# Velocity S-wave (km/s) = 3.10309 3.99454 3.57670
# Velocity P-wave (km/s) = 4.30335 6.78755 5.68286
#
# Compressibility (1/GPa) = 0.08728741
#
# Stress axis : x y z
#
# Youngs Moduli (GPa) = 105.48699 12.83583 83.22314
#
# Poissons Ratio (x) = 0.05785 0.50163
# Poissons Ratio (y) = 0.47544 -0.37259
# Poissons Ratio (z) = 0.63583 -0.05747
#
# Static dielectric constant tensor:
#      x y z
#    x 1.757440 0.000000 0.000000 
#    y 0.000000 1.706330 0.000000 
#    z 0.000000 0.000000 1.718150 
# 
# From -- ./inp_files/44661.got.cif
#   From: 2010.05.17/outbox.cif.g08.bks.cpg/sg67_23_cif.got.tgz:44661.got - 2010.06.03 18:28:57.
