data_PCOD9503282
_publ_section_title
;
Structure prediction by ZEFSAII (Michael W. Deem and Ramdas Pophale) SiO2 
 PCOD9503282
Probable space group: C M M A
;
_chemical_formula_sum "Si O2"
_cell_formula_units_Z 112
_cell_length_a 14.636894
_cell_length_b 30.045719
_cell_length_c 12.101038
_cell_angle_alpha 90.000000
_cell_angle_beta 90.000000
_cell_angle_gamma 90.000000
_cell_volume 5321.746138
_symmetry_space_group_name_H-M "C M M A"
_symmetry_group_IT_number 67
_symmetry_cell_setting 'orthorhombic'
loop_
_space_group_symop_operation_xyz
x,y,z
-x,1/2-y,z
x,-y,-z
-x,1/2+y,-z
-x,-y,-z
x,1/2+y,-z
-x,y,z
x,1/2-y,z
1/2+x,1/2+y,z
1/2-x,-y,z
1/2+x,1/2-y,-z
1/2-x,y,-z
1/2-x,1/2-y,-z
1/2+x,y,-z
1/2-x,1/2+y,z
1/2+x,-y,z
loop_
_atom_site_type_symbol
_atom_site_label
_atom_site_fract_x
_atom_site_fract_y
_atom_site_fract_z
Si Si1 0.896260 0.064016 0.823682
Si Si2 0.292063 0.620410 0.651801
Si Si3 0.890591 0.590135 0.564552
Si Si4 0.108570 0.965956 0.765702
Si Si5 0.640419 0.700164 0.993672
Si Si6 0.601633 0.802153 0.733025
Si Si7 0.648317 0.603950 0.048863
O O1 0.828910 0.097780 0.762897
O O2 0.000000 0.067221 0.778118
O O3 0.859272 0.014383 0.802941
O O4 0.901027 0.076693 0.951705
O O5 0.184193 0.620672 0.628476
O O6 0.347922 0.593161 0.557430
O O7 0.327364 0.670365 0.662011
O O8 0.877448 0.544936 0.636068
O O9 0.000000 0.600287 0.566108
O O10 0.143685 0.926039 0.842550
O O11 0.000000 0.966052 0.783443
O O12 0.606775 0.750000 0.026140
O O13 0.615077 0.692743 0.865082
O O14 0.750000 0.702605 0.000000
O O15 0.613010 0.654978 0.057925
O O16 0.500000 0.818732 0.706293
O O17 0.607274 0.750000 0.710605
O O18 0.750000 0.607505 0.000000
#
# Coordination Sequence:
#
# PCOD9503282 Si02
#       7
#    16  16  16  16  16  16  16
#     4  11  22  37  59  88 119 157 208 258 301 356
#     4  11  22  39  67  91 115 158 206 253 305 355
#     4  10  23  42  61  86 122 160 200 247 301 364
#     4  10  23  39  55  81 122 164 199 244 305 367
#     4   9  19  34  54  84 121 159 199 249 303 357
#     4  10  20  36  62  95 126 156 201 261 312 355
#     4  11  21  33  55  84 119 161 204 247 305 363
#
# _framework density 21.045724
#
# number of rings (size 3 to 8) (size 9 to 14) (size 15 to 20)
#    0.000    1.714    1.429    3.000    2.000    5.143 
#    0.000    5.000    0.000    2.143    0.000    2.000 
#    0.000    0.000    0.000    0.000    0.000    0.000 
#
# Total GULP energy -312279.106130 kJ/mol
# GULP energy per Si atom -5576.412609 kJ/mol
# Density = 2.099782 g / cm^3
# Si number density = 21.045724 Si / 1000 Ang^3
#
#
#
# Elastic Constant Matrix: (Units=GPa)
#
#
# Indices 1 2 3 4 5 6 
#
# 1 113.3419 7.0287 3.1162 0.0000 0.0000 0.0000
# 2 7.0287 106.1557 5.5296 0.0000 0.0000 0.0000
# 3 3.1162 5.5296 62.4807 0.0000 0.0000 0.0000
# 4 0.0000 0.0000 0.0000 0.7822 0.0000 0.0000
# 5 0.0000 0.0000 0.0000 0.0000 11.3877 0.0000
# 6 0.0000 0.0000 0.0000 0.0000 0.0000 12.6791
#
#
#
# Elastic Compliance Matrix: (Units=1/GPa)
#
#
# Indices 1 2 3 4 5 6 
#
# 1 0.008869 -0.000567 -0.000392 0.000000 0.000000 0.000000
# 2 -0.000567 0.009500 -0.000812 0.000000 0.000000 0.000000
# 3 -0.000392 -0.000812 0.016096 0.000000 0.000000 0.000000
# 4 0.000000 0.000000 0.000000 1.278388 0.000000 0.000000
# 5 0.000000 0.000000 0.000000 0.000000 0.087814 0.000000
# 6 0.000000 0.000000 0.000000 0.000000 0.000000 0.078870
#
#
# Mechanical properties :
#
#
# Convention : Reuss Voigt Hill
#
# Bulk Modulus (GPa) = 32.33913 34.81415 33.57664
# Shear Modulus (GPa) = 3.34809 22.72340 13.03575
#
# Velocity S-wave (km/s) = 1.26266 3.28947 2.49148
# Velocity P-wave (km/s) = 4.18632 5.56826 4.92599
#
# Compressibility (1/GPa) = 0.03092229
#
# Stress axis : x y z
#
# Youngs Moduli (GPa) = 112.75494 105.26347 62.12570
#
# Poissons Ratio (x) = 0.05966 0.02436
# Poissons Ratio (y) = 0.06391 0.05048
# Poissons Ratio (z) = 0.04422 0.08552
#
# Static dielectric constant tensor:
#      x y z
#    x 1.853560 0.000000 0.000000 
#    y 0.000000 1.800800 0.000000 
#    z 0.000000 0.000000 1.774240 
# 
# From -- ./inp_files/18578.got.cif
#   From: 2010.05.17/outbox.cif.g08.bks.cpg/sg67_10_cif.got.tgz:18578.got - 2010.06.03 18:28:57.
