data_PCOD9503307
_publ_section_title
;
Structure prediction by ZEFSAII (Michael W. Deem and Ramdas Pophale) SiO2 
 PCOD9503307
Probable space group: C M M A
;
_chemical_formula_sum "Si O2"
_cell_formula_units_Z 88
_cell_length_a 14.646114
_cell_length_b 24.036744
_cell_length_c 11.060346
_cell_angle_alpha 90.000000
_cell_angle_beta 90.000000
_cell_angle_gamma 90.000000
_cell_volume 3893.738322
_symmetry_space_group_name_H-M "C M M A"
_symmetry_group_IT_number 67
_symmetry_cell_setting 'orthorhombic'
loop_
_space_group_symop_operation_xyz
x,y,z
-x,1/2-y,z
x,-y,-z
-x,1/2+y,-z
-x,-y,-z
x,1/2+y,-z
-x,y,z
x,1/2-y,z
1/2+x,1/2+y,z
1/2-x,-y,z
1/2+x,1/2-y,-z
1/2-x,y,-z
1/2-x,1/2-y,-z
1/2+x,y,-z
1/2-x,1/2+y,z
1/2+x,-y,z
loop_
_atom_site_type_symbol
_atom_site_label
_atom_site_fract_x
_atom_site_fract_y
_atom_site_fract_z
Si Si1 0.607084 0.879323 0.311660
Si Si2 0.646262 0.379437 0.956126
Si Si3 0.894780 0.811174 0.186711
Si Si4 0.143093 0.013822 0.169232
Si Si5 0.250000 0.598680 0.500000
Si Si6 0.396912 0.917011 0.674959
O O1 0.500000 0.868653 0.335341
O O2 0.634628 0.855220 0.179443
O O3 0.677575 0.866631 0.418314
O O4 0.622256 0.945285 0.283259
O O5 0.613601 0.443693 0.937503
O O6 0.750000 0.383884 0.000000
O O7 0.604128 0.339320 0.054874
O O8 0.851702 0.750000 0.185988
O O9 0.859604 0.857479 0.278902
O O10 0.000000 0.805612 0.222676
O O11 0.099695 0.956129 0.207696
O O12 0.250000 0.000000 0.154624
O O13 0.318988 0.563664 0.583841
O O14 0.500000 0.913858 0.625129
#
# Coordination Sequence:
#
# PCOD9503307 Si02
#       6
#    16  16  16  16   8  16
#     4  10  22  37  59  90 126 166 211 257 308 378
#     4  10  21  38  62  91 125 165 204 259 318 384
#     4  10  22  41  64  90 121 158 206 267 326 382
#     4  10  20  37  57  89 131 162 203 253 313 375
#     4  12  22  41  61  88 128 174 209 264 315 380
#     4  11  23  39  62  94 126 169 218 260 320 385
#
# _framework density 22.600390000000001
#
# number of rings (size 3 to 8) (size 9 to 14) (size 15 to 20)
#    1.091    0.545    1.818    3.818    0.000    4.364 
#    0.000    4.091    0.000    1.091    0.000    2.545 
#    0.000    0.000    0.000    0.000    0.000    0.000 
#
# Total GULP energy -245050.954777 kJ/mol
# GULP energy per Si atom -5569.339881 kJ/mol
# Density = 2.254895 g / cm^3
# Si number density = 22.600390 Si / 1000 Ang^3
#
#
#
# Elastic Constant Matrix: (Units=GPa)
#
#
# Indices 1 2 3 4 5 6 
#
# 1 147.6225 9.6852 54.6820 0.0000 0.0000 0.0000
# 2 9.6852 98.6651 15.3377 0.0000 0.0000 0.0000
# 3 54.6820 15.3377 106.7561 0.0000 0.0000 0.0000
# 4 0.0000 0.0000 0.0000 4.7531 0.0000 0.0000
# 5 0.0000 0.0000 0.0000 0.0000 24.9100 0.0000
# 6 0.0000 0.0000 0.0000 0.0000 0.0000 173.5671
#
#
#
# Elastic Compliance Matrix: (Units=1/GPa)
#
#
# Indices 1 2 3 4 5 6 
#
# 1 0.008363 -0.000159 -0.004261 0.000000 0.000000 0.000000
# 2 -0.000159 0.010370 -0.001409 0.000000 0.000000 0.000000
# 3 -0.004261 -0.001409 0.011752 0.000000 0.000000 0.000000
# 4 0.000000 0.000000 0.000000 0.210390 0.000000 0.000000
# 5 0.000000 0.000000 0.000000 0.000000 0.040144 0.000000
# 6 0.000000 0.000000 0.000000 0.000000 0.000000 0.005761
#
#
# Mechanical properties :
#
#
# Convention : Reuss Voigt Hill
#
# Bulk Modulus (GPa) = 53.11057 56.93931 55.02494
# Shear Modulus (GPa) = 16.40892 58.86863 37.63877
#
# Velocity S-wave (km/s) = 2.69745 5.10922 4.08536
# Velocity P-wave (km/s) = 5.76650 7.74946 6.83033
#
# Compressibility (1/GPa) = 0.01882864
#
# Stress axis : x y z
#
# Youngs Moduli (GPa) = 119.57886 96.43358 85.09248
#
# Poissons Ratio (x) = 0.01529 0.36255
# Poissons Ratio (y) = 0.01896 0.11986
# Poissons Ratio (z) = 0.50949 0.13584
#
# Static dielectric constant tensor:
#      x y z
#    x 2.051830 0.000000 0.000000 
#    y 0.000000 1.895430 0.000000 
#    z 0.000000 0.000000 1.934050 
# 
# From -- ./inp_files/18323.got.cif
#   From: 2010.05.17/outbox.cif.g08.bks.cpg/sg67_10_cif.got.tgz:18323.got - 2010.06.03 18:28:57.
