data_PCOD9503756
_publ_section_title
;
Structure prediction by ZEFSAII (Michael W. Deem and Ramdas Pophale) SiO2 
 PCOD9503756
Probable space group: C M M A
;
_chemical_formula_sum "Si O2"
_cell_formula_units_Z 88
_cell_length_a 27.863074
_cell_length_b 10.480490
_cell_length_c 15.919556
_cell_angle_alpha 90.000000
_cell_angle_beta 90.000000
_cell_angle_gamma 90.000000
_cell_volume 4648.807545
_symmetry_space_group_name_H-M "C M M A"
_symmetry_group_IT_number 67
_symmetry_cell_setting 'orthorhombic'
loop_
_space_group_symop_operation_xyz
x,y,z
-x,1/2-y,z
x,-y,-z
-x,1/2+y,-z
-x,-y,-z
x,1/2+y,-z
-x,y,z
x,1/2-y,z
1/2+x,1/2+y,z
1/2-x,-y,z
1/2+x,1/2-y,-z
1/2-x,y,-z
1/2-x,1/2-y,-z
1/2+x,y,-z
1/2-x,1/2+y,z
1/2+x,-y,z
loop_
_atom_site_type_symbol
_atom_site_label
_atom_site_fract_x
_atom_site_fract_y
_atom_site_fract_z
Si Si1 0.792385 0.397454 0.374298
Si Si2 0.942478 0.391937 0.242006
Si Si3 0.371634 0.500000 0.500000
Si Si4 0.886699 0.603091 0.927693
Si Si5 0.556175 0.107565 0.374676
Si Si6 0.289810 0.105221 0.822669
O O1 0.777037 0.250000 0.388520
O O2 0.750000 0.500000 0.390631
O O3 0.836921 0.431192 0.433466
O O4 0.805017 0.409386 0.275181
O O5 0.924767 0.250000 0.267075
O O6 0.923266 0.417318 0.149109
O O7 0.929163 0.500890 0.307524
O O8 0.000000 0.389010 0.240478
O O9 0.407659 0.405586 0.451834
O O10 0.892005 0.750000 0.957441
O O11 0.834608 0.590985 0.884273
O O12 0.892913 0.500000 0.000000
O O13 0.500000 0.086836 0.398629
O O14 0.559373 0.250000 0.338727
O O15 0.270823 0.250000 0.831228
O O16 0.250000 0.000000 0.840572
#
# Coordination Sequence:
#
# PCOD9503756 Si02
#       6
#    16  16   8  16  16  16
#     4  10  22  39  58  80 108 144 186 229 273 326
#     4   9  19  38  61  81 107 146 185 222 272 331
#     4  12  22  34  56  82 114 150 184 226 282 334
#     4  10  21  36  55  83 114 141 175 219 268 325
#     4  10  22  38  56  82 113 146 190 238 279 325
#     4   9  19  37  57  76 103 140 180 220 264 317
#
# _framework density 18.929586
#
# number of rings (size 3 to 8) (size 9 to 14) (size 15 to 20)
#    0.000    2.182    0.000    2.182    0.000    7.273 
#    0.000    7.273    0.000    0.000    0.000    0.000 
#    0.000    0.000    0.000    0.000    0.000    0.000 
#
# Total GULP energy -245621.123279 kJ/mol
# GULP energy per Si atom -5582.298256 kJ/mol
# Density = 1.888650 g / cm^3
# Si number density = 18.929586 Si / 1000 Ang^3
#
#
#
# Elastic Constant Matrix: (Units=GPa)
#
#
# Indices 1 2 3 4 5 6 
#
# 1 49.1638 47.8844 26.3306 0.0000 0.0000 0.0000
# 2 47.8844 129.6107 57.0774 0.0000 0.0000 0.0000
# 3 26.3306 57.0774 51.1886 0.0000 0.0000 0.0000
# 4 0.0000 0.0000 0.0000 23.4266 0.0000 0.0000
# 5 0.0000 0.0000 0.0000 0.0000 10.1271 0.0000
# 6 0.0000 0.0000 0.0000 0.0000 0.0000 0.8229
#
#
#
# Elastic Compliance Matrix: (Units=1/GPa)
#
#
# Indices 1 2 3 4 5 6 
#
# 1 0.032876 -0.009232 -0.006617 0.000000 0.000000 0.000000
# 2 -0.009232 0.017752 -0.015045 0.000000 0.000000 0.000000
# 3 -0.006617 -0.015045 0.039715 0.000000 0.000000 0.000000
# 4 0.000000 0.000000 0.000000 0.042687 0.000000 0.000000
# 5 0.000000 0.000000 0.000000 0.000000 0.098745 0.000000
# 6 0.000000 0.000000 0.000000 0.000000 0.000000 1.215151
#
#
# Mechanical properties :
#
#
# Convention : Reuss Voigt Hill
#
# Bulk Modulus (GPa) = 35.02031 54.72756 44.87393
# Shear Modulus (GPa) = 3.29331 13.45337 8.37334
#
# Velocity S-wave (km/s) = 1.32043 2.66880 2.10547
# Velocity P-wave (km/s) = 4.56784 6.20246 5.44682
#
# Compressibility (1/GPa) = 0.02855486
#
# Stress axis : x y z
#
# Youngs Moduli (GPa) = 30.41767 56.33297 25.17952
#
# Poissons Ratio (x) = 0.52007 0.16660
# Poissons Ratio (y) = 0.28082 0.37882
# Poissons Ratio (z) = 0.20126 0.84753
#
# Static dielectric constant tensor:
#      x y z
#    x 1.653230 0.000000 0.000000 
#    y 0.000000 1.659250 0.000000 
#    z 0.000000 0.000000 1.635690 
# 
# From -- ./inp_files/29935.got.cif
#   From: 2010.05.17/outbox.cif.g08.bks.cpg/sg67_15_cif.got.tgz:29935.got - 2010.06.03 18:28:57.
