data_PCOD9503354
_publ_section_title
;
Structure prediction by ZEFSAII (Michael W. Deem and Ramdas Pophale) SiO2 
 PCOD9503354
Probable space group: C M M A
;
_chemical_formula_sum "Si O2"
_cell_formula_units_Z 116
_cell_length_a 23.629611
_cell_length_b 18.321626
_cell_length_c 14.691732
_cell_angle_alpha 90.000000
_cell_angle_beta 90.000000
_cell_angle_gamma 90.000000
_cell_volume 6360.534071
_symmetry_space_group_name_H-M "C M M A"
_symmetry_group_IT_number 67
_symmetry_cell_setting 'orthorhombic'
loop_
_space_group_symop_operation_xyz
x,y,z
-x,1/2-y,z
x,-y,-z
-x,1/2+y,-z
-x,-y,-z
x,1/2+y,-z
-x,y,z
x,1/2-y,z
1/2+x,1/2+y,z
1/2-x,-y,z
1/2+x,1/2-y,-z
1/2-x,y,-z
1/2-x,1/2-y,-z
1/2+x,y,-z
1/2-x,1/2+y,z
1/2+x,-y,z
loop_
_atom_site_type_symbol
_atom_site_label
_atom_site_fract_x
_atom_site_fract_y
_atom_site_fract_z
Si Si1 0.846699 0.985360 0.100739
Si Si2 0.251172 0.588201 0.656034
Si Si3 0.935334 0.459610 0.408202
Si Si4 0.750000 0.250000 0.000000
Si Si5 0.935457 0.576613 0.246184
Si Si6 0.856140 0.666035 0.580027
Si Si7 0.736615 0.613656 0.135351
Si Si8 0.363641 0.669147 0.629178
O O1 0.893121 0.952411 0.168612
O O2 0.792555 0.930759 0.101488
O O3 0.818341 0.062124 0.127728
O O4 0.869757 0.000000 0.000000
O O5 0.250000 0.500000 0.658447
O O6 0.204772 0.626429 0.591243
O O7 0.242778 0.621744 0.756441
O O8 0.314317 0.610272 0.631861
O O9 0.912975 0.500000 0.500000
O O10 0.935573 0.517522 0.327238
O O11 0.899223 0.390733 0.375303
O O12 0.000000 0.437516 0.428880
O O13 0.765482 0.314139 0.075841
O O14 0.910379 0.647546 0.297119
O O15 0.000000 0.586884 0.214454
O O16 0.852822 0.750000 0.612418
O O17 0.879939 0.669378 0.476680
O O18 0.340986 0.750000 0.649800
#
# Coordination Sequence:
#
# PCOD9503354 Si02
#       8
#    16  16  16   4  16  16  16  16
#     4  11  20  41  61  86 123 156 197 256 310 373
#     4  12  23  37  61  88 123 166 204 251 307 377
#     4  10  20  37  61  84 112 155 212 256 293 357
#     4  12  24  34  60 100 120 162 200 252 312 396
#     4  11  23  40  64  90 114 160 218 260 307 367
#     4  11  24  37  55  90 125 162 205 253 315 374
#     4  11  21  37  61  91 122 156 201 245 313 381
#     4  11  23  39  56  83 129 164 199 254 311 366
#
# _framework density 18.237461
#
# number of rings (size 3 to 8) (size 9 to 14) (size 15 to 20)
#    0.000    0.966    5.517    2.897    1.931    2.483 
#    0.000    1.379    0.000    0.000    0.000    0.966 
#    0.000    0.000    0.000    0.000    0.000    0.000 
#
# Total GULP energy -322913.112137 kJ/mol
# GULP energy per Si atom -5567.467451 kJ/mol
# Density = 1.819595 g / cm^3
# Si number density = 18.237461 Si / 1000 Ang^3
#
#
#
# Elastic Constant Matrix: (Units=GPa)
#
#
# Indices 1 2 3 4 5 6 
#
# 1 69.4446 22.8801 1.3390 0.0000 0.0000 0.0000
# 2 22.8801 104.4173 0.9270 0.0000 0.0000 0.0000
# 3 1.3390 0.9270 71.8790 0.0000 0.0000 0.0000
# 4 0.0000 0.0000 0.0000 23.9052 0.0000 0.0000
# 5 0.0000 0.0000 0.0000 0.0000 13.6461 0.0000
# 6 0.0000 0.0000 0.0000 0.0000 0.0000 3.6485
#
#
#
# Elastic Compliance Matrix: (Units=1/GPa)
#
#
# Indices 1 2 3 4 5 6 
#
# 1 0.015525 -0.003400 -0.000245 0.000000 0.000000 0.000000
# 2 -0.003400 0.010323 -0.000070 0.000000 0.000000 0.000000
# 3 -0.000245 -0.000070 0.013918 0.000000 0.000000 0.000000
# 4 0.000000 0.000000 0.000000 0.041832 0.000000 0.000000
# 5 0.000000 0.000000 0.000000 0.000000 0.073281 0.000000
# 6 0.000000 0.000000 0.000000 0.000000 0.000000 0.274087
#
#
# Mechanical properties :
#
#
# Convention : Reuss Voigt Hill
#
# Bulk Modulus (GPa) = 30.92580 32.89255 31.90918
# Shear Modulus (GPa) = 11.18135 22.94627 17.06381
#
# Velocity S-wave (km/s) = 2.47877 3.55095 3.06215
# Velocity P-wave (km/s) = 5.01861 5.90654 5.48059
#
# Compressibility (1/GPa) = 0.03233546
#
# Stress axis : x y z
#
# Youngs Moduli (GPa) = 64.41308 96.87559 71.85076
#
# Poissons Ratio (x) = 0.32934 0.01763
# Poissons Ratio (y) = 0.21898 0.00501
# Poissons Ratio (z) = 0.01580 0.00676
#
# Static dielectric constant tensor:
#      x y z
#    x 1.649880 0.000000 0.000000 
#    y 0.000000 1.645410 0.000000 
#    z 0.000000 0.000000 1.703690 
# 
# From -- ./inp_files/30288.got.cif
#   From: 2010.05.17/outbox.cif.g08.bks.cpg/sg67_16_cif.got.tgz:30288.got - 2010.06.03 18:28:57.
