data_PCOD9503109
_publ_section_title
;
Structure prediction by ZEFSAII (Michael W. Deem and Ramdas Pophale) SiO2 
 PCOD9503109
Probable space group: C M M A
;
_chemical_formula_sum "Si O2"
_cell_formula_units_Z 88
_cell_length_a 21.461750
_cell_length_b 9.006952
_cell_length_c 25.620122
_cell_angle_alpha 90.000000
_cell_angle_beta 90.000000
_cell_angle_gamma 90.000000
_cell_volume 4952.496456
_symmetry_space_group_name_H-M "C M M A"
_symmetry_group_IT_number 67
_symmetry_cell_setting 'orthorhombic'
loop_
_space_group_symop_operation_xyz
x,y,z
-x,1/2-y,z
x,-y,-z
-x,1/2+y,-z
-x,-y,-z
x,1/2+y,-z
-x,y,z
x,1/2-y,z
1/2+x,1/2+y,z
1/2-x,-y,z
1/2+x,1/2-y,-z
1/2-x,y,-z
1/2-x,1/2-y,-z
1/2+x,y,-z
1/2-x,1/2+y,z
1/2+x,-y,z
loop_
_atom_site_type_symbol
_atom_site_label
_atom_site_fract_x
_atom_site_fract_y
_atom_site_fract_z
Si Si1 0.075481 0.081024 0.340887
Si Si2 0.428608 0.928674 0.768829
Si Si3 0.687637 0.071553 0.158417
Si Si4 0.862267 0.070887 0.057734
Si Si5 0.423986 0.578765 0.553457
Si Si6 0.500000 0.926376 0.056354
O O1 0.097872 0.250000 0.337544
O O2 0.000000 0.085091 0.344254
O O3 0.088521 0.992568 0.287933
O O4 0.097366 0.002992 0.393967
O O5 0.500000 0.978086 0.782041
O O6 0.430024 0.750000 0.766268
O O7 0.374418 0.970187 0.809193
O O8 0.692255 0.250000 0.156412
O O9 0.750000 0.000000 0.182139
O O10 0.680886 0.003860 0.100538
O O11 0.854879 0.250000 0.054985
O O12 0.932685 0.034530 0.078405
O O13 0.855087 0.000000 0.000000
O O14 0.404023 0.500000 0.500000
O O15 0.500000 0.575331 0.553735
O O16 0.405146 0.750000 0.553900
O O17 0.500000 0.750000 0.050222
O O18 0.500000 0.000000 0.000000
#
# Coordination Sequence:
#
# PCOD9503109 Si02
#       6
#    16  16  16  16  16   8
#     4   9  16  26  42  66  95 128 168 213 259 308
#     4   9  19  36  56  77 101 134 175 217 262 311
#     4  11  24  40  58  80 108 140 174 216 264 315
#     4  10  20  36  57  82 110 139 172 209 256 311
#     4   9  15  22  34  55  88 130 171 211 256 308
#     4   8  16  30  50  78 108 136 164 202 245 294
#
# _framework density 17.768816000000001
#
# number of rings (size 3 to 8) (size 9 to 14) (size 15 to 20)
#    0.000    2.545    0.000    2.182    1.273    6.909 
#    0.000    1.818    0.000    0.000    0.000    0.000 
#    0.000    0.727    0.000    7.636    0.000   11.455 
#
# Total GULP energy -245131.271649 kJ/mol
# GULP energy per Si atom -5571.165265 kJ/mol
# Density = 1.772837 g / cm^3
# Si number density = 17.768816 Si / 1000 Ang^3
#
#
#
# Elastic Constant Matrix: (Units=GPa)
#
#
# Indices 1 2 3 4 5 6 
#
# 1 81.7119 37.6836 54.5698 0.0000 0.0000 0.0000
# 2 37.6836 49.0966 46.2583 0.0000 0.0000 0.0000
# 3 54.5698 46.2583 125.6280 0.0000 0.0000 0.0000
# 4 0.0000 0.0000 0.0000 27.6365 0.0000 0.0000
# 5 0.0000 0.0000 0.0000 0.0000 4.3203 0.0000
# 6 0.0000 0.0000 0.0000 0.0000 0.0000 18.6652
#
#
#
# Elastic Compliance Matrix: (Units=1/GPa)
#
#
# Indices 1 2 3 4 5 6 
#
# 1 0.020679 -0.011345 -0.004805 0.000000 0.000000 0.000000
# 2 -0.011345 0.037412 -0.008848 0.000000 0.000000 0.000000
# 3 -0.004805 -0.008848 0.013305 0.000000 0.000000 0.000000
# 4 0.000000 0.000000 0.000000 0.036184 0.000000 0.000000
# 5 0.000000 0.000000 0.000000 0.000000 0.231464 0.000000
# 6 0.000000 0.000000 0.000000 0.000000 0.000000 0.053576
#
#
# Mechanical properties :
#
#
# Convention : Reuss Voigt Hill
#
# Bulk Modulus (GPa) = 46.72728 59.27330 53.00029
# Shear Modulus (GPa) = 11.11734 17.98607 14.55171
#
# Velocity S-wave (km/s) = 2.50405 3.18500 2.86483
# Velocity P-wave (km/s) = 5.89192 6.85245 6.39026
#
# Compressibility (1/GPa) = 0.02140078
#
# Stress axis : x y z
#
# Youngs Moduli (GPa) = 48.35816 26.72963 75.15865
#
# Poissons Ratio (x) = 0.30324 0.36116
# Poissons Ratio (y) = 0.54860 0.66499
# Poissons Ratio (z) = 0.23237 0.23650
#
# Static dielectric constant tensor:
#      x y z
#    x 1.640310 0.000000 0.000000 
#    y 0.000000 1.596890 0.000000 
#    z 0.000000 0.000000 1.588380 
# 
# From -- ./inp_files/42340.got.cif
#   From: 2010.05.17/outbox.cif.g08.bks.cpg/sg67_22_cif.got.tgz:42340.got - 2010.06.03 18:28:57.
