data_PCOD9503487
_publ_section_title
;
Structure prediction by ZEFSAII (Michael W. Deem and Ramdas Pophale) SiO2 
 PCOD9503487
Probable space group: C M M A
;
_chemical_formula_sum "Si O2"
_cell_formula_units_Z 72
_cell_length_a 8.425115
_cell_length_b 15.270841
_cell_length_c 27.037626
_cell_angle_alpha 90.000000
_cell_angle_beta 90.000000
_cell_angle_gamma 90.000000
_cell_volume 3478.622881
_symmetry_space_group_name_H-M "C M M A"
_symmetry_group_IT_number 67
_symmetry_cell_setting 'orthorhombic'
loop_
_space_group_symop_operation_xyz
x,y,z
-x,1/2-y,z
x,-y,-z
-x,1/2+y,-z
-x,-y,-z
x,1/2+y,-z
-x,y,z
x,1/2-y,z
1/2+x,1/2+y,z
1/2-x,-y,z
1/2+x,1/2-y,-z
1/2-x,y,-z
1/2-x,1/2-y,-z
1/2+x,y,-z
1/2-x,1/2+y,z
1/2+x,-y,z
loop_
_atom_site_type_symbol
_atom_site_label
_atom_site_fract_x
_atom_site_fract_y
_atom_site_fract_z
Si Si1 0.677137 0.645417 0.550893
Si Si2 0.192886 0.400297 0.657932
Si Si3 0.311669 0.250000 0.944153
Si Si4 0.308094 0.600669 0.764051
Si Si5 0.809224 0.899967 0.127278
O O1 0.500000 0.608055 0.553765
O O2 0.666858 0.750000 0.545474
O O3 0.750000 0.611065 0.500000
O O4 0.754392 0.631977 0.604721
O O5 0.250000 0.500000 0.660024
O O6 0.244110 0.360111 0.711010
O O7 0.000000 0.392551 0.656985
O O8 0.500000 0.250000 0.944654
O O9 0.252328 0.335339 0.914576
O O10 0.250000 0.250000 0.000000
O O11 0.500000 0.602256 0.763660
O O12 0.250000 0.500000 0.764074
O O13 0.257845 0.634535 0.817919
O O14 0.000000 0.900707 0.126151
O O15 0.750000 0.000000 0.121570
#
# Coordination Sequence:
#
# PCOD9503487 Si02
#       5
#    16  16   8  16  16
#     4   9  18  32  47  63  88 125 168 212 258 312
#     4   9  17  30  48  73  99 128 165 210 262 315
#     4  12  26  44  64  90 124 160 201 250 291 338
#     4   8  15  29  51  78 107 139 174 215 266 326
#     4  10  20  38  63  92 123 160 200 241 294 352
#
# _framework density 20.697845999999998
#
# number of rings (size 3 to 8) (size 9 to 14) (size 15 to 20)
#    0.000    2.667    0.000    1.667    0.000    2.667 
#    2.000    4.444    0.000    0.000    0.000    0.000 
#    0.000    0.000    0.000    0.000    0.000    0.000 
#
# Total GULP energy -200422.718169 kJ/mol
# GULP energy per Si atom -5567.297727 kJ/mol
# Density = 2.065074 g / cm^3
# Si number density = 20.697846 Si / 1000 Ang^3
#
#
#
# Elastic Constant Matrix: (Units=GPa)
#
#
# Indices 1 2 3 4 5 6 
#
# 1 38.1452 15.2798 49.7187 0.0000 0.0000 0.0000
# 2 15.2798 60.3538 62.9326 0.0000 0.0000 0.0000
# 3 49.7187 62.9326 275.5728 0.0000 0.0000 0.0000
# 4 0.0000 0.0000 0.0000 38.4104 0.0000 0.0000
# 5 0.0000 0.0000 0.0000 0.0000 23.5129 0.0000
# 6 0.0000 0.0000 0.0000 0.0000 0.0000 16.8291
#
#
#
# Elastic Compliance Matrix: (Units=1/GPa)
#
#
# Indices 1 2 3 4 5 6 
#
# 1 0.034674 -0.002960 -0.005580 0.000000 0.000000 0.000000
# 2 -0.002960 0.022000 -0.004490 0.000000 0.000000 0.000000
# 3 -0.005580 -0.004490 0.005661 0.000000 0.000000 0.000000
# 4 0.000000 0.000000 0.000000 0.026035 0.000000 0.000000
# 5 0.000000 0.000000 0.000000 0.000000 0.042530 0.000000
# 6 0.000000 0.000000 0.000000 0.000000 0.000000 0.059421
#
#
# Mechanical properties :
#
#
# Convention : Reuss Voigt Hill
#
# Bulk Modulus (GPa) = 27.56705 69.99266 48.77986
# Shear Modulus (GPa) = 21.88442 32.15986 27.02214
#
# Velocity S-wave (km/s) = 3.25519 3.94608 3.61716
# Velocity P-wave (km/s) = 5.24176 7.39269 6.40811
#
# Compressibility (1/GPa) = 0.03627518
#
# Stress axis : x y z
#
# Youngs Moduli (GPa) = 28.83983 45.45366 176.64875
#
# Poissons Ratio (x) = 0.13455 0.98568
# Poissons Ratio (y) = 0.08537 0.79318
# Poissons Ratio (z) = 0.16092 0.20409
#
# Static dielectric constant tensor:
#      x y z
#    x 1.759320 0.000000 0.000000 
#    y 0.000000 1.702100 0.000000 
#    z 0.000000 0.000000 1.832450 
# 
# From -- ./inp_files/42127.got.cif
#   From: 2010.05.17/outbox.cif.g08.bks.cpg/sg67_22_cif.got.tgz:42127.got - 2010.06.03 18:28:57.
