data_PCOD9503258
_publ_section_title
;
Structure prediction by ZEFSAII (Michael W. Deem and Ramdas Pophale) SiO2 
 PCOD9503258
Probable space group: C M M A
;
_chemical_formula_sum "Si O2"
_cell_formula_units_Z 64
_cell_length_a 17.575902
_cell_length_b 14.213664
_cell_length_c 11.500577
_cell_angle_alpha 90.000000
_cell_angle_beta 90.000000
_cell_angle_gamma 90.000000
_cell_volume 2873.050749
_symmetry_space_group_name_H-M "C M M A"
_symmetry_group_IT_number 67
_symmetry_cell_setting 'orthorhombic'
loop_
_space_group_symop_operation_xyz
x,y,z
-x,1/2-y,z
x,-y,-z
-x,1/2+y,-z
-x,-y,-z
x,1/2+y,-z
-x,y,z
x,1/2-y,z
1/2+x,1/2+y,z
1/2-x,-y,z
1/2+x,1/2-y,-z
1/2-x,y,-z
1/2-x,1/2-y,-z
1/2+x,y,-z
1/2-x,1/2+y,z
1/2+x,-y,z
loop_
_atom_site_type_symbol
_atom_site_label
_atom_site_fract_x
_atom_site_fract_y
_atom_site_fract_z
Si Si1 0.836594 0.859015 0.528009
Si Si2 0.121869 0.147808 0.733990
Si Si3 0.231747 0.888954 0.871856
Si Si4 0.913513 0.062366 0.246980
O O1 0.834394 0.750000 0.568453
O O2 0.750000 0.888242 0.500000
O O3 0.880163 0.859414 0.405436
O O4 0.876398 0.921098 0.625950
O O5 0.089542 0.250000 0.768419
O O6 0.209837 0.149126 0.776335
O O7 0.088821 0.049669 0.780707
O O8 0.143879 0.882401 0.837580
O O9 0.250000 0.000000 0.872452
O O10 0.250000 0.852909 0.000000
O O11 0.000000 0.095142 0.244420
#
# Coordination Sequence:
#
# PCOD9503258 Si02
#       4
#    16  16  16  16
#     4  10  20  36  61  91 124 163 204 246 298 367
#     4  10  21  37  60  88 123 169 212 244 292 371
#     4   9  19  38  61  87 116 160 216 257 301 366
#     4  11  23  38  62  94 127 159 198 259 318 361
#
# _framework density 22.275970999999998
#
# number of rings (size 3 to 8) (size 9 to 14) (size 15 to 20)
#    0.000    2.000    2.500    0.750    0.000    4.500 
#    0.000   12.500    0.000    0.000    0.000    0.000 
#    0.000    0.000    0.000    0.000    0.000    0.000 
#
# Total GULP energy -178704.686360 kJ/mol
# GULP energy per Si atom -5584.521449 kJ/mol
# Density = 2.222527 g / cm^3
# Si number density = 22.275971 Si / 1000 Ang^3
#
#
#
# Elastic Constant Matrix: (Units=GPa)
#
#
# Indices 1 2 3 4 5 6 
#
# 1 166.7611 16.7948 43.5277 0.0000 0.0000 0.0000
# 2 16.7948 116.1700 17.5851 0.0000 0.0000 0.0000
# 3 43.5277 17.5851 97.5613 0.0000 0.0000 0.0000
# 4 0.0000 0.0000 0.0000 -97.1277 0.0000 0.0000
# 5 0.0000 0.0000 0.0000 0.0000 11.5833 0.0000
# 6 0.0000 0.0000 0.0000 0.0000 0.0000 10.1951
#
#
#
# Elastic Compliance Matrix: (Units=1/GPa)
#
#
# Indices 1 2 3 4 5 6 
#
# 1 0.006820 -0.000540 -0.002945 0.000000 0.000000 0.000000
# 2 -0.000540 0.008892 -0.001362 0.000000 0.000000 0.000000
# 3 -0.002945 -0.001362 0.011810 0.000000 0.000000 0.000000
# 4 0.000000 0.000000 0.000000 -0.010296 0.000000 0.000000
# 5 0.000000 0.000000 0.000000 0.000000 0.086331 0.000000
# 6 0.000000 0.000000 0.000000 0.000000 0.000000 0.098086
#
#
# Mechanical properties :
#
#
# Convention : Reuss Voigt Hill
#
# Bulk Modulus (GPa) = 56.09455 59.58975 57.84215
# Shear Modulus (GPa) = 23.01178 5.10247 14.05712
#
# Velocity S-wave (km/s) = 3.21757 1.51510 2.51478
# Velocity P-wave (km/s) = 6.24820 5.46530 5.86981
#
# Compressibility (1/GPa) = 0.01782704
#
# Stress axis : x y z
#
# Youngs Moduli (GPa) = 146.63216 112.45680 84.67739
#
# Poissons Ratio (x) = 0.06074 0.24940
# Poissons Ratio (y) = 0.07920 0.11532
# Poissons Ratio (z) = 0.43188 0.15315
#
# Static dielectric constant tensor:
#      x y z
#    x 1.809170 0.000000 0.000000 
#    y 0.000000 1.880090 0.000000 
#    z 0.000000 0.000000 1.811840 
# 
# From -- ./inp_files/17497.got.cif
#   From: 2010.05.17/outbox.cif.g08.bks.cpg/sg67_9_cif.got.tgz:17497.got - 2010.06.03 18:28:57.
