data_PCOD9503178
_publ_section_title
;
Structure prediction by ZEFSAII (Michael W. Deem and Ramdas Pophale) SiO2 
 PCOD9503178
Probable space group: C M M A
;
_chemical_formula_sum "Si O2"
_cell_formula_units_Z 72
_cell_length_a 15.615909
_cell_length_b 8.800111
_cell_length_c 28.504970
_cell_angle_alpha 90.000000
_cell_angle_beta 90.000000
_cell_angle_gamma 90.000000
_cell_volume 3917.202364
_symmetry_space_group_name_H-M "C M M A"
_symmetry_group_IT_number 67
_symmetry_cell_setting 'orthorhombic'
loop_
_space_group_symop_operation_xyz
x,y,z
-x,1/2-y,z
x,-y,-z
-x,1/2+y,-z
-x,-y,-z
x,1/2+y,-z
-x,y,z
x,1/2-y,z
1/2+x,1/2+y,z
1/2-x,-y,z
1/2+x,1/2-y,-z
1/2-x,y,-z
1/2-x,1/2-y,-z
1/2+x,y,-z
1/2-x,1/2+y,z
1/2+x,-y,z
loop_
_atom_site_type_symbol
_atom_site_label
_atom_site_fract_x
_atom_site_fract_y
_atom_site_fract_z
Si Si1 0.500000 0.932512 0.118762
Si Si2 0.500000 0.068231 0.447960
Si Si3 0.842822 0.568965 0.720807
Si Si4 0.343172 0.931571 0.389938
Si Si5 0.000000 0.430796 0.778034
Si Si6 0.842250 0.067619 0.051226
O O1 0.500000 0.750000 0.126238
O O2 0.583830 0.970648 0.088146
O O3 0.500000 0.014534 0.168374
O O4 0.500000 0.250000 0.449656
O O5 0.500000 0.000000 0.500000
O O6 0.416728 0.008388 0.420417
O O7 0.841533 0.750000 0.727657
O O8 0.750000 0.500000 0.732116
O O9 0.859336 0.539692 0.665465
O O10 0.916757 0.495950 0.751774
O O11 0.343134 0.750000 0.397150
O O12 0.250000 0.000000 0.401162
O O13 0.000000 0.250000 0.775402
O O14 0.836188 0.250000 0.047502
O O15 0.750000 0.000000 0.064922
O O16 0.863269 0.000000 0.000000
#
# Coordination Sequence:
#
# PCOD9503178 Si02
#       6
#     8   8  16  16   8  16
#     4  10  23  40  56  78 113 153 189 230 283 337
#     4  12  25  40  59  85 119 157 195 238 287 343
#     4  10  21  39  63  88 117 151 191 239 287 340
#     4  10  21  39  63  90 117 150 192 238 288 341
#     4  12  25  38  57  85 118 156 195 236 287 344
#     4  10  20  36  59  84 110 143 183 230 280 334
#
# _framework density 18.380465999999998
#
# number of rings (size 3 to 8) (size 9 to 14) (size 15 to 20)
#    0.000    1.556    0.000    5.667    0.000    8.444 
#    0.000    4.444    0.000    0.000    0.000    0.000 
#    0.000    0.000    0.000    0.000    0.000    0.000 
#
# Total GULP energy -201300.449286 kJ/mol
# GULP energy per Si atom -5591.679147 kJ/mol
# Density = 1.833863 g / cm^3
# Si number density = 18.380466 Si / 1000 Ang^3
#
#
#
# Elastic Constant Matrix: (Units=GPa)
#
#
# Indices 1 2 3 4 5 6 
#
# 1 195.0008 107.0407 142.1870 0.0000 0.0000 0.0000
# 2 107.0407 123.0382 98.8816 0.0000 0.0000 0.0000
# 3 142.1870 98.8816 134.6563 0.0000 0.0000 0.0000
# 4 0.0000 0.0000 0.0000 31.9174 0.0000 0.0000
# 5 0.0000 0.0000 0.0000 0.0000 -13.8082 0.0000
# 6 0.0000 0.0000 0.0000 0.0000 0.0000 33.0863
#
#
#
# Elastic Compliance Matrix: (Units=1/GPa)
#
#
# Indices 1 2 3 4 5 6 
#
# 1 0.022359 -0.001166 -0.022753 0.000000 0.000000 0.000000
# 2 -0.001166 0.019891 -0.013376 0.000000 0.000000 0.000000
# 3 -0.022753 -0.013376 0.041274 0.000000 0.000000 0.000000
# 4 0.000000 0.000000 0.000000 0.031331 0.000000 0.000000
# 5 0.000000 0.000000 0.000000 0.000000 -0.072421 0.000000
# 6 0.000000 0.000000 0.000000 0.000000 0.000000 0.030224
#
#
# Mechanical properties :
#
#
# Convention : Reuss Voigt Hill
#
# Bulk Modulus (GPa) = 111.92091 127.65709 119.78900
# Shear Modulus (GPa) = 33.28300 17.21151 25.24725
#
# Velocity S-wave (km/s) = 4.25994 3.06339 3.71022
# Velocity P-wave (km/s) = 9.23145 9.06178 9.14701
#
# Compressibility (1/GPa) = 0.00893488
#
# Stress axis : x y z
#
# Youngs Moduli (GPa) = 44.72500 50.27282 24.22817
#
# Poissons Ratio (x) = 0.05861 0.55127
# Poissons Ratio (y) = 0.05214 0.32407
# Poissons Ratio (z) = 1.01764 0.67244
#
# Static dielectric constant tensor:
#      x y z
#    x 1.603890 0.000000 0.000000 
#    y 0.000000 1.610570 0.000000 
#    z 0.000000 0.000000 1.603720 
# 
# From -- ./inp_files/44264.got.cif
#   From: 2010.05.17/outbox.cif.g08.bks.cpg/sg67_23_cif.got.tgz:44264.got - 2010.06.03 18:28:57.
