data_PCOD9503219
_publ_section_title
;
Structure prediction by ZEFSAII (Michael W. Deem and Ramdas Pophale) SiO2 
 PCOD9503219
Probable space group: C M M A
;
_chemical_formula_sum "Si O2"
_cell_formula_units_Z 64
_cell_length_a 14.223759
_cell_length_b 14.562811
_cell_length_c 16.223003
_cell_angle_alpha 90.000000
_cell_angle_beta 90.000000
_cell_angle_gamma 90.000000
_cell_volume 3360.399001
_symmetry_space_group_name_H-M "C M M A"
_symmetry_group_IT_number 67
_symmetry_cell_setting 'orthorhombic'
loop_
_space_group_symop_operation_xyz
x,y,z
-x,1/2-y,z
x,-y,-z
-x,1/2+y,-z
-x,-y,-z
x,1/2+y,-z
-x,y,z
x,1/2-y,z
1/2+x,1/2+y,z
1/2-x,-y,z
1/2+x,1/2-y,-z
1/2-x,y,-z
1/2-x,1/2-y,-z
1/2+x,y,-z
1/2-x,1/2+y,z
1/2+x,-y,z
loop_
_atom_site_type_symbol
_atom_site_label
_atom_site_fract_x
_atom_site_fract_y
_atom_site_fract_z
Si Si1 0.614372 0.646280 0.488978
Si Si2 0.750697 0.142881 0.901081
Si Si3 0.387502 0.496294 0.176483
Si Si4 0.113622 0.015158 0.632071
O O1 0.500000 0.647189 0.487564
O O2 0.646163 0.750000 0.477107
O O3 0.642175 0.602284 0.576710
O O4 0.643931 0.575297 0.418044
O O5 0.746440 0.250000 0.878404
O O6 0.664858 0.084157 0.862860
O O7 0.844239 0.092477 0.868466
O O8 0.750000 0.135477 0.000000
O O9 0.500000 0.502309 0.168978
O O10 0.360364 0.487523 0.272803
O O11 0.000000 0.015091 0.630882
#
# Coordination Sequence:
#
# PCOD9503219 Si02
#       4
#    16  16  16  16
#     4   8  13  23  40  65 103 143 174 213 263 310
#     4  10  23  41  58  81 113 145 180 225 279 339
#     4  10  20  36  60  86 112 144 184 230 276 324
#     4   8  15  26  43  73 105 135 178 222 260 311
#
# _framework density 19.045358
#
# number of rings (size 3 to 8) (size 9 to 14) (size 15 to 20)
#    0.000    3.000    0.000    3.000    0.000    5.000 
#    0.000    7.500    0.000   12.000    0.000   14.000 
#    0.000    0.000    0.000    0.000    0.000    0.000 
#
# Total GULP energy -178532.549897 kJ/mol
# GULP energy per Si atom -5579.142184 kJ/mol
# Density = 1.900201 g / cm^3
# Si number density = 19.045358 Si / 1000 Ang^3
#
#
#
# Elastic Constant Matrix: (Units=GPa)
#
#
# Indices 1 2 3 4 5 6 
#
# 1 72.3232 -24.7154 -6.8881 0.0000 0.0000 0.0000
# 2 -24.7154 118.4138 42.7422 0.0000 0.0000 0.0000
# 3 -6.8881 42.7422 106.1856 0.0000 0.0000 0.0000
# 4 0.0000 0.0000 0.0000 -11.8393 0.0000 0.0000
# 5 0.0000 0.0000 0.0000 0.0000 53.9480 0.0000
# 6 0.0000 0.0000 0.0000 0.0000 0.0000 -4.8056
#
#
#
# Elastic Compliance Matrix: (Units=1/GPa)
#
#
# Indices 1 2 3 4 5 6 
#
# 1 0.014899 0.003230 -0.000334 0.000000 0.000000 0.000000
# 2 0.003230 0.010581 -0.004050 0.000000 0.000000 0.000000
# 3 -0.000334 -0.004050 0.011026 0.000000 0.000000 0.000000
# 4 0.000000 0.000000 0.000000 -0.084464 0.000000 0.000000
# 5 0.000000 0.000000 0.000000 0.000000 0.018536 0.000000
# 6 0.000000 0.000000 0.000000 0.000000 0.000000 -0.208090
#
#
# Mechanical properties :
#
#
# Convention : Reuss Voigt Hill
#
# Bulk Modulus (GPa) = 29.24024 35.46666 32.35345
# Shear Modulus (GPa) = -22.34072 26.51289 2.08608
#
# Velocity S-wave (km/s) = -3.42866 3.73512 1.04771
# Velocity P-wave (km/s) = 0.53669 6.10444 4.29977
#
# Compressibility (1/GPa) = 0.03419945
#
# Stress axis : x y z
#
# Youngs Moduli (GPa) = 67.11907 94.51024 90.69600
#
# Poissons Ratio (x) = -0.30528 0.03027
# Poissons Ratio (y) = -0.21681 0.36727
# Poissons Ratio (z) = 0.02240 0.38272
#
# Static dielectric constant tensor:
#      x y z
#    x 1.708290 0.000000 0.000000 
#    y 0.000000 1.633270 0.000000 
#    z 0.000000 0.000000 1.642280 
# 
# From -- ./inp_files/26712.got.cif
#   From: 2010.05.17/outbox.cif.g08.bks.cpg/sg67_14_cif.got.tgz:26712.got - 2010.06.03 18:28:57.
