data_PCOD9503671
_publ_section_title
;
Structure prediction by ZEFSAII (Michael W. Deem and Ramdas Pophale) SiO2 
 PCOD9503671
Probable space group: C M M A
;
_chemical_formula_sum "Si O2"
_cell_formula_units_Z 112
_cell_length_a 18.725566
_cell_length_b 28.022889
_cell_length_c 11.426975
_cell_angle_alpha 90.000000
_cell_angle_beta 90.000000
_cell_angle_gamma 90.000000
_cell_volume 5996.241797
_symmetry_space_group_name_H-M "C M M A"
_symmetry_group_IT_number 67
_symmetry_cell_setting 'orthorhombic'
loop_
_space_group_symop_operation_xyz
x,y,z
-x,1/2-y,z
x,-y,-z
-x,1/2+y,-z
-x,-y,-z
x,1/2+y,-z
-x,y,z
x,1/2-y,z
1/2+x,1/2+y,z
1/2-x,-y,z
1/2+x,1/2-y,-z
1/2-x,y,-z
1/2-x,1/2-y,-z
1/2+x,y,-z
1/2-x,1/2+y,z
1/2+x,-y,z
loop_
_atom_site_type_symbol
_atom_site_label
_atom_site_fract_x
_atom_site_fract_y
_atom_site_fract_z
Si Si1 0.079140 0.306480 0.412649
Si Si2 0.917459 0.482744 0.628883
Si Si3 0.577943 0.630805 0.643216
Si Si4 0.818293 0.695402 0.788680
Si Si5 0.418419 0.304156 0.000461
Si Si6 0.670233 0.019744 0.129185
Si Si7 0.315524 0.133234 0.154681
O O1 0.082749 0.250000 0.438634
O O2 0.080685 0.337997 0.527855
O O3 0.148005 0.318115 0.335162
O O4 0.000000 0.314657 0.357472
O O5 0.889974 0.500000 0.500000
O O6 0.919316 0.425454 0.618783
O O7 0.875726 0.492856 0.752475
O O8 0.000000 0.500017 0.640055
O O9 0.500000 0.640181 0.701505
O O10 0.645087 0.641813 0.722717
O O11 0.788372 0.750000 0.787266
O O12 0.888067 0.697519 0.870033
O O13 0.761796 0.657466 0.836957
O O14 0.500000 0.319838 0.005516
O O15 0.413953 0.250000 0.048068
O O16 0.364596 0.338331 0.065526
O O17 0.679205 0.077227 0.125635
O O18 0.750000 0.000000 0.145486
O O19 0.644785 0.000000 0.000000
#
# Coordination Sequence:
#
# PCOD9503671 Si02
#       7
#    16  16  16  16  16  16  16
#     4   9  18  34  55  80 116 157 193 233 281 341
#     4   9  19  39  64  87 113 146 193 252 303 356
#     4   9  19  36  56  81 110 146 189 233 286 342
#     4  10  21  35  55  84 117 152 191 236 287 341
#     4  10  21  37  58  84 113 147 188 231 280 344
#     4  10  24  41  60  84 120 160 198 249 306 365
#     4  11  22  37  59  81 115 152 188 242 293 346
#
# _framework density 18.678364999999999
#
# number of rings (size 3 to 8) (size 9 to 14) (size 15 to 20)
#    0.000    2.286    0.000    1.714    4.000    6.857 
#    0.000    5.714    0.000    0.000    0.000    0.000 
#    0.000    0.000    0.000    0.000    0.000    0.000 
#
# Total GULP energy -311836.386602 kJ/mol
# GULP energy per Si atom -5568.506904 kJ/mol
# Density = 1.863585 g / cm^3
# Si number density = 18.678365 Si / 1000 Ang^3
#
#
#
# Elastic Constant Matrix: (Units=GPa)
#
#
# Indices 1 2 3 4 5 6 
#
# 1 91.0174 43.3536 59.2861 0.0000 0.0000 0.0000
# 2 43.3536 37.3036 35.7269 0.0000 0.0000 0.0000
# 3 59.2861 35.7269 100.5058 0.0000 0.0000 0.0000
# 4 0.0000 0.0000 0.0000 26.0689 0.0000 0.0000
# 5 0.0000 0.0000 0.0000 0.0000 24.5563 0.0000
# 6 0.0000 0.0000 0.0000 0.0000 0.0000 17.7791
#
#
#
# Elastic Compliance Matrix: (Units=1/GPa)
#
#
# Indices 1 2 3 4 5 6 
#
# 1 0.027877 -0.025243 -0.007471 0.000000 0.000000 0.000000
# 2 -0.025243 0.063502 -0.007683 0.000000 0.000000 0.000000
# 3 -0.007471 -0.007683 0.017088 0.000000 0.000000 0.000000
# 4 0.000000 0.000000 0.000000 0.038360 0.000000 0.000000
# 5 0.000000 0.000000 0.000000 0.000000 0.040723 0.000000
# 6 0.000000 0.000000 0.000000 0.000000 0.000000 0.056246
#
#
# Mechanical properties :
#
#
# Convention : Reuss Voigt Hill
#
# Bulk Modulus (GPa) = 36.13600 56.17335 46.15468
# Shear Modulus (GPa) = 14.97842 19.71153 17.34497
#
# Velocity S-wave (km/s) = 2.83488 3.25208 3.05062
# Velocity P-wave (km/s) = 5.48670 6.65137 6.09691
#
# Compressibility (1/GPa) = 0.02767323
#
# Stress axis : x y z
#
# Youngs Moduli (GPa) = 35.87184 15.74747 58.52202
#
# Poissons Ratio (x) = 0.39751 0.43721
# Poissons Ratio (y) = 0.90552 0.44962
# Poissons Ratio (z) = 0.26799 0.12099
#
# Static dielectric constant tensor:
#      x y z
#    x 1.646400 0.000000 0.000000 
#    y 0.000000 1.638070 0.000000 
#    z 0.000000 0.000000 1.732760 
# 
# From -- ./inp_files/18605.got.cif
#   From: 2010.05.17/outbox.cif.g08.bks.cpg/sg67_10_cif.got.tgz:18605.got - 2010.06.03 18:28:57.
