data_PCOD9503832
_publ_section_title
;
Structure prediction by ZEFSAII (Michael W. Deem and Ramdas Pophale) SiO2 
 PCOD9503832
Probable space group: C M M A
;
_chemical_formula_sum "Si O2"
_cell_formula_units_Z 96
_cell_length_a 23.517703
_cell_length_b 16.399532
_cell_length_c 13.906121
_cell_angle_alpha 90.000000
_cell_angle_beta 90.000000
_cell_angle_gamma 90.000000
_cell_volume 5363.303332
_symmetry_space_group_name_H-M "C M M A"
_symmetry_group_IT_number 67
_symmetry_cell_setting 'orthorhombic'
loop_
_space_group_symop_operation_xyz
x,y,z
-x,1/2-y,z
x,-y,-z
-x,1/2+y,-z
-x,-y,-z
x,1/2+y,-z
-x,y,z
x,1/2-y,z
1/2+x,1/2+y,z
1/2-x,-y,z
1/2+x,1/2-y,-z
1/2-x,y,-z
1/2-x,1/2-y,-z
1/2+x,y,-z
1/2-x,1/2+y,z
1/2+x,-y,z
loop_
_atom_site_type_symbol
_atom_site_label
_atom_site_fract_x
_atom_site_fract_y
_atom_site_fract_z
Si Si1 0.626061 0.653914 0.082484
Si Si2 0.370772 0.095557 0.132510
Si Si3 0.569165 0.917922 0.445053
Si Si4 0.931521 0.250000 0.770830
Si Si5 0.568856 0.250000 0.456246
Si Si6 0.433999 0.056600 0.775709
Si Si7 0.249799 0.843958 0.883395
O O1 0.629459 0.750000 0.058810
O O2 0.575583 0.633165 0.154413
O O3 0.685052 0.632108 0.137498
O O4 0.621576 0.605254 0.982632
O O5 0.403545 0.171192 0.180594
O O6 0.303078 0.103610 0.150648
O O7 0.397678 0.014954 0.176143
O O8 0.500000 0.916933 0.450268
O O9 0.589121 0.833647 0.493680
O O10 0.584127 0.924029 0.332887
O O11 0.587994 0.000000 0.500000
O O12 0.918723 0.250000 0.657054
O O13 0.000000 0.250000 0.783292
O O14 0.500000 0.250000 0.464634
O O15 0.500000 0.032113 0.773189
O O16 0.259519 0.750000 0.853600
O O17 0.250000 0.845224 0.000000
#
# Coordination Sequence:
#
# PCOD9503832 Si02
#       7
#    16  16  16   8   8  16  16
#     4  10  21  37  54  77 109 149 186 222 262 314
#     4  11  19  35  54  79 112 145 178 225 268 314
#     4   9  18  35  54  74 103 140 183 237 277 315
#     4  11  20  30  52  85 111 141 180 218 276 347
#     4   9  18  32  53  75 101 141 191 232 277 325
#     4  11  24  35  50  79 115 145 179 218 270 339
#     4   8  15  32  56  76 101 136 187 234 259 295
#
# _framework density 17.899417
#
# number of rings (size 3 to 8) (size 9 to 14) (size 15 to 20)
#    0.000    2.167    1.667    3.000    1.167    5.667 
#    0.000    2.500    0.000    0.000    0.000    9.333 
#    0.000    0.000    0.000    0.000    0.000    0.000 
#
# Total GULP energy -267670.936393 kJ/mol
# GULP energy per Si atom -5576.477842 kJ/mol
# Density = 1.785868 g / cm^3
# Si number density = 17.899417 Si / 1000 Ang^3
#
#
#
# Elastic Constant Matrix: (Units=GPa)
#
#
# Indices 1 2 3 4 5 6 
#
# 1 59.6707 28.0986 33.2215 0.0000 0.0000 0.0000
# 2 28.0986 82.9290 43.4856 0.0000 0.0000 0.0000
# 3 33.2215 43.4856 103.4943 0.0000 0.0000 0.0000
# 4 0.0000 0.0000 0.0000 14.4406 0.0000 0.0000
# 5 0.0000 0.0000 0.0000 0.0000 -5.2988 0.0000
# 6 0.0000 0.0000 0.0000 0.0000 0.0000 24.6662
#
#
#
# Elastic Compliance Matrix: (Units=1/GPa)
#
#
# Indices 1 2 3 4 5 6 
#
# 1 0.021780 -0.004763 -0.004990 0.000000 0.000000 0.000000
# 2 -0.004763 0.016508 -0.005407 0.000000 0.000000 0.000000
# 3 -0.004990 -0.005407 0.013536 0.000000 0.000000 0.000000
# 4 0.000000 0.000000 0.000000 0.069249 0.000000 0.000000
# 5 0.000000 0.000000 0.000000 0.000000 -0.188723 0.000000
# 6 0.000000 0.000000 0.000000 0.000000 0.000000 0.040541
#
#
# Mechanical properties :
#
#
# Convention : Reuss Voigt Hill
#
# Bulk Modulus (GPa) = 46.50467 50.63395 48.56931
# Shear Modulus (GPa) = 481.75589 16.18082 248.96835
#
# Velocity S-wave (km/s) = 16.42347 3.00990 11.80656
# Velocity P-wave (km/s) = 19.63869 6.35836 14.59635
#
# Compressibility (1/GPa) = 0.02150322
#
# Stress axis : x y z
#
# Youngs Moduli (GPa) = 45.91449 60.57776 73.87649
#
# Poissons Ratio (x) = 0.28853 0.36864
# Poissons Ratio (y) = 0.21869 0.39947
# Poissons Ratio (z) = 0.22911 0.32756
#
# Static dielectric constant tensor:
#      x y z
#    x 1.627850 0.000000 0.000000 
#    y 0.000000 1.657520 0.000000 
#    z 0.000000 0.000000 1.585590 
# 
# From -- ./inp_files/19695.got.cif
#   From: 2010.05.17/outbox.cif.g08.bks.cpg/sg67_10_cif.got.tgz:19695.got - 2010.06.03 18:28:57.
