data_PCOD9503695
_publ_section_title
;
Structure prediction by ZEFSAII (Michael W. Deem and Ramdas Pophale) SiO2 
 PCOD9503695
Probable space group: C M M A
;
_chemical_formula_sum "Si O2"
_cell_formula_units_Z 104
_cell_length_a 26.840424
_cell_length_b 14.290301
_cell_length_c 11.874461
_cell_angle_alpha 90.000000
_cell_angle_beta 90.000000
_cell_angle_gamma 90.000000
_cell_volume 4554.541400
_symmetry_space_group_name_H-M "C M M A"
_symmetry_group_IT_number 67
_symmetry_cell_setting 'orthorhombic'
loop_
_space_group_symop_operation_xyz
x,y,z
-x,1/2-y,z
x,-y,-z
-x,1/2+y,-z
-x,-y,-z
x,1/2+y,-z
-x,y,z
x,1/2-y,z
1/2+x,1/2+y,z
1/2-x,-y,z
1/2+x,1/2-y,-z
1/2-x,y,-z
1/2-x,1/2-y,-z
1/2+x,y,-z
1/2-x,1/2+y,z
1/2+x,-y,z
loop_
_atom_site_type_symbol
_atom_site_label
_atom_site_fract_x
_atom_site_fract_y
_atom_site_fract_z
Si Si1 0.653501 0.636909 0.495086
Si Si2 0.707583 0.863731 0.271559
Si Si3 0.106144 0.862462 0.845866
Si Si4 0.089974 0.863416 0.099098
Si Si5 0.946029 0.074585 0.375001
Si Si6 0.818914 0.364085 0.745977
Si Si7 0.000000 0.425431 0.738670
O O1 0.650741 0.750000 0.496827
O O2 0.694777 0.611985 0.401156
O O3 0.600979 0.600871 0.448251
O O4 0.665493 0.604857 0.620614
O O5 0.707826 0.750000 0.267371
O O6 0.660723 0.894699 0.196240
O O7 0.762190 0.894434 0.234247
O O8 0.108330 0.750000 0.848385
O O9 0.066380 0.889690 0.751099
O O10 0.090996 0.894809 0.969518
O O11 0.088459 0.750000 0.099023
O O12 0.140791 0.892436 0.161858
O O13 0.043608 0.896512 0.172035
O O14 0.000000 0.115097 0.410801
O O15 0.957560 0.965869 0.351900
O O16 0.819069 0.250000 0.744667
#
# Coordination Sequence:
#
# PCOD9503695 Si02
#       7
#    16  16  16  16  16  16   8
#     4   9  16  30  52  81 110 137 176 218 261 316
#     4   8  14  27  50  81 111 134 164 212 262 310
#     4   9  18  31  52  82 111 137 170 215 263 318
#     4  10  21  36  52  74 104 140 181 221 269 330
#     4   9  20  34  52  75  99 136 180 230 268 309
#     4   9  17  30  51  78 108 141 172 208 262 321
#     4  10  23  39  52  72 100 139 186 230 278 314
#
# _framework density 22.834351000000002
#
# number of rings (size 3 to 8) (size 9 to 14) (size 15 to 20)
#    0.462    2.462    0.000    2.077    1.077    4.923 
#    1.385    4.615    0.000    3.692    0.000    8.615 
#    0.000    0.000    0.000    0.000    0.000    2.462 
#
# Total GULP energy -289497.013720 kJ/mol
# GULP energy per Si atom -5567.250264 kJ/mol
# Density = 2.278238 g / cm^3
# Si number density = 22.834351 Si / 1000 Ang^3
#
#
#
# Elastic Constant Matrix: (Units=GPa)
#
#
# Indices 1 2 3 4 5 6 
#
# 1 101.9148 5.6451 -31.0252 0.0000 0.0000 0.0000
# 2 5.6451 58.4864 32.5139 0.0000 0.0000 0.0000
# 3 -31.0252 32.5139 -40.4932 0.0000 0.0000 0.0000
# 4 0.0000 0.0000 0.0000 20.9759 0.0000 0.0000
# 5 0.0000 0.0000 0.0000 0.0000 27.7148 0.0000
# 6 0.0000 0.0000 0.0000 0.0000 0.0000 61.0880
#
#
#
# Elastic Compliance Matrix: (Units=1/GPa)
#
#
# Indices 1 2 3 4 5 6 
#
# 1 0.008244 0.001878 -0.004809 0.000000 0.000000 0.000000
# 2 0.001878 0.012249 0.008397 0.000000 0.000000 0.000000
# 3 -0.004809 0.008397 -0.014269 0.000000 0.000000 0.000000
# 4 0.000000 0.000000 0.000000 0.047674 0.000000 0.000000
# 5 0.000000 0.000000 0.000000 0.000000 0.036082 0.000000
# 6 0.000000 0.000000 0.000000 0.000000 0.000000 0.016370
#
#
# Mechanical properties :
#
#
# Convention : Reuss Voigt Hill
#
# Bulk Modulus (GPa) = 58.29283 14.90840 36.60062
# Shear Modulus (GPa) = 49.43790 29.47403 39.45596
#
# Velocity S-wave (km/s) = 4.65808 3.59663 4.16134
# Velocity P-wave (km/s) = 7.38337 4.87758 6.25720
#
# Compressibility (1/GPa) = 0.01715477
#
# Stress axis : x y z
#
# Youngs Moduli (GPa) = 121.29784 81.63995 -70.08204
#
# Poissons Ratio (x) = -0.15329 -0.33702
# Poissons Ratio (y) = -0.22775 0.58845
# Poissons Ratio (z) = 0.58331 -0.68550
#
# Static dielectric constant tensor:
#      x y z
#    x 1.799990 0.000000 0.000000 
#    y 0.000000 1.950440 0.000000 
#    z 0.000000 0.000000 1.815730 
# 
# From -- ./inp_files/22979.got.cif
#   From: 2010.05.17/outbox.cif.g08.bks.cpg/sg67_12_cif.got.tgz:22979.got - 2010.06.03 18:28:57.
