data_PCOD9503148
_publ_section_title
;
Structure prediction by ZEFSAII (Michael W. Deem and Ramdas Pophale) SiO2 
 PCOD9503148
Probable space group: C M M A
;
_chemical_formula_sum "Si O2"
_cell_formula_units_Z 56
_cell_length_a 26.343701
_cell_length_b 9.897990
_cell_length_c 11.284860
_cell_angle_alpha 90.000000
_cell_angle_beta 90.000000
_cell_angle_gamma 90.000000
_cell_volume 2942.523736
_symmetry_space_group_name_H-M "C M M A"
_symmetry_group_IT_number 67
_symmetry_cell_setting 'orthorhombic'
loop_
_space_group_symop_operation_xyz
x,y,z
-x,1/2-y,z
x,-y,-z
-x,1/2+y,-z
-x,-y,-z
x,1/2+y,-z
-x,y,z
x,1/2-y,z
1/2+x,1/2+y,z
1/2-x,-y,z
1/2+x,1/2-y,-z
1/2-x,y,-z
1/2-x,1/2-y,-z
1/2+x,y,-z
1/2-x,1/2+y,z
1/2+x,-y,z
loop_
_atom_site_type_symbol
_atom_site_label
_atom_site_fract_x
_atom_site_fract_y
_atom_site_fract_z
Si Si1 0.379040 0.500000 0.000000
Si Si2 0.629690 0.088756 0.617389
Si Si3 0.205095 0.601452 0.829603
Si Si4 0.060438 0.403665 0.776447
O O1 0.340789 0.409216 0.922931
O O2 0.413769 0.576476 0.904844
O O3 0.621047 0.250000 0.597430
O O4 0.678722 0.076330 0.702723
O O5 0.636628 0.000000 0.500000
O O6 0.584318 0.016277 0.690300
O O7 0.227389 0.750000 0.831767
O O8 0.250000 0.500000 0.855205
O O9 0.071699 0.250000 0.734758
O O10 0.000000 0.418646 0.784633
#
# Coordination Sequence:
#
# PCOD9503148 Si02
#       4
#     8  16  16  16
#     4  10  20  36  58  84 116 150 188 230 274 328
#     4  10  22  40  60  83 112 147 188 234 283 336
#     4  10  22  37  56  83 113 147 186 229 278 331
#     4  10  21  37  59  86 115 150 190 232 280 332
#
# _framework density 19.031282000000001
#
# number of rings (size 3 to 8) (size 9 to 14) (size 15 to 20)
#    0.000    2.000    0.000    2.571    0.000   10.857 
#    0.000    2.857    0.000    0.000    0.000    0.000 
#    0.000    0.000    0.000    0.000    0.000    0.000 
#
# Total GULP energy -156244.465334 kJ/mol
# GULP energy per Si atom -5580.159476 kJ/mol
# Density = 1.898797 g / cm^3
# Si number density = 19.031282 Si / 1000 Ang^3
#
#
#
# Elastic Constant Matrix: (Units=GPa)
#
#
# Indices 1 2 3 4 5 6 
#
# 1 63.5192 54.5634 10.7120 0.0000 0.0000 0.0000
# 2 54.5634 143.8111 53.0150 0.0000 0.0000 0.0000
# 3 10.7120 53.0150 107.3339 0.0000 0.0000 0.0000
# 4 0.0000 0.0000 0.0000 10.3448 0.0000 0.0000
# 5 0.0000 0.0000 0.0000 0.0000 5.7363 0.0000
# 6 0.0000 0.0000 0.0000 0.0000 0.0000 23.9916
#
#
#
# Elastic Compliance Matrix: (Units=1/GPa)
#
#
# Indices 1 2 3 4 5 6 
#
# 1 0.023918 -0.010019 0.002562 0.000000 0.000000 0.000000
# 2 -0.010019 0.012698 -0.005272 0.000000 0.000000 0.000000
# 3 0.002562 -0.005272 0.011665 0.000000 0.000000 0.000000
# 4 0.000000 0.000000 0.000000 0.096667 0.000000 0.000000
# 5 0.000000 0.000000 0.000000 0.000000 0.174327 0.000000
# 6 0.000000 0.000000 0.000000 0.000000 0.000000 0.041681
#
#
# Mechanical properties :
#
#
# Convention : Reuss Voigt Hill
#
# Bulk Modulus (GPa) = 43.81710 61.24945 52.53327
# Shear Modulus (GPa) = 12.68963 21.10613 16.89788
#
# Velocity S-wave (km/s) = 2.58500 3.33381 2.98300
# Velocity P-wave (km/s) = 5.65538 6.86094 6.28712
#
# Compressibility (1/GPa) = 0.02282214
#
# Stress axis : x y z
#
# Youngs Moduli (GPa) = 41.81037 78.75034 85.72560
#
# Poissons Ratio (x) = 0.78899 -0.21959
# Poissons Ratio (y) = 0.41889 0.45196
# Poissons Ratio (z) = -0.10710 0.41518
#
# Static dielectric constant tensor:
#      x y z
#    x 1.616530 0.000000 0.000000 
#    y 0.000000 1.658600 0.000000 
#    z 0.000000 0.000000 1.679010 
# 
# From -- ./inp_files/15542.got.cif
#   From: 2010.05.17/outbox.cif.g08.bks.cpg/sg67_8_cif.got.tgz:15542.got - 2010.06.03 18:28:57.
