data_PCOD9503272
_publ_section_title
;
Structure prediction by ZEFSAII (Michael W. Deem and Ramdas Pophale) SiO2 
 PCOD9503272
Probable space group: C M M A
;
_chemical_formula_sum "Si O2"
_cell_formula_units_Z 64
_cell_length_a 14.631373
_cell_length_b 21.976270
_cell_length_c 10.602127
_cell_angle_alpha 90.000000
_cell_angle_beta 90.000000
_cell_angle_gamma 90.000000
_cell_volume 3409.039759
_symmetry_space_group_name_H-M "C M M A"
_symmetry_group_IT_number 67
_symmetry_cell_setting 'orthorhombic'
loop_
_space_group_symop_operation_xyz
x,y,z
-x,1/2-y,z
x,-y,-z
-x,1/2+y,-z
-x,-y,-z
x,1/2+y,-z
-x,y,z
x,1/2-y,z
1/2+x,1/2+y,z
1/2-x,-y,z
1/2+x,1/2-y,-z
1/2-x,y,-z
1/2-x,1/2-y,-z
1/2+x,y,-z
1/2-x,1/2+y,z
1/2+x,-y,z
loop_
_atom_site_type_symbol
_atom_site_label
_atom_site_fract_x
_atom_site_fract_y
_atom_site_fract_z
Si Si1 0.348057 0.316824 0.932106
Si Si2 0.750000 0.000000 0.706301
Si Si3 0.600021 0.448607 0.894387
Si Si4 0.250000 0.905088 0.500000
Si Si5 0.608439 0.180789 0.637453
O O1 0.389624 0.250000 0.964652
O O2 0.390788 0.382598 0.960312
O O3 0.350476 0.318908 0.779418
O O4 0.250000 0.317351 0.000000
O O5 0.677147 0.034467 0.793854
O O6 0.787285 0.051707 0.611910
O O7 0.500000 0.450865 0.833406
O O8 0.605719 0.500000 0.000000
O O9 0.331779 0.864255 0.445852
O O10 0.500000 0.166166 0.644884
O O11 0.615877 0.250000 0.589003
#
# Coordination Sequence:
#
# PCOD9503272 Si02
#       5
#    16   8  16   8  16
#     4  10  20  36  62  90 116 151 196 250 306 366
#     4  11  23  38  56  86 121 157 200 250 294 351
#     4  11  23  39  62  89 120 158 197 248 312 370
#     4  11  23  36  60  86 117 163 204 248 292 349
#     4  10  21  39  63  89 119 157 202 248 299 361
#
# _framework density 18.773614999999999
#
# number of rings (size 3 to 8) (size 9 to 14) (size 15 to 20)
#    0.000    1.500    2.500    3.000    0.000    2.500 
#    0.000    2.500    0.000    0.000    0.000    0.000 
#    0.000    0.000    0.000    0.000    0.000    0.000 
#
# Total GULP energy -178268.011491 kJ/mol
# GULP energy per Si atom -5570.875359 kJ/mol
# Density = 1.873089 g / cm^3
# Si number density = 18.773615 Si / 1000 Ang^3
#
#
#
# Elastic Constant Matrix: (Units=GPa)
#
#
# Indices 1 2 3 4 5 6 
#
# 1 113.1959 49.2906 49.7178 0.0000 0.0000 0.0000
# 2 49.2906 179.6030 45.3415 0.0000 0.0000 0.0000
# 3 49.7178 45.3415 49.5574 0.0000 0.0000 0.0000
# 4 0.0000 0.0000 0.0000 30.8033 0.0000 0.0000
# 5 0.0000 0.0000 0.0000 0.0000 -150.5570 0.0000
# 6 0.0000 0.0000 0.0000 0.0000 0.0000 76.9402
#
#
#
# Elastic Compliance Matrix: (Units=1/GPa)
#
#
# Indices 1 2 3 4 5 6 
#
# 1 0.015820 -0.000435 -0.015472 0.000000 0.000000 0.000000
# 2 -0.000435 0.007252 -0.006198 0.000000 0.000000 0.000000
# 3 -0.015472 -0.006198 0.041372 0.000000 0.000000 0.000000
# 4 0.000000 0.000000 0.000000 0.032464 0.000000 0.000000
# 5 0.000000 0.000000 0.000000 0.000000 -0.006642 0.000000
# 6 0.000000 0.000000 0.000000 0.000000 0.000000 0.012997
#
#
# Mechanical properties :
#
#
# Convention : Reuss Voigt Hill
#
# Bulk Modulus (GPa) = 49.42782 70.11735 59.77258
# Shear Modulus (GPa) = 32.42132 4.63772 18.52952
#
# Velocity S-wave (km/s) = 4.16018 1.57344 3.14506
# Velocity P-wave (km/s) = 7.03290 6.38208 6.71538
#
# Compressibility (1/GPa) = 0.02023152
#
# Stress axis : x y z
#
# Youngs Moduli (GPa) = 63.21243 137.89035 24.17083
#
# Poissons Ratio (x) = 0.06005 0.37398
# Poissons Ratio (y) = 0.02753 0.14982
# Poissons Ratio (z) = 0.97805 0.85468
#
# Static dielectric constant tensor:
#      x y z
#    x 1.644380 0.000000 0.000000 
#    y 0.000000 1.720030 0.000000 
#    z 0.000000 0.000000 1.627190 
# 
# From -- ./inp_files/8056.got.cif
#   From: 2010.05.17/outbox.cif.g08.bks.cpg/sg67_5_cif.got.tgz:8056.got - 2010.06.03 18:28:57.
