data_PCOD9503734
_publ_section_title
;
Structure prediction by ZEFSAII (Michael W. Deem and Ramdas Pophale) SiO2 
 PCOD9503734
Probable space group: C M M A
;
_chemical_formula_sum "Si O2"
_cell_formula_units_Z 112
_cell_length_a 17.362265
_cell_length_b 23.526258
_cell_length_c 13.832462
_cell_angle_alpha 90.000000
_cell_angle_beta 90.000000
_cell_angle_gamma 90.000000
_cell_volume 5650.133662
_symmetry_space_group_name_H-M "C M M A"
_symmetry_group_IT_number 67
_symmetry_cell_setting 'orthorhombic'
loop_
_space_group_symop_operation_xyz
x,y,z
-x,1/2-y,z
x,-y,-z
-x,1/2+y,-z
-x,-y,-z
x,1/2+y,-z
-x,y,z
x,1/2-y,z
1/2+x,1/2+y,z
1/2-x,-y,z
1/2+x,1/2-y,-z
1/2-x,y,-z
1/2-x,1/2-y,-z
1/2+x,y,-z
1/2-x,1/2+y,z
1/2+x,-y,z
loop_
_atom_site_type_symbol
_atom_site_label
_atom_site_fract_x
_atom_site_fract_y
_atom_site_fract_z
Si Si1 0.413112 0.183429 0.355623
Si Si2 0.662581 0.585907 0.535000
Si Si3 0.410950 0.600133 0.332245
Si Si4 0.340724 0.013142 0.274321
Si Si5 0.310036 0.683097 0.215879
Si Si6 0.590829 0.815641 0.021064
Si Si7 0.354730 0.127916 0.169938
O O1 0.500000 0.171800 0.391560
O O2 0.398400 0.250000 0.361534
O O3 0.352280 0.146757 0.415423
O O4 0.407563 0.162570 0.245221
O O5 0.750000 0.578567 0.500000
O O6 0.608244 0.583171 0.442207
O O7 0.645712 0.541199 0.619992
O O8 0.500000 0.614661 0.320133
O O9 0.387388 0.545233 0.268714
O O10 0.355593 0.651764 0.301464
O O11 0.361158 0.061771 0.197358
O O12 0.250000 0.000000 0.267264
O O13 0.295721 0.750000 0.234426
O O14 0.363522 0.678279 0.120910
O O15 0.231055 0.650210 0.194075
O O16 0.500000 0.824639 0.035901
O O17 0.602103 0.750000 0.988066
O O18 0.623057 0.856469 0.938397
#
# Coordination Sequence:
#
# PCOD9503734 Si02
#       7
#    16  16  16  16  16  16  16
#     4  10  21  36  54  85 127 158 193 254 315 364
#     4  11  22  37  63  86 116 162 206 253 302 369
#     4  12  25  40  62  91 123 163 209 256 306 367
#     4  11  22  42  63  87 120 160 200 254 313 359
#     4  11  23  41  64  92 126 166 207 253 307 371
#     4  10  21  38  62  94 129 161 200 252 306 364
#     4  11  21  37  67  90 118 157 209 252 305 371
#
# _framework density 19.82254
#
# number of rings (size 3 to 8) (size 9 to 14) (size 15 to 20)
#    0.000    1.143    2.857    4.286    0.000    8.000 
#    0.000    0.714    0.000    1.714    0.000    0.000 
#    0.000    0.000    0.000    0.000    0.000    0.000 
#
# Total GULP energy -313115.226955 kJ/mol
# GULP energy per Si atom -5591.343338 kJ/mol
# Density = 1.977742 g / cm^3
# Si number density = 19.822540 Si / 1000 Ang^3
#
#
#
# Elastic Constant Matrix: (Units=GPa)
#
#
# Indices 1 2 3 4 5 6 
#
# 1 61.3995 -5.5795 -4.3315 0.0000 0.0000 0.0000
# 2 -5.5795 65.5298 7.6762 0.0000 0.0000 0.0000
# 3 -4.3315 7.6762 40.1601 0.0000 0.0000 0.0000
# 4 0.0000 0.0000 0.0000 15.9729 0.0000 0.0000
# 5 0.0000 0.0000 0.0000 0.0000 -21.2556 0.0000
# 6 0.0000 0.0000 0.0000 0.0000 0.0000 23.7578
#
#
#
# Elastic Compliance Matrix: (Units=1/GPa)
#
#
# Indices 1 2 3 4 5 6 
#
# 1 0.016507 0.001224 0.001546 0.000000 0.000000 0.000000
# 2 0.001224 0.015701 -0.002869 0.000000 0.000000 0.000000
# 3 0.001546 -0.002869 0.025616 0.000000 0.000000 0.000000
# 4 0.000000 0.000000 0.000000 0.062606 0.000000 0.000000
# 5 0.000000 0.000000 0.000000 0.000000 -0.047046 0.000000
# 6 0.000000 0.000000 0.000000 0.000000 0.000000 0.042091
#
#
# Mechanical properties :
#
#
# Convention : Reuss Voigt Hill
#
# Bulk Modulus (GPa) = 17.35305 18.06885 17.71095
# Shear Modulus (GPa) = 37.07013 14.98331 26.02672
#
# Velocity S-wave (km/s) = 4.32916 2.75230 3.62745
# Velocity P-wave (km/s) = 5.81051 4.38580 5.14768
#
# Compressibility (1/GPa) = 0.05762675
#
# Stress axis : x y z
#
# Youngs Moduli (GPa) = 60.57989 63.69202 39.03886
#
# Poissons Ratio (x) = -0.07798 -0.06037
# Poissons Ratio (y) = -0.07417 0.11200
# Poissons Ratio (z) = -0.09368 0.18273
#
# Static dielectric constant tensor:
#      x y z
#    x 1.685850 0.000000 0.000000 
#    y 0.000000 1.698020 0.000000 
#    z 0.000000 0.000000 1.689490 
# 
# From -- ./inp_files/27516.got.cif
#   From: 2010.05.17/outbox.cif.g08.bks.cpg/sg67_14_cif.got.tgz:27516.got - 2010.06.03 18:28:57.
