data_PCOD9503694
_publ_section_title
;
Structure prediction by ZEFSAII (Michael W. Deem and Ramdas Pophale) SiO2 
 PCOD9503694
Probable space group: C M M A
;
_chemical_formula_sum "Si O2"
_cell_formula_units_Z 80
_cell_length_a 22.121503
_cell_length_b 18.569703
_cell_length_c 11.694487
_cell_angle_alpha 90.000000
_cell_angle_beta 90.000000
_cell_angle_gamma 90.000000
_cell_volume 4803.975281
_symmetry_space_group_name_H-M "C M M A"
_symmetry_group_IT_number 67
_symmetry_cell_setting 'orthorhombic'
loop_
_space_group_symop_operation_xyz
x,y,z
-x,1/2-y,z
x,-y,-z
-x,1/2+y,-z
-x,-y,-z
x,1/2+y,-z
-x,y,z
x,1/2-y,z
1/2+x,1/2+y,z
1/2-x,-y,z
1/2+x,1/2-y,-z
1/2-x,y,-z
1/2-x,1/2-y,-z
1/2+x,y,-z
1/2-x,1/2+y,z
1/2+x,-y,z
loop_
_atom_site_type_symbol
_atom_site_label
_atom_site_fract_x
_atom_site_fract_y
_atom_site_fract_z
Si Si1 0.745942 0.166514 0.636562
Si Si2 0.000000 0.165875 0.253101
Si Si3 0.884331 0.917859 0.011697
Si Si4 0.189527 0.952582 0.224587
Si Si5 0.372031 0.403423 0.746805
Si Si6 0.500000 0.331665 0.024956
O O1 0.755019 0.250000 0.668489
O O2 0.750000 0.160528 0.500000
O O3 0.794609 0.112682 0.692209
O O4 0.680657 0.139597 0.682079
O O5 0.061684 0.125007 0.287079
O O6 0.000000 0.250000 0.289085
O O7 0.000000 0.165886 0.114079
O O8 0.830664 0.922287 0.102212
O O9 0.938869 0.870971 0.059933
O O10 0.866094 0.892374 0.884806
O O11 0.907156 0.000000 0.000000
O O12 0.250000 0.000000 0.210955
O O13 0.140243 0.010944 0.268418
O O14 0.500000 0.250000 0.063064
#
# Coordination Sequence:
#
# PCOD9503694 Si02
#       6
#    16   8  16  16  16   8
#     4  10  21  36  52  70  95 129 167 206 251 294
#     4   9  16  29  49  75 104 129 161 202 243 281
#     4   9  17  30  48  71 102 132 159 193 241 289
#     4   9  19  32  49  72 100 130 163 199 240 293
#     4   9  18  31  52  77  99 127 162 202 242 288
#     4   9  17  27  43  70 101 134 165 193 227 281
#
# _framework density 16.652874000000001
#
# number of rings (size 3 to 8) (size 9 to 14) (size 15 to 20)
#    0.000    2.800    0.000    0.900    0.000   16.800 
#    0.000    1.000    0.000    3.600    0.000    4.200 
#    0.000    0.000    0.000    0.000    0.000    0.000 
#
# Total GULP energy -222789.422793 kJ/mol
# GULP energy per Si atom -5569.735570 kJ/mol
# Density = 1.661497 g / cm^3
# Si number density = 16.652874 Si / 1000 Ang^3
#
#
#
# Elastic Constant Matrix: (Units=GPa)
#
#
# Indices 1 2 3 4 5 6 
#
# 1 84.6047 69.7988 34.0302 0.0000 0.0000 0.0000
# 2 69.7988 113.2191 56.7275 0.0000 0.0000 0.0000
# 3 34.0302 56.7275 51.6097 0.0000 0.0000 0.0000
# 4 0.0000 0.0000 0.0000 19.9474 0.0000 0.0000
# 5 0.0000 0.0000 0.0000 0.0000 -14.2185 0.0000
# 6 0.0000 0.0000 0.0000 0.0000 0.0000 19.0407
#
#
#
# Elastic Compliance Matrix: (Units=1/GPa)
#
#
# Indices 1 2 3 4 5 6 
#
# 1 0.024076 -0.015332 0.000978 0.000000 0.000000 0.000000
# 2 -0.015332 0.029424 -0.022232 0.000000 0.000000 0.000000
# 3 0.000978 -0.022232 0.043168 0.000000 0.000000 0.000000
# 4 0.000000 0.000000 0.000000 0.050132 0.000000 0.000000
# 5 0.000000 0.000000 0.000000 0.000000 -0.070331 0.000000
# 6 0.000000 0.000000 0.000000 0.000000 0.000000 0.052519
#
#
# Mechanical properties :
#
#
# Convention : Reuss Voigt Hill
#
# Bulk Modulus (GPa) = 42.56281 63.39407 52.97844
# Shear Modulus (GPa) = 23.81054 10.87906 17.34480
#
# Velocity S-wave (km/s) = 3.78539 2.55871 3.23081
# Velocity P-wave (km/s) = 6.68730 6.84689 6.76757
#
# Compressibility (1/GPa) = 0.02349469
#
# Stress axis : x y z
#
# Youngs Moduli (GPa) = 41.53588 33.98600 23.16549
#
# Poissons Ratio (x) = 0.52109 -0.02266
# Poissons Ratio (y) = 0.63685 0.51501
# Poissons Ratio (z) = -0.04063 0.75557
#
# Static dielectric constant tensor:
#      x y z
#    x 1.565840 0.000000 0.000000 
#    y 0.000000 1.573000 0.000000 
#    z 0.000000 0.000000 1.544420 
# 
# From -- ./inp_files/20565.got.cif
#   From: 2010.05.17/outbox.cif.g08.bks.cpg/sg67_11_cif.got.tgz:20565.got - 2010.06.03 18:28:57.
