data_PCOD9503295
_publ_section_title
;
Structure prediction by ZEFSAII (Michael W. Deem and Ramdas Pophale) SiO2 
 PCOD9503295
Probable space group: C M M A
;
_chemical_formula_sum "Si O2"
_cell_formula_units_Z 68
_cell_length_a 9.225705
_cell_length_b 17.895036
_cell_length_c 18.615348
_cell_angle_alpha 90.000000
_cell_angle_beta 90.000000
_cell_angle_gamma 90.000000
_cell_volume 3073.288277
_symmetry_space_group_name_H-M "C M M A"
_symmetry_group_IT_number 67
_symmetry_cell_setting 'orthorhombic'
loop_
_space_group_symop_operation_xyz
x,y,z
-x,1/2-y,z
x,-y,-z
-x,1/2+y,-z
-x,-y,-z
x,1/2+y,-z
-x,y,z
x,1/2-y,z
1/2+x,1/2+y,z
1/2-x,-y,z
1/2+x,1/2-y,-z
1/2-x,y,-z
1/2-x,1/2-y,-z
1/2+x,y,-z
1/2-x,1/2+y,z
1/2+x,-y,z
loop_
_atom_site_type_symbol
_atom_site_label
_atom_site_fract_x
_atom_site_fract_y
_atom_site_fract_z
Si Si1 0.500000 0.250000 0.840844
Si Si2 0.325746 0.079973 0.574615
Si Si3 0.500000 0.553288 0.069246
Si Si4 0.334888 0.161036 0.303140
Si Si5 0.000000 0.661569 0.053544
Si Si6 0.236495 0.615598 0.846517
O O1 0.626492 0.184926 0.839237
O O2 0.500000 0.072977 0.567809
O O3 0.250000 0.104220 0.500000
O O4 0.279927 0.136423 0.637246
O O5 0.250000 0.000000 0.591205
O O6 0.363368 0.550422 0.121119
O O7 0.500000 0.500000 0.000000
O O8 0.500000 0.632670 0.027481
O O9 0.500000 0.147965 0.328769
O O10 0.323334 0.250000 0.287219
O O11 0.308043 0.112209 0.231705
O O12 0.859567 0.633188 0.095327
O O13 0.000000 0.750000 0.053338
#
# Coordination Sequence:
#
# PCOD9503295 Si02
#       6
#     4  16   8  16   8  16
#     4  10  20  36  66  98 128 170 218 280 342 418
#     4  11  24  45  73 103 147 197 249 296 355 431
#     4  11  29  48  64  95 140 181 235 296 362 423
#     4  11  23  42  72 108 148 187 238 303 363 427
#     4  12  23  41  71  98 124 176 229 286 353 426
#     4  11  23  42  69  94 136 175 230 282 356 428
#
# _framework density 22.126137
#
# number of rings (size 3 to 8) (size 9 to 14) (size 15 to 20)
#    0.000    0.941    3.529    3.529    6.588    3.765 
#    4.235    0.000    0.000    0.000    0.000    0.000 
#    0.000    0.000    0.000    0.000    0.000    0.000 
#
# Total GULP energy -189619.206274 kJ/mol
# GULP energy per Si atom -5577.035479 kJ/mol
# Density = 2.207578 g / cm^3
# Si number density = 22.126137 Si / 1000 Ang^3
#
#
#
# Elastic Constant Matrix: (Units=GPa)
#
#
# Indices 1 2 3 4 5 6 
#
# 1 195.5425 29.2056 34.2539 0.0000 0.0000 0.0000
# 2 29.2056 41.4641 18.5616 0.0000 0.0000 0.0000
# 3 34.2539 18.5616 90.2690 0.0000 0.0000 0.0000
# 4 0.0000 0.0000 0.0000 21.2338 0.0000 0.0000
# 5 0.0000 0.0000 0.0000 0.0000 45.7781 0.0000
# 6 0.0000 0.0000 0.0000 0.0000 0.0000 40.9673
#
#
#
# Elastic Compliance Matrix: (Units=1/GPa)
#
#
# Indices 1 2 3 4 5 6 
#
# 1 0.005900 -0.003473 -0.001525 0.000000 0.000000 0.000000
# 2 -0.003473 0.028607 -0.004564 0.000000 0.000000 0.000000
# 3 -0.001525 -0.004564 0.012595 0.000000 0.000000 0.000000
# 4 0.000000 0.000000 0.000000 0.047095 0.000000 0.000000
# 5 0.000000 0.000000 0.000000 0.000000 0.021845 0.000000
# 6 0.000000 0.000000 0.000000 0.000000 0.000000 0.024410
#
#
# Mechanical properties :
#
#
# Convention : Reuss Voigt Hill
#
# Bulk Modulus (GPa) = 35.74293 54.59087 45.16690
# Shear Modulus (GPa) = 29.60320 37.94613 33.77467
#
# Velocity S-wave (km/s) = 3.66174 4.14574 3.91123
# Velocity P-wave (km/s) = 5.83670 6.90234 6.39177
#
# Compressibility (1/GPa) = 0.02797756
#
# Stress axis : x y z
#
# Youngs Moduli (GPa) = 169.49802 34.95672 79.39597
#
# Poissons Ratio (x) = 0.12141 0.12105
# Poissons Ratio (y) = 0.58868 0.36239
# Poissons Ratio (z) = 0.25842 0.15956
#
# Static dielectric constant tensor:
#      x y z
#    x 1.761080 0.000000 0.000000 
#    y 0.000000 2.222970 0.000000 
#    z 0.000000 0.000000 1.806260 
# 
# From -- ./inp_files/31834.got.cif
#   From: 2010.05.17/outbox.cif.g08.bks.cpg/sg67_16_cif.got.tgz:31834.got - 2010.06.03 18:28:57.
