data_PCOD9503796
_publ_section_title
;
Structure prediction by ZEFSAII (Michael W. Deem and Ramdas Pophale) SiO2 
 PCOD9503796
Probable space group: C M M A
;
_chemical_formula_sum "Si O2"
_cell_formula_units_Z 96
_cell_length_a 17.417066
_cell_length_b 22.347017
_cell_length_c 12.356202
_cell_angle_alpha 90.000000
_cell_angle_beta 90.000000
_cell_angle_gamma 90.000000
_cell_volume 4809.274394
_symmetry_space_group_name_H-M "C M M A"
_symmetry_group_IT_number 67
_symmetry_cell_setting 'orthorhombic'
loop_
_space_group_symop_operation_xyz
x,y,z
-x,1/2-y,z
x,-y,-z
-x,1/2+y,-z
-x,-y,-z
x,1/2+y,-z
-x,y,z
x,1/2-y,z
1/2+x,1/2+y,z
1/2-x,-y,z
1/2+x,1/2-y,-z
1/2-x,y,-z
1/2-x,1/2-y,-z
1/2+x,y,-z
1/2-x,1/2+y,z
1/2+x,-y,z
loop_
_atom_site_type_symbol
_atom_site_label
_atom_site_fract_x
_atom_site_fract_y
_atom_site_fract_z
Si Si1 0.848110 0.625109 0.256421
Si Si2 0.908329 0.621885 0.834709
Si Si3 0.089524 0.318189 0.946245
Si Si4 0.157677 0.497061 0.873322
Si Si5 0.693798 0.319889 0.661751
Si Si6 0.085539 0.179415 0.538431
O O1 0.861719 0.672550 0.160766
O O2 0.861146 0.562376 0.195196
O O3 0.764260 0.637368 0.306640
O O4 0.904309 0.639642 0.355230
O O5 0.877882 0.555102 0.816165
O O6 0.870364 0.667816 0.752143
O O7 0.000000 0.624486 0.829441
O O8 0.883967 0.640161 0.956127
O O9 0.093328 0.250000 0.983903
O O10 0.000000 0.331821 0.921262
O O11 0.250000 0.500000 0.874972
O O12 0.131607 0.500000 0.000000
O O13 0.717698 0.250000 0.660929
O O14 0.652419 0.333071 0.547832
O O15 0.091717 0.250000 0.567860
O O16 0.000000 0.170611 0.491484
#
# Coordination Sequence:
#
# PCOD9503796 Si02
#       6
#    16  16  16  16  16  16
#     4  12  22  38  66  93 126 166 217 265 319 381
#     4  11  23  40  62  90 124 169 219 261 315 385
#     4  10  21  36  57  92 133 165 204 264 325 384
#     4  11  23  43  63  87 126 170 211 259 321 376
#     4  11  23  40  64  95 130 170 210 261 323 386
#     4  10  22  41  65  95 131 168 210 264 325 387
#
# _framework density 19.961431000000001
#
# number of rings (size 3 to 8) (size 9 to 14) (size 15 to 20)
#    0.000    1.167    3.333    3.500    0.000    6.667 
#    0.000    2.500    0.000    2.000    0.000    0.000 
#    0.000    0.000    0.000    0.000    0.000    0.000 
#
# Total GULP energy -268102.216853 kJ/mol
# GULP energy per Si atom -5585.462851 kJ/mol
# Density = 1.991600 g / cm^3
# Si number density = 19.961431 Si / 1000 Ang^3
#
#
#
# Elastic Constant Matrix: (Units=GPa)
#
#
# Indices 1 2 3 4 5 6 
#
# 1 58.4107 13.8476 27.5119 0.0000 0.0000 0.0000
# 2 13.8476 80.9877 38.9613 0.0000 0.0000 0.0000
# 3 27.5119 38.9613 101.1581 0.0000 0.0000 0.0000
# 4 0.0000 0.0000 0.0000 31.9171 0.0000 0.0000
# 5 0.0000 0.0000 0.0000 0.0000 35.8432 0.0000
# 6 0.0000 0.0000 0.0000 0.0000 0.0000 36.4226
#
#
#
# Elastic Compliance Matrix: (Units=1/GPa)
#
#
# Indices 1 2 3 4 5 6 
#
# 1 0.019697 -0.000971 -0.004983 0.000000 0.000000 0.000000
# 2 -0.000971 0.015204 -0.005592 0.000000 0.000000 0.000000
# 3 -0.004983 -0.005592 0.013394 0.000000 0.000000 0.000000
# 4 0.000000 0.000000 0.000000 0.031331 0.000000 0.000000
# 5 0.000000 0.000000 0.000000 0.000000 0.027899 0.000000
# 6 0.000000 0.000000 0.000000 0.000000 0.000000 0.027456
#
#
# Mechanical properties :
#
#
# Convention : Reuss Voigt Hill
#
# Bulk Modulus (GPa) = 39.67578 44.57755 42.12666
# Shear Modulus (GPa) = 30.03473 31.51896 30.77684
#
# Velocity S-wave (km/s) = 3.88317 3.97797 3.93086
# Velocity P-wave (km/s) = 6.32651 6.59388 6.46158
#
# Compressibility (1/GPa) = 0.02520429
#
# Stress axis : x y z
#
# Youngs Moduli (GPa) = 50.76806 65.77411 74.65765
#
# Poissons Ratio (x) = 0.06384 0.37204
# Poissons Ratio (y) = 0.04928 0.41746
# Poissons Ratio (z) = 0.25299 0.36779
#
# Static dielectric constant tensor:
#      x y z
#    x 1.718980 0.000000 0.000000 
#    y 0.000000 1.699620 0.000000 
#    z 0.000000 0.000000 1.695690 
# 
# From -- ./inp_files/19677.got.cif
#   From: 2010.05.17/outbox.cif.g08.bks.cpg/sg67_10_cif.got.tgz:19677.got - 2010.06.03 18:28:57.
