data_PCOD9503003
_publ_section_title
;
Structure prediction by ZEFSAII (Michael W. Deem and Ramdas Pophale) SiO2 
 PCOD9503003
Probable space group: C M M A
;
_chemical_formula_sum "Si O2"
_cell_formula_units_Z 72
_cell_length_a 8.794896
_cell_length_b 16.529379
_cell_length_c 25.703934
_cell_angle_alpha 90.000000
_cell_angle_beta 90.000000
_cell_angle_gamma 90.000000
_cell_volume 3736.688052
_symmetry_space_group_name_H-M "C M M A"
_symmetry_group_IT_number 67
_symmetry_cell_setting 'orthorhombic'
loop_
_space_group_symop_operation_xyz
x,y,z
-x,1/2-y,z
x,-y,-z
-x,1/2+y,-z
-x,-y,-z
x,1/2+y,-z
-x,y,z
x,1/2-y,z
1/2+x,1/2+y,z
1/2-x,-y,z
1/2+x,1/2-y,-z
1/2-x,y,-z
1/2-x,1/2-y,-z
1/2+x,y,-z
1/2-x,1/2+y,z
1/2+x,-y,z
loop_
_atom_site_type_symbol
_atom_site_label
_atom_site_fract_x
_atom_site_fract_y
_atom_site_fract_z
Si Si1 0.683223 0.591159 0.375336
Si Si2 0.183392 0.750000 0.557656
Si Si3 0.670430 0.845172 0.847406
Si Si4 0.182868 0.088915 0.735740
Si Si5 0.678861 0.089149 0.948647
O O1 0.500000 0.583897 0.375085
O O2 0.750000 0.500000 0.386263
O O3 0.727276 0.665575 0.413379
O O4 0.742384 0.616863 0.318129
O O5 0.250000 0.750000 0.500000
O O6 0.000000 0.750000 0.555946
O O7 0.500000 0.881656 0.854537
O O8 0.657986 0.750000 0.851904
O O9 0.719962 0.864347 0.788662
O O10 0.777867 0.873532 0.893452
O O11 0.000000 0.087762 0.729527
O O12 0.250000 0.000000 0.743718
O O13 0.500000 0.085206 0.955539
O O14 0.750000 0.000000 0.946988
O O15 0.750000 0.130851 0.000000
#
# Coordination Sequence:
#
# PCOD9503003 Si02
#       5
#    16   8  16  16  16
#     4  10  21  39  61  89 122 159 202 250 300 355
#     4  10  24  42  62  90 124 162 203 248 299 352
#     4  10  22  38  55  81 116 149 186 233 284 342
#     4  10  20  35  58  85 114 151 191 235 287 341
#     4  11  22  38  60  82 106 142 187 234 286 343
#
# _framework density 19.268401000000001
#
# number of rings (size 3 to 8) (size 9 to 14) (size 15 to 20)
#    0.000    1.778    0.000    6.000    1.556    6.667 
#    0.000    2.222    0.000    0.000    0.000    0.000 
#    0.000    0.000    0.000    0.000    0.000    0.000 
#
# Total GULP energy -200808.843226 kJ/mol
# GULP energy per Si atom -5578.023423 kJ/mol
# Density = 1.922455 g / cm^3
# Si number density = 19.268401 Si / 1000 Ang^3
#
#
#
# Elastic Constant Matrix: (Units=GPa)
#
#
# Indices 1 2 3 4 5 6 
#
# 1 99.7563 41.3177 77.1006 0.0000 0.0000 0.0000
# 2 41.3177 79.5941 84.4075 0.0000 0.0000 0.0000
# 3 77.1006 84.4075 154.4644 0.0000 0.0000 0.0000
# 4 0.0000 0.0000 0.0000 81.4840 0.0000 0.0000
# 5 0.0000 0.0000 0.0000 0.0000 35.5661 0.0000
# 6 0.0000 0.0000 0.0000 0.0000 0.0000 17.9632
#
#
#
# Elastic Compliance Matrix: (Units=1/GPa)
#
#
# Indices 1 2 3 4 5 6 
#
# 1 0.016326 0.000397 -0.008366 0.000000 0.000000 0.000000
# 2 0.000397 0.029888 -0.016530 0.000000 0.000000 0.000000
# 3 -0.008366 -0.016530 0.019683 0.000000 0.000000 0.000000
# 4 0.000000 0.000000 0.000000 0.012272 0.000000 0.000000
# 5 0.000000 0.000000 0.000000 0.000000 0.028117 0.000000
# 6 0.000000 0.000000 0.000000 0.000000 0.000000 0.055669
#
#
# Mechanical properties :
#
#
# Convention : Reuss Voigt Hill
#
# Bulk Modulus (GPa) = 59.17905 82.16294 70.67099
# Shear Modulus (GPa) = 23.08548 35.73526 29.41037
#
# Velocity S-wave (km/s) = 3.46511 4.31118 3.91109
# Velocity P-wave (km/s) = 6.84025 8.21679 7.55991
#
# Compressibility (1/GPa) = 0.01689787
#
# Stress axis : x y z
#
# Youngs Moduli (GPa) = 61.25187 33.45865 50.80531
#
# Poissons Ratio (x) = -0.01329 0.42504
# Poissons Ratio (y) = -0.02432 0.83983
# Poissons Ratio (z) = 0.51244 0.55308
#
# Static dielectric constant tensor:
#      x y z
#    x 1.683890 0.000000 0.000000 
#    y 0.000000 1.652450 0.000000 
#    z 0.000000 0.000000 1.717600 
# 
# From -- ./inp_files/40515.got.cif
#   From: 2010.05.17/outbox.cif.g08.bks.cpg/sg67_21_cif.got.tgz:40515.got - 2010.06.03 18:28:57.
