data_PCOD9503079
_publ_section_title
;
Structure prediction by ZEFSAII (Michael W. Deem and Ramdas Pophale) SiO2 
 PCOD9503079
Probable space group: C M M A
;
_chemical_formula_sum "Si O2"
_cell_formula_units_Z 112
_cell_length_a 14.480797
_cell_length_b 21.947514
_cell_length_c 17.461258
_cell_angle_alpha 90.000000
_cell_angle_beta 90.000000
_cell_angle_gamma 90.000000
_cell_volume 5549.493275
_symmetry_space_group_name_H-M "C M M A"
_symmetry_group_IT_number 67
_symmetry_cell_setting 'orthorhombic'
loop_
_space_group_symop_operation_xyz
x,y,z
-x,1/2-y,z
x,-y,-z
-x,1/2+y,-z
-x,-y,-z
x,1/2+y,-z
-x,y,z
x,1/2-y,z
1/2+x,1/2+y,z
1/2-x,-y,z
1/2+x,1/2-y,-z
1/2-x,y,-z
1/2-x,1/2-y,-z
1/2+x,y,-z
1/2-x,1/2+y,z
1/2+x,-y,z
loop_
_atom_site_type_symbol
_atom_site_label
_atom_site_fract_x
_atom_site_fract_y
_atom_site_fract_z
Si Si1 0.270489 0.177192 0.707016
Si Si2 0.893479 0.177374 0.152042
Si Si3 0.887871 0.088914 0.028768
Si Si4 0.612130 0.086047 0.284622
Si Si5 0.651941 0.319314 0.540528
Si Si6 0.112401 0.030057 0.876541
Si Si7 0.107596 0.056298 0.547497
O O1 0.262853 0.250000 0.708871
O O2 0.330808 0.155218 0.778609
O O3 0.169380 0.148604 0.714497
O O4 0.325758 0.163683 0.628441
O O5 0.891032 0.250000 0.151223
O O6 0.862841 0.150624 0.070927
O O7 0.000000 0.158335 0.165280
O O8 0.000000 0.085941 0.024078
O O9 0.859674 0.034510 0.086634
O O10 0.855790 0.077521 0.942340
O O11 0.500000 0.094104 0.283968
O O12 0.639659 0.047683 0.209236
O O13 0.643522 0.058150 0.365815
O O14 0.609163 0.250000 0.537597
O O15 0.750000 0.312374 0.500000
O O16 0.611882 0.378168 0.495896
O O17 0.000000 0.029780 0.874972
O O18 0.000000 0.042870 0.557739
O O19 0.147701 0.000000 0.500000
#
# Coordination Sequence:
#
# PCOD9503079 Si02
#       7
#    16  16  16  16  16  16  16
#     4  10  21  37  56  81 111 140 181 231 272 323
#     4   9  18  33  54  79 108 141 176 220 274 323
#     4   8  14  29  53  78 105 140 179 220 265 314
#     4  10  20  36  56  79 109 144 180 222 273 330
#     4  10  20  37  57  77 105 144 189 231 272 325
#     4   8  15  29  52  79 106 139 179 220 263 316
#     4  10  22  38  56  83 116 146 182 232 285 337
#
# _framework density 20.182022
#
# number of rings (size 3 to 8) (size 9 to 14) (size 15 to 20)
#    0.000    2.714    1.429    0.857    0.000    2.571 
#    0.000    9.286    0.000    6.000    0.000    0.000 
#    0.000    0.000    0.000    0.000    0.000    0.000 
#
# Total GULP energy -311880.029245 kJ/mol
# GULP energy per Si atom -5569.286237 kJ/mol
# Density = 2.013609 g / cm^3
# Si number density = 20.182022 Si / 1000 Ang^3
#
#
#
# Elastic Constant Matrix: (Units=GPa)
#
#
# Indices 1 2 3 4 5 6 
#
# 1 43.0541 11.5518 34.4706 0.0000 0.0000 0.0000
# 2 11.5518 44.8532 61.1459 0.0000 0.0000 0.0000
# 3 34.4706 61.1459 132.3548 0.0000 0.0000 0.0000
# 4 0.0000 0.0000 0.0000 30.9441 0.0000 0.0000
# 5 0.0000 0.0000 0.0000 0.0000 15.6208 0.0000
# 6 0.0000 0.0000 0.0000 0.0000 0.0000 27.0023
#
#
#
# Elastic Compliance Matrix: (Units=1/GPa)
#
#
# Indices 1 2 3 4 5 6 
#
# 1 0.030372 0.007999 -0.011606 0.000000 0.000000 0.000000
# 2 0.007999 0.062330 -0.030879 0.000000 0.000000 0.000000
# 3 -0.011606 -0.030879 0.024844 0.000000 0.000000 0.000000
# 4 0.000000 0.000000 0.000000 0.032316 0.000000 0.000000
# 5 0.000000 0.000000 0.000000 0.000000 0.064017 0.000000
# 6 0.000000 0.000000 0.000000 0.000000 0.000000 0.037034
#
#
# Mechanical properties :
#
#
# Convention : Reuss Voigt Hill
#
# Bulk Modulus (GPa) = 20.58667 48.28875 34.43771
# Shear Modulus (GPa) = 14.87756 22.25302 18.56529
#
# Velocity S-wave (km/s) = 2.71803 3.32417 3.03626
# Velocity P-wave (km/s) = 4.48028 6.22190 5.42148
#
# Compressibility (1/GPa) = 0.04857513
#
# Stress axis : x y z
#
# Youngs Moduli (GPa) = 32.92486 16.04351 40.25179
#
# Poissons Ratio (x) = -0.12833 0.46714
# Poissons Ratio (y) = -0.26336 1.24293
# Poissons Ratio (z) = 0.38211 0.49541
#
# Static dielectric constant tensor:
#      x y z
#    x 1.787340 0.000000 0.000000 
#    y 0.000000 1.735530 0.000000 
#    z 0.000000 0.000000 1.889250 
# 
# From -- ./inp_files/27487.got.cif
#   From: 2010.05.17/outbox.cif.g08.bks.cpg/sg67_14_cif.got.tgz:27487.got - 2010.06.03 18:28:57.
