data_PCOD9503081
_publ_section_title
;
Structure prediction by ZEFSAII (Michael W. Deem and Ramdas Pophale) SiO2 
 PCOD9503081
Probable space group: C M M A
;
_chemical_formula_sum "Si O2"
_cell_formula_units_Z 112
_cell_length_a 14.684258
_cell_length_b 14.011516
_cell_length_c 27.306391
_cell_angle_alpha 90.000000
_cell_angle_beta 90.000000
_cell_angle_gamma 90.000000
_cell_volume 5618.254885
_symmetry_space_group_name_H-M "C M M A"
_symmetry_group_IT_number 67
_symmetry_cell_setting 'orthorhombic'
loop_
_space_group_symop_operation_xyz
x,y,z
-x,1/2-y,z
x,-y,-z
-x,1/2+y,-z
-x,-y,-z
x,1/2+y,-z
-x,y,z
x,1/2-y,z
1/2+x,1/2+y,z
1/2-x,-y,z
1/2+x,1/2-y,-z
1/2-x,y,-z
1/2-x,1/2-y,-z
1/2+x,y,-z
1/2-x,1/2+y,z
1/2+x,-y,z
loop_
_atom_site_type_symbol
_atom_site_label
_atom_site_fract_x
_atom_site_fract_y
_atom_site_fract_z
Si Si1 0.604099 0.884675 0.504447
Si Si2 0.610257 0.483696 0.266886
Si Si3 0.257173 0.356786 0.692098
Si Si4 0.395182 0.858213 0.016106
Si Si5 0.394183 0.858045 0.824704
Si Si6 0.243955 0.385358 0.420937
Si Si7 0.152991 0.964582 0.078257
O O1 0.500000 0.853581 0.504946
O O2 0.661791 0.856998 0.552485
O O3 0.663212 0.855554 0.457385
O O4 0.603343 0.000000 0.500000
O O5 0.500000 0.493456 0.271023
O O6 0.666043 0.579447 0.280657
O O7 0.658108 0.406175 0.302264
O O8 0.637405 0.438076 0.214119
O O9 0.255799 0.250000 0.712014
O O10 0.274155 0.354221 0.634087
O O11 0.500000 0.856294 0.998533
O O12 0.369682 0.750000 0.030141
O O13 0.392308 0.937521 0.058738
O O14 0.339132 0.898487 0.970060
O O15 0.500000 0.847255 0.811988
O O16 0.353847 0.750000 0.822699
O O17 0.389206 0.902487 0.878795
O O18 0.250000 0.500000 0.419359
O O19 0.250000 0.000000 0.096287
#
# Coordination Sequence:
#
# PCOD9503081 Si02
#       7
#    16  16  16  16  16  16  16
#     4   8  15  27  50  79 114 158 199 243 292 350
#     4  10  23  43  65  89 120 158 206 260 314 375
#     4  11  23  40  64  92 125 161 202 256 318 375
#     4  10  20  36  56  79 116 163 202 238 286 348
#     4  10  21  40  65  88 112 149 198 248 299 360
#     4   9  16  32  51  81 118 153 202 245 296 362
#     4  11  22  33  55  87 119 151 194 245 297 352
#
# _framework density 19.935016999999998
#
# number of rings (size 3 to 8) (size 9 to 14) (size 15 to 20)
#    0.000    2.143    1.429    4.286    2.000    5.143 
#    0.000    2.143    0.000    1.714    0.000    0.000 
#    0.000    0.000    0.000    0.000    0.000    0.000 
#
# Total GULP energy -312036.556325 kJ/mol
# GULP energy per Si atom -5572.081363 kJ/mol
# Density = 1.988964 g / cm^3
# Si number density = 19.935017 Si / 1000 Ang^3
#
#
#
# Elastic Constant Matrix: (Units=GPa)
#
#
# Indices 1 2 3 4 5 6 
#
# 1 100.8702 27.4305 17.4432 0.0000 0.0000 0.0000
# 2 27.4305 168.6338 30.8376 0.0000 0.0000 0.0000
# 3 17.4432 30.8376 96.6610 0.0000 0.0000 0.0000
# 4 0.0000 0.0000 0.0000 76.4537 0.0000 0.0000
# 5 0.0000 0.0000 0.0000 0.0000 21.3410 0.0000
# 6 0.0000 0.0000 0.0000 0.0000 0.0000 -16.8163
#
#
#
# Elastic Compliance Matrix: (Units=1/GPa)
#
#
# Indices 1 2 3 4 5 6 
#
# 1 0.010558 -0.001454 -0.001442 0.000000 0.000000 0.000000
# 2 -0.001454 0.006498 -0.001811 0.000000 0.000000 0.000000
# 3 -0.001442 -0.001811 0.011183 0.000000 0.000000 0.000000
# 4 0.000000 0.000000 0.000000 0.013080 0.000000 0.000000
# 5 0.000000 0.000000 0.000000 0.000000 0.046858 0.000000
# 6 0.000000 0.000000 0.000000 0.000000 0.000000 -0.059466
#
#
# Mechanical properties :
#
#
# Convention : Reuss Voigt Hill
#
# Bulk Modulus (GPa) = 53.11440 57.50975 55.31207
# Shear Modulus (GPa) = 112.61666 35.55927 74.08797
#
# Velocity S-wave (km/s) = 7.52426 4.22804 6.10290
# Velocity P-wave (km/s) = 10.10879 7.26267 8.80153
#
# Compressibility (1/GPa) = 0.01882729
#
# Stress axis : x y z
#
# Youngs Moduli (GPa) = 94.71166 153.90328 89.42001
#
# Poissons Ratio (x) = 0.22375 0.12890
# Poissons Ratio (y) = 0.13770 0.16190
# Poissons Ratio (z) = 0.13653 0.27865
#
# Static dielectric constant tensor:
#      x y z
#    x 1.725350 0.000000 0.000000 
#    y 0.000000 1.748680 0.000000 
#    z 0.000000 0.000000 1.703510 
# 
# From -- ./inp_files/41907.got.cif
#   From: 2010.05.17/outbox.cif.g08.bks.cpg/sg67_21_cif.got.tgz:41907.got - 2010.06.03 18:28:57.
