data_PCOD9503279
_publ_section_title
;
Structure prediction by ZEFSAII (Michael W. Deem and Ramdas Pophale) SiO2 
 PCOD9503279
Probable space group: C M M A
;
_chemical_formula_sum "Si O2"
_cell_formula_units_Z 88
_cell_length_a 10.293032
_cell_length_b 20.700427
_cell_length_c 22.420930
_cell_angle_alpha 90.000000
_cell_angle_beta 90.000000
_cell_angle_gamma 90.000000
_cell_volume 4777.231087
_symmetry_space_group_name_H-M "C M M A"
_symmetry_group_IT_number 67
_symmetry_cell_setting 'orthorhombic'
loop_
_space_group_symop_operation_xyz
x,y,z
-x,1/2-y,z
x,-y,-z
-x,1/2+y,-z
-x,-y,-z
x,1/2+y,-z
-x,y,z
x,1/2-y,z
1/2+x,1/2+y,z
1/2-x,-y,z
1/2+x,1/2-y,-z
1/2-x,y,-z
1/2-x,1/2-y,-z
1/2+x,y,-z
1/2-x,1/2+y,z
1/2+x,-y,z
loop_
_atom_site_type_symbol
_atom_site_label
_atom_site_fract_x
_atom_site_fract_y
_atom_site_fract_z
Si Si1 0.343218 0.673331 0.750098
Si Si2 0.000000 0.423897 0.936261
Si Si3 0.000000 0.079421 0.071142
Si Si4 0.242320 0.368489 0.379494
Si Si5 0.500000 0.591687 0.551014
Si Si6 0.641277 0.250000 0.549651
Si Si7 0.754798 0.578227 0.146354
Si Si8 0.500000 0.557431 0.414022
O O1 0.500000 0.666446 0.753482
O O2 0.313599 0.750000 0.759374
O O3 0.294947 0.651214 0.684988
O O4 0.278035 0.624258 0.797158
O O5 0.000000 0.501899 0.937618
O O6 0.873062 0.407704 0.898592
O O7 0.000000 0.395900 0.003083
O O8 0.125366 0.095274 0.110101
O O9 0.367539 0.379626 0.421782
O O10 0.161706 0.310459 0.407939
O O11 0.134339 0.425037 0.380550
O O12 0.500000 0.591769 0.479320
O O13 0.500000 0.517751 0.571825
O O14 0.500000 0.250000 0.520841
O O15 0.750000 0.250000 0.500000
O O16 0.750000 0.500000 0.159981
#
# Coordination Sequence:
#
# PCOD9503279 Si02
#       8
#    16   8   8  16   8   8  16   8
#     4  11  24  44  64  85 124 174 220 259 311 380
#     4   9  16  33  59  90 134 163 201 252 312 379
#     4   9  18  31  57  98 128 161 197 262 322 357
#     4  12  24  42  64  90 121 161 211 254 309 383
#     4  11  24  42  65  90 126 160 194 247 324 401
#     4  12  26  42  68  98 124 154 203 270 323 373
#     4  10  20  36  62  94 124 162 213 259 308 371
#     4  11  24  42  63  94 124 156 194 255 328 385
#
# _framework density 18.420712000000002
#
# number of rings (size 3 to 8) (size 9 to 14) (size 15 to 20)
#    0.000    1.273    3.636    2.727    1.273    5.818 
#    0.000    1.364    0.000    3.273    0.000    0.000 
#    0.000    0.000    0.000    0.000    0.000    0.000 
#
# Total GULP energy -245563.295486 kJ/mol
# GULP energy per Si atom -5580.983988 kJ/mol
# Density = 1.837879 g / cm^3
# Si number density = 18.420712 Si / 1000 Ang^3
#
#
#
# Elastic Constant Matrix: (Units=GPa)
#
#
# Indices 1 2 3 4 5 6 
#
# 1 152.7988 35.7868 54.4238 0.0000 0.0000 0.0000
# 2 35.7868 79.4005 47.3886 0.0000 0.0000 0.0000
# 3 54.4238 47.3886 121.9468 0.0000 0.0000 0.0000
# 4 0.0000 0.0000 0.0000 21.0336 0.0000 0.0000
# 5 0.0000 0.0000 0.0000 0.0000 101.1589 0.0000
# 6 0.0000 0.0000 0.0000 0.0000 0.0000 -7.0874
#
#
#
# Elastic Compliance Matrix: (Units=1/GPa)
#
#
# Indices 1 2 3 4 5 6 
#
# 1 0.008000 -0.001920 -0.002824 0.000000 0.000000 0.000000
# 2 -0.001920 0.016858 -0.005694 0.000000 0.000000 0.000000
# 3 -0.002824 -0.005694 0.011673 0.000000 0.000000 0.000000
# 4 0.000000 0.000000 0.000000 0.047543 0.000000 0.000000
# 5 0.000000 0.000000 0.000000 0.000000 0.009885 0.000000
# 6 0.000000 0.000000 0.000000 0.000000 0.000000 -0.141095
#
#
# Mechanical properties :
#
#
# Convention : Reuss Voigt Hill
#
# Bulk Modulus (GPa) = 63.87827 69.92714 66.90270
# Shear Modulus (GPa) = -237.65714 37.45747 -100.09983
#
# Velocity S-wave (km/s) = -11.37085 4.51426 -7.37963
# Velocity P-wave (km/s) = 11.73211 8.07558 6.01778
#
# Compressibility (1/GPa) = 0.01565478
#
# Stress axis : x y z
#
# Youngs Moduli (GPa) = 124.99660 59.31798 85.66419
#
# Poissons Ratio (x) = 0.11390 0.24194
# Poissons Ratio (y) = 0.24002 0.48779
# Poissons Ratio (z) = 0.35302 0.33777
#
# Static dielectric constant tensor:
#      x y z
#    x 1.640680 0.000000 0.000000 
#    y 0.000000 1.663210 0.000000 
#    z 0.000000 0.000000 1.613230 
# 
# From -- ./inp_files/37034.got.cif
#   From: 2010.05.17/outbox.cif.g08.bks.cpg/sg67_19_cif.got.tgz:37034.got - 2010.06.03 18:28:57.
