data_PCOD9503885
_publ_section_title
;
Structure prediction by ZEFSAII (Michael W. Deem and Ramdas Pophale) SiO2 
 PCOD9503885
Probable space group: C M M A
;
_chemical_formula_sum "Si O2"
_cell_formula_units_Z 64
_cell_length_a 10.028379
_cell_length_b 30.351335
_cell_length_c 10.950234
_cell_angle_alpha 90.000000
_cell_angle_beta 90.000000
_cell_angle_gamma 90.000000
_cell_volume 3332.974085
_symmetry_space_group_name_H-M "C M M A"
_symmetry_group_IT_number 67
_symmetry_cell_setting 'orthorhombic'
loop_
_space_group_symop_operation_xyz
x,y,z
-x,1/2-y,z
x,-y,-z
-x,1/2+y,-z
-x,-y,-z
x,1/2+y,-z
-x,y,z
x,1/2-y,z
1/2+x,1/2+y,z
1/2-x,-y,z
1/2+x,1/2-y,-z
1/2-x,y,-z
1/2-x,1/2-y,-z
1/2+x,y,-z
1/2-x,1/2+y,z
1/2+x,-y,z
loop_
_atom_site_type_symbol
_atom_site_label
_atom_site_fract_x
_atom_site_fract_y
_atom_site_fract_z
Si Si1 0.344100 0.088992 0.389466
Si Si2 0.857468 0.963335 0.146157
Si Si3 0.345668 0.750000 0.381191
Si Si4 0.750000 0.616860 0.000000
Si Si5 0.655657 0.157012 0.749497
O O1 0.500000 0.099113 0.420285
O O2 0.250000 0.074791 0.500000
O O3 0.345709 0.052195 0.285392
O O4 0.263038 0.129606 0.329215
O O5 0.845467 0.918415 0.068104
O O6 0.000000 0.984263 0.127454
O O7 0.750000 0.000000 0.121874
O O8 0.500000 0.750000 0.424349
O O9 0.250000 0.750000 0.500000
O O10 0.328114 0.707039 0.296030
O O11 0.686188 0.646017 0.108168
O O12 0.500000 0.144308 0.726398
#
# Coordination Sequence:
#
# PCOD9503885 Si02
#       5
#    16  16   8   8  16
#     4  10  21  37  57  83 114 149 192 238 287 341
#     4  10  22  37  55  81 111 146 188 234 284 337
#     4  10  22  39  60  88 118 149 187 232 281 336
#     4  10  21  37  60  84 112 148 190 235 279 334
#     4  10  21  38  60  85 116 153 191 233 283 337
#
# _framework density 19.202069999999999
#
# number of rings (size 3 to 8) (size 9 to 14) (size 15 to 20)
#    0.000    2.000    0.000    2.625    0.000   12.000 
#    0.000    2.500    0.000    0.000    0.000    0.000 
#    0.000    0.000    0.000    0.000    0.000    0.000 
#
# Total GULP energy -178376.018304 kJ/mol
# GULP energy per Si atom -5574.250572 kJ/mol
# Density = 1.915836 g / cm^3
# Si number density = 19.202070 Si / 1000 Ang^3
#
#
#
# Elastic Constant Matrix: (Units=GPa)
#
#
# Indices 1 2 3 4 5 6 
#
# 1 188.7867 71.0645 74.4520 0.0000 0.0000 0.0000
# 2 71.0645 95.7046 47.2851 0.0000 0.0000 0.0000
# 3 74.4520 47.2851 143.3876 0.0000 0.0000 0.0000
# 4 0.0000 0.0000 0.0000 18.9445 0.0000 0.0000
# 5 0.0000 0.0000 0.0000 0.0000 982.5356 0.0000
# 6 0.0000 0.0000 0.0000 0.0000 0.0000 22.7359
#
#
#
# Elastic Compliance Matrix: (Units=1/GPa)
#
#
# Indices 1 2 3 4 5 6 
#
# 1 0.008122 -0.004716 -0.002662 0.000000 0.000000 0.000000
# 2 -0.004716 0.015220 -0.002571 0.000000 0.000000 0.000000
# 3 -0.002662 -0.002571 0.009204 0.000000 0.000000 0.000000
# 4 0.000000 0.000000 0.000000 0.052786 0.000000 0.000000
# 5 0.000000 0.000000 0.000000 0.000000 0.001018 0.000000
# 6 0.000000 0.000000 0.000000 0.000000 0.000000 0.043983
#
#
# Mechanical properties :
#
#
# Convention : Reuss Voigt Hill
#
# Bulk Modulus (GPa) = 79.05402 90.38692 84.72047
# Shear Modulus (GPa) = 32.37360 220.51503 126.44432
#
# Velocity S-wave (km/s) = 4.11048 10.72793 8.12356
# Velocity P-wave (km/s) = 7.98667 14.16421 11.49809
#
# Compressibility (1/GPa) = 0.01264958
#
# Stress axis : x y z
#
# Youngs Moduli (GPa) = 123.12351 65.70095 108.64662
#
# Poissons Ratio (x) = 0.30982 0.28923
# Poissons Ratio (y) = 0.58060 0.27931
# Poissons Ratio (z) = 0.32777 0.16890
#
# Static dielectric constant tensor:
#      x y z
#    x 1.683000 0.000000 0.000000 
#    y 0.000000 1.638280 0.000000 
#    z 0.000000 0.000000 1.705450 
# 
# From -- ./inp_files/15841.got.cif
#   From: 2010.05.17/outbox.cif.g08.bks.cpg/sg67_8_cif.got.tgz:15841.got - 2010.06.03 18:28:57.
