data_PCOD9503021
_publ_section_title
;
Structure prediction by ZEFSAII (Michael W. Deem and Ramdas Pophale) SiO2 
 PCOD9503021
Probable space group: C M M A
;
_chemical_formula_sum "Si O2"
_cell_formula_units_Z 108
_cell_length_a 14.230026
_cell_length_b 29.993351
_cell_length_c 11.140365
_cell_angle_alpha 90.000000
_cell_angle_beta 90.000000
_cell_angle_gamma 90.000000
_cell_volume 4754.776457
_symmetry_space_group_name_H-M "C M M A"
_symmetry_group_IT_number 67
_symmetry_cell_setting 'orthorhombic'
loop_
_space_group_symop_operation_xyz
x,y,z
-x,1/2-y,z
x,-y,-z
-x,1/2+y,-z
-x,-y,-z
x,1/2+y,-z
-x,y,z
x,1/2-y,z
1/2+x,1/2+y,z
1/2-x,-y,z
1/2+x,1/2-y,-z
1/2-x,y,-z
1/2-x,1/2-y,-z
1/2+x,y,-z
1/2-x,1/2+y,z
1/2+x,-y,z
loop_
_atom_site_type_symbol
_atom_site_label
_atom_site_fract_x
_atom_site_fract_y
_atom_site_fract_z
Si Si1 0.750000 0.500000 0.806224
Si Si2 0.886715 0.111543 0.423572
Si Si3 0.889453 0.535876 0.394216
Si Si4 0.395272 0.851289 0.780630
Si Si5 0.790202 0.593861 0.824806
Si Si6 0.613780 0.300057 0.460147
Si Si7 0.500000 0.250000 0.873753
Si Si8 0.645717 0.319939 0.965896
O O1 0.828764 0.479390 0.717848
O O2 0.789765 0.543455 0.872922
O O3 0.863379 0.082630 0.541984
O O4 0.840632 0.092724 0.304320
O O5 0.855589 0.162375 0.445801
O O6 0.000000 0.109555 0.411934
O O7 0.874659 0.500000 0.500000
O O8 0.000000 0.535868 0.365660
O O9 0.500000 0.869047 0.752221
O O10 0.315140 0.887494 0.804858
O O11 0.365754 0.818984 0.672148
O O12 0.401330 0.824233 0.904164
O O13 0.840463 0.631220 0.906265
O O14 0.500000 0.298896 0.468283
O O15 0.647065 0.250000 0.479925
O O16 0.582779 0.288795 0.883202
O O17 0.750000 0.303302 0.000000
#
# Coordination Sequence:
#
# PCOD9503021 Si02
#       8
#     8  16  16  16  16  16   4  16
#     4  12  23  38  67  90 132 180 225 275 348 394
#     4  10  21  38  59  88 136 170 207 273 330 389
#     4  10  20  35  58  93 123 170 232 278 322 392
#     4  10  21  42  68  89 125 161 216 282 323 377
#     4  11  25  41  62  97 132 170 217 276 331 418
#     4   9  19  35  59  88 120 167 212 249 316 395
#     4  12  22  44  80  98 128 182 210 290 352 392
#     4  10  24  44  68 105 130 163 230 275 335 402
#
# _framework density 22.714001
#
# number of rings (size 3 to 8) (size 9 to 14) (size 15 to 20)
#    0.000    1.778    2.222    1.333    2.074    3.556 
#    2.667    4.074    0.000    0.889    0.000    0.000 
#    0.000    0.000    0.000    0.000    0.000    0.000 
#
# Total GULP energy -301447.843344 kJ/mol
# GULP energy per Si atom -5582.367469 kJ/mol
# Density = 2.266230 g / cm^3
# Si number density = 22.714001 Si / 1000 Ang^3
#
#
#
# Elastic Constant Matrix: (Units=GPa)
#
#
# Indices 1 2 3 4 5 6 
#
# 1 104.8421 22.1617 10.7132 0.0000 0.0000 0.0000
# 2 22.1617 182.5520 15.9670 0.0000 0.0000 0.0000
# 3 10.7132 15.9670 57.1836 0.0000 0.0000 0.0000
# 4 0.0000 0.0000 0.0000 -17.3031 0.0000 0.0000
# 5 0.0000 0.0000 0.0000 0.0000 -3.3232 0.0000
# 6 0.0000 0.0000 0.0000 0.0000 0.0000 14.0405
#
#
#
# Elastic Compliance Matrix: (Units=1/GPa)
#
#
# Indices 1 2 3 4 5 6 
#
# 1 0.009923 -0.001068 -0.001561 0.000000 0.000000 0.000000
# 2 -0.001068 0.005730 -0.001400 0.000000 0.000000 0.000000
# 3 -0.001561 -0.001400 0.018171 0.000000 0.000000 0.000000
# 4 0.000000 0.000000 0.000000 -0.057793 0.000000 0.000000
# 5 0.000000 0.000000 0.000000 0.000000 -0.300912 0.000000
# 6 0.000000 0.000000 0.000000 0.000000 0.000000 0.071222
#
#
# Mechanical properties :
#
#
# Convention : Reuss Voigt Hill
#
# Bulk Modulus (GPa) = 38.81004 49.14016 43.97510
# Shear Modulus (GPa) = -21.09598 18.39855 -1.34872
#
# Velocity S-wave (km/s) = -3.05087 2.84915 -0.77141
# Velocity P-wave (km/s) = 2.17096 5.70130 4.31381
#
# Compressibility (1/GPa) = 0.02576653
#
# Stress axis : x y z
#
# Youngs Moduli (GPa) = 100.77144 174.51996 55.03325
#
# Poissons Ratio (x) = 0.18642 0.08590
# Poissons Ratio (y) = 0.10764 0.07704
# Poissons Ratio (z) = 0.15729 0.24430
#
# Static dielectric constant tensor:
#      x y z
#    x 1.875720 0.000000 0.000000 
#    y 0.000000 1.884120 0.000000 
#    z 0.000000 0.000000 1.825530 
# 
# From -- ./inp_files/18670.got.cif
#   From: 2010.05.17/outbox.cif.g08.bks.cpg/sg67_10_cif.got.tgz:18670.got - 2010.06.03 18:28:57.
