data_PCOD9503941
_publ_section_title
;
Structure prediction by ZEFSAII (Michael W. Deem and Ramdas Pophale) SiO2 
 PCOD9503941
Probable space group: C M M A
;
_chemical_formula_sum "Si O2"
_cell_formula_units_Z 48
_cell_length_a 21.991715
_cell_length_b 13.364702
_cell_length_c 6.798434
_cell_angle_alpha 90.000000
_cell_angle_beta 90.000000
_cell_angle_gamma 90.000000
_cell_volume 1998.146211
_symmetry_space_group_name_H-M "C M M A"
_symmetry_group_IT_number 67
_symmetry_cell_setting 'orthorhombic'
loop_
_space_group_symop_operation_xyz
x,y,z
-x,1/2-y,z
x,-y,-z
-x,1/2+y,-z
-x,-y,-z
x,1/2+y,-z
-x,y,z
x,1/2-y,z
1/2+x,1/2+y,z
1/2-x,-y,z
1/2+x,1/2-y,-z
1/2-x,y,-z
1/2-x,1/2-y,-z
1/2+x,y,-z
1/2-x,1/2+y,z
1/2+x,-y,z
loop_
_atom_site_type_symbol
_atom_site_label
_atom_site_fract_x
_atom_site_fract_y
_atom_site_fract_z
Si Si1 0.432435 0.909147 0.280881
Si Si2 0.817446 0.883406 0.461479
Si Si3 0.411102 0.137570 0.175586
O O1 0.500000 0.877258 0.344027
O O2 0.376308 0.861012 0.400628
O O3 0.432089 0.032342 0.277538
O O4 0.423217 0.878701 0.053616
O O5 0.750000 0.845681 0.500000
O O6 0.840594 0.862176 0.241999
O O7 0.812622 0.000000 0.500000
O O8 0.433620 0.250000 0.226500
#
# Coordination Sequence:
#
# PCOD9503941 Si02
#       3
#    16  16  16
#     4  10  22  39  59  87 122 156 196 247 297 349
#     4   9  20  39  61  85 117 157 197 241 296 354
#     4  10  21  37  60  88 119 156 197 242 294 351
#
# _framework density 24.022266999999999
#
# number of rings (size 3 to 8) (size 9 to 14) (size 15 to 20)
#    0.000    2.333    0.000    2.000    0.000   13.333 
#    0.000    8.333    0.000    0.000    0.000    0.000 
#    0.000    0.000    0.000    0.000    0.000    0.000 
#
# Total GULP energy -133630.874076 kJ/mol
# GULP energy per Si atom -5567.953086 kJ/mol
# Density = 2.396759 g / cm^3
# Si number density = 24.022267 Si / 1000 Ang^3
#
#
#
# Elastic Constant Matrix: (Units=GPa)
#
#
# Indices 1 2 3 4 5 6 
#
# 1 268.1997 30.6062 72.2293 0.0000 0.0000 0.0000
# 2 30.6062 211.8054 17.0224 0.0000 0.0000 0.0000
# 3 72.2293 17.0224 84.5533 0.0000 0.0000 0.0000
# 4 0.0000 0.0000 0.0000 -30.5357 0.0000 0.0000
# 5 0.0000 0.0000 0.0000 0.0000 19.8169 0.0000
# 6 0.0000 0.0000 0.0000 0.0000 0.0000 -118.7101
#
#
#
# Elastic Compliance Matrix: (Units=1/GPa)
#
#
# Indices 1 2 3 4 5 6 
#
# 1 0.004872 -0.000376 -0.004086 0.000000 0.000000 0.000000
# 2 -0.000376 0.004828 -0.000651 0.000000 0.000000 0.000000
# 3 -0.004086 -0.000651 0.015449 0.000000 0.000000 0.000000
# 4 0.000000 0.000000 0.000000 -0.032749 0.000000 0.000000
# 5 0.000000 0.000000 0.000000 0.000000 0.050462 0.000000
# 6 0.000000 0.000000 0.000000 0.000000 0.000000 -0.008424
#
#
# Mechanical properties :
#
#
# Convention : Reuss Voigt Hill
#
# Bulk Modulus (GPa) = 67.01254 89.36381 78.18818
# Shear Modulus (GPa) = 100.72954 3.76091 52.24523
#
# Velocity S-wave (km/s) = 6.48250 1.25259 4.66861
# Velocity P-wave (km/s) = 9.16444 6.27480 7.85366
#
# Compressibility (1/GPa) = 0.01492258
#
# Stress axis : x y z
#
# Youngs Moduli (GPa) = 205.25958 207.12859 64.73104
#
# Poissons Ratio (x) = 0.07780 0.26450
# Poissons Ratio (y) = 0.07709 0.04215
# Poissons Ratio (z) = 0.83873 0.13486
#
# Static dielectric constant tensor:
#      x y z
#    x 1.931730 0.000000 0.000000 
#    y 0.000000 1.956630 0.000000 
#    z 0.000000 0.000000 1.931170 
# 
# From -- ./inp_files/11930.got.cif
#   From: 2010.05.17/outbox.cif.g08.bks.cpg/sg67_6_cif.got.tgz:11930.got - 2010.06.03 18:28:57.
