data_PCOD9503467
_publ_section_title
;
Structure prediction by ZEFSAII (Michael W. Deem and Ramdas Pophale) SiO2 
 PCOD9503467
Probable space group: C M M A
;
_chemical_formula_sum "Si O2"
_cell_formula_units_Z 96
_cell_length_a 14.762127
_cell_length_b 15.602930
_cell_length_c 20.988178
_cell_angle_alpha 90.000000
_cell_angle_beta 90.000000
_cell_angle_gamma 90.000000
_cell_volume 4834.258129
_symmetry_space_group_name_H-M "C M M A"
_symmetry_group_IT_number 67
_symmetry_cell_setting 'orthorhombic'
loop_
_space_group_symop_operation_xyz
x,y,z
-x,1/2-y,z
x,-y,-z
-x,1/2+y,-z
-x,-y,-z
x,1/2+y,-z
-x,y,z
x,1/2-y,z
1/2+x,1/2+y,z
1/2-x,-y,z
1/2+x,1/2-y,-z
1/2-x,y,-z
1/2-x,1/2-y,-z
1/2+x,y,-z
1/2-x,1/2+y,z
1/2+x,-y,z
loop_
_atom_site_type_symbol
_atom_site_label
_atom_site_fract_x
_atom_site_fract_y
_atom_site_fract_z
Si Si1 0.753863 0.603680 0.397371
Si Si2 0.899687 0.750000 0.903796
Si Si3 0.248304 0.848039 0.747789
Si Si4 0.103461 0.395484 0.496271
Si Si5 0.392099 0.419886 0.835374
Si Si6 0.892141 0.887146 0.144278
Si Si7 0.657062 0.750000 0.960443
O O1 0.750000 0.500000 0.394949
O O2 0.764646 0.637318 0.326405
O O3 0.837108 0.630865 0.442626
O O4 0.661583 0.629857 0.434048
O O5 0.860350 0.839804 0.879011
O O6 0.000000 0.750000 0.875233
O O7 0.907805 0.750000 0.979171
O O8 0.218132 0.750000 0.757519
O O9 0.168629 0.910120 0.772611
O O10 0.335708 0.863191 0.792459
O O11 0.101989 0.500000 0.500000
O O12 0.000000 0.365579 0.495894
O O13 0.500000 0.415767 0.822366
O O14 0.376524 0.511912 0.866875
O O15 0.857802 0.830605 0.085492
O O16 0.000000 0.872320 0.152439
O O17 0.750000 0.750000 0.000000
#
# Coordination Sequence:
#
# PCOD9503467 Si02
#       7
#    16   8  16  16  16  16   8
#     4   9  18  32  53  83 113 148 202 256 300 367
#     4  10  20  38  62  88 120 154 196 247 305 363
#     4  12  23  38  60  86 124 166 208 257 317 371
#     4   8  15  31  54  79 112 151 193 249 310 363
#     4  10  22  41  65  91 124 166 211 263 313 368
#     4  11  24  43  65  91 127 167 212 260 309 370
#     4  12  24  40  64  92 124 164 201 249 309 366
#
# _framework density 19.858269
#
# number of rings (size 3 to 8) (size 9 to 14) (size 15 to 20)
#    0.000    1.833    1.667    4.250    0.000    2.000 
#    0.000    8.333    0.000    1.000    0.000    0.000 
#    0.000    0.000    0.000    0.000    0.000    0.000 
#
# Total GULP energy -267828.330851 kJ/mol
# GULP energy per Si atom -5579.756893 kJ/mol
# Density = 1.981307 g / cm^3
# Si number density = 19.858269 Si / 1000 Ang^3
#
#
#
# Elastic Constant Matrix: (Units=GPa)
#
#
# Indices 1 2 3 4 5 6 
#
# 1 134.5079 34.1002 62.6395 0.0000 0.0000 0.0000
# 2 34.1002 95.4523 48.8441 0.0000 0.0000 0.0000
# 3 62.6395 48.8441 163.8913 0.0000 0.0000 0.0000
# 4 0.0000 0.0000 0.0000 31.1735 0.0000 0.0000
# 5 0.0000 0.0000 0.0000 0.0000 13.8793 0.0000
# 6 0.0000 0.0000 0.0000 0.0000 0.0000 9.3978
#
#
#
# Elastic Compliance Matrix: (Units=1/GPa)
#
#
# Indices 1 2 3 4 5 6 
#
# 1 0.009292 -0.001773 -0.003023 0.000000 0.000000 0.000000
# 2 -0.001773 0.012700 -0.003107 0.000000 0.000000 0.000000
# 3 -0.003023 -0.003107 0.008183 0.000000 0.000000 0.000000
# 4 0.000000 0.000000 0.000000 0.032079 0.000000 0.000000
# 5 0.000000 0.000000 0.000000 0.000000 0.072050 0.000000
# 6 0.000000 0.000000 0.000000 0.000000 0.000000 0.106408
#
#
# Mechanical properties :
#
#
# Convention : Reuss Voigt Hill
#
# Bulk Modulus (GPa) = 69.59613 76.11323 72.85468
# Shear Modulus (GPa) = 19.13460 27.44128 23.28794
#
# Velocity S-wave (km/s) = 3.10749 3.72137 3.42820
# Velocity P-wave (km/s) = 6.92805 7.54163 7.24134
#
# Compressibility (1/GPa) = 0.01436862
#
# Stress axis : x y z
#
# Youngs Moduli (GPa) = 107.62317 78.74155 122.20302
#
# Poissons Ratio (x) = 0.13957 0.36942
# Poissons Ratio (y) = 0.19076 0.37974
# Poissons Ratio (z) = 0.32535 0.24468
#
# Static dielectric constant tensor:
#      x y z
#    x -3.747200 0.000000 0.000000 
#    y 0.000000 1.741620 0.000000 
#    z 0.000000 0.000000 1.654670 
# 
# From -- ./inp_files/38549.got.cif
#   From: 2010.05.17/outbox.cif.g08.bks.cpg/sg67_20_cif.got.tgz:38549.got - 2010.06.03 18:28:57.
