data_PCOD9503962
_publ_section_title
;
Structure prediction by ZEFSAII (Michael W. Deem and Ramdas Pophale) SiO2 
 PCOD9503962
Probable space group: C M M A
;
_chemical_formula_sum "Si O2"
_cell_formula_units_Z 96
_cell_length_a 18.606221
_cell_length_b 24.759254
_cell_length_c 9.181357
_cell_angle_alpha 90.000000
_cell_angle_beta 90.000000
_cell_angle_gamma 90.000000
_cell_volume 4229.632210
_symmetry_space_group_name_H-M "C M M A"
_symmetry_group_IT_number 67
_symmetry_cell_setting 'orthorhombic'
loop_
_space_group_symop_operation_xyz
x,y,z
-x,1/2-y,z
x,-y,-z
-x,1/2+y,-z
-x,-y,-z
x,1/2+y,-z
-x,y,z
x,1/2-y,z
1/2+x,1/2+y,z
1/2-x,-y,z
1/2+x,1/2-y,-z
1/2-x,y,-z
1/2-x,1/2-y,-z
1/2+x,y,-z
1/2-x,1/2+y,z
1/2+x,-y,z
loop_
_atom_site_type_symbol
_atom_site_label
_atom_site_fract_x
_atom_site_fract_y
_atom_site_fract_z
Si Si1 0.917755 0.814774 0.678430
Si Si2 0.578518 0.485748 0.671243
Si Si3 0.585868 0.091966 0.133163
Si Si4 0.413182 0.188757 0.354963
Si Si5 0.191313 0.134380 0.100605
Si Si6 0.775307 0.562017 0.658934
O O1 0.922193 0.750000 0.671515
O O2 0.891112 0.830755 0.516212
O O3 0.861665 0.829968 0.802615
O O4 0.000000 0.834559 0.703220
O O5 0.576233 0.500000 0.500000
O O6 0.500000 0.467054 0.717230
O O7 0.596528 0.538459 0.767672
O O8 0.638995 0.441234 0.676428
O O9 0.500000 0.092650 0.095193
O O10 0.601063 0.144683 0.232265
O O11 0.638133 0.096368 0.995207
O O12 0.500000 0.192058 0.364221
O O13 0.386579 0.250000 0.325933
O O14 0.242828 0.099816 0.207961
O O15 0.250000 0.163990 0.000000
O O16 0.750000 0.500000 0.673563
O O17 0.750000 0.579939 0.500000
#
# Coordination Sequence:
#
# PCOD9503962 Si02
#       6
#    16  16  16  16  16  16
#     4   9  20  41  67  94 124 162 210 261 319 384
#     4  10  21  37  62  93 117 154 210 269 319 369
#     4  10  22  40  62  93 128 159 204 261 323 385
#     4   8  16  34  64  95 119 152 200 252 304 372
#     4  12  27  39  60  92 129 170 210 259 318 379
#     4  11  24  44  65  85 120 171 219 261 312 379
#
# _framework density 22.697009000000001
#
# number of rings (size 3 to 8) (size 9 to 14) (size 15 to 20)
#    0.000    2.000    1.667    2.500    2.333    4.667 
#    0.000    3.333    0.000    2.500    0.000    0.000 
#    0.000    0.000    0.000    0.000    0.000    0.000 
#
# Total GULP energy -268128.651142 kJ/mol
# GULP energy per Si atom -5586.013565 kJ/mol
# Density = 2.264535 g / cm^3
# Si number density = 22.697009 Si / 1000 Ang^3
#
#
#
# Elastic Constant Matrix: (Units=GPa)
#
#
# Indices 1 2 3 4 5 6 
#
# 1 94.9160 19.5031 45.1619 0.0000 0.0000 0.0000
# 2 19.5031 65.1574 34.7745 0.0000 0.0000 0.0000
# 3 45.1619 34.7745 128.9853 0.0000 0.0000 0.0000
# 4 0.0000 0.0000 0.0000 21.7502 0.0000 0.0000
# 5 0.0000 0.0000 0.0000 0.0000 43.8925 0.0000
# 6 0.0000 0.0000 0.0000 0.0000 0.0000 26.1911
#
#
#
# Elastic Compliance Matrix: (Units=1/GPa)
#
#
# Indices 1 2 3 4 5 6 
#
# 1 0.012797 -0.001681 -0.004028 0.000000 0.000000 0.000000
# 2 -0.001681 0.018148 -0.004304 0.000000 0.000000 0.000000
# 3 -0.004028 -0.004304 0.010323 0.000000 0.000000 0.000000
# 4 0.000000 0.000000 0.000000 0.045977 0.000000 0.000000
# 5 0.000000 0.000000 0.000000 0.000000 0.022783 0.000000
# 6 0.000000 0.000000 0.000000 0.000000 0.000000 0.038181
#
#
# Mechanical properties :
#
#
# Convention : Reuss Voigt Hill
#
# Bulk Modulus (GPa) = 47.07396 54.21530 50.64463
# Shear Modulus (GPa) = 28.52004 31.00804 29.76404
#
# Velocity S-wave (km/s) = 3.54864 3.70019 3.62520
# Velocity P-wave (km/s) = 6.12990 6.49566 6.31543
#
# Compressibility (1/GPa) = 0.02124317
#
# Stress axis : x y z
#
# Youngs Moduli (GPa) = 78.14089 55.10348 96.86752
#
# Poissons Ratio (x) = 0.09263 0.39014
# Poissons Ratio (y) = 0.13136 0.41692
# Poissons Ratio (z) = 0.31472 0.23717
#
# Static dielectric constant tensor:
#      x y z
#    x 1.916250 0.000000 0.000000 
#    y 0.000000 1.845830 0.000000 
#    z 0.000000 0.000000 1.873940 
# 
# From -- ./inp_files/11447.got.cif
#   From: 2010.05.17/outbox.cif.g08.bks.cpg/sg67_6_cif.got.tgz:11447.got - 2010.06.03 18:28:57.
