data_PCOD9503901
_publ_section_title
;
Structure prediction by ZEFSAII (Michael W. Deem and Ramdas Pophale) SiO2 
 PCOD9503901
Probable space group: C M M A
;
_chemical_formula_sum "Si O2"
_cell_formula_units_Z 96
_cell_length_a 14.641404
_cell_length_b 15.963230
_cell_length_c 21.580264
_cell_angle_alpha 90.000000
_cell_angle_beta 90.000000
_cell_angle_gamma 90.000000
_cell_volume 5043.827772
_symmetry_space_group_name_H-M "C M M A"
_symmetry_group_IT_number 67
_symmetry_cell_setting 'orthorhombic'
loop_
_space_group_symop_operation_xyz
x,y,z
-x,1/2-y,z
x,-y,-z
-x,1/2+y,-z
-x,-y,-z
x,1/2+y,-z
-x,y,z
x,1/2-y,z
1/2+x,1/2+y,z
1/2-x,-y,z
1/2+x,1/2-y,-z
1/2-x,y,-z
1/2-x,1/2-y,-z
1/2+x,y,-z
1/2-x,1/2+y,z
1/2+x,-y,z
loop_
_atom_site_type_symbol
_atom_site_label
_atom_site_fract_x
_atom_site_fract_y
_atom_site_fract_z
Si Si1 0.750000 0.898524 0.741056
Si Si2 0.750000 0.900361 0.400230
Si Si3 0.890833 0.154224 0.842092
Si Si4 0.602771 0.650249 0.500000
Si Si5 0.609167 0.654224 0.157908
Si Si6 0.610869 0.500000 0.929238
O O1 0.750000 0.868794 0.670102
O O2 0.662865 0.865752 0.779182
O O3 0.837135 0.865752 0.779182
O O4 0.750000 0.000000 0.742644
O O5 0.661729 0.874717 0.440056
O O6 0.838271 0.874717 0.440056
O O7 0.750000 0.000000 0.397100
O O8 0.871080 0.250000 0.861582
O O9 0.000000 0.147185 0.833236
O O10 0.862485 0.083522 0.891723
O O11 0.500000 0.615425 0.500000
O O12 0.597514 0.750000 0.500000
O O13 0.500000 0.647185 0.166764
O O14 0.628920 0.750000 0.138418
O O15 0.637515 0.583522 0.108277
O O16 0.500000 0.500000 0.930649
O O17 0.642600 0.500000 0.000000
#
# Coordination Sequence:
#
# PCOD9503901 Si02
#       6
#    16  16  16  16  16  16
#     4  11  22  38  59  82 115 154 191 238 291 340
#     4  10  22  37  58  86 112 148 192 233 280 333
#     4  10  21  37  58  84 115 152 194 240 291 346
#     4  10  21  38  59  83 116 152 185 231 284 333
#     4  10  21  37  58  84 115 152 194 240 291 346
#     4   9  18  35  59  85 116 151 189 239 292 345
#
# _framework density 19.033162999999998
#
# number of rings (size 3 to 8) (size 9 to 14) (size 15 to 20)
#    0.000    2.000    1.667    2.500    0.000    6.000 
#    0.000   11.667    0.000    2.000    0.000    0.000 
#    0.000    0.000    0.000    0.000    0.000    0.000 
#
# Total GULP energy -267982.228232 kJ/mol
# GULP energy per Si atom -5582.963088 kJ/mol
# Density = 1.898984 g / cm^3
# Si number density = 19.033163 Si / 1000 Ang^3
#
#
#
# Elastic Constant Matrix: (Units=GPa)
#
#
# Indices 1 2 3 4 5 6 
#
# 1 119.7088 40.6306 68.8061 0.0000 0.0000 0.0000
# 2 40.6306 134.4907 77.5220 0.0000 0.0000 0.0000
# 3 68.8061 77.5220 201.8550 0.0000 0.0000 0.0000
# 4 0.0000 0.0000 0.0000 -4.2254 0.0000 0.0000
# 5 0.0000 0.0000 0.0000 0.0000 12.2084 0.0000
# 6 0.0000 0.0000 0.0000 0.0000 0.0000 40.3428
#
#
#
# Elastic Compliance Matrix: (Units=1/GPa)
#
#
# Indices 1 2 3 4 5 6 
#
# 1 0.010601 -0.001438 -0.003061 0.000000 0.000000 0.000000
# 2 -0.001438 0.009745 -0.003252 0.000000 0.000000 0.000000
# 3 -0.003061 -0.003252 0.007247 0.000000 0.000000 0.000000
# 4 0.000000 0.000000 0.000000 -0.236666 0.000000 0.000000
# 5 0.000000 0.000000 0.000000 0.000000 0.081911 0.000000
# 6 0.000000 0.000000 0.000000 0.000000 0.000000 0.024788
#
#
# Mechanical properties :
#
#
# Convention : Reuss Voigt Hill
#
# Bulk Modulus (GPa) = 82.71899 92.21909 87.46904
# Shear Modulus (GPa) = -60.35539 27.60489 -16.37525
#
# Velocity S-wave (km/s) = -5.63733 3.81249 -2.93636
# Velocity P-wave (km/s) = 1.08727 8.24239 5.87874
#
# Compressibility (1/GPa) = 0.01208912
#
# Stress axis : x y z
#
# Youngs Moduli (GPa) = 94.32789 102.62193 137.99676
#
# Poissons Ratio (x) = 0.14758 0.42246
# Poissons Ratio (y) = 0.13566 0.44879
# Poissons Ratio (z) = 0.28877 0.33374
#
# Static dielectric constant tensor:
#      x y z
#    x 1.688940 0.000000 0.000000 
#    y 0.000000 1.668060 0.000000 
#    z 0.000000 0.000000 1.637490 
# 
# From -- ./inp_files/38440.got.cif
#   From: 2010.05.17/outbox.cif.g08.bks.cpg/sg67_20_cif.got.tgz:38440.got - 2010.06.03 18:28:57.
