data_PCOD9503713
_publ_section_title
;
Structure prediction by ZEFSAII (Michael W. Deem and Ramdas Pophale) SiO2 
 PCOD9503713
Probable space group: C M M A
;
_chemical_formula_sum "Si O2"
_cell_formula_units_Z 72
_cell_length_a 25.964720
_cell_length_b 8.903475
_cell_length_c 20.331512
_cell_angle_alpha 90.000000
_cell_angle_beta 90.000000
_cell_angle_gamma 90.000000
_cell_volume 4700.162404
_symmetry_space_group_name_H-M "C M M A"
_symmetry_group_IT_number 67
_symmetry_cell_setting 'orthorhombic'
loop_
_space_group_symop_operation_xyz
x,y,z
-x,1/2-y,z
x,-y,-z
-x,1/2+y,-z
-x,-y,-z
x,1/2+y,-z
-x,y,z
x,1/2-y,z
1/2+x,1/2+y,z
1/2-x,-y,z
1/2+x,1/2-y,-z
1/2-x,y,-z
1/2-x,1/2-y,-z
1/2+x,y,-z
1/2-x,1/2+y,z
1/2+x,-y,z
loop_
_atom_site_type_symbol
_atom_site_label
_atom_site_fract_x
_atom_site_fract_y
_atom_site_fract_z
Si Si1 0.438453 0.069064 0.787692
Si Si2 0.062147 0.073009 0.066913
Si Si3 0.000000 0.430028 0.427322
Si Si4 0.304424 0.570600 0.571321
Si Si5 0.093973 0.570880 0.346130
O O1 0.500000 0.039886 0.781599
O O2 0.432261 0.250000 0.783184
O O3 0.420935 0.019202 0.860778
O O4 0.410357 0.987889 0.728145
O O5 0.071994 0.250000 0.063809
O O6 0.000000 0.053058 0.067174
O O7 0.082389 0.000000 0.000000
O O8 0.000000 0.500000 0.500000
O O9 0.049908 0.488056 0.388079
O O10 0.000000 0.250000 0.430549
O O11 0.316720 0.500000 0.500000
O O12 0.299010 0.750000 0.564307
O O13 0.250000 0.500000 0.592436
O O14 0.350836 0.539514 0.621116
O O15 0.084918 0.750000 0.348564
#
# Coordination Sequence:
#
# PCOD9503713 Si02
#       5
#    16  16   8  16  16
#     4   9  17  29  44  64  92 128 162 192 231 277
#     4   8  14  24  38  58  85 118 158 194 225 266
#     4  12  24  36  50  68  93 126 159 192 232 280
#     4  10  21  36  54  73  92 117 153 196 241 285
#     4  11  22  34  49  72  97 123 158 196 234 281
#
# _framework density 15.318619
#
# number of rings (size 3 to 8) (size 9 to 14) (size 15 to 20)
#    0.000    2.222    1.111    5.000    0.000    6.222 
#    0.000    2.222    0.000    0.000    0.000    0.000 
#    0.000    0.889    0.000    9.778    0.000    7.556 
#
# Total GULP energy -200719.100489 kJ/mol
# GULP energy per Si atom -5575.530569 kJ/mol
# Density = 1.528375 g / cm^3
# Si number density = 15.318619 Si / 1000 Ang^3
#
#
#
# Elastic Constant Matrix: (Units=GPa)
#
#
# Indices 1 2 3 4 5 6 
#
# 1 70.8770 44.1903 68.6035 0.0000 0.0000 0.0000
# 2 44.1903 59.0250 69.2040 0.0000 0.0000 0.0000
# 3 68.6035 69.2040 168.9669 0.0000 0.0000 0.0000
# 4 0.0000 0.0000 0.0000 31.2795 0.0000 0.0000
# 5 0.0000 0.0000 0.0000 0.0000 8.7991 0.0000
# 6 0.0000 0.0000 0.0000 0.0000 0.0000 18.5713
#
#
#
# Elastic Compliance Matrix: (Units=1/GPa)
#
#
# Indices 1 2 3 4 5 6 
#
# 1 0.028916 -0.015167 -0.005529 0.000000 0.000000 0.000000
# 2 -0.015167 0.040548 -0.010450 0.000000 0.000000 0.000000
# 3 -0.005529 -0.010450 0.012443 0.000000 0.000000 0.000000
# 4 0.000000 0.000000 0.000000 0.031970 0.000000 0.000000
# 5 0.000000 0.000000 0.000000 0.000000 0.113648 0.000000
# 6 0.000000 0.000000 0.000000 0.000000 0.000000 0.053847
#
#
# Mechanical properties :
#
#
# Convention : Reuss Voigt Hill
#
# Bulk Modulus (GPa) = 50.97401 73.65160 62.31281
# Shear Modulus (GPa) = 14.27750 19.52138 16.89944
#
# Velocity S-wave (km/s) = 3.05624 3.57369 3.32504
# Velocity P-wave (km/s) = 6.76773 8.07542 7.45032
#
# Compressibility (1/GPa) = 0.01961784
#
# Stress axis : x y z
#
# Youngs Moduli (GPa) = 34.58239 24.66188 80.36709
#
# Poissons Ratio (x) = 0.37404 0.44433
# Poissons Ratio (y) = 0.52450 0.83980
# Poissons Ratio (z) = 0.19120 0.25770
#
# Static dielectric constant tensor:
#      x y z
#    x 1.483850 0.000000 0.000000 
#    y 0.000000 1.513380 0.000000 
#    z 0.000000 0.000000 1.530140 
# 
# From -- ./inp_files/36834.got.cif
#   From: 2010.05.17/outbox.cif.g08.bks.cpg/sg67_19_cif.got.tgz:36834.got - 2010.06.03 18:28:57.
