data_PCOD9503882
_publ_section_title
;
Structure prediction by ZEFSAII (Michael W. Deem and Ramdas Pophale) SiO2 
 PCOD9503882
Probable space group: C M M A
;
_chemical_formula_sum "Si O2"
_cell_formula_units_Z 116
_cell_length_a 26.319420
_cell_length_b 9.799928
_cell_length_c 25.798251
_cell_angle_alpha 90.000000
_cell_angle_beta 90.000000
_cell_angle_gamma 90.000000
_cell_volume 6654.102145
_symmetry_space_group_name_H-M "C M M A"
_symmetry_group_IT_number 67
_symmetry_cell_setting 'orthorhombic'
loop_
_space_group_symop_operation_xyz
x,y,z
-x,1/2-y,z
x,-y,-z
-x,1/2+y,-z
-x,-y,-z
x,1/2+y,-z
-x,y,z
x,1/2-y,z
1/2+x,1/2+y,z
1/2-x,-y,z
1/2+x,1/2-y,-z
1/2-x,y,-z
1/2-x,1/2-y,-z
1/2+x,y,-z
1/2-x,1/2+y,z
1/2+x,-y,z
loop_
_atom_site_type_symbol
_atom_site_label
_atom_site_fract_x
_atom_site_fract_y
_atom_site_fract_z
Si Si1 0.408458 0.477500 0.841725
Si Si2 0.093338 0.090214 0.353800
Si Si3 0.000000 0.750000 0.835710
Si Si4 0.205119 0.593928 0.684099
Si Si5 0.061221 0.408533 0.548735
Si Si6 0.438939 0.091705 0.048697
Si Si7 0.060493 0.101525 0.737127
Si Si8 0.702723 0.592163 0.194565
O O1 0.454289 0.367907 0.836523
O O2 0.414299 0.545519 0.897709
O O3 0.416810 0.579928 0.793826
O O4 0.351120 0.423330 0.834124
O O5 0.078012 0.250000 0.359150
O O6 0.154057 0.084473 0.348692
O O7 0.074907 0.993736 0.400000
O O8 0.073704 0.023482 0.300456
O O9 0.222356 0.750000 0.684168
O O10 0.250000 0.500000 0.664683
O O11 0.193629 0.557607 0.744341
O O12 0.079091 0.500000 0.500000
O O13 0.079207 0.250000 0.548603
O O14 0.000000 0.402126 0.545985
O O15 0.500000 0.074856 0.054621
O O16 0.428926 0.250000 0.037888
O O17 0.423021 0.000000 0.000000
O O18 0.076960 0.250000 0.715544
O O19 0.000000 0.103554 0.741826
O O20 0.718161 0.750000 0.191941
O O21 0.750000 0.500000 0.176450
#
# Coordination Sequence:
#
# PCOD9503882 Si02
#       8
#    16  16   4  16  16  16  16  16
#     4  12  22  37  59  85 121 154 197 240 304 358
#     4  11  22  35  55  82 112 147 187 231 282 342
#     4  12  24  32  64  92 118 162 192 246 310 366
#     4   9  19  35  53  77 109 144 188 234 280 333
#     4  10  21  38  58  81 112 148 191 233 277 334
#     4  10  22  37  57  83 116 153 197 245 299 362
#     4  11  23  35  50  77 116 152 186 231 288 349
#     4  10  21  37  57  82 115 156 203 243 286 349
#
# _framework density 17.432856000000001
#
# number of rings (size 3 to 8) (size 9 to 14) (size 15 to 20)
#    0.000    1.517    3.448    1.655    1.931    6.069 
#    0.000    0.000    0.000    0.828    0.000    4.828 
#    0.000    0.000    0.000    0.000    0.000    0.000 
#
# Total GULP energy -322955.628242 kJ/mol
# GULP energy per Si atom -5568.200487 kJ/mol
# Density = 1.739318 g / cm^3
# Si number density = 17.432856 Si / 1000 Ang^3
#
#
#
# Elastic Constant Matrix: (Units=GPa)
#
#
# Indices 1 2 3 4 5 6 
#
# 1 73.8302 40.0039 6.4716 0.0000 0.0000 0.0000
# 2 40.0039 122.1676 46.1527 0.0000 0.0000 0.0000
# 3 6.4716 46.1527 86.0781 0.0000 0.0000 0.0000
# 4 0.0000 0.0000 0.0000 63.4456 0.0000 0.0000
# 5 0.0000 0.0000 0.0000 0.0000 66.9994 0.0000
# 6 0.0000 0.0000 0.0000 0.0000 0.0000 22.9206
#
#
#
# Elastic Compliance Matrix: (Units=1/GPa)
#
#
# Indices 1 2 3 4 5 6 
#
# 1 0.016766 -0.006288 0.002111 0.000000 0.000000 0.000000
# 2 -0.006288 0.012623 -0.006295 0.000000 0.000000 0.000000
# 3 0.002111 -0.006295 0.014834 0.000000 0.000000 0.000000
# 4 0.000000 0.000000 0.000000 0.015762 0.000000 0.000000
# 5 0.000000 0.000000 0.000000 0.000000 0.014926 0.000000
# 6 0.000000 0.000000 0.000000 0.000000 0.000000 0.043629
#
#
# Mechanical properties :
#
#
# Convention : Reuss Voigt Hill
#
# Bulk Modulus (GPa) = 42.95749 51.92583 47.44166
# Shear Modulus (GPa) = 33.95761 43.30297 38.63029
#
# Velocity S-wave (km/s) = 4.41830 4.98937 4.71249
# Velocity P-wave (km/s) = 7.12206 7.93993 7.54209
#
# Compressibility (1/GPa) = 0.02327883
#
# Stress axis : x y z
#
# Youngs Moduli (GPa) = 59.64313 79.22350 67.41298
#
# Poissons Ratio (x) = 0.49812 -0.14229
# Poissons Ratio (y) = 0.37501 0.42437
# Poissons Ratio (z) = -0.12589 0.49872
#
# Static dielectric constant tensor:
#      x y z
#    x 1.578150 0.000000 0.000000 
#    y 0.000000 1.618070 0.000000 
#    z 0.000000 0.000000 1.588610 
# 
# From -- ./inp_files/42839.got.cif
#   From: 2010.05.17/outbox.cif.g08.bks.cpg/sg67_22_cif.got.tgz:42839.got - 2010.06.03 18:28:57.
