data_PCOD9503847
_publ_section_title
;
Structure prediction by ZEFSAII (Michael W. Deem and Ramdas Pophale) SiO2 
 PCOD9503847
Probable space group: C M M A
;
_chemical_formula_sum "Si O2"
_cell_formula_units_Z 116
_cell_length_a 22.630691
_cell_length_b 14.202293
_cell_length_c 19.937358
_cell_angle_alpha 90.000000
_cell_angle_beta 90.000000
_cell_angle_gamma 90.000000
_cell_volume 6408.020466
_symmetry_space_group_name_H-M "C M M A"
_symmetry_group_IT_number 67
_symmetry_cell_setting 'orthorhombic'
loop_
_space_group_symop_operation_xyz
x,y,z
-x,1/2-y,z
x,-y,-z
-x,1/2+y,-z
-x,-y,-z
x,1/2+y,-z
-x,y,z
x,1/2-y,z
1/2+x,1/2+y,z
1/2-x,-y,z
1/2+x,1/2-y,-z
1/2-x,y,-z
1/2-x,1/2-y,-z
1/2+x,y,-z
1/2-x,1/2+y,z
1/2+x,-y,z
loop_
_atom_site_type_symbol
_atom_site_label
_atom_site_fract_x
_atom_site_fract_y
_atom_site_fract_z
Si Si1 0.935040 0.553955 0.931709
Si Si2 0.371207 0.137117 0.426647
Si Si3 0.850175 0.519917 0.807610
Si Si4 0.432478 0.495940 0.321418
Si Si5 0.887493 0.362643 0.423653
Si Si6 0.500000 0.250000 0.945365
Si Si7 0.260664 0.638488 0.771563
Si Si8 0.244567 0.862882 0.614419
O O1 0.887944 0.535190 0.874137
O O2 0.949264 0.664585 0.943378
O O3 0.000000 0.514264 0.910733
O O4 0.918777 0.500000 0.000000
O O5 0.372918 0.250000 0.418229
O O6 0.399077 0.114498 0.498708
O O7 0.301980 0.108384 0.427397
O O8 0.403621 0.087419 0.365321
O O9 0.893723 0.517162 0.743881
O O10 0.802070 0.602746 0.799182
O O11 0.812077 0.423611 0.804745
O O12 0.500000 0.475216 0.303870
O O13 0.428575 0.584956 0.371311
O O14 0.890814 0.250000 0.416051
O O15 0.820336 0.395036 0.406483
O O16 0.268834 0.750000 0.779038
O O17 0.258368 0.615266 0.691937
O O18 0.241491 0.750000 0.608235
#
# Coordination Sequence:
#
# PCOD9503847 Si02
#       8
#    16  16  16  16  16   4  16  16
#     4   9  20  41  67  98 131 164 206 243 283 336
#     4  10  21  37  58  76 107 145 195 251 308 365
#     4  11  22  39  62  91 122 157 195 247 299 358
#     4  12  25  38  53  78 112 151 197 240 297 360
#     4  10  21  37  55  81 106 143 190 253 311 360
#     4   8  18  40  72 102 126 168 204 244 292 324
#     4  10  21  37  60  88 122 157 195 245 309 365
#     4   9  16  33  57  81 106 139 189 248 303 359
#
# _framework density 18.102314
#
# number of rings (size 3 to 8) (size 9 to 14) (size 15 to 20)
#    0.414    1.517    2.759    1.241    0.966    3.862 
#    1.241    4.138    0.000    1.655    0.000    0.000 
#    0.000    0.000    0.000    0.000    0.000    0.000 
#
# Total GULP energy -323045.780815 kJ/mol
# GULP energy per Si atom -5569.754842 kJ/mol
# Density = 1.806111 g / cm^3
# Si number density = 18.102314 Si / 1000 Ang^3
#
#
#
# Elastic Constant Matrix: (Units=GPa)
#
#
# Indices 1 2 3 4 5 6 
#
# 1 76.2796 8.5846 40.6350 0.0000 0.0000 0.0000
# 2 8.5846 95.9356 35.2211 0.0000 0.0000 0.0000
# 3 40.6350 35.2211 97.3103 0.0000 0.0000 0.0000
# 4 0.0000 0.0000 0.0000 12.2367 0.0000 0.0000
# 5 0.0000 0.0000 0.0000 0.0000 15.1584 0.0000
# 6 0.0000 0.0000 0.0000 0.0000 0.0000 25.3688
#
#
#
# Elastic Compliance Matrix: (Units=1/GPa)
#
#
# Indices 1 2 3 4 5 6 
#
# 1 0.016989 0.001251 -0.007547 0.000000 0.000000 0.000000
# 2 0.001251 0.012113 -0.004906 0.000000 0.000000 0.000000
# 3 -0.007547 -0.004906 0.015204 0.000000 0.000000 0.000000
# 4 0.000000 0.000000 0.000000 0.081722 0.000000 0.000000
# 5 0.000000 0.000000 0.000000 0.000000 0.065970 0.000000
# 6 0.000000 0.000000 0.000000 0.000000 0.000000 0.039419
#
#
# Mechanical properties :
#
#
# Convention : Reuss Voigt Hill
#
# Bulk Modulus (GPa) = 45.66174 48.71190 47.18682
# Shear Modulus (GPa) = 19.14810 22.89175 21.01992
#
# Velocity S-wave (km/s) = 3.25587 3.55995 3.41130
# Velocity P-wave (km/s) = 6.27800 6.62308 6.45285
#
# Compressibility (1/GPa) = 0.02190017
#
# Stress axis : x y z
#
# Youngs Moduli (GPa) = 58.86044 82.55531 65.77298
#
# Poissons Ratio (x) = -0.10324 0.49639
# Poissons Ratio (y) = -0.07361 0.32271
# Poissons Ratio (z) = 0.44422 0.40506
#
# Static dielectric constant tensor:
#      x y z
#    x 1.641310 0.000000 0.000000 
#    y 0.000000 1.651220 0.000000 
#    z 0.000000 0.000000 1.604120 
# 
# From -- ./inp_files/35533.got.cif
#   From: 2010.05.17/outbox.cif.g08.bks.cpg/sg67_18_cif.got.tgz:35533.got - 2010.06.03 18:28:57.
