data_PCOD9503577
_publ_section_title
;
Structure prediction by ZEFSAII (Michael W. Deem and Ramdas Pophale) SiO2 
 PCOD9503577
Probable space group: C M M A
;
_chemical_formula_sum "Si O2"
_cell_formula_units_Z 56
_cell_length_a 14.395242
_cell_length_b 31.245585
_cell_length_c 4.801663
_cell_angle_alpha 90.000000
_cell_angle_beta 90.000000
_cell_angle_gamma 90.000000
_cell_volume 2159.729233
_symmetry_space_group_name_H-M "C M M A"
_symmetry_group_IT_number 67
_symmetry_cell_setting 'orthorhombic'
loop_
_space_group_symop_operation_xyz
x,y,z
-x,1/2-y,z
x,-y,-z
-x,1/2+y,-z
-x,-y,-z
x,1/2+y,-z
-x,y,z
x,1/2-y,z
1/2+x,1/2+y,z
1/2-x,-y,z
1/2+x,1/2-y,-z
1/2-x,y,-z
1/2-x,1/2-y,-z
1/2+x,y,-z
1/2-x,1/2+y,z
1/2+x,-y,z
loop_
_atom_site_type_symbol
_atom_site_label
_atom_site_fract_x
_atom_site_fract_y
_atom_site_fract_z
Si Si1 0.250000 0.500000 0.500000
Si Si2 0.351981 0.294587 0.886797
Si Si3 0.000000 0.250000 0.796924
Si Si4 0.390640 0.885103 0.355820
Si Si5 0.112158 0.559159 0.142908
O O1 0.177727 0.524969 0.293428
O O2 0.376787 0.250000 0.720150
O O3 0.420750 0.287631 0.144969
O O4 0.358456 0.338373 0.724471
O O5 0.250000 0.292382 0.000000
O O6 0.500000 0.884571 0.303673
O O7 0.374745 0.898138 0.671319
O O8 0.357955 0.924658 0.161774
O O9 0.000000 0.547775 0.150266
#
# Coordination Sequence:
#
# PCOD9503577 Si02
#       5
#     4  16   4  16  16
#     4  12  26  46  64  96 114 166 190 270 304 384
#     4   9  17  30  57  87 125 161 205 245 290 351
#     4   8  14  32  52  88 120 176 186 262 276 360
#     4  10  20  42  62  92 124 164 201 250 301 358
#     4  10  25  41  66  89 124 157 203 252 307 371
#
# _framework density 25.929179000000001
#
# number of rings (size 3 to 8) (size 9 to 14) (size 15 to 20)
#    0.857    1.429    1.429    0.429    4.000    2.286 
#    0.000    5.714    0.000   10.286    0.000    0.000 
#    0.000    0.000    0.000    0.000    0.000    0.000 
#
# Total GULP energy -155957.357500 kJ/mol
# GULP energy per Si atom -5569.905625 kJ/mol
# Density = 2.587016 g / cm^3
# Si number density = 25.929179 Si / 1000 Ang^3
#
#
#
# Elastic Constant Matrix: (Units=GPa)
#
#
# Indices 1 2 3 4 5 6 
#
# 1 39.6930 10.5302 27.0984 0.0000 0.0000 0.0000
# 2 10.5302 134.3968 17.4157 0.0000 0.0000 0.0000
# 3 27.0984 17.4157 78.3326 0.0000 0.0000 0.0000
# 4 0.0000 0.0000 0.0000 29.4274 0.0000 0.0000
# 5 0.0000 0.0000 0.0000 0.0000 5.1673 0.0000
# 6 0.0000 0.0000 0.0000 0.0000 0.0000 46.1977
#
#
#
# Elastic Compliance Matrix: (Units=1/GPa)
#
#
# Indices 1 2 3 4 5 6 
#
# 1 0.033153 -0.001144 -0.011215 0.000000 0.000000 0.000000
# 2 -0.001144 0.007701 -0.001316 0.000000 0.000000 0.000000
# 3 -0.011215 -0.001316 0.016938 0.000000 0.000000 0.000000
# 4 0.000000 0.000000 0.000000 0.033982 0.000000 0.000000
# 5 0.000000 0.000000 0.000000 0.000000 0.193523 0.000000
# 6 0.000000 0.000000 0.000000 0.000000 0.000000 0.021646
#
#
# Mechanical properties :
#
#
# Convention : Reuss Voigt Hill
#
# Bulk Modulus (GPa) = 32.84948 40.27902 36.56425
# Shear Modulus (GPa) = 14.51627 29.31703 21.91665
#
# Velocity S-wave (km/s) = 2.36867 3.36617 2.91047
# Velocity P-wave (km/s) = 4.49190 5.53860 5.04249
#
# Compressibility (1/GPa) = 0.03044189
#
# Stress axis : x y z
#
# Youngs Moduli (GPa) = 30.16306 129.85525 59.03783
#
# Poissons Ratio (x) = 0.14860 0.66208
# Poissons Ratio (y) = 0.03452 0.07771
# Poissons Ratio (z) = 0.33827 0.17092
#
# Static dielectric constant tensor:
#      x y z
#    x 1.979630 0.000000 0.000000 
#    y 0.000000 2.174340 0.000000 
#    z 0.000000 0.000000 2.099150 
# 
# From -- ./inp_files/1427.got.cif
#   From: 2010.05.17/outbox.cif.g08.bks.cpg/sg67_1_cif.got.tgz:1427.got - 2010.06.03 18:28:57.
