data_PCOD9503157
_publ_section_title
;
Structure prediction by ZEFSAII (Michael W. Deem and Ramdas Pophale) SiO2 
 PCOD9503157
Probable space group: C M M A
;
_chemical_formula_sum "Si O2"
_cell_formula_units_Z 104
_cell_length_a 20.613673
_cell_length_b 8.323125
_cell_length_c 30.452049
_cell_angle_alpha 90.000000
_cell_angle_beta 90.000000
_cell_angle_gamma 90.000000
_cell_volume 5224.663440
_symmetry_space_group_name_H-M "C M M A"
_symmetry_group_IT_number 67
_symmetry_cell_setting 'orthorhombic'
loop_
_space_group_symop_operation_xyz
x,y,z
-x,1/2-y,z
x,-y,-z
-x,1/2+y,-z
-x,-y,-z
x,1/2+y,-z
-x,y,z
x,1/2-y,z
1/2+x,1/2+y,z
1/2-x,-y,z
1/2+x,1/2-y,-z
1/2-x,y,-z
1/2-x,1/2-y,-z
1/2+x,y,-z
1/2-x,1/2+y,z
1/2+x,-y,z
loop_
_atom_site_type_symbol
_atom_site_label
_atom_site_fract_x
_atom_site_fract_y
_atom_site_fract_z
Si Si1 0.858693 0.557567 0.450153
Si Si2 0.677274 0.442974 0.220935
Si Si3 0.075100 0.056024 0.292689
Si Si4 0.000000 0.942955 0.450070
Si Si5 0.925723 0.055814 0.951324
Si Si6 0.678372 0.056160 0.119743
Si Si7 0.682687 0.558849 0.359686
O O1 0.844999 0.500000 0.500000
O O2 0.857468 0.750000 0.451780
O O3 0.816923 0.497012 0.410049
O O4 0.930515 0.498591 0.434802
O O5 0.676342 0.250000 0.223137
O O6 0.750000 0.500000 0.233537
O O7 0.619235 0.508392 0.251055
O O8 0.667307 0.495302 0.170195
O O9 0.072358 0.250000 0.294697
O O10 0.119063 0.997865 0.333843
O O11 0.000000 0.998135 0.292289
O O12 0.000000 0.750000 0.447095
O O13 0.000000 0.000000 0.500000
O O14 0.925615 0.250000 0.950788
O O15 0.876369 0.998656 0.913969
O O16 0.000000 0.001924 0.943515
O O17 0.906507 0.000000 0.000000
O O18 0.677513 0.250000 0.119659
O O19 0.750000 0.000000 0.106469
O O20 0.681884 0.750000 0.358362
O O21 0.750000 0.500000 0.338733
#
# Coordination Sequence:
#
# PCOD9503157 Si02
#       7
#    16  16  16   8  16  16  16
#     4  10  20  36  58  86 117 149 187 228 273 324
#     4  10  20  36  60  87 115 150 189 231 282 342
#     4  10  23  42  62  87 118 149 184 231 284 336
#     4   8  16  30  50  78 110 142 174 214 260 310
#     4   9  18  33  51  72 103 144 188 234 282 332
#     4   9  19  34  53  79 110 144 183 229 280 332
#     4  11  24  41  61  84 114 151 188 227 276 330
#
# _framework density 19.905588000000002
#
# number of rings (size 3 to 8) (size 9 to 14) (size 15 to 20)
#    0.000    2.308    0.000    1.846    1.077    5.846 
#    0.000    4.615    0.000    1.846    0.000    0.000 
#    0.000    0.000    0.000    0.000    0.000    0.000 
#
# Total GULP energy -289952.069918 kJ/mol
# GULP energy per Si atom -5576.001345 kJ/mol
# Density = 1.986028 g / cm^3
# Si number density = 19.905588 Si / 1000 Ang^3
#
#
#
# Elastic Constant Matrix: (Units=GPa)
#
#
# Indices 1 2 3 4 5 6 
#
# 1 186.0611 20.7431 102.4686 0.0000 0.0000 0.0000
# 2 20.7431 17.7935 15.0344 0.0000 0.0000 0.0000
# 3 102.4686 15.0344 140.6044 0.0000 0.0000 0.0000
# 4 0.0000 0.0000 0.0000 20.9016 0.0000 0.0000
# 5 0.0000 0.0000 0.0000 0.0000 36.9433 0.0000
# 6 0.0000 0.0000 0.0000 0.0000 0.0000 27.1862
#
#
#
# Elastic Compliance Matrix: (Units=1/GPa)
#
#
# Indices 1 2 3 4 5 6 
#
# 1 0.009482 -0.005733 -0.006297 0.000000 0.000000 0.000000
# 2 -0.005733 0.065248 -0.002799 0.000000 0.000000 0.000000
# 3 -0.006297 -0.002799 0.012000 0.000000 0.000000 0.000000
# 4 0.000000 0.000000 0.000000 0.047843 0.000000 0.000000
# 5 0.000000 0.000000 0.000000 0.000000 0.027069 0.000000
# 6 0.000000 0.000000 0.000000 0.000000 0.000000 0.036783
#
#
# Mechanical properties :
#
#
# Convention : Reuss Voigt Hill
#
# Bulk Modulus (GPa) = 17.52136 68.99458 43.25797
# Shear Modulus (GPa) = 20.23414 30.75375 25.49394
#
# Velocity S-wave (km/s) = 3.19173 3.93489 3.58263
# Velocity P-wave (km/s) = 4.73330 7.44182 6.23638
#
# Compressibility (1/GPa) = 0.05707320
#
# Stress axis : x y z
#
# Youngs Moduli (GPa) = 105.46766 15.32604 83.33028
#
# Poissons Ratio (x) = 0.08786 0.52472
# Poissons Ratio (y) = 0.60463 0.23323
# Poissons Ratio (z) = 0.66412 0.04290
#
# Static dielectric constant tensor:
#      x y z
#    x 1.765790 0.000000 0.000000 
#    y 0.000000 1.681670 0.000000 
#    z 0.000000 0.000000 1.689870 
# 
# From -- ./inp_files/45896.got.cif
#   From: 2010.05.17/outbox.cif.g08.bks.cpg/sg67_23_cif.got.tgz:45896.got - 2010.06.03 18:28:57.
