data_PCOD9503966
_publ_section_title
;
Structure prediction by ZEFSAII (Michael W. Deem and Ramdas Pophale) SiO2 
 PCOD9503966
Probable space group: C M M A
;
_chemical_formula_sum "Si O2"
_cell_formula_units_Z 112
_cell_length_a 14.917877
_cell_length_b 17.788864
_cell_length_c 20.950166
_cell_angle_alpha 90.000000
_cell_angle_beta 90.000000
_cell_angle_gamma 90.000000
_cell_volume 5559.589235
_symmetry_space_group_name_H-M "C M M A"
_symmetry_group_IT_number 67
_symmetry_cell_setting 'orthorhombic'
loop_
_space_group_symop_operation_xyz
x,y,z
-x,1/2-y,z
x,-y,-z
-x,1/2+y,-z
-x,-y,-z
x,1/2+y,-z
-x,y,z
x,1/2-y,z
1/2+x,1/2+y,z
1/2-x,-y,z
1/2+x,1/2-y,-z
1/2-x,y,-z
1/2-x,1/2-y,-z
1/2+x,y,-z
1/2-x,1/2+y,z
1/2+x,-y,z
loop_
_atom_site_type_symbol
_atom_site_label
_atom_site_fract_x
_atom_site_fract_y
_atom_site_fract_z
Si Si1 0.150419 0.832223 0.901084
Si Si2 0.896405 0.582293 0.020069
Si Si3 0.777420 0.414534 0.732945
Si Si4 0.227925 0.587185 0.412928
Si Si5 0.146934 0.836154 0.148275
Si Si6 0.595509 0.659072 0.230420
Si Si7 0.606544 0.340665 0.522725
O O1 0.110080 0.750000 0.907591
O O2 0.153342 0.864527 0.970959
O O3 0.250149 0.828560 0.873796
O O4 0.099147 0.871411 0.842714
O O5 0.000000 0.585654 0.000381
O O6 0.863563 0.500000 0.000000
O O7 0.891925 0.610659 0.092620
O O8 0.750000 0.500000 0.750454
O O9 0.806675 0.410745 0.659638
O O10 0.846019 0.377483 0.783422
O O11 0.683915 0.369575 0.736191
O O12 0.250000 0.500000 0.427438
O O13 0.322621 0.631284 0.423268
O O14 0.153319 0.621892 0.460250
O O15 0.110715 0.750000 0.150722
O O16 0.500000 0.637858 0.259860
O O17 0.599920 0.750000 0.227671
O O18 0.500000 0.360391 0.530315
O O19 0.611324 0.250000 0.518507
#
# Coordination Sequence:
#
# PCOD9503966 Si02
#       7
#    16  16  16  16  16  16  16
#     4   9  18  34  55  76 100 132 174 227 290 353
#     4  11  24  36  51  78 106 139 184 236 295 347
#     4  10  22  38  57  84 117 159 199 237 291 351
#     4  10  21  38  60  89 125 164 205 248 298 354
#     4  10  22  38  57  81 108 145 190 234 286 356
#     4   9  18  33  56  83 108 140 185 241 300 350
#     4  10  21  37  62  95 126 160 202 248 299 353
#
# _framework density 20.145374
#
# number of rings (size 3 to 8) (size 9 to 14) (size 15 to 20)
#    0.000    2.143    0.000    4.286    4.000    7.429 
#    0.000    4.286    0.000    0.000    0.000    0.000 
#    0.000    0.000    0.000    0.000    0.000    0.000 
#
# Total GULP energy -311895.170696 kJ/mol
# GULP energy per Si atom -5569.556620 kJ/mol
# Density = 2.009952 g / cm^3
# Si number density = 20.145374 Si / 1000 Ang^3
#
#
#
# Elastic Constant Matrix: (Units=GPa)
#
#
# Indices 1 2 3 4 5 6 
#
# 1 63.6349 9.7009 -12.3225 0.0000 0.0000 0.0000
# 2 9.7009 93.1748 37.3327 0.0000 0.0000 0.0000
# 3 -12.3225 37.3327 109.6003 0.0000 0.0000 0.0000
# 4 0.0000 0.0000 0.0000 -505.5743 0.0000 0.0000
# 5 0.0000 0.0000 0.0000 0.0000 10.8979 0.0000
# 6 0.0000 0.0000 0.0000 0.0000 0.0000 15.1526
#
#
#
# Elastic Compliance Matrix: (Units=1/GPa)
#
#
# Indices 1 2 3 4 5 6 
#
# 1 0.016709 -0.002886 0.002862 0.000000 0.000000 0.000000
# 2 -0.002886 0.012927 -0.004728 0.000000 0.000000 0.000000
# 3 0.002862 -0.004728 0.011056 0.000000 0.000000 0.000000
# 4 0.000000 0.000000 0.000000 -0.001978 0.000000 0.000000
# 5 0.000000 0.000000 0.000000 0.000000 0.091761 0.000000
# 6 0.000000 0.000000 0.000000 0.000000 0.000000 0.065995
#
#
# Mechanical properties :
#
#
# Convention : Reuss Voigt Hill
#
# Bulk Modulus (GPa) = 32.06405 37.31467 34.68936
# Shear Modulus (GPa) = 23.10847 -80.45815 -28.67484
#
# Velocity S-wave (km/s) = 3.39054 -6.32657 -3.77688
# Velocity P-wave (km/s) = 5.59272 5.89952 1.32775
#
# Compressibility (1/GPa) = 0.03118758
#
# Stress axis : x y z
#
# Youngs Moduli (GPa) = 59.84867 77.35530 90.44653
#
# Poissons Ratio (x) = 0.22327 -0.25883
# Poissons Ratio (y) = 0.17274 0.42762
# Poissons Ratio (z) = -0.17127 0.36573
#
# Static dielectric constant tensor:
#      x y z
#    x 1.745370 0.000000 0.000000 
#    y 0.000000 2.102390 0.000000 
#    z 0.000000 0.000000 1.771500 
# 
# From -- ./inp_files/42018.got.cif
#   From: 2010.05.17/outbox.cif.g08.bks.cpg/sg67_22_cif.got.tgz:42018.got - 2010.06.03 18:28:57.
