data_PCOD9503653
_publ_section_title
;
Structure prediction by ZEFSAII (Michael W. Deem and Ramdas Pophale) SiO2 
 PCOD9503653
Probable space group: C M M A
;
_chemical_formula_sum "Si O2"
_cell_formula_units_Z 80
_cell_length_a 14.286002
_cell_length_b 9.570749
_cell_length_c 24.618931
_cell_angle_alpha 90.000000
_cell_angle_beta 90.000000
_cell_angle_gamma 90.000000
_cell_volume 3366.090781
_symmetry_space_group_name_H-M "C M M A"
_symmetry_group_IT_number 67
_symmetry_cell_setting 'orthorhombic'
loop_
_space_group_symop_operation_xyz
x,y,z
-x,1/2-y,z
x,-y,-z
-x,1/2+y,-z
-x,-y,-z
x,1/2+y,-z
-x,y,z
x,1/2-y,z
1/2+x,1/2+y,z
1/2-x,-y,z
1/2+x,1/2-y,-z
1/2-x,y,-z
1/2-x,1/2-y,-z
1/2+x,y,-z
1/2-x,1/2+y,z
1/2+x,-y,z
loop_
_atom_site_type_symbol
_atom_site_label
_atom_site_fract_x
_atom_site_fract_y
_atom_site_fract_z
Si Si1 0.885554 0.750000 0.587139
Si Si2 0.850018 0.921002 0.051837
Si Si3 0.614178 0.540902 0.629587
Si Si4 0.390729 0.404938 0.844262
Si Si5 0.614641 0.401755 0.248679
Si Si6 0.385777 0.750000 0.536991
O O1 0.855943 0.615890 0.620002
O O2 0.852935 0.750000 0.524779
O O3 0.000000 0.750000 0.585396
O O4 0.848554 0.750000 0.046758
O O5 0.750000 0.000000 0.053200
O O6 0.887849 0.977611 0.108846
O O7 0.896358 0.000000 0.000000
O O8 0.500000 0.550298 0.630286
O O9 0.644720 0.590291 0.688659
O O10 0.642199 0.621608 0.575098
O O11 0.500000 0.384757 0.834443
O O12 0.351339 0.250000 0.858982
O O13 0.352028 0.472054 0.789119
O O14 0.500000 0.406312 0.249171
O O15 0.641450 0.250000 0.225895
O O16 0.500000 0.750000 0.533536
#
# Coordination Sequence:
#
# PCOD9503653 Si02
#       6
#     8  16  16  16  16   8
#     4   9  16  20  28  44  66  96 142 195 246 294
#     4  11  22  39  62  85 112 143 177 213 255 309
#     4   9  15  22  32  46  68 102 146 196 247 298
#     4  10  21  35  53  79 109 140 179 224 265 308
#     4   9  16  27  41  58  84 120 162 206 255 307
#     4   9  14  22  30  42  64  98 142 195 244 294
#
# _framework density 23.766442000000001
#
# number of rings (size 3 to 8) (size 9 to 14) (size 15 to 20)
#    0.000    2.400    1.000    3.600    1.400    4.000 
#    0.000    0.000    0.000    0.000    0.000    0.000 
#    0.000    0.000    0.000    0.000    0.000    6.000 
#
# Total GULP energy -223129.770106 kJ/mol
# GULP energy per Si atom -5578.244253 kJ/mol
# Density = 2.371235 g / cm^3
# Si number density = 23.766442 Si / 1000 Ang^3
#
#
#
# Elastic Constant Matrix: (Units=GPa)
#
#
# Indices 1 2 3 4 5 6 
#
# 1 66.8247 -1.2465 -2.5538 0.0000 0.0000 0.0000
# 2 -1.2465 225.4115 71.4202 0.0000 0.0000 0.0000
# 3 -2.5538 71.4202 135.1163 0.0000 0.0000 0.0000
# 4 0.0000 0.0000 0.0000 33.0816 0.0000 0.0000
# 5 0.0000 0.0000 0.0000 0.0000 17.7812 0.0000
# 6 0.0000 0.0000 0.0000 0.0000 0.0000 6.4634
#
#
#
# Elastic Compliance Matrix: (Units=1/GPa)
#
#
# Indices 1 2 3 4 5 6 
#
# 1 0.014975 -0.000008 0.000287 0.000000 0.000000 0.000000
# 2 -0.000008 0.005329 -0.002817 0.000000 0.000000 0.000000
# 3 0.000287 -0.002817 0.008895 0.000000 0.000000 0.000000
# 4 0.000000 0.000000 0.000000 0.030228 0.000000 0.000000
# 5 0.000000 0.000000 0.000000 0.000000 0.056239 0.000000
# 6 0.000000 0.000000 0.000000 0.000000 0.000000 0.154718
#
#
# Mechanical properties :
#
#
# Convention : Reuss Voigt Hill
#
# Bulk Modulus (GPa) = 41.45228 62.51026 51.98127
# Shear Modulus (GPa) = 17.63659 35.44742 26.54201
#
# Velocity S-wave (km/s) = 2.72707 3.86617 3.34546
# Velocity P-wave (km/s) = 5.23405 6.80358 6.06976
#
# Compressibility (1/GPa) = 0.02412413
#
# Stress axis : x y z
#
# Youngs Moduli (GPa) = 66.77642 187.65991 112.41758
#
# Poissons Ratio (x) = 0.00155 -0.03231
# Poissons Ratio (y) = 0.00055 0.31666
# Poissons Ratio (z) = -0.01919 0.52861
#
# Static dielectric constant tensor:
#      x y z
#    x 2.099450 0.000000 0.000000 
#    y 0.000000 1.699870 0.000000 
#    z 0.000000 0.000000 1.889390 
# 
# From -- ./inp_files/42318.got.cif
#   From: 2010.05.17/outbox.cif.g08.bks.cpg/sg67_22_cif.got.tgz:42318.got - 2010.06.03 18:28:57.
