data_PCOD9503685
_publ_section_title
;
Structure prediction by ZEFSAII (Michael W. Deem and Ramdas Pophale) SiO2 
 PCOD9503685
Probable space group: C M M A
;
_chemical_formula_sum "Si O2"
_cell_formula_units_Z 88
_cell_length_a 23.039030
_cell_length_b 14.566730
_cell_length_c 11.859524
_cell_angle_alpha 90.000000
_cell_angle_beta 90.000000
_cell_angle_gamma 90.000000
_cell_volume 3980.095740
_symmetry_space_group_name_H-M "C M M A"
_symmetry_group_IT_number 67
_symmetry_cell_setting 'orthorhombic'
loop_
_space_group_symop_operation_xyz
x,y,z
-x,1/2-y,z
x,-y,-z
-x,1/2+y,-z
-x,-y,-z
x,1/2+y,-z
-x,y,z
x,1/2-y,z
1/2+x,1/2+y,z
1/2-x,-y,z
1/2+x,1/2-y,-z
1/2-x,y,-z
1/2-x,1/2-y,-z
1/2+x,y,-z
1/2-x,1/2+y,z
1/2+x,-y,z
loop_
_atom_site_type_symbol
_atom_site_label
_atom_site_fract_x
_atom_site_fract_y
_atom_site_fract_z
Si Si1 0.936354 0.352937 0.397246
Si Si2 0.352889 0.500000 0.500000
Si Si3 0.500000 0.392137 0.020960
Si Si4 0.500000 0.857281 0.711627
Si Si5 0.183939 0.512803 0.135076
Si Si6 0.365035 0.361497 0.314583
Si Si7 0.900823 0.847945 0.850012
O O1 0.920215 0.250000 0.436051
O O2 0.890765 0.428152 0.430058
O O3 0.938941 0.348776 0.262595
O O4 0.000000 0.374887 0.443030
O O5 0.329770 0.426844 0.404462
O O6 0.442704 0.357190 0.957072
O O7 0.500000 0.500000 0.000000
O O8 0.500000 0.371494 0.152822
O O9 0.500000 0.750000 0.686365
O O10 0.565475 0.887320 0.673878
O O11 0.250000 0.500000 0.172816
O O12 0.156731 0.603651 0.191750
O O13 0.143302 0.429199 0.169266
O O14 0.183337 0.500000 0.000000
O O15 0.358637 0.250000 0.325575
O O16 0.869736 0.750000 0.856865
#
# Coordination Sequence:
#
# PCOD9503685 Si02
#       7
#    16   8   8   8  16  16  16
#     4  10  21  35  57  91 129 169 214 263 318 387
#     4  12  23  38  65  90 130 178 227 259 330 384
#     4  12  22  32  60  93 134 173 211 259 327 396
#     4  10  22  37  56  92 132 168 207 253 319 389
#     4  11  25  45  69  96 127 170 221 273 333 397
#     4  11  25  44  67  98 137 174 217 273 330 392
#     4  11  21  38  62  93 128 169 214 266 324 390
#
# _framework density 22.110019999999999
#
# number of rings (size 3 to 8) (size 9 to 14) (size 15 to 20)
#    0.000    1.091    2.727    4.364    2.545    2.909 
#    0.000    2.273    0.000    1.091    0.000    0.000 
#    0.000    0.000    0.000    0.000    0.000    0.000 
#
# Total GULP energy -245373.827438 kJ/mol
# GULP energy per Si atom -5576.677896 kJ/mol
# Density = 2.205970 g / cm^3
# Si number density = 22.110020 Si / 1000 Ang^3
#
#
#
# Elastic Constant Matrix: (Units=GPa)
#
#
# Indices 1 2 3 4 5 6 
#
# 1 73.6388 27.5169 10.9259 0.0000 0.0000 0.0000
# 2 27.5169 114.5331 26.6539 0.0000 0.0000 0.0000
# 3 10.9259 26.6539 100.4279 0.0000 0.0000 0.0000
# 4 0.0000 0.0000 0.0000 29.3370 0.0000 0.0000
# 5 0.0000 0.0000 0.0000 0.0000 22.0189 0.0000
# 6 0.0000 0.0000 0.0000 0.0000 0.0000 -11.6006
#
#
#
# Elastic Compliance Matrix: (Units=1/GPa)
#
#
# Indices 1 2 3 4 5 6 
#
# 1 0.014968 -0.003429 -0.000718 0.000000 0.000000 0.000000
# 2 -0.003429 0.010091 -0.002305 0.000000 0.000000 0.000000
# 3 -0.000718 -0.002305 0.010647 0.000000 0.000000 0.000000
# 4 0.000000 0.000000 0.000000 0.034087 0.000000 0.000000
# 5 0.000000 0.000000 0.000000 0.000000 0.045415 0.000000
# 6 0.000000 0.000000 0.000000 0.000000 0.000000 -0.086202
#
#
# Mechanical properties :
#
#
# Convention : Reuss Voigt Hill
#
# Bulk Modulus (GPa) = 43.85676 46.53255 45.19465
# Shear Modulus (GPa) = 100.98678 22.85127 61.91903
#
# Velocity S-wave (km/s) = 6.76564 3.21834 5.29771
# Velocity P-wave (km/s) = 8.99503 5.90778 7.60961
#
# Compressibility (1/GPa) = 0.02280150
#
# Stress axis : x y z
#
# Youngs Moduli (GPa) = 66.81076 99.09466 93.91996
#
# Poissons Ratio (x) = 0.33978 0.06747
# Poissons Ratio (y) = 0.22908 0.21651
# Poissons Ratio (z) = 0.04799 0.22844
#
# Static dielectric constant tensor:
#      x y z
#    x 1.807110 0.000000 0.000000 
#    y 0.000000 1.800780 0.000000 
#    z 0.000000 0.000000 1.941170 
# 
# From -- ./inp_files/21811.got.cif
#   From: 2010.05.17/outbox.cif.g08.bks.cpg/sg67_11_cif.got.tgz:21811.got - 2010.06.03 18:28:57.
