data_PCOD9503008
_publ_section_title
;
Structure prediction by ZEFSAII (Michael W. Deem and Ramdas Pophale) SiO2 
 PCOD9503008
Probable space group: C M M A
;
_chemical_formula_sum "Si O2"
_cell_formula_units_Z 96
_cell_length_a 28.857405
_cell_length_b 8.842352
_cell_length_c 20.879890
_cell_angle_alpha 90.000000
_cell_angle_beta 90.000000
_cell_angle_gamma 90.000000
_cell_volume 5327.865841
_symmetry_space_group_name_H-M "C M M A"
_symmetry_group_IT_number 67
_symmetry_cell_setting 'orthorhombic'
loop_
_space_group_symop_operation_xyz
x,y,z
-x,1/2-y,z
x,-y,-z
-x,1/2+y,-z
-x,-y,-z
x,1/2+y,-z
-x,y,z
x,1/2-y,z
1/2+x,1/2+y,z
1/2-x,-y,z
1/2+x,1/2-y,-z
1/2-x,y,-z
1/2-x,1/2-y,-z
1/2+x,y,-z
1/2-x,1/2+y,z
1/2+x,-y,z
loop_
_atom_site_type_symbol
_atom_site_label
_atom_site_fract_x
_atom_site_fract_y
_atom_site_fract_z
Si Si1 0.799537 0.071403 0.108134
Si Si2 0.554495 0.430648 0.569670
Si Si3 0.106634 0.430554 0.689732
Si Si4 0.395093 0.430269 0.066407
Si Si5 0.444542 0.927092 0.188845
Si Si6 0.700505 0.071586 0.737752
O O1 0.800632 0.250000 0.093303
O O2 0.805267 0.053840 0.185208
O O3 0.750000 0.000000 0.090613
O O4 0.842334 0.986452 0.076123
O O5 0.564507 0.500000 0.500000
O O6 0.500000 0.460763 0.583666
O O7 0.560854 0.250000 0.568635
O O8 0.585621 0.504424 0.624357
O O9 0.105361 0.250000 0.689667
O O10 0.076219 0.494785 0.748399
O O11 0.158495 0.489127 0.702678
O O12 0.396853 0.250000 0.064808
O O13 0.423806 0.494105 0.126205
O O14 0.412754 0.500000 0.000000
O O15 0.500000 0.936548 0.189210
O O16 0.430856 0.750000 0.188869
O O17 0.699849 0.250000 0.724020
O O18 0.750000 0.000000 0.720957
#
# Coordination Sequence:
#
# PCOD9503008 Si02
#       6
#    16  16  16  16  16  16
#     4  10  20  36  59  85 116 149 188 236 291 349
#     4  10  21  38  60  88 124 163 202 245 294 346
#     4  12  23  36  60  91 123 158 198 240 289 345
#     4  12  25  41  61  83 113 150 192 239 294 354
#     4  11  24  42  62  85 114 149 193 244 295 346
#     4  10  20  35  58  86 120 154 192 240 291 344
#
# _framework density 18.018471999999999
#
# number of rings (size 3 to 8) (size 9 to 14) (size 15 to 20)
#    0.000    1.167    1.667    5.500    0.000    6.333 
#    0.000    1.667    0.000    0.500    0.000    3.500 
#    0.000    0.000    0.000    0.000    0.000    0.000 
#
# Total GULP energy -268538.037213 kJ/mol
# GULP energy per Si atom -5594.542442 kJ/mol
# Density = 1.797746 g / cm^3
# Si number density = 18.018472 Si / 1000 Ang^3
#
#
#
# Elastic Constant Matrix: (Units=GPa)
#
#
# Indices 1 2 3 4 5 6 
#
# 1 89.8209 67.7027 63.0221 0.0000 0.0000 0.0000
# 2 67.7027 167.8698 77.3338 0.0000 0.0000 0.0000
# 3 63.0221 77.3338 116.6493 0.0000 0.0000 0.0000
# 4 0.0000 0.0000 0.0000 32.4284 0.0000 0.0000
# 5 0.0000 0.0000 0.0000 0.0000 62.2343 0.0000
# 6 0.0000 0.0000 0.0000 0.0000 0.0000 28.9324
#
#
#
# Elastic Compliance Matrix: (Units=1/GPa)
#
#
# Indices 1 2 3 4 5 6 
#
# 1 0.019996 -0.004445 -0.007856 0.000000 0.000000 0.000000
# 2 -0.004445 0.009565 -0.003939 0.000000 0.000000 0.000000
# 3 -0.007856 -0.003939 0.015429 0.000000 0.000000 0.000000
# 4 0.000000 0.000000 0.000000 0.030837 0.000000 0.000000
# 5 0.000000 0.000000 0.000000 0.000000 0.016068 0.000000
# 6 0.000000 0.000000 0.000000 0.000000 0.000000 0.034563
#
#
# Mechanical properties :
#
#
# Convention : Reuss Voigt Hill
#
# Bulk Modulus (GPa) = 79.94982 87.82859 83.88920
# Shear Modulus (GPa) = 30.65426 35.80442 33.22934
#
# Velocity S-wave (km/s) = 4.12912 4.46252 4.29905
# Velocity P-wave (km/s) = 8.19757 8.68341 8.44398
#
# Compressibility (1/GPa) = 0.01250785
#
# Stress axis : x y z
#
# Youngs Moduli (GPa) = 50.00930 104.55273 64.81408
#
# Poissons Ratio (x) = 0.46478 0.50920
# Poissons Ratio (y) = 0.22231 0.25532
# Poissons Ratio (z) = 0.39289 0.41185
#
# Static dielectric constant tensor:
#      x y z
#    x 1.600710 0.000000 0.000000 
#    y 0.000000 1.594730 0.000000 
#    z 0.000000 0.000000 1.596750 
# 
# From -- ./inp_files/37190.got.cif
#   From: 2010.05.17/outbox.cif.g08.bks.cpg/sg67_19_cif.got.tgz:37190.got - 2010.06.03 18:28:57.
