data_PCOD9503575
_publ_section_title
;
Structure prediction by ZEFSAII (Michael W. Deem and Ramdas Pophale) SiO2 
 PCOD9503575
Probable space group: C M M A
;
_chemical_formula_sum "Si O2"
_cell_formula_units_Z 64
_cell_length_a 18.683108
_cell_length_b 14.507095
_cell_length_c 9.853003
_cell_angle_alpha 90.000000
_cell_angle_beta 90.000000
_cell_angle_gamma 90.000000
_cell_volume 2670.534509
_symmetry_space_group_name_H-M "C M M A"
_symmetry_group_IT_number 67
_symmetry_cell_setting 'orthorhombic'
loop_
_space_group_symop_operation_xyz
x,y,z
-x,1/2-y,z
x,-y,-z
-x,1/2+y,-z
-x,-y,-z
x,1/2+y,-z
-x,y,z
x,1/2-y,z
1/2+x,1/2+y,z
1/2-x,-y,z
1/2+x,1/2-y,-z
1/2-x,y,-z
1/2-x,1/2-y,-z
1/2+x,y,-z
1/2-x,1/2+y,z
1/2+x,-y,z
loop_
_atom_site_type_symbol
_atom_site_label
_atom_site_fract_x
_atom_site_fract_y
_atom_site_fract_z
Si Si1 0.917216 0.434072 0.683566
Si Si2 0.580249 0.359958 0.009844
Si Si3 0.583405 0.250000 0.490786
Si Si4 0.283794 0.250000 0.648348
Si Si5 0.810291 0.069446 0.212463
O O1 0.901299 0.342928 0.595010
O O2 0.860481 0.517206 0.676271
O O3 0.000000 0.461804 0.655486
O O4 0.913555 0.402236 0.840641
O O5 0.500000 0.381719 0.958399
O O6 0.586666 0.250000 0.021506
O O7 0.638581 0.397557 0.907354
O O8 0.500000 0.250000 0.522155
O O9 0.630702 0.250000 0.624578
O O10 0.250000 0.250000 0.500000
O O11 0.268692 0.342999 0.727080
O O12 0.750000 0.000000 0.164863
#
# Coordination Sequence:
#
# PCOD9503575 Si02
#       5
#    16  16   8   8  16
#     4  10  21  41  69 102 137 172 207 263 336 400
#     4  10  20  41  72 103 137 172 207 261 335 401
#     4  10  22  41  68  99 128 167 224 275 320 382
#     4  12  28  49  64  86 126 181 227 278 331 378
#     4  12  26  43  66  96 130 175 225 273 328 392
#
# _framework density 23.965239
#
# number of rings (size 3 to 8) (size 9 to 14) (size 15 to 20)
#    0.000    1.250    2.500    3.000    0.000    9.500 
#    0.000    3.750    0.000    0.000    0.000    0.000 
#    0.000    0.000    0.000    0.000    0.000    0.000 
#
# Total GULP energy -179443.742296 kJ/mol
# GULP energy per Si atom -5607.616947 kJ/mol
# Density = 2.391069 g / cm^3
# Si number density = 23.965239 Si / 1000 Ang^3
#
#
#
# Elastic Constant Matrix: (Units=GPa)
#
#
# Indices 1 2 3 4 5 6 
#
# 1 87.1128 40.4442 17.7365 0.0000 0.0000 0.0000
# 2 40.4442 141.2057 27.7620 0.0000 0.0000 0.0000
# 3 17.7365 27.7620 65.4528 0.0000 0.0000 0.0000
# 4 0.0000 0.0000 0.0000 19.1812 0.0000 0.0000
# 5 0.0000 0.0000 0.0000 0.0000 32.2635 0.0000
# 6 0.0000 0.0000 0.0000 0.0000 0.0000 38.8780
#
#
#
# Elastic Compliance Matrix: (Units=1/GPa)
#
#
# Indices 1 2 3 4 5 6 
#
# 1 0.013526 -0.003440 -0.002206 0.000000 0.000000 0.000000
# 2 -0.003440 0.008601 -0.002716 0.000000 0.000000 0.000000
# 3 -0.002206 -0.002716 0.017028 0.000000 0.000000 0.000000
# 4 0.000000 0.000000 0.000000 0.052134 0.000000 0.000000
# 5 0.000000 0.000000 0.000000 0.000000 0.030995 0.000000
# 6 0.000000 0.000000 0.000000 0.000000 0.000000 0.025721
#
#
# Mechanical properties :
#
#
# Convention : Reuss Voigt Hill
#
# Bulk Modulus (GPa) = 44.58249 51.73965 48.16107
# Shear Modulus (GPa) = 29.03482 31.91978 30.47730
#
# Velocity S-wave (km/s) = 3.48449 3.65351 3.57000
# Velocity P-wave (km/s) = 5.90189 6.27963 6.09369
#
# Compressibility (1/GPa) = 0.02243033
#
# Stress axis : x y z
#
# Youngs Moduli (GPa) = 73.93290 116.26239 58.72699
#
# Poissons Ratio (x) = 0.39998 0.12955
# Poissons Ratio (y) = 0.25435 0.15950
# Poissons Ratio (z) = 0.16310 0.31577
#
# Static dielectric constant tensor:
#      x y z
#    x 1.650490 0.000000 0.000000 
#    y 0.000000 1.950940 0.000000 
#    z 0.000000 0.000000 1.841450 
# 
# From -- ./inp_files/18984.got.cif
#   From: 2010.05.17/outbox.cif.g08.bks.cpg/sg67_10_cif.got.tgz:18984.got - 2010.06.03 18:28:57.
