data_PCOD9503133
_publ_section_title
;
Structure prediction by ZEFSAII (Michael W. Deem and Ramdas Pophale) SiO2 
 PCOD9503133
Probable space group: C M M A
;
_chemical_formula_sum "Si O2"
_cell_formula_units_Z 80
_cell_length_a 8.721165
_cell_length_b 19.407032
_cell_length_c 25.923782
_cell_angle_alpha 90.000000
_cell_angle_beta 90.000000
_cell_angle_gamma 90.000000
_cell_volume 4387.650091
_symmetry_space_group_name_H-M "C M M A"
_symmetry_group_IT_number 67
_symmetry_cell_setting 'orthorhombic'
loop_
_space_group_symop_operation_xyz
x,y,z
-x,1/2-y,z
x,-y,-z
-x,1/2+y,-z
-x,-y,-z
x,1/2+y,-z
-x,y,z
x,1/2-y,z
1/2+x,1/2+y,z
1/2-x,-y,z
1/2+x,1/2-y,-z
1/2-x,y,-z
1/2-x,1/2-y,-z
1/2+x,y,-z
1/2-x,1/2+y,z
1/2+x,-y,z
loop_
_atom_site_type_symbol
_atom_site_label
_atom_site_fract_x
_atom_site_fract_y
_atom_site_fract_z
Si Si1 0.315951 0.576037 0.742629
Si Si2 0.683045 0.423698 0.853638
Si Si3 0.317559 0.331810 0.055647
Si Si4 0.184537 0.169662 0.644768
Si Si5 0.317122 0.425574 0.556839
O O1 0.500000 0.571446 0.746882
O O2 0.250000 0.500000 0.731028
O O3 0.247488 0.598033 0.797692
O O4 0.276652 0.628718 0.697091
O O5 0.500000 0.426868 0.851845
O O6 0.750000 0.500000 0.863200
O O7 0.739376 0.373526 0.898491
O O8 0.500000 0.343393 0.056246
O O9 0.289608 0.250000 0.062015
O O10 0.250000 0.352183 0.000000
O O11 0.225677 0.250000 0.647950
O O12 0.264503 0.131667 0.597223
O O13 0.000000 0.164902 0.638064
O O14 0.500000 0.430085 0.554044
O O15 0.250000 0.500000 0.573173
O O16 0.250000 0.411280 0.500000
#
# Coordination Sequence:
#
# PCOD9503133 Si02
#       5
#    16  16  16  16  16
#     4  10  20  36  58  82 110 147 188 231 280 331
#     4  11  22  37  58  84 114 147 187 233 280 330
#     4  10  21  38  59  83 113 148 186 228 277 334
#     4  10  22  39  58  83 116 151 187 229 278 331
#     4  11  22  38  61  86 113 147 188 232 278 331
#
# _framework density 18.232994999999999
#
# number of rings (size 3 to 8) (size 9 to 14) (size 15 to 20)
#    0.000    1.600    0.000    7.200    0.000    6.400 
#    0.000    4.000    0.000    0.000    0.000    0.000 
#    0.000    0.000    0.000    0.000    0.000    0.000 
#
# Total GULP energy -223593.271711 kJ/mol
# GULP energy per Si atom -5589.831793 kJ/mol
# Density = 1.819150 g / cm^3
# Si number density = 18.232995 Si / 1000 Ang^3
#
#
#
# Elastic Constant Matrix: (Units=GPa)
#
#
# Indices 1 2 3 4 5 6 
#
# 1 114.2428 74.1284 81.6923 0.0000 0.0000 0.0000
# 2 74.1284 113.8133 111.2992 0.0000 0.0000 0.0000
# 3 81.6923 111.2992 144.7610 0.0000 0.0000 0.0000
# 4 0.0000 0.0000 0.0000 147.6157 0.0000 0.0000
# 5 0.0000 0.0000 0.0000 0.0000 33.3414 0.0000
# 6 0.0000 0.0000 0.0000 0.0000 0.0000 27.0312
#
#
#
# Elastic Compliance Matrix: (Units=1/GPa)
#
#
# Indices 1 2 3 4 5 6 
#
# 1 0.015722 -0.006302 -0.004027 0.000000 0.000000 0.000000
# 2 -0.006302 0.037935 -0.025610 0.000000 0.000000 0.000000
# 3 -0.004027 -0.025610 0.028871 0.000000 0.000000 0.000000
# 4 0.000000 0.000000 0.000000 0.006774 0.000000 0.000000
# 5 0.000000 0.000000 0.000000 0.000000 0.029993 0.000000
# 6 0.000000 0.000000 0.000000 0.000000 0.000000 0.036994
#
#
# Mechanical properties :
#
#
# Convention : Reuss Voigt Hill
#
# Bulk Modulus (GPa) = 93.89788 100.78408 97.34098
# Shear Modulus (GPa) = 21.57794 48.64414 35.11104
#
# Velocity S-wave (km/s) = 3.44387 5.17079 4.39303
# Velocity P-wave (km/s) = 8.21123 9.54176 8.90139
#
# Compressibility (1/GPa) = 0.01064987
#
# Stress axis : x y z
#
# Youngs Moduli (GPa) = 63.60473 26.36074 34.63679
#
# Poissons Ratio (x) = 0.16612 0.13949
# Poissons Ratio (y) = 0.40082 0.88706
# Poissons Ratio (z) = 0.25616 0.67510
#
# Static dielectric constant tensor:
#      x y z
#    x 1.610840 0.000000 0.000000 
#    y 0.000000 1.601520 0.000000 
#    z 0.000000 0.000000 1.603060 
# 
# From -- ./inp_files/43282.got.cif
#   From: 2010.05.17/outbox.cif.g08.bks.cpg/sg67_22_cif.got.tgz:43282.got - 2010.06.03 18:28:57.
