data_PCOD9503163
_publ_section_title
;
Structure prediction by ZEFSAII (Michael W. Deem and Ramdas Pophale) SiO2 
 PCOD9503163
Probable space group: C M M A
;
_chemical_formula_sum "Si O2"
_cell_formula_units_Z 88
_cell_length_a 15.347288
_cell_length_b 20.236544
_cell_length_c 14.641174
_cell_angle_alpha 90.000000
_cell_angle_beta 90.000000
_cell_angle_gamma 90.000000
_cell_volume 4547.198265
_symmetry_space_group_name_H-M "C M M A"
_symmetry_group_IT_number 67
_symmetry_cell_setting 'orthorhombic'
loop_
_space_group_symop_operation_xyz
x,y,z
-x,1/2-y,z
x,-y,-z
-x,1/2+y,-z
-x,-y,-z
x,1/2+y,-z
-x,y,z
x,1/2-y,z
1/2+x,1/2+y,z
1/2-x,-y,z
1/2+x,1/2-y,-z
1/2-x,y,-z
1/2-x,1/2-y,-z
1/2+x,y,-z
1/2-x,1/2+y,z
1/2+x,-y,z
loop_
_atom_site_type_symbol
_atom_site_label
_atom_site_fract_x
_atom_site_fract_y
_atom_site_fract_z
Si Si1 0.185683 0.938657 0.764877
Si Si2 0.750000 0.649944 0.500000
Si Si3 0.000000 0.671847 0.044470
Si Si4 0.851652 0.424861 0.030209
Si Si5 0.000000 0.826767 0.263474
Si Si6 0.402737 0.441178 0.573767
Si Si7 0.688912 0.176076 0.304281
O O1 0.139349 0.924014 0.860218
O O2 0.126371 0.957235 0.677487
O O3 0.243202 0.874326 0.740057
O O4 0.250000 0.000000 0.781212
O O5 0.669960 0.607274 0.463535
O O6 0.714300 0.683576 0.590391
O O7 0.000000 0.670826 0.154373
O O8 0.000000 0.750000 0.016753
O O9 0.084576 0.630449 0.011394
O O10 0.874257 0.500000 0.000000
O O11 0.750000 0.414021 0.000000
O O12 0.908146 0.854320 0.297551
O O13 0.000000 0.750000 0.294294
O O14 0.402467 0.500000 0.500000
O O15 0.500000 0.412921 0.576029
O O16 0.689146 0.250000 0.261602
#
# Coordination Sequence:
#
# PCOD9503163 Si02
#       7
#    16   8   8  16   8  16  16
#     4  11  22  40  64  90 126 166 210 262 313 377
#     4  10  20  36  58  86 127 160 209 258 307 370
#     4  11  25  43  65  96 132 168 216 271 328 394
#     4  11  23  43  66  96 129 170 216 268 328 389
#     4   9  20  37  59  90 118 157 209 254 302 374
#     4  10  21  37  58  89 125 168 210 254 314 372
#     4  10  21  38  62  90 125 163 208 256 314 374
#
# _framework density 19.352575999999999
#
# number of rings (size 3 to 8) (size 9 to 14) (size 15 to 20)
#    0.000    1.636    1.818    4.091    2.545    1.091 
#    1.636    0.000    0.000    2.182    0.000    0.000 
#    0.000    0.000    0.000    0.000    0.000    0.000 
#
# Total GULP energy -245398.409798 kJ/mol
# GULP energy per Si atom -5577.236586 kJ/mol
# Density = 1.930853 g / cm^3
# Si number density = 19.352576 Si / 1000 Ang^3
#
#
#
# Elastic Constant Matrix: (Units=GPa)
#
#
# Indices 1 2 3 4 5 6 
#
# 1 124.1567 49.4484 38.5074 0.0000 0.0000 0.0000
# 2 49.4484 92.8303 28.1861 0.0000 0.0000 0.0000
# 3 38.5074 28.1861 106.3892 0.0000 0.0000 0.0000
# 4 0.0000 0.0000 0.0000 20.7994 0.0000 0.0000
# 5 0.0000 0.0000 0.0000 0.0000 29.7199 0.0000
# 6 0.0000 0.0000 0.0000 0.0000 0.0000 30.5295
#
#
#
# Elastic Compliance Matrix: (Units=1/GPa)
#
#
# Indices 1 2 3 4 5 6 
#
# 1 0.010849 -0.004988 -0.002605 0.000000 0.000000 0.000000
# 2 -0.004988 0.014008 -0.001906 0.000000 0.000000 0.000000
# 3 -0.002605 -0.001906 0.010847 0.000000 0.000000 0.000000
# 4 0.000000 0.000000 0.000000 0.048078 0.000000 0.000000
# 5 0.000000 0.000000 0.000000 0.000000 0.033647 0.000000
# 6 0.000000 0.000000 0.000000 0.000000 0.000000 0.032755
#
#
# Mechanical properties :
#
#
# Convention : Reuss Voigt Hill
#
# Bulk Modulus (GPa) = 59.85802 61.73999 60.79900
# Shear Modulus (GPa) = 28.61198 30.02538 29.31868
#
# Velocity S-wave (km/s) = 3.84924 3.94317 3.89649
# Velocity P-wave (km/s) = 7.12411 7.25971 7.19223
#
# Compressibility (1/GPa) = 0.01670620
#
# Stress axis : x y z
#
# Youngs Moduli (GPa) = 92.17502 71.38803 92.18848
#
# Poissons Ratio (x) = 0.35608 0.24018
# Poissons Ratio (y) = 0.45976 0.17569
# Poissons Ratio (z) = 0.24014 0.13605
#
# Static dielectric constant tensor:
#      x y z
#    x 1.703470 0.000000 0.000000 
#    y 0.000000 1.702460 0.000000 
#    z 0.000000 0.000000 1.630100 
# 
# From -- ./inp_files/27105.got.cif
#   From: 2010.05.17/outbox.cif.g08.bks.cpg/sg67_14_cif.got.tgz:27105.got - 2010.06.03 18:28:57.
