data_PCOD9503856
_publ_section_title
;
Structure prediction by ZEFSAII (Michael W. Deem and Ramdas Pophale) SiO2 
 PCOD9503856
Probable space group: C M M A
;
_chemical_formula_sum "Si O2"
_cell_formula_units_Z 64
_cell_length_a 8.660007
_cell_length_b 26.170074
_cell_length_c 13.064299
_cell_angle_alpha 90.000000
_cell_angle_beta 90.000000
_cell_angle_gamma 90.000000
_cell_volume 2960.801589
_symmetry_space_group_name_H-M "C M M A"
_symmetry_group_IT_number 67
_symmetry_cell_setting 'orthorhombic'
loop_
_space_group_symop_operation_xyz
x,y,z
-x,1/2-y,z
x,-y,-z
-x,1/2+y,-z
-x,-y,-z
x,1/2+y,-z
-x,y,z
x,1/2-y,z
1/2+x,1/2+y,z
1/2-x,-y,z
1/2+x,1/2-y,-z
1/2-x,y,-z
1/2-x,1/2-y,-z
1/2+x,y,-z
1/2-x,1/2+y,z
1/2+x,-y,z
loop_
_atom_site_type_symbol
_atom_site_label
_atom_site_fract_x
_atom_site_fract_y
_atom_site_fract_z
Si Si1 0.685420 0.834189 0.392569
Si Si2 0.684040 0.587178 0.105975
Si Si3 0.315346 0.806375 0.825642
Si Si4 0.315307 0.552457 0.327528
O O1 0.500000 0.828584 0.387129
O O2 0.750000 0.814753 0.500000
O O3 0.761859 0.809548 0.292748
O O4 0.725005 0.894726 0.383163
O O5 0.500000 0.584565 0.103862
O O6 0.734474 0.646267 0.119025
O O7 0.739851 0.559729 0.209711
O O8 0.750000 0.566691 0.000000
O O9 0.500000 0.812666 0.831700
O O10 0.273995 0.750000 0.865323
O O11 0.500000 0.549191 0.326664
O O12 0.250000 0.500000 0.370558
#
# Coordination Sequence:
#
# PCOD9503856 Si02
#       4
#    16  16  16  16
#     4  10  21  37  56  80 109 142 180 220 265 316
#     4  10  21  37  56  80 109 142 180 220 265 316
#     4  10  21  37  57  81 108 140 178 220 268 319
#     4   9  20  36  54  78 107 140 178 220 265 314
#
# _framework density 21.615769
#
# number of rings (size 3 to 8) (size 9 to 14) (size 15 to 20)
#    0.000    2.250    0.000    3.750    0.000   10.000 
#    0.000    5.000    0.000    0.000    0.000    0.000 
#    0.000    0.000    0.000    0.000    0.000    0.000 
#
# Total GULP energy -178843.082979 kJ/mol
# GULP energy per Si atom -5588.846343 kJ/mol
# Density = 2.156657 g / cm^3
# Si number density = 21.615769 Si / 1000 Ang^3
#
#
#
# Elastic Constant Matrix: (Units=GPa)
#
#
# Indices 1 2 3 4 5 6 
#
# 1 26.1194 5.6863 3.9740 0.0000 0.0000 0.0000
# 2 5.6863 88.3857 -15.0839 0.0000 0.0000 0.0000
# 3 3.9740 -15.0839 92.8734 0.0000 0.0000 0.0000
# 4 0.0000 0.0000 0.0000 -12.1360 0.0000 0.0000
# 5 0.0000 0.0000 0.0000 0.0000 25.9709 0.0000
# 6 0.0000 0.0000 0.0000 0.0000 0.0000 23.2126
#
#
#
# Elastic Compliance Matrix: (Units=1/GPa)
#
#
# Indices 1 2 3 4 5 6 
#
# 1 0.039242 -0.002891 -0.002149 0.000000 0.000000 0.000000
# 2 -0.002891 0.011850 0.002048 0.000000 0.000000 0.000000
# 3 -0.002149 0.002048 0.011192 0.000000 0.000000 0.000000
# 4 0.000000 0.000000 0.000000 -0.082400 0.000000 0.000000
# 5 0.000000 0.000000 0.000000 0.000000 0.038505 0.000000
# 6 0.000000 0.000000 0.000000 0.000000 0.000000 0.043080
#
#
# Mechanical properties :
#
#
# Convention : Reuss Voigt Hill
#
# Bulk Modulus (GPa) = 17.76198 21.83680 19.79939
# Shear Modulus (GPa) = 57.99187 21.59632 39.79409
#
# Velocity S-wave (km/s) = 5.18524 3.16428 4.29531
# Velocity P-wave (km/s) = 6.63958 4.84504 5.81199
#
# Compressibility (1/GPa) = 0.05630003
#
# Stress axis : x y z
#
# Youngs Moduli (GPa) = 25.48285 84.39095 89.34994
#
# Poissons Ratio (x) = 0.24400 0.19199
# Poissons Ratio (y) = 0.07368 -0.18301
# Poissons Ratio (z) = 0.05476 -0.17285
#
# Static dielectric constant tensor:
#      x y z
#    x 1.719050 0.000000 0.000000 
#    y 0.000000 1.803810 0.000000 
#    z 0.000000 0.000000 1.792620 
# 
# From -- ./inp_files/23393.got.cif
#   From: 2010.05.17/outbox.cif.g08.bks.cpg/sg67_12_cif.got.tgz:23393.got - 2010.06.03 18:28:57.
