data_PCOD9503443
_publ_section_title
;
Structure prediction by ZEFSAII (Michael W. Deem and Ramdas Pophale) SiO2 
 PCOD9503443
Probable space group: C M M A
;
_chemical_formula_sum "Si O2"
_cell_formula_units_Z 96
_cell_length_a 14.836648
_cell_length_b 14.921011
_cell_length_c 20.719311
_cell_angle_alpha 90.000000
_cell_angle_beta 90.000000
_cell_angle_gamma 90.000000
_cell_volume 4586.795238
_symmetry_space_group_name_H-M "C M M A"
_symmetry_group_IT_number 67
_symmetry_cell_setting 'orthorhombic'
loop_
_space_group_symop_operation_xyz
x,y,z
-x,1/2-y,z
x,-y,-z
-x,1/2+y,-z
-x,-y,-z
x,1/2+y,-z
-x,y,z
x,1/2-y,z
1/2+x,1/2+y,z
1/2-x,-y,z
1/2+x,1/2-y,-z
1/2-x,y,-z
1/2-x,1/2-y,-z
1/2+x,y,-z
1/2-x,1/2+y,z
1/2+x,-y,z
loop_
_atom_site_type_symbol
_atom_site_label
_atom_site_fract_x
_atom_site_fract_y
_atom_site_fract_z
Si Si1 0.395621 0.057780 0.442698
Si Si2 0.894646 0.424064 0.171502
Si Si3 0.109241 0.250000 0.601514
Si Si4 0.719779 0.250000 0.677381
Si Si5 0.392287 0.250000 0.094727
Si Si6 0.283142 0.250000 0.829817
Si Si7 0.157563 0.945811 0.680121
Si Si8 0.108899 0.555276 0.060580
O O1 0.500000 0.070907 0.459400
O O2 0.362208 0.158904 0.434313
O O3 0.353206 0.000000 0.500000
O O4 0.390460 0.002899 0.375777
O O5 0.834283 0.340200 0.149081
O O6 0.885451 0.440512 0.248502
O O7 0.866394 0.509760 0.128753
O O8 0.000000 0.404440 0.158571
O O9 0.173382 0.250000 0.663787
O O10 0.000000 0.250000 0.612910
O O11 0.706159 0.250000 0.753347
O O12 0.676026 0.344216 0.655333
O O13 0.500000 0.250000 0.110997
O O14 0.322098 0.250000 0.153465
O O15 0.369721 0.340452 0.056991
O O16 0.250000 0.000000 0.689785
O O17 0.000000 0.550871 0.058637
O O18 0.144023 0.500000 0.000000
#
# Coordination Sequence:
#
# PCOD9503443 Si02
#       8
#    16  16   8   8   8   8  16  16
#     4  10  22  40  62  89 120 160 205 252 309 371
#     4  10  22  40  63  89 122 168 211 254 313 372
#     4  10  20  38  60  84 118 155 202 251 304 370
#     4  10  22  39  55  91 118 159 199 251 308 354
#     4  10  22  39  60  91 124 160 208 260 318 372
#     4  10  23  38  63  88 128 160 207 264 307 370
#     4  11  22  38  61  87 126 159 205 256 309 372
#     4   9  20  39  63  91 124 164 207 257 315 376
#
# _framework density 20.929646000000002
#
# number of rings (size 3 to 8) (size 9 to 14) (size 15 to 20)
#    0.000    2.000    1.667    0.750    4.667    2.000 
#    0.000    7.917    0.000    0.000    0.000    0.000 
#    0.000    0.000    0.000    0.000    0.000    0.000 
#
# Total GULP energy -267643.587352 kJ/mol
# GULP energy per Si atom -5575.908070 kJ/mol
# Density = 2.088201 g / cm^3
# Si number density = 20.929646 Si / 1000 Ang^3
#
#
#
# Elastic Constant Matrix: (Units=GPa)
#
#
# Indices 1 2 3 4 5 6 
#
# 1 51.6439 20.1626 -5.1062 0.0000 0.0000 0.0000
# 2 20.1626 202.2977 53.6590 0.0000 0.0000 0.0000
# 3 -5.1062 53.6590 66.9837 0.0000 0.0000 0.0000
# 4 0.0000 0.0000 0.0000 19.0806 0.0000 0.0000
# 5 0.0000 0.0000 0.0000 0.0000 -29.5044 0.0000
# 6 0.0000 0.0000 0.0000 0.0000 0.0000 23.0492
#
#
#
# Elastic Compliance Matrix: (Units=1/GPa)
#
#
# Indices 1 2 3 4 5 6 
#
# 1 0.021025 -0.003201 0.004167 0.000000 0.000000 0.000000
# 2 -0.003201 0.006764 -0.005663 0.000000 0.000000 0.000000
# 3 0.004167 -0.005663 0.019783 0.000000 0.000000 0.000000
# 4 0.000000 0.000000 0.000000 0.052409 0.000000 0.000000
# 5 0.000000 0.000000 0.000000 0.000000 -0.033893 0.000000
# 6 0.000000 0.000000 0.000000 0.000000 0.000000 0.043385
#
#
# Mechanical properties :
#
#
# Convention : Reuss Voigt Hill
#
# Bulk Modulus (GPa) = 26.19252 50.92846 38.56049
# Shear Modulus (GPa) = 37.99590 19.33906 28.66748
#
# Velocity S-wave (km/s) = 4.26539 3.04304 3.70497
# Velocity P-wave (km/s) = 6.06628 6.06076 6.06352
#
# Compressibility (1/GPa) = 0.03817884
#
# Stress axis : x y z
#
# Youngs Moduli (GPa) = 47.56251 147.83652 50.54878
#
# Poissons Ratio (x) = 0.47319 -0.21063
# Poissons Ratio (y) = 0.15224 0.28624
# Poissons Ratio (z) = -0.19818 0.83715
#
# Static dielectric constant tensor:
#      x y z
#    x 1.757560 0.000000 0.000000 
#    y 0.000000 1.798860 0.000000 
#    z 0.000000 0.000000 1.740750 
# 
# From -- ./inp_files/38569.got.cif
#   From: 2010.05.17/outbox.cif.g08.bks.cpg/sg67_20_cif.got.tgz:38569.got - 2010.06.03 18:28:57.
