data_PCOD9503785
_publ_section_title
;
Structure prediction by ZEFSAII (Michael W. Deem and Ramdas Pophale) SiO2 
 PCOD9503785
Probable space group: C M M A
;
_chemical_formula_sum "Si O2"
_cell_formula_units_Z 112
_cell_length_a 14.625318
_cell_length_b 14.047530
_cell_length_c 26.569390
_cell_angle_alpha 90.000000
_cell_angle_beta 90.000000
_cell_angle_gamma 90.000000
_cell_volume 5458.670371
_symmetry_space_group_name_H-M "C M M A"
_symmetry_group_IT_number 67
_symmetry_cell_setting 'orthorhombic'
loop_
_space_group_symop_operation_xyz
x,y,z
-x,1/2-y,z
x,-y,-z
-x,1/2+y,-z
-x,-y,-z
x,1/2+y,-z
-x,y,z
x,1/2-y,z
1/2+x,1/2+y,z
1/2-x,-y,z
1/2+x,1/2-y,-z
1/2-x,y,-z
1/2-x,1/2-y,-z
1/2+x,y,-z
1/2-x,1/2+y,z
1/2+x,-y,z
loop_
_atom_site_type_symbol
_atom_site_label
_atom_site_fract_x
_atom_site_fract_y
_atom_site_fract_z
Si Si1 0.897161 0.142600 0.325181
Si Si2 0.393929 0.856495 0.011325
Si Si3 0.139057 0.643069 0.492259
Si Si4 0.150453 0.528236 0.082452
Si Si5 0.603316 0.461584 0.191263
Si Si6 0.713326 0.639495 0.224500
Si Si7 0.359892 0.991251 0.416420
O O1 0.885851 0.250000 0.347914
O O2 0.821150 0.132507 0.282172
O O3 0.890763 0.057581 0.365115
O O4 0.000000 0.140728 0.302991
O O5 0.500000 0.854905 0.995395
O O6 0.366392 0.750000 0.025958
O O7 0.341434 0.895523 0.962488
O O8 0.387971 0.933923 0.055456
O O9 0.392853 0.750000 0.505216
O O10 0.250000 0.642723 0.500000
O O11 0.109157 0.580366 0.539449
O O12 0.113229 0.593222 0.439608
O O13 0.250000 0.500000 0.100796
O O14 0.099947 0.562563 0.131937
O O15 0.500000 0.453585 0.211896
O O16 0.643262 0.569067 0.195874
O O17 0.683143 0.398227 0.216810
O O18 0.706487 0.750000 0.209054
O O19 0.250000 0.000000 0.413520
#
# Coordination Sequence:
#
# PCOD9503785 Si02
#       7
#    16  16  16  16  16  16  16
#     4  10  21  38  60  85 116 156 202 254 310 370
#     4  10  21  36  57  86 120 161 207 250 292 353
#     4   8  14  27  46  77 118 157 196 243 296 357
#     4  11  21  38  58  85 125 162 201 247 303 366
#     4  11  23  42  68  95 126 164 204 260 322 376
#     4  10  23  43  64  91 124 161 209 262 317 377
#     4   9  17  28  52  82 112 152 201 250 303 361
#
# _framework density 20.517817000000001
#
# number of rings (size 3 to 8) (size 9 to 14) (size 15 to 20)
#    0.000    2.143    1.429    4.286    2.000    4.000 
#    0.000    1.429    0.000    1.286    0.000    0.000 
#    0.000    0.000    0.000    0.000    0.000    0.429 
#
# Total GULP energy -312220.567330 kJ/mol
# GULP energy per Si atom -5575.367274 kJ/mol
# Density = 2.047112 g / cm^3
# Si number density = 20.517817 Si / 1000 Ang^3
#
#
#
# Elastic Constant Matrix: (Units=GPa)
#
#
# Indices 1 2 3 4 5 6 
#
# 1 121.0182 15.4946 25.1171 0.0000 0.0000 0.0000
# 2 15.4946 109.6427 32.5695 0.0000 0.0000 0.0000
# 3 25.1171 32.5695 77.1956 0.0000 0.0000 0.0000
# 4 0.0000 0.0000 0.0000 12.9934 0.0000 0.0000
# 5 0.0000 0.0000 0.0000 0.0000-1283.2762 0.0000
# 6 0.0000 0.0000 0.0000 0.0000 0.0000 17.3201
#
#
#
# Elastic Compliance Matrix: (Units=1/GPa)
#
#
# Indices 1 2 3 4 5 6 
#
# 1 0.008881 -0.000454 -0.002698 0.000000 0.000000 0.000000
# 2 -0.000454 0.010451 -0.004262 0.000000 0.000000 0.000000
# 3 -0.002698 -0.004262 0.015630 0.000000 0.000000 0.000000
# 4 0.000000 0.000000 0.000000 0.076962 0.000000 0.000000
# 5 0.000000 0.000000 0.000000 0.000000 -0.000779 0.000000
# 6 0.000000 0.000000 0.000000 0.000000 0.000000 0.057736
#
#
# Mechanical properties :
#
#
# Convention : Reuss Voigt Hill
#
# Bulk Modulus (GPa) = 49.66493 50.46875 50.06684
# Shear Modulus (GPa) = 26.25774 -234.94753 -104.34490
#
# Velocity S-wave (km/s) = 3.58124 -10.71250 -7.13906
# Velocity P-wave (km/s) = 6.43107 11.32957 6.59547
#
# Compressibility (1/GPa) = 0.02013493
#
# Stress axis : x y z
#
# Youngs Moduli (GPa) = 112.59569 95.68881 63.97920
#
# Poissons Ratio (x) = 0.04340 0.17264
# Poissons Ratio (y) = 0.05107 0.27265
# Poissons Ratio (z) = 0.30382 0.40779
#
# Static dielectric constant tensor:
#      x y z
#    x 1.796860 0.000000 0.000000 
#    y 0.000000 1.738860 0.000000 
#    z 0.000000 0.000000 1.722350 
# 
# From -- ./inp_files/44344.got.cif
#   From: 2010.05.17/outbox.cif.g08.bks.cpg/sg67_23_cif.got.tgz:44344.got - 2010.06.03 18:28:57.
