data_PCOD9503873
_publ_section_title
;
Structure prediction by ZEFSAII (Michael W. Deem and Ramdas Pophale) SiO2 
 PCOD9503873
Probable space group: C M M A
;
_chemical_formula_sum "Si O2"
_cell_formula_units_Z 112
_cell_length_a 15.093507
_cell_length_b 25.141617
_cell_length_c 14.356335
_cell_angle_alpha 90.000000
_cell_angle_beta 90.000000
_cell_angle_gamma 90.000000
_cell_volume 5447.872696
_symmetry_space_group_name_H-M "C M M A"
_symmetry_group_IT_number 67
_symmetry_cell_setting 'orthorhombic'
loop_
_space_group_symop_operation_xyz
x,y,z
-x,1/2-y,z
x,-y,-z
-x,1/2+y,-z
-x,-y,-z
x,1/2+y,-z
-x,y,z
x,1/2-y,z
1/2+x,1/2+y,z
1/2-x,-y,z
1/2+x,1/2-y,-z
1/2-x,y,-z
1/2-x,1/2-y,-z
1/2+x,y,-z
1/2-x,1/2+y,z
1/2+x,-y,z
loop_
_atom_site_type_symbol
_atom_site_label
_atom_site_fract_x
_atom_site_fract_y
_atom_site_fract_z
Si Si1 0.201432 0.385646 0.627279
Si Si2 0.651476 0.506473 0.841022
Si Si3 0.896071 0.310530 0.766602
Si Si4 0.144860 0.807472 0.013942
Si Si5 0.105018 0.391424 0.435799
Si Si6 0.903423 0.010337 0.637980
Si Si7 0.398706 0.076643 0.999274
O O1 0.160360 0.354138 0.713135
O O2 0.143052 0.370962 0.535230
O O3 0.307302 0.375776 0.625323
O O4 0.176336 0.448089 0.628197
O O5 0.750000 0.500000 0.806616
O O6 0.593569 0.500668 0.749342
O O7 0.646268 0.560250 0.902944
O O8 0.633605 0.460745 0.916617
O O9 0.876566 0.250000 0.733970
O O10 0.878101 0.310898 0.876851
O O11 0.000000 0.321163 0.752107
O O12 0.111320 0.750000 0.979354
O O13 0.110103 0.862132 0.972181
O O14 0.250000 0.807917 0.000000
O O15 0.105427 0.455613 0.419010
O O16 0.000000 0.375917 0.420755
O O17 0.000000 0.034717 0.612164
O O18 0.500000 0.063687 0.017080
#
# Coordination Sequence:
#
# PCOD9503873 Si02
#       7
#    16  16  16  16  16  16  16
#     4  11  21  37  61  85 114 154 195 236 293 350
#     4  11  21  34  51  75 109 147 188 231 284 347
#     4  10  21  38  62  91 117 144 191 250 295 337
#     4  10  21  37  57  81 110 145 185 231 284 339
#     4  10  22  37  54  83 120 153 190 237 287 349
#     4  11  21  34  54  81 114 151 192 236 285 344
#     4  11  21  34  51  74 107 143 185 234 286 345
#
# _framework density 20.558484
#
# number of rings (size 3 to 8) (size 9 to 14) (size 15 to 20)
#    0.000    1.429    0.000    7.714    0.000    4.286 
#    0.000    1.429    0.000    2.143    0.000    5.000 
#    0.000    1.143    0.000    0.000    0.000    0.000 
#
# Total GULP energy -312164.335207 kJ/mol
# GULP energy per Si atom -5574.363129 kJ/mol
# Density = 2.051169 g / cm^3
# Si number density = 20.558484 Si / 1000 Ang^3
#
#
#
# Elastic Constant Matrix: (Units=GPa)
#
#
# Indices 1 2 3 4 5 6 
#
# 1 137.4311 3.8092 2.2714 0.0000 0.0000 0.0000
# 2 3.8092 65.9382 -2.5361 0.0000 0.0000 0.0000
# 3 2.2714 -2.5361 40.7282 0.0000 0.0000 0.0000
# 4 0.0000 0.0000 0.0000 24.7322 0.0000 0.0000
# 5 0.0000 0.0000 0.0000 0.0000 34.5469 0.0000
# 6 0.0000 0.0000 0.0000 0.0000 0.0000 20.2484
#
#
#
# Elastic Compliance Matrix: (Units=1/GPa)
#
#
# Indices 1 2 3 4 5 6 
#
# 1 0.007296 -0.000438 -0.000434 0.000000 0.000000 0.000000
# 2 -0.000438 0.015228 0.000973 0.000000 0.000000 0.000000
# 3 -0.000434 0.000973 0.024638 0.000000 0.000000 0.000000
# 4 0.000000 0.000000 0.000000 0.040433 0.000000 0.000000
# 5 0.000000 0.000000 0.000000 0.000000 0.028946 0.000000
# 6 0.000000 0.000000 0.000000 0.000000 0.000000 0.049387
#
#
# Mechanical properties :
#
#
# Convention : Reuss Voigt Hill
#
# Bulk Modulus (GPa) = 21.11369 27.90962 24.51166
# Shear Modulus (GPa) = 27.54599 31.94237 29.74418
#
# Velocity S-wave (km/s) = 3.66441 3.94602 3.80782
# Velocity P-wave (km/s) = 5.31002 5.86230 5.59298
#
# Compressibility (1/GPa) = 0.04736263
#
# Stress axis : x y z
#
# Youngs Moduli (GPa) = 137.06712 65.66657 40.58805
#
# Poissons Ratio (x) = 0.02877 0.01762
# Poissons Ratio (y) = 0.06006 -0.03948
# Poissons Ratio (z) = 0.05951 -0.06387
#
# Static dielectric constant tensor:
#      x y z
#    x 1.839070 0.000000 0.000000 
#    y 0.000000 1.760330 0.000000 
#    z 0.000000 0.000000 1.810420 
# 
# From -- ./inp_files/27739.got.cif
#   From: 2010.05.17/outbox.cif.g08.bks.cpg/sg67_14_cif.got.tgz:27739.got - 2010.06.03 18:28:57.
