data_PCOD9503036
_publ_section_title
;
Structure prediction by ZEFSAII (Michael W. Deem and Ramdas Pophale) SiO2 
 PCOD9503036
Probable space group: C M M A
;
_chemical_formula_sum "Si O2"
_cell_formula_units_Z 96
_cell_length_a 22.946049
_cell_length_b 16.323134
_cell_length_c 10.546772
_cell_angle_alpha 90.000000
_cell_angle_beta 90.000000
_cell_angle_gamma 90.000000
_cell_volume 3950.308562
_symmetry_space_group_name_H-M "C M M A"
_symmetry_group_IT_number 67
_symmetry_cell_setting 'orthorhombic'
loop_
_space_group_symop_operation_xyz
x,y,z
-x,1/2-y,z
x,-y,-z
-x,1/2+y,-z
-x,-y,-z
x,1/2+y,-z
-x,y,z
x,1/2-y,z
1/2+x,1/2+y,z
1/2-x,-y,z
1/2+x,1/2-y,-z
1/2-x,y,-z
1/2-x,1/2-y,-z
1/2+x,y,-z
1/2-x,1/2+y,z
1/2+x,-y,z
loop_
_atom_site_type_symbol
_atom_site_label
_atom_site_fract_x
_atom_site_fract_y
_atom_site_fract_z
Si Si1 0.624980 0.652232 0.223408
Si Si2 0.612608 0.845320 0.509577
Si Si3 0.811950 0.456768 0.660147
Si Si4 0.245186 0.846620 0.146438
Si Si5 0.564159 0.952841 0.720462
Si Si6 0.432370 0.343815 0.028649
O O1 0.620713 0.750000 0.194719
O O2 0.597099 0.649021 0.362662
O O3 0.694148 0.636750 0.218075
O O4 0.597768 0.616721 0.094567
O O5 0.622416 0.750000 0.540617
O O6 0.670183 0.900183 0.540198
O O7 0.567127 0.887615 0.604273
O O8 0.750000 0.500000 0.643827
O O9 0.802706 0.396379 0.778717
O O10 0.874124 0.499874 0.696215
O O11 0.233414 0.750000 0.149377
O O12 0.250000 0.871813 0.000000
O O13 0.500000 0.993419 0.718533
O O14 0.570132 0.901907 0.849543
O O15 0.500000 0.336918 0.994123
O O16 0.411729 0.250000 0.059729
#
# Coordination Sequence:
#
# PCOD9503036 Si02
#       6
#    16  16  16  16  16  16
#     4   9  18  32  51  83 124 166 208 259 321 382
#     4   9  19  34  56  88 128 167 209 267 328 386
#     4  10  22  38  58  86 125 169 216 268 322 387
#     4  10  20  35  59  88 123 164 206 260 326 390
#     4   9  19  34  58  89 126 169 216 265 324 395
#     4   9  16  28  51  86 129 172 210 255 319 393
#
# _framework density 24.301898000000001
#
# number of rings (size 3 to 8) (size 9 to 14) (size 15 to 20)
#    1.000    1.667    0.000    2.000    0.000    4.000 
#    0.000    5.833    0.000    2.000    0.000    4.667 
#    0.000    2.000    0.000    0.000    0.000    0.000 
#
# Total GULP energy -267826.797509 kJ/mol
# GULP energy per Si atom -5579.724948 kJ/mol
# Density = 2.424659 g / cm^3
# Si number density = 24.301898 Si / 1000 Ang^3
#
#
#
# Elastic Constant Matrix: (Units=GPa)
#
#
# Indices 1 2 3 4 5 6 
#
# 1 130.2032 32.4379 44.1778 0.0000 0.0000 0.0000
# 2 32.4379 41.5690 2.9825 0.0000 0.0000 0.0000
# 3 44.1778 2.9825 117.2255 0.0000 0.0000 0.0000
# 4 0.0000 0.0000 0.0000 21.8264 0.0000 0.0000
# 5 0.0000 0.0000 0.0000 0.0000 1.7657 0.0000
# 6 0.0000 0.0000 0.0000 0.0000 0.0000 11.8825
#
#
#
# Elastic Compliance Matrix: (Units=1/GPa)
#
#
# Indices 1 2 3 4 5 6 
#
# 1 0.011121 -0.008393 -0.003977 0.000000 0.000000 0.000000
# 2 -0.008393 0.030434 0.002389 0.000000 0.000000 0.000000
# 3 -0.003977 0.002389 0.009969 0.000000 0.000000 0.000000
# 4 0.000000 0.000000 0.000000 0.045816 0.000000 0.000000
# 5 0.000000 0.000000 0.000000 0.000000 0.566349 0.000000
# 6 0.000000 0.000000 0.000000 0.000000 0.000000 0.084157
#
#
# Mechanical properties :
#
#
# Convention : Reuss Voigt Hill
#
# Bulk Modulus (GPa) = 31.68513 49.79937 40.74225
# Shear Modulus (GPa) = 6.42401 21.05487 13.73944
#
# Velocity S-wave (km/s) = 1.62762 2.94664 2.38032
# Velocity P-wave (km/s) = 4.07414 5.66687 4.93518
#
# Compressibility (1/GPa) = 0.03156054
#
# Stress axis : x y z
#
# Youngs Moduli (GPa) = 89.92228 32.85791 100.31351
#
# Poissons Ratio (x) = 0.27576 0.39899
# Poissons Ratio (y) = 0.75468 -0.23960
# Poissons Ratio (z) = 0.35766 -0.07848
#
# Static dielectric constant tensor:
#      x y z
#    x 2.102860 0.000000 0.000000 
#    y 0.000000 2.106320 0.000000 
#    z 0.000000 0.000000 1.954230 
# 
# From -- ./inp_files/22088.got.cif
#   From: 2010.05.17/outbox.cif.g08.bks.cpg/sg67_12_cif.got.tgz:22088.got - 2010.06.03 18:28:57.
