data_PCOD9503975
_publ_section_title
;
Structure prediction by ZEFSAII (Michael W. Deem and Ramdas Pophale) SiO2 
 PCOD9503975
Probable space group: C M M A
;
_chemical_formula_sum "Si O2"
_cell_formula_units_Z 104
_cell_length_a 9.704368
_cell_length_b 21.331595
_cell_length_c 29.088897
_cell_angle_alpha 90.000000
_cell_angle_beta 90.000000
_cell_angle_gamma 90.000000
_cell_volume 6021.682326
_symmetry_space_group_name_H-M "C M M A"
_symmetry_group_IT_number 67
_symmetry_cell_setting 'orthorhombic'
loop_
_space_group_symop_operation_xyz
x,y,z
-x,1/2-y,z
x,-y,-z
-x,1/2+y,-z
-x,-y,-z
x,1/2+y,-z
-x,y,z
x,1/2-y,z
1/2+x,1/2+y,z
1/2-x,-y,z
1/2+x,1/2-y,-z
1/2-x,y,-z
1/2-x,1/2-y,-z
1/2+x,y,-z
1/2-x,1/2+y,z
1/2+x,-y,z
loop_
_atom_site_type_symbol
_atom_site_label
_atom_site_fract_x
_atom_site_fract_y
_atom_site_fract_z
Si Si1 0.000000 0.409738 0.462432
Si Si2 0.341698 0.824367 0.306914
Si Si3 0.834106 0.934083 0.041513
Si Si4 0.743292 0.870312 0.596076
Si Si5 0.336430 0.935131 0.853744
Si Si6 0.834673 0.177351 0.784071
Si Si7 0.500000 0.445977 0.434373
Si Si8 0.650424 0.750000 0.543526
O O1 0.133434 0.380283 0.439637
O O2 0.000000 0.482116 0.447671
O O3 0.000000 0.408307 0.517267
O O4 0.500000 0.839345 0.295101
O O5 0.334988 0.750000 0.317539
O O6 0.297890 0.860230 0.352803
O O7 0.242771 0.835479 0.263765
O O8 0.820892 0.910329 0.093681
O O9 0.000000 0.940054 0.031939
O O10 0.750000 0.000000 0.044703
O O11 0.750000 0.900697 0.000000
O O12 0.635988 0.926787 0.592705
O O13 0.668933 0.808897 0.576926
O O14 0.500000 0.949489 0.847738
O O15 0.298491 0.878016 0.819804
O O16 0.250000 0.000000 0.847573
O O17 0.800505 0.250000 0.797930
O O18 0.000000 0.175371 0.777777
O O19 0.500000 0.750000 0.522578
O O20 0.750000 0.750000 0.500000
#
# Coordination Sequence:
#
# PCOD9503975 Si02
#       8
#     8  16  16  16  16  16   8   8
#     4  11  24  43  61  79 111 152 183 213 256 309
#     4  10  21  38  57  82 110 140 171 216 276 328
#     4   9  15  24  41  68 104 142 181 221 267 321
#     4  12  23  39  61  85 112 139 177 221 265 319
#     4   9  18  32  51  79 111 143 180 229 280 321
#     4   9  19  36  60  81 102 138 186 229 271 327
#     4  11  24  41  61  83 109 148 187 215 248 315
#     4  12  26  38  58  90 118 140 168 216 277 320
#
# _framework density 17.270921000000001
#
# number of rings (size 3 to 8) (size 9 to 14) (size 15 to 20)
#    0.000    1.846    2.308    2.769    2.154    2.462 
#    0.000    1.538    0.000    0.462    0.000    0.000 
#    0.000    0.000    0.000    0.000    0.000    4.154 
#
# Total GULP energy -289793.651053 kJ/mol
# GULP energy per Si atom -5572.954828 kJ/mol
# Density = 1.723161 g / cm^3
# Si number density = 17.270921 Si / 1000 Ang^3
#
#
#
# Elastic Constant Matrix: (Units=GPa)
#
#
# Indices 1 2 3 4 5 6 
#
# 1 94.0437 27.9665 38.4465 0.0000 0.0000 0.0000
# 2 27.9665 65.0787 42.8824 0.0000 0.0000 0.0000
# 3 38.4465 42.8824 109.8756 0.0000 0.0000 0.0000
# 4 0.0000 0.0000 0.0000 25.2937 0.0000 0.0000
# 5 0.0000 0.0000 0.0000 0.0000 23.8252 0.0000
# 6 0.0000 0.0000 0.0000 0.0000 0.0000 43.9250
#
#
#
# Elastic Compliance Matrix: (Units=1/GPa)
#
#
# Indices 1 2 3 4 5 6 
#
# 1 0.012968 -0.003477 -0.003181 0.000000 0.000000 0.000000
# 2 -0.003477 0.021618 -0.007220 0.000000 0.000000 0.000000
# 3 -0.003181 -0.007220 0.013032 0.000000 0.000000 0.000000
# 4 0.000000 0.000000 0.000000 0.039536 0.000000 0.000000
# 5 0.000000 0.000000 0.000000 0.000000 0.041972 0.000000
# 6 0.000000 0.000000 0.000000 0.000000 0.000000 0.022766
#
#
# Mechanical properties :
#
#
# Convention : Reuss Voigt Hill
#
# Bulk Modulus (GPa) = 50.34771 54.17653 52.26212
# Shear Modulus (GPa) = 26.84307 29.25562 28.04935
#
# Velocity S-wave (km/s) = 3.94666 4.12020 4.03436
# Velocity P-wave (km/s) = 7.06987 7.35333 7.21299
#
# Compressibility (1/GPa) = 0.01986188
#
# Stress axis : x y z
#
# Youngs Moduli (GPa) = 77.11567 46.25793 76.73347
#
# Poissons Ratio (x) = 0.16083 0.24405
# Poissons Ratio (y) = 0.26812 0.55405
# Poissons Ratio (z) = 0.24527 0.33401
#
# Static dielectric constant tensor:
#      x y z
#    x 1.593340 0.000000 0.000000 
#    y 0.000000 1.588540 0.000000 
#    z 0.000000 0.000000 1.586060 
# 
# From -- ./inp_files/43764.got.cif
#   From: 2010.05.17/outbox.cif.g08.bks.cpg/sg67_22_cif.got.tgz:43764.got - 2010.06.03 18:28:57.
