data_PCOD9503370
_publ_section_title
;
Structure prediction by ZEFSAII (Michael W. Deem and Ramdas Pophale) SiO2 
 PCOD9503370
Probable space group: C M M A
;
_chemical_formula_sum "Si O2"
_cell_formula_units_Z 104
_cell_length_a 8.485914
_cell_length_b 24.442662
_cell_length_c 25.821693
_cell_angle_alpha 90.000000
_cell_angle_beta 90.000000
_cell_angle_gamma 90.000000
_cell_volume 5355.892379
_symmetry_space_group_name_H-M "C M M A"
_symmetry_group_IT_number 67
_symmetry_cell_setting 'orthorhombic'
loop_
_space_group_symop_operation_xyz
x,y,z
-x,1/2-y,z
x,-y,-z
-x,1/2+y,-z
-x,-y,-z
x,1/2+y,-z
-x,y,z
x,1/2-y,z
1/2+x,1/2+y,z
1/2-x,-y,z
1/2+x,1/2-y,-z
1/2-x,y,-z
1/2-x,1/2-y,-z
1/2+x,y,-z
1/2-x,1/2+y,z
1/2+x,-y,z
loop_
_atom_site_type_symbol
_atom_site_label
_atom_site_fract_x
_atom_site_fract_y
_atom_site_fract_z
Si Si1 0.310508 0.367844 0.443021
Si Si2 0.192052 0.750000 0.280444
Si Si3 0.189764 0.250000 0.058997
Si Si4 0.809038 0.630741 0.249408
Si Si5 0.311500 0.939165 0.848931
Si Si6 0.187974 0.061868 0.347361
Si Si7 0.810892 0.869487 0.941222
Si Si8 0.308436 0.750000 0.599095
O O1 0.500000 0.368890 0.442001
O O2 0.250000 0.381775 0.500000
O O3 0.247386 0.408919 0.399576
O O4 0.257103 0.306010 0.428265
O O5 0.244173 0.806338 0.254078
O O6 0.240661 0.750000 0.340772
O O7 0.000000 0.750000 0.280063
O O8 0.241122 0.309141 0.079965
O O9 0.000000 0.250000 0.059183
O O10 0.250000 0.250000 0.000000
O O11 0.756212 0.600658 0.197241
O O12 0.751070 0.597061 0.299032
O O13 0.000000 0.630502 0.250379
O O14 0.500000 0.939861 0.848754
O O15 0.252906 0.915517 0.903357
O O16 0.250000 0.000000 0.839908
O O17 0.000000 0.061437 0.346424
O O18 0.250000 0.000000 0.344082
O O19 0.000000 0.871126 0.942179
O O20 0.750000 0.875141 0.000000
O O21 0.500000 0.750000 0.598694
#
# Coordination Sequence:
#
# PCOD9503370 Si02
#       8
#    16   8   8  16  16  16  16   8
#     4  11  22  39  61  90 123 160 200 244 295 352
#     4   9  16  34  64  94 121 155 192 234 293 354
#     4   8  16  31  54  84 116 153 190 234 289 345
#     4  10  21  40  65  91 121 156 196 242 294 355
#     4  11  24  40  60  87 119 159 204 250 299 353
#     4  12  25  41  62  87 116 156 202 249 299 355
#     4  10  20  37  61  89 123 160 200 246 297 356
#     4   9  17  33  62  90 122 159 194 237 292 355
#
# _framework density 19.417866
#
# number of rings (size 3 to 8) (size 9 to 14) (size 15 to 20)
#    0.000    1.692    1.538    3.462    0.000    4.308 
#    0.000    6.154    0.000    0.000    0.000    0.000 
#    0.000    0.000    0.000    0.000    0.000    0.000 
#
# Total GULP energy -290495.846830 kJ/mol
# GULP energy per Si atom -5586.458593 kJ/mol
# Density = 1.937367 g / cm^3
# Si number density = 19.417866 Si / 1000 Ang^3
#
#
#
# Elastic Constant Matrix: (Units=GPa)
#
#
# Indices 1 2 3 4 5 6 
#
# 1 40.1886 29.2530 23.3741 0.0000 0.0000 0.0000
# 2 29.2530 164.6149 79.3704 0.0000 0.0000 0.0000
# 3 23.3741 79.3704 129.2190 0.0000 0.0000 0.0000
# 4 0.0000 0.0000 0.0000 22.8947 0.0000 0.0000
# 5 0.0000 0.0000 0.0000 0.0000 25.1458 0.0000
# 6 0.0000 0.0000 0.0000 0.0000 0.0000 19.1425
#
#
#
# Elastic Compliance Matrix: (Units=1/GPa)
#
#
# Indices 1 2 3 4 5 6 
#
# 1 0.029372 -0.003776 -0.002994 0.000000 0.000000 0.000000
# 2 -0.003776 0.009116 -0.004916 0.000000 0.000000 0.000000
# 3 -0.002994 -0.004916 0.011300 0.000000 0.000000 0.000000
# 4 0.000000 0.000000 0.000000 0.043678 0.000000 0.000000
# 5 0.000000 0.000000 0.000000 0.000000 0.039768 0.000000
# 6 0.000000 0.000000 0.000000 0.000000 0.000000 0.052240
#
#
# Mechanical properties :
#
#
# Convention : Reuss Voigt Hill
#
# Bulk Modulus (GPa) = 37.85540 66.44639 52.15089
# Shear Modulus (GPa) = 22.97231 26.90494 24.93862
#
# Velocity S-wave (km/s) = 3.44328 3.72637 3.58762
# Velocity P-wave (km/s) = 5.94523 7.26691 6.63904
#
# Compressibility (1/GPa) = 0.02641631
#
# Stress axis : x y z
#
# Youngs Moduli (GPa) = 34.04546 109.69273 88.49429
#
# Poissons Ratio (x) = 0.41423 0.26492
# Poissons Ratio (y) = 0.12857 0.43508
# Poissons Ratio (z) = 0.10192 0.53930
#
# Static dielectric constant tensor:
#      x y z
#    x 1.662750 0.000000 0.000000 
#    y 0.000000 1.686870 0.000000 
#    z 0.000000 0.000000 1.639240 
# 
# From -- ./inp_files/43639.got.cif
#   From: 2010.05.17/outbox.cif.g08.bks.cpg/sg67_22_cif.got.tgz:43639.got - 2010.06.03 18:28:57.
