data_PCOD9503335
_publ_section_title
;
Structure prediction by ZEFSAII (Michael W. Deem and Ramdas Pophale) SiO2 
 PCOD9503335
Probable space group: C M M A
;
_chemical_formula_sum "Si O2"
_cell_formula_units_Z 88
_cell_length_a 14.763102
_cell_length_b 10.495047
_cell_length_c 27.828045
_cell_angle_alpha 90.000000
_cell_angle_beta 90.000000
_cell_angle_gamma 90.000000
_cell_volume 4311.661969
_symmetry_space_group_name_H-M "C M M A"
_symmetry_group_IT_number 67
_symmetry_cell_setting 'orthorhombic'
loop_
_space_group_symop_operation_xyz
x,y,z
-x,1/2-y,z
x,-y,-z
-x,1/2+y,-z
-x,-y,-z
x,1/2+y,-z
-x,y,z
x,1/2-y,z
1/2+x,1/2+y,z
1/2-x,-y,z
1/2+x,1/2-y,-z
1/2-x,y,-z
1/2-x,1/2-y,-z
1/2+x,y,-z
1/2-x,1/2+y,z
1/2+x,-y,z
loop_
_atom_site_type_symbol
_atom_site_label
_atom_site_fract_x
_atom_site_fract_y
_atom_site_fract_z
Si Si1 0.109544 0.250000 0.533148
Si Si2 0.107659 0.390076 0.034214
Si Si3 0.390514 0.534940 0.609780
Si Si4 0.331111 0.400530 0.857788
Si Si5 0.596130 0.400778 0.754648
Si Si6 0.390711 0.750000 0.424399
Si Si7 0.750000 0.000000 0.685993
O O1 0.130940 0.376417 0.563854
O O2 0.145656 0.250000 0.478952
O O3 0.000000 0.250000 0.529017
O O4 0.145675 0.250000 0.023149
O O5 0.121460 0.414484 0.090690
O O6 0.000000 0.384440 0.025894
O O7 0.144745 0.500000 0.000000
O O8 0.500000 0.547140 0.618871
O O9 0.369242 0.384892 0.600570
O O10 0.321403 0.574384 0.651836
O O11 0.304940 0.250000 0.853505
O O12 0.250000 0.500000 0.857585
O O13 0.388920 0.433208 0.810514
O O14 0.500000 0.456618 0.737196
O O15 0.588617 0.250000 0.753033
O O16 0.681117 0.430607 0.721683
O O17 0.500000 0.750000 0.426679
#
# Coordination Sequence:
#
# PCOD9503335 Si02
#       7
#     8  16  16  16  16   8   8
#     4   9  18  37  61  85 120 161 199 242 301 359
#     4   9  18  33  55  83 117 157 201 249 302 362
#     4  10  22  37  58  89 122 158 198 249 305 359
#     4  10  20  37  59  87 119 156 203 256 307 363
#     4  10  22  41  66  89 116 162 214 259 307 372
#     4   9  18  37  63  87 116 161 207 242 287 363
#     4  12  24  38  61  88 121 154 198 260 312 362
#
# _framework density 20.409763000000002
#
# number of rings (size 3 to 8) (size 9 to 14) (size 15 to 20)
#    0.000    2.182    0.909    1.636    2.545    5.455 
#    0.000    4.545    0.000    2.727    0.000    0.000 
#    0.000    0.000    0.000    0.000    0.000    0.000 
#
# Total GULP energy -245259.910519 kJ/mol
# GULP energy per Si atom -5574.088875 kJ/mol
# Density = 2.036331 g / cm^3
# Si number density = 20.409763 Si / 1000 Ang^3
#
#
#
# Elastic Constant Matrix: (Units=GPa)
#
#
# Indices 1 2 3 4 5 6 
#
# 1 96.5373 31.7360 47.9796 0.0000 0.0000 0.0000
# 2 31.7360 65.3336 39.3506 0.0000 0.0000 0.0000
# 3 47.9796 39.3506 113.0129 0.0000 0.0000 0.0000
# 4 0.0000 0.0000 0.0000-2926.2414 0.0000 0.0000
# 5 0.0000 0.0000 0.0000 0.0000 36.8914 0.0000
# 6 0.0000 0.0000 0.0000 0.0000 0.0000 12.3097
#
#
#
# Elastic Compliance Matrix: (Units=1/GPa)
#
#
# Indices 1 2 3 4 5 6 
#
# 1 0.013929 -0.004055 -0.004502 0.000000 0.000000 0.000000
# 2 -0.004055 0.020548 -0.005433 0.000000 0.000000 0.000000
# 3 -0.004502 -0.005433 0.012652 0.000000 0.000000 0.000000
# 4 0.000000 0.000000 0.000000 -0.000342 0.000000 0.000000
# 5 0.000000 0.000000 0.000000 0.000000 0.027107 0.000000
# 6 0.000000 0.000000 0.000000 0.000000 0.000000 0.081237
#
#
# Mechanical properties :
#
#
# Convention : Reuss Voigt Hill
#
# Bulk Modulus (GPa) = 52.22129 57.00179 54.61154
# Shear Modulus (GPa) = 26.38621 -565.02021 -269.31700
#
# Velocity S-wave (km/s) = 3.59949 -16.65651 -11.49963
# Velocity P-wave (km/s) = 6.55111 18.49134 12.22728
#
# Compressibility (1/GPa) = 0.01914928
#
# Stress axis : x y z
#
# Youngs Moduli (GPa) = 71.79253 48.66615 79.04104
#
# Poissons Ratio (x) = 0.19732 0.35582
# Poissons Ratio (y) = 0.29109 0.42946
# Poissons Ratio (z) = 0.32319 0.26442
#
# Static dielectric constant tensor:
#      x y z
#    x 1.759980 0.000000 0.000000 
#    y 0.000000 1.721950 0.000000 
#    z 0.000000 0.000000 1.759520 
# 
# From -- ./inp_files/44328.got.cif
#   From: 2010.05.17/outbox.cif.g08.bks.cpg/sg67_23_cif.got.tgz:44328.got - 2010.06.03 18:28:57.
