data_PCOD9503997
_publ_section_title
;
Structure prediction by ZEFSAII (Michael W. Deem and Ramdas Pophale) SiO2 
 PCOD9503997
Probable space group: C M M A
;
_chemical_formula_sum "Si O2"
_cell_formula_units_Z 56
_cell_length_a 19.156314
_cell_length_b 8.938173
_cell_length_c 19.835174
_cell_angle_alpha 90.000000
_cell_angle_beta 90.000000
_cell_angle_gamma 90.000000
_cell_volume 3396.227060
_symmetry_space_group_name_H-M "C M M A"
_symmetry_group_IT_number 67
_symmetry_cell_setting 'orthorhombic'
loop_
_space_group_symop_operation_xyz
x,y,z
-x,1/2-y,z
x,-y,-z
-x,1/2+y,-z
-x,-y,-z
x,1/2+y,-z
-x,y,z
x,1/2-y,z
1/2+x,1/2+y,z
1/2-x,-y,z
1/2+x,1/2-y,-z
1/2-x,y,-z
1/2-x,1/2-y,-z
1/2+x,y,-z
1/2-x,1/2+y,z
1/2+x,-y,z
loop_
_atom_site_type_symbol
_atom_site_label
_atom_site_fract_x
_atom_site_fract_y
_atom_site_fract_z
Si Si1 0.173627 0.427967 0.808691
Si Si2 0.920858 0.073782 0.299840
Si Si3 0.582523 0.428326 0.927300
Si Si4 0.000000 0.429050 0.427101
O O1 0.177970 0.250000 0.814337
O O2 0.250000 0.500000 0.809265
O O3 0.133177 0.475950 0.740767
O O4 0.128645 0.495781 0.869946
O O5 0.902613 0.250000 0.295231
O O6 0.000000 0.058830 0.270395
O O7 0.934282 0.032617 0.378319
O O8 0.500000 0.453342 0.914269
O O9 0.594505 0.250000 0.928508
O O10 0.598504 0.500000 0.000000
O O11 0.000000 0.500000 0.500000
O O12 0.000000 0.250000 0.433053
#
# Coordination Sequence:
#
# PCOD9503997 Si02
#       4
#    16  16  16   8
#     4  12  24  36  53  77 107 143 182 223 267 319
#     4   8  17  34  54  78 108 141 173 214 262 310
#     4  10  21  38  59  81 107 138 175 222 270 318
#     4   8  16  30  54  84 113 140 171 214 260 308
#
# _framework density 16.488886999999998
#
# number of rings (size 3 to 8) (size 9 to 14) (size 15 to 20)
#    0.857    1.429    0.000    4.286    0.000    7.429 
#    0.000    2.857    0.000    0.857    0.000    6.000 
#    0.000    0.000    0.000    0.000    0.000    0.000 
#
# Total GULP energy -156027.570048 kJ/mol
# GULP energy per Si atom -5572.413216 kJ/mol
# Density = 1.645136 g / cm^3
# Si number density = 16.488887 Si / 1000 Ang^3
#
#
#
# Elastic Constant Matrix: (Units=GPa)
#
#
# Indices 1 2 3 4 5 6 
#
# 1 85.2715 70.3820 77.0346 0.0000 0.0000 0.0000
# 2 70.3820 120.4097 79.1801 0.0000 0.0000 0.0000
# 3 77.0346 79.1801 153.9353 0.0000 0.0000 0.0000
# 4 0.0000 0.0000 0.0000 36.3731 0.0000 0.0000
# 5 0.0000 0.0000 0.0000 0.0000 -3.7269 0.0000
# 6 0.0000 0.0000 0.0000 0.0000 0.0000 26.8946
#
#
#
# Elastic Compliance Matrix: (Units=1/GPa)
#
#
# Indices 1 2 3 4 5 6 
#
# 1 0.028696 -0.011077 -0.008663 0.000000 0.000000 0.000000
# 2 -0.011077 0.016826 -0.003111 0.000000 0.000000 0.000000
# 3 -0.008663 -0.003111 0.012432 0.000000 0.000000 0.000000
# 4 0.000000 0.000000 0.000000 0.027493 0.000000 0.000000
# 5 0.000000 0.000000 0.000000 0.000000 -0.268318 0.000000
# 6 0.000000 0.000000 0.000000 0.000000 0.000000 0.037182
#
#
# Mechanical properties :
#
#
# Convention : Reuss Voigt Hill
#
# Bulk Modulus (GPa) = 81.62407 90.31222 85.96814
# Shear Modulus (GPa) = -52.13569 20.77614 -15.67977
#
# Velocity S-wave (km/s) = -5.62915 3.55351 -3.08706
# Velocity P-wave (km/s) = 2.71296 8.46918 6.28837
#
# Compressibility (1/GPa) = 0.01225129
#
# Stress axis : x y z
#
# Youngs Moduli (GPa) = 34.84813 59.43304 80.43838
#
# Poissons Ratio (x) = 0.65833 0.69683
# Poissons Ratio (y) = 0.38601 0.25028
# Poissons Ratio (z) = 0.30188 0.18492
#
# Static dielectric constant tensor:
#      x y z
#    x 1.538950 0.000000 0.000000 
#    y 0.000000 1.541990 0.000000 
#    z 0.000000 0.000000 1.560930 
# 
# From -- ./inp_files/38751.got.cif
#   From: 2010.05.17/outbox.cif.g08.bks.cpg/sg67_20_cif.got.tgz:38751.got - 2010.06.03 18:28:57.
