data_PCOD9503928
_publ_section_title
;
Structure prediction by ZEFSAII (Michael W. Deem and Ramdas Pophale) SiO2 
 PCOD9503928
Probable space group: C M M A
;
_chemical_formula_sum "Si O2"
_cell_formula_units_Z 100
_cell_length_a 9.323320
_cell_length_b 21.158664
_cell_length_c 25.081400
_cell_angle_alpha 90.000000
_cell_angle_beta 90.000000
_cell_angle_gamma 90.000000
_cell_volume 4947.782577
_symmetry_space_group_name_H-M "C M M A"
_symmetry_group_IT_number 67
_symmetry_cell_setting 'orthorhombic'
loop_
_space_group_symop_operation_xyz
x,y,z
-x,1/2-y,z
x,-y,-z
-x,1/2+y,-z
-x,-y,-z
x,1/2+y,-z
-x,y,z
x,1/2-y,z
1/2+x,1/2+y,z
1/2-x,-y,z
1/2+x,1/2-y,-z
1/2-x,y,-z
1/2-x,1/2-y,-z
1/2+x,y,-z
1/2-x,1/2+y,z
1/2+x,-y,z
loop_
_atom_site_type_symbol
_atom_site_label
_atom_site_fract_x
_atom_site_fract_y
_atom_site_fract_z
Si Si1 0.000000 0.953170 0.082224
Si Si2 0.767532 0.144076 0.906317
Si Si3 0.335937 0.561937 0.740425
Si Si4 0.833703 0.563123 0.388264
Si Si5 0.671363 0.822389 0.442817
Si Si6 0.669011 0.178340 0.789060
Si Si7 0.000000 0.911428 0.958972
Si Si8 0.000000 0.750000 0.066014
O O1 0.140568 0.919489 0.105420
O O2 0.000000 0.028521 0.081296
O O3 0.000000 0.935005 0.019305
O O4 0.700803 0.169643 0.851629
O O5 0.640862 0.127977 0.946478
O O6 0.876083 0.194962 0.929521
O O7 0.500000 0.559723 0.759196
O O8 0.250000 0.500000 0.758830
O O9 0.336124 0.561418 0.676017
O O10 0.259212 0.625404 0.759217
O O11 0.750000 0.500000 0.406769
O O12 0.747263 0.624736 0.407073
O O13 0.000000 0.564034 0.406657
O O14 0.500000 0.833637 0.447644
O O15 0.690043 0.750000 0.422821
O O16 0.750000 0.825644 0.500000
O O17 0.500000 0.169804 0.779177
O O18 0.709290 0.250000 0.773735
#
# Coordination Sequence:
#
# PCOD9503928 Si02
#       8
#     8  16  16  16  16  16   8   4
#     4  10  24  40  65  97 121 158 199 245 304 362
#     4  11  22  41  64  88 125 160 198 250 298 357
#     4  10  23  41  64  93 126 161 205 256 310 368
#     4  10  21  39  61  88 124 164 205 259 313 370
#     4  10  21  37  59  88 123 166 212 264 314 369
#     4  11  24  42  65  89 123 161 204 250 305 368
#     4  11  22  43  65  91 128 158 200 247 301 365
#     4  10  24  40  62  90 120 162 206 242 298 354
#
# _framework density 20.211072999999999
#
# number of rings (size 3 to 8) (size 9 to 14) (size 15 to 20)
#    0.000    1.600    1.600    2.400    2.240    7.040 
#    0.000   11.200    0.000    0.000    0.000    0.000 
#    0.000    0.000    0.000    0.000    0.000    0.000 
#
# Total GULP energy -278991.217865 kJ/mol
# GULP energy per Si atom -5579.824357 kJ/mol
# Density = 2.016507 g / cm^3
# Si number density = 20.211073 Si / 1000 Ang^3
#
#
#
# Elastic Constant Matrix: (Units=GPa)
#
#
# Indices 1 2 3 4 5 6 
#
# 1 182.7361 105.9915 25.8535 0.0000 0.0000 0.0000
# 2 105.9915 171.3045 27.2771 0.0000 0.0000 0.0000
# 3 25.8535 27.2771 12.9347 0.0000 0.0000 0.0000
# 4 0.0000 0.0000 0.0000 31.3090 0.0000 0.0000
# 5 0.0000 0.0000 0.0000 0.0000 28.6264 0.0000
# 6 0.0000 0.0000 0.0000 0.0000 0.0000 30.9526
#
#
#
# Elastic Compliance Matrix: (Units=1/GPa)
#
#
# Indices 1 2 3 4 5 6 
#
# 1 0.009278 -0.004197 -0.009694 0.000000 0.000000 0.000000
# 2 -0.004197 0.010687 -0.014149 0.000000 0.000000 0.000000
# 3 -0.009694 -0.014149 0.126526 0.000000 0.000000 0.000000
# 4 0.000000 0.000000 0.000000 0.031940 0.000000 0.000000
# 5 0.000000 0.000000 0.000000 0.000000 0.034933 0.000000
# 6 0.000000 0.000000 0.000000 0.000000 0.000000 0.032307
#
#
# Mechanical properties :
#
#
# Convention : Reuss Voigt Hill
#
# Bulk Modulus (GPa) = 11.06058 76.13548 43.59803
# Shear Modulus (GPa) = 15.06529 32.03450 23.54989
#
# Velocity S-wave (km/s) = 2.73316 3.98552 3.41720
# Velocity P-wave (km/s) = 3.92997 7.67666 6.09819
#
# Compressibility (1/GPa) = 0.09041115
#
# Stress axis : x y z
#
# Youngs Moduli (GPa) = 107.77730 93.56774 7.90353
#
# Poissons Ratio (x) = 0.39272 0.07662
# Poissons Ratio (y) = 0.45236 0.11183
# Poissons Ratio (z) = 1.04481 1.32387
#
# Static dielectric constant tensor:
#      x y z
#    x 1.688010 0.000000 0.000000 
#    y 0.000000 1.703030 0.000000 
#    z 0.000000 0.000000 1.719620 
# 
# From -- ./inp_files/43623.got.cif
#   From: 2010.05.17/outbox.cif.g08.bks.cpg/sg67_22_cif.got.tgz:43623.got - 2010.06.03 18:28:57.
