data_PCOD9503168
_publ_section_title
;
Structure prediction by ZEFSAII (Michael W. Deem and Ramdas Pophale) SiO2 
 PCOD9503168
Probable space group: C M M A
;
_chemical_formula_sum "Si O2"
_cell_formula_units_Z 104
_cell_length_a 26.728021
_cell_length_b 22.429584
_cell_length_c 9.544376
_cell_angle_alpha 90.000000
_cell_angle_beta 90.000000
_cell_angle_gamma 90.000000
_cell_volume 5721.838066
_symmetry_space_group_name_H-M "C M M A"
_symmetry_group_IT_number 67
_symmetry_cell_setting 'orthorhombic'
loop_
_space_group_symop_operation_xyz
x,y,z
-x,1/2-y,z
x,-y,-z
-x,1/2+y,-z
-x,-y,-z
x,1/2+y,-z
-x,y,z
x,1/2-y,z
1/2+x,1/2+y,z
1/2-x,-y,z
1/2+x,1/2-y,-z
1/2-x,y,-z
1/2-x,1/2-y,-z
1/2+x,y,-z
1/2-x,1/2+y,z
1/2+x,-y,z
loop_
_atom_site_type_symbol
_atom_site_label
_atom_site_fract_x
_atom_site_fract_y
_atom_site_fract_z
Si Si1 0.943590 0.250000 0.576949
Si Si2 0.589793 0.843057 0.805085
Si Si3 0.559992 0.250000 0.967051
Si Si4 0.652653 0.007213 0.666468
Si Si5 0.693772 0.122238 0.321539
Si Si6 0.124648 0.250000 0.304878
Si Si7 0.193382 0.636991 0.658868
Si Si8 0.556813 0.521554 0.840126
O O1 0.935640 0.193213 0.678170
O O2 0.902844 0.250000 0.454943
O O3 0.000000 0.250000 0.520824
O O4 0.648187 0.848373 0.762844
O O5 0.566184 0.907872 0.825296
O O6 0.580091 0.806259 0.945327
O O7 0.500000 0.250000 0.968315
O O8 0.582619 0.250000 0.813588
O O9 0.677275 0.070342 0.700826
O O10 0.644792 0.000000 0.500000
O O11 0.686070 0.948971 0.702863
O O12 0.599662 0.005867 0.743664
O O13 0.749574 0.144130 0.290016
O O14 0.689355 0.135264 0.488431
O O15 0.158600 0.309141 0.292038
O O16 0.500000 0.506869 0.797875
O O17 0.563410 0.500000 0.000000
#
# Coordination Sequence:
#
# PCOD9503168 Si02
#       8
#     8  16   8  16  16   8  16  16
#     4  11  21  38  61  84 116 152 201 248 283 342
#     4  10  20  40  62  87 109 154 205 240 282 358
#     4  11  25  42  60  78 117 163 193 237 299 357
#     4   9  19  36  59  86 116 151 194 237 285 350
#     4   9  18  36  65  88 114 149 193 241 295 345
#     4  12  25  37  56  90 121 151 195 244 299 343
#     4  10  20  36  58  90 122 153 186 241 296 346
#     4  10  21  36  58  85 115 152 194 243 297 342
#
# _framework density 18.175978000000001
#
# number of rings (size 3 to 8) (size 9 to 14) (size 15 to 20)
#    0.000    2.000    1.538    2.538    2.154    4.615 
#    0.000    2.308    0.000    0.923    0.000    0.000 
#    0.000    0.000    0.000    0.000    0.000    0.000 
#
# Total GULP energy -290098.993094 kJ/mol
# GULP energy per Si atom -5578.826790 kJ/mol
# Density = 1.813461 g / cm^3
# Si number density = 18.175978 Si / 1000 Ang^3
#
#
#
# Elastic Constant Matrix: (Units=GPa)
#
#
# Indices 1 2 3 4 5 6 
#
# 1 126.3149 54.9084 36.1334 0.0000 0.0000 0.0000
# 2 54.9084 68.9818 19.7148 0.0000 0.0000 0.0000
# 3 36.1334 19.7148 44.3962 0.0000 0.0000 0.0000
# 4 0.0000 0.0000 0.0000 -3.1908 0.0000 0.0000
# 5 0.0000 0.0000 0.0000 0.0000 24.7862 0.0000
# 6 0.0000 0.0000 0.0000 0.0000 0.0000 5.5176
#
#
#
# Elastic Compliance Matrix: (Units=1/GPa)
#
#
# Indices 1 2 3 4 5 6 
#
# 1 0.013922 -0.008983 -0.007342 0.000000 0.000000 0.000000
# 2 -0.008983 0.022401 -0.002636 0.000000 0.000000 0.000000
# 3 -0.007342 -0.002636 0.029670 0.000000 0.000000 0.000000
# 4 0.000000 0.000000 0.000000 -0.313396 0.000000 0.000000
# 5 0.000000 0.000000 0.000000 0.000000 0.040345 0.000000
# 6 0.000000 0.000000 0.000000 0.000000 0.000000 0.181239
#
#
# Mechanical properties :
#
#
# Convention : Reuss Voigt Hill
#
# Bulk Modulus (GPa) = 35.62408 51.24512 43.43460
# Shear Modulus (GPa) = 233.00393 14.01834 123.51113
#
# Velocity S-wave (km/s) = 11.33453 2.78016 8.25230
# Velocity P-wave (km/s) = 13.81802 6.20974 10.71211
#
# Compressibility (1/GPa) = 0.02807090
#
# Stress axis : x y z
#
# Youngs Moduli (GPa) = 71.82939 44.64184 33.70389
#
# Poissons Ratio (x) = 0.40103 0.24744
# Poissons Ratio (y) = 0.64527 0.08884
# Poissons Ratio (z) = 0.52734 0.11767
#
# Static dielectric constant tensor:
#      x y z
#    x 1.613170 0.000000 0.000000 
#    y 0.000000 1.667370 0.000000 
#    z 0.000000 0.000000 1.597110 
# 
# From -- ./inp_files/14010.got.cif
#   From: 2010.05.17/outbox.cif.g08.bks.cpg/sg67_8_cif.got.tgz:14010.got - 2010.06.03 18:28:57.
