data_PCOD9503584
_publ_section_title
;
Structure prediction by ZEFSAII (Michael W. Deem and Ramdas Pophale) SiO2 
 PCOD9503584
Probable space group: C M M A
;
_chemical_formula_sum "Si O2"
_cell_formula_units_Z 52
_cell_length_a 11.457897
_cell_length_b 15.587040
_cell_length_c 14.572472
_cell_angle_alpha 90.000000
_cell_angle_beta 90.000000
_cell_angle_gamma 90.000000
_cell_volume 2602.566248
_symmetry_space_group_name_H-M "C M M A"
_symmetry_group_IT_number 67
_symmetry_cell_setting 'orthorhombic'
loop_
_space_group_symop_operation_xyz
x,y,z
-x,1/2-y,z
x,-y,-z
-x,1/2+y,-z
-x,-y,-z
x,1/2+y,-z
-x,y,z
x,1/2-y,z
1/2+x,1/2+y,z
1/2-x,-y,z
1/2+x,1/2-y,-z
1/2-x,y,-z
1/2-x,1/2-y,-z
1/2+x,y,-z
1/2-x,1/2+y,z
1/2+x,-y,z
loop_
_atom_site_type_symbol
_atom_site_label
_atom_site_fract_x
_atom_site_fract_y
_atom_site_fract_z
Si Si1 0.800992 0.594441 0.258620
Si Si2 0.000000 0.250000 0.045135
Si Si3 0.373312 0.353943 0.456482
Si Si4 0.869682 0.750000 0.774811
Si Si5 0.000000 0.848001 0.132669
O O1 0.750000 0.500000 0.260825
O O2 0.869279 0.614560 0.352000
O O3 0.700463 0.666082 0.252922
O O4 0.886419 0.606815 0.172339
O O5 0.108316 0.250000 0.115115
O O6 0.000000 0.169352 0.976134
O O7 0.500000 0.380202 0.497744
O O8 0.370721 0.250000 0.458073
O O9 0.250000 0.383655 0.500000
O O10 0.000000 0.750000 0.733933
O O11 0.000000 0.750000 0.171854
#
# Coordination Sequence:
#
# PCOD9503584 Si02
#       5
#    16   4  16   8   8
#     4  12  24  40  68  99 132 177 220 270 329 403
#     4   8  22  42  74  90 130 176 218 270 350 382
#     4  10  21  41  67  97 131 178 227 273 326 394
#     4  10  23  43  61  98 134 161 220 278 329 390
#     4  10  20  43  72  86 124 185 221 258 333 401
#
# _framework density 19.980278999999999
#
# number of rings (size 3 to 8) (size 9 to 14) (size 15 to 20)
#    0.923    0.615    4.615    0.000    2.154    4.308 
#    0.000    6.154    0.000    0.000    0.000    0.000 
#    0.000    0.000    0.000    0.000    0.000    0.000 
#
# Total GULP energy -145021.452863 kJ/mol
# GULP energy per Si atom -5577.748187 kJ/mol
# Density = 1.993480 g / cm^3
# Si number density = 19.980279 Si / 1000 Ang^3
#
#
#
# Elastic Constant Matrix: (Units=GPa)
#
#
# Indices 1 2 3 4 5 6 
#
# 1 176.7271 60.1614 30.9109 0.0000 0.0000 0.0000
# 2 60.1614 84.5407 2.4691 0.0000 0.0000 0.0000
# 3 30.9109 2.4691 56.8363 0.0000 0.0000 0.0000
# 4 0.0000 0.0000 0.0000 -13.4207 0.0000 0.0000
# 5 0.0000 0.0000 0.0000 0.0000 50.3345 0.0000
# 6 0.0000 0.0000 0.0000 0.0000 0.0000 -4.7954
#
#
#
# Elastic Compliance Matrix: (Units=1/GPa)
#
#
# Indices 1 2 3 4 5 6 
#
# 1 0.008407 -0.005857 -0.004318 0.000000 0.000000 0.000000
# 2 -0.005857 0.015924 0.002494 0.000000 0.000000 0.000000
# 3 -0.004318 0.002494 0.019834 0.000000 0.000000 0.000000
# 4 0.000000 0.000000 0.000000 -0.074512 0.000000 0.000000
# 5 0.000000 0.000000 0.000000 0.000000 0.019867 0.000000
# 6 0.000000 0.000000 0.000000 0.000000 0.000000 -0.208534
#
#
# Mechanical properties :
#
#
# Convention : Reuss Voigt Hill
#
# Bulk Modulus (GPa) = 34.71874 56.13189 45.42531
# Shear Modulus (GPa) = -25.76666 21.39454 -2.18606
#
# Velocity S-wave (km/s) = -3.59500 3.27583 -1.04713
# Velocity P-wave (km/s) = 0.42681 6.51634 4.61762
#
# Compressibility (1/GPa) = 0.02880289
#
# Stress axis : x y z
#
# Youngs Moduli (GPa) = 118.94148 62.79945 50.41730
#
# Poissons Ratio (x) = 0.36781 0.21770
# Poissons Ratio (y) = 0.69663 -0.12572
# Poissons Ratio (z) = 0.51359 -0.15659
#
# Static dielectric constant tensor:
#      x y z
#    x 1.767320 0.000000 0.000000 
#    y 0.000000 1.648030 0.000000 
#    z 0.000000 0.000000 1.697260 
# 
# From -- ./inp_files/25573.got.cif
#   From: 2010.05.17/outbox.cif.g08.bks.cpg/sg67_13_cif.got.tgz:25573.got - 2010.06.03 18:28:57.
