data_PCOD9503778
_publ_section_title
;
Structure prediction by ZEFSAII (Michael W. Deem and Ramdas Pophale) SiO2 
 PCOD9503778
Probable space group: C M M A
;
_chemical_formula_sum "Si O2"
_cell_formula_units_Z 112
_cell_length_a 17.336090
_cell_length_b 14.526310
_cell_length_c 24.201678
_cell_angle_alpha 90.000000
_cell_angle_beta 90.000000
_cell_angle_gamma 90.000000
_cell_volume 6094.694474
_symmetry_space_group_name_H-M "C M M A"
_symmetry_group_IT_number 67
_symmetry_cell_setting 'orthorhombic'
loop_
_space_group_symop_operation_xyz
x,y,z
-x,1/2-y,z
x,-y,-z
-x,1/2+y,-z
-x,-y,-z
x,1/2+y,-z
-x,y,z
x,1/2-y,z
1/2+x,1/2+y,z
1/2-x,-y,z
1/2+x,1/2-y,-z
1/2-x,y,-z
1/2-x,1/2-y,-z
1/2+x,y,-z
1/2-x,1/2+y,z
1/2+x,-y,z
loop_
_atom_site_type_symbol
_atom_site_label
_atom_site_fract_x
_atom_site_fract_y
_atom_site_fract_z
Si Si1 0.409801 0.639790 0.938303
Si Si2 0.092465 0.641725 0.936167
Si Si3 0.141884 0.857468 0.649505
Si Si4 0.159978 0.503927 0.146698
Si Si5 0.591428 0.507691 0.564275
Si Si6 0.090548 0.990157 0.267258
Si Si7 0.827343 0.357705 0.647953
O O1 0.500000 0.613027 0.931554
O O2 0.405687 0.750000 0.934199
O O3 0.360384 0.590679 0.891878
O O4 0.386270 0.614769 0.000945
O O5 0.108217 0.750000 0.929856
O O6 0.134887 0.582495 0.890555
O O7 0.000000 0.628855 0.931428
O O8 0.120521 0.750000 0.649907
O O9 0.109650 0.913361 0.596930
O O10 0.234773 0.864752 0.648516
O O11 0.111485 0.913960 0.702392
O O12 0.250000 0.500000 0.159652
O O13 0.113074 0.506965 0.203440
O O14 0.611846 0.500000 0.500000
O O15 0.500000 0.526394 0.568892
O O16 0.638251 0.587562 0.595616
O O17 0.137990 0.911250 0.299385
O O18 0.000000 0.972835 0.274356
O O19 0.848228 0.250000 0.647581
#
# Coordination Sequence:
#
# PCOD9503778 Si02
#       7
#    16  16  16  16  16  16  16
#     4   9  19  37  59  81 107 141 181 224 270 324
#     4   9  19  37  59  81 107 141 181 224 270 324
#     4  10  21  38  60  84 112 146 182 225 278 329
#     4  12  24  36  54  81 113 145 178 223 276 327
#     4  10  21  36  56  85 119 152 188 229 266 309
#     4  11  23  39  59  80 106 143 186 230 272 322
#     4  10  21  38  60  84 112 146 182 225 278 329
#
# _framework density 18.376639000000001
#
# number of rings (size 3 to 8) (size 9 to 14) (size 15 to 20)
#    0.000    1.857    0.000    6.857    0.000    8.000 
#    0.000    4.286    0.000    0.000    0.000    0.000 
#    0.000    0.000    0.000    0.000    0.000    0.000 
#
# Total GULP energy -312869.408265 kJ/mol
# GULP energy per Si atom -5586.953719 kJ/mol
# Density = 1.833481 g / cm^3
# Si number density = 18.376639 Si / 1000 Ang^3
#
#
#
# Elastic Constant Matrix: (Units=GPa)
#
#
# Indices 1 2 3 4 5 6 
#
# 1 23.9884 -9.6214 7.7714 0.0000 0.0000 0.0000
# 2 -9.6214 75.6321 27.9593 0.0000 0.0000 0.0000
# 3 7.7714 27.9593 110.2843 0.0000 0.0000 0.0000
# 4 0.0000 0.0000 0.0000 8.4205 0.0000 0.0000
# 5 0.0000 0.0000 0.0000 0.0000 49.7681 0.0000
# 6 0.0000 0.0000 0.0000 0.0000 0.0000 20.9553
#
#
#
# Elastic Compliance Matrix: (Units=1/GPa)
#
#
# Indices 1 2 3 4 5 6 
#
# 1 0.046554 0.007873 -0.005276 0.000000 0.000000 0.000000
# 2 0.007873 0.015921 -0.004591 0.000000 0.000000 0.000000
# 3 -0.005276 -0.004591 0.010603 0.000000 0.000000 0.000000
# 4 0.000000 0.000000 0.000000 0.118758 0.000000 0.000000
# 5 0.000000 0.000000 0.000000 0.000000 0.020093 0.000000
# 6 0.000000 0.000000 0.000000 0.000000 0.000000 0.047721
#
#
# Mechanical properties :
#
#
# Convention : Reuss Voigt Hill
#
# Bulk Modulus (GPa) = 14.47420 29.12483 21.79951
# Shear Modulus (GPa) = 17.44175 28.08181 22.76178
#
# Velocity S-wave (km/s) = 3.08413 3.91337 3.52323
# Velocity P-wave (km/s) = 4.53608 6.02515 5.33285
#
# Compressibility (1/GPa) = 0.06908844
#
# Stress axis : x y z
#
# Youngs Moduli (GPa) = 21.48052 62.81172 94.31122
#
# Poissons Ratio (x) = -0.49450 0.49763
# Poissons Ratio (y) = -0.16911 0.43298
# Poissons Ratio (z) = 0.11334 0.28837
#
# Static dielectric constant tensor:
#      x y z
#    x 1.626190 0.000000 0.000000 
#    y 0.000000 1.626240 0.000000 
#    z 0.000000 0.000000 1.603100 
# 
# From -- ./inp_files/41903.got.cif
#   From: 2010.05.17/outbox.cif.g08.bks.cpg/sg67_21_cif.got.tgz:41903.got - 2010.06.03 18:28:57.
