data_PCOD9503427
_publ_section_title
;
Structure prediction by ZEFSAII (Michael W. Deem and Ramdas Pophale) SiO2 
 PCOD9503427
Probable space group: C M M A
;
_chemical_formula_sum "Si O2"
_cell_formula_units_Z 52
_cell_length_a 14.600824
_cell_length_b 19.722586
_cell_length_c 11.520162
_cell_angle_alpha 90.000000
_cell_angle_beta 90.000000
_cell_angle_gamma 90.000000
_cell_volume 3317.415051
_symmetry_space_group_name_H-M "C M M A"
_symmetry_group_IT_number 67
_symmetry_cell_setting 'orthorhombic'
loop_
_space_group_symop_operation_xyz
x,y,z
-x,1/2-y,z
x,-y,-z
-x,1/2+y,-z
-x,-y,-z
x,1/2+y,-z
-x,y,z
x,1/2-y,z
1/2+x,1/2+y,z
1/2-x,-y,z
1/2+x,1/2-y,-z
1/2-x,y,-z
1/2-x,1/2-y,-z
1/2+x,y,-z
1/2-x,1/2+y,z
1/2+x,-y,z
loop_
_atom_site_type_symbol
_atom_site_label
_atom_site_fract_x
_atom_site_fract_y
_atom_site_fract_z
Si Si1 0.500000 0.047252 0.330140
Si Si2 0.250000 0.500000 0.000000
Si Si3 0.197919 0.330731 0.378824
Si Si4 0.803680 0.433964 0.773025
Si Si5 0.000000 0.603854 0.591209
O O1 0.406934 0.069742 0.269471
O O2 0.500000 0.078242 0.458674
O O3 0.500000 0.965488 0.335203
O O4 0.197220 0.451133 0.910129
O O5 0.203025 0.250000 0.364983
O O6 0.250000 0.348713 0.500000
O O7 0.247894 0.369909 0.273970
O O8 0.092797 0.354793 0.386456
O O9 0.750000 0.500000 0.720958
#
# Coordination Sequence:
#
# PCOD9503427 Si02
#       5
#     8   4  16  16   8
#     4  11  20  29  60  83 107 143 186 233 278 323
#     4   8  20  38  60  76 110 144 194 244 276 312
#     4  11  22  35  53  81 119 150 177 223 282 342
#     4  10  20  38  55  81 111 144 189 233 275 324
#     4  11  19  32  52  85 110 148 184 222 274 340
#
# _framework density 15.674854
#
# number of rings (size 3 to 8) (size 9 to 14) (size 15 to 20)
#    0.923    0.615    6.154    0.462    0.000    1.231 
#    0.000    1.538    0.000    0.000    0.000    0.000 
#    0.000    0.000    0.000    0.000    0.000    0.000 
#
# Total GULP energy -144765.561672 kJ/mol
# GULP energy per Si atom -5567.906218 kJ/mol
# Density = 1.563918 g / cm^3
# Si number density = 15.674854 Si / 1000 Ang^3
#
#
#
# Elastic Constant Matrix: (Units=GPa)
#
#
# Indices 1 2 3 4 5 6 
#
# 1 152.1563 43.1819 43.8556 0.0000 0.0000 0.0000
# 2 43.1819 81.9313 36.2879 0.0000 0.0000 0.0000
# 3 43.8556 36.2879 79.3190 0.0000 0.0000 0.0000
# 4 0.0000 0.0000 0.0000 22.3979 0.0000 0.0000
# 5 0.0000 0.0000 0.0000 0.0000 -40.0664 0.0000
# 6 0.0000 0.0000 0.0000 0.0000 0.0000 20.4392
#
#
#
# Elastic Compliance Matrix: (Units=1/GPa)
#
#
# Indices 1 2 3 4 5 6 
#
# 1 0.008352 -0.002956 -0.003266 0.000000 0.000000 0.000000
# 2 -0.002956 0.016353 -0.005847 0.000000 0.000000 0.000000
# 3 -0.003266 -0.005847 0.017088 0.000000 0.000000 0.000000
# 4 0.000000 0.000000 0.000000 0.044647 0.000000 0.000000
# 5 0.000000 0.000000 0.000000 0.000000 -0.024959 0.000000
# 6 0.000000 0.000000 0.000000 0.000000 0.000000 0.048926
#
#
# Mechanical properties :
#
#
# Convention : Reuss Voigt Hill
#
# Bulk Modulus (GPa) = 56.63801 62.22860 59.43331
# Shear Modulus (GPa) = 35.60498 13.22623 24.41560
#
# Velocity S-wave (km/s) = 4.77117 2.90795 3.95096
# Velocity P-wave (km/s) = 8.15865 7.14568 7.66891
#
# Compressibility (1/GPa) = 0.01765599
#
# Stress axis : x y z
#
# Youngs Moduli (GPa) = 119.72766 61.15137 58.52054
#
# Poissons Ratio (x) = 0.18074 0.19112
# Poissons Ratio (y) = 0.35387 0.34218
# Poissons Ratio (z) = 0.39101 0.35756
#
# Static dielectric constant tensor:
#      x y z
#    x 1.502920 0.000000 0.000000 
#    y 0.000000 1.514730 0.000000 
#    z 0.000000 0.000000 1.520110 
# 
# From -- ./inp_files/17361.got.cif
#   From: 2010.05.17/outbox.cif.g08.bks.cpg/sg67_9_cif.got.tgz:17361.got - 2010.06.03 18:28:57.
