data_PCOD9503045
_publ_section_title
;
Structure prediction by ZEFSAII (Michael W. Deem and Ramdas Pophale) SiO2 
 PCOD9503045
Probable space group: C M M A
;
_chemical_formula_sum "Si O2"
_cell_formula_units_Z 88
_cell_length_a 24.962032
_cell_length_b 21.125855
_cell_length_c 7.340987
_cell_angle_alpha 90.000000
_cell_angle_beta 90.000000
_cell_angle_gamma 90.000000
_cell_volume 3871.227420
_symmetry_space_group_name_H-M "C M M A"
_symmetry_group_IT_number 67
_symmetry_cell_setting 'orthorhombic'
loop_
_space_group_symop_operation_xyz
x,y,z
-x,1/2-y,z
x,-y,-z
-x,1/2+y,-z
-x,-y,-z
x,1/2+y,-z
-x,y,z
x,1/2-y,z
1/2+x,1/2+y,z
1/2-x,-y,z
1/2+x,1/2-y,-z
1/2-x,y,-z
1/2-x,1/2-y,-z
1/2+x,y,-z
1/2-x,1/2+y,z
1/2+x,-y,z
loop_
_atom_site_type_symbol
_atom_site_label
_atom_site_fract_x
_atom_site_fract_y
_atom_site_fract_z
Si Si1 0.291272 0.057627 0.316928
Si Si2 0.938723 0.903684 0.029851
Si Si3 0.857089 0.000000 0.000000
Si Si4 0.229215 0.820564 0.791443
Si Si5 0.101134 0.822205 0.740769
Si Si6 0.407074 0.570944 0.549267
O O1 0.259539 0.122543 0.305299
O O2 0.341991 0.065103 0.449235
O O3 0.250000 0.000000 0.334926
O O4 0.320002 0.040737 0.127767
O O5 0.898788 0.950127 0.917172
O O6 0.924730 0.910598 0.244179
O O7 0.000000 0.921329 0.003720
O O8 0.926636 0.837223 0.934637
O O9 0.242827 0.750000 0.722915
O O10 0.165304 0.828641 0.773616
O O11 0.250000 0.823144 0.000000
O O12 0.091057 0.750000 0.683231
O O13 0.080421 0.872551 0.590593
O O14 0.427332 0.500000 0.500000
#
# Coordination Sequence:
#
# PCOD9503045 Si02
#       6
#    16  16   8  16  16  16
#     4  11  20  34  60  92 131 176 221 265 319 392
#     4  11  24  44  70  95 125 169 220 277 344 408
#     4  10  20  36  62  96 130 166 212 274 336 394
#     4  10  20  35  59  92 131 177 224 267 319 389
#     4  11  25  45  67  96 137 180 225 281 339 397
#     4  11  25  42  65 101 137 174 224 281 339 400
#
# _framework density 22.731808999999998
#
# number of rings (size 3 to 8) (size 9 to 14) (size 15 to 20)
#    0.000    1.273    0.000    8.182    0.000    5.455 
#    0.000    1.818    0.000    0.000    0.000    0.000 
#    0.000    0.000    0.000    0.000    0.000    0.000 
#
# Total GULP energy -245870.708234 kJ/mol
# GULP energy per Si atom -5587.970642 kJ/mol
# Density = 2.268007 g / cm^3
# Si number density = 22.731809 Si / 1000 Ang^3
#
#
#
# Elastic Constant Matrix: (Units=GPa)
#
#
# Indices 1 2 3 4 5 6 
#
# 1 95.9747 49.1549 13.2592 0.0000 0.0000 0.0000
# 2 49.1549 187.1708 75.8199 0.0000 0.0000 0.0000
# 3 13.2592 75.8199 108.2301 0.0000 0.0000 0.0000
# 4 0.0000 0.0000 0.0000 -828.0179 0.0000 0.0000
# 5 0.0000 0.0000 0.0000 0.0000 -34.2289 0.0000
# 6 0.0000 0.0000 0.0000 0.0000 0.0000 17.3770
#
#
#
# Elastic Compliance Matrix: (Units=1/GPa)
#
#
# Indices 1 2 3 4 5 6 
#
# 1 0.012122 -0.003605 0.001040 0.000000 0.000000 0.000000
# 2 -0.003605 0.008532 -0.005535 0.000000 0.000000 0.000000
# 3 0.001040 -0.005535 0.012990 0.000000 0.000000 0.000000
# 4 0.000000 0.000000 0.000000 -0.001208 0.000000 0.000000
# 5 0.000000 0.000000 0.000000 0.000000 -0.029215 0.000000
# 6 0.000000 0.000000 0.000000 0.000000 0.000000 0.057547
#
#
# Mechanical properties :
#
#
# Convention : Reuss Voigt Hill
#
# Bulk Modulus (GPa) = 57.32652 74.20483 65.76568
# Shear Modulus (GPa) = 60.39968 -152.09784 -45.84908
#
# Velocity S-wave (km/s) = 5.16026 -8.18871 -4.49593
# Velocity P-wave (km/s) = 7.79601 7.52942 1.42926
#
# Compressibility (1/GPa) = 0.01744393
#
# Stress axis : x y z
#
# Youngs Moduli (GPa) = 82.49471 117.21086 76.98386
#
# Poissons Ratio (x) = 0.42253 -0.08009
# Poissons Ratio (y) = 0.29739 0.42612
# Poissons Ratio (z) = -0.08582 0.64878
#
# Static dielectric constant tensor:
#      x y z
#    x 1.815720 0.000000 0.000000 
#    y 0.000000 1.892880 0.000000 
#    z 0.000000 0.000000 2.443330 
# 
# From -- ./inp_files/12429.got.cif
#   From: 2010.05.17/outbox.cif.g08.bks.cpg/sg67_7_cif.got.tgz:12429.got - 2010.06.03 18:28:57.
