data_PCOD9503793
_publ_section_title
;
Structure prediction by ZEFSAII (Michael W. Deem and Ramdas Pophale) SiO2 
 PCOD9503793
Probable space group: C M M A
;
_chemical_formula_sum "Si O2"
_cell_formula_units_Z 112
_cell_length_a 14.485039
_cell_length_b 14.737687
_cell_length_c 27.401221
_cell_angle_alpha 90.000000
_cell_angle_beta 90.000000
_cell_angle_gamma 90.000000
_cell_volume 5849.502259
_symmetry_space_group_name_H-M "C M M A"
_symmetry_group_IT_number 67
_symmetry_cell_setting 'orthorhombic'
loop_
_space_group_symop_operation_xyz
x,y,z
-x,1/2-y,z
x,-y,-z
-x,1/2+y,-z
-x,-y,-z
x,1/2+y,-z
-x,y,z
x,1/2-y,z
1/2+x,1/2+y,z
1/2-x,-y,z
1/2+x,1/2-y,-z
1/2-x,y,-z
1/2-x,1/2-y,-z
1/2+x,y,-z
1/2-x,1/2+y,z
1/2+x,-y,z
loop_
_atom_site_type_symbol
_atom_site_label
_atom_site_fract_x
_atom_site_fract_y
_atom_site_fract_z
Si Si1 0.233176 0.359914 0.257138
Si Si2 0.896022 0.908662 0.440126
Si Si3 0.248828 0.855799 0.941325
Si Si4 0.892268 0.012329 0.784765
Si Si5 0.892380 0.504628 0.098127
Si Si6 0.105188 0.123241 0.454614
Si Si7 0.247289 0.148715 0.368853
O O1 0.231942 0.250000 0.249907
O O2 0.151051 0.415804 0.231471
O O3 0.327134 0.408377 0.237773
O O4 0.221720 0.381320 0.314853
O O5 0.861547 0.859320 0.489743
O O6 0.829511 0.903313 0.394539
O O7 0.000000 0.876494 0.430479
O O8 0.898837 0.014818 0.451206
O O9 0.244207 0.750000 0.926371
O O10 0.340693 0.907501 0.923465
O O11 0.164714 0.916705 0.920379
O O12 0.250000 0.859583 0.000000
O O13 0.885820 0.013433 0.843402
O O14 0.000000 0.021395 0.770757
O O15 0.000000 0.499461 0.084356
O O16 0.166477 0.151435 0.409035
O O17 0.000000 0.154939 0.450787
O O18 0.283559 0.250000 0.362495
#
# Coordination Sequence:
#
# PCOD9503793 Si02
#       7
#    16  16  16  16  16  16  16
#     4  10  23  41  59  85 119 149 186 242 301 356
#     4   9  19  35  54  76 101 133 173 212 254 314
#     4  10  21  36  57  89 128 167 202 239 289 345
#     4  10  23  41  63  89 113 151 203 247 297 351
#     4  10  21  38  60  87 118 155 205 255 293 339
#     4   9  19  35  54  76 101 133 173 212 254 314
#     4  11  23  35  51  78 106 135 170 212 270 334
#
# _framework density 19.146927999999999
#
# number of rings (size 3 to 8) (size 9 to 14) (size 15 to 20)
#    0.000    2.143    0.000    4.286    4.000    8.571 
#    0.000    8.571    0.000    0.000    0.000    0.000 
#    0.000    0.000    0.000    0.000    0.000    0.000 
#
# Total GULP energy -312220.974039 kJ/mol
# GULP energy per Si atom -5575.374536 kJ/mol
# Density = 1.910335 g / cm^3
# Si number density = 19.146928 Si / 1000 Ang^3
#
#
#
# Elastic Constant Matrix: (Units=GPa)
#
#
# Indices 1 2 3 4 5 6 
#
# 1 110.2817 47.3131 39.0591 0.0000 0.0000 0.0000
# 2 47.3131 126.1895 41.8093 0.0000 0.0000 0.0000
# 3 39.0591 41.8093 86.7631 0.0000 0.0000 0.0000
# 4 0.0000 0.0000 0.0000 17.4509 0.0000 0.0000
# 5 0.0000 0.0000 0.0000 0.0000 22.2059 0.0000
# 6 0.0000 0.0000 0.0000 0.0000 0.0000 19.6694
#
#
#
# Elastic Compliance Matrix: (Units=1/GPa)
#
#
# Indices 1 2 3 4 5 6 
#
# 1 0.011759 -0.003159 -0.003771 0.000000 0.000000 0.000000
# 2 -0.003159 0.010279 -0.003531 0.000000 0.000000 0.000000
# 3 -0.003771 -0.003531 0.014925 0.000000 0.000000 0.000000
# 4 0.000000 0.000000 0.000000 0.057304 0.000000 0.000000
# 5 0.000000 0.000000 0.000000 0.000000 0.045033 0.000000
# 6 0.000000 0.000000 0.000000 0.000000 0.000000 0.050840
#
#
# Mechanical properties :
#
#
# Convention : Reuss Voigt Hill
#
# Bulk Modulus (GPa) = 62.34526 64.39968 63.37247
# Shear Modulus (GPa) = 23.10437 24.86876 23.98657
#
# Velocity S-wave (km/s) = 3.47751 3.60785 3.54328
# Velocity P-wave (km/s) = 6.98257 7.14583 7.06467
#
# Compressibility (1/GPa) = 0.01603971
#
# Stress axis : x y z
#
# Youngs Moduli (GPa) = 85.04305 97.28552 67.00235
#
# Poissons Ratio (x) = 0.30736 0.25268
# Poissons Ratio (y) = 0.26868 0.23658
# Poissons Ratio (z) = 0.32071 0.34351
#
# Static dielectric constant tensor:
#      x y z
#    x 1.670890 0.000000 0.000000 
#    y 0.000000 1.757460 0.000000 
#    z 0.000000 0.000000 1.702700 
# 
# From -- ./inp_files/41961.got.cif
#   From: 2010.05.17/outbox.cif.g08.bks.cpg/sg67_21_cif.got.tgz:41961.got - 2010.06.03 18:28:57.
