data_PCOD9503748
_publ_section_title
;
Structure prediction by ZEFSAII (Michael W. Deem and Ramdas Pophale) SiO2 
 PCOD9503748
Probable space group: C M M A
;
_chemical_formula_sum "Si O2"
_cell_formula_units_Z 104
_cell_length_a 26.540272
_cell_length_b 8.628125
_cell_length_c 22.618619
_cell_angle_alpha 90.000000
_cell_angle_beta 90.000000
_cell_angle_gamma 90.000000
_cell_volume 5179.500543
_symmetry_space_group_name_H-M "C M M A"
_symmetry_group_IT_number 67
_symmetry_cell_setting 'orthorhombic'
loop_
_space_group_symop_operation_xyz
x,y,z
-x,1/2-y,z
x,-y,-z
-x,1/2+y,-z
-x,-y,-z
x,1/2+y,-z
-x,y,z
x,1/2-y,z
1/2+x,1/2+y,z
1/2-x,-y,z
1/2+x,1/2-y,-z
1/2-x,y,-z
1/2-x,1/2-y,-z
1/2+x,y,-z
1/2-x,1/2+y,z
1/2+x,-y,z
loop_
_atom_site_type_symbol
_atom_site_label
_atom_site_fract_x
_atom_site_fract_y
_atom_site_fract_z
Si Si1 0.095379 0.433705 0.239686
Si Si2 0.500000 0.564896 0.434456
Si Si3 0.305528 0.936295 0.433342
Si Si4 0.055657 0.563232 0.888378
Si Si5 0.096942 0.433944 0.632490
Si Si6 0.157908 0.066463 0.938524
Si Si7 0.303096 0.935991 0.810652
O O1 0.089145 0.250000 0.249356
O O2 0.063965 0.477536 0.180937
O O3 0.085066 0.523831 0.299629
O O4 0.152352 0.476607 0.222497
O O5 0.500000 0.750000 0.433384
O O6 0.500000 0.500000 0.500000
O O7 0.449525 0.502672 0.403891
O O8 0.304178 0.750000 0.434855
O O9 0.315332 0.000000 0.500000
O O10 0.250000 0.000000 0.416012
O O11 0.350454 0.992767 0.390585
O O12 0.058791 0.750000 0.892064
O O13 0.101463 0.493870 0.925334
O O14 0.000000 0.513446 0.907563
O O15 0.100081 0.250000 0.624863
O O16 0.156409 0.250000 0.942999
O O17 0.189561 0.025497 0.880203
O O18 0.177225 0.000000 0.000000
O O19 0.307425 0.750000 0.803541
O O20 0.250000 0.000000 0.789979
#
# Coordination Sequence:
#
# PCOD9503748 Si02
#       7
#    16   8  16  16  16  16  16
#     4  10  21  38  60  87 117 152 193 241 292 348
#     4  12  26  46  68  94 128 168 211 258 311 368
#     4  11  22  40  64  92 123 160 201 250 304 362
#     4   9  19  36  58  82 110 147 187 233 288 346
#     4  12  25  42  63  93 127 164 207 254 306 366
#     4  10  21  36  55  81 113 148 190 240 289 348
#     4  10  21  38  59  84 115 153 195 242 297 356
#
# _framework density 20.079156999999999
#
# number of rings (size 3 to 8) (size 9 to 14) (size 15 to 20)
#    0.000    1.538    0.000    5.769    1.077    4.000 
#    0.000    4.615    0.000    0.000    0.000    0.000 
#    0.000    0.000    0.000    0.000    0.000    0.000 
#
# Total GULP energy -290703.652770 kJ/mol
# GULP energy per Si atom -5590.454861 kJ/mol
# Density = 2.003346 g / cm^3
# Si number density = 20.079157 Si / 1000 Ang^3
#
#
#
# Elastic Constant Matrix: (Units=GPa)
#
#
# Indices 1 2 3 4 5 6 
#
# 1 61.5305 13.3435 -6.7340 0.0000 0.0000 0.0000
# 2 13.3435 104.1378 25.0125 0.0000 0.0000 0.0000
# 3 -6.7340 25.0125 67.7600 0.0000 0.0000 0.0000
# 4 0.0000 0.0000 0.0000 37.4906 0.0000 0.0000
# 5 0.0000 0.0000 0.0000 0.0000 -8.0144 0.0000
# 6 0.0000 0.0000 0.0000 0.0000 0.0000 26.1716
#
#
#
# Elastic Compliance Matrix: (Units=1/GPa)
#
#
# Indices 1 2 3 4 5 6 
#
# 1 0.017176 -0.002865 0.002764 0.000000 0.000000 0.000000
# 2 -0.002865 0.011015 -0.004351 0.000000 0.000000 0.000000
# 3 0.002764 -0.004351 0.016639 0.000000 0.000000 0.000000
# 4 0.000000 0.000000 0.000000 0.026673 0.000000 0.000000
# 5 0.000000 0.000000 0.000000 0.000000 -0.124776 0.000000
# 6 0.000000 0.000000 0.000000 0.000000 0.000000 0.038209
#
#
# Mechanical properties :
#
#
# Convention : Reuss Voigt Hill
#
# Bulk Modulus (GPa) = 27.83397 32.96361 30.39879
# Shear Modulus (GPa) = 860.05218 24.58331 442.31775
#
# Velocity S-wave (km/s) = 20.71861 3.50282 14.85817
# Velocity P-wave (km/s) = 24.21239 5.72819 17.59335
#
# Compressibility (1/GPa) = 0.03592732
#
# Stress axis : x y z
#
# Youngs Moduli (GPa) = 58.22115 90.78787 60.10107
#
# Poissons Ratio (x) = 0.26009 -0.16614
# Poissons Ratio (y) = 0.16679 0.26148
# Poissons Ratio (z) = -0.16095 0.39498
#
# Static dielectric constant tensor:
#      x y z
#    x 1.776980 0.000000 0.000000 
#    y 0.000000 1.671090 0.000000 
#    z 0.000000 0.000000 1.726120 
# 
# From -- ./inp_files/39986.got.cif
#   From: 2010.05.17/outbox.cif.g08.bks.cpg/sg67_20_cif.got.tgz:39986.got - 2010.06.03 18:28:57.
