data_PCOD9503664
_publ_section_title
;
Structure prediction by ZEFSAII (Michael W. Deem and Ramdas Pophale) SiO2 
 PCOD9503664
Probable space group: C M M A
;
_chemical_formula_sum "Si O2"
_cell_formula_units_Z 96
_cell_length_a 21.209068
_cell_length_b 14.173264
_cell_length_c 16.885865
_cell_angle_alpha 90.000000
_cell_angle_beta 90.000000
_cell_angle_gamma 90.000000
_cell_volume 5075.920062
_symmetry_space_group_name_H-M "C M M A"
_symmetry_group_IT_number 67
_symmetry_cell_setting 'orthorhombic'
loop_
_space_group_symop_operation_xyz
x,y,z
-x,1/2-y,z
x,-y,-z
-x,1/2+y,-z
-x,-y,-z
x,1/2+y,-z
-x,y,z
x,1/2-y,z
1/2+x,1/2+y,z
1/2-x,-y,z
1/2+x,1/2-y,-z
1/2-x,y,-z
1/2-x,1/2-y,-z
1/2+x,y,-z
1/2-x,1/2+y,z
1/2+x,-y,z
loop_
_atom_site_type_symbol
_atom_site_label
_atom_site_fract_x
_atom_site_fract_y
_atom_site_fract_z
Si Si1 0.926381 0.988618 0.755657
Si Si2 0.643578 0.011898 0.911590
Si Si3 0.320011 0.635462 0.524831
Si Si4 0.826912 0.362458 0.706642
Si Si5 0.426190 0.636383 0.397740
Si Si6 0.759315 0.861627 0.140284
O O1 0.906032 0.960782 0.844137
O O2 0.911447 0.913301 0.686187
O O3 0.000000 0.006645 0.751538
O O4 0.886474 0.082096 0.739527
O O5 0.699861 0.087958 0.899693
O O6 0.678933 0.912606 0.894117
O O7 0.618626 0.000000 0.000000
O O8 0.322404 0.750000 0.523799
O O9 0.250000 0.607582 0.500000
O O10 0.323756 0.606375 0.616013
O O11 0.376216 0.605990 0.465485
O O12 0.835805 0.250000 0.708938
O O13 0.767149 0.381342 0.764714
O O14 0.500000 0.615136 0.418166
O O15 0.421451 0.750000 0.389188
O O16 0.758321 0.750000 0.128062
#
# Coordination Sequence:
#
# PCOD9503664 Si02
#       6
#    16  16  16  16  16  16
#     4  10  22  38  55  76 104 142 186 226 267 321
#     4  10  21  35  54  82 108 134 176 223 272 332
#     4   9  18  32  53  82 113 142 180 229 276 314
#     4   9  19  35  54  80 109 141 179 219 266 321
#     4   9  19  36  55  76 108 150 191 227 266 321
#     4   9  18  34  57  81 110 141 171 212 268 330
#
# _framework density 18.912828000000001
#
# number of rings (size 3 to 8) (size 9 to 14) (size 15 to 20)
#    0.000    2.667    0.000    1.000    2.333    4.000 
#    0.000    4.167    0.000    0.000    0.000    4.667 
#    0.000    0.000    0.000    0.000    0.000    0.000 
#
# Total GULP energy -267466.781481 kJ/mol
# GULP energy per Si atom -5572.224614 kJ/mol
# Density = 1.886978 g / cm^3
# Si number density = 18.912828 Si / 1000 Ang^3
#
#
#
# Elastic Constant Matrix: (Units=GPa)
#
#
# Indices 1 2 3 4 5 6 
#
# 1 50.0581 6.7737 29.1547 0.0000 0.0000 0.0000
# 2 6.7737 64.2961 16.7188 0.0000 0.0000 0.0000
# 3 29.1547 16.7188 131.5324 0.0000 0.0000 0.0000
# 4 0.0000 0.0000 0.0000 24.0063 0.0000 0.0000
# 5 0.0000 0.0000 0.0000 0.0000 22.8360 0.0000
# 6 0.0000 0.0000 0.0000 0.0000 0.0000 3.5236
#
#
#
# Elastic Compliance Matrix: (Units=1/GPa)
#
#
# Indices 1 2 3 4 5 6 
#
# 1 0.023018 -0.001136 -0.004958 0.000000 0.000000 0.000000
# 2 -0.001136 0.016141 -0.001800 0.000000 0.000000 0.000000
# 3 -0.004958 -0.001800 0.008930 0.000000 0.000000 0.000000
# 4 0.000000 0.000000 0.000000 0.041656 0.000000 0.000000
# 5 0.000000 0.000000 0.000000 0.000000 0.043791 0.000000
# 6 0.000000 0.000000 0.000000 0.000000 0.000000 0.283797
#
#
# Mechanical properties :
#
#
# Convention : Reuss Voigt Hill
#
# Bulk Modulus (GPa) = 30.95752 39.02009 34.98881
# Shear Modulus (GPa) = 11.26415 22.95580 17.10998
#
# Velocity S-wave (km/s) = 2.44310 3.48770 3.01105
# Velocity P-wave (km/s) = 4.93583 6.07413 5.53432
#
# Compressibility (1/GPa) = 0.03230232
#
# Stress axis : x y z
#
# Youngs Moduli (GPa) = 43.44441 61.95515 111.97778
#
# Poissons Ratio (x) = 0.07037 0.55515
# Poissons Ratio (y) = 0.04935 0.20154
# Poissons Ratio (z) = 0.21538 0.11151
#
# Static dielectric constant tensor:
#      x y z
#    x 1.641000 0.000000 0.000000 
#    y 0.000000 1.658120 0.000000 
#    z 0.000000 0.000000 1.685680 
# 
# From -- ./inp_files/29265.got.cif
#   From: 2010.05.17/outbox.cif.g08.bks.cpg/sg67_15_cif.got.tgz:29265.got - 2010.06.03 18:28:57.
