data_PCOD9503761
_publ_section_title
;
Structure prediction by ZEFSAII (Michael W. Deem and Ramdas Pophale) SiO2 
 PCOD9503761
Probable space group: C M M A
;
_chemical_formula_sum "Si O2"
_cell_formula_units_Z 64
_cell_length_a 28.783985
_cell_length_b 8.245189
_cell_length_c 14.473317
_cell_angle_alpha 90.000000
_cell_angle_beta 90.000000
_cell_angle_gamma 90.000000
_cell_volume 3434.943589
_symmetry_space_group_name_H-M "C M M A"
_symmetry_group_IT_number 67
_symmetry_cell_setting 'orthorhombic'
loop_
_space_group_symop_operation_xyz
x,y,z
-x,1/2-y,z
x,-y,-z
-x,1/2+y,-z
-x,-y,-z
x,1/2+y,-z
-x,y,z
x,1/2-y,z
1/2+x,1/2+y,z
1/2-x,-y,z
1/2+x,1/2-y,-z
1/2-x,y,-z
1/2-x,1/2-y,-z
1/2+x,y,-z
1/2-x,1/2+y,z
1/2+x,-y,z
loop_
_atom_site_type_symbol
_atom_site_label
_atom_site_fract_x
_atom_site_fract_y
_atom_site_fract_z
Si Si1 0.626410 0.563356 0.747646
Si Si2 0.802827 0.944524 0.601469
Si Si3 0.301233 0.444833 0.106113
Si Si4 0.946962 0.556826 0.601513
O O1 0.614931 0.750000 0.766630
O O2 0.667184 0.543188 0.673423
O O3 0.653293 0.493811 0.837843
O O4 0.583153 0.489291 0.691417
O O5 0.807727 0.750000 0.612437
O O6 0.817628 0.000000 0.500000
O O7 0.750000 0.000000 0.611700
O O8 0.301449 0.250000 0.111136
O O9 0.250000 0.500000 0.141785
O O10 0.303942 0.500000 0.000000
O O11 0.929386 0.500000 0.500000
O O12 0.947728 0.750000 0.597357
O O13 0.000000 0.494524 0.610331
#
# Coordination Sequence:
#
# PCOD9503761 Si02
#       4
#    16  16  16  16
#     4  11  22  35  53  78 105 137 176 217 264 315
#     4  11  21  33  48  69 101 138 173 211 254 306
#     4  10  21  36  56  80 108 141 177 219 265 315
#     4  10  21  37  57  81 109 142 179 221 268 317
#
# _framework density 18.632038000000001
#
# number of rings (size 3 to 8) (size 9 to 14) (size 15 to 20)
#    0.000    1.500    0.000    7.500    0.000    7.500 
#    0.000    0.000    0.000    0.750    0.000    0.000 
#    0.000    0.000    0.000    0.000    0.000    0.000 
#
# Total GULP energy -178421.490298 kJ/mol
# GULP energy per Si atom -5575.671572 kJ/mol
# Density = 1.858963 g / cm^3
# Si number density = 18.632038 Si / 1000 Ang^3
#
#
#
# Elastic Constant Matrix: (Units=GPa)
#
#
# Indices 1 2 3 4 5 6 
#
# 1 104.8202 11.6895 49.9836 0.0000 0.0000 0.0000
# 2 11.6895 45.2381 -3.9907 0.0000 0.0000 0.0000
# 3 49.9836 -3.9907 72.5160 0.0000 0.0000 0.0000
# 4 0.0000 0.0000 0.0000 19.4287 0.0000 0.0000
# 5 0.0000 0.0000 0.0000 0.0000 33.4748 0.0000
# 6 0.0000 0.0000 0.0000 0.0000 0.0000 25.7404
#
#
#
# Elastic Compliance Matrix: (Units=1/GPa)
#
#
# Indices 1 2 3 4 5 6 
#
# 1 0.015212 -0.004880 -0.010754 0.000000 0.000000 0.000000
# 2 -0.004880 0.023778 0.004672 0.000000 0.000000 0.000000
# 3 -0.010754 0.004672 0.021460 0.000000 0.000000 0.000000
# 4 0.000000 0.000000 0.000000 0.051470 0.000000 0.000000
# 5 0.000000 0.000000 0.000000 0.000000 0.029873 0.000000
# 6 0.000000 0.000000 0.000000 0.000000 0.000000 0.038849
#
#
# Mechanical properties :
#
#
# Convention : Reuss Voigt Hill
#
# Bulk Modulus (GPa) = 25.95582 37.54879 31.75230
# Shear Modulus (GPa) = 23.21161 26.72154 24.96658
#
# Velocity S-wave (km/s) = 3.53340 3.79115 3.66455
# Velocity P-wave (km/s) = 5.53241 6.27378 5.91472
#
# Compressibility (1/GPa) = 0.03852701
#
# Stress axis : x y z
#
# Youngs Moduli (GPa) = 65.73565 42.05513 46.59886
#
# Poissons Ratio (x) = 0.20521 0.50113
# Poissons Ratio (y) = 0.32076 -0.21771
# Poissons Ratio (z) = 0.70693 -0.19648
#
# Static dielectric constant tensor:
#      x y z
#    x 1.730190 0.000000 0.000000 
#    y 0.000000 1.658650 0.000000 
#    z 0.000000 0.000000 1.716700 
# 
# From -- ./inp_files/25225.got.cif
#   From: 2010.05.17/outbox.cif.g08.bks.cpg/sg67_13_cif.got.tgz:25225.got - 2010.06.03 18:28:57.
