data_PCOD9503144
_publ_section_title
;
Structure prediction by ZEFSAII (Michael W. Deem and Ramdas Pophale) SiO2 
 PCOD9503144
Probable space group: C M M A
;
_chemical_formula_sum "Si O2"
_cell_formula_units_Z 72
_cell_length_a 15.444621
_cell_length_b 9.448695
_cell_length_c 25.759018
_cell_angle_alpha 90.000000
_cell_angle_beta 90.000000
_cell_angle_gamma 90.000000
_cell_volume 3759.052476
_symmetry_space_group_name_H-M "C M M A"
_symmetry_group_IT_number 67
_symmetry_cell_setting 'orthorhombic'
loop_
_space_group_symop_operation_xyz
x,y,z
-x,1/2-y,z
x,-y,-z
-x,1/2+y,-z
-x,-y,-z
x,1/2+y,-z
-x,y,z
x,1/2-y,z
1/2+x,1/2+y,z
1/2-x,-y,z
1/2+x,1/2-y,-z
1/2-x,y,-z
1/2-x,1/2-y,-z
1/2+x,y,-z
1/2-x,1/2+y,z
1/2+x,-y,z
loop_
_atom_site_type_symbol
_atom_site_label
_atom_site_fract_x
_atom_site_fract_y
_atom_site_fract_z
Si Si1 0.893984 0.913951 0.651152
Si Si2 0.600317 0.077878 0.765001
Si Si3 0.393978 0.587594 0.550588
Si Si4 0.833260 0.919543 0.876378
Si Si5 0.000000 0.581479 0.946107
O O1 0.868235 0.750000 0.643488
O O2 0.866100 0.966073 0.708300
O O3 0.000000 0.914353 0.652361
O O4 0.866103 0.010412 0.603384
O O5 0.500000 0.033632 0.769947
O O6 0.600208 0.250000 0.764032
O O7 0.649044 0.033788 0.816885
O O8 0.366696 0.500000 0.500000
O O9 0.500000 0.587536 0.550683
O O10 0.365628 0.750000 0.548249
O O11 0.820912 0.750000 0.876302
O O12 0.916305 0.951412 0.911334
O O13 0.750000 0.000000 0.896744
O O14 0.000000 0.750000 0.955727
O O15 0.000000 0.500000 0.000000
#
# Coordination Sequence:
#
# PCOD9503144 Si02
#       5
#    16  16  16  16   8
#     4   8  13  21  36  57  78 108 154 204 251 304
#     4   8  13  26  49  71  94 129 173 214 258 317
#     4   9  15  21  29  44  73 113 155 201 252 306
#     4  10  20  36  58  84 112 146 185 227 272 322
#     4  10  22  40  62  84 114 152 189 226 269 320
#
# _framework density 19.153762
#
# number of rings (size 3 to 8) (size 9 to 14) (size 15 to 20)
#    0.000    3.111    1.111    2.000    0.000    4.000 
#    0.000    3.333    0.000    1.333    0.000    0.000 
#    0.000    0.889    0.000   10.222    0.000   12.444 
#
# Total GULP energy -200752.023316 kJ/mol
# GULP energy per Si atom -5576.445092 kJ/mol
# Density = 1.911017 g / cm^3
# Si number density = 19.153762 Si / 1000 Ang^3
#
#
#
# Elastic Constant Matrix: (Units=GPa)
#
#
# Indices 1 2 3 4 5 6 
#
# 1 77.6707 36.9799 51.6841 0.0000 0.0000 0.0000
# 2 36.9799 68.7139 75.1775 0.0000 0.0000 0.0000
# 3 51.6841 75.1775 172.0703 0.0000 0.0000 0.0000
# 4 0.0000 0.0000 0.0000 32.2960 0.0000 0.0000
# 5 0.0000 0.0000 0.0000 0.0000 -12.6016 0.0000
# 6 0.0000 0.0000 0.0000 0.0000 0.0000 13.3695
#
#
#
# Elastic Compliance Matrix: (Units=1/GPa)
#
#
# Indices 1 2 3 4 5 6 
#
# 1 0.017741 -0.007122 -0.002217 0.000000 0.000000 0.000000
# 2 -0.007122 0.030738 -0.011290 0.000000 0.000000 0.000000
# 3 -0.002217 -0.011290 0.011410 0.000000 0.000000 0.000000
# 4 0.000000 0.000000 0.000000 0.030964 0.000000 0.000000
# 5 0.000000 0.000000 0.000000 0.000000 -0.079355 0.000000
# 6 0.000000 0.000000 0.000000 0.000000 0.000000 0.074797
#
#
# Mechanical properties :
#
#
# Convention : Reuss Voigt Hill
#
# Bulk Modulus (GPa) = 53.67510 71.79310 62.73410
# Shear Modulus (GPa) = 37.37902 16.92035 27.14969
#
# Velocity S-wave (km/s) = 4.42240 2.97542 3.76900
# Velocity P-wave (km/s) = 7.35941 7.02624 7.19475
#
# Compressibility (1/GPa) = 0.01863061
#
# Stress axis : x y z
#
# Youngs Moduli (GPa) = 56.36623 32.53263 87.63986
#
# Poissons Ratio (x) = 0.23170 0.19432
# Poissons Ratio (y) = 0.40144 0.98949
# Poissons Ratio (z) = 0.12498 0.36731
#
# Static dielectric constant tensor:
#      x y z
#    x 1.695460 0.000000 0.000000 
#    y 0.000000 1.640510 0.000000 
#    z 0.000000 0.000000 1.669760 
# 
# From -- ./inp_files/43115.got.cif
#   From: 2010.05.17/outbox.cif.g08.bks.cpg/sg67_22_cif.got.tgz:43115.got - 2010.06.03 18:28:57.
