data_PCOD9503337
_publ_section_title
;
Structure prediction by ZEFSAII (Michael W. Deem and Ramdas Pophale) SiO2 
 PCOD9503337
Probable space group: C M M A
;
_chemical_formula_sum "Si O2"
_cell_formula_units_Z 96
_cell_length_a 15.115702
_cell_length_b 15.340652
_cell_length_c 21.050638
_cell_angle_alpha 90.000000
_cell_angle_beta 90.000000
_cell_angle_gamma 90.000000
_cell_volume 4881.321385
_symmetry_space_group_name_H-M "C M M A"
_symmetry_group_IT_number 67
_symmetry_cell_setting 'orthorhombic'
loop_
_space_group_symop_operation_xyz
x,y,z
-x,1/2-y,z
x,-y,-z
-x,1/2+y,-z
-x,-y,-z
x,1/2+y,-z
-x,y,z
x,1/2-y,z
1/2+x,1/2+y,z
1/2-x,-y,z
1/2+x,1/2-y,-z
1/2-x,y,-z
1/2-x,1/2-y,-z
1/2+x,y,-z
1/2-x,1/2+y,z
1/2+x,-y,z
loop_
_atom_site_type_symbol
_atom_site_label
_atom_site_fract_x
_atom_site_fract_y
_atom_site_fract_z
Si Si1 0.860650 0.654213 0.173316
Si Si2 0.603158 0.853201 0.513441
Si Si3 0.098094 0.543623 0.837273
Si Si4 0.291984 0.349324 0.932757
Si Si5 0.232863 0.099546 0.400734
Si Si6 0.295136 0.346114 0.738291
O O1 0.904528 0.750000 0.170940
O O2 0.905274 0.561038 0.164135
O O3 0.786822 0.655710 0.118203
O O4 0.806559 0.649249 0.239194
O O5 0.500000 0.882518 0.522187
O O6 0.599718 0.750000 0.500955
O O7 0.673658 0.866177 0.570821
O O8 0.656128 0.895341 0.454224
O O9 0.141578 0.581648 0.901528
O O10 0.154408 0.580281 0.778040
O O11 0.000000 0.579318 0.831572
O O12 0.328862 0.250000 0.938948
O O13 0.250000 0.374636 0.000000
O O14 0.201245 0.145771 0.336931
O O15 0.250000 0.000000 0.383910
O O16 0.328112 0.250000 0.758651
#
# Coordination Sequence:
#
# PCOD9503337 Si02
#       6
#    16  16  16  16  16  16
#     4   9  19  36  56  78 109 151 192 226 267 328
#     4  10  21  37  56  80 112 148 190 240 288 339
#     4  11  22  35  56  87 118 144 179 234 290 338
#     4   9  18  35  59  82 108 148 191 228 271 328
#     4  11  21  35  58  83 112 150 189 233 288 352
#     4  10  20  37  60  81 107 146 190 233 279 339
#
# _framework density 19.666805
#
# number of rings (size 3 to 8) (size 9 to 14) (size 15 to 20)
#    0.000    2.000    0.000    7.500    0.000    5.000 
#    0.000    4.167    0.000    4.000    0.000    0.000 
#    0.000    0.000    0.000    0.000    0.000    0.000 
#
# Total GULP energy -267464.763463 kJ/mol
# GULP energy per Si atom -5572.182572 kJ/mol
# Density = 1.962204 g / cm^3
# Si number density = 19.666805 Si / 1000 Ang^3
#
#
#
# Elastic Constant Matrix: (Units=GPa)
#
#
# Indices 1 2 3 4 5 6 
#
# 1 105.1882 30.7891 19.2186 0.0000 0.0000 0.0000
# 2 30.7891 126.4237 14.1448 0.0000 0.0000 0.0000
# 3 19.2186 14.1448 92.2553 0.0000 0.0000 0.0000
# 4 0.0000 0.0000 0.0000 23.0667 0.0000 0.0000
# 5 0.0000 0.0000 0.0000 0.0000 4.0317 0.0000
# 6 0.0000 0.0000 0.0000 0.0000 0.0000 -385.3435
#
#
#
# Elastic Compliance Matrix: (Units=1/GPa)
#
#
# Indices 1 2 3 4 5 6 
#
# 1 0.010532 -0.002360 -0.001832 0.000000 0.000000 0.000000
# 2 -0.002360 0.008577 -0.000823 0.000000 0.000000 0.000000
# 3 -0.001832 -0.000823 0.011347 0.000000 0.000000 0.000000
# 4 0.000000 0.000000 0.000000 0.043352 0.000000 0.000000
# 5 0.000000 0.000000 0.000000 0.000000 0.248034 0.000000
# 6 0.000000 0.000000 0.000000 0.000000 0.000000 -0.002595
#
#
# Mechanical properties :
#
#
# Convention : Reuss Voigt Hill
#
# Bulk Modulus (GPa) = 48.95902 50.24133 49.60018
# Shear Modulus (GPa) = 14.87709 -54.33470 -19.72880
#
# Velocity S-wave (km/s) = 2.75336 -5.26190 -3.17069
# Velocity P-wave (km/s) = 5.92083 3.36379 3.44537
#
# Compressibility (1/GPa) = 0.02042525
#
# Stress axis : x y z
#
# Youngs Moduli (GPa) = 94.94582 116.59377 88.12574
#
# Poissons Ratio (x) = 0.27516 0.16147
# Poissons Ratio (y) = 0.22407 0.07256
# Poissons Ratio (z) = 0.17396 0.09600
#
# Static dielectric constant tensor:
#      x y z
#    x 1.675140 0.000000 0.000000 
#    y 0.000000 1.741710 0.000000 
#    z 0.000000 0.000000 1.682770 
# 
# From -- ./inp_files/38398.got.cif
#   From: 2010.05.17/outbox.cif.g08.bks.cpg/sg67_20_cif.got.tgz:38398.got - 2010.06.03 18:28:57.
