data_PCOD9503593
_publ_section_title
;
Structure prediction by ZEFSAII (Michael W. Deem and Ramdas Pophale) SiO2 
 PCOD9503593
Probable space group: C M M A
;
_chemical_formula_sum "Si O2"
_cell_formula_units_Z 80
_cell_length_a 22.522072
_cell_length_b 23.755781
_cell_length_c 7.972898
_cell_angle_alpha 90.000000
_cell_angle_beta 90.000000
_cell_angle_gamma 90.000000
_cell_volume 4265.734914
_symmetry_space_group_name_H-M "C M M A"
_symmetry_group_IT_number 67
_symmetry_cell_setting 'orthorhombic'
loop_
_space_group_symop_operation_xyz
x,y,z
-x,1/2-y,z
x,-y,-z
-x,1/2+y,-z
-x,-y,-z
x,1/2+y,-z
-x,y,z
x,1/2-y,z
1/2+x,1/2+y,z
1/2-x,-y,z
1/2+x,1/2-y,-z
1/2-x,y,-z
1/2-x,1/2-y,-z
1/2+x,y,-z
1/2-x,1/2+y,z
1/2+x,-y,z
loop_
_atom_site_type_symbol
_atom_site_label
_atom_site_fract_x
_atom_site_fract_y
_atom_site_fract_z
Si Si1 0.571224 0.064267 0.555877
Si Si2 0.128230 0.124273 0.125424
Si Si3 0.569816 0.868930 0.771404
Si Si4 0.604572 0.750000 0.632144
Si Si5 0.728934 0.750000 0.763796
Si Si6 0.750000 0.849938 0.000000
Si Si7 0.870759 0.250000 0.261205
O O1 0.500000 0.072358 0.578766
O O2 0.603078 0.086296 0.724005
O O3 0.592408 0.100025 0.395558
O O4 0.580937 0.000000 0.500000
O O5 0.116829 0.190596 0.169454
O O6 0.099072 0.112766 0.945323
O O7 0.199016 0.117446 0.098177
O O8 0.500000 0.880385 0.784582
O O9 0.580766 0.803845 0.729606
O O10 0.676353 0.750000 0.633142
O O11 0.592034 0.750000 0.433946
O O12 0.798427 0.750000 0.718669
O O13 0.718743 0.806162 0.873061
#
# Coordination Sequence:
#
# PCOD9503593 Si02
#       7
#    16  16  16   8   8   8   8
#     4  10  23  43  64  86 113 155 212 256 293 353
#     4  11  20  39  61  90 122 157 197 247 307 360
#     4  11  23  37  58  88 120 154 193 246 307 364
#     4  12  18  35  53  90 123 152 193 241 296 366
#     4   9  17  31  51  85 122 154 197 232 268 361
#     4   9  18  32  58  87 118 154 197 231 286 366
#     4  10  21  32  58  89 120 164 193 234 298 368
#
# _framework density 18.754096000000001
#
# number of rings (size 3 to 8) (size 9 to 14) (size 15 to 20)
#    0.000    1.600    4.000    2.400    0.000    0.800 
#    0.000    5.500    0.000    3.600    0.000    0.000 
#    0.000    0.000    0.000    0.000    0.000    0.000 
#
# Total GULP energy -223052.628382 kJ/mol
# GULP energy per Si atom -5576.315710 kJ/mol
# Density = 1.871141 g / cm^3
# Si number density = 18.754096 Si / 1000 Ang^3
#
#
#
# Elastic Constant Matrix: (Units=GPa)
#
#
# Indices 1 2 3 4 5 6 
#
# 1 54.3302 17.3667 47.6207 0.0000 0.0000 0.0000
# 2 17.3667 67.8819 45.1132 0.0000 0.0000 0.0000
# 3 47.6207 45.1132 160.7150 0.0000 0.0000 0.0000
# 4 0.0000 0.0000 0.0000 13.8400 0.0000 0.0000
# 5 0.0000 0.0000 0.0000 0.0000 33.0607 0.0000
# 6 0.0000 0.0000 0.0000 0.0000 0.0000 14.1895
#
#
#
# Elastic Compliance Matrix: (Units=1/GPa)
#
#
# Indices 1 2 3 4 5 6 
#
# 1 0.025044 -0.001814 -0.006911 0.000000 0.000000 0.000000
# 2 -0.001814 0.018241 -0.004583 0.000000 0.000000 0.000000
# 3 -0.006911 -0.004583 0.009557 0.000000 0.000000 0.000000
# 4 0.000000 0.000000 0.000000 0.072255 0.000000 0.000000
# 5 0.000000 0.000000 0.000000 0.000000 0.030247 0.000000
# 6 0.000000 0.000000 0.000000 0.000000 0.000000 0.070475
#
#
# Mechanical properties :
#
#
# Convention : Reuss Voigt Hill
#
# Bulk Modulus (GPa) = 38.13150 55.90315 47.01732
# Shear Modulus (GPa) = 19.14417 23.73980 21.44198
#
# Velocity S-wave (km/s) = 3.19846 3.56173 3.38497
# Velocity P-wave (km/s) = 5.83238 6.84016 6.35628
#
# Compressibility (1/GPa) = 0.02622504
#
# Stress axis : x y z
#
# Youngs Moduli (GPa) = 39.93027 54.82072 104.64050
#
# Poissons Ratio (x) = 0.09944 0.72321
# Poissons Ratio (y) = 0.07243 0.47956
# Poissons Ratio (z) = 0.27597 0.25124
#
# Static dielectric constant tensor:
#      x y z
#    x 1.669370 0.000000 0.000000 
#    y 0.000000 1.674830 0.000000 
#    z 0.000000 0.000000 1.675930 
# 
# From -- ./inp_files/12403.got.cif
#   From: 2010.05.17/outbox.cif.g08.bks.cpg/sg67_7_cif.got.tgz:12403.got - 2010.06.03 18:28:57.
