data_PCOD9503364
_publ_section_title
;
Structure prediction by ZEFSAII (Michael W. Deem and Ramdas Pophale) SiO2 
 PCOD9503364
Probable space group: C M M A
;
_chemical_formula_sum "Si O2"
_cell_formula_units_Z 96
_cell_length_a 22.678756
_cell_length_b 8.476152
_cell_length_c 24.375540
_cell_angle_alpha 90.000000
_cell_angle_beta 90.000000
_cell_angle_gamma 90.000000
_cell_volume 4685.675515
_symmetry_space_group_name_H-M "C M M A"
_symmetry_group_IT_number 67
_symmetry_cell_setting 'orthorhombic'
loop_
_space_group_symop_operation_xyz
x,y,z
-x,1/2-y,z
x,-y,-z
-x,1/2+y,-z
-x,-y,-z
x,1/2+y,-z
-x,y,z
x,1/2-y,z
1/2+x,1/2+y,z
1/2-x,-y,z
1/2+x,1/2-y,-z
1/2-x,y,-z
1/2-x,1/2-y,-z
1/2+x,y,-z
1/2-x,1/2+y,z
1/2+x,-y,z
loop_
_atom_site_type_symbol
_atom_site_label
_atom_site_fract_x
_atom_site_fract_y
_atom_site_fract_z
Si Si1 0.686285 0.436835 0.159880
Si Si2 0.000000 0.442221 0.126197
Si Si3 0.628076 0.940384 0.266865
Si Si4 0.000000 0.941953 0.746183
Si Si5 0.314045 0.559360 0.376105
Si Si6 0.065640 0.559030 0.562504
Si Si7 0.116921 0.561345 0.938384
O O1 0.685417 0.250000 0.158842
O O2 0.750000 0.500000 0.175785
O O3 0.642568 0.499372 0.206541
O O4 0.669054 0.502684 0.100521
O O5 0.057438 0.493775 0.092602
O O6 0.000000 0.250000 0.127177
O O7 0.000000 0.492153 0.189694
O O8 0.629468 0.750000 0.265459
O O9 0.561328 0.990732 0.280889
O O10 0.673808 0.992609 0.313213
O O11 0.000000 0.750000 0.745859
O O12 0.312720 0.750000 0.377910
O O13 0.250000 0.500000 0.395259
O O14 0.373607 0.507459 0.407997
O O15 0.068247 0.500000 0.500000
O O16 0.066204 0.750000 0.564166
O O17 0.000000 0.510843 0.584198
O O18 0.116657 0.750000 0.939304
O O19 0.119776 0.500000 0.000000
#
# Coordination Sequence:
#
# PCOD9503364 Si02
#       7
#    16   8  16   8  16  16  16
#     4  12  25  41  60  82 110 149 191 236 286 344
#     4   9  17  33  59  87 114 143 179 222 274 340
#     4  10  20  37  61  88 118 153 191 237 290 346
#     4   9  16  31  59  89 113 146 190 231 280 345
#     4  10  22  37  58  88 121 159 202 249 297 353
#     4   9  19  37  60  88 120 158 205 252 299 352
#     4  11  22  39  60  86 115 146 184 229 282 342
#
# _framework density 20.487974000000001
#
# number of rings (size 3 to 8) (size 9 to 14) (size 15 to 20)
#    0.000    1.833    1.667    2.750    1.167    3.333 
#    0.000    5.833    0.000    0.000    0.000    0.000 
#    0.000    0.000    0.000    0.000    0.000    0.000 
#
# Total GULP energy -267951.846679 kJ/mol
# GULP energy per Si atom -5582.330139 kJ/mol
# Density = 2.044134 g / cm^3
# Si number density = 20.487974 Si / 1000 Ang^3
#
#
#
# Elastic Constant Matrix: (Units=GPa)
#
#
# Indices 1 2 3 4 5 6 
#
# 1 150.3284 22.2821 41.0457 0.0000 0.0000 0.0000
# 2 22.2821 29.8290 10.5388 0.0000 0.0000 0.0000
# 3 41.0457 10.5388 65.2407 0.0000 0.0000 0.0000
# 4 0.0000 0.0000 0.0000 21.5899 0.0000 0.0000
# 5 0.0000 0.0000 0.0000 0.0000 22.6882 0.0000
# 6 0.0000 0.0000 0.0000 0.0000 0.0000 20.8795
#
#
#
# Elastic Compliance Matrix: (Units=1/GPa)
#
#
# Indices 1 2 3 4 5 6 
#
# 1 0.008636 -0.004806 -0.004657 0.000000 0.000000 0.000000
# 2 -0.004806 0.038228 -0.003152 0.000000 0.000000 0.000000
# 3 -0.004657 -0.003152 0.018767 0.000000 0.000000 0.000000
# 4 0.000000 0.000000 0.000000 0.046318 0.000000 0.000000
# 5 0.000000 0.000000 0.000000 0.000000 0.044076 0.000000
# 6 0.000000 0.000000 0.000000 0.000000 0.000000 0.047894
#
#
# Mechanical properties :
#
#
# Convention : Reuss Voigt Hill
#
# Bulk Modulus (GPa) = 24.75136 43.68125 34.21630
# Shear Modulus (GPa) = 20.60886 24.46696 22.53791
#
# Velocity S-wave (km/s) = 3.17503 3.45948 3.32031
# Velocity P-wave (km/s) = 5.05453 6.10935 5.60680
#
# Compressibility (1/GPa) = 0.04040182
#
# Stress axis : x y z
#
# Youngs Moduli (GPa) = 115.79505 26.15901 53.28540
#
# Poissons Ratio (x) = 0.12571 0.24815
# Poissons Ratio (y) = 0.55647 0.16794
# Poissons Ratio (z) = 0.53925 0.08245
#
# Static dielectric constant tensor:
#      x y z
#    x 1.763320 0.000000 0.000000 
#    y 0.000000 1.707120 0.000000 
#    z 0.000000 0.000000 1.707710 
# 
# From -- ./inp_files/42581.got.cif
#   From: 2010.05.17/outbox.cif.g08.bks.cpg/sg67_22_cif.got.tgz:42581.got - 2010.06.03 18:28:57.
