data_PCOD9503540
_publ_section_title
;
Structure prediction by ZEFSAII (Michael W. Deem and Ramdas Pophale) SiO2 
 PCOD9503540
Probable space group: C M M A
;
_chemical_formula_sum "Si O2"
_cell_formula_units_Z 80
_cell_length_a 17.869974
_cell_length_b 22.923905
_cell_length_c 10.179722
_cell_angle_alpha 90.000000
_cell_angle_beta 90.000000
_cell_angle_gamma 90.000000
_cell_volume 4170.118906
_symmetry_space_group_name_H-M "C M M A"
_symmetry_group_IT_number 67
_symmetry_cell_setting 'orthorhombic'
loop_
_space_group_symop_operation_xyz
x,y,z
-x,1/2-y,z
x,-y,-z
-x,1/2+y,-z
-x,-y,-z
x,1/2+y,-z
-x,y,z
x,1/2-y,z
1/2+x,1/2+y,z
1/2-x,-y,z
1/2+x,1/2-y,-z
1/2-x,y,-z
1/2-x,1/2-y,-z
1/2+x,y,-z
1/2-x,1/2+y,z
1/2+x,-y,z
loop_
_atom_site_type_symbol
_atom_site_label
_atom_site_fract_x
_atom_site_fract_y
_atom_site_fract_z
Si Si1 0.313731 0.954930 0.177437
Si Si2 0.585346 0.057503 0.276621
Si Si3 0.788810 0.874807 0.361750
Si Si4 0.757330 0.750000 0.337387
Si Si5 0.088359 0.871514 0.003868
Si Si6 0.830939 0.250000 0.072221
O O1 0.266906 0.911000 0.268893
O O2 0.359576 0.916989 0.074410
O O3 0.250000 0.000000 0.131396
O O4 0.374552 0.996549 0.246277
O O5 0.500000 0.048957 0.310848
O O6 0.635100 0.090425 0.382276
O O7 0.590506 0.101546 0.151038
O O8 0.750000 0.869574 0.500000
O O9 0.799563 0.809934 0.306565
O O10 0.750000 0.750000 0.500000
O O11 0.687521 0.750000 0.231640
O O12 0.123722 0.807874 0.973984
O O13 0.000000 0.872094 0.965349
O O14 0.750000 0.250000 0.000000
#
# Coordination Sequence:
#
# PCOD9503540 Si02
#       6
#    16  16  16   8  16   8
#     4  10  21  35  60  87 117 158 203 243 294 366
#     4  10  22  38  57  84 120 158 193 243 308 366
#     4  10  21  39  62  87 114 153 207 254 296 360
#     4  10  20  39  65  87 117 154 200 247 301 357
#     4  11  23  39  58  89 126 157 195 256 316 369
#     4  12  23  37  66  95 118 160 209 255 310 368
#
# _framework density 19.184104999999999
#
# number of rings (size 3 to 8) (size 9 to 14) (size 15 to 20)
#    0.000    1.600    2.000    2.700    2.800    7.600 
#    0.000    4.500    0.000    0.000    0.000    0.000 
#    0.000    0.000    0.000    0.000    0.000    0.000 
#
# Total GULP energy -222910.323240 kJ/mol
# GULP energy per Si atom -5572.758081 kJ/mol
# Density = 1.914044 g / cm^3
# Si number density = 19.184105 Si / 1000 Ang^3
#
#
#
# Elastic Constant Matrix: (Units=GPa)
#
#
# Indices 1 2 3 4 5 6 
#
# 1 146.4251 54.3288 10.2204 0.0000 0.0000 0.0000
# 2 54.3288 145.4389 10.7433 0.0000 0.0000 0.0000
# 3 10.2204 10.7433 35.4047 0.0000 0.0000 0.0000
# 4 0.0000 0.0000 0.0000 24.9527 0.0000 0.0000
# 5 0.0000 0.0000 0.0000 0.0000 20.9891 0.0000
# 6 0.0000 0.0000 0.0000 0.0000 0.0000 38.4168
#
#
#
# Elastic Compliance Matrix: (Units=1/GPa)
#
#
# Indices 1 2 3 4 5 6 
#
# 1 0.007999 -0.002882 -0.001435 0.000000 0.000000 0.000000
# 2 -0.002882 0.008072 -0.001617 0.000000 0.000000 0.000000
# 3 -0.001435 -0.001617 0.029150 0.000000 0.000000 0.000000
# 4 0.000000 0.000000 0.000000 0.040076 0.000000 0.000000
# 5 0.000000 0.000000 0.000000 0.000000 0.047644 0.000000
# 6 0.000000 0.000000 0.000000 0.000000 0.000000 0.026030
#
#
# Mechanical properties :
#
#
# Convention : Reuss Voigt Hill
#
# Bulk Modulus (GPa) = 29.98273 53.09486 41.53879
# Shear Modulus (GPa) = 27.47923 33.67013 30.57468
#
# Velocity S-wave (km/s) = 3.78881 4.19394 3.99651
# Velocity P-wave (km/s) = 5.89940 7.15463 6.55712
#
# Compressibility (1/GPa) = 0.03335254
#
# Stress axis : x y z
#
# Youngs Moduli (GPa) = 125.01727 123.88822 34.30567
#
# Poissons Ratio (x) = 0.35705 0.04921
# Poissons Ratio (y) = 0.36030 0.05548
# Poissons Ratio (z) = 0.17934 0.20037
#
# Static dielectric constant tensor:
#      x y z
#    x 1.597480 0.000000 0.000000 
#    y 0.000000 1.699340 0.000000 
#    z 0.000000 0.000000 1.706370 
# 
# From -- ./inp_files/19393.got.cif
#   From: 2010.05.17/outbox.cif.g08.bks.cpg/sg67_10_cif.got.tgz:19393.got - 2010.06.03 18:28:57.
