data_PCOD9503046
_publ_section_title
;
Structure prediction by ZEFSAII (Michael W. Deem and Ramdas Pophale) SiO2 
 PCOD9503046
Probable space group: C M M A
;
_chemical_formula_sum "Si O2"
_cell_formula_units_Z 64
_cell_length_a 37.826745
_cell_length_b 10.595304
_cell_length_c 7.339654
_cell_angle_alpha 90.000000
_cell_angle_beta 90.000000
_cell_angle_gamma 90.000000
_cell_volume 2941.629560
_symmetry_space_group_name_H-M "C M M A"
_symmetry_group_IT_number 67
_symmetry_cell_setting 'orthorhombic'
loop_
_space_group_symop_operation_xyz
x,y,z
-x,1/2-y,z
x,-y,-z
-x,1/2+y,-z
-x,-y,-z
x,1/2+y,-z
-x,y,z
x,1/2-y,z
1/2+x,1/2+y,z
1/2-x,-y,z
1/2+x,1/2-y,-z
1/2-x,y,-z
1/2-x,1/2-y,-z
1/2+x,y,-z
1/2-x,1/2+y,z
1/2+x,-y,z
loop_
_atom_site_type_symbol
_atom_site_label
_atom_site_fract_x
_atom_site_fract_y
_atom_site_fract_z
Si Si1 0.958329 0.250000 0.267047
Si Si2 0.917587 0.495589 0.719740
Si Si3 0.960029 0.750000 0.288729
Si Si4 0.268386 0.616259 0.698431
Si Si5 0.658580 0.900304 0.846868
O O1 0.935980 0.374914 0.215281
O O2 0.959311 0.250000 0.489502
O O3 0.000000 0.250000 0.211288
O O4 0.916964 0.500000 0.500000
O O5 0.941183 0.376428 0.774167
O O6 0.878280 0.461168 0.783317
O O7 0.000000 0.750000 0.228571
O O8 0.261811 0.750000 0.790258
O O9 0.250000 0.500000 0.792840
O O10 0.250000 0.622862 0.500000
O O11 0.310554 0.599174 0.694889
O O12 0.653963 0.750000 0.898335
O O13 0.671150 0.000000 0.000000
#
# Coordination Sequence:
#
# PCOD9503046 Si02
#       5
#     8  16   8  16  16
#     4   9  18  32  55  93 129 158 207 270 324 367
#     4  10  20  35  59  93 123 165 213 263 312 368
#     4   9  16  32  57  87 123 162 207 264 318 361
#     4   9  20  40  64  93 120 158 200 256 300 361
#     4  11  25  43  63  91 130 169 208 253 308 371
#
# _framework density 21.756647999999998
#
# number of rings (size 3 to 8) (size 9 to 14) (size 15 to 20)
#    0.000    2.250    1.250    0.750    5.250    4.500 
#    0.000    2.500    0.000    4.500    0.000    0.000 
#    0.000    0.000    0.000    0.000    0.000    0.000 
#
# Total GULP energy -178407.217986 kJ/mol
# GULP energy per Si atom -5575.225562 kJ/mol
# Density = 2.170713 g / cm^3
# Si number density = 21.756648 Si / 1000 Ang^3
#
#
#
# Elastic Constant Matrix: (Units=GPa)
#
#
# Indices 1 2 3 4 5 6 
#
# 1 196.3278 105.6536 35.2635 0.0000 0.0000 0.0000
# 2 105.6536 236.9074 23.0125 0.0000 0.0000 0.0000
# 3 35.2635 23.0125 81.8330 0.0000 0.0000 0.0000
# 4 0.0000 0.0000 0.0000 7.9031 0.0000 0.0000
# 5 0.0000 0.0000 0.0000 0.0000 -19.6682 0.0000
# 6 0.0000 0.0000 0.0000 0.0000 0.0000 2092.7696
#
#
#
# Elastic Compliance Matrix: (Units=1/GPa)
#
#
# Indices 1 2 3 4 5 6 
#
# 1 0.007074 -0.002939 -0.002222 0.000000 0.000000 0.000000
# 2 -0.002939 0.005561 -0.000297 0.000000 0.000000 0.000000
# 3 -0.002222 -0.000297 0.013261 0.000000 0.000000 0.000000
# 4 0.000000 0.000000 0.000000 0.126532 0.000000 0.000000
# 5 0.000000 0.000000 0.000000 0.000000 -0.050843 0.000000
# 6 0.000000 0.000000 0.000000 0.000000 0.000000 0.000478
#
#
# Mechanical properties :
#
#
# Convention : Reuss Voigt Hill
#
# Bulk Modulus (GPa) = 66.75779 93.65862 80.20820
# Shear Modulus (GPa) = 42.38282 439.61014 240.99648
#
# Velocity S-wave (km/s) = 4.41845 14.23013 10.53611
# Velocity P-wave (km/s) = 7.53530 17.69568 13.59996
#
# Compressibility (1/GPa) = 0.01497952
#
# Stress axis : x y z
#
# Youngs Moduli (GPa) = 141.35709 179.83436 75.40871
#
# Poissons Ratio (x) = 0.52855 0.16755
# Poissons Ratio (y) = 0.41546 0.02241
# Poissons Ratio (z) = 0.31409 0.05345
#
# Static dielectric constant tensor:
#      x y z
#    x 1.769400 0.000000 0.000000 
#    y 0.000000 1.825400 0.000000 
#    z 0.000000 0.000000 1.805510 
# 
# From -- ./inp_files/14388.got.cif
#   From: 2010.05.17/outbox.cif.g08.bks.cpg/sg67_8_cif.got.tgz:14388.got - 2010.06.03 18:28:57.
