data_PCOD9503243
_publ_section_title
;
Structure prediction by ZEFSAII (Michael W. Deem and Ramdas Pophale) SiO2 
 PCOD9503243
Probable space group: C M M A
;
_chemical_formula_sum "Si O2"
_cell_formula_units_Z 112
_cell_length_a 17.175938
_cell_length_b 14.346031
_cell_length_c 22.948220
_cell_angle_alpha 90.000000
_cell_angle_beta 90.000000
_cell_angle_gamma 90.000000
_cell_volume 5654.591466
_symmetry_space_group_name_H-M "C M M A"
_symmetry_group_IT_number 67
_symmetry_cell_setting 'orthorhombic'
loop_
_space_group_symop_operation_xyz
x,y,z
-x,1/2-y,z
x,-y,-z
-x,1/2+y,-z
-x,-y,-z
x,1/2+y,-z
-x,y,z
x,1/2-y,z
1/2+x,1/2+y,z
1/2-x,-y,z
1/2+x,1/2-y,-z
1/2-x,y,-z
1/2-x,1/2-y,-z
1/2+x,y,-z
1/2-x,1/2+y,z
1/2+x,-y,z
loop_
_atom_site_type_symbol
_atom_site_label
_atom_site_fract_x
_atom_site_fract_y
_atom_site_fract_z
Si Si1 0.643214 0.352110 0.606589
Si Si2 0.589537 0.391822 0.482630
Si Si3 0.678472 0.357484 0.361533
Si Si4 0.340237 0.971355 0.085233
Si Si5 0.593841 0.140895 0.805765
Si Si6 0.412198 0.987221 0.303920
Si Si7 0.407448 0.140933 0.023508
O O1 0.622574 0.250000 0.630161
O O2 0.634224 0.348907 0.537442
O O3 0.731386 0.375202 0.624100
O O4 0.589978 0.429583 0.635786
O O5 0.589607 0.500000 0.500000
O O6 0.500000 0.360126 0.480238
O O7 0.631015 0.373166 0.421551
O O8 0.670100 0.250000 0.344183
O O9 0.645415 0.427168 0.313350
O O10 0.365437 0.915955 0.142614
O O11 0.250000 0.000000 0.084940
O O12 0.387311 0.068035 0.074879
O O13 0.361520 0.902519 0.031495
O O14 0.500000 0.138462 0.814484
O O15 0.616748 0.250000 0.803892
O O16 0.610620 0.085981 0.745955
O O17 0.500000 0.020247 0.292684
O O18 0.500000 0.136078 0.011377
O O19 0.387816 0.250000 0.033703
#
# Coordination Sequence:
#
# PCOD9503243 Si02
#       7
#    16  16  16  16  16  16  16
#     4  11  23  38  59  85 113 146 185 233 291 350
#     4  11  22  36  57  86 114 147 187 233 287 343
#     4  11  24  40  59  84 116 153 187 227 291 362
#     4  11  22  35  58  92 127 162 201 248 303 351
#     4  10  22  42  66  88 114 153 201 250 296 348
#     4  11  23  40  62  86 111 145 194 245 292 341
#     4  10  20  36  60  89 126 171 212 249 290 342
#
# _framework density 19.806913000000002
#
# number of rings (size 3 to 8) (size 9 to 14) (size 15 to 20)
#    0.000    1.286    1.429    5.571    0.000    9.143 
#    0.000    0.714    0.000    0.857    0.000    0.000 
#    0.000    0.000    0.000    0.000    0.000    0.000 
#
# Total GULP energy -312901.266119 kJ/mol
# GULP energy per Si atom -5587.522609 kJ/mol
# Density = 1.976183 g / cm^3
# Si number density = 19.806913 Si / 1000 Ang^3
#
#
#
# Elastic Constant Matrix: (Units=GPa)
#
#
# Indices 1 2 3 4 5 6 
#
# 1 80.8880 57.8209 24.7256 0.0000 0.0000 0.0000
# 2 57.8209 154.9802 49.5094 0.0000 0.0000 0.0000
# 3 24.7256 49.5094 85.4466 0.0000 0.0000 0.0000
# 4 0.0000 0.0000 0.0000 3.4698 0.0000 0.0000
# 5 0.0000 0.0000 0.0000 0.0000 13.0533 0.0000
# 6 0.0000 0.0000 0.0000 0.0000 0.0000 32.1749
#
#
#
# Elastic Compliance Matrix: (Units=1/GPa)
#
#
# Indices 1 2 3 4 5 6 
#
# 1 0.017020 -0.005862 -0.001529 0.000000 0.000000 0.000000
# 2 -0.005862 0.009937 -0.004061 0.000000 0.000000 0.000000
# 3 -0.001529 -0.004061 0.014499 0.000000 0.000000 0.000000
# 4 0.000000 0.000000 0.000000 0.288199 0.000000 0.000000
# 5 0.000000 0.000000 0.000000 0.000000 0.076609 0.000000
# 6 0.000000 0.000000 0.000000 0.000000 0.000000 0.031080
#
#
# Mechanical properties :
#
#
# Convention : Reuss Voigt Hill
#
# Bulk Modulus (GPa) = 53.90191 65.04739 59.47465
# Shear Modulus (GPa) = 10.71970 22.35687 16.53828
#
# Velocity S-wave (km/s) = 2.32892 3.36332 2.89273
# Velocity P-wave (km/s) = 5.87406 6.92781 6.42258
#
# Compressibility (1/GPa) = 0.01855222
#
# Stress axis : x y z
#
# Youngs Moduli (GPa) = 58.75405 100.63663 68.97106
#
# Poissons Ratio (x) = 0.58989 0.10544
# Poissons Ratio (y) = 0.34439 0.28012
# Poissons Ratio (z) = 0.08982 0.40872
#
# Static dielectric constant tensor:
#      x y z
#    x 1.691880 0.000000 0.000000 
#    y 0.000000 1.727480 0.000000 
#    z 0.000000 0.000000 1.691490 
# 
# From -- ./inp_files/41926.got.cif
#   From: 2010.05.17/outbox.cif.g08.bks.cpg/sg67_21_cif.got.tgz:41926.got - 2010.06.03 18:28:57.
