data_PCOD9503097
_publ_section_title
;
Structure prediction by ZEFSAII (Michael W. Deem and Ramdas Pophale) SiO2 
 PCOD9503097
Probable space group: C M M A
;
_chemical_formula_sum "Si O2"
_cell_formula_units_Z 68
_cell_length_a 20.956152
_cell_length_b 13.580267
_cell_length_c 12.309175
_cell_angle_alpha 90.000000
_cell_angle_beta 90.000000
_cell_angle_gamma 90.000000
_cell_volume 3503.069830
_symmetry_space_group_name_H-M "C M M A"
_symmetry_group_IT_number 67
_symmetry_cell_setting 'orthorhombic'
loop_
_space_group_symop_operation_xyz
x,y,z
-x,1/2-y,z
x,-y,-z
-x,1/2+y,-z
-x,-y,-z
x,1/2+y,-z
-x,y,z
x,1/2-y,z
1/2+x,1/2+y,z
1/2-x,-y,z
1/2+x,1/2-y,-z
1/2-x,y,-z
1/2-x,1/2-y,-z
1/2+x,y,-z
1/2-x,1/2+y,z
1/2+x,-y,z
loop_
_atom_site_type_symbol
_atom_site_label
_atom_site_fract_x
_atom_site_fract_y
_atom_site_fract_z
Si Si1 0.930583 0.630719 0.191696
Si Si2 0.429158 0.869931 0.062231
Si Si3 0.696862 0.131303 0.312101
Si Si4 0.211501 0.631375 0.890396
Si Si5 0.750000 0.500000 0.500000
O O1 0.929145 0.750000 0.190293
O O2 0.871176 0.600788 0.263186
O O3 0.000000 0.600123 0.233285
O O4 0.925126 0.602854 0.065175
O O5 0.500000 0.900477 0.102580
O O6 0.429383 0.750000 0.067806
O O7 0.362012 0.903267 0.113241
O O8 0.697673 0.250000 0.330085
O O9 0.748685 0.109507 0.217697
O O10 0.710812 0.071282 0.420331
O O11 0.208524 0.750000 0.896790
O O12 0.250000 0.602404 0.000000
#
# Coordination Sequence:
#
# PCOD9503097 Si02
#       5
#    16  16  16  16   4
#     4   8  13  24  48  81 110 137 169 207 260 323
#     4   8  12  19  38  74 113 139 164 200 251 325
#     4  10  20  36  57  78 107 142 178 225 269 312
#     4   9  14  24  47  78 106 134 166 207 266 322
#     4  12  26  40  52  74 100 140 198 236 260 306
#
# _framework density 19.411546999999999
#
# number of rings (size 3 to 8) (size 9 to 14) (size 15 to 20)
#    0.000    3.059    2.353    1.765    0.000    0.000 
#    0.000    1.176    0.000    2.824    0.000    9.882 
#    0.000    0.000    0.000    0.000    0.000    0.000 
#
# Total GULP energy -189741.939585 kJ/mol
# GULP energy per Si atom -5580.645282 kJ/mol
# Density = 1.936737 g / cm^3
# Si number density = 19.411547 Si / 1000 Ang^3
#
#
#
# Elastic Constant Matrix: (Units=GPa)
#
#
# Indices 1 2 3 4 5 6 
#
# 1 224.8224 36.7094 86.0752 0.0000 0.0000 0.0000
# 2 36.7094 98.9399 33.2369 0.0000 0.0000 0.0000
# 3 86.0752 33.2369 109.9837 0.0000 0.0000 0.0000
# 4 0.0000 0.0000 0.0000 14.1792 0.0000 0.0000
# 5 0.0000 0.0000 0.0000 0.0000 19.2682 0.0000
# 6 0.0000 0.0000 0.0000 0.0000 0.0000 -3.8399
#
#
#
# Elastic Compliance Matrix: (Units=1/GPa)
#
#
# Indices 1 2 3 4 5 6 
#
# 1 0.006403 -0.000771 -0.004778 0.000000 0.000000 0.000000
# 2 -0.000771 0.011342 -0.002824 0.000000 0.000000 0.000000
# 3 -0.004778 -0.002824 0.013685 0.000000 0.000000 0.000000
# 4 0.000000 0.000000 0.000000 0.070526 0.000000 0.000000
# 5 0.000000 0.000000 0.000000 0.000000 0.051899 0.000000
# 6 0.000000 0.000000 0.000000 0.000000 0.000000 -0.260424
#
#
# Mechanical properties :
#
#
# Convention : Reuss Voigt Hill
#
# Bulk Modulus (GPa) = 68.10260 82.86546 75.48403
# Shear Modulus (GPa) = -58.87404 24.43647 -17.21879
#
# Velocity S-wave (km/s) = -5.51319 3.55189 -2.98155
# Velocity P-wave (km/s) = 2.31674 7.72028 5.20747
#
# Compressibility (1/GPa) = 0.01468373
#
# Stress axis : x y z
#
# Youngs Moduli (GPa) = 156.17107 88.16892 73.07016
#
# Poissons Ratio (x) = 0.06794 0.34916
# Poissons Ratio (y) = 0.12034 0.20638
# Poissons Ratio (z) = 0.74625 0.24903
#
# Static dielectric constant tensor:
#      x y z
#    x 1.710610 0.000000 0.000000 
#    y 0.000000 1.759290 0.000000 
#    z 0.000000 0.000000 1.608060 
# 
# From -- ./inp_files/17691.got.cif
#   From: 2010.05.17/outbox.cif.g08.bks.cpg/sg67_9_cif.got.tgz:17691.got - 2010.06.03 18:28:57.
