data_PCOD9503350
_publ_section_title
;
Structure prediction by ZEFSAII (Michael W. Deem and Ramdas Pophale) SiO2 
 PCOD9503350
Probable space group: C M M A
;
_chemical_formula_sum "Si O2"
_cell_formula_units_Z 96
_cell_length_a 14.849803
_cell_length_b 20.860085
_cell_length_c 14.650327
_cell_angle_alpha 90.000000
_cell_angle_beta 90.000000
_cell_angle_gamma 90.000000
_cell_volume 4538.204733
_symmetry_space_group_name_H-M "C M M A"
_symmetry_group_IT_number 67
_symmetry_cell_setting 'orthorhombic'
loop_
_space_group_symop_operation_xyz
x,y,z
-x,1/2-y,z
x,-y,-z
-x,1/2+y,-z
-x,-y,-z
x,1/2+y,-z
-x,y,z
x,1/2-y,z
1/2+x,1/2+y,z
1/2-x,-y,z
1/2+x,1/2-y,-z
1/2-x,y,-z
1/2-x,1/2-y,-z
1/2+x,y,-z
1/2-x,1/2+y,z
1/2+x,-y,z
loop_
_atom_site_type_symbol
_atom_site_label
_atom_site_fract_x
_atom_site_fract_y
_atom_site_fract_z
Si Si1 0.891511 0.597705 0.257052
Si Si2 0.647740 0.566092 0.537888
Si Si3 0.781508 0.173852 0.238430
Si Si4 0.398174 0.824042 0.408033
Si Si5 0.396445 0.551952 0.933558
Si Si6 0.349186 0.323117 0.957506
O O1 0.865620 0.567560 0.353934
O O2 0.823931 0.657456 0.243907
O O3 0.862614 0.555465 0.169652
O O4 0.000000 0.610096 0.253668
O O5 0.607563 0.500000 0.500000
O O6 0.750000 0.567496 0.500000
O O7 0.606008 0.630124 0.494899
O O8 0.791393 0.250000 0.237018
O O9 0.831381 0.150841 0.329784
O O10 0.832358 0.152715 0.146033
O O11 0.500000 0.824347 0.371387
O O12 0.375231 0.750000 0.431039
O O13 0.500000 0.532672 0.921777
O O14 0.352724 0.500000 0.000000
O O15 0.394287 0.621803 0.981590
O O16 0.387759 0.250000 0.958302
O O17 0.250000 0.317515 0.000000
#
# Coordination Sequence:
#
# PCOD9503350 Si02
#       6
#    16  16  16  16  16  16
#     4  11  23  41  64  92 126 168 216 263 320 383
#     4  11  24  43  67  95 126 168 213 262 323 383
#     4  10  21  39  63  94 130 166 213 267 314 377
#     4  10  22  41  65  93 127 168 212 260 318 379
#     4  10  23  42  62  92 130 167 211 263 317 376
#     4  10  20  37  60  88 123 164 207 252 312 375
#
# _framework density 21.153739999999999
#
# number of rings (size 3 to 8) (size 9 to 14) (size 15 to 20)
#    0.000    1.667    3.333    0.500    0.000    5.333 
#    0.000    5.000    0.000    0.000    0.000    0.000 
#    0.000    0.000    0.000    0.000    0.000    0.000 
#
# Total GULP energy -267605.513210 kJ/mol
# GULP energy per Si atom -5575.114859 kJ/mol
# Density = 2.110559 g / cm^3
# Si number density = 21.153740 Si / 1000 Ang^3
#
#
#
# Elastic Constant Matrix: (Units=GPa)
#
#
# Indices 1 2 3 4 5 6 
#
# 1 76.1958 4.1350 18.8922 0.0000 0.0000 0.0000
# 2 4.1350 54.4739 58.6303 0.0000 0.0000 0.0000
# 3 18.8922 58.6303 193.1798 0.0000 0.0000 0.0000
# 4 0.0000 0.0000 0.0000 18.0526 0.0000 0.0000
# 5 0.0000 0.0000 0.0000 0.0000 21.0149 0.0000
# 6 0.0000 0.0000 0.0000 0.0000 0.0000 -12.1799
#
#
#
# Elastic Compliance Matrix: (Units=1/GPa)
#
#
# Indices 1 2 3 4 5 6 
#
# 1 0.013463 0.000587 -0.001495 0.000000 0.000000 0.000000
# 2 0.000587 0.027289 -0.008340 0.000000 0.000000 0.000000
# 3 -0.001495 -0.008340 0.007854 0.000000 0.000000 0.000000
# 4 0.000000 0.000000 0.000000 0.055394 0.000000 0.000000
# 5 0.000000 0.000000 0.000000 0.000000 0.047585 0.000000
# 6 0.000000 0.000000 0.000000 0.000000 0.000000 -0.082102
#
#
# Mechanical properties :
#
#
# Convention : Reuss Voigt Hill
#
# Bulk Modulus (GPa) = 33.21105 54.12939 43.67022
# Shear Modulus (GPa) = 51.01337 21.52366 36.26851
#
# Velocity S-wave (km/s) = 4.91608 3.19327 4.14517
# Velocity P-wave (km/s) = 6.92516 6.26419 6.60295
#
# Compressibility (1/GPa) = 0.03011046
#
# Stress axis : x y z
#
# Youngs Moduli (GPa) = 74.27855 36.64517 127.32752
#
# Poissons Ratio (x) = -0.02150 0.19032
# Poissons Ratio (y) = -0.04359 1.06185
# Poissons Ratio (z) = 0.11103 0.30560
#
# Static dielectric constant tensor:
#      x y z
#    x 1.809910 0.000000 0.000000 
#    y 0.000000 1.780690 0.000000 
#    z 0.000000 0.000000 1.856560 
# 
# From -- ./inp_files/27209.got.cif
#   From: 2010.05.17/outbox.cif.g08.bks.cpg/sg67_14_cif.got.tgz:27209.got - 2010.06.03 18:28:57.
