data_PCOD9503408
_publ_section_title
;
Structure prediction by ZEFSAII (Michael W. Deem and Ramdas Pophale) SiO2 
 PCOD9503408
Probable space group: C M M A
;
_chemical_formula_sum "Si O2"
_cell_formula_units_Z 96
_cell_length_a 26.329114
_cell_length_b 19.354110
_cell_length_c 9.445243
_cell_angle_alpha 90.000000
_cell_angle_beta 90.000000
_cell_angle_gamma 90.000000
_cell_volume 4813.074517
_symmetry_space_group_name_H-M "C M M A"
_symmetry_group_IT_number 67
_symmetry_cell_setting 'orthorhombic'
loop_
_space_group_symop_operation_xyz
x,y,z
-x,1/2-y,z
x,-y,-z
-x,1/2+y,-z
-x,-y,-z
x,1/2+y,-z
-x,y,z
x,1/2-y,z
1/2+x,1/2+y,z
1/2-x,-y,z
1/2+x,1/2-y,-z
1/2-x,y,-z
1/2-x,1/2-y,-z
1/2+x,y,-z
1/2-x,1/2+y,z
1/2+x,-y,z
loop_
_atom_site_type_symbol
_atom_site_label
_atom_site_fract_x
_atom_site_fract_y
_atom_site_fract_z
Si Si1 0.260959 0.577641 0.333864
Si Si2 0.408308 0.669230 0.971981
Si Si3 0.126853 0.049288 0.366078
Si Si4 0.443469 0.033711 0.155491
Si Si5 0.560580 0.329300 0.698995
Si Si6 0.292719 0.831915 0.886959
O O1 0.250000 0.500000 0.284945
O O2 0.250000 0.582796 0.500000
O O3 0.321308 0.585090 0.312917
O O4 0.223332 0.628201 0.253134
O O5 0.418177 0.750000 0.939914
O O6 0.436866 0.615111 0.872200
O O7 0.348690 0.654537 0.946852
O O8 0.423823 0.658578 0.136134
O O9 0.088248 0.112459 0.393065
O O10 0.138326 0.000000 0.500000
O O11 0.099518 0.999986 0.252229
O O12 0.500000 0.018578 0.212762
O O13 0.439887 0.000000 0.000000
O O14 0.500000 0.335316 0.688961
O O15 0.574976 0.250000 0.664062
O O16 0.289000 0.750000 0.862955
O O17 0.250000 0.852163 0.000000
#
# Coordination Sequence:
#
# PCOD9503408 Si02
#       6
#    16  16  16  16  16  16
#     4  11  23  43  62  87 123 162 210 253 305 369
#     4  10  20  37  63  93 128 164 204 254 311 368
#     4  12  24  41  65  90 125 165 208 263 313 367
#     4  11  23  39  62  95 126 159 209 259 312 373
#     4  10  21  39  64  94 127 166 210 255 312 380
#     4  10  22  39  62  95 127 157 203 257 307 365
#
# _framework density 19.94567
#
# number of rings (size 3 to 8) (size 9 to 14) (size 15 to 20)
#    0.000    1.333    3.333    3.000    0.000    5.000 
#    0.000    0.833    0.000    0.000    0.000    0.000 
#    0.000    0.000    0.000    0.000    0.000    0.000 
#
# Total GULP energy -268141.133167 kJ/mol
# GULP energy per Si atom -5586.273608 kJ/mol
# Density = 1.990027 g / cm^3
# Si number density = 19.945670 Si / 1000 Ang^3
#
#
#
# Elastic Constant Matrix: (Units=GPa)
#
#
# Indices 1 2 3 4 5 6 
#
# 1 71.4509 6.4553 1.8148 0.0000 0.0000 0.0000
# 2 6.4553 55.6757 3.4594 0.0000 0.0000 0.0000
# 3 1.8148 3.4594 14.6295 0.0000 0.0000 0.0000
# 4 0.0000 0.0000 0.0000 29.5885 0.0000 0.0000
# 5 0.0000 0.0000 0.0000 0.0000 25.0782 0.0000
# 6 0.0000 0.0000 0.0000 0.0000 0.0000 27.6594
#
#
#
# Elastic Compliance Matrix: (Units=1/GPa)
#
#
# Indices 1 2 3 4 5 6 
#
# 1 0.014172 -0.001557 -0.001390 0.000000 0.000000 0.000000
# 2 -0.001557 0.018400 -0.004158 0.000000 0.000000 0.000000
# 3 -0.001390 -0.004158 0.069510 0.000000 0.000000 0.000000
# 4 0.000000 0.000000 0.000000 0.033797 0.000000 0.000000
# 5 0.000000 0.000000 0.000000 0.000000 0.039875 0.000000
# 6 0.000000 0.000000 0.000000 0.000000 0.000000 0.036154
#
#
# Mechanical properties :
#
#
# Convention : Reuss Voigt Hill
#
# Bulk Modulus (GPa) = 11.38005 18.35723 14.86864
# Shear Modulus (GPa) = 19.57649 25.13365 22.35507
#
# Velocity S-wave (km/s) = 3.13627 3.55365 3.35146
# Velocity P-wave (km/s) = 4.33968 5.10504 4.73784
#
# Compressibility (1/GPa) = 0.08787306
#
# Stress axis : x y z
#
# Youngs Moduli (GPa) = 70.56375 54.34783 14.38632
#
# Poissons Ratio (x) = 0.08461 0.02000
# Poissons Ratio (y) = 0.10985 0.05982
# Poissons Ratio (z) = 0.09808 0.22597
#
# Static dielectric constant tensor:
#      x y z
#    x 1.729780 0.000000 0.000000 
#    y 0.000000 1.705730 0.000000 
#    z 0.000000 0.000000 1.730360 
# 
# From -- ./inp_files/13733.got.cif
#   From: 2010.05.17/outbox.cif.g08.bks.cpg/sg67_7_cif.got.tgz:13733.got - 2010.06.03 18:28:57.
