data_PCOD9503582
_publ_section_title
;
Structure prediction by ZEFSAII (Michael W. Deem and Ramdas Pophale) SiO2 
 PCOD9503582
Probable space group: C M M A
;
_chemical_formula_sum "Si O2"
_cell_formula_units_Z 108
_cell_length_a 14.786907
_cell_length_b 29.594227
_cell_length_c 11.126212
_cell_angle_alpha 90.000000
_cell_angle_beta 90.000000
_cell_angle_gamma 90.000000
_cell_volume 4868.909171
_symmetry_space_group_name_H-M "C M M A"
_symmetry_group_IT_number 67
_symmetry_cell_setting 'orthorhombic'
loop_
_space_group_symop_operation_xyz
x,y,z
-x,1/2-y,z
x,-y,-z
-x,1/2+y,-z
-x,-y,-z
x,1/2+y,-z
-x,y,z
x,1/2-y,z
1/2+x,1/2+y,z
1/2-x,-y,z
1/2+x,1/2-y,-z
1/2-x,y,-z
1/2-x,1/2-y,-z
1/2+x,y,-z
1/2-x,1/2+y,z
1/2+x,-y,z
loop_
_atom_site_type_symbol
_atom_site_label
_atom_site_fract_x
_atom_site_fract_y
_atom_site_fract_z
Si Si1 0.750000 0.500000 0.797617
Si Si2 0.845471 0.106576 0.444571
Si Si3 0.900588 0.532892 0.388260
Si Si4 0.397781 0.853926 0.778225
Si Si5 0.791302 0.594658 0.817913
Si Si6 0.607270 0.300660 0.467030
Si Si7 0.500000 0.250000 0.883323
Si Si8 0.648624 0.319567 0.968306
O O1 0.826120 0.478278 0.710522
O O2 0.787092 0.543739 0.866588
O O3 0.750000 0.093565 0.500000
O O4 0.905172 0.081561 0.544441
O O5 0.847103 0.091689 0.307218
O O6 0.853980 0.160564 0.447903
O O7 0.880871 0.500000 0.500000
O O8 0.000000 0.522248 0.339846
O O9 0.500000 0.873527 0.766121
O O10 0.310392 0.886627 0.787835
O O11 0.380873 0.820061 0.667267
O O12 0.396530 0.826599 0.902233
O O13 0.834712 0.632035 0.904231
O O14 0.500000 0.299190 0.489691
O O15 0.642777 0.250000 0.481272
O O16 0.581089 0.288980 0.891604
O O17 0.750000 0.302031 0.000000
#
# Coordination Sequence:
#
# PCOD9503582 Si02
#       8
#     8  16  16  16  16  16   4  16
#     4  12  21  42  67  90 140 178 227 279 344 398
#     4  12  20  39  60  89 134 172 209 274 331 390
#     4  11  21  35  61  96 123 172 232 276 325 392
#     4  10  20  42  70  91 126 161 225 292 329 382
#     4  11  24  41  64  98 137 175 221 282 333 422
#     4  10  22  37  58  89 122 168 220 263 327 405
#     4  12  22  48  76  98 134 180 214 306 348 406
#     4  10  24  44  69 106 128 170 235 278 348 406
#
# _framework density 22.181560999999999
#
# number of rings (size 3 to 8) (size 9 to 14) (size 15 to 20)
#    0.000    1.185    5.185    0.889    1.037    2.074 
#    6.667    3.333    0.000    0.889    0.000    0.000 
#    0.000    0.000    0.000    0.000    0.000    0.000 
#
# Total GULP energy -300871.636119 kJ/mol
# GULP energy per Si atom -5571.696965 kJ/mol
# Density = 2.213107 g / cm^3
# Si number density = 22.181561 Si / 1000 Ang^3
#
#
#
# Elastic Constant Matrix: (Units=GPa)
#
#
# Indices 1 2 3 4 5 6 
#
# 1 109.1991 14.3153 0.3895 0.0000 0.0000 0.0000
# 2 14.3153 146.8347 8.6947 0.0000 0.0000 0.0000
# 3 0.3895 8.6947 50.9061 0.0000 0.0000 0.0000
# 4 0.0000 0.0000 0.0000 -33.3495 0.0000 0.0000
# 5 0.0000 0.0000 0.0000 0.0000 -19.3777 0.0000
# 6 0.0000 0.0000 0.0000 0.0000 0.0000 15.9138
#
#
#
# Elastic Compliance Matrix: (Units=1/GPa)
#
#
# Indices 1 2 3 4 5 6 
#
# 1 0.009277 -0.000909 0.000084 0.000000 0.000000 0.000000
# 2 -0.000909 0.006969 -0.001183 0.000000 0.000000 0.000000
# 3 0.000084 -0.001183 0.019845 0.000000 0.000000 0.000000
# 4 0.000000 0.000000 0.000000 -0.029985 0.000000 0.000000
# 5 0.000000 0.000000 0.000000 0.000000 -0.051606 0.000000
# 6 0.000000 0.000000 0.000000 0.000000 0.000000 0.062839
#
#
# Mechanical properties :
#
#
# Convention : Reuss Voigt Hill
#
# Bulk Modulus (GPa) = 31.17762 39.30432 35.24097
# Shear Modulus (GPa) = 156.02077 11.53999 83.78038
#
# Velocity S-wave (km/s) = 8.39588 2.28338 6.15242
# Velocity P-wave (km/s) = 10.39586 4.97087 8.14811
#
# Compressibility (1/GPa) = 0.03207429
#
# Stress axis : x y z
#
# Youngs Moduli (GPa) = 107.79928 143.49041 50.38935
#
# Poissons Ratio (x) = 0.13049 -0.00425
# Poissons Ratio (y) = 0.09803 0.05963
# Poissons Ratio (z) = -0.00909 0.16980
#
# Static dielectric constant tensor:
#      x y z
#    x 1.869780 0.000000 0.000000 
#    y 0.000000 1.884630 0.000000 
#    z 0.000000 0.000000 1.791940 
# 
# From -- ./inp_files/18669.got.cif
#   From: 2010.05.17/outbox.cif.g08.bks.cpg/sg67_10_cif.got.tgz:18669.got - 2010.06.03 18:28:57.
