data_PCOD9503656
_publ_section_title
;
Structure prediction by ZEFSAII (Michael W. Deem and Ramdas Pophale) SiO2 
 PCOD9503656
Probable space group: C M M A
;
_chemical_formula_sum "Si O2"
_cell_formula_units_Z 128
_cell_length_a 16.387053
_cell_length_b 20.804122
_cell_length_c 20.329630
_cell_angle_alpha 90.000000
_cell_angle_beta 90.000000
_cell_angle_gamma 90.000000
_cell_volume 6930.741879
_symmetry_space_group_name_H-M "C M M A"
_symmetry_group_IT_number 67
_symmetry_cell_setting 'orthorhombic'
loop_
_space_group_symop_operation_xyz
x,y,z
-x,1/2-y,z
x,-y,-z
-x,1/2+y,-z
-x,-y,-z
x,1/2+y,-z
-x,y,z
x,1/2-y,z
1/2+x,1/2+y,z
1/2-x,-y,z
1/2+x,1/2-y,-z
1/2-x,y,-z
1/2-x,1/2-y,-z
1/2+x,y,-z
1/2-x,1/2+y,z
1/2+x,-y,z
loop_
_atom_site_type_symbol
_atom_site_label
_atom_site_fract_x
_atom_site_fract_y
_atom_site_fract_z
Si Si1 0.157527 0.432423 0.526899
Si Si2 0.596354 0.924477 0.169219
Si Si3 0.097839 0.821909 0.563571
Si Si4 0.659927 0.969416 0.675038
Si Si5 0.838203 0.823010 0.087792
Si Si6 0.098762 0.569604 0.187384
Si Si7 0.094698 0.606785 0.691100
Si Si8 0.643295 0.822869 0.062967
O O1 0.121513 0.500000 0.500000
O O2 0.250000 0.431317 0.500000
O O3 0.116193 0.371200 0.494466
O O4 0.156869 0.433829 0.605523
O O5 0.500000 0.931074 0.181568
O O6 0.632075 0.891810 0.235605
O O7 0.607727 0.878494 0.107893
O O8 0.625333 0.998004 0.162477
O O9 0.129111 0.750000 0.552462
O O10 0.131471 0.851380 0.632247
O O11 0.000000 0.818887 0.569637
O O12 0.633208 0.928549 0.738226
O O13 0.750000 0.000000 0.683535
O O14 0.601468 0.031918 0.671765
O O15 0.860365 0.750000 0.107655
O O16 0.866647 0.875640 0.139842
O O17 0.740510 0.824420 0.076931
O O18 0.872759 0.834381 0.014229
O O19 0.000000 0.573462 0.188311
O O20 0.000000 0.626111 0.696130
O O21 0.615053 0.750000 0.078858
#
# Coordination Sequence:
#
# PCOD9503656 Si02
#       8
#    16  16  16  16  16  16  16  16
#     4  11  20  37  57  84 112 141 183 237 283 334
#     4   9  19  33  52  82 115 143 180 234 289 334
#     4  10  21  35  53  80 112 149 189 224 271 336
#     4  11  20  34  58  83 109 141 187 232 279 337
#     4   9  20  39  59  79 110 152 194 235 276 329
#     4  10  23  38  55  84 117 149 189 238 283 336
#     4   9  18  33  51  75 111 144 177 224 275 328
#     4   9  19  36  57  83 112 145 194 239 274 333
#
# _framework density 18.468440999999999
#
# number of rings (size 3 to 8) (size 9 to 14) (size 15 to 20)
#    0.000    2.250    2.500    1.875    3.500    3.500 
#    0.000    5.625    0.000    0.000    0.000    0.000 
#    0.000    0.000    0.000    0.000    0.000    0.000 
#
# Total GULP energy -356743.239045 kJ/mol
# GULP energy per Si atom -5574.113110 kJ/mol
# Density = 1.842641 g / cm^3
# Si number density = 18.468441 Si / 1000 Ang^3
#
#
#
# Elastic Constant Matrix: (Units=GPa)
#
#
# Indices 1 2 3 4 5 6 
#
# 1 19.2838 20.2864 19.0646 0.0000 0.0000 0.0000
# 2 20.2864 136.7179 109.9235 0.0000 0.0000 0.0000
# 3 19.0646 109.9235 149.2847 0.0000 0.0000 0.0000
# 4 0.0000 0.0000 0.0000 19.7648 0.0000 0.0000
# 5 0.0000 0.0000 0.0000 0.0000 23.6263 0.0000
# 6 0.0000 0.0000 0.0000 0.0000 0.0000 23.9541
#
#
#
# Elastic Compliance Matrix: (Units=1/GPa)
#
#
# Indices 1 2 3 4 5 6 
#
# 1 0.061923 -0.006937 -0.002800 0.000000 0.000000 0.000000
# 2 -0.006937 0.018706 -0.012888 0.000000 0.000000 0.000000
# 3 -0.002800 -0.012888 0.016546 0.000000 0.000000 0.000000
# 4 0.000000 0.000000 0.000000 0.050595 0.000000 0.000000
# 5 0.000000 0.000000 0.000000 0.000000 0.042326 0.000000
# 6 0.000000 0.000000 0.000000 0.000000 0.000000 0.041746
#
#
# Mechanical properties :
#
#
# Convention : Reuss Voigt Hill
#
# Bulk Modulus (GPa) = 19.25855 67.09282 43.17568
# Shear Modulus (GPa) = 16.98375 23.86983 20.42679
#
# Velocity S-wave (km/s) = 3.03580 3.59899 3.32932
# Velocity P-wave (km/s) = 4.76849 7.32649 6.18126
#
# Compressibility (1/GPa) = 0.05192499
#
# Stress axis : x y z
#
# Youngs Moduli (GPa) = 16.14912 53.46008 60.43825
#
# Poissons Ratio (x) = 0.37085 0.16923
# Poissons Ratio (y) = 0.11203 0.77891
# Poissons Ratio (z) = 0.04522 0.68897
#
# Static dielectric constant tensor:
#      x y z
#    x 1.637770 0.000000 0.000000 
#    y 0.000000 1.628720 0.000000 
#    z 0.000000 0.000000 1.659510 
# 
# From -- ./inp_files/39154.got.cif
#   From: 2010.05.17/outbox.cif.g08.bks.cpg/sg67_20_cif.got.tgz:39154.got - 2010.06.03 18:28:57.
