data_PCOD9503356
_publ_section_title
;
Structure prediction by ZEFSAII (Michael W. Deem and Ramdas Pophale) SiO2 
 PCOD9503356
Probable space group: C M M A
;
_chemical_formula_sum "Si O2"
_cell_formula_units_Z 96
_cell_length_a 16.887296
_cell_length_b 17.982362
_cell_length_c 16.948091
_cell_angle_alpha 90.000000
_cell_angle_beta 90.000000
_cell_angle_gamma 90.000000
_cell_volume 5146.685602
_symmetry_space_group_name_H-M "C M M A"
_symmetry_group_IT_number 67
_symmetry_cell_setting 'orthorhombic'
loop_
_space_group_symop_operation_xyz
x,y,z
-x,1/2-y,z
x,-y,-z
-x,1/2+y,-z
-x,-y,-z
x,1/2+y,-z
-x,y,z
x,1/2-y,z
1/2+x,1/2+y,z
1/2-x,-y,z
1/2+x,1/2-y,-z
1/2-x,y,-z
1/2-x,1/2-y,-z
1/2+x,y,-z
1/2-x,1/2+y,z
1/2+x,-y,z
loop_
_atom_site_type_symbol
_atom_site_label
_atom_site_fract_x
_atom_site_fract_y
_atom_site_fract_z
Si Si1 0.682046 0.338750 0.143287
Si Si2 0.404841 0.052411 0.249844
Si Si3 0.594885 0.168966 0.666946
Si Si4 0.908669 0.586364 0.001790
Si Si5 0.357091 0.601106 0.169626
Si Si6 0.403327 0.481493 0.587704
O O1 0.689010 0.250000 0.145878
O O2 0.627415 0.372090 0.212819
O O3 0.766654 0.377913 0.153720
O O4 0.643551 0.365817 0.061239
O O5 0.500000 0.048354 0.244342
O O6 0.370466 0.983798 0.198260
O O7 0.381615 0.037073 0.340848
O O8 0.500000 0.170190 0.657876
O O9 0.626802 0.250000 0.645700
O O10 0.612503 0.150375 0.757801
O O11 0.624336 0.099998 0.615260
O O12 0.902395 0.613611 0.912092
O O13 0.000000 0.587380 0.028801
O O14 0.882051 0.500000 0.000000
O O15 0.375581 0.500000 0.500000
O O16 0.500000 0.481023 0.586079
#
# Coordination Sequence:
#
# PCOD9503356 Si02
#       6
#    16  16  16  16  16  16
#     4  12  26  39  55  84 121 152 183 231 287 338
#     4  10  20  37  61  85 110 149 195 232 276 334
#     4   9  17  30  52  82 113 143 182 236 288 329
#     4  11  23  39  61  84 110 149 194 236 279 331
#     4  11  21  37  60  81 108 148 193 232 275 331
#     4   8  15  30  54  83 111 140 181 232 281 334
#
# _framework density 18.652781000000001
#
# number of rings (size 3 to 8) (size 9 to 14) (size 15 to 20)
#    0.000    1.833    1.667    4.500    0.000    4.000 
#    0.000    0.833    0.000   11.000    0.000    5.833 
#    0.000    0.000    0.000    0.000    0.000    0.000 
#
# Total GULP energy -267954.045104 kJ/mol
# GULP energy per Si atom -5582.375940 kJ/mol
# Density = 1.861033 g / cm^3
# Si number density = 18.652781 Si / 1000 Ang^3
#
#
#
# Elastic Constant Matrix: (Units=GPa)
#
#
# Indices 1 2 3 4 5 6 
#
# 1 47.6266 30.4569 9.8687 0.0000 0.0000 0.0000
# 2 30.4569 43.9712 18.9046 0.0000 0.0000 0.0000
# 3 9.8687 18.9046 118.6275 0.0000 0.0000 0.0000
# 4 0.0000 0.0000 0.0000 13.1833 0.0000 0.0000
# 5 0.0000 0.0000 0.0000 0.0000 -31.9057 0.0000
# 6 0.0000 0.0000 0.0000 0.0000 0.0000 16.8402
#
#
#
# Elastic Compliance Matrix: (Units=1/GPa)
#
#
# Indices 1 2 3 4 5 6 
#
# 1 0.037827 -0.026676 0.001104 0.000000 0.000000 0.000000
# 2 -0.026676 0.043227 -0.004669 0.000000 0.000000 0.000000
# 3 0.001104 -0.004669 0.009082 0.000000 0.000000 0.000000
# 4 0.000000 0.000000 0.000000 0.075853 0.000000 0.000000
# 5 0.000000 0.000000 0.000000 0.000000 -0.031342 0.000000
# 6 0.000000 0.000000 0.000000 0.000000 0.000000 0.059382
#
#
# Mechanical properties :
#
#
# Convention : Reuss Voigt Hill
#
# Bulk Modulus (GPa) = 33.72262 36.52064 35.12163
# Shear Modulus (GPa) = 18.91111 9.68990 14.30051
#
# Velocity S-wave (km/s) = 3.18755 2.28170 2.77188
# Velocity P-wave (km/s) = 5.62723 5.15395 5.39578
#
# Compressibility (1/GPa) = 0.02965369
#
# Stress axis : x y z
#
# Youngs Moduli (GPa) = 26.43629 23.13382 110.10766
#
# Poissons Ratio (x) = 0.61711 -0.12158
# Poissons Ratio (y) = 0.70521 0.51414
# Poissons Ratio (z) = -0.02919 0.10802
#
# Static dielectric constant tensor:
#      x y z
#    x 1.653800 0.000000 0.000000 
#    y 0.000000 1.656160 0.000000 
#    z 0.000000 0.000000 1.645210 
# 
# From -- ./inp_files/34250.got.cif
#   From: 2010.05.17/outbox.cif.g08.bks.cpg/sg67_18_cif.got.tgz:34250.got - 2010.06.03 18:28:57.
