data_PCOD9503412
_publ_section_title
;
Structure prediction by ZEFSAII (Michael W. Deem and Ramdas Pophale) SiO2 
 PCOD9503412
Probable space group: C M M A
;
_chemical_formula_sum "Si O2"
_cell_formula_units_Z 112
_cell_length_a 14.325131
_cell_length_b 24.127110
_cell_length_c 13.825043
_cell_angle_alpha 90.000000
_cell_angle_beta 90.000000
_cell_angle_gamma 90.000000
_cell_volume 4778.266819
_symmetry_space_group_name_H-M "C M M A"
_symmetry_group_IT_number 67
_symmetry_cell_setting 'orthorhombic'
loop_
_space_group_symop_operation_xyz
x,y,z
-x,1/2-y,z
x,-y,-z
-x,1/2+y,-z
-x,-y,-z
x,1/2+y,-z
-x,y,z
x,1/2-y,z
1/2+x,1/2+y,z
1/2-x,-y,z
1/2+x,1/2-y,-z
1/2-x,y,-z
1/2-x,1/2-y,-z
1/2+x,y,-z
1/2-x,1/2+y,z
1/2+x,-y,z
loop_
_atom_site_type_symbol
_atom_site_label
_atom_site_fract_x
_atom_site_fract_y
_atom_site_fract_z
Si Si1 0.608940 0.595322 0.907064
Si Si2 0.649531 0.188694 0.948589
Si Si3 0.113544 0.368563 0.244935
Si Si4 0.227344 0.150612 0.602569
Si Si5 0.888047 0.809018 0.230658
Si Si6 0.149156 0.028134 0.598096
Si Si7 0.605547 0.989791 0.188831
O O1 0.500000 0.588025 0.884018
O O2 0.647798 0.638597 0.828909
O O3 0.649089 0.534441 0.885580
O O4 0.610434 0.631658 0.004101
O O5 0.606875 0.250000 0.966821
O O6 0.640802 0.177194 0.834764
O O7 0.750000 0.190744 0.000000
O O8 0.176070 0.360027 0.339992
O O9 0.145400 0.428743 0.203940
O O10 0.000000 0.368758 0.260317
O O11 0.250000 0.175680 0.500000
O O12 0.160363 0.187342 0.667285
O O13 0.170840 0.092913 0.585528
O O14 0.864714 0.750000 0.183539
O O15 0.000000 0.812271 0.236797
O O16 0.103539 0.016684 0.702845
O O17 0.107657 0.000000 0.500000
O O18 0.250000 0.000000 0.607534
O O19 0.500000 0.978681 0.154736
#
# Coordination Sequence:
#
# PCOD9503412 Si02
#       7
#    16  16  16  16  16  16  16
#     4  10  20  37  64  92 121 159 206 266 329 392
#     4  11  25  44  66  93 124 168 227 281 333 401
#     4  11  25  43  63  97 144 185 222 275 342 411
#     4  12  23  39  66  93 128 174 227 278 332 402
#     4  10  22  40  63  92 124 160 212 280 342 394
#     4  11  19  34  58  89 124 166 213 267 324 389
#     4  10  21  37  59  91 131 170 211 265 330 399
#
# _framework density 23.439461000000001
#
# number of rings (size 3 to 8) (size 9 to 14) (size 15 to 20)
#    0.000    1.286    4.286    1.714    0.000    5.143 
#    0.000    2.857    0.000    0.429    0.000    0.000 
#    0.000    0.000    0.000    0.000    0.000    0.000 
#
# Total GULP energy -312547.427185 kJ/mol
# GULP energy per Si atom -5581.204057 kJ/mol
# Density = 2.338611 g / cm^3
# Si number density = 23.439461 Si / 1000 Ang^3
#
#
#
# Elastic Constant Matrix: (Units=GPa)
#
#
# Indices 1 2 3 4 5 6 
#
# 1 74.5259 30.1855 6.7460 0.0000 0.0000 0.0000
# 2 30.1855 95.9893 49.9675 0.0000 0.0000 0.0000
# 3 6.7460 49.9675 122.8860 0.0000 0.0000 0.0000
# 4 0.0000 0.0000 0.0000 20.6671 0.0000 0.0000
# 5 0.0000 0.0000 0.0000 0.0000 4.8595 0.0000
# 6 0.0000 0.0000 0.0000 0.0000 0.0000 -15.1494
#
#
#
# Elastic Compliance Matrix: (Units=1/GPa)
#
#
# Indices 1 2 3 4 5 6 
#
# 1 0.015575 -0.005648 0.001442 0.000000 0.000000 0.000000
# 2 -0.005648 0.015263 -0.005896 0.000000 0.000000 0.000000
# 3 0.001442 -0.005896 0.010456 0.000000 0.000000 0.000000
# 4 0.000000 0.000000 0.000000 0.048386 0.000000 0.000000
# 5 0.000000 0.000000 0.000000 0.000000 0.205782 0.000000
# 6 0.000000 0.000000 0.000000 0.000000 0.000000 -0.066009
#
#
# Mechanical properties :
#
#
# Convention : Reuss Voigt Hill
#
# Bulk Modulus (GPa) = 47.41845 51.91102 49.66474
# Shear Modulus (GPa) = 19.47874 15.84224 17.66049
#
# Velocity S-wave (km/s) = 2.88588 2.60259 2.74788
# Velocity P-wave (km/s) = 5.60165 5.58804 5.59485
#
# Compressibility (1/GPa) = 0.02108884
#
# Stress axis : x y z
#
# Youngs Moduli (GPa) = 64.20349 65.51607 95.63879
#
# Poissons Ratio (x) = 0.37007 -0.13789
# Poissons Ratio (y) = 0.36265 0.56391
# Poissons Ratio (z) = -0.09256 0.38630
#
# Static dielectric constant tensor:
#      x y z
#    x 1.885340 0.000000 0.000000 
#    y 0.000000 1.904050 0.000000 
#    z 0.000000 0.000000 1.928560 
# 
# From -- ./inp_files/27540.got.cif
#   From: 2010.05.17/outbox.cif.g08.bks.cpg/sg67_14_cif.got.tgz:27540.got - 2010.06.03 18:28:57.
