data_PCOD9503139
_publ_section_title
;
Structure prediction by ZEFSAII (Michael W. Deem and Ramdas Pophale) SiO2 
 PCOD9503139
Probable space group: C M M A
;
_chemical_formula_sum "Si O2"
_cell_formula_units_Z 88
_cell_length_a 16.653823
_cell_length_b 7.469565
_cell_length_c 31.581668
_cell_angle_alpha 90.000000
_cell_angle_beta 90.000000
_cell_angle_gamma 90.000000
_cell_volume 3928.658861
_symmetry_space_group_name_H-M "C M M A"
_symmetry_group_IT_number 67
_symmetry_cell_setting 'orthorhombic'
loop_
_space_group_symop_operation_xyz
x,y,z
-x,1/2-y,z
x,-y,-z
-x,1/2+y,-z
-x,-y,-z
x,1/2+y,-z
-x,y,z
x,1/2-y,z
1/2+x,1/2+y,z
1/2-x,-y,z
1/2+x,1/2-y,-z
1/2-x,y,-z
1/2-x,1/2-y,-z
1/2+x,y,-z
1/2-x,1/2+y,z
1/2+x,-y,z
loop_
_atom_site_type_symbol
_atom_site_label
_atom_site_fract_x
_atom_site_fract_y
_atom_site_fract_z
Si Si1 0.090955 0.035603 0.545415
Si Si2 0.000000 0.464443 0.950255
Si Si3 0.344420 0.035958 0.365411
Si Si4 0.159862 0.535805 0.097543
Si Si5 0.154712 0.964570 0.274038
Si Si6 0.408244 0.531879 0.815638
O O1 0.088710 0.250000 0.548845
O O2 0.125664 0.965142 0.589518
O O3 0.000000 0.966164 0.542543
O O4 0.131885 0.000000 0.500000
O O5 0.083209 0.531691 0.929227
O O6 0.000000 0.250000 0.943925
O O7 0.000000 0.500000 0.000000
O O8 0.358425 0.250000 0.365615
O O9 0.376050 0.968103 0.319877
O O10 0.250000 0.000000 0.364319
O O11 0.152602 0.750000 0.098473
O O12 0.250000 0.500000 0.081822
O O13 0.148105 0.470811 0.145966
O O14 0.143192 0.750000 0.274530
O O15 0.115349 0.033450 0.230993
O O16 0.250000 0.000000 0.271587
O O17 0.500000 0.484542 0.825736
O O18 0.404303 0.750000 0.814355
#
# Coordination Sequence:
#
# PCOD9503139 Si02
#       6
#    16   8  16  16  16  16
#     4   9  18  32  48  65  87 115 150 193 238 286
#     4  10  22  40  60  82 114 150 186 230 275 322
#     4   9  18  31  46  67  94 122 153 194 241 288
#     4  10  20  36  58  83 112 147 184 226 274 322
#     4   9  17  29  47  70  96 127 161 197 242 296
#     4   9  16  29  51  77 104 135 173 213 254 305
#
# _framework density 22.399501000000001
#
# number of rings (size 3 to 8) (size 9 to 14) (size 15 to 20)
#    0.000    2.727    0.909    0.545    0.000    2.909 
#    0.000    7.273    0.000    1.636    0.000    5.091 
#    0.000    0.000    0.000    0.000    0.000    0.000 
#
# Total GULP energy -245359.137103 kJ/mol
# GULP energy per Si atom -5576.344025 kJ/mol
# Density = 2.234852 g / cm^3
# Si number density = 22.399501 Si / 1000 Ang^3
#
#
#
# Elastic Constant Matrix: (Units=GPa)
#
#
# Indices 1 2 3 4 5 6 
#
# 1 103.5464 -2.6175 76.5883 0.0000 0.0000 0.0000
# 2 -2.6175 68.5514 7.3077 0.0000 0.0000 0.0000
# 3 76.5883 7.3077 190.6065 0.0000 0.0000 0.0000
# 4 0.0000 0.0000 0.0000 6.8679 0.0000 0.0000
# 5 0.0000 0.0000 0.0000 0.0000 34.5042 0.0000
# 6 0.0000 0.0000 0.0000 0.0000 0.0000 14.9633
#
#
#
# Elastic Compliance Matrix: (Units=1/GPa)
#
#
# Indices 1 2 3 4 5 6 
#
# 1 0.013827 0.001125 -0.005599 0.000000 0.000000 0.000000
# 2 0.001125 0.014739 -0.001017 0.000000 0.000000 0.000000
# 3 -0.005599 -0.001017 0.007535 0.000000 0.000000 0.000000
# 4 0.000000 0.000000 0.000000 0.145605 0.000000 0.000000
# 5 0.000000 0.000000 0.000000 0.000000 0.028982 0.000000
# 6 0.000000 0.000000 0.000000 0.000000 0.000000 0.066830
#
#
# Mechanical properties :
#
#
# Convention : Reuss Voigt Hill
#
# Bulk Modulus (GPa) = 39.81077 58.36236 49.08657
# Shear Modulus (GPa) = 16.84216 30.02880 23.43548
#
# Velocity S-wave (km/s) = 2.74505 3.66539 3.23809
# Velocity P-wave (km/s) = 5.27814 6.63515 5.99516
#
# Compressibility (1/GPa) = 0.02511883
#
# Stress axis : x y z
#
# Youngs Moduli (GPa) = 72.32038 67.84737 132.71020
#
# Poissons Ratio (x) = -0.07632 0.74306
# Poissons Ratio (y) = -0.08135 0.13497
# Poissons Ratio (z) = 0.40493 0.06900
#
# Static dielectric constant tensor:
#      x y z
#    x 1.798750 0.000000 0.000000 
#    y 0.000000 1.828080 0.000000 
#    z 0.000000 0.000000 1.872540 
# 
# From -- ./inp_files/44309.got.cif
#   From: 2010.05.17/outbox.cif.g08.bks.cpg/sg67_23_cif.got.tgz:44309.got - 2010.06.03 18:28:57.
