data_PCOD9503764
_publ_section_title
;
Structure prediction by ZEFSAII (Michael W. Deem and Ramdas Pophale) SiO2 
 PCOD9503764
Probable space group: C M M A
;
_chemical_formula_sum "Si O2"
_cell_formula_units_Z 72
_cell_length_a 8.829098
_cell_length_b 15.306386
_cell_length_c 26.479926
_cell_angle_alpha 90.000000
_cell_angle_beta 90.000000
_cell_angle_gamma 90.000000
_cell_volume 3578.539091
_symmetry_space_group_name_H-M "C M M A"
_symmetry_group_IT_number 67
_symmetry_cell_setting 'orthorhombic'
loop_
_space_group_symop_operation_xyz
x,y,z
-x,1/2-y,z
x,-y,-z
-x,1/2+y,-z
-x,-y,-z
x,1/2+y,-z
-x,y,z
x,1/2-y,z
1/2+x,1/2+y,z
1/2-x,-y,z
1/2+x,1/2-y,-z
1/2-x,y,-z
1/2-x,1/2-y,-z
1/2+x,y,-z
1/2-x,1/2+y,z
1/2+x,-y,z
loop_
_atom_site_type_symbol
_atom_site_label
_atom_site_fract_x
_atom_site_fract_y
_atom_site_fract_z
Si Si1 0.317641 0.646388 0.948490
Si Si2 0.183175 0.901616 0.624961
Si Si3 0.817818 0.750000 0.443909
Si Si4 0.820352 0.595645 0.737265
Si Si5 0.330230 0.853552 0.840033
O O1 0.500000 0.639553 0.949446
O O2 0.278007 0.750000 0.949275
O O3 0.266237 0.611524 0.893473
O O4 0.250000 0.608093 0.000000
O O5 0.256069 0.835334 0.585408
O O6 0.219297 0.867129 0.681931
O O7 0.000000 0.904493 0.619658
O O8 0.250000 0.000000 0.620089
O O9 0.750000 0.750000 0.500000
O O10 0.000000 0.750000 0.444900
O O11 0.750000 0.500000 0.736843
O O12 0.761263 0.636528 0.788815
O O13 0.000000 0.591943 0.739369
O O14 0.500000 0.890279 0.832410
O O15 0.344850 0.750000 0.848067
#
# Coordination Sequence:
#
# PCOD9503764 Si02
#       5
#    16  16   8  16  16
#     4   8  14  25  41  63  94 131 171 217 270 327
#     4  10  22  42  65  93 128 165 208 256 304 361
#     4  12  26  44  68  98 130 168 209 252 303 354
#     4  10  21  36  56  80 110 146 185 229 280 337
#     4   9  18  31  48  74 106 139 177 224 277 335
#
# _framework density 20.119941000000001
#
# number of rings (size 3 to 8) (size 9 to 14) (size 15 to 20)
#    0.000    2.444    0.000    3.667    1.556    4.444 
#    0.000    4.444    0.000    0.667    0.000    4.667 
#    0.000    0.000    0.000    0.000    0.000    0.000 
#
# Total GULP energy -200647.554369 kJ/mol
# GULP energy per Si atom -5573.543177 kJ/mol
# Density = 2.007415 g / cm^3
# Si number density = 20.119941 Si / 1000 Ang^3
#
#
#
# Elastic Constant Matrix: (Units=GPa)
#
#
# Indices 1 2 3 4 5 6 
#
# 1 76.2660 26.8486 83.6601 0.0000 0.0000 0.0000
# 2 26.8486 61.8569 62.0584 0.0000 0.0000 0.0000
# 3 83.6601 62.0584 239.8102 0.0000 0.0000 0.0000
# 4 0.0000 0.0000 0.0000 153.4796 0.0000 0.0000
# 5 0.0000 0.0000 0.0000 0.0000 30.1856 0.0000
# 6 0.0000 0.0000 0.0000 0.0000 0.0000 25.7200
#
#
#
# Elastic Compliance Matrix: (Units=1/GPa)
#
#
# Indices 1 2 3 4 5 6 
#
# 1 0.021510 -0.002442 -0.006872 0.000000 0.000000 0.000000
# 2 -0.002442 0.022113 -0.004870 0.000000 0.000000 0.000000
# 3 -0.006872 -0.004870 0.007828 0.000000 0.000000 0.000000
# 4 0.000000 0.000000 0.000000 0.006516 0.000000 0.000000
# 5 0.000000 0.000000 0.000000 0.000000 0.033128 0.000000
# 6 0.000000 0.000000 0.000000 0.000000 0.000000 0.038880
#
#
# Mechanical properties :
#
#
# Convention : Reuss Voigt Hill
#
# Bulk Modulus (GPa) = 43.32467 80.34081 61.83274
# Shear Modulus (GPa) = 30.11379 55.56810 42.84095
#
# Velocity S-wave (km/s) = 3.87294 5.26102 4.61942
# Velocity P-wave (km/s) = 6.44821 8.77053 7.69745
#
# Compressibility (1/GPa) = 0.02308154
#
# Stress axis : x y z
#
# Youngs Moduli (GPa) = 46.49018 45.22324 127.75095
#
# Poissons Ratio (x) = 0.11043 0.87791
# Poissons Ratio (y) = 0.11352 0.62221
# Poissons Ratio (z) = 0.31948 0.22026
#
# Static dielectric constant tensor:
#      x y z
#    x 1.678410 0.000000 0.000000 
#    y 0.000000 1.734460 0.000000 
#    z 0.000000 0.000000 1.780580 
# 
# From -- ./inp_files/40535.got.cif
#   From: 2010.05.17/outbox.cif.g08.bks.cpg/sg67_21_cif.got.tgz:40535.got - 2010.06.03 18:28:57.
