data_PCOD9503940
_publ_section_title
;
Structure prediction by ZEFSAII (Michael W. Deem and Ramdas Pophale) SiO2 
 PCOD9503940
Probable space group: C M M A
;
_chemical_formula_sum "Si O2"
_cell_formula_units_Z 116
_cell_length_a 31.212560
_cell_length_b 16.783308
_cell_length_c 11.677945
_cell_angle_alpha 90.000000
_cell_angle_beta 90.000000
_cell_angle_gamma 90.000000
_cell_volume 6117.491581
_symmetry_space_group_name_H-M "C M M A"
_symmetry_group_IT_number 67
_symmetry_cell_setting 'orthorhombic'
loop_
_space_group_symop_operation_xyz
x,y,z
-x,1/2-y,z
x,-y,-z
-x,1/2+y,-z
-x,-y,-z
x,1/2+y,-z
-x,y,z
x,1/2-y,z
1/2+x,1/2+y,z
1/2-x,-y,z
1/2+x,1/2-y,-z
1/2-x,y,-z
1/2-x,1/2-y,-z
1/2+x,y,-z
1/2-x,1/2+y,z
1/2+x,-y,z
loop_
_atom_site_type_symbol
_atom_site_label
_atom_site_fract_x
_atom_site_fract_y
_atom_site_fract_z
Si Si1 0.374559 0.345557 0.557850
Si Si2 0.115789 0.657402 0.030616
Si Si3 0.289080 0.153917 0.416739
Si Si4 0.950195 0.053146 0.836161
Si Si5 0.750000 0.000000 0.000000
Si Si6 0.123747 0.932228 0.798778
Si Si7 0.812721 0.580457 0.178031
Si Si8 0.951483 0.843897 0.394730
O O1 0.375233 0.250000 0.571116
O O2 0.333024 0.365952 0.482628
O O3 0.373894 0.385167 0.681074
O O4 0.416527 0.369571 0.486637
O O5 0.105073 0.750000 0.024088
O O6 0.075189 0.604672 0.069654
O O7 0.153252 0.642346 0.123755
O O8 0.131278 0.623205 0.908960
O O9 0.287058 0.250000 0.401266
O O10 0.250000 0.130595 0.500000
O O11 0.290686 0.112991 0.292780
O O12 0.947785 0.105313 0.720183
O O13 0.000000 0.039325 0.863232
O O14 0.922418 0.974175 0.815209
O O15 0.721027 0.054691 0.081890
O O16 0.158669 0.002488 0.796582
O O17 0.944320 0.750000 0.368241
O O18 0.000000 0.852003 0.438960
#
# Coordination Sequence:
#
# PCOD9503940 Si02
#       8
#    16  16  16  16   4  16  16  16
#     4  10  21  39  59  83 120 159 198 249 305 366
#     4  11  22  40  63  86 117 159 204 249 303 365
#     4  10  23  41  62  92 124 160 207 254 304 367
#     4  10  21  37  60  88 119 154 200 255 304 362
#     4  12  24  44  64  92 122 156 206 254 296 380
#     4  11  23  39  57  87 123 157 198 248 307 369
#     4  11  23  42  64  88 122 157 199 252 308 357
#     4   9  18  34  57  84 112 149 198 245 292 355
#
# _framework density 18.962021
#
# number of rings (size 3 to 8) (size 9 to 14) (size 15 to 20)
#    0.000    1.655    1.379    4.138    1.931    5.793 
#    0.000    2.759    0.000    2.483    0.000    0.000 
#    0.000    0.000    0.000    0.000    0.000    0.000 
#
# Total GULP energy -324144.379188 kJ/mol
# GULP energy per Si atom -5588.696193 kJ/mol
# Density = 1.891886 g / cm^3
# Si number density = 18.962021 Si / 1000 Ang^3
#
#
#
# Elastic Constant Matrix: (Units=GPa)
#
#
# Indices 1 2 3 4 5 6 
#
# 1 109.3068 24.3892 62.3988 0.0000 0.0000 0.0000
# 2 24.3892 35.1509 42.9242 0.0000 0.0000 0.0000
# 3 62.3988 42.9242 152.1414 0.0000 0.0000 0.0000
# 4 0.0000 0.0000 0.0000 36.0413 0.0000 0.0000
# 5 0.0000 0.0000 0.0000 0.0000 27.6597 0.0000
# 6 0.0000 0.0000 0.0000 0.0000 0.0000 8.3153
#
#
#
# Elastic Compliance Matrix: (Units=1/GPa)
#
#
# Indices 1 2 3 4 5 6 
#
# 1 0.012237 -0.003603 -0.004002 0.000000 0.000000 0.000000
# 2 -0.003603 0.044463 -0.011067 0.000000 0.000000 0.000000
# 3 -0.004002 -0.011067 0.011337 0.000000 0.000000 0.000000
# 4 0.000000 0.000000 0.000000 0.027746 0.000000 0.000000
# 5 0.000000 0.000000 0.000000 0.000000 0.036154 0.000000
# 6 0.000000 0.000000 0.000000 0.000000 0.000000 0.120260
#
#
# Mechanical properties :
#
#
# Convention : Reuss Voigt Hill
#
# Bulk Modulus (GPa) = 32.58165 61.78041 47.18103
# Shear Modulus (GPa) = 16.67934 25.52905 21.10419
#
# Velocity S-wave (km/s) = 2.96905 3.67321 3.33974
# Velocity P-wave (km/s) = 5.38271 7.11631 6.30934
#
# Compressibility (1/GPa) = 0.03069212
#
# Stress axis : x y z
#
# Youngs Moduli (GPa) = 81.71706 22.49073 88.20984
#
# Poissons Ratio (x) = 0.08104 0.35305
# Poissons Ratio (y) = 0.29446 0.97618
# Poissons Ratio (z) = 0.32706 0.24890
#
# Static dielectric constant tensor:
#      x y z
#    x 1.658170 0.000000 0.000000 
#    y 0.000000 1.643240 0.000000 
#    z 0.000000 0.000000 1.628850 
# 
# From -- ./inp_files/23964.got.cif
#   From: 2010.05.17/outbox.cif.g08.bks.cpg/sg67_12_cif.got.tgz:23964.got - 2010.06.03 18:28:57.
