data_PCOD9503190
_publ_section_title
;
Structure prediction by ZEFSAII (Michael W. Deem and Ramdas Pophale) SiO2 
 PCOD9503190
Probable space group: C M M A
;
_chemical_formula_sum "Si O2"
_cell_formula_units_Z 96
_cell_length_a 15.462547
_cell_length_b 14.008094
_cell_length_c 21.905481
_cell_angle_alpha 90.000000
_cell_angle_beta 90.000000
_cell_angle_gamma 90.000000
_cell_volume 4744.744969
_symmetry_space_group_name_H-M "C M M A"
_symmetry_group_IT_number 67
_symmetry_cell_setting 'orthorhombic'
loop_
_space_group_symop_operation_xyz
x,y,z
-x,1/2-y,z
x,-y,-z
-x,1/2+y,-z
-x,-y,-z
x,1/2+y,-z
-x,y,z
x,1/2-y,z
1/2+x,1/2+y,z
1/2-x,-y,z
1/2+x,1/2-y,-z
1/2-x,y,-z
1/2-x,1/2-y,-z
1/2+x,y,-z
1/2-x,1/2+y,z
1/2+x,-y,z
loop_
_atom_site_type_symbol
_atom_site_label
_atom_site_fract_x
_atom_site_fract_y
_atom_site_fract_z
Si Si1 0.099496 0.022853 0.569025
Si Si2 0.290037 0.635281 0.668808
Si Si3 0.600930 0.641382 0.015029
Si Si4 0.400970 0.359234 0.214439
Si Si5 0.346783 0.024949 0.099136
Si Si6 0.593379 0.136157 0.665221
O O1 0.167178 0.084442 0.609552
O O2 0.000000 0.063529 0.569367
O O3 0.126159 0.000000 0.500000
O O4 0.092560 0.920972 0.602271
O O5 0.295520 0.750000 0.659584
O O6 0.346500 0.609187 0.727549
O O7 0.190546 0.612456 0.687125
O O8 0.500000 0.639236 0.996319
O O9 0.625489 0.750000 0.028352
O O10 0.611197 0.571031 0.072176
O O11 0.653046 0.597566 0.958342
O O12 0.500000 0.357088 0.233863
O O13 0.375046 0.250000 0.197834
O O14 0.391742 0.425910 0.155974
O O15 0.250000 0.000000 0.117084
O O16 0.500000 0.110502 0.696503
O O17 0.592378 0.250000 0.658246
#
# Coordination Sequence:
#
# PCOD9503190 Si02
#       6
#    16  16  16  16  16  16
#     4  10  21  36  56  83 115 151 190 237 291 344
#     4  10  21  37  60  88 115 147 192 244 293 346
#     4  10  20  36  59  85 115 151 193 241 288 335
#     4  10  21  39  62  85 112 148 191 241 294 346
#     4  11  22  34  55  86 118 153 189 231 284 347
#     4   9  19  36  56  79 110 148 187 228 281 345
#
# _framework density 20.23291
#
# number of rings (size 3 to 8) (size 9 to 14) (size 15 to 20)
#    0.000    2.000    0.000    4.500    0.000    7.667 
#    0.000    3.333    0.000    3.000    0.000    4.667 
#    0.000    0.000    0.000    0.000    0.000    0.000 
#
# Total GULP energy -267639.269376 kJ/mol
# GULP energy per Si atom -5575.818112 kJ/mol
# Density = 2.018686 g / cm^3
# Si number density = 20.232910 Si / 1000 Ang^3
#
#
#
# Elastic Constant Matrix: (Units=GPa)
#
#
# Indices 1 2 3 4 5 6 
#
# 1 132.2967 31.8519 51.3181 0.0000 0.0000 0.0000
# 2 31.8519 96.4572 42.3154 0.0000 0.0000 0.0000
# 3 51.3181 42.3154 97.4837 0.0000 0.0000 0.0000
# 4 0.0000 0.0000 0.0000 17.5023 0.0000 0.0000
# 5 0.0000 0.0000 0.0000 0.0000 -56.7221 0.0000
# 6 0.0000 0.0000 0.0000 0.0000 0.0000 30.3160
#
#
#
# Elastic Compliance Matrix: (Units=1/GPa)
#
#
# Indices 1 2 3 4 5 6 
#
# 1 0.009605 -0.001178 -0.004545 0.000000 0.000000 0.000000
# 2 -0.001178 0.012950 -0.005001 0.000000 0.000000 0.000000
# 3 -0.004545 -0.005001 0.014822 0.000000 0.000000 0.000000
# 4 0.000000 0.000000 0.000000 0.057135 0.000000 0.000000
# 5 0.000000 0.000000 0.000000 0.000000 -0.017630 0.000000
# 6 0.000000 0.000000 0.000000 0.000000 0.000000 0.032986
#
#
# Mechanical properties :
#
#
# Convention : Reuss Voigt Hill
#
# Bulk Modulus (GPa) = 62.78022 64.13425 63.45724
# Shear Modulus (GPa) = 36.59582 11.60272 24.09927
#
# Velocity S-wave (km/s) = 4.25753 2.39730 3.45497
# Velocity P-wave (km/s) = 7.43403 6.27929 6.88093
#
# Compressibility (1/GPa) = 0.01592858
#
# Stress axis : x y z
#
# Youngs Moduli (GPa) = 104.10719 77.21814 67.46795
#
# Poissons Ratio (x) = 0.09096 0.30666
# Poissons Ratio (y) = 0.12263 0.33743
# Poissons Ratio (z) = 0.47320 0.38619
#
# Static dielectric constant tensor:
#      x y z
#    x 1.791150 0.000000 0.000000 
#    y 0.000000 1.745820 0.000000 
#    z 0.000000 0.000000 1.656460 
# 
# From -- ./inp_files/38401.got.cif
#   From: 2010.05.17/outbox.cif.g08.bks.cpg/sg67_20_cif.got.tgz:38401.got - 2010.06.03 18:28:57.
