data_PCOD9503016
_publ_section_title
;
Structure prediction by ZEFSAII (Michael W. Deem and Ramdas Pophale) SiO2 
 PCOD9503016
Probable space group: C M M A
;
_chemical_formula_sum "Si O2"
_cell_formula_units_Z 112
_cell_length_a 14.402041
_cell_length_b 21.820620
_cell_length_c 17.308008
_cell_angle_alpha 90.000000
_cell_angle_beta 90.000000
_cell_angle_gamma 90.000000
_cell_volume 5439.239931
_symmetry_space_group_name_H-M "C M M A"
_symmetry_group_IT_number 67
_symmetry_cell_setting 'orthorhombic'
loop_
_space_group_symop_operation_xyz
x,y,z
-x,1/2-y,z
x,-y,-z
-x,1/2+y,-z
-x,-y,-z
x,1/2+y,-z
-x,y,z
x,1/2-y,z
1/2+x,1/2+y,z
1/2-x,-y,z
1/2+x,1/2-y,-z
1/2-x,y,-z
1/2-x,1/2-y,-z
1/2+x,y,-z
1/2-x,1/2+y,z
1/2+x,-y,z
loop_
_atom_site_type_symbol
_atom_site_label
_atom_site_fract_x
_atom_site_fract_y
_atom_site_fract_z
Si Si1 0.111762 0.316940 0.919382
Si Si2 0.887544 0.931806 0.977047
Si Si3 0.151662 0.056603 0.543056
Si Si4 0.295726 0.851635 0.763166
Si Si5 0.605912 0.817098 0.605568
Si Si6 0.609736 0.529253 0.717162
Si Si7 0.607702 0.100742 0.800184
O O1 0.130712 0.250000 0.956095
O O2 0.158633 0.318606 0.835678
O O3 0.000000 0.321715 0.910184
O O4 0.143671 0.375818 0.968558
O O5 0.867381 0.916272 0.888276
O O6 0.000000 0.933060 0.983279
O O7 0.855502 0.000000 0.000000
O O8 0.250000 0.061986 0.500000
O O9 0.113646 0.125526 0.547890
O O10 0.152379 0.035435 0.632008
O O11 0.102383 0.000000 0.500000
O O12 0.329839 0.827525 0.680274
O O13 0.335519 0.921308 0.767779
O O14 0.184997 0.853008 0.769568
O O15 0.500000 0.817287 0.634562
O O16 0.624850 0.750000 0.571175
O O17 0.500000 0.545731 0.713569
O O18 0.615549 0.461508 0.750610
O O19 0.500000 0.121112 0.797606
#
# Coordination Sequence:
#
# PCOD9503016 Si02
#       7
#    16  16  16  16  16  16  16
#     4  10  20  35  58  89 121 154 199 258 318 368
#     4   9  18  35  57  83 119 161 204 254 312 369
#     4  10  22  35  61  94 129 158 193 239 299 366
#     4  11  20  33  60  86 120 161 207 260 309 360
#     4  10  22  41  65  93 126 165 208 253 307 368
#     4  10  21  37  59  89 123 160 203 253 305 359
#     4  10  22  37  55  82 119 165 212 258 307 367
#
# _framework density 20.591113
#
# number of rings (size 3 to 8) (size 9 to 14) (size 15 to 20)
#    0.000    2.000    0.000    4.286    8.000    5.429 
#    0.000    2.857    0.000    3.429    0.000    0.000 
#    0.000    0.000    0.000    0.000    0.000    0.000 
#
# Total GULP energy -312556.534739 kJ/mol
# GULP energy per Si atom -5581.366692 kJ/mol
# Density = 2.054425 g / cm^3
# Si number density = 20.591113 Si / 1000 Ang^3
#
#
#
# Elastic Constant Matrix: (Units=GPa)
#
#
# Indices 1 2 3 4 5 6 
#
# 1 117.9666 33.3007 29.9845 0.0000 0.0000 0.0000
# 2 33.3007 150.8497 49.5688 0.0000 0.0000 0.0000
# 3 29.9845 49.5688 73.0431 0.0000 0.0000 0.0000
# 4 0.0000 0.0000 0.0000 25.7336 0.0000 0.0000
# 5 0.0000 0.0000 0.0000 0.0000 29.9787 0.0000
# 6 0.0000 0.0000 0.0000 0.0000 0.0000 6.5133
#
#
#
# Elastic Compliance Matrix: (Units=1/GPa)
#
#
# Indices 1 2 3 4 5 6 
#
# 1 0.009594 -0.001060 -0.003219 0.000000 0.000000 0.000000
# 2 -0.001060 0.008649 -0.005434 0.000000 0.000000 0.000000
# 3 -0.003219 -0.005434 0.018700 0.000000 0.000000 0.000000
# 4 0.000000 0.000000 0.000000 0.038860 0.000000 0.000000
# 5 0.000000 0.000000 0.000000 0.000000 0.033357 0.000000
# 6 0.000000 0.000000 0.000000 0.000000 0.000000 0.153532
#
#
# Mechanical properties :
#
#
# Convention : Reuss Voigt Hill
#
# Bulk Modulus (GPa) = 57.08994 63.06303 60.07649
# Shear Modulus (GPa) = 17.36369 27.71215 22.53792
#
# Velocity S-wave (km/s) = 2.90705 3.67254 3.31198
# Velocity P-wave (km/s) = 6.24929 6.97683 6.62306
#
# Compressibility (1/GPa) = 0.01751622
#
# Stress axis : x y z
#
# Youngs Moduli (GPa) = 104.22648 115.62330 53.47694
#
# Poissons Ratio (x) = 0.12259 0.17215
# Poissons Ratio (y) = 0.11051 0.29060
# Poissons Ratio (z) = 0.33551 0.62830
#
# Static dielectric constant tensor:
#      x y z
#    x 1.761400 0.000000 0.000000 
#    y 0.000000 1.781720 0.000000 
#    z 0.000000 0.000000 1.701720 
# 
# From -- ./inp_files/27498.got.cif
#   From: 2010.05.17/outbox.cif.g08.bks.cpg/sg67_14_cif.got.tgz:27498.got - 2010.06.03 18:28:57.
