data_PCOD9503683
_publ_section_title
;
Structure prediction by ZEFSAII (Michael W. Deem and Ramdas Pophale) SiO2 
 PCOD9503683
Probable space group: C M M A
;
_chemical_formula_sum "Si O2"
_cell_formula_units_Z 96
_cell_length_a 23.650165
_cell_length_b 13.996303
_cell_length_c 14.865946
_cell_angle_alpha 90.000000
_cell_angle_beta 90.000000
_cell_angle_gamma 90.000000
_cell_volume 4920.849262
_symmetry_space_group_name_H-M "C M M A"
_symmetry_group_IT_number 67
_symmetry_cell_setting 'orthorhombic'
loop_
_space_group_symop_operation_xyz
x,y,z
-x,1/2-y,z
x,-y,-z
-x,1/2+y,-z
-x,-y,-z
x,1/2+y,-z
-x,y,z
x,1/2-y,z
1/2+x,1/2+y,z
1/2-x,-y,z
1/2+x,1/2-y,-z
1/2-x,y,-z
1/2-x,1/2-y,-z
1/2+x,y,-z
1/2-x,1/2+y,z
1/2+x,-y,z
loop_
_atom_site_type_symbol
_atom_site_label
_atom_site_fract_x
_atom_site_fract_y
_atom_site_fract_z
Si Si1 0.314760 0.859515 0.034134
Si Si2 0.261547 0.864529 0.711842
Si Si3 0.066524 0.522962 0.294220
Si Si4 0.857656 0.864036 0.430597
Si Si5 0.156479 0.547290 0.142964
Si Si6 0.859638 0.863851 0.639836
O O1 0.322826 0.750000 0.064438
O O2 0.329550 0.941160 0.106067
O O3 0.250000 0.870246 0.000000
O O4 0.349592 0.885725 0.944434
O O5 0.261490 0.750000 0.726173
O O6 0.300012 0.884076 0.623981
O O7 0.292570 0.912165 0.795885
O O8 0.197652 0.894606 0.690839
O O9 0.092380 0.585808 0.375537
O O10 0.101115 0.549819 0.204747
O O11 0.086873 0.416161 0.318219
O O12 0.000000 0.532901 0.286031
O O13 0.865978 0.750000 0.427230
O O14 0.854376 0.890988 0.534888
O O15 0.863505 0.750000 0.645480
#
# Coordination Sequence:
#
# PCOD9503683 Si02
#       6
#    16  16  16  16  16  16
#     4  10  22  38  62  94 124 149 176 224 294 369
#     4   9  18  33  59  91 122 151 188 239 299 360
#     4  11  25  40  57  81 115 161 209 251 287 332
#     4   9  19  37  58  84 116 153 198 249 300 350
#     4  10  21  38  62  87 121 153 191 235 289 355
#     4  10  21  35  57  85 117 156 197 245 299 349
#
# _framework density 19.508828000000001
#
# number of rings (size 3 to 8) (size 9 to 14) (size 15 to 20)
#    0.000    2.167    0.000    2.500    4.667    7.333 
#    0.000    6.667    0.000    1.000    0.000    0.000 
#    0.000    1.333    0.000    0.000    0.000    0.000 
#
# Total GULP energy -268399.975923 kJ/mol
# GULP energy per Si atom -5591.666165 kJ/mol
# Density = 1.946443 g / cm^3
# Si number density = 19.508828 Si / 1000 Ang^3
#
#
#
# Elastic Constant Matrix: (Units=GPa)
#
#
# Indices 1 2 3 4 5 6 
#
# 1 98.8007 17.3732 37.4038 0.0000 0.0000 0.0000
# 2 17.3732 72.5141 14.0604 0.0000 0.0000 0.0000
# 3 37.4038 14.0604 109.7374 0.0000 0.0000 0.0000
# 4 0.0000 0.0000 0.0000 27.5485 0.0000 0.0000
# 5 0.0000 0.0000 0.0000 0.0000 11.1757 0.0000
# 6 0.0000 0.0000 0.0000 0.0000 0.0000 18.3436
#
#
#
# Elastic Compliance Matrix: (Units=1/GPa)
#
#
# Indices 1 2 3 4 5 6 
#
# 1 0.011931 -0.002123 -0.003795 0.000000 0.000000 0.000000
# 2 -0.002123 0.014519 -0.001137 0.000000 0.000000 0.000000
# 3 -0.003795 -0.001137 0.010552 0.000000 0.000000 0.000000
# 4 0.000000 0.000000 0.000000 0.036300 0.000000 0.000000
# 5 0.000000 0.000000 0.000000 0.000000 0.089480 0.000000
# 6 0.000000 0.000000 0.000000 0.000000 0.000000 0.054515
#
#
# Mechanical properties :
#
#
# Convention : Reuss Voigt Hill
#
# Bulk Modulus (GPa) = 43.67994 46.52524 45.10259
# Shear Modulus (GPa) = 20.91729 25.56121 23.23925
#
# Velocity S-wave (km/s) = 3.27799 3.62365 3.45515
# Velocity P-wave (km/s) = 6.06345 6.43489 6.25193
#
# Compressibility (1/GPa) = 0.02289381
#
# Stress axis : x y z
#
# Youngs Moduli (GPa) = 83.81338 68.87331 94.77092
#
# Poissons Ratio (x) = 0.14620 0.35963
# Poissons Ratio (y) = 0.17791 0.10774
# Poissons Ratio (z) = 0.31805 0.07830
#
# Static dielectric constant tensor:
#      x y z
#    x 1.625530 0.000000 0.000000 
#    y 0.000000 1.728900 0.000000 
#    z 0.000000 0.000000 1.704750 
# 
# From -- ./inp_files/29294.got.cif
#   From: 2010.05.17/outbox.cif.g08.bks.cpg/sg67_15_cif.got.tgz:29294.got - 2010.06.03 18:28:57.
