data_PCOD9503505
_publ_section_title
;
Structure prediction by ZEFSAII (Michael W. Deem and Ramdas Pophale) SiO2 
 PCOD9503505
Probable space group: C M M A
;
_chemical_formula_sum "Si O2"
_cell_formula_units_Z 72
_cell_length_a 8.328354
_cell_length_b 20.919814
_cell_length_c 20.752765
_cell_angle_alpha 90.000000
_cell_angle_beta 90.000000
_cell_angle_gamma 90.000000
_cell_volume 3615.704784
_symmetry_space_group_name_H-M "C M M A"
_symmetry_group_IT_number 67
_symmetry_cell_setting 'orthorhombic'
loop_
_space_group_symop_operation_xyz
x,y,z
-x,1/2-y,z
x,-y,-z
-x,1/2+y,-z
-x,-y,-z
x,1/2+y,-z
-x,y,z
x,1/2-y,z
1/2+x,1/2+y,z
1/2-x,-y,z
1/2+x,1/2-y,-z
1/2-x,y,-z
1/2-x,1/2-y,-z
1/2+x,y,-z
1/2-x,1/2+y,z
1/2+x,-y,z
loop_
_atom_site_type_symbol
_atom_site_label
_atom_site_fract_x
_atom_site_fract_y
_atom_site_fract_z
Si Si1 0.808220 0.570299 0.426462
Si Si2 0.681679 0.361728 0.192942
Si Si3 0.810675 0.677327 0.671050
Si Si4 0.000000 0.176377 0.109304
Si Si5 0.500000 0.949088 0.057129
Si Si6 0.250000 0.000000 0.157175
O O1 0.750000 0.500000 0.404951
O O2 0.750000 0.578553 0.500000
O O3 0.737236 0.625398 0.381686
O O4 0.000000 0.572207 0.424709
O O5 0.500000 0.345175 0.169468
O O6 0.711372 0.334380 0.263868
O O7 0.835617 0.337319 0.150757
O O8 0.686420 0.439725 0.196981
O O9 0.784418 0.750000 0.648283
O O10 0.000000 0.670338 0.686801
O O11 0.000000 0.127026 0.048567
O O12 0.000000 0.250000 0.090598
O O13 0.359072 0.964728 0.105494
O O14 0.500000 0.000000 0.000000
#
# Coordination Sequence:
#
# PCOD9503505 Si02
#       6
#    16  16  16   8   8   8
#     4  11  23  42  65  90 122 163 209 263 320 377
#     4  11  22  38  63  93 130 167 211 264 321 386
#     4  11  24  41  62  91 125 165 210 261 319 379
#     4  10  22  40  62  94 132 172 212 261 323 384
#     4  10  20  38  66  92 128 165 213 268 310 370
#     4  10  21  38  60  98 123 162 214 258 322 370
#
# _framework density 19.913129999999999
#
# number of rings (size 3 to 8) (size 9 to 14) (size 15 to 20)
#    0.000    1.333    2.222    4.333    1.556    3.556 
#    0.000    0.000    0.000   12.000    0.000    0.000 
#    0.000    0.000    0.000    0.000    0.000    0.000 
#
# Total GULP energy -200616.799771 kJ/mol
# GULP energy per Si atom -5572.688883 kJ/mol
# Density = 1.986781 g / cm^3
# Si number density = 19.913130 Si / 1000 Ang^3
#
#
#
# Elastic Constant Matrix: (Units=GPa)
#
#
# Indices 1 2 3 4 5 6 
#
# 1 124.2137 42.7242 13.7619 0.0000 0.0000 0.0000
# 2 42.7242 177.6473 53.7953 0.0000 0.0000 0.0000
# 3 13.7619 53.7953 51.8056 0.0000 0.0000 0.0000
# 4 0.0000 0.0000 0.0000 -1.3061 0.0000 0.0000
# 5 0.0000 0.0000 0.0000 0.0000 8.3909 0.0000
# 6 0.0000 0.0000 0.0000 0.0000 0.0000 20.1269
#
#
#
# Elastic Compliance Matrix: (Units=1/GPa)
#
#
# Indices 1 2 3 4 5 6 
#
# 1 0.008778 -0.002049 -0.000204 0.000000 0.000000 0.000000
# 2 -0.002049 0.008690 -0.008479 0.000000 0.000000 0.000000
# 3 -0.000204 -0.008479 0.028162 0.000000 0.000000 0.000000
# 4 0.000000 0.000000 0.000000 -0.765654 0.000000 0.000000
# 5 0.000000 0.000000 0.000000 0.000000 0.119177 0.000000
# 6 0.000000 0.000000 0.000000 0.000000 0.000000 0.049685
#
#
# Mechanical properties :
#
#
# Convention : Reuss Voigt Hill
#
# Bulk Modulus (GPa) = 41.38184 63.80328 52.59256
# Shear Modulus (GPa) = -9.58508 21.66803 6.04147
#
# Velocity S-wave (km/s) = -2.19634 3.30226 1.74370
# Velocity P-wave (km/s) = 3.79400 6.83010 5.52470
#
# Compressibility (1/GPa) = 0.02416519
#
# Stress axis : x y z
#
# Youngs Moduli (GPa) = 113.91940 115.07978 35.50933
#
# Poissons Ratio (x) = 0.23585 0.00723
# Poissons Ratio (y) = 0.23347 0.30108
# Poissons Ratio (z) = 0.02320 0.97575
#
# Static dielectric constant tensor:
#      x y z
#    x 1.738560 0.000000 0.000000 
#    y 0.000000 1.761340 0.000000 
#    z 0.000000 0.000000 1.660710 
# 
# From -- ./inp_files/36799.got.cif
#   From: 2010.05.17/outbox.cif.g08.bks.cpg/sg67_19_cif.got.tgz:36799.got - 2010.06.03 18:28:57.
