data_PCOD9503195
_publ_section_title
;
Structure prediction by ZEFSAII (Michael W. Deem and Ramdas Pophale) SiO2 
 PCOD9503195
Probable space group: C M M A
;
_chemical_formula_sum "Si O2"
_cell_formula_units_Z 104
_cell_length_a 21.977472
_cell_length_b 8.680783
_cell_length_c 28.816940
_cell_angle_alpha 90.000000
_cell_angle_beta 90.000000
_cell_angle_gamma 90.000000
_cell_volume 5497.743803
_symmetry_space_group_name_H-M "C M M A"
_symmetry_group_IT_number 67
_symmetry_cell_setting 'orthorhombic'
loop_
_space_group_symop_operation_xyz
x,y,z
-x,1/2-y,z
x,-y,-z
-x,1/2+y,-z
-x,-y,-z
x,1/2+y,-z
-x,y,z
x,1/2-y,z
1/2+x,1/2+y,z
1/2-x,-y,z
1/2+x,1/2-y,-z
1/2-x,y,-z
1/2-x,1/2-y,-z
1/2+x,y,-z
1/2-x,1/2+y,z
1/2+x,-y,z
loop_
_atom_site_type_symbol
_atom_site_label
_atom_site_fract_x
_atom_site_fract_y
_atom_site_fract_z
Si Si1 0.068787 0.435105 0.552189
Si Si2 0.395056 0.434802 0.122120
Si Si3 0.315529 0.934906 0.392522
Si Si4 0.500000 0.066924 0.050668
Si Si5 0.182923 0.566991 0.952812
Si Si6 0.430579 0.063613 0.777685
Si Si7 0.315047 0.064651 0.716318
O O1 0.073281 0.500000 0.500000
O O2 0.072703 0.250000 0.551278
O O3 0.125328 0.500916 0.581214
O O4 0.000000 0.476355 0.569417
O O5 0.389808 0.250000 0.124938
O O6 0.443830 0.477266 0.082728
O O7 0.337688 0.511596 0.098008
O O8 0.415198 0.499960 0.171378
O O9 0.314509 0.750000 0.396418
O O10 0.320639 0.977656 0.337997
O O11 0.250000 0.000000 0.409238
O O12 0.500000 0.250000 0.046249
O O13 0.500000 0.000000 0.000000
O O14 0.180434 0.750000 0.956110
O O15 0.250000 0.500000 0.955477
O O16 0.151098 0.500000 0.000000
O O17 0.500000 0.016504 0.764727
O O18 0.430008 0.250000 0.778779
O O19 0.375468 0.013479 0.743903
O O20 0.312206 0.250000 0.719170
O O21 0.250000 0.000000 0.733560
#
# Coordination Sequence:
#
# PCOD9503195 Si02
#       7
#    16  16  16   8  16  16  16
#     4  10  21  37  57  84 120 160 203 250 300 357
#     4  11  22  38  56  80 110 143 180 223 271 327
#     4  10  20  36  59  86 118 155 198 249 301 356
#     4  10  22  36  54  78 106 138 176 216 263 318
#     4  11  22  38  58  82 109 142 178 219 267 321
#     4  10  21  38  59  83 113 150 192 238 288 344
#     4   9  20  38  60  86 115 150 193 241 296 354
#
# _framework density 18.91685
#
# number of rings (size 3 to 8) (size 9 to 14) (size 15 to 20)
#    0.000    1.846    0.769    3.692    0.000    6.154 
#    0.000    4.615    0.000    0.000    0.000    0.000 
#    0.000    0.000    0.000    0.000    0.000    0.000 
#
# Total GULP energy -289951.751451 kJ/mol
# GULP energy per Si atom -5575.995220 kJ/mol
# Density = 1.887379 g / cm^3
# Si number density = 18.916850 Si / 1000 Ang^3
#
#
#
# Elastic Constant Matrix: (Units=GPa)
#
#
# Indices 1 2 3 4 5 6 
#
# 1 175.5400 49.6060 84.4425 0.0000 0.0000 0.0000
# 2 49.6060 37.5963 28.6003 0.0000 0.0000 0.0000
# 3 84.4425 28.6003 86.5412 0.0000 0.0000 0.0000
# 4 0.0000 0.0000 0.0000 28.5447 0.0000 0.0000
# 5 0.0000 0.0000 0.0000 0.0000 -38.2062 0.0000
# 6 0.0000 0.0000 0.0000 0.0000 0.0000 23.1688
#
#
#
# Elastic Compliance Matrix: (Units=1/GPa)
#
#
# Indices 1 2 3 4 5 6 
#
# 1 0.013086 -0.010090 -0.009435 0.000000 0.000000 0.000000
# 2 -0.010090 0.043310 -0.004468 0.000000 0.000000 0.000000
# 3 -0.009435 -0.004468 0.022238 0.000000 0.000000 0.000000
# 4 0.000000 0.000000 0.000000 0.035033 0.000000 0.000000
# 5 0.000000 0.000000 0.000000 0.000000 -0.026174 0.000000
# 6 0.000000 0.000000 0.000000 0.000000 0.000000 0.043162
#
#
# Mechanical properties :
#
#
# Convention : Reuss Voigt Hill
#
# Bulk Modulus (GPa) = 32.62733 69.44168 51.03450
# Shear Modulus (GPa) = 26.47521 11.83672 19.15596
#
# Velocity S-wave (km/s) = 3.74512 2.50416 3.18565
# Velocity P-wave (km/s) = 5.99887 6.71935 6.36931
#
# Compressibility (1/GPa) = 0.03064915
#
# Stress axis : x y z
#
# Youngs Moduli (GPa) = 76.41520 23.08937 44.96867
#
# Poissons Ratio (x) = 0.23296 0.42426
# Poissons Ratio (y) = 0.77100 0.20093
# Poissons Ratio (z) = 0.72095 0.10317
#
# Static dielectric constant tensor:
#      x y z
#    x 1.811250 0.000000 0.000000 
#    y 0.000000 1.593160 0.000000 
#    z 0.000000 0.000000 1.635210 
# 
# From -- ./inp_files/44677.got.cif
#   From: 2010.05.17/outbox.cif.g08.bks.cpg/sg67_23_cif.got.tgz:44677.got - 2010.06.03 18:28:57.
