data_PCOD9503496
_publ_section_title
;
Structure prediction by ZEFSAII (Michael W. Deem and Ramdas Pophale) SiO2 
 PCOD9503496
Probable space group: C M M A
;
_chemical_formula_sum "Si O2"
_cell_formula_units_Z 88
_cell_length_a 20.931489
_cell_length_b 9.707373
_cell_length_c 22.122010
_cell_angle_alpha 90.000000
_cell_angle_beta 90.000000
_cell_angle_gamma 90.000000
_cell_volume 4494.966150
_symmetry_space_group_name_H-M "C M M A"
_symmetry_group_IT_number 67
_symmetry_cell_setting 'orthorhombic'
loop_
_space_group_symop_operation_xyz
x,y,z
-x,1/2-y,z
x,-y,-z
-x,1/2+y,-z
-x,-y,-z
x,1/2+y,-z
-x,y,z
x,1/2-y,z
1/2+x,1/2+y,z
1/2-x,-y,z
1/2+x,1/2-y,-z
1/2-x,y,-z
1/2-x,1/2-y,-z
1/2+x,y,-z
1/2-x,1/2+y,z
1/2+x,-y,z
loop_
_atom_site_type_symbol
_atom_site_label
_atom_site_fract_x
_atom_site_fract_y
_atom_site_fract_z
Si Si1 0.293357 0.750000 0.059675
Si Si2 0.000000 0.407005 0.732519
Si Si3 0.621648 0.475991 0.792926
Si Si4 0.858625 0.418683 0.559114
Si Si5 0.924507 0.250000 0.111395
Si Si6 0.500000 0.415540 0.402248
Si Si7 0.250000 0.000000 0.142810
Si Si8 0.808730 0.591242 0.674110
O O1 0.371325 0.750000 0.057536
O O2 0.273191 0.878909 0.099923
O O3 0.250000 0.750000 0.000000
O O4 0.063048 0.432947 0.771097
O O5 0.000000 0.250000 0.716331
O O6 0.000000 0.477751 0.666079
O O7 0.592958 0.377707 0.844768
O O8 0.686945 0.541039 0.819105
O O9 0.643002 0.402890 0.730543
O O10 0.834079 0.500000 0.500000
O O11 0.848390 0.250000 0.558581
O O12 0.934280 0.448919 0.564893
O O13 0.831468 0.497635 0.617871
O O14 0.000000 0.250000 0.095378
O O15 0.500000 0.250000 0.400758
O O16 0.793561 0.750000 0.656752
O O17 0.750000 0.500000 0.697437
#
# Coordination Sequence:
#
# PCOD9503496 Si02
#       8
#     8   8  16  16   8   8   8  16
#     4  10  22  42  68  94 130 179 225 268 310 373
#     4  11  22  34  58  92 134 171 199 261 335 394
#     4  11  21  37  62  94 131 163 213 263 320 393
#     4  11  23  42  62  85 117 160 212 267 326 398
#     4  10  20  38  64  96 132 168 214 267 325 374
#     4   9  19  35  57  87 114 157 202 253 321 386
#     4  10  23  38  66  98 127 172 220 266 314 368
#     4  12  25  40  62  91 123 162 205 266 331 392
#
# _framework density 19.577455
#
# number of rings (size 3 to 8) (size 9 to 14) (size 15 to 20)
#    0.000    1.273    4.545    1.636    1.273    1.091 
#    0.000    4.091    2.000    2.182    0.000    0.000 
#    0.000    0.000    0.000    0.000    0.000    0.000 
#
# Total GULP energy -244971.494642 kJ/mol
# GULP energy per Si atom -5567.533969 kJ/mol
# Density = 1.953290 g / cm^3
# Si number density = 19.577455 Si / 1000 Ang^3
#
#
#
# Elastic Constant Matrix: (Units=GPa)
#
#
# Indices 1 2 3 4 5 6 
#
# 1 139.8032 34.5870 47.9538 0.0000 0.0000 0.0000
# 2 34.5870 89.6903 20.4721 0.0000 0.0000 0.0000
# 3 47.9538 20.4721 101.1621 0.0000 0.0000 0.0000
# 4 0.0000 0.0000 0.0000 17.0168 0.0000 0.0000
# 5 0.0000 0.0000 0.0000 0.0000 257.5741 0.0000
# 6 0.0000 0.0000 0.0000 0.0000 0.0000 22.9810
#
#
#
# Elastic Compliance Matrix: (Units=1/GPa)
#
#
# Indices 1 2 3 4 5 6 
#
# 1 0.009105 -0.002648 -0.003780 0.000000 0.000000 0.000000
# 2 -0.002648 0.012460 -0.001266 0.000000 0.000000 0.000000
# 3 -0.003780 -0.001266 0.011933 0.000000 0.000000 0.000000
# 4 0.000000 0.000000 0.000000 0.058765 0.000000 0.000000
# 5 0.000000 0.000000 0.000000 0.000000 0.003882 0.000000
# 6 0.000000 0.000000 0.000000 0.000000 0.000000 0.043514
#
#
# Mechanical properties :
#
#
# Convention : Reuss Voigt Hill
#
# Bulk Modulus (GPa) = 55.22140 59.63126 57.42633
# Shear Modulus (GPa) = 31.03964 74.69056 52.86510
#
# Velocity S-wave (km/s) = 3.98613 6.18338 5.20208
# Velocity P-wave (km/s) = 7.03232 9.02796 8.09190
#
# Compressibility (1/GPa) = 0.01810892
#
# Stress axis : x y z
#
# Youngs Moduli (GPa) = 109.83417 80.25874 83.80011
#
# Poissons Ratio (x) = 0.21254 0.31676
# Poissons Ratio (y) = 0.29086 0.10610
# Poissons Ratio (z) = 0.41517 0.10162
#
# Static dielectric constant tensor:
#      x y z
#    x 1.663620 0.000000 0.000000 
#    y 0.000000 1.675300 0.000000 
#    z 0.000000 0.000000 1.701090 
# 
# From -- ./inp_files/42441.got.cif
#   From: 2010.05.17/outbox.cif.g08.bks.cpg/sg67_22_cif.got.tgz:42441.got - 2010.06.03 18:28:57.
