data_PCOD9503324
_publ_section_title
;
Structure prediction by ZEFSAII (Michael W. Deem and Ramdas Pophale) SiO2 
 PCOD9503324
Probable space group: C M M A
;
_chemical_formula_sum "Si O2"
_cell_formula_units_Z 88
_cell_length_a 9.052648
_cell_length_b 14.967403
_cell_length_c 32.106532
_cell_angle_alpha 90.000000
_cell_angle_beta 90.000000
_cell_angle_gamma 90.000000
_cell_volume 4350.262701
_symmetry_space_group_name_H-M "C M M A"
_symmetry_group_IT_number 67
_symmetry_cell_setting 'orthorhombic'
loop_
_space_group_symop_operation_xyz
x,y,z
-x,1/2-y,z
x,-y,-z
-x,1/2+y,-z
-x,-y,-z
x,1/2+y,-z
-x,y,z
x,1/2-y,z
1/2+x,1/2+y,z
1/2-x,-y,z
1/2+x,1/2-y,-z
1/2-x,y,-z
1/2-x,1/2-y,-z
1/2+x,y,-z
1/2-x,1/2+y,z
1/2+x,-y,z
loop_
_atom_site_type_symbol
_atom_site_label
_atom_site_fract_x
_atom_site_fract_y
_atom_site_fract_z
Si Si1 0.332840 0.359576 0.958108
Si Si2 0.176406 0.750000 0.544869
Si Si3 0.665494 0.855669 0.876633
Si Si4 0.178099 0.402006 0.389317
Si Si5 0.821394 0.599480 0.305343
Si Si6 0.821597 0.402899 0.785099
O O1 0.500000 0.390061 0.960000
O O2 0.332687 0.250000 0.957883
O O3 0.259940 0.390571 0.915026
O O4 0.250000 0.387013 0.000000
O O5 0.250000 0.750000 0.500000
O O6 0.214056 0.663014 0.572437
O O7 0.000000 0.750000 0.539652
O O8 0.500000 0.894655 0.877846
O O9 0.652739 0.750000 0.883750
O O10 0.725927 0.864563 0.829694
O O11 0.250000 0.500000 0.395188
O O12 0.247019 0.361922 0.346698
O O13 0.000000 0.409338 0.385244
O O14 0.750000 0.500000 0.303869
O O15 0.786711 0.640746 0.259845
O O16 0.000000 0.595416 0.309921
O O17 0.750000 0.500000 0.783982
O O18 0.000000 0.407103 0.785982
#
# Coordination Sequence:
#
# PCOD9503324 Si02
#       6
#    16   8  16  16  16  16
#     4   9  16  26  42  64  88 116 153 195 241 294
#     4  10  24  42  60  84 118 152 188 232 281 334
#     4   9  17  30  46  65  93 124 155 197 244 291
#     4  10  20  37  59  84 113 148 187 231 279 329
#     4   9  16  29  50  77 103 135 176 216 255 305
#     4   9  18  31  48  71  98 131 167 202 246 298
#
# _framework density 20.228663000000001
#
# number of rings (size 3 to 8) (size 9 to 14) (size 15 to 20)
#    0.000    2.727    0.000    2.727    0.000    5.455 
#    1.636    1.818    0.000    0.545    0.000    3.818 
#    0.000    0.000    0.000    0.000    0.000    0.000 
#
# Total GULP energy -245177.829637 kJ/mol
# GULP energy per Si atom -5572.223401 kJ/mol
# Density = 2.018262 g / cm^3
# Si number density = 20.228663 Si / 1000 Ang^3
#
#
#
# Elastic Constant Matrix: (Units=GPa)
#
#
# Indices 1 2 3 4 5 6 
#
# 1 80.5212 24.9592 94.9202 0.0000 0.0000 0.0000
# 2 24.9592 55.3317 43.5510 0.0000 0.0000 0.0000
# 3 94.9202 43.5510 250.1651 0.0000 0.0000 0.0000
# 4 0.0000 0.0000 0.0000 26.3967 0.0000 0.0000
# 5 0.0000 0.0000 0.0000 0.0000 36.3421 0.0000
# 6 0.0000 0.0000 0.0000 0.0000 0.0000 6.5012
#
#
#
# Elastic Compliance Matrix: (Units=1/GPa)
#
#
# Indices 1 2 3 4 5 6 
#
# 1 0.023247 -0.004106 -0.008106 0.000000 0.000000 0.000000
# 2 -0.004106 0.021668 -0.002214 0.000000 0.000000 0.000000
# 3 -0.008106 -0.002214 0.007458 0.000000 0.000000 0.000000
# 4 0.000000 0.000000 0.000000 0.037883 0.000000 0.000000
# 5 0.000000 0.000000 0.000000 0.000000 0.027516 0.000000
# 6 0.000000 0.000000 0.000000 0.000000 0.000000 0.153819
#
#
# Mechanical properties :
#
#
# Convention : Reuss Voigt Hill
#
# Bulk Modulus (GPa) = 42.51533 79.20874 60.86204
# Shear Modulus (GPa) = 16.21875 28.68716 22.45295
#
# Velocity S-wave (km/s) = 2.83463 3.76991 3.33522
# Velocity P-wave (km/s) = 5.63706 7.62832 6.70700
#
# Compressibility (1/GPa) = 0.02352093
#
# Stress axis : x y z
#
# Youngs Moduli (GPa) = 43.01566 46.15141 134.07685
#
# Poissons Ratio (x) = 0.18952 1.08681
# Poissons Ratio (y) = 0.17664 0.29685
# Poissons Ratio (z) = 0.34868 0.10218
#
# Static dielectric constant tensor:
#      x y z
#    x 1.702790 0.000000 0.000000 
#    y 0.000000 1.751560 0.000000 
#    z 0.000000 0.000000 1.761370 
# 
# From -- ./inp_files/45193.got.cif
#   From: 2010.05.17/outbox.cif.g08.bks.cpg/sg67_23_cif.got.tgz:45193.got - 2010.06.03 18:28:57.
