data_PCOD9503978
_publ_section_title
;
Structure prediction by ZEFSAII (Michael W. Deem and Ramdas Pophale) SiO2 
 PCOD9503978
Probable space group: C M M A
;
_chemical_formula_sum "Si O2"
_cell_formula_units_Z 64
_cell_length_a 8.814638
_cell_length_b 15.159718
_cell_length_c 22.021858
_cell_angle_alpha 90.000000
_cell_angle_beta 90.000000
_cell_angle_gamma 90.000000
_cell_volume 2942.724208
_symmetry_space_group_name_H-M "C M M A"
_symmetry_group_IT_number 67
_symmetry_cell_setting 'orthorhombic'
loop_
_space_group_symop_operation_xyz
x,y,z
-x,1/2-y,z
x,-y,-z
-x,1/2+y,-z
-x,-y,-z
x,1/2+y,-z
-x,y,z
x,1/2-y,z
1/2+x,1/2+y,z
1/2-x,-y,z
1/2+x,1/2-y,-z
1/2-x,y,-z
1/2-x,1/2-y,-z
1/2+x,y,-z
1/2-x,1/2+y,z
1/2+x,-y,z
loop_
_atom_site_type_symbol
_atom_site_label
_atom_site_fract_x
_atom_site_fract_y
_atom_site_fract_z
Si Si1 0.681970 0.900569 0.306159
Si Si2 0.181707 0.099372 0.439130
Si Si3 0.330985 0.145705 0.940143
Si Si4 0.319682 0.402019 0.184395
O O1 0.500000 0.904978 0.299876
O O2 0.716467 0.860826 0.372667
O O3 0.751892 0.858723 0.245580
O O4 0.750000 0.000000 0.308233
O O5 0.250000 0.141485 0.500000
O O6 0.000000 0.094447 0.444855
O O7 0.250000 0.000000 0.437399
O O8 0.500000 0.107430 0.931357
O O9 0.347790 0.250000 0.950697
O O10 0.234042 0.137111 0.879235
O O11 0.250000 0.108233 0.000000
O O12 0.500000 0.404024 0.188631
O O13 0.250000 0.500000 0.183352
#
# Coordination Sequence:
#
# PCOD9503978 Si02
#       4
#    16  16  16  16
#     4   9  16  26  39  58  86 120 157 196 240 285
#     4   9  15  21  32  50  76 112 152 192 232 279
#     4  10  21  38  58  78 101 128 159 197 241 289
#     4  11  21  33  51  74 101 132 166 203 244 290
#
# _framework density 21.748556000000001
#
# number of rings (size 3 to 8) (size 9 to 14) (size 15 to 20)
#    0.000    2.250    0.000    6.750    0.000    5.000 
#    0.000    2.500    0.000    0.000    0.000    0.000 
#    0.000    1.000    0.000    3.250    0.000   12.250 
#
# Total GULP energy -178501.014341 kJ/mol
# GULP energy per Si atom -5578.156698 kJ/mol
# Density = 2.169905 g / cm^3
# Si number density = 21.748556 Si / 1000 Ang^3
#
#
#
# Elastic Constant Matrix: (Units=GPa)
#
#
# Indices 1 2 3 4 5 6 
#
# 1 169.0056 7.5613 104.3658 0.0000 0.0000 0.0000
# 2 7.5613 37.0979 11.5174 0.0000 0.0000 0.0000
# 3 104.3658 11.5174 253.2490 0.0000 0.0000 0.0000
# 4 0.0000 0.0000 0.0000 4.3527 0.0000 0.0000
# 5 0.0000 0.0000 0.0000 0.0000 -2.8511 0.0000
# 6 0.0000 0.0000 0.0000 0.0000 0.0000 5.1444
#
#
#
# Elastic Compliance Matrix: (Units=1/GPa)
#
#
# Indices 1 2 3 4 5 6 
#
# 1 0.007950 -0.000612 -0.003249 0.000000 0.000000 0.000000
# 2 -0.000612 0.027389 -0.000993 0.000000 0.000000 0.000000
# 3 -0.003249 -0.000993 0.005333 0.000000 0.000000 0.000000
# 4 0.000000 0.000000 0.000000 0.229743 0.000000 0.000000
# 5 0.000000 0.000000 0.000000 0.000000 -0.350745 0.000000
# 6 0.000000 0.000000 0.000000 0.000000 0.000000 0.194387
#
#
# Mechanical properties :
#
#
# Convention : Reuss Voigt Hill
#
# Bulk Modulus (GPa) = 32.29550 78.47128 55.38339
# Shear Modulus (GPa) = 37.28938 23.72307 30.50622
#
# Velocity S-wave (km/s) = 4.14523 3.30629 3.74930
# Velocity P-wave (km/s) = 6.14754 7.12284 6.65309
#
# Compressibility (1/GPa) = 0.03096407
#
# Stress axis : x y z
#
# Youngs Moduli (GPa) = 125.77903 36.51118 187.52435
#
# Poissons Ratio (x) = 0.02234 0.60919
# Poissons Ratio (y) = 0.07696 0.18629
# Poissons Ratio (z) = 0.40861 0.03627
#
# Static dielectric constant tensor:
#      x y z
#    x 1.751800 0.000000 0.000000 
#    y 0.000000 1.795510 0.000000 
#    z 0.000000 0.000000 1.876270 
# 
# From -- ./inp_files/34638.got.cif
#   From: 2010.05.17/outbox.cif.g08.bks.cpg/sg67_18_cif.got.tgz:34638.got - 2010.06.03 18:28:57.
