data_PCOD9503920
_publ_section_title
;
Structure prediction by ZEFSAII (Michael W. Deem and Ramdas Pophale) SiO2 
 PCOD9503920
Probable space group: C M M A
;
_chemical_formula_sum "Si O2"
_cell_formula_units_Z 96
_cell_length_a 21.339952
_cell_length_b 15.018706
_cell_length_c 14.486740
_cell_angle_alpha 90.000000
_cell_angle_beta 90.000000
_cell_angle_gamma 90.000000
_cell_volume 4642.977935
_symmetry_space_group_name_H-M "C M M A"
_symmetry_group_IT_number 67
_symmetry_cell_setting 'orthorhombic'
loop_
_space_group_symop_operation_xyz
x,y,z
-x,1/2-y,z
x,-y,-z
-x,1/2+y,-z
-x,-y,-z
x,1/2+y,-z
-x,y,z
x,1/2-y,z
1/2+x,1/2+y,z
1/2-x,-y,z
1/2+x,1/2-y,-z
1/2-x,y,-z
1/2-x,1/2-y,-z
1/2+x,y,-z
1/2-x,1/2+y,z
1/2+x,-y,z
loop_
_atom_site_type_symbol
_atom_site_label
_atom_site_fract_x
_atom_site_fract_y
_atom_site_fract_z
Si Si1 0.432410 0.398098 0.464834
Si Si2 0.892019 0.529638 0.280158
Si Si3 0.201495 0.853665 0.922123
Si Si4 0.228488 0.851730 0.273865
Si Si5 0.147301 0.349107 0.373847
Si Si6 0.931815 0.949922 0.903494
O O1 0.432386 0.500000 0.500000
O O2 0.500000 0.358288 0.489400
O O3 0.425337 0.408083 0.355576
O O4 0.375887 0.353978 0.520665
O O5 0.823648 0.573073 0.273904
O O6 0.887007 0.429115 0.320378
O O7 0.922866 0.518852 0.180946
O O8 0.192410 0.750000 0.945763
O O9 0.234375 0.859775 0.822543
O O10 0.132740 0.895177 0.910961
O O11 0.250000 0.890428 0.000000
O O12 0.203246 0.750000 0.278746
O O13 0.279104 0.862680 0.355598
O O14 0.132549 0.250000 0.337191
O O15 0.000000 0.903792 0.889229
O O16 0.935189 0.000000 0.000000
#
# Coordination Sequence:
#
# PCOD9503920 Si02
#       6
#    16  16  16  16  16  16
#     4   9  20  38  57  81 115 162 212 253 306 383
#     4  11  21  38  65  87 125 173 209 258 333 384
#     4  10  21  39  63  91 125 167 214 264 321 390
#     4  10  21  37  58  92 126 157 213 269 318 386
#     4  10  21  37  59  91 124 155 207 271 321 385
#     4  11  24  39  60  94 131 166 213 267 319 388
#
# _framework density 20.676385
#
# number of rings (size 3 to 8) (size 9 to 14) (size 15 to 20)
#    0.000    1.833    1.667    2.000    0.000    4.333 
#    0.000    4.167    0.000    2.500    0.000    0.000 
#    0.000    0.000    0.000    0.000    0.000    0.000 
#
# Total GULP energy -267705.964250 kJ/mol
# GULP energy per Si atom -5577.207589 kJ/mol
# Density = 2.062932 g / cm^3
# Si number density = 20.676385 Si / 1000 Ang^3
#
#
#
# Elastic Constant Matrix: (Units=GPa)
#
#
# Indices 1 2 3 4 5 6 
#
# 1 130.3262 36.8705 55.3637 0.0000 0.0000 0.0000
# 2 36.8705 68.2486 26.9532 0.0000 0.0000 0.0000
# 3 55.3637 26.9532 120.4064 0.0000 0.0000 0.0000
# 4 0.0000 0.0000 0.0000 22.6195 0.0000 0.0000
# 5 0.0000 0.0000 0.0000 0.0000 72.5496 0.0000
# 6 0.0000 0.0000 0.0000 0.0000 0.0000-1103.9631
#
#
#
# Elastic Compliance Matrix: (Units=1/GPa)
#
#
# Indices 1 2 3 4 5 6 
#
# 1 0.010500 -0.004131 -0.003903 0.000000 0.000000 0.000000
# 2 -0.004131 0.017699 -0.002062 0.000000 0.000000 0.000000
# 3 -0.003903 -0.002062 0.010562 0.000000 0.000000 0.000000
# 4 0.000000 0.000000 0.000000 0.044210 0.000000 0.000000
# 5 0.000000 0.000000 0.000000 0.000000 0.013784 0.000000
# 6 0.000000 0.000000 0.000000 0.000000 0.000000 -0.000906
#
#
# Mechanical properties :
#
#
# Convention : Reuss Voigt Hill
#
# Bulk Modulus (GPa) = 53.85939 61.92847 57.89393
# Shear Modulus (GPa) = 40.90666 -188.43922 -73.76628
#
# Velocity S-wave (km/s) = 4.45277 -9.55695 -5.97947
# Velocity P-wave (km/s) = 7.24855 9.57935 4.42846
#
# Compressibility (1/GPa) = 0.01856687
#
# Stress axis : x y z
#
# Youngs Moduli (GPa) = 95.23951 56.50195 94.68272
#
# Poissons Ratio (x) = 0.23341 0.36956
# Poissons Ratio (y) = 0.39343 0.19527
# Poissons Ratio (z) = 0.37174 0.11653
#
# Static dielectric constant tensor:
#      x y z
#    x 1.774210 0.000000 0.000000 
#    y 0.000000 1.742290 0.000000 
#    z 0.000000 0.000000 1.759520 
# 
# From -- ./inp_files/29309.got.cif
#   From: 2010.05.17/outbox.cif.g08.bks.cpg/sg67_15_cif.got.tgz:29309.got - 2010.06.03 18:28:57.
