data_PCOD9503998
_publ_section_title
;
Structure prediction by ZEFSAII (Michael W. Deem and Ramdas Pophale) SiO2 
 PCOD9503998
Probable space group: C M M A
;
_chemical_formula_sum "Si O2"
_cell_formula_units_Z 80
_cell_length_a 8.567658
_cell_length_b 27.618361
_cell_length_c 19.064208
_cell_angle_alpha 90.000000
_cell_angle_beta 90.000000
_cell_angle_gamma 90.000000
_cell_volume 4511.061957
_symmetry_space_group_name_H-M "C M M A"
_symmetry_group_IT_number 67
_symmetry_cell_setting 'orthorhombic'
loop_
_space_group_symop_operation_xyz
x,y,z
-x,1/2-y,z
x,-y,-z
-x,1/2+y,-z
-x,-y,-z
x,1/2+y,-z
-x,y,z
x,1/2-y,z
1/2+x,1/2+y,z
1/2-x,-y,z
1/2+x,1/2-y,-z
1/2-x,y,-z
1/2-x,1/2-y,-z
1/2+x,y,-z
1/2-x,1/2+y,z
1/2+x,-y,z
loop_
_atom_site_type_symbol
_atom_site_label
_atom_site_fract_x
_atom_site_fract_y
_atom_site_fract_z
Si Si1 0.186385 0.946897 0.855732
Si Si2 0.686749 0.054714 0.575229
Si Si3 0.186340 0.350541 0.923696
Si Si4 0.686497 0.305404 0.783897
Si Si5 0.685586 0.100102 0.284367
O O1 0.260437 0.905134 0.904059
O O2 0.236381 0.932708 0.776427
O O3 0.000000 0.945404 0.861631
O O4 0.250000 0.000000 0.872698
O O5 0.500000 0.053896 0.574526
O O6 0.750000 0.072283 0.500000
O O7 0.749396 0.085384 0.640263
O O8 0.750000 0.000000 0.583990
O O9 0.258927 0.317271 0.862894
O O10 0.000000 0.347592 0.921424
O O11 0.250000 0.337683 0.000000
O O12 0.500000 0.312614 0.779615
O O13 0.722871 0.250000 0.766031
O O14 0.770142 0.345010 0.735586
O O15 0.500000 0.093323 0.281334
#
# Coordination Sequence:
#
# PCOD9503998 Si02
#       5
#    16  16  16  16  16
#     4  11  21  35  53  76 105 139 179 219 262 312
#     4  11  21  35  54  81 115 149 184 219 260 308
#     4  11  22  37  55  77 105 137 174 217 267 319
#     4  10  21  38  59  82 106 135 174 220 269 318
#     4  11  21  35  55  80 109 142 179 219 264 312
#
# _framework density 17.734183000000002
#
# number of rings (size 3 to 8) (size 9 to 14) (size 15 to 20)
#    0.000    1.200    0.000   11.400    0.000    2.400 
#    0.000    2.000    0.000    0.600    0.000    0.000 
#    0.000    0.000    0.000    0.000    0.000    0.000 
#
# Total GULP energy -223671.912712 kJ/mol
# GULP energy per Si atom -5591.797818 kJ/mol
# Density = 1.769382 g / cm^3
# Si number density = 17.734183 Si / 1000 Ang^3
#
#
#
# Elastic Constant Matrix: (Units=GPa)
#
#
# Indices 1 2 3 4 5 6 
#
# 1 91.7223 -2.3378 1.5943 0.0000 0.0000 0.0000
# 2 -2.3378 40.5171 1.6565 0.0000 0.0000 0.0000
# 3 1.5943 1.6565 95.3930 0.0000 0.0000 0.0000
# 4 0.0000 0.0000 0.0000 2.1575 0.0000 0.0000
# 5 0.0000 0.0000 0.0000 0.0000 32.1837 0.0000
# 6 0.0000 0.0000 0.0000 0.0000 0.0000 -55.1004
#
#
#
# Elastic Compliance Matrix: (Units=1/GPa)
#
#
# Indices 1 2 3 4 5 6 
#
# 1 0.010922 0.000638 -0.000194 0.000000 0.000000 0.000000
# 2 0.000638 0.024736 -0.000440 0.000000 0.000000 0.000000
# 3 -0.000194 -0.000440 0.010494 0.000000 0.000000 0.000000
# 4 0.000000 0.000000 0.000000 0.463498 0.000000 0.000000
# 5 0.000000 0.000000 0.000000 0.000000 0.031072 0.000000
# 6 0.000000 0.000000 0.000000 0.000000 0.000000 -0.018149
#
#
# Mechanical properties :
#
#
# Convention : Reuss Voigt Hill
#
# Bulk Modulus (GPa) = 21.66366 25.49539 23.57953
# Shear Modulus (GPa) = 9.29452 10.96277 10.12865
#
# Velocity S-wave (km/s) = 2.29181 2.48900 2.39244
# Velocity P-wave (km/s) = 4.38697 4.76107 4.57784
#
# Compressibility (1/GPa) = 0.04616025
#
# Stress axis : x y z
#
# Youngs Moduli (GPa) = 91.55743 40.42730 95.29410
#
# Poissons Ratio (x) = -0.02580 0.01845
# Poissons Ratio (y) = -0.05842 0.04195
# Poissons Ratio (z) = 0.01773 0.01780
#
# Static dielectric constant tensor:
#      x y z
#    x 1.588980 0.000000 0.000000 
#    y 0.000000 1.594430 0.000000 
#    z 0.000000 0.000000 1.591970 
# 
# From -- ./inp_files/32138.got.cif
#   From: 2010.05.17/outbox.cif.g08.bks.cpg/sg67_17_cif.got.tgz:32138.got - 2010.06.03 18:28:57.
