data_PCOD9503086
_publ_section_title
;
Structure prediction by ZEFSAII (Michael W. Deem and Ramdas Pophale) SiO2 
 PCOD9503086
Probable space group: C M M A
;
_chemical_formula_sum "Si O2"
_cell_formula_units_Z 88
_cell_length_a 11.015754
_cell_length_b 14.723153
_cell_length_c 29.171440
_cell_angle_alpha 90.000000
_cell_angle_beta 90.000000
_cell_angle_gamma 90.000000
_cell_volume 4731.217591
_symmetry_space_group_name_H-M "C M M A"
_symmetry_group_IT_number 67
_symmetry_cell_setting 'orthorhombic'
loop_
_space_group_symop_operation_xyz
x,y,z
-x,1/2-y,z
x,-y,-z
-x,1/2+y,-z
-x,-y,-z
x,1/2+y,-z
-x,y,z
x,1/2-y,z
1/2+x,1/2+y,z
1/2-x,-y,z
1/2+x,1/2-y,-z
1/2-x,y,-z
1/2-x,1/2-y,-z
1/2+x,y,-z
1/2-x,1/2+y,z
1/2+x,-y,z
loop_
_atom_site_type_symbol
_atom_site_label
_atom_site_fract_x
_atom_site_fract_y
_atom_site_fract_z
Si Si1 0.143094 0.347779 0.772102
Si Si2 0.632956 0.358535 0.027071
Si Si3 0.359971 0.570870 0.870367
Si Si4 0.250000 0.500000 0.292934
Si Si5 0.355206 0.352932 0.637814
Si Si6 0.140109 0.639626 0.532757
O O1 0.199843 0.250000 0.759563
O O2 0.162620 0.367156 0.825899
O O3 0.181206 0.432146 0.741281
O O4 0.000000 0.340708 0.765902
O O5 0.500000 0.392667 0.011279
O O6 0.631602 0.250000 0.020896
O O7 0.643941 0.378764 0.080959
O O8 0.750000 0.394355 0.000000
O O9 0.500000 0.534677 0.865691
O O10 0.250000 0.500000 0.870651
O O11 0.317899 0.570447 0.326335
O O12 0.500000 0.345877 0.639143
O O13 0.306084 0.250000 0.646404
O O14 0.325710 0.380485 0.585502
O O15 0.135585 0.750000 0.529548
O O16 0.250000 0.608709 0.500000
O O17 0.000000 0.608659 0.523355
#
# Coordination Sequence:
#
# PCOD9503086 Si02
#       6
#    16  16  16   8  16  16
#     4  10  21  37  57  80 108 144 186 232 282 336
#     4   9  18  33  54  78 107 145 185 225 272 329
#     4  10  20  36  56  80 110 144 183 228 280 334
#     4  12  20  34  57  82 107 138 186 234 280 330
#     4   9  19  35  54  78 111 148 181 222 281 338
#     4   8  14  28  51  77 106 143 185 225 269 324
#
# _framework density 18.599862999999999
#
# number of rings (size 3 to 8) (size 9 to 14) (size 15 to 20)
#    0.000    2.545    0.909    2.727    0.000    3.273 
#    0.000    4.091    0.000    9.273    0.000    0.000 
#    0.000    0.000    0.000    0.000    0.000    0.727 
#
# Total GULP energy -244962.031818 kJ/mol
# GULP energy per Si atom -5567.318905 kJ/mol
# Density = 1.855753 g / cm^3
# Si number density = 18.599863 Si / 1000 Ang^3
#
#
#
# Elastic Constant Matrix: (Units=GPa)
#
#
# Indices 1 2 3 4 5 6 
#
# 1 95.3397 41.8915 69.0942 0.0000 0.0000 0.0000
# 2 41.8915 90.3191 47.9431 0.0000 0.0000 0.0000
# 3 69.0942 47.9431 125.2695 0.0000 0.0000 0.0000
# 4 0.0000 0.0000 0.0000 10.2664 0.0000 0.0000
# 5 0.0000 0.0000 0.0000 0.0000 8.0356 0.0000
# 6 0.0000 0.0000 0.0000 0.0000 0.0000 8.2131
#
#
#
# Elastic Compliance Matrix: (Units=1/GPa)
#
#
# Indices 1 2 3 4 5 6 
#
# 1 0.018548 -0.003981 -0.008707 0.000000 0.000000 0.000000
# 2 -0.003981 0.014749 -0.003449 0.000000 0.000000 0.000000
# 3 -0.008707 -0.003449 0.014105 0.000000 0.000000 0.000000
# 4 0.000000 0.000000 0.000000 0.097405 0.000000 0.000000
# 5 0.000000 0.000000 0.000000 0.000000 0.124446 0.000000
# 6 0.000000 0.000000 0.000000 0.000000 0.000000 0.121757
#
#
# Mechanical properties :
#
#
# Convention : Reuss Voigt Hill
#
# Bulk Modulus (GPa) = 66.10009 69.86511 67.98260
# Shear Modulus (GPa) = 11.67333 15.43632 13.55483
#
# Velocity S-wave (km/s) = 2.50792 2.88395 2.70248
# Velocity P-wave (km/s) = 6.63335 6.98092 6.80935
#
# Compressibility (1/GPa) = 0.01512857
#
# Stress axis : x y z
#
# Youngs Moduli (GPa) = 53.91411 67.80055 70.89641
#
# Poissons Ratio (x) = 0.26993 0.61728
# Poissons Ratio (y) = 0.21464 0.24452
# Poissons Ratio (z) = 0.46942 0.23384
#
# Static dielectric constant tensor:
#      x y z
#    x 1.649670 0.000000 0.000000 
#    y 0.000000 1.621010 0.000000 
#    z 0.000000 0.000000 1.647620 
# 
# From -- ./inp_files/41407.got.cif
#   From: 2010.05.17/outbox.cif.g08.bks.cpg/sg67_21_cif.got.tgz:41407.got - 2010.06.03 18:28:57.
