data_PCOD9503373
_publ_section_title
;
Structure prediction by ZEFSAII (Michael W. Deem and Ramdas Pophale) SiO2 
 PCOD9503373
Probable space group: C M M A
;
_chemical_formula_sum "Si O2"
_cell_formula_units_Z 64
_cell_length_a 17.964893
_cell_length_b 9.921664
_cell_length_c 19.506641
_cell_angle_alpha 90.000000
_cell_angle_beta 90.000000
_cell_angle_gamma 90.000000
_cell_volume 3476.895529
_symmetry_space_group_name_H-M "C M M A"
_symmetry_group_IT_number 67
_symmetry_cell_setting 'orthorhombic'
loop_
_space_group_symop_operation_xyz
x,y,z
-x,1/2-y,z
x,-y,-z
-x,1/2+y,-z
-x,-y,-z
x,1/2+y,-z
-x,y,z
x,1/2-y,z
1/2+x,1/2+y,z
1/2-x,-y,z
1/2+x,1/2-y,-z
1/2-x,y,-z
1/2-x,1/2-y,-z
1/2+x,y,-z
1/2-x,1/2+y,z
1/2+x,-y,z
loop_
_atom_site_type_symbol
_atom_site_label
_atom_site_fract_x
_atom_site_fract_y
_atom_site_fract_z
Si Si1 0.411490 0.250000 0.582778
Si Si2 0.673385 0.914910 0.935215
Si Si3 0.661128 0.499565 0.342155
Si Si4 0.087010 0.909763 0.206421
Si Si5 0.411329 0.750000 0.580774
O O1 0.500000 0.250000 0.595155
O O2 0.372769 0.375034 0.618426
O O3 0.400708 0.250000 0.500943
O O4 0.683433 0.750000 0.947102
O O5 0.622250 0.928050 0.868462
O O6 0.750000 0.000000 0.922292
O O7 0.641435 0.000000 0.000000
O O8 0.750000 0.500000 0.342559
O O9 0.631337 0.489526 0.264560
O O10 0.627529 0.375623 0.384061
O O11 0.093084 0.750000 0.222930
O O12 0.000000 0.945579 0.207289
O O13 0.500000 0.750000 0.594537
#
# Coordination Sequence:
#
# PCOD9503373 Si02
#       5
#     8  16  16  16   8
#     4  11  25  41  61  93 126 155 202 263 313 361
#     4  10  20  37  61  90 122 158 199 247 300 358
#     4  12  24  40  63  92 123 160 207 258 310 365
#     4  10  21  39  63  86 117 163 207 246 298 369
#     4  11  23  43  67  85 118 171 206 241 311 389
#
# _framework density 18.407223999999999
#
# number of rings (size 3 to 8) (size 9 to 14) (size 15 to 20)
#    0.000    1.250    1.250    6.000    0.000    5.500 
#    4.500    0.000    0.000    0.000    0.000    0.000 
#    0.000    0.000    0.000    0.000    0.000    0.000 
#
# Total GULP energy -178615.546129 kJ/mol
# GULP energy per Si atom -5581.735817 kJ/mol
# Density = 1.836533 g / cm^3
# Si number density = 18.407224 Si / 1000 Ang^3
#
#
#
# Elastic Constant Matrix: (Units=GPa)
#
#
# Indices 1 2 3 4 5 6 
#
# 1 146.7563 63.9382 101.1002 0.0000 0.0000 0.0000
# 2 63.9382 153.8037 71.4527 0.0000 0.0000 0.0000
# 3 101.1002 71.4527 151.5656 0.0000 0.0000 0.0000
# 4 0.0000 0.0000 0.0000 34.0256 0.0000 0.0000
# 5 0.0000 0.0000 0.0000 0.0000 41.9849 0.0000
# 6 0.0000 0.0000 0.0000 0.0000 0.0000 24.7843
#
#
#
# Elastic Compliance Matrix: (Units=1/GPa)
#
#
# Indices 1 2 3 4 5 6 
#
# 1 0.012968 -0.001757 -0.007822 0.000000 0.000000 0.000000
# 2 -0.001757 0.008563 -0.002865 0.000000 0.000000 0.000000
# 3 -0.007822 -0.002865 0.013166 0.000000 0.000000 0.000000
# 4 0.000000 0.000000 0.000000 0.029390 0.000000 0.000000
# 5 0.000000 0.000000 0.000000 0.000000 0.023818 0.000000
# 6 0.000000 0.000000 0.000000 0.000000 0.000000 0.040348
#
#
# Mechanical properties :
#
#
# Convention : Reuss Voigt Hill
#
# Bulk Modulus (GPa) = 101.94310 102.78978 102.36644
# Shear Modulus (GPa) = 31.96723 34.53460 33.25092
#
# Velocity S-wave (km/s) = 4.17186 4.33615 4.25479
# Velocity P-wave (km/s) = 8.87176 9.00183 8.93703
#
# Compressibility (1/GPa) = 0.00980939
#
# Stress axis : x y z
#
# Youngs Moduli (GPa) = 77.11300 116.77865 75.95440
#
# Poissons Ratio (x) = 0.20520 0.59410
# Poissons Ratio (y) = 0.13550 0.21760
# Poissons Ratio (z) = 0.60316 0.33455
#
# Static dielectric constant tensor:
#      x y z
#    x 1.605570 0.000000 0.000000 
#    y 0.000000 1.597400 0.000000 
#    z 0.000000 0.000000 1.628110 
# 
# From -- ./inp_files/34643.got.cif
#   From: 2010.05.17/outbox.cif.g08.bks.cpg/sg67_18_cif.got.tgz:34643.got - 2010.06.03 18:28:57.
