data_PCOD9503142
_publ_section_title
;
Structure prediction by ZEFSAII (Michael W. Deem and Ramdas Pophale) SiO2 
 PCOD9503142
Probable space group: C M M A
;
_chemical_formula_sum "Si O2"
_cell_formula_units_Z 80
_cell_length_a 15.736398
_cell_length_b 11.550308
_cell_length_c 19.437328
_cell_angle_alpha 90.000000
_cell_angle_beta 90.000000
_cell_angle_gamma 90.000000
_cell_volume 3532.933474
_symmetry_space_group_name_H-M "C M M A"
_symmetry_group_IT_number 67
_symmetry_cell_setting 'orthorhombic'
loop_
_space_group_symop_operation_xyz
x,y,z
-x,1/2-y,z
x,-y,-z
-x,1/2+y,-z
-x,-y,-z
x,1/2+y,-z
-x,y,z
x,1/2-y,z
1/2+x,1/2+y,z
1/2-x,-y,z
1/2+x,1/2-y,-z
1/2-x,y,-z
1/2-x,1/2-y,-z
1/2+x,y,-z
1/2-x,1/2+y,z
1/2+x,-y,z
loop_
_atom_site_type_symbol
_atom_site_label
_atom_site_fract_x
_atom_site_fract_y
_atom_site_fract_z
Si Si1 0.099094 0.378958 0.970356
Si Si2 0.102877 0.379386 0.707075
Si Si3 0.103703 0.982555 0.577596
Si Si4 0.651534 0.001258 0.842552
Si Si5 0.604217 0.750000 0.343402
Si Si6 0.400104 0.750000 0.185946
O O1 0.134938 0.250000 0.984377
O O2 0.104489 0.406769 0.889118
O O3 0.000000 0.375694 0.991741
O O4 0.136682 0.500000 0.000000
O O5 0.131599 0.250000 0.723380
O O6 0.128235 0.416488 0.630446
O O7 0.136189 0.468222 0.763477
O O8 0.000000 0.383402 0.710114
O O9 0.129939 0.863499 0.614301
O O10 0.000000 0.980939 0.574930
O O11 0.134272 0.000000 0.500000
O O12 0.622068 0.132579 0.853156
O O13 0.750000 0.000000 0.858703
O O14 0.500000 0.750000 0.340966
O O15 0.635797 0.750000 0.264288
O O16 0.500000 0.750000 0.194351
#
# Coordination Sequence:
#
# PCOD9503142 Si02
#       6
#    16  16  16  16   8   8
#     4  10  23  45  72  99 129 167 209 252 305 376
#     4  10  20  36  58  83 116 159 206 255 314 382
#     4   9  17  28  47  79 114 148 194 260 323 371
#     4  12  26  40  63  94 130 165 209 262 318 371
#     4   9  16  30  50  77 112 146 198 263 313 363
#     4  11  22  40  66  92 123 172 224 268 316 383
#
# _framework density 22.644072000000001
#
# number of rings (size 3 to 8) (size 9 to 14) (size 15 to 20)
#    0.000    1.800    2.000    2.400    5.600    2.000 
#    0.000    1.000    0.000    0.600    0.000    2.800 
#    0.000    0.000    0.000    0.000    0.000    0.000 
#
# Total GULP energy -223482.866004 kJ/mol
# GULP energy per Si atom -5587.071650 kJ/mol
# Density = 2.259253 g / cm^3
# Si number density = 22.644072 Si / 1000 Ang^3
#
#
#
# Elastic Constant Matrix: (Units=GPa)
#
#
# Indices 1 2 3 4 5 6 
#
# 1 35.9752 16.6044 2.2605 0.0000 0.0000 0.0000
# 2 16.6044 178.3866 28.0836 0.0000 0.0000 0.0000
# 3 2.2605 28.0836 80.8885 0.0000 0.0000 0.0000
# 4 0.0000 0.0000 0.0000 33.0026 0.0000 0.0000
# 5 0.0000 0.0000 0.0000 0.0000 -6.6269 0.0000
# 6 0.0000 0.0000 0.0000 0.0000 0.0000 4.7707
#
#
#
# Elastic Compliance Matrix: (Units=1/GPa)
#
#
# Indices 1 2 3 4 5 6 
#
# 1 0.029046 -0.002725 0.000134 0.000000 0.000000 0.000000
# 2 -0.002725 0.006186 -0.002071 0.000000 0.000000 0.000000
# 3 0.000134 -0.002071 0.013078 0.000000 0.000000 0.000000
# 4 0.000000 0.000000 0.000000 0.030301 0.000000 0.000000
# 5 0.000000 0.000000 0.000000 0.000000 -0.150899 0.000000
# 6 0.000000 0.000000 0.000000 0.000000 0.000000 0.209613
#
#
# Mechanical properties :
#
#
# Convention : Reuss Voigt Hill
#
# Bulk Modulus (GPa) = 25.65026 43.23860 34.44443
# Shear Modulus (GPa) = 31.31981 22.78273 27.05127
#
# Velocity S-wave (km/s) = 3.72309 3.17539 3.46009
# Velocity P-wave (km/s) = 5.46205 5.70793 5.58634
#
# Compressibility (1/GPa) = 0.03898596
#
# Stress axis : x y z
#
# Youngs Moduli (GPa) = 34.42802 161.66759 76.46365
#
# Poissons Ratio (x) = 0.44051 -0.01027
# Poissons Ratio (y) = 0.09381 0.15839
# Poissons Ratio (z) = -0.00462 0.33488
#
# Static dielectric constant tensor:
#      x y z
#    x 1.826560 0.000000 0.000000 
#    y 0.000000 1.841550 0.000000 
#    z 0.000000 0.000000 1.868900 
# 
# From -- ./inp_files/38874.got.cif
#   From: 2010.05.17/outbox.cif.g08.bks.cpg/sg67_20_cif.got.tgz:38874.got - 2010.06.03 18:28:57.
