data_PCOD9503692
_publ_section_title
;
Structure prediction by ZEFSAII (Michael W. Deem and Ramdas Pophale) SiO2 
 PCOD9503692
Probable space group: C M M A
;
_chemical_formula_sum "Si O2"
_cell_formula_units_Z 88
_cell_length_a 16.260274
_cell_length_b 8.572089
_cell_length_c 32.102471
_cell_angle_alpha 90.000000
_cell_angle_beta 90.000000
_cell_angle_gamma 90.000000
_cell_volume 4474.587379
_symmetry_space_group_name_H-M "C M M A"
_symmetry_group_IT_number 67
_symmetry_cell_setting 'orthorhombic'
loop_
_space_group_symop_operation_xyz
x,y,z
-x,1/2-y,z
x,-y,-z
-x,1/2+y,-z
-x,-y,-z
x,1/2+y,-z
-x,y,z
x,1/2-y,z
1/2+x,1/2+y,z
1/2-x,-y,z
1/2+x,1/2-y,-z
1/2-x,y,-z
1/2-x,1/2-y,-z
1/2+x,y,-z
1/2-x,1/2+y,z
1/2+x,-y,z
loop_
_atom_site_type_symbol
_atom_site_label
_atom_site_fract_x
_atom_site_fract_y
_atom_site_fract_z
Si Si1 0.156600 0.061712 0.694740
Si Si2 0.902984 0.925783 0.126970
Si Si3 0.843911 0.061064 0.602192
Si Si4 0.157168 0.439246 0.784101
Si Si5 0.000000 0.061043 0.546860
Si Si6 0.342063 0.933346 0.042092
O O1 0.156819 0.250000 0.694965
O O2 0.126291 0.014066 0.648989
O O3 0.118323 0.012655 0.739333
O O4 0.250000 0.000000 0.695426
O O5 0.866554 0.750000 0.122860
O O6 0.877783 0.994233 0.171744
O O7 0.000000 0.911706 0.128234
O O8 0.880483 0.020045 0.085985
O O9 0.838981 0.250000 0.600944
O O10 0.915604 0.011265 0.570353
O O11 0.750000 0.000000 0.595261
O O12 0.154020 0.250000 0.785236
O O13 0.250000 0.500000 0.783050
O O14 0.000000 0.250000 0.547126
O O15 0.000000 0.000000 0.500000
O O16 0.339195 0.750000 0.037765
O O17 0.250000 0.000000 0.043326
O O18 0.383080 0.000000 0.000000
#
# Coordination Sequence:
#
# PCOD9503692 Si02
#       6
#    16  16  16  16   8  16
#     4   8  14  27  48  74 101 131 170 214 259 310
#     4  10  21  36  51  73 108 142 173 210 252 304
#     4   9  18  34  55  79 108 142 182 229 278 330
#     4   9  17  30  50  75 101 134 172 211 256 304
#     4  10  22  38  54  78 110 144 184 230 279 332
#     4  11  22  38  60  82 102 128 167 213 260 311
#
# _framework density 19.666616999999999
#
# number of rings (size 3 to 8) (size 9 to 14) (size 15 to 20)
#    0.000    2.545    0.000    2.727    0.000    4.000 
#    1.636    1.818    0.000    0.000    0.000    0.000 
#    0.000    0.000    0.000    0.000    0.000    0.000 
#
# Total GULP energy -244967.994235 kJ/mol
# GULP energy per Si atom -5567.454414 kJ/mol
# Density = 1.962186 g / cm^3
# Si number density = 19.666617 Si / 1000 Ang^3
#
#
#
# Elastic Constant Matrix: (Units=GPa)
#
#
# Indices 1 2 3 4 5 6 
#
# 1 63.8931 12.0311 73.1667 0.0000 0.0000 0.0000
# 2 12.0311 38.6600 42.4241 0.0000 0.0000 0.0000
# 3 73.1667 42.4241 235.9754 0.0000 0.0000 0.0000
# 4 0.0000 0.0000 0.0000 22.8608 0.0000 0.0000
# 5 0.0000 0.0000 0.0000 0.0000 -5.6805 0.0000
# 6 0.0000 0.0000 0.0000 0.0000 0.0000 14.4397
#
#
#
# Elastic Compliance Matrix: (Units=1/GPa)
#
#
# Indices 1 2 3 4 5 6 
#
# 1 0.024292 0.000879 -0.007690 0.000000 0.000000 0.000000
# 2 0.000879 0.032256 -0.006072 0.000000 0.000000 0.000000
# 3 -0.007690 -0.006072 0.007714 0.000000 0.000000 0.000000
# 4 0.000000 0.000000 0.000000 0.043743 0.000000 0.000000
# 5 0.000000 0.000000 0.000000 0.000000 -0.176041 0.000000
# 6 0.000000 0.000000 0.000000 0.000000 0.000000 0.069253
#
#
# Mechanical properties :
#
#
# Convention : Reuss Voigt Hill
#
# Bulk Modulus (GPa) = 25.97665 65.97469 45.97567
# Shear Modulus (GPa) = 125.58448 20.38444 72.98446
#
# Velocity S-wave (km/s) = 7.99971 3.22296 6.09848
# Velocity P-wave (km/s) = 9.92795 6.88980 8.54499
#
# Compressibility (1/GPa) = 0.03849611
#
# Stress axis : x y z
#
# Youngs Moduli (GPa) = 41.16633 31.00234 129.64059
#
# Poissons Ratio (x) = -0.02725 0.99693
# Poissons Ratio (y) = -0.03619 0.78712
# Poissons Ratio (z) = 0.31657 0.18823
#
# Static dielectric constant tensor:
#      x y z
#    x 1.641450 0.000000 0.000000 
#    y 0.000000 1.721390 0.000000 
#    z 0.000000 0.000000 1.776730 
# 
# From -- ./inp_files/45778.got.cif
#   From: 2010.05.17/outbox.cif.g08.bks.cpg/sg67_23_cif.got.tgz:45778.got - 2010.06.03 18:28:57.
