data_PCOD9503535
_publ_section_title
;
Structure prediction by ZEFSAII (Michael W. Deem and Ramdas Pophale) SiO2 
 PCOD9503535
Probable space group: C M M A
;
_chemical_formula_sum "Si O2"
_cell_formula_units_Z 72
_cell_length_a 7.951921
_cell_length_b 28.059590
_cell_length_c 15.848995
_cell_angle_alpha 90.000000
_cell_angle_beta 90.000000
_cell_angle_gamma 90.000000
_cell_volume 3536.348898
_symmetry_space_group_name_H-M "C M M A"
_symmetry_group_IT_number 67
_symmetry_cell_setting 'orthorhombic'
loop_
_space_group_symop_operation_xyz
x,y,z
-x,1/2-y,z
x,-y,-z
-x,1/2+y,-z
-x,-y,-z
x,1/2+y,-z
-x,y,z
x,1/2-y,z
1/2+x,1/2+y,z
1/2-x,-y,z
1/2+x,1/2-y,-z
1/2-x,y,-z
1/2-x,1/2-y,-z
1/2+x,y,-z
1/2-x,1/2+y,z
1/2+x,-y,z
loop_
_atom_site_type_symbol
_atom_site_label
_atom_site_fract_x
_atom_site_fract_y
_atom_site_fract_z
Si Si1 0.298039 0.445493 0.869912
Si Si2 0.250000 0.370552 0.000000
Si Si3 0.800313 0.945978 0.670559
Si Si4 0.000000 0.693013 0.895896
Si Si5 0.692160 0.649194 0.595585
Si Si6 0.500000 0.193372 0.697905
O O1 0.500000 0.438499 0.884422
O O2 0.250000 0.500000 0.889421
O O3 0.265120 0.438133 0.770380
O O4 0.196462 0.408879 0.928214
O O5 0.149865 0.333632 0.057620
O O6 0.704461 0.906987 0.616031
O O7 0.000000 0.939808 0.658070
O O8 0.750000 0.000000 0.650558
O O9 0.000000 0.750000 0.906585
O O10 0.000000 0.681879 0.796906
O O11 0.500000 0.665474 0.608427
O O12 0.750000 0.658058 0.500000
O O13 0.831846 0.672799 0.655491
O O14 0.500000 0.250000 0.687854
#
# Coordination Sequence:
#
# PCOD9503535 Si02
#       6
#    16   8  16   8  16   8
#     4  10  22  37  59  95 137 177 225 278 335 410
#     4  12  22  40  68  92 126 176 220 280 346 392
#     4  10  20  39  63  96 144 190 231 283 342 409
#     4  11  26  48  69  96 133 177 232 292 348 415
#     4  12  24  44  72 108 143 181 231 288 346 423
#     4  11  26  52  76  99 141 185 229 296 363 419
#
# _framework density 20.359981000000001
#
# number of rings (size 3 to 8) (size 9 to 14) (size 15 to 20)
#    0.000    1.111    3.333    2.667    1.556    3.111 
#    6.000    2.222    0.000    0.000    0.000    0.000 
#    0.000    0.000    0.000    0.000    0.000    0.000 
#
# Total GULP energy -200990.018819 kJ/mol
# GULP energy per Si atom -5583.056078 kJ/mol
# Density = 2.031364 g / cm^3
# Si number density = 20.359981 Si / 1000 Ang^3
#
#
#
# Elastic Constant Matrix: (Units=GPa)
#
#
# Indices 1 2 3 4 5 6 
#
# 1 127.3469 49.9789 64.1623 0.0000 0.0000 0.0000
# 2 49.9789 102.3487 65.4195 0.0000 0.0000 0.0000
# 3 64.1623 65.4195 93.3750 0.0000 0.0000 0.0000
# 4 0.0000 0.0000 0.0000 417.0146 0.0000 0.0000
# 5 0.0000 0.0000 0.0000 0.0000 27.1908 0.0000
# 6 0.0000 0.0000 0.0000 0.0000 0.0000 -22.3412
#
#
#
# Elastic Compliance Matrix: (Units=1/GPa)
#
#
# Indices 1 2 3 4 5 6 
#
# 1 0.012076 -0.001074 -0.007545 0.000000 0.000000 0.000000
# 2 -0.001074 0.017790 -0.011726 0.000000 0.000000 0.000000
# 3 -0.007545 -0.011726 0.024110 0.000000 0.000000 0.000000
# 4 0.000000 0.000000 0.000000 0.002398 0.000000 0.000000
# 5 0.000000 0.000000 0.000000 0.000000 0.036777 0.000000
# 6 0.000000 0.000000 0.000000 0.000000 0.000000 -0.044760
#
#
# Mechanical properties :
#
#
# Convention : Reuss Voigt Hill
#
# Bulk Modulus (GPa) = 75.27377 75.79911 75.53644
# Shear Modulus (GPa) = 53.47098 93.94015 73.70556
#
# Velocity S-wave (km/s) = 5.13028 6.79998 6.02327
# Velocity P-wave (km/s) = 8.49381 9.94803 9.24954
#
# Compressibility (1/GPa) = 0.01328484
#
# Stress axis : x y z
#
# Youngs Moduli (GPa) = 82.81099 56.21162 41.47736
#
# Poissons Ratio (x) = 0.06037 0.31296
# Poissons Ratio (y) = 0.08893 0.48636
# Poissons Ratio (z) = 0.62484 0.65913
#
# Static dielectric constant tensor:
#      x y z
#    x 1.789980 0.000000 0.000000 
#    y 0.000000 1.710470 0.000000 
#    z 0.000000 0.000000 1.703240 
# 
# From -- ./inp_files/25148.got.cif
#   From: 2010.05.17/outbox.cif.g08.bks.cpg/sg67_13_cif.got.tgz:25148.got - 2010.06.03 18:28:57.
