data_PCOD9503116
_publ_section_title
;
Structure prediction by ZEFSAII (Michael W. Deem and Ramdas Pophale) SiO2 
 PCOD9503116
Probable space group: C M M A
;
_chemical_formula_sum "Si O2"
_cell_formula_units_Z 116
_cell_length_a 7.959360
_cell_length_b 32.212922
_cell_length_c 24.040964
_cell_angle_alpha 90.000000
_cell_angle_beta 90.000000
_cell_angle_gamma 90.000000
_cell_volume 6163.964762
_symmetry_space_group_name_H-M "C M M A"
_symmetry_group_IT_number 67
_symmetry_cell_setting 'orthorhombic'
loop_
_space_group_symop_operation_xyz
x,y,z
-x,1/2-y,z
x,-y,-z
-x,1/2+y,-z
-x,-y,-z
x,1/2+y,-z
-x,y,z
x,1/2-y,z
1/2+x,1/2+y,z
1/2-x,-y,z
1/2+x,1/2-y,-z
1/2-x,y,-z
1/2-x,1/2-y,-z
1/2+x,y,-z
1/2-x,1/2+y,z
1/2+x,-y,z
loop_
_atom_site_type_symbol
_atom_site_label
_atom_site_fract_x
_atom_site_fract_y
_atom_site_fract_z
Si Si1 0.500000 0.250000 0.650870
Si Si2 0.202848 0.385084 0.435911
Si Si3 0.799998 0.374476 0.864092
Si Si4 0.300579 0.388976 0.259510
Si Si5 0.696442 0.452688 0.650649
Si Si6 0.198832 0.453454 0.064593
Si Si7 0.304373 0.682352 0.649012
Si Si8 0.797060 0.703104 0.064114
O O1 0.651751 0.214500 0.650542
O O2 0.250000 0.389037 0.500000
O O3 0.267218 0.424200 0.399300
O O4 0.283293 0.344830 0.406972
O O5 0.000000 0.381776 0.430966
O O6 0.730663 0.380810 0.801990
O O7 0.774462 0.416150 0.899656
O O8 0.732941 0.333946 0.896653
O O9 0.000000 0.367615 0.858677
O O10 0.500000 0.395702 0.254484
O O11 0.231519 0.428734 0.291946
O O12 0.276973 0.349513 0.299645
O O13 0.500000 0.452800 0.641541
O O14 0.750000 0.500000 0.651248
O O15 0.250000 0.500000 0.082622
O O16 0.000000 0.450270 0.068251
O O17 0.250000 0.449045 0.000000
O O18 0.500000 0.697385 0.652340
O O19 0.738282 0.750000 0.078451
O O20 0.000000 0.703464 0.067117
O O21 0.750000 0.694973 0.000000
#
# Coordination Sequence:
#
# PCOD9503116 Si02
#       8
#     4  16  16  16  16  16  16  16
#     4  12  22  40  66  90 122 154 210 250 298 358
#     4  10  20  37  61  88 122 163 197 243 300 351
#     4  10  20  36  57  83 112 145 190 235 285 347
#     4   9  20  38  59  82 113 152 192 238 295 353
#     4  10  21  36  58  85 117 153 196 241 287 343
#     4  11  22  37  56  80 109 146 186 233 287 346
#     4  10  21  40  64  89 120 161 202 246 304 357
#     4   9  18  33  54  77 108 143 180 226 279 336
#
# _framework density 18.819056
#
# number of rings (size 3 to 8) (size 9 to 14) (size 15 to 20)
#    0.000    2.069    0.690    3.103    0.966    4.690 
#    1.241    1.724    0.000    0.000    0.000    0.000 
#    0.000    0.000    0.000    0.000    0.000    0.000 
#
# Total GULP energy -322995.648629 kJ/mol
# GULP energy per Si atom -5568.890494 kJ/mol
# Density = 1.877622 g / cm^3
# Si number density = 18.819056 Si / 1000 Ang^3
#
#
#
# Elastic Constant Matrix: (Units=GPa)
#
#
# Indices 1 2 3 4 5 6 
#
# 1 69.1324 21.1454 -2.9621 0.0000 0.0000 0.0000
# 2 21.1454 76.6665 23.5824 0.0000 0.0000 0.0000
# 3 -2.9621 23.5824 85.9163 0.0000 0.0000 0.0000
# 4 0.0000 0.0000 0.0000 -11.5286 0.0000 0.0000
# 5 0.0000 0.0000 0.0000 0.0000 18.2350 0.0000
# 6 0.0000 0.0000 0.0000 0.0000 0.0000 32.7842
#
#
#
# Elastic Compliance Matrix: (Units=1/GPa)
#
#
# Indices 1 2 3 4 5 6 
#
# 1 0.016087 -0.005033 0.001936 0.000000 0.000000 0.000000
# 2 -0.005033 0.015821 -0.004516 0.000000 0.000000 0.000000
# 3 0.001936 -0.004516 0.012946 0.000000 0.000000 0.000000
# 4 0.000000 0.000000 0.000000 -0.086741 0.000000 0.000000
# 5 0.000000 0.000000 0.000000 0.000000 0.054840 0.000000
# 6 0.000000 0.000000 0.000000 0.000000 0.000000 0.030502
#
#
# Mechanical properties :
#
#
# Convention : Reuss Voigt Hill
#
# Bulk Modulus (GPa) = 33.75149 35.02742 34.38945
# Shear Modulus (GPa) = 72.93354 20.56142 46.74748
#
# Velocity S-wave (km/s) = 6.23212 3.30901 4.98943
# Velocity P-wave (km/s) = 8.35221 5.76650 7.17677
#
# Compressibility (1/GPa) = 0.02962832
#
# Stress axis : x y z
#
# Youngs Moduli (GPa) = 62.16109 63.20859 77.24674
#
# Poissons Ratio (x) = 0.31810 -0.14955
# Poissons Ratio (y) = 0.31283 0.34884
# Poissons Ratio (z) = -0.12034 0.28545
#
# Static dielectric constant tensor:
#      x y z
#    x 1.677910 0.000000 0.000000 
#    y 0.000000 1.295250 0.000000 
#    z 0.000000 0.000000 1.640000 
# 
# From -- ./inp_files/41208.got.cif
#   From: 2010.05.17/outbox.cif.g08.bks.cpg/sg67_21_cif.got.tgz:41208.got - 2010.06.03 18:28:57.
