data_PCOD9503369
_publ_section_title
;
Structure prediction by ZEFSAII (Michael W. Deem and Ramdas Pophale) SiO2 
 PCOD9503369
Probable space group: C M M A
;
_chemical_formula_sum "Si O2"
_cell_formula_units_Z 104
_cell_length_a 8.577750
_cell_length_b 24.390772
_cell_length_c 25.829674
_cell_angle_alpha 90.000000
_cell_angle_beta 90.000000
_cell_angle_gamma 90.000000
_cell_volume 5404.031302
_symmetry_space_group_name_H-M "C M M A"
_symmetry_group_IT_number 67
_symmetry_cell_setting 'orthorhombic'
loop_
_space_group_symop_operation_xyz
x,y,z
-x,1/2-y,z
x,-y,-z
-x,1/2+y,-z
-x,-y,-z
x,1/2+y,-z
-x,y,z
x,1/2-y,z
1/2+x,1/2+y,z
1/2-x,-y,z
1/2+x,1/2-y,-z
1/2-x,y,-z
1/2-x,1/2-y,-z
1/2+x,y,-z
1/2-x,1/2+y,z
1/2+x,-y,z
loop_
_atom_site_type_symbol
_atom_site_label
_atom_site_fract_x
_atom_site_fract_y
_atom_site_fract_z
Si Si1 0.186732 0.364938 0.443985
Si Si2 0.189564 0.750000 0.281632
Si Si3 0.187584 0.250000 0.058608
Si Si4 0.188779 0.630759 0.249147
Si Si5 0.313256 0.939372 0.849547
Si Si6 0.187148 0.061648 0.346182
Si Si7 0.812703 0.869971 0.941464
Si Si8 0.312762 0.750000 0.597279
O O1 0.250000 0.381293 0.500000
O O2 0.234770 0.406894 0.398730
O O3 0.249839 0.304777 0.429435
O O4 0.000000 0.362861 0.445437
O O5 0.242212 0.693656 0.255125
O O6 0.235099 0.750000 0.342160
O O7 0.000000 0.750000 0.280572
O O8 0.236710 0.309326 0.079902
O O9 0.000000 0.250000 0.057817
O O10 0.250000 0.250000 0.000000
O O11 0.238850 0.601318 0.196373
O O12 0.248791 0.596017 0.297769
O O13 0.000000 0.630515 0.250499
O O14 0.500000 0.940785 0.850136
O O15 0.252543 0.915921 0.903751
O O16 0.250000 0.000000 0.839756
O O17 0.000000 0.060697 0.343736
O O18 0.250000 0.000000 0.345002
O O19 0.000000 0.872313 0.942730
O O20 0.750000 0.875246 0.000000
O O21 0.500000 0.750000 0.594880
#
# Coordination Sequence:
#
# PCOD9503369 Si02
#       8
#    16   8   8  16  16  16  16   8
#     4  11  24  40  59  87 121 156 198 244 295 353
#     4   9  18  35  63  94 120 152 189 233 291 352
#     4   8  16  31  54  84 116 151 188 232 283 341
#     4  10  21  40  64  90 120 153 194 239 291 354
#     4  11  24  40  60  86 119 158 201 248 294 348
#     4  11  24  40  61  86 115 153 198 246 295 350
#     4  10  20  37  61  89 123 159 200 244 295 353
#     4  11  20  36  64  90 120 157 194 239 294 355
#
# _framework density 19.244890999999999
#
# number of rings (size 3 to 8) (size 9 to 14) (size 15 to 20)
#    0.000    1.692    1.538    2.769    0.000    6.154 
#    0.000    4.231    0.000    0.000    0.000    0.000 
#    0.000    0.000    0.000    0.000    0.000    0.000 
#
# Total GULP energy -290498.720426 kJ/mol
# GULP energy per Si atom -5586.513854 kJ/mol
# Density = 1.920109 g / cm^3
# Si number density = 19.244891 Si / 1000 Ang^3
#
#
#
# Elastic Constant Matrix: (Units=GPa)
#
#
# Indices 1 2 3 4 5 6 
#
# 1 34.3365 26.6474 28.3784 0.0000 0.0000 0.0000
# 2 26.6474 150.6696 73.5266 0.0000 0.0000 0.0000
# 3 28.3784 73.5266 129.0951 0.0000 0.0000 0.0000
# 4 0.0000 0.0000 0.0000 -66.2621 0.0000 0.0000
# 5 0.0000 0.0000 0.0000 0.0000 23.4795 0.0000
# 6 0.0000 0.0000 0.0000 0.0000 0.0000 11.9656
#
#
#
# Elastic Compliance Matrix: (Units=1/GPa)
#
#
# Indices 1 2 3 4 5 6 
#
# 1 0.036917 -0.003558 -0.006089 0.000000 0.000000 0.000000
# 2 -0.003558 0.009535 -0.004648 0.000000 0.000000 0.000000
# 3 -0.006089 -0.004648 0.011732 0.000000 0.000000 0.000000
# 4 0.000000 0.000000 0.000000 -0.015092 0.000000 0.000000
# 5 0.000000 0.000000 0.000000 0.000000 0.042590 0.000000
# 6 0.000000 0.000000 0.000000 0.000000 0.000000 0.083573
#
#
# Mechanical properties :
#
#
# Convention : Reuss Voigt Hill
#
# Bulk Modulus (GPa) = 33.79099 63.46734 48.62917
# Shear Modulus (GPa) = 24.07192 6.20651 15.13921
#
# Velocity S-wave (km/s) = 3.54053 1.79778 2.80779
# Velocity P-wave (km/s) = 5.85751 6.11226 5.98624
#
# Compressibility (1/GPa) = 0.02959368
#
# Stress axis : x y z
#
# Youngs Moduli (GPa) = 27.08777 104.88012 85.23490
#
# Poissons Ratio (x) = 0.37313 0.51899
# Poissons Ratio (y) = 0.09637 0.39621
# Poissons Ratio (z) = 0.16494 0.48753
#
# Static dielectric constant tensor:
#      x y z
#    x 1.644920 0.000000 0.000000 
#    y 0.000000 1.668590 0.000000 
#    z 0.000000 0.000000 1.642650 
# 
# From -- ./inp_files/43640.got.cif
#   From: 2010.05.17/outbox.cif.g08.bks.cpg/sg67_22_cif.got.tgz:43640.got - 2010.06.03 18:28:57.
