data_PCOD9503067
_publ_section_title
;
Structure prediction by ZEFSAII (Michael W. Deem and Ramdas Pophale) SiO2 
 PCOD9503067
Probable space group: C M M A
;
_chemical_formula_sum "Si O2"
_cell_formula_units_Z 96
_cell_length_a 27.870910
_cell_length_b 8.767392
_cell_length_c 24.828146
_cell_angle_alpha 90.000000
_cell_angle_beta 90.000000
_cell_angle_gamma 90.000000
_cell_volume 6066.886417
_symmetry_space_group_name_H-M "C M M A"
_symmetry_group_IT_number 67
_symmetry_cell_setting 'orthorhombic'
loop_
_space_group_symop_operation_xyz
x,y,z
-x,1/2-y,z
x,-y,-z
-x,1/2+y,-z
-x,-y,-z
x,1/2+y,-z
-x,y,z
x,1/2-y,z
1/2+x,1/2+y,z
1/2-x,-y,z
1/2+x,1/2-y,-z
1/2-x,y,-z
1/2-x,1/2-y,-z
1/2+x,y,-z
1/2-x,1/2+y,z
1/2+x,-y,z
loop_
_atom_site_type_symbol
_atom_site_label
_atom_site_fract_x
_atom_site_fract_y
_atom_site_fract_z
Si Si1 0.558147 0.572059 0.555933
Si Si2 0.351205 0.932072 0.942240
Si Si3 0.056138 0.933913 0.668604
Si Si4 0.698521 0.066500 0.837493
Si Si5 0.444958 0.565790 0.109027
Si Si6 0.897416 0.565311 0.778841
O O1 0.575739 0.500000 0.500000
O O2 0.500000 0.554670 0.555766
O O3 0.569174 0.750000 0.556694
O O4 0.574521 0.495206 0.611428
O O5 0.348041 0.750000 0.942376
O O6 0.318170 0.001467 0.895199
O O7 0.405411 0.985052 0.927722
O O8 0.337948 0.000000 0.000000
O O9 0.058036 0.750000 0.667150
O O10 0.084463 0.990270 0.721161
O O11 0.000000 0.976907 0.674570
O O12 0.700019 0.250000 0.840231
O O13 0.656222 0.020826 0.796128
O O14 0.750000 0.000000 0.822917
O O15 0.500000 0.527394 0.096842
O O16 0.439198 0.750000 0.104067
O O17 0.431822 0.524453 0.170948
O O18 0.898390 0.750000 0.776471
#
# Coordination Sequence:
#
# PCOD9503067 Si02
#       6
#    16  16  16  16  16  16
#     4   9  16  25  36  53  81 118 157 193 225 256
#     4  11  22  36  52  71  94 119 150 187 226 270
#     4   9  15  24  41  64  89 120 155 186 217 255
#     4  10  20  36  55  74  94 117 146 182 228 277
#     4   9  17  31  50  70  94 125 157 188 223 264
#     4   8  15  28  47  69  92 118 150 185 220 266
#
# _framework density 15.823601999999999
#
# number of rings (size 3 to 8) (size 9 to 14) (size 15 to 20)
#    0.000    2.667    0.000    4.000    0.000    5.000 
#    0.000    5.833    0.000    4.000    0.000    0.000 
#    0.000    0.667    0.000    7.667    0.000    2.667 
#
# Total GULP energy -267559.161311 kJ/mol
# GULP energy per Si atom -5574.149194 kJ/mol
# Density = 1.578759 g / cm^3
# Si number density = 15.823602 Si / 1000 Ang^3
#
#
#
# Elastic Constant Matrix: (Units=GPa)
#
#
# Indices 1 2 3 4 5 6 
#
# 1 52.1224 14.6857 20.3267 0.0000 0.0000 0.0000
# 2 14.6857 36.6092 27.4757 0.0000 0.0000 0.0000
# 3 20.3267 27.4757 119.0892 0.0000 0.0000 0.0000
# 4 0.0000 0.0000 0.0000 21.9356 0.0000 0.0000
# 5 0.0000 0.0000 0.0000 0.0000 10.8881 0.0000
# 6 0.0000 0.0000 0.0000 0.0000 0.0000 20.5076
#
#
#
# Elastic Compliance Matrix: (Units=1/GPa)
#
#
# Indices 1 2 3 4 5 6 
#
# 1 0.022050 -0.007281 -0.002084 0.000000 0.000000 0.000000
# 2 -0.007281 0.035440 -0.006934 0.000000 0.000000 0.000000
# 3 -0.002084 -0.006934 0.010352 0.000000 0.000000 0.000000
# 4 0.000000 0.000000 0.000000 0.045588 0.000000 0.000000
# 5 0.000000 0.000000 0.000000 0.000000 0.091844 0.000000
# 6 0.000000 0.000000 0.000000 0.000000 0.000000 0.048762
#
#
# Mechanical properties :
#
#
# Convention : Reuss Voigt Hill
#
# Bulk Modulus (GPa) = 28.37292 36.97743 32.67518
# Shear Modulus (GPa) = 16.75701 20.35511 18.55606
#
# Velocity S-wave (km/s) = 3.25774 3.59050 3.42816
# Velocity P-wave (km/s) = 5.66747 6.37245 6.03027
#
# Compressibility (1/GPa) = 0.03524487
#
# Stress axis : x y z
#
# Youngs Moduli (GPa) = 45.35194 28.21643 96.59560
#
# Poissons Ratio (x) = 0.20546 0.20127
# Poissons Ratio (y) = 0.33023 0.66977
# Poissons Ratio (z) = 0.09450 0.19565
#
# Static dielectric constant tensor:
#      x y z
#    x 1.517370 0.000000 0.000000 
#    y 0.000000 1.532360 0.000000 
#    z 0.000000 0.000000 1.533080 
# 
# From -- ./inp_files/40918.got.cif
#   From: 2010.05.17/outbox.cif.g08.bks.cpg/sg67_21_cif.got.tgz:40918.got - 2010.06.03 18:28:57.
