data_PCOD9503303
_publ_section_title
;
Structure prediction by ZEFSAII (Michael W. Deem and Ramdas Pophale) SiO2 
 PCOD9503303
Probable space group: C M M A
;
_chemical_formula_sum "Si O2"
_cell_formula_units_Z 96
_cell_length_a 26.269807
_cell_length_b 11.310668
_cell_length_c 20.108751
_cell_angle_alpha 90.000000
_cell_angle_beta 90.000000
_cell_angle_gamma 90.000000
_cell_volume 5974.894391
_symmetry_space_group_name_H-M "C M M A"
_symmetry_group_IT_number 67
_symmetry_cell_setting 'orthorhombic'
loop_
_space_group_symop_operation_xyz
x,y,z
-x,1/2-y,z
x,-y,-z
-x,1/2+y,-z
-x,-y,-z
x,1/2+y,-z
-x,y,z
x,1/2-y,z
1/2+x,1/2+y,z
1/2-x,-y,z
1/2+x,1/2-y,-z
1/2-x,y,-z
1/2-x,1/2-y,-z
1/2+x,y,-z
1/2-x,1/2+y,z
1/2+x,-y,z
loop_
_atom_site_type_symbol
_atom_site_label
_atom_site_fract_x
_atom_site_fract_y
_atom_site_fract_z
Si Si1 0.437984 0.381697 0.539246
Si Si2 0.059956 0.750000 0.150611
Si Si3 0.062034 0.750000 0.303767
Si Si4 0.059413 0.610505 0.817813
Si Si5 0.892360 0.033362 0.926375
Si Si6 0.224386 0.384275 0.926510
Si Si7 0.061683 0.991032 0.675234
O O1 0.421660 0.500000 0.500000
O O2 0.500000 0.380803 0.535599
O O3 0.421465 0.250000 0.517166
O O4 0.422731 0.405046 0.615878
O O5 0.079433 0.750000 0.226622
O O6 0.077123 0.637064 0.109499
O O7 0.000000 0.750000 0.156806
O O8 0.077946 0.873394 0.336430
O O9 0.000000 0.750000 0.304446
O O10 0.059442 0.750000 0.806886
O O11 0.096768 0.575996 0.877567
O O12 0.075914 0.548023 0.749392
O O13 0.000000 0.575836 0.832259
O O14 0.834717 0.080410 0.931842
O O15 0.910076 0.000000 0.000000
O O16 0.229334 0.250000 0.898481
O O17 0.250000 0.500000 0.892655
O O18 0.250000 0.378094 0.000000
O O19 0.000000 0.989428 0.674906
#
# Coordination Sequence:
#
# PCOD9503303 Si02
#       7
#    16   8   8  16  16  16  16
#     4   9  17  26  38  58  83 111 148 195 239 277
#     4  11  22  36  49  69  99 122 157 200 247 302
#     4   9  16  28  46  61  79 118 156 192 232 282
#     4  10  21  34  47  66  94 127 162 197 241 299
#     4  12  23  35  52  71  90 122 155 200 252 303
#     4  10  20  37  57  73  90 114 151 198 247 298
#     4   9  16  28  44  59  82 117 156 194 235 280
#
# _framework density 16.067229999999999
#
# number of rings (size 3 to 8) (size 9 to 14) (size 15 to 20)
#    0.000    2.000    4.167    1.000    2.333    4.000 
#    0.000    0.000    0.000    0.000    0.000    0.000 
#    0.000    0.000    0.000    0.000    0.000    0.833 
#
# Total GULP energy -267202.281585 kJ/mol
# GULP energy per Si atom -5566.714200 kJ/mol
# Density = 1.603066 g / cm^3
# Si number density = 16.067230 Si / 1000 Ang^3
#
#
#
# Elastic Constant Matrix: (Units=GPa)
#
#
# Indices 1 2 3 4 5 6 
#
# 1 28.2509 6.3236 3.9661 0.0000 0.0000 0.0000
# 2 6.3236 122.9629 23.3139 0.0000 0.0000 0.0000
# 3 3.9661 23.3139 52.4729 0.0000 0.0000 0.0000
# 4 0.0000 0.0000 0.0000 25.5433 0.0000 0.0000
# 5 0.0000 0.0000 0.0000 0.0000 -1.7687 0.0000
# 6 0.0000 0.0000 0.0000 0.0000 0.0000 14.3925
#
#
#
# Elastic Compliance Matrix: (Units=1/GPa)
#
#
# Indices 1 2 3 4 5 6 
#
# 1 0.036015 -0.001459 -0.002074 0.000000 0.000000 0.000000
# 2 -0.001459 0.008940 -0.003862 0.000000 0.000000 0.000000
# 3 -0.002074 -0.003862 0.020930 0.000000 0.000000 0.000000
# 4 0.000000 0.000000 0.000000 0.039149 0.000000 0.000000
# 5 0.000000 0.000000 0.000000 0.000000 -0.565380 0.000000
# 6 0.000000 0.000000 0.000000 0.000000 0.000000 0.069481
#
#
# Mechanical properties :
#
#
# Convention : Reuss Voigt Hill
#
# Bulk Modulus (GPa) = 19.57123 30.09934 24.83528
# Shear Modulus (GPa) = -13.92585 18.97229 2.52322
#
# Velocity S-wave (km/s) = -2.94721 3.44001 1.25452
# Velocity P-wave (km/s) = 0.79112 5.87812 4.19393
#
# Compressibility (1/GPa) = 0.05109541
#
# Stress axis : x y z
#
# Youngs Moduli (GPa) = 27.76638 111.86007 47.77832
#
# Poissons Ratio (x) = 0.16319 0.09909
# Poissons Ratio (y) = 0.04051 0.18451
# Poissons Ratio (z) = 0.05759 0.43197
#
# Static dielectric constant tensor:
#      x y z
#    x 1.507040 0.000000 0.000000 
#    y 0.000000 1.754950 0.000000 
#    z 0.000000 0.000000 1.549840 
# 
# From -- ./inp_files/33123.got.cif
#   From: 2010.05.17/outbox.cif.g08.bks.cpg/sg67_17_cif.got.tgz:33123.got - 2010.06.03 18:28:57.
