data_PCOD9503099
_publ_section_title
;
Structure prediction by ZEFSAII (Michael W. Deem and Ramdas Pophale) SiO2 
 PCOD9503099
Probable space group: C M M A
;
_chemical_formula_sum "Si O2"
_cell_formula_units_Z 80
_cell_length_a 13.878358
_cell_length_b 14.381214
_cell_length_c 20.176032
_cell_angle_alpha 90.000000
_cell_angle_beta 90.000000
_cell_angle_gamma 90.000000
_cell_volume 4026.886538
_symmetry_space_group_name_H-M "C M M A"
_symmetry_group_IT_number 67
_symmetry_cell_setting 'orthorhombic'
loop_
_space_group_symop_operation_xyz
x,y,z
-x,1/2-y,z
x,-y,-z
-x,1/2+y,-z
-x,-y,-z
x,1/2+y,-z
-x,y,z
x,1/2-y,z
1/2+x,1/2+y,z
1/2-x,-y,z
1/2+x,1/2-y,-z
1/2-x,y,-z
1/2-x,1/2-y,-z
1/2+x,y,-z
1/2-x,1/2+y,z
1/2+x,-y,z
loop_
_atom_site_type_symbol
_atom_site_label
_atom_site_fract_x
_atom_site_fract_y
_atom_site_fract_z
Si Si1 0.280203 0.599256 0.609431
Si Si2 0.107962 0.642949 0.516058
Si Si3 0.385622 0.148057 0.260462
Si Si4 0.742917 0.859588 0.921085
Si Si5 0.613302 0.992397 0.854315
O O1 0.250000 0.500000 0.635620
O O2 0.184502 0.640088 0.575418
O O3 0.352709 0.587379 0.547216
O O4 0.329995 0.648626 0.670276
O O5 0.106690 0.750000 0.492373
O O6 0.000000 0.616238 0.535443
O O7 0.500000 0.142923 0.272973
O O8 0.367120 0.250000 0.227985
O O9 0.361958 0.057386 0.216106
O O10 0.751089 0.750000 0.906933
O O11 0.641398 0.906718 0.902190
O O12 0.822046 0.920811 0.879839
O O13 0.750000 0.872324 0.000000
O O14 0.500000 0.014489 0.855323
#
# Coordination Sequence:
#
# PCOD9503099 Si02
#       5
#    16  16  16  16  16
#     4  11  22  33  54  83 111 148 188 240 307 368
#     4  10  20  36  57  79 107 144 191 246 301 362
#     4  10  21  38  60  84 112 151 201 253 302 359
#     4  10  22  39  62  94 130 165 200 247 307 363
#     4  10  21  38  62  90 122 163 209 254 298 356
#
# _framework density 19.866464000000001
#
# number of rings (size 3 to 8) (size 9 to 14) (size 15 to 20)
#    0.000    1.800    0.000    6.000    2.800    7.200 
#    0.000    2.000    0.000    0.000    0.000    0.000 
#    0.000    0.000    0.000    0.000    0.000    0.000 
#
# Total GULP energy -222918.025811 kJ/mol
# GULP energy per Si atom -5572.950645 kJ/mol
# Density = 1.982125 g / cm^3
# Si number density = 19.866464 Si / 1000 Ang^3
#
#
#
# Elastic Constant Matrix: (Units=GPa)
#
#
# Indices 1 2 3 4 5 6 
#
# 1 102.3776 25.0455 51.5925 0.0000 0.0000 0.0000
# 2 25.0455 124.6777 33.5627 0.0000 0.0000 0.0000
# 3 51.5925 33.5627 109.0087 0.0000 0.0000 0.0000
# 4 0.0000 0.0000 0.0000 37.6311 0.0000 0.0000
# 5 0.0000 0.0000 0.0000 0.0000 21.5264 0.0000
# 6 0.0000 0.0000 0.0000 0.0000 0.0000 22.2349
#
#
#
# Elastic Compliance Matrix: (Units=1/GPa)
#
#
# Indices 1 2 3 4 5 6 
#
# 1 0.012949 -0.001037 -0.005809 0.000000 0.000000 0.000000
# 2 -0.001037 0.008829 -0.002227 0.000000 0.000000 0.000000
# 3 -0.005809 -0.002227 0.012609 0.000000 0.000000 0.000000
# 4 0.000000 0.000000 0.000000 0.026574 0.000000 0.000000
# 5 0.000000 0.000000 0.000000 0.000000 0.046455 0.000000
# 6 0.000000 0.000000 0.000000 0.000000 0.000000 0.044974
#
#
# Mechanical properties :
#
#
# Convention : Reuss Voigt Hill
#
# Bulk Modulus (GPa) = 61.58134 61.82949 61.70542
# Shear Modulus (GPa) = 28.41716 31.33601 29.87659
#
# Velocity S-wave (km/s) = 3.78618 3.97587 3.88218
# Velocity P-wave (km/s) = 7.08367 7.22958 7.15700
#
# Compressibility (1/GPa) = 0.01623868
#
# Stress axis : x y z
#
# Youngs Moduli (GPa) = 77.22553 113.26760 79.30985
#
# Poissons Ratio (x) = 0.11751 0.46073
# Poissons Ratio (y) = 0.08011 0.17664
# Poissons Ratio (z) = 0.44862 0.25228
#
# Static dielectric constant tensor:
#      x y z
#    x 1.710740 0.000000 0.000000 
#    y 0.000000 1.756930 0.000000 
#    z 0.000000 0.000000 1.703750 
# 
# From -- ./inp_files/38288.got.cif
#   From: 2010.05.17/outbox.cif.g08.bks.cpg/sg67_20_cif.got.tgz:38288.got - 2010.06.03 18:28:57.
