data_PCOD9503545
_publ_section_title
;
Structure prediction by ZEFSAII (Michael W. Deem and Ramdas Pophale) SiO2 
 PCOD9503545
Probable space group: C M M A
;
_chemical_formula_sum "Si O2"
_cell_formula_units_Z 72
_cell_length_a 14.143553
_cell_length_b 28.076841
_cell_length_c 7.976958
_cell_angle_alpha 90.000000
_cell_angle_beta 90.000000
_cell_angle_gamma 90.000000
_cell_volume 3167.700187
_symmetry_space_group_name_H-M "C M M A"
_symmetry_group_IT_number 67
_symmetry_cell_setting 'orthorhombic'
loop_
_space_group_symop_operation_xyz
x,y,z
-x,1/2-y,z
x,-y,-z
-x,1/2+y,-z
-x,-y,-z
x,1/2+y,-z
-x,y,z
x,1/2-y,z
1/2+x,1/2+y,z
1/2-x,-y,z
1/2+x,1/2-y,-z
1/2-x,y,-z
1/2-x,1/2-y,-z
1/2+x,y,-z
1/2-x,1/2+y,z
1/2+x,-y,z
loop_
_atom_site_type_symbol
_atom_site_label
_atom_site_fract_x
_atom_site_fract_y
_atom_site_fract_z
Si Si1 0.688100 0.303942 0.172073
Si Si2 0.609704 0.480444 0.324351
Si Si3 0.109922 0.587287 0.725777
Si Si4 0.250000 0.857353 0.500000
Si Si5 0.108787 0.101261 0.914782
O O1 0.653397 0.250000 0.194222
O O2 0.739131 0.322368 0.340776
O O3 0.611749 0.345841 0.156211
O O4 0.750000 0.303539 0.000000
O O5 0.649731 0.500000 0.500000
O O6 0.500000 0.466419 0.361861
O O7 0.610444 0.530909 0.232150
O O8 0.651564 0.438176 0.211942
O O9 0.166891 0.607003 0.565871
O O10 0.000000 0.601060 0.701278
O O11 0.151097 0.606687 0.899803
O O12 0.000000 0.085824 0.939434
#
# Coordination Sequence:
#
# PCOD9503545 Si02
#       5
#    16  16  16   8  16
#     4  11  24  43  64  89 124 167 218 280 340 391
#     4   9  17  32  58  91 127 167 207 254 318 385
#     4  10  21  38  63  98 134 173 221 269 325 402
#     4  12  23  42  71  94 132 176 224 270 336 400
#     4  10  20  39  66  93 129 173 218 272 331 396
#
# _framework density 22.729424000000002
#
# number of rings (size 3 to 8) (size 9 to 14) (size 15 to 20)
#    0.000    1.778    2.222    2.333    0.000    5.778 
#    0.000    5.000    0.000    2.000    0.000    0.000 
#    0.000    3.556    0.000    0.000    0.000    0.000 
#
# Total GULP energy -200566.224397 kJ/mol
# GULP energy per Si atom -5571.284011 kJ/mol
# Density = 2.267769 g / cm^3
# Si number density = 22.729424 Si / 1000 Ang^3
#
#
#
# Elastic Constant Matrix: (Units=GPa)
#
#
# Indices 1 2 3 4 5 6 
#
# 1 71.9785 25.8567 39.9179 0.0000 0.0000 0.0000
# 2 25.8567 161.5475 61.0276 0.0000 0.0000 0.0000
# 3 39.9179 61.0276 161.0544 0.0000 0.0000 0.0000
# 4 0.0000 0.0000 0.0000 36.8368 0.0000 0.0000
# 5 0.0000 0.0000 0.0000 0.0000 26.3259 0.0000
# 6 0.0000 0.0000 0.0000 0.0000 0.0000 22.7901
#
#
#
# Elastic Compliance Matrix: (Units=1/GPa)
#
#
# Indices 1 2 3 4 5 6 
#
# 1 0.016326 -0.001266 -0.003567 0.000000 0.000000 0.000000
# 2 -0.001266 0.007322 -0.002461 0.000000 0.000000 0.000000
# 3 -0.003567 -0.002461 0.008026 0.000000 0.000000 0.000000
# 4 0.000000 0.000000 0.000000 0.027147 0.000000 0.000000
# 5 0.000000 0.000000 0.000000 0.000000 0.037985 0.000000
# 6 0.000000 0.000000 0.000000 0.000000 0.000000 0.043879
#
#
# Mechanical properties :
#
#
# Convention : Reuss Voigt Hill
#
# Bulk Modulus (GPa) = 58.52392 72.02053 65.27223
# Shear Modulus (GPa) = 31.06226 35.04245 33.05236
#
# Velocity S-wave (km/s) = 3.70078 3.93074 3.81749
# Velocity P-wave (km/s) = 6.63815 7.23573 6.94337
#
# Compressibility (1/GPa) = 0.01708703
#
# Stress axis : x y z
#
# Youngs Moduli (GPa) = 61.25279 136.56788 124.60050
#
# Poissons Ratio (x) = 0.17284 0.44443
# Poissons Ratio (y) = 0.07752 0.30664
# Poissons Ratio (z) = 0.21848 0.33609
#
# Static dielectric constant tensor:
#      x y z
#    x 1.928380 0.000000 0.000000 
#    y 0.000000 1.886530 0.000000 
#    z 0.000000 0.000000 2.010630 
# 
# From -- ./inp_files/8265.got.cif
#   From: 2010.05.17/outbox.cif.g08.bks.cpg/sg67_5_cif.got.tgz:8265.got - 2010.06.03 18:28:57.
