data_PCOD9503491
_publ_section_title
;
Structure prediction by ZEFSAII (Michael W. Deem and Ramdas Pophale) SiO2 
 PCOD9503491
Probable space group: C M M A
;
_chemical_formula_sum "Si O2"
_cell_formula_units_Z 48
_cell_length_a 15.814053
_cell_length_b 18.332318
_cell_length_c 7.358512
_cell_angle_alpha 90.000000
_cell_angle_beta 90.000000
_cell_angle_gamma 90.000000
_cell_volume 2133.293325
_symmetry_space_group_name_H-M "C M M A"
_symmetry_group_IT_number 67
_symmetry_cell_setting 'orthorhombic'
loop_
_space_group_symop_operation_xyz
x,y,z
-x,1/2-y,z
x,-y,-z
-x,1/2+y,-z
-x,-y,-z
x,1/2+y,-z
-x,y,z
x,1/2-y,z
1/2+x,1/2+y,z
1/2-x,-y,z
1/2+x,1/2-y,-z
1/2-x,y,-z
1/2-x,1/2-y,-z
1/2+x,y,-z
1/2-x,1/2+y,z
1/2+x,-y,z
loop_
_atom_site_type_symbol
_atom_site_label
_atom_site_fract_x
_atom_site_fract_y
_atom_site_fract_z
Si Si1 0.404007 0.051321 0.752402
Si Si2 0.662617 0.402132 0.107899
Si Si3 0.602205 0.330950 0.457179
O O1 0.500000 0.027661 0.710599
O O2 0.372429 0.105292 0.596416
O O3 0.348382 0.979966 0.789908
O O4 0.403923 0.094479 0.943121
O O5 0.644033 0.343761 0.261906
O O6 0.750000 0.394653 0.000000
O O7 0.500000 0.335849 0.438382
O O8 0.622618 0.250000 0.526778
#
# Coordination Sequence:
#
# PCOD9503491 Si02
#       3
#    16  16  16
#     4  10  20  38  64  90 117 157 211 263 305 353
#     4  11  22  37  60  90 125 162 202 252 310 367
#     4  10  22  40  63  91 123 162 206 252 305 366
#
# _framework density 22.500420999999999
#
# number of rings (size 3 to 8) (size 9 to 14) (size 15 to 20)
#    0.000    1.667    0.000    7.000    0.000    6.000 
#    0.000   11.667    0.000    3.000    0.000    0.000 
#    0.000    0.000    0.000    0.000    0.000    0.000 
#
# Total GULP energy -134146.063279 kJ/mol
# GULP energy per Si atom -5589.419303 kJ/mol
# Density = 2.244921 g / cm^3
# Si number density = 22.500421 Si / 1000 Ang^3
#
#
#
# Elastic Constant Matrix: (Units=GPa)
#
#
# Indices 1 2 3 4 5 6 
#
# 1 63.3390 12.3650 15.3628 0.0000 0.0000 0.0000
# 2 12.3650 59.7670 50.3626 0.0000 0.0000 0.0000
# 3 15.3628 50.3626 127.5040 0.0000 0.0000 0.0000
# 4 0.0000 0.0000 0.0000 23.1860 0.0000 0.0000
# 5 0.0000 0.0000 0.0000 0.0000 32.7923 0.0000
# 6 0.0000 0.0000 0.0000 0.0000 0.0000 10.9229
#
#
#
# Elastic Compliance Matrix: (Units=1/GPa)
#
#
# Indices 1 2 3 4 5 6 
#
# 1 0.016531 -0.002611 -0.000961 0.000000 0.000000 0.000000
# 2 -0.002611 0.025491 -0.009754 0.000000 0.000000 0.000000
# 3 -0.000961 -0.009754 0.011811 0.000000 0.000000 0.000000
# 4 0.000000 0.000000 0.000000 0.043130 0.000000 0.000000
# 5 0.000000 0.000000 0.000000 0.000000 0.030495 0.000000
# 6 0.000000 0.000000 0.000000 0.000000 0.000000 0.091551
#
#
# Mechanical properties :
#
#
# Convention : Reuss Voigt Hill
#
# Bulk Modulus (GPa) = 36.78827 45.19899 40.99363
# Shear Modulus (GPa) = 19.62942 24.88153 22.25547
#
# Velocity S-wave (km/s) = 2.95685 3.32900 3.14843
# Velocity P-wave (km/s) = 5.29555 5.90830 5.61030
#
# Compressibility (1/GPa) = 0.02718258
#
# Stress axis : x y z
#
# Youngs Moduli (GPa) = 60.49351 39.22949 84.66398
#
# Poissons Ratio (x) = 0.10241 0.08133
# Poissons Ratio (y) = 0.15792 0.82582
# Poissons Ratio (z) = 0.05811 0.38265
#
# Static dielectric constant tensor:
#      x y z
#    x 1.895240 0.000000 0.000000 
#    y 0.000000 1.831120 0.000000 
#    z 0.000000 0.000000 1.823130 
# 
# From -- ./inp_files/7252.got.cif
#   From: 2010.05.17/outbox.cif.g08.bks.cpg/sg67_4_cif.got.tgz:7252.got - 2010.06.03 18:28:57.
