data_PCOD9503699
_publ_section_title
;
Structure prediction by ZEFSAII (Michael W. Deem and Ramdas Pophale) SiO2 
 PCOD9503699
Probable space group: C M M A
;
_chemical_formula_sum "Si O2"
_cell_formula_units_Z 64
_cell_length_a 13.900017
_cell_length_b 9.969961
_cell_length_c 19.667334
_cell_angle_alpha 90.000000
_cell_angle_beta 90.000000
_cell_angle_gamma 90.000000
_cell_volume 2725.550819
_symmetry_space_group_name_H-M "C M M A"
_symmetry_group_IT_number 67
_symmetry_cell_setting 'orthorhombic'
loop_
_space_group_symop_operation_xyz
x,y,z
-x,1/2-y,z
x,-y,-z
-x,1/2+y,-z
-x,-y,-z
x,1/2+y,-z
-x,y,z
x,1/2-y,z
1/2+x,1/2+y,z
1/2-x,-y,z
1/2+x,1/2-y,-z
1/2-x,y,-z
1/2-x,1/2-y,-z
1/2+x,y,-z
1/2-x,1/2+y,z
1/2+x,-y,z
loop_
_atom_site_type_symbol
_atom_site_label
_atom_site_fract_x
_atom_site_fract_y
_atom_site_fract_z
Si Si1 0.617046 0.899518 0.679836
Si Si2 0.383384 0.598492 0.837478
Si Si3 0.847197 0.102855 0.046766
Si Si4 0.882936 0.596996 0.562158
O O1 0.500000 0.897837 0.678769
O O2 0.647512 0.750000 0.656203
O O3 0.644689 0.914996 0.758579
O O4 0.645671 0.020972 0.631243
O O5 0.500000 0.596147 0.840806
O O6 0.352991 0.750000 0.861068
O O7 0.345168 0.475936 0.882229
O O8 0.886519 0.250000 0.056478
O O9 0.750000 0.119857 0.000000
O O10 0.904158 0.000000 0.000000
O O11 0.856190 0.500000 0.500000
O O12 0.848327 0.750000 0.556503
O O13 0.000000 0.603170 0.561570
#
# Coordination Sequence:
#
# PCOD9503699 Si02
#       4
#    16  16  16  16
#     4   8  14  25  39  56  82 115 151 193 239 286
#     4   9  18  32  50  72  97 126 161 202 250 302
#     4  10  21  36  53  72  94 123 159 199 245 297
#     4   9  15  21  31  49  75 111 155 198 238 281
#
# _framework density 23.481493
#
# number of rings (size 3 to 8) (size 9 to 14) (size 15 to 20)
#    0.000    3.000    0.000    3.000    0.000    6.500 
#    0.000    2.500    0.000    0.000    0.000    0.000 
#    0.000    0.000    0.000    4.500    0.000   83.500 
#
# Total GULP energy -178511.366152 kJ/mol
# GULP energy per Si atom -5578.480192 kJ/mol
# Density = 2.342805 g / cm^3
# Si number density = 23.481493 Si / 1000 Ang^3
#
#
#
# Elastic Constant Matrix: (Units=GPa)
#
#
# Indices 1 2 3 4 5 6 
#
# 1 91.0619 22.8083 7.9046 0.0000 0.0000 0.0000
# 2 22.8083 300.6751 125.4038 0.0000 0.0000 0.0000
# 3 7.9046 125.4038 146.3904 0.0000 0.0000 0.0000
# 4 0.0000 0.0000 0.0000 42.6040 0.0000 0.0000
# 5 0.0000 0.0000 0.0000 0.0000 9.0053 0.0000
# 6 0.0000 0.0000 0.0000 0.0000 0.0000 -26.5072
#
#
#
# Elastic Compliance Matrix: (Units=1/GPa)
#
#
# Indices 1 2 3 4 5 6 
#
# 1 0.011198 -0.000929 0.000191 0.000000 0.000000 0.000000
# 2 -0.000929 0.005252 -0.004449 0.000000 0.000000 0.000000
# 3 0.000191 -0.004449 0.010632 0.000000 0.000000 0.000000
# 4 0.000000 0.000000 0.000000 0.023472 0.000000 0.000000
# 5 0.000000 0.000000 0.000000 0.000000 0.111046 0.000000
# 6 0.000000 0.000000 0.000000 0.000000 0.000000 -0.037726
#
#
# Mechanical properties :
#
#
# Convention : Reuss Voigt Hill
#
# Bulk Modulus (GPa) = 59.85161 94.48453 77.16807
# Shear Modulus (GPa) = 35.76143 30.48781 33.12462
#
# Velocity S-wave (km/s) = 3.90675 3.60721 3.75996
# Velocity P-wave (km/s) = 6.77454 7.59437 7.19614
#
# Compressibility (1/GPa) = 0.01670799
#
# Stress axis : x y z
#
# Youngs Moduli (GPa) = 89.30420 190.41181 94.05885
#
# Poissons Ratio (x) = 0.17694 -0.01800
# Poissons Ratio (y) = 0.08299 0.41844
# Poissons Ratio (z) = -0.01709 0.84708
#
# Static dielectric constant tensor:
#      x y z
#    x 1.996330 0.000000 0.000000 
#    y 0.000000 1.761660 0.000000 
#    z 0.000000 0.000000 1.898820 
# 
# From -- ./inp_files/38760.got.cif
#   From: 2010.05.17/outbox.cif.g08.bks.cpg/sg67_20_cif.got.tgz:38760.got - 2010.06.03 18:28:57.
