data_PCOD9503092
_publ_section_title
;
Structure prediction by ZEFSAII (Michael W. Deem and Ramdas Pophale) SiO2 
 PCOD9503092
Probable space group: C M M A
;
_chemical_formula_sum "Si O2"
_cell_formula_units_Z 80
_cell_length_a 8.734539
_cell_length_b 26.956852
_cell_length_c 18.540417
_cell_angle_alpha 90.000000
_cell_angle_beta 90.000000
_cell_angle_gamma 90.000000
_cell_volume 4365.446402
_symmetry_space_group_name_H-M "C M M A"
_symmetry_group_IT_number 67
_symmetry_cell_setting 'orthorhombic'
loop_
_space_group_symop_operation_xyz
x,y,z
-x,1/2-y,z
x,-y,-z
-x,1/2+y,-z
-x,-y,-z
x,1/2+y,-z
-x,y,z
x,1/2-y,z
1/2+x,1/2+y,z
1/2-x,-y,z
1/2+x,1/2-y,-z
1/2-x,y,-z
1/2-x,1/2-y,-z
1/2+x,y,-z
1/2-x,1/2+y,z
1/2+x,-y,z
loop_
_atom_site_type_symbol
_atom_site_label
_atom_site_fract_x
_atom_site_fract_y
_atom_site_fract_z
Si Si1 0.684021 0.250000 0.580305
Si Si2 0.677949 0.552053 0.337495
Si Si3 0.183446 0.157206 0.668090
Si Si4 0.676057 0.550637 0.161854
Si Si5 0.316294 0.750000 0.919811
Si Si6 0.813890 0.341323 0.170039
O O1 0.500000 0.250000 0.580502
O O2 0.750000 0.250000 0.500000
O O3 0.746379 0.298948 0.620452
O O4 0.500000 0.555381 0.358053
O O5 0.750000 0.500000 0.362889
O O6 0.765645 0.602342 0.358416
O O7 0.683921 0.550565 0.249628
O O8 0.251295 0.163486 0.748646
O O9 0.000000 0.160429 0.669855
O O10 0.500000 0.549282 0.140869
O O11 0.750000 0.500000 0.135522
O O12 0.738300 0.604573 0.141048
O O13 0.500000 0.750000 0.920245
O O14 0.252509 0.797777 0.877928
O O15 0.250000 0.750000 0.000000
O O16 0.000000 0.340204 0.171984
#
# Coordination Sequence:
#
# PCOD9503092 Si02
#       6
#     8  16  16  16   8  16
#     4  12  25  42  59  78 106 142 182 228 277 328
#     4   9  16  28  47  76 110 144 178 220 269 317
#     4  11  21  35  56  84 113 145 183 224 269 323
#     4   8  15  26  45  73 106 138 170 209 259 308
#     4  12  25  40  57  78 104 140 180 224 275 328
#     4  10  20  36  56  81 111 144 180 223 268 316
#
# _framework density 18.325731000000001
#
# number of rings (size 3 to 8) (size 9 to 14) (size 15 to 20)
#    0.000    2.000    0.000    6.600    0.000    5.600 
#    0.000    0.000    0.000    1.200    0.000    8.400 
#    0.000    0.000    0.000    0.000    0.000    0.000 
#
# Total GULP energy -223182.680409 kJ/mol
# GULP energy per Si atom -5579.567010 kJ/mol
# Density = 1.828402 g / cm^3
# Si number density = 18.325731 Si / 1000 Ang^3
#
#
#
# Elastic Constant Matrix: (Units=GPa)
#
#
# Indices 1 2 3 4 5 6 
#
# 1 152.5229 92.4524 40.5775 0.0000 0.0000 0.0000
# 2 92.4524 226.2249 75.8344 0.0000 0.0000 0.0000
# 3 40.5775 75.8344 59.1668 0.0000 0.0000 0.0000
# 4 0.0000 0.0000 0.0000 -8.5775 0.0000 0.0000
# 5 0.0000 0.0000 0.0000 0.0000 21.5826 0.0000
# 6 0.0000 0.0000 0.0000 0.0000 0.0000 37.5705
#
#
#
# Elastic Compliance Matrix: (Units=1/GPa)
#
#
# Indices 1 2 3 4 5 6 
#
# 1 0.008927 -0.002798 -0.002536 0.000000 0.000000 0.000000
# 2 -0.002798 0.008627 -0.009139 0.000000 0.000000 0.000000
# 3 -0.002536 -0.009139 0.030354 0.000000 0.000000 0.000000
# 4 0.000000 0.000000 0.000000 -0.116584 0.000000 0.000000
# 5 0.000000 0.000000 0.000000 0.000000 0.046334 0.000000
# 6 0.000000 0.000000 0.000000 0.000000 0.000000 0.026617
#
#
# Mechanical properties :
#
#
# Convention : Reuss Voigt Hill
#
# Bulk Modulus (GPa) = 52.73541 95.07147 73.90344
# Shear Modulus (GPa) = 126.45033 25.38515 75.91774
#
# Velocity S-wave (km/s) = 8.31573 3.72589 6.44335
# Velocity P-wave (km/s) = 11.00186 8.39649 9.78626
#
# Compressibility (1/GPa) = 0.01896259
#
# Stress axis : x y z
#
# Youngs Moduli (GPa) = 112.01698 115.90972 32.94495
#
# Poissons Ratio (x) = 0.32435 0.08354
# Poissons Ratio (y) = 0.31345 0.30107
# Poissons Ratio (z) = 0.28406 1.05926
#
# Static dielectric constant tensor:
#      x y z
#    x 1.617860 0.000000 0.000000 
#    y 0.000000 1.655810 0.000000 
#    z 0.000000 0.000000 1.613910 
# 
# From -- ./inp_files/32194.got.cif
#   From: 2010.05.17/outbox.cif.g08.bks.cpg/sg67_17_cif.got.tgz:32194.got - 2010.06.03 18:28:57.
