data_PCOD9503632
_publ_section_title
;
Structure prediction by ZEFSAII (Michael W. Deem and Ramdas Pophale) SiO2 
 PCOD9503632
Probable space group: C M M A
;
_chemical_formula_sum "Si O2"
_cell_formula_units_Z 112
_cell_length_a 19.707839
_cell_length_b 7.700124
_cell_length_c 37.266905
_cell_angle_alpha 90.000000
_cell_angle_beta 90.000000
_cell_angle_gamma 90.000000
_cell_volume 5655.357333
_symmetry_space_group_name_H-M "C M M A"
_symmetry_group_IT_number 67
_symmetry_cell_setting 'orthorhombic'
loop_
_space_group_symop_operation_xyz
x,y,z
-x,1/2-y,z
x,-y,-z
-x,1/2+y,-z
-x,-y,-z
x,1/2+y,-z
-x,y,z
x,1/2-y,z
1/2+x,1/2+y,z
1/2-x,-y,z
1/2+x,1/2-y,-z
1/2-x,y,-z
1/2-x,1/2-y,-z
1/2+x,y,-z
1/2-x,1/2+y,z
1/2+x,-y,z
loop_
_atom_site_type_symbol
_atom_site_label
_atom_site_fract_x
_atom_site_fract_y
_atom_site_fract_z
Si Si1 0.577169 0.041265 0.958992
Si Si2 0.577652 0.458330 0.829362
Si Si3 0.671192 0.540954 0.604227
Si Si4 0.171238 0.041017 0.684391
Si Si5 0.077501 0.541123 0.460068
Si Si6 0.329401 0.459171 0.894394
Si Si7 0.577343 0.959249 0.748593
O O1 0.500000 0.976664 0.952433
O O2 0.574691 0.250000 0.955867
O O3 0.630942 0.976688 0.929823
O O4 0.595496 0.000000 0.000000
O O5 0.500000 0.524456 0.833852
O O6 0.574275 0.250000 0.832987
O O7 0.629375 0.523619 0.859496
O O8 0.600439 0.496947 0.788820
O O9 0.664662 0.750000 0.604917
O O10 0.750000 0.500000 0.597796
O O11 0.653271 0.476549 0.644317
O O12 0.624143 0.474486 0.572159
O O13 0.164468 0.250000 0.683673
O O14 0.124796 0.974534 0.716683
O O15 0.250000 0.000000 0.690703
O O16 0.103361 0.500000 0.500000
O O17 0.075130 0.750000 0.457219
O O18 0.000000 0.475599 0.457435
O O19 0.334318 0.250000 0.894370
O O20 0.250000 0.500000 0.893978
O O21 0.500000 0.023259 0.744805
O O22 0.575794 0.750000 0.746207
#
# Coordination Sequence:
#
# PCOD9503632 Si02
#       7
#    16  16  16  16  16  16  16
#     4   9  18  34  55  76  98 127 164 202 239 282
#     4   9  18  34  54  72  93 126 165 200 235 279
#     4   9  18  32  49  69  93 123 158 193 230 276
#     4   9  18  32  49  69  95 126 157 191 233 280
#     4   9  18  32  49  69  93 121 154 192 234 279
#     4  10  21  35  51  73 101 131 162 198 240 285
#     4   9  18  32  50  73  98 123 155 197 241 281
#
# _framework density 19.804228999999999
#
# number of rings (size 3 to 8) (size 9 to 14) (size 15 to 20)
#    0.000    2.857    0.000    0.429    0.000    5.714 
#    0.000    8.571    0.000    4.286    0.000    8.000 
#    0.000    0.000    0.000    0.000    0.000    0.000 
#
# Total GULP energy -312356.601585 kJ/mol
# GULP energy per Si atom -5577.796457 kJ/mol
# Density = 1.975915 g / cm^3
# Si number density = 19.804229 Si / 1000 Ang^3
#
#
#
# Elastic Constant Matrix: (Units=GPa)
#
#
# Indices 1 2 3 4 5 6 
#
# 1 119.8250 3.7629 143.1719 0.0000 0.0000 0.0000
# 2 3.7629 32.8472 6.3327 0.0000 0.0000 0.0000
# 3 143.1719 6.3327 226.2415 0.0000 0.0000 0.0000
# 4 0.0000 0.0000 0.0000 22.7514 0.0000 0.0000
# 5 0.0000 0.0000 0.0000 0.0000 52.1659 0.0000
# 6 0.0000 0.0000 0.0000 0.0000 0.0000 21.6313
#
#
#
# Elastic Compliance Matrix: (Units=1/GPa)
#
#
# Indices 1 2 3 4 5 6 
#
# 1 0.034223 0.000256 -0.021665 0.000000 0.000000 0.000000
# 2 0.000256 0.030611 -0.001019 0.000000 0.000000 0.000000
# 3 -0.021665 -0.001019 0.018158 0.000000 0.000000 0.000000
# 4 0.000000 0.000000 0.000000 0.043953 0.000000 0.000000
# 5 0.000000 0.000000 0.000000 0.000000 0.019170 0.000000
# 6 0.000000 0.000000 0.000000 0.000000 0.000000 0.046229
#
#
# Mechanical properties :
#
#
# Convention : Reuss Voigt Hill
#
# Bulk Modulus (GPa) = 26.22045 76.16095 51.19070
# Shear Modulus (GPa) = 20.00703 34.35281 27.17992
#
# Velocity S-wave (km/s) = 3.18188 4.16940 3.70865
# Velocity P-wave (km/s) = 5.17375 7.85614 6.65156
#
# Compressibility (1/GPa) = 0.03813817
#
# Stress axis : x y z
#
# Youngs Moduli (GPa) = 29.22002 32.66790 55.07069
#
# Poissons Ratio (x) = -0.00837 1.19308
# Poissons Ratio (y) = -0.00749 0.05612
# Poissons Ratio (z) = 0.63304 0.03329
#
# Static dielectric constant tensor:
#      x y z
#    x 1.670260 0.000000 0.000000 
#    y 0.000000 1.744290 0.000000 
#    z 0.000000 0.000000 1.695600 
# 
# From -- ./inp_files/45723.got.cif
#   From: 2010.05.17/outbox.cif.g08.bks.cpg/sg67_23_cif.got.tgz:45723.got - 2010.06.03 18:28:57.
