data_PCOD9503374
_publ_section_title
;
Structure prediction by ZEFSAII (Michael W. Deem and Ramdas Pophale) SiO2 
 PCOD9503374
Probable space group: C M M A
;
_chemical_formula_sum "Si O2"
_cell_formula_units_Z 112
_cell_length_a 23.881135
_cell_length_b 13.565757
_cell_length_c 14.646330
_cell_angle_alpha 90.000000
_cell_angle_beta 90.000000
_cell_angle_gamma 90.000000
_cell_volume 4744.908174
_symmetry_space_group_name_H-M "C M M A"
_symmetry_group_IT_number 67
_symmetry_cell_setting 'orthorhombic'
loop_
_space_group_symop_operation_xyz
x,y,z
-x,1/2-y,z
x,-y,-z
-x,1/2+y,-z
-x,-y,-z
x,1/2+y,-z
-x,y,z
x,1/2-y,z
1/2+x,1/2+y,z
1/2-x,-y,z
1/2+x,1/2-y,-z
1/2-x,y,-z
1/2-x,1/2-y,-z
1/2+x,y,-z
1/2-x,1/2+y,z
1/2+x,-y,z
loop_
_atom_site_type_symbol
_atom_site_label
_atom_site_fract_x
_atom_site_fract_y
_atom_site_fract_z
Si Si1 0.893174 0.636925 0.426305
Si Si2 0.128990 0.867356 0.933139
Si Si3 0.847046 0.367047 0.855641
Si Si4 0.777348 0.368952 0.212380
Si Si5 0.564261 0.519878 0.197292
Si Si6 0.735557 0.632066 0.601216
Si Si7 0.935549 0.576077 0.611609
O O1 0.909111 0.750000 0.402976
O O2 0.831024 0.616933 0.387919
O O3 0.895776 0.626780 0.537268
O O4 0.930600 0.543157 0.398499
O O5 0.122283 0.750000 0.926608
O O6 0.176301 0.900673 0.860267
O O7 0.074495 0.922495 0.896841
O O8 0.146128 0.888233 0.036579
O O9 0.854105 0.250000 0.841436
O O10 0.784571 0.392270 0.824399
O O11 0.894787 0.426839 0.803755
O O12 0.781818 0.250000 0.213563
O O13 0.775584 0.404381 0.317262
O O14 0.500000 0.490740 0.207689
O O15 0.578136 0.592228 0.282345
O O16 0.742254 0.750000 0.602176
O O17 0.750000 0.599136 0.500000
O O18 0.000000 0.605845 0.593519
#
# Coordination Sequence:
#
# PCOD9503374 Si02
#       7
#    16  16  16  16  16  16  16
#     4  10  20  37  62  85 116 158 200 249 299 350
#     4  10  22  39  64  92 122 163 205 253 315 377
#     4  10  21  40  65  92 120 158 208 259 316 374
#     4   9  18  35  60  91 127 157 197 254 306 366
#     4  11  25  42  60  87 126 165 206 261 313 367
#     4   9  18  31  53  87 120 154 190 229 286 358
#     4  10  23  40  57  85 119 154 207 258 298 357
#
# _framework density 23.604251000000001
#
# number of rings (size 3 to 8) (size 9 to 14) (size 15 to 20)
#    0.000    2.143    0.000    2.571    2.000    7.429 
#    0.000    7.143    0.000    0.000    0.000    0.000 
#    0.000    0.000    0.000    0.000    0.000    0.000 
#
# Total GULP energy -313143.722533 kJ/mol
# GULP energy per Si atom -5591.852188 kJ/mol
# Density = 2.355053 g / cm^3
# Si number density = 23.604251 Si / 1000 Ang^3
#
#
#
# Elastic Constant Matrix: (Units=GPa)
#
#
# Indices 1 2 3 4 5 6 
#
# 1 66.5700 5.4497 25.5651 0.0000 0.0000 0.0000
# 2 5.4497 75.2001 -4.1023 0.0000 0.0000 0.0000
# 3 25.5651 -4.1023 110.4060 0.0000 0.0000 0.0000
# 4 0.0000 0.0000 0.0000 20.2943 0.0000 0.0000
# 5 0.0000 0.0000 0.0000 0.0000 35.2359 0.0000
# 6 0.0000 0.0000 0.0000 0.0000 0.0000 20.4822
#
#
#
# Elastic Compliance Matrix: (Units=1/GPa)
#
#
# Indices 1 2 3 4 5 6 
#
# 1 0.016638 -0.001419 -0.003905 0.000000 0.000000 0.000000
# 2 -0.001419 0.013446 0.000828 0.000000 0.000000 0.000000
# 3 -0.003905 0.000828 0.009993 0.000000 0.000000 0.000000
# 4 0.000000 0.000000 0.000000 0.049275 0.000000 0.000000
# 5 0.000000 0.000000 0.000000 0.000000 0.028380 0.000000
# 6 0.000000 0.000000 0.000000 0.000000 0.000000 0.048823
#
#
# Mechanical properties :
#
#
# Convention : Reuss Voigt Hill
#
# Bulk Modulus (GPa) = 32.17061 34.00011 33.08536
# Shear Modulus (GPa) = 26.89517 30.22008 28.55762
#
# Velocity S-wave (km/s) = 3.37919 3.58198 3.48206
# Velocity P-wave (km/s) = 5.37438 5.61631 5.49668
#
# Compressibility (1/GPa) = 0.03108427
#
# Stress axis : x y z
#
# Youngs Moduli (GPa) = 60.10452 74.37245 100.07475
#
# Poissons Ratio (x) = 0.10552 0.39082
# Poissons Ratio (y) = 0.08527 -0.08287
# Poissons Ratio (z) = 0.23472 -0.06159
#
# Static dielectric constant tensor:
#      x y z
#    x 1.832530 0.000000 0.000000 
#    y 0.000000 1.914600 0.000000 
#    z 0.000000 0.000000 1.938380 
# 
# From -- ./inp_files/30130.got.cif
#   From: 2010.05.17/outbox.cif.g08.bks.cpg/sg67_16_cif.got.tgz:30130.got - 2010.06.03 18:28:57.
