data_PCOD9503290
_publ_section_title
;
Structure prediction by ZEFSAII (Michael W. Deem and Ramdas Pophale) SiO2 
 PCOD9503290
Probable space group: C M M A
;
_chemical_formula_sum "Si O2"
_cell_formula_units_Z 96
_cell_length_a 27.171922
_cell_length_b 15.020550
_cell_length_c 10.319760
_cell_angle_alpha 90.000000
_cell_angle_beta 90.000000
_cell_angle_gamma 90.000000
_cell_volume 4211.878085
_symmetry_space_group_name_H-M "C M M A"
_symmetry_group_IT_number 67
_symmetry_cell_setting 'orthorhombic'
loop_
_space_group_symop_operation_xyz
x,y,z
-x,1/2-y,z
x,-y,-z
-x,1/2+y,-z
-x,-y,-z
x,1/2+y,-z
-x,y,z
x,1/2-y,z
1/2+x,1/2+y,z
1/2-x,-y,z
1/2+x,1/2-y,-z
1/2-x,y,-z
1/2-x,1/2-y,-z
1/2+x,y,-z
1/2-x,1/2+y,z
1/2+x,-y,z
loop_
_atom_site_type_symbol
_atom_site_label
_atom_site_fract_x
_atom_site_fract_y
_atom_site_fract_z
Si Si1 0.892787 0.358580 0.321735
Si Si2 0.377922 0.851124 0.820124
Si Si3 0.269896 0.400015 0.134798
Si Si4 0.056196 0.399762 0.053365
Si Si5 0.715893 0.648364 0.388783
Si Si6 0.444623 0.141221 0.413073
O O1 0.891828 0.250000 0.310779
O O2 0.914142 0.393414 0.187032
O O3 0.837570 0.390644 0.355634
O O4 0.927203 0.382496 0.443226
O O5 0.362573 0.750000 0.788309
O O6 0.328603 0.901037 0.859804
O O7 0.406252 0.889457 0.695742
O O8 0.415217 0.848932 0.940081
O O9 0.250000 0.500000 0.142429
O O10 0.247512 0.351408 0.258398
O O11 0.250000 0.361011 0.000000
O O12 0.000000 0.368530 0.071946
O O13 0.054808 0.500000 0.000000
O O14 0.705423 0.750000 0.432483
O O15 0.750000 0.606403 0.500000
O O16 0.500000 0.110219 0.385737
O O17 0.444982 0.250000 0.405978
#
# Coordination Sequence:
#
# PCOD9503290 Si02
#       6
#    16  16  16  16  16  16
#     4  10  20  36  64  94 125 169 213 263 320 382
#     4  11  23  40  66  94 124 166 214 265 321 384
#     4  11  25  40  61  90 125 169 208 262 318 381
#     4  11  25  41  61  91 131 175 218 270 328 385
#     4  10  21  39  63  93 128 164 212 266 315 377
#     4   9  18  35  61  94 127 158 202 261 317 373
#
# _framework density 22.792681999999999
#
# number of rings (size 3 to 8) (size 9 to 14) (size 15 to 20)
#    0.000    1.667    0.000    4.000    4.667    8.333 
#    0.000    0.833    0.000    3.000    0.000    0.000 
#    0.000    0.000    0.000    0.000    0.000    0.000 
#
# Total GULP energy -268582.658463 kJ/mol
# GULP energy per Si atom -5595.472051 kJ/mol
# Density = 2.274081 g / cm^3
# Si number density = 22.792682 Si / 1000 Ang^3
#
#
#
# Elastic Constant Matrix: (Units=GPa)
#
#
# Indices 1 2 3 4 5 6 
#
# 1 176.6159 16.6929 75.6487 0.0000 0.0000 0.0000
# 2 16.6929 50.7563 9.9943 0.0000 0.0000 0.0000
# 3 75.6487 9.9943 174.6492 0.0000 0.0000 0.0000
# 4 0.0000 0.0000 0.0000 6.6652 0.0000 0.0000
# 5 0.0000 0.0000 0.0000 0.0000 45.9086 0.0000
# 6 0.0000 0.0000 0.0000 0.0000 0.0000 28.7293
#
#
#
# Elastic Compliance Matrix: (Units=1/GPa)
#
#
# Indices 1 2 3 4 5 6 
#
# 1 0.007102 -0.001750 -0.002976 0.000000 0.000000 0.000000
# 2 -0.001750 0.020358 -0.000407 0.000000 0.000000 0.000000
# 3 -0.002976 -0.000407 0.007038 0.000000 0.000000 0.000000
# 4 0.000000 0.000000 0.000000 0.150033 0.000000 0.000000
# 5 0.000000 0.000000 0.000000 0.000000 0.021782 0.000000
# 6 0.000000 0.000000 0.000000 0.000000 0.000000 0.034808
#
#
# Mechanical properties :
#
#
# Convention : Reuss Voigt Hill
#
# Bulk Modulus (GPa) = 41.26775 67.41034 54.33905
# Shear Modulus (GPa) = 19.27045 36.23964 27.75505
#
# Velocity S-wave (km/s) = 2.91085 3.99177 3.49337
# Velocity P-wave (km/s) = 5.42608 7.13339 6.33749
#
# Compressibility (1/GPa) = 0.02423199
#
# Stress axis : x y z
#
# Youngs Moduli (GPa) = 140.80292 49.12173 142.08262
#
# Poissons Ratio (x) = 0.08595 0.42286
# Poissons Ratio (y) = 0.24637 0.05784
# Poissons Ratio (z) = 0.41905 0.02000
#
# Static dielectric constant tensor:
#      x y z
#    x 1.816020 0.000000 0.000000 
#    y 0.000000 1.923720 0.000000 
#    z 0.000000 0.000000 1.789930 
# 
# From -- ./inp_files/13732.got.cif
#   From: 2010.05.17/outbox.cif.g08.bks.cpg/sg67_7_cif.got.tgz:13732.got - 2010.06.03 18:28:57.
