data_PCOD9503044
_publ_section_title
;
Structure prediction by ZEFSAII (Michael W. Deem and Ramdas Pophale) SiO2 
 PCOD9503044
Probable space group: C M M A
;
_chemical_formula_sum "Si O2"
_cell_formula_units_Z 52
_cell_length_a 15.336716
_cell_length_b 14.867984
_cell_length_c 10.251467
_cell_angle_alpha 90.000000
_cell_angle_beta 90.000000
_cell_angle_gamma 90.000000
_cell_volume 2337.601507
_symmetry_space_group_name_H-M "C M M A"
_symmetry_group_IT_number 67
_symmetry_cell_setting 'orthorhombic'
loop_
_space_group_symop_operation_xyz
x,y,z
-x,1/2-y,z
x,-y,-z
-x,1/2+y,-z
-x,-y,-z
x,1/2+y,-z
-x,y,z
x,1/2-y,z
1/2+x,1/2+y,z
1/2-x,-y,z
1/2+x,1/2-y,-z
1/2-x,y,-z
1/2-x,1/2-y,-z
1/2+x,y,-z
1/2-x,1/2+y,z
1/2+x,-y,z
loop_
_atom_site_type_symbol
_atom_site_label
_atom_site_fract_x
_atom_site_fract_y
_atom_site_fract_z
Si Si1 0.094078 0.351046 0.769395
Si Si2 0.750000 0.500000 0.500000
Si Si3 0.600996 0.403272 0.942506
Si Si4 0.785680 0.856954 0.692125
O O1 0.089485 0.250000 0.716809
O O2 0.185437 0.386532 0.719097
O O3 0.000000 0.396177 0.743079
O O4 0.102968 0.345591 0.925991
O O5 0.809831 0.429242 0.417983
O O6 0.500000 0.408454 0.899349
O O7 0.660166 0.370854 0.824609
O O8 0.628197 0.500000 0.000000
O O9 0.789915 0.750000 0.657739
#
# Coordination Sequence:
#
# PCOD9503044 Si02
#       4
#    16   4  16  16
#     4   9  18  34  58  88 118 146 182 235 304 378
#     4  12  26  44  60  78 116 162 218 274 302 342
#     4  10  20  35  59  92 125 153 186 237 306 379
#     4  11  23  40  62  86 118 164 210 254 305 359
#
# _framework density 22.245021999999999
#
# number of rings (size 3 to 8) (size 9 to 14) (size 15 to 20)
#    0.000    1.846    0.000    4.154    0.000    5.538 
#    0.000    3.077    0.000    3.692    0.000    0.000 
#    0.000    0.000    0.000    0.000    0.000    0.000 
#
# Total GULP energy -144924.021735 kJ/mol
# GULP energy per Si atom -5574.000836 kJ/mol
# Density = 2.219439 g / cm^3
# Si number density = 22.245022 Si / 1000 Ang^3
#
#
#
# Elastic Constant Matrix: (Units=GPa)
#
#
# Indices 1 2 3 4 5 6 
#
# 1 101.3343 21.0639 36.1352 0.0000 0.0000 0.0000
# 2 21.0639 140.0147 31.4237 0.0000 0.0000 0.0000
# 3 36.1352 31.4237 65.7162 0.0000 0.0000 0.0000
# 4 0.0000 0.0000 0.0000 24.0743 0.0000 0.0000
# 5 0.0000 0.0000 0.0000 0.0000 -5.8884 0.0000
# 6 0.0000 0.0000 0.0000 0.0000 0.0000 20.3219
#
#
#
# Elastic Compliance Matrix: (Units=1/GPa)
#
#
# Indices 1 2 3 4 5 6 
#
# 1 0.012293 -0.000372 -0.006581 0.000000 0.000000 0.000000
# 2 -0.000372 0.008012 -0.003626 0.000000 0.000000 0.000000
# 3 -0.006581 -0.003626 0.020570 0.000000 0.000000 0.000000
# 4 0.000000 0.000000 0.000000 0.041538 0.000000 0.000000
# 5 0.000000 0.000000 0.000000 0.000000 -0.169827 0.000000
# 6 0.000000 0.000000 0.000000 0.000000 0.000000 0.049208
#
#
# Mechanical properties :
#
#
# Convention : Reuss Voigt Hill
#
# Bulk Modulus (GPa) = 50.72415 53.81229 52.26822
# Shear Modulus (GPa) = -477.33899 22.26439 -227.53730
#
# Velocity S-wave (km/s) = -14.66452 3.16709 -10.12467
# Velocity P-wave (km/s) = 16.24435 6.13328 10.63630
#
# Compressibility (1/GPa) = 0.01971448
#
# Stress axis : x y z
#
# Youngs Moduli (GPa) = 81.35008 124.81284 48.61487
#
# Poissons Ratio (x) = 0.04646 0.31995
# Poissons Ratio (y) = 0.03028 0.17630
# Poissons Ratio (z) = 0.53539 0.45263
#
# Static dielectric constant tensor:
#      x y z
#    x 1.854820 0.000000 0.000000 
#    y 0.000000 2.055530 0.000000 
#    z 0.000000 0.000000 1.842650 
# 
# From -- ./inp_files/18854.got.cif
#   From: 2010.05.17/outbox.cif.g08.bks.cpg/sg67_10_cif.got.tgz:18854.got - 2010.06.03 18:28:57.
