data_PCOD9503926
_publ_section_title
;
Structure prediction by ZEFSAII (Michael W. Deem and Ramdas Pophale) SiO2 
 PCOD9503926
Probable space group: C M M A
;
_chemical_formula_sum "Si O2"
_cell_formula_units_Z 112
_cell_length_a 14.779731
_cell_length_b 23.819892
_cell_length_c 15.684959
_cell_angle_alpha 90.000000
_cell_angle_beta 90.000000
_cell_angle_gamma 90.000000
_cell_volume 5521.914852
_symmetry_space_group_name_H-M "C M M A"
_symmetry_group_IT_number 67
_symmetry_cell_setting 'orthorhombic'
loop_
_space_group_symop_operation_xyz
x,y,z
-x,1/2-y,z
x,-y,-z
-x,1/2+y,-z
-x,-y,-z
x,1/2+y,-z
-x,y,z
x,1/2-y,z
1/2+x,1/2+y,z
1/2-x,-y,z
1/2+x,1/2-y,-z
1/2-x,y,-z
1/2-x,1/2-y,-z
1/2+x,y,-z
1/2-x,1/2+y,z
1/2+x,-y,z
loop_
_atom_site_type_symbol
_atom_site_label
_atom_site_fract_x
_atom_site_fract_y
_atom_site_fract_z
Si Si1 0.599824 0.184633 0.700397
Si Si2 0.228732 0.582279 0.099776
Si Si3 0.893880 0.019720 0.172166
Si Si4 0.212207 0.684657 0.210363
Si Si5 0.605580 0.504788 0.372347
Si Si6 0.349589 0.384249 0.533351
Si Si7 0.101479 0.380851 0.647285
O O1 0.500000 0.168559 0.733326
O O2 0.597293 0.250000 0.675180
O O3 0.681948 0.180233 0.765838
O O4 0.622179 0.148653 0.617351
O O5 0.155462 0.536960 0.136112
O O6 0.326117 0.567350 0.140075
O O7 0.196447 0.643159 0.131268
O O8 0.250000 0.577481 0.000000
O O9 0.890576 0.024704 0.274640
O O10 0.000000 0.021648 0.146991
O O11 0.189217 0.750000 0.197108
O O12 0.158220 0.659079 0.291529
O O13 0.500000 0.496807 0.395452
O O14 0.641820 0.550577 0.438173
O O15 0.647082 0.442531 0.363399
O O16 0.250000 0.372172 0.500000
O O17 0.405785 0.364498 0.451373
O O18 0.000000 0.387272 0.683956
#
# Coordination Sequence:
#
# PCOD9503926 Si02
#       7
#    16  16  16  16  16  16  16
#     4  10  22  42  64  85 116 160 213 267 311 362
#     4  11  24  40  64  99 131 162 206 259 324 397
#     4  10  21  40  68  96 131 170 207 254 313 384
#     4  11  24  44  67  91 122 166 217 267 322 381
#     4  10  21  37  59  87 125 168 210 252 307 368
#     4  12  23  35  58  92 127 166 210 260 317 368
#     4  11  23  40  58  86 127 171 215 260 305 367
#
# _framework density 20.282817999999999
#
# number of rings (size 3 to 8) (size 9 to 14) (size 15 to 20)
#    0.000    1.286    2.857    3.429    0.000    6.571 
#    0.000    0.000    0.000    0.000    0.000    4.000 
#    0.000    0.000    0.000    0.000    0.000    0.000 
#
# Total GULP energy -312539.512459 kJ/mol
# GULP energy per Si atom -5581.062722 kJ/mol
# Density = 2.023665 g / cm^3
# Si number density = 20.282818 Si / 1000 Ang^3
#
#
#
# Elastic Constant Matrix: (Units=GPa)
#
#
# Indices 1 2 3 4 5 6 
#
# 1 112.3495 24.2890 6.1976 0.0000 0.0000 0.0000
# 2 24.2890 108.1885 27.5259 0.0000 0.0000 0.0000
# 3 6.1976 27.5259 64.3151 0.0000 0.0000 0.0000
# 4 0.0000 0.0000 0.0000 7.1848 0.0000 0.0000
# 5 0.0000 0.0000 0.0000 0.0000 9.0555 0.0000
# 6 0.0000 0.0000 0.0000 0.0000 0.0000 20.7610
#
#
#
# Elastic Compliance Matrix: (Units=1/GPa)
#
#
# Indices 1 2 3 4 5 6 
#
# 1 0.009355 -0.002099 -0.000003 0.000000 0.000000 0.000000
# 2 -0.002099 0.010844 -0.004439 0.000000 0.000000 0.000000
# 3 -0.000003 -0.004439 0.017448 0.000000 0.000000 0.000000
# 4 0.000000 0.000000 0.000000 0.139183 0.000000 0.000000
# 5 0.000000 0.000000 0.000000 0.000000 0.110430 0.000000
# 6 0.000000 0.000000 0.000000 0.000000 0.000000 0.048167
#
#
# Mechanical properties :
#
#
# Convention : Reuss Voigt Hill
#
# Bulk Modulus (GPa) = 40.70846 44.54201 42.62524
# Shear Modulus (GPa) = 14.01744 22.52295 18.27019
#
# Velocity S-wave (km/s) = 2.63173 3.33595 3.00454
# Velocity P-wave (km/s) = 5.41744 6.07011 5.75304
#
# Compressibility (1/GPa) = 0.02456492
#
# Stress axis : x y z
#
# Youngs Moduli (GPa) = 106.89644 92.21872 57.31183
#
# Poissons Ratio (x) = 0.19361 0.00017
# Poissons Ratio (y) = 0.22443 0.25439
# Poissons Ratio (z) = 0.00031 0.40933
#
# Static dielectric constant tensor:
#      x y z
#    x 1.782830 0.000000 0.000000 
#    y 0.000000 1.760790 0.000000 
#    z 0.000000 0.000000 1.739580 
# 
# From -- ./inp_files/27473.got.cif
#   From: 2010.05.17/outbox.cif.g08.bks.cpg/sg67_14_cif.got.tgz:27473.got - 2010.06.03 18:28:57.
