data_PCOD9503409
_publ_section_title
;
Structure prediction by ZEFSAII (Michael W. Deem and Ramdas Pophale) SiO2 
 PCOD9503409
Probable space group: C M M A
;
_chemical_formula_sum "Si O2"
_cell_formula_units_Z 40
_cell_length_a 18.149050
_cell_length_b 12.630636
_cell_length_c 7.585195
_cell_angle_alpha 90.000000
_cell_angle_beta 90.000000
_cell_angle_gamma 90.000000
_cell_volume 1738.784927
_symmetry_space_group_name_H-M "C M M A"
_symmetry_group_IT_number 67
_symmetry_cell_setting 'orthorhombic'
loop_
_space_group_symop_operation_xyz
x,y,z
-x,1/2-y,z
x,-y,-z
-x,1/2+y,-z
-x,-y,-z
x,1/2+y,-z
-x,y,z
x,1/2-y,z
1/2+x,1/2+y,z
1/2-x,-y,z
1/2+x,1/2-y,-z
1/2-x,y,-z
1/2-x,1/2-y,-z
1/2+x,y,-z
1/2-x,1/2+y,z
1/2+x,-y,z
loop_
_atom_site_type_symbol
_atom_site_label
_atom_site_fract_x
_atom_site_fract_y
_atom_site_fract_z
Si Si1 0.280881 0.862881 0.802141
Si Si2 0.868211 0.949685 0.686467
Si Si3 0.000000 0.124755 0.088256
O O1 0.311574 0.750000 0.752330
O O2 0.210502 0.889832 0.680363
O O3 0.344704 0.947746 0.797538
O O4 0.250000 0.861300 0.000000
O O5 0.928373 0.882144 0.786598
O O6 0.891092 0.000000 0.500000
O O7 0.000000 0.250000 0.010245
O O8 0.000000 0.000000 0.000000
#
# Coordination Sequence:
#
# PCOD9503409 Si02
#       3
#    16  16   8
#     4  10  20  37  63  93 128 172 220 267 318 384
#     4  11  23  39  62  94 130 169 214 269 331 391
#     4  12  27  48  70  94 130 176 227 280 338 406
#
# _framework density 23.004572
#
# number of rings (size 3 to 8) (size 9 to 14) (size 15 to 20)
#    0.000    1.200    0.000    9.000    0.000    9.600 
#    0.000    2.000    0.000    0.000    0.000    0.000 
#    0.000    0.000    0.000    0.000    0.000    0.000 
#
# Total GULP energy -111438.029748 kJ/mol
# GULP energy per Si atom -5571.901487 kJ/mol
# Density = 2.295221 g / cm^3
# Si number density = 23.004572 Si / 1000 Ang^3
#
#
#
# Elastic Constant Matrix: (Units=GPa)
#
#
# Indices 1 2 3 4 5 6 
#
# 1 89.8029 26.7693 9.4596 0.0000 0.0000 0.0000
# 2 26.7693 167.7759 17.0823 0.0000 0.0000 0.0000
# 3 9.4596 17.0823 64.9313 0.0000 0.0000 0.0000
# 4 0.0000 0.0000 0.0000 17.0834 0.0000 0.0000
# 5 0.0000 0.0000 0.0000 0.0000 22.8015 0.0000
# 6 0.0000 0.0000 0.0000 0.0000 0.0000 135.7752
#
#
#
# Elastic Compliance Matrix: (Units=1/GPa)
#
#
# Indices 1 2 3 4 5 6 
#
# 1 0.011790 -0.001753 -0.001256 0.000000 0.000000 0.000000
# 2 -0.001753 0.006385 -0.001424 0.000000 0.000000 0.000000
# 3 -0.001256 -0.001424 0.015959 0.000000 0.000000 0.000000
# 4 0.000000 0.000000 0.000000 0.058536 0.000000 0.000000
# 5 0.000000 0.000000 0.000000 0.000000 0.043857 0.000000
# 6 0.000000 0.000000 0.000000 0.000000 0.000000 0.007365
#
#
# Mechanical properties :
#
#
# Convention : Reuss Voigt Hill
#
# Bulk Modulus (GPa) = 39.57886 47.68139 43.63012
# Shear Modulus (GPa) = 31.02070 53.07861 42.04965
#
# Velocity S-wave (km/s) = 3.67612 4.80865 4.28001
# Velocity P-wave (km/s) = 5.93806 7.18351 6.59027
#
# Compressibility (1/GPa) = 0.02526602
#
# Stress axis : x y z
#
# Youngs Moduli (GPa) = 84.81414 156.61456 62.66186
#
# Poissons Ratio (x) = 0.27459 0.07873
# Poissons Ratio (y) = 0.14870 0.08925
# Poissons Ratio (z) = 0.10656 0.22308
#
# Static dielectric constant tensor:
#      x y z
#    x 1.818130 0.000000 0.000000 
#    y 0.000000 1.977790 0.000000 
#    z 0.000000 0.000000 1.934640 
# 
# From -- ./inp_files/10378.got.cif
#   From: 2010.05.17/outbox.cif.g08.bks.cpg/sg67_6_cif.got.tgz:10378.got - 2010.06.03 18:28:57.
