data_PCOD9503622
_publ_section_title
;
Structure prediction by ZEFSAII (Michael W. Deem and Ramdas Pophale) SiO2 
 PCOD9503622
Probable space group: C M M A
;
_chemical_formula_sum "Si O2"
_cell_formula_units_Z 96
_cell_length_a 9.220012
_cell_length_b 27.803986
_cell_length_c 24.720506
_cell_angle_alpha 90.000000
_cell_angle_beta 90.000000
_cell_angle_gamma 90.000000
_cell_volume 6337.177965
_symmetry_space_group_name_H-M "C M M A"
_symmetry_group_IT_number 67
_symmetry_cell_setting 'orthorhombic'
loop_
_space_group_symop_operation_xyz
x,y,z
-x,1/2-y,z
x,-y,-z
-x,1/2+y,-z
-x,-y,-z
x,1/2+y,-z
-x,y,z
x,1/2-y,z
1/2+x,1/2+y,z
1/2-x,-y,z
1/2+x,1/2-y,-z
1/2-x,y,-z
1/2-x,1/2-y,-z
1/2+x,y,-z
1/2-x,1/2+y,z
1/2+x,-y,z
loop_
_atom_site_type_symbol
_atom_site_label
_atom_site_fract_x
_atom_site_fract_y
_atom_site_fract_z
Si Si1 0.176983 0.194476 0.827582
Si Si2 0.672457 0.949205 0.334374
Si Si3 0.828217 0.606481 0.554390
Si Si4 0.667400 0.808568 0.946515
Si Si5 0.173146 0.638849 0.279692
Si Si6 0.827661 0.194225 0.609328
O O1 0.222282 0.250000 0.819497
O O2 0.225506 0.177386 0.887173
O O3 0.219760 0.162039 0.777008
O O4 0.000000 0.194921 0.829074
O O5 0.500000 0.953089 0.326428
O O6 0.698140 0.929113 0.395202
O O7 0.740949 0.908988 0.295337
O O8 0.750000 0.000000 0.327269
O O9 0.750000 0.589907 0.500000
O O10 0.761453 0.657845 0.571979
O O11 0.000000 0.610612 0.546080
O O12 0.500000 0.823175 0.950476
O O13 0.670670 0.750000 0.946095
O O14 0.750000 0.824994 0.000000
O O15 0.195264 0.676721 0.328785
O O16 0.000000 0.629070 0.277652
O O17 0.788177 0.250000 0.602823
O O18 0.000000 0.189075 0.598156
#
# Coordination Sequence:
#
# PCOD9503622 Si02
#       6
#    16  16  16  16  16  16
#     4   8  13  22  39  63  89 119 154 186 214 248
#     4  10  21  36  52  69  88 110 136 170 216 264
#     4  10  21  35  50  68  89 112 140 174 210 252
#     4   8  13  21  33  51  79 116 155 189 216 243
#     4   9  16  28  47  68  89 113 144 181 217 255
#     4   9  17  29  46  67  90 117 147 177 210 249
#
# _framework density 15.148699000000001
#
# number of rings (size 3 to 8) (size 9 to 14) (size 15 to 20)
#    0.000    3.000    0.000    2.500    0.000    5.000 
#    0.000    2.500    0.000    2.500    0.000    0.000 
#    0.000    0.667    0.000    7.667    0.000    2.667 
#
# Total GULP energy -267393.180496 kJ/mol
# GULP energy per Si atom -5570.691260 kJ/mol
# Density = 1.511422 g / cm^3
# Si number density = 15.148699 Si / 1000 Ang^3
#
#
#
# Elastic Constant Matrix: (Units=GPa)
#
#
# Indices 1 2 3 4 5 6 
#
# 1 37.9800 32.7854 45.4330 0.0000 0.0000 0.0000
# 2 32.7854 75.0214 36.1451 0.0000 0.0000 0.0000
# 3 45.4330 36.1451 121.4919 0.0000 0.0000 0.0000
# 4 0.0000 0.0000 0.0000 8.0324 0.0000 0.0000
# 5 0.0000 0.0000 0.0000 0.0000 20.6778 0.0000
# 6 0.0000 0.0000 0.0000 0.0000 0.0000 16.8801
#
#
#
# Elastic Compliance Matrix: (Units=1/GPa)
#
#
# Indices 1 2 3 4 5 6 
#
# 1 0.065734 -0.019708 -0.018718 0.000000 0.000000 0.000000
# 2 -0.019708 0.021469 0.000983 0.000000 0.000000 0.000000
# 3 -0.018718 0.000983 0.014939 0.000000 0.000000 0.000000
# 4 0.000000 0.000000 0.000000 0.124495 0.000000 0.000000
# 5 0.000000 0.000000 0.000000 0.000000 0.048361 0.000000
# 6 0.000000 0.000000 0.000000 0.000000 0.000000 0.059241
#
#
# Mechanical properties :
#
#
# Convention : Reuss Voigt Hill
#
# Bulk Modulus (GPa) = 36.69221 51.46891 44.08056
# Shear Modulus (GPa) = 11.95568 17.12671 14.54120
#
# Velocity S-wave (km/s) = 2.81236 3.36605 3.10158
# Velocity P-wave (km/s) = 5.90083 7.01118 6.47983
#
# Compressibility (1/GPa) = 0.02725374
#
# Stress axis : x y z
#
# Youngs Moduli (GPa) = 15.21284 46.57931 66.94109
#
# Poissons Ratio (x) = 0.91800 1.25303
# Poissons Ratio (y) = 0.29982 -0.06580
# Poissons Ratio (z) = 0.28476 -0.04578
#
# Static dielectric constant tensor:
#      x y z
#    x 1.505250 0.000000 0.000000 
#    y 0.000000 1.470870 0.000000 
#    z 0.000000 0.000000 1.518610 
# 
# From -- ./inp_files/40790.got.cif
#   From: 2010.05.17/outbox.cif.g08.bks.cpg/sg67_21_cif.got.tgz:40790.got - 2010.06.03 18:28:57.
