data_PCOD9503460
_publ_section_title
;
Structure prediction by ZEFSAII (Michael W. Deem and Ramdas Pophale) SiO2 
 PCOD9503460
Probable space group: C M M A
;
_chemical_formula_sum "Si O2"
_cell_formula_units_Z 96
_cell_length_a 14.678622
_cell_length_b 15.889410
_cell_length_c 20.946594
_cell_angle_alpha 90.000000
_cell_angle_beta 90.000000
_cell_angle_gamma 90.000000
_cell_volume 4885.471378
_symmetry_space_group_name_H-M "C M M A"
_symmetry_group_IT_number 67
_symmetry_cell_setting 'orthorhombic'
loop_
_space_group_symop_operation_xyz
x,y,z
-x,1/2-y,z
x,-y,-z
-x,1/2+y,-z
-x,-y,-z
x,1/2+y,-z
-x,y,z
x,1/2-y,z
1/2+x,1/2+y,z
1/2-x,-y,z
1/2+x,1/2-y,-z
1/2-x,y,-z
1/2-x,1/2-y,-z
1/2+x,y,-z
1/2-x,1/2+y,z
1/2+x,-y,z
loop_
_atom_site_type_symbol
_atom_site_label
_atom_site_fract_x
_atom_site_fract_y
_atom_site_fract_z
Si Si1 0.761001 0.650497 0.399363
Si Si2 0.899709 0.750000 0.905437
Si Si3 0.253538 0.850561 0.745759
Si Si4 0.102322 0.400668 0.491278
Si Si5 0.390693 0.417679 0.837124
Si Si6 0.890946 0.891362 0.142230
Si Si7 0.842615 0.750000 0.040940
O O1 0.748642 0.750000 0.398161
O O2 0.774251 0.622726 0.326579
O O3 0.845464 0.632447 0.446054
O O4 0.670046 0.614771 0.432209
O O5 0.859845 0.838362 0.880987
O O6 0.000000 0.750000 0.875721
O O7 0.908627 0.750000 0.980820
O O8 0.232494 0.750000 0.747139
O O9 0.168107 0.902508 0.773671
O O10 0.337767 0.865838 0.793485
O O11 0.095825 0.500000 0.500000
O O12 0.000000 0.365979 0.483519
O O13 0.500000 0.415646 0.826340
O O14 0.371856 0.509138 0.867233
O O15 0.856819 0.831037 0.085547
O O16 0.000000 0.879959 0.148349
O O17 0.750000 0.750000 0.000000
#
# Coordination Sequence:
#
# PCOD9503460 Si02
#       7
#    16   8  16  16  16  16   8
#     4  10  22  37  59  89 118 157 205 255 304 363
#     4  10  20  38  62  86 118 156 198 249 303 361
#     4  11  22  39  62  88 123 164 208 256 315 371
#     4  10  21  38  59  84 120 161 200 251 312 367
#     4  10  22  40  64  92 125 166 210 261 315 369
#     4  11  24  42  64  92 128 167 209 259 313 371
#     4  12  24  40  64  90 122 164 205 251 307 368
#
# _framework density 19.650099999999998
#
# number of rings (size 3 to 8) (size 9 to 14) (size 15 to 20)
#    0.000    1.500    1.667    4.250    0.000    6.000 
#    0.000   10.000    0.000    0.000    0.000    0.000 
#    0.000    0.000    0.000    0.000    0.000    0.000 
#
# Total GULP energy -267803.127224 kJ/mol
# GULP energy per Si atom -5579.231817 kJ/mol
# Density = 1.960538 g / cm^3
# Si number density = 19.650100 Si / 1000 Ang^3
#
#
#
# Elastic Constant Matrix: (Units=GPa)
#
#
# Indices 1 2 3 4 5 6 
#
# 1 121.9652 26.0677 41.8580 0.0000 0.0000 0.0000
# 2 26.0677 113.0854 43.7351 0.0000 0.0000 0.0000
# 3 41.8580 43.7351 141.1781 0.0000 0.0000 0.0000
# 4 0.0000 0.0000 0.0000 3.7023 0.0000 0.0000
# 5 0.0000 0.0000 0.0000 0.0000 10.7760 0.0000
# 6 0.0000 0.0000 0.0000 0.0000 0.0000 52.9644
#
#
#
# Elastic Compliance Matrix: (Units=1/GPa)
#
#
# Indices 1 2 3 4 5 6 
#
# 1 0.009274 -0.001221 -0.002371 0.000000 0.000000 0.000000
# 2 -0.001221 0.010207 -0.002800 0.000000 0.000000 0.000000
# 3 -0.002371 -0.002800 0.008654 0.000000 0.000000 0.000000
# 4 0.000000 0.000000 0.000000 0.270101 0.000000 0.000000
# 5 0.000000 0.000000 0.000000 0.000000 0.092799 0.000000
# 6 0.000000 0.000000 0.000000 0.000000 0.000000 0.018881
#
#
# Mechanical properties :
#
#
# Convention : Reuss Voigt Hill
#
# Bulk Modulus (GPa) = 65.14496 66.61670 65.88083
# Shear Modulus (GPa) = 11.68725 31.12641 21.40683
#
# Velocity S-wave (km/s) = 2.44143 3.98431 3.30419
# Velocity P-wave (km/s) = 6.41653 7.42572 6.93950
#
# Compressibility (1/GPa) = 0.01535038
#
# Stress axis : x y z
#
# Youngs Moduli (GPa) = 107.83047 97.97028 115.55583
#
# Poissons Ratio (x) = 0.11958 0.27404
# Poissons Ratio (y) = 0.13162 0.32357
# Poissons Ratio (z) = 0.25572 0.27433
#
# Static dielectric constant tensor:
#      x y z
#    x -9.940390 0.000000 0.000000 
#    y 0.000000 1.721780 0.000000 
#    z 0.000000 0.000000 1.673740 
# 
# From -- ./inp_files/38551.got.cif
#   From: 2010.05.17/outbox.cif.g08.bks.cpg/sg67_20_cif.got.tgz:38551.got - 2010.06.03 18:28:57.
