data_PCOD9503359
_publ_section_title
;
Structure prediction by ZEFSAII (Michael W. Deem and Ramdas Pophale) SiO2 
 PCOD9503359
Probable space group: C M M A
;
_chemical_formula_sum "Si O2"
_cell_formula_units_Z 72
_cell_length_a 16.413893
_cell_length_b 9.053061
_cell_length_c 25.055085
_cell_angle_alpha 90.000000
_cell_angle_beta 90.000000
_cell_angle_gamma 90.000000
_cell_volume 3723.084774
_symmetry_space_group_name_H-M "C M M A"
_symmetry_group_IT_number 67
_symmetry_cell_setting 'orthorhombic'
loop_
_space_group_symop_operation_xyz
x,y,z
-x,1/2-y,z
x,-y,-z
-x,1/2+y,-z
-x,-y,-z
x,1/2+y,-z
-x,y,z
x,1/2-y,z
1/2+x,1/2+y,z
1/2-x,-y,z
1/2+x,1/2-y,-z
1/2-x,y,-z
1/2-x,1/2-y,-z
1/2+x,y,-z
1/2-x,1/2+y,z
1/2+x,-y,z
loop_
_atom_site_type_symbol
_atom_site_label
_atom_site_fract_x
_atom_site_fract_y
_atom_site_fract_z
Si Si1 0.906290 0.421546 0.767572
Si Si2 0.596359 0.573477 0.445899
Si Si3 0.000000 0.071354 0.941876
Si Si4 0.334618 0.071740 0.120987
Si Si5 0.664029 0.073311 0.668661
O O1 0.887274 0.250000 0.754941
O O2 0.851045 0.470024 0.817146
O O3 0.895458 0.517344 0.714819
O O4 0.000000 0.426320 0.785916
O O5 0.628601 0.500000 0.500000
O O6 0.500000 0.539050 0.441963
O O7 0.604636 0.750000 0.450419
O O8 0.637188 0.525383 0.390701
O O9 0.916219 0.028934 0.911437
O O10 0.000000 0.250000 0.945094
O O11 0.000000 0.000000 0.000000
O O12 0.328307 0.250000 0.118765
O O13 0.250000 0.000000 0.102350
O O14 0.668534 0.250000 0.669180
O O15 0.750000 0.000000 0.681157
#
# Coordination Sequence:
#
# PCOD9503359 Si02
#       5
#    16  16   8  16  16
#     4  10  20  37  61  86 115 153 193 236 293 355
#     4   9  19  36  56  76 101 136 180 230 284 342
#     4  10  22  42  64  88 124 164 203 248 297 348
#     4  10  21  39  62  89 123 161 200 248 299 351
#     4  11  23  37  53  79 114 148 186 236 289 344
#
# _framework density 19.338802999999999
#
# number of rings (size 3 to 8) (size 9 to 14) (size 15 to 20)
#    0.000    2.000    1.111    2.000    0.000    7.556 
#    0.000    6.667    0.000    0.000    0.000    0.000 
#    0.000    0.000    0.000    0.000    0.000    0.000 
#
# Total GULP energy -200973.218577 kJ/mol
# GULP energy per Si atom -5582.589405 kJ/mol
# Density = 1.929479 g / cm^3
# Si number density = 19.338803 Si / 1000 Ang^3
#
#
#
# Elastic Constant Matrix: (Units=GPa)
#
#
# Indices 1 2 3 4 5 6 
#
# 1 103.0820 25.2363 43.7387 0.0000 0.0000 0.0000
# 2 25.2363 23.8812 32.3699 0.0000 0.0000 0.0000
# 3 43.7387 32.3699 112.9207 0.0000 0.0000 0.0000
# 4 0.0000 0.0000 0.0000 32.9921 0.0000 0.0000
# 5 0.0000 0.0000 0.0000 0.0000 15.4300 0.0000
# 6 0.0000 0.0000 0.0000 0.0000 0.0000 26.2371
#
#
#
# Elastic Compliance Matrix: (Units=1/GPa)
#
#
# Indices 1 2 3 4 5 6 
#
# 1 0.013316 -0.011580 -0.001838 0.000000 0.000000 0.000000
# 2 -0.011580 0.078554 -0.018033 0.000000 0.000000 0.000000
# 3 -0.001838 -0.018033 0.014737 0.000000 0.000000 0.000000
# 4 0.000000 0.000000 0.000000 0.030310 0.000000 0.000000
# 5 0.000000 0.000000 0.000000 0.000000 0.064809 0.000000
# 6 0.000000 0.000000 0.000000 0.000000 0.000000 0.038114
#
#
# Mechanical properties :
#
#
# Convention : Reuss Voigt Hill
#
# Bulk Modulus (GPa) = 22.88087 49.17486 36.02786
# Shear Modulus (GPa) = 15.75746 24.16776 19.96261
#
# Velocity S-wave (km/s) = 2.85758 3.53895 3.21636
# Velocity P-wave (km/s) = 4.76917 6.49478 5.69768
#
# Compressibility (1/GPa) = 0.04370464
#
# Stress axis : x y z
#
# Youngs Moduli (GPa) = 75.09783 12.73017 67.85560
#
# Poissons Ratio (x) = 0.14741 0.12474
# Poissons Ratio (y) = 0.86961 1.22364
# Poissons Ratio (z) = 0.13806 0.22956
#
# Static dielectric constant tensor:
#      x y z
#    x 1.696600 0.000000 0.000000 
#    y 0.000000 1.649830 0.000000 
#    z 0.000000 0.000000 1.664630 
# 
# From -- ./inp_files/40502.got.cif
#   From: 2010.05.17/outbox.cif.g08.bks.cpg/sg67_21_cif.got.tgz:40502.got - 2010.06.03 18:28:57.
