data_PCOD9503167
_publ_section_title
;
Structure prediction by ZEFSAII (Michael W. Deem and Ramdas Pophale) SiO2 
 PCOD9503167
Probable space group: C M M A
;
_chemical_formula_sum "Si O2"
_cell_formula_units_Z 112
_cell_length_a 14.225748
_cell_length_b 23.304668
_cell_length_c 16.002132
_cell_angle_alpha 90.000000
_cell_angle_beta 90.000000
_cell_angle_gamma 90.000000
_cell_volume 5305.128161
_symmetry_space_group_name_H-M "C M M A"
_symmetry_group_IT_number 67
_symmetry_cell_setting 'orthorhombic'
loop_
_space_group_symop_operation_xyz
x,y,z
-x,1/2-y,z
x,-y,-z
-x,1/2+y,-z
-x,-y,-z
x,1/2+y,-z
-x,y,z
x,1/2-y,z
1/2+x,1/2+y,z
1/2-x,-y,z
1/2+x,1/2-y,-z
1/2-x,y,-z
1/2-x,1/2-y,-z
1/2+x,y,-z
1/2-x,1/2+y,z
1/2+x,-y,z
loop_
_atom_site_type_symbol
_atom_site_label
_atom_site_fract_x
_atom_site_fract_y
_atom_site_fract_z
Si Si1 0.761624 0.185896 0.766136
Si Si2 0.146127 0.440220 0.963073
Si Si3 0.886957 0.405608 0.285616
Si Si4 0.887811 0.530526 0.221560
Si Si5 0.612618 0.625994 0.641276
Si Si6 0.347839 0.685581 0.949370
Si Si7 0.885890 0.935399 0.524817
O O1 0.724027 0.250000 0.766056
O O2 0.675217 0.142704 0.757104
O O3 0.830123 0.175309 0.687384
O O4 0.821272 0.179250 0.851313
O O5 0.155089 0.449232 0.864359
O O6 0.105397 0.375505 0.975663
O O7 0.103666 0.500000 0.000000
O O8 0.250000 0.437424 0.000000
O O9 0.864380 0.465502 0.241385
O O10 0.859745 0.414899 0.382869
O O11 0.000000 0.395855 0.281163
O O12 0.866808 0.570645 0.300234
O O13 0.000000 0.534052 0.209664
O O14 0.500000 0.636122 0.642971
O O15 0.641351 0.608685 0.547969
O O16 0.390813 0.750000 0.960354
O O17 0.250000 0.687734 0.000000
O O18 0.000000 0.937599 0.524697
O O19 0.855657 0.000000 0.500000
#
# Coordination Sequence:
#
# PCOD9503167 Si02
#       7
#    16  16  16  16  16  16  16
#     4  11  24  40  62  85 115 161 207 247 289 354
#     4  10  21  32  55  85 114 152 190 236 296 356
#     4  10  22  38  60  88 121 156 199 251 301 354
#     4  10  20  36  58  89 121 150 191 249 305 357
#     4  10  20  37  62  90 122 151 191 248 302 360
#     4   9  19  37  57  81 112 152 199 242 290 353
#     4   9  16  34  59  87 122 157 192 241 306 366
#
# _framework density 21.111647999999999
#
# number of rings (size 3 to 8) (size 9 to 14) (size 15 to 20)
#    0.000    2.143    2.857    0.000    6.000    2.000 
#    0.000    2.143    0.000    3.857    0.000    4.000 
#    0.000    0.000    0.000    0.000    0.000    0.000 
#
# Total GULP energy -312624.592090 kJ/mol
# GULP energy per Si atom -5582.582002 kJ/mol
# Density = 2.106360 g / cm^3
# Si number density = 21.111648 Si / 1000 Ang^3
#
#
#
# Elastic Constant Matrix: (Units=GPa)
#
#
# Indices 1 2 3 4 5 6 
#
# 1 57.3434 32.9195 8.1141 0.0000 0.0000 0.0000
# 2 32.9195 149.2248 31.7723 0.0000 0.0000 0.0000
# 3 8.1141 31.7723 60.0003 0.0000 0.0000 0.0000
# 4 0.0000 0.0000 0.0000 19.2529 0.0000 0.0000
# 5 0.0000 0.0000 0.0000 0.0000 30.8901 0.0000
# 6 0.0000 0.0000 0.0000 0.0000 0.0000 -13.0941
#
#
#
# Elastic Compliance Matrix: (Units=1/GPa)
#
#
# Indices 1 2 3 4 5 6 
#
# 1 0.019977 -0.004319 -0.000415 0.000000 0.000000 0.000000
# 2 -0.004319 0.008486 -0.003910 0.000000 0.000000 0.000000
# 3 -0.000415 -0.003910 0.018793 0.000000 0.000000 0.000000
# 4 0.000000 0.000000 0.000000 0.051940 0.000000 0.000000
# 5 0.000000 0.000000 0.000000 0.000000 0.032373 0.000000
# 6 0.000000 0.000000 0.000000 0.000000 0.000000 -0.076371
#
#
# Mechanical properties :
#
#
# Convention : Reuss Voigt Hill
#
# Bulk Modulus (GPa) = 33.36683 45.79782 39.58232
# Shear Modulus (GPa) = 60.62445 20.32730 40.47588
#
# Velocity S-wave (km/s) = 5.36456 3.10635 4.38337
# Velocity P-wave (km/s) = 7.36278 5.88269 6.66396
#
# Compressibility (1/GPa) = 0.02996989
#
# Stress axis : x y z
#
# Youngs Moduli (GPa) = 50.05837 117.83457 53.21110
#
# Poissons Ratio (x) = 0.50888 0.02207
# Poissons Ratio (y) = 0.21618 0.20805
# Poissons Ratio (z) = 0.02076 0.46072
#
# Static dielectric constant tensor:
#      x y z
#    x 1.772850 0.000000 0.000000 
#    y 0.000000 1.796670 0.000000 
#    z 0.000000 0.000000 1.738930 
# 
# From -- ./inp_files/27590.got.cif
#   From: 2010.05.17/outbox.cif.g08.bks.cpg/sg67_14_cif.got.tgz:27590.got - 2010.06.03 18:28:57.
