data_PCOD9503333
_publ_section_title
;
Structure prediction by ZEFSAII (Michael W. Deem and Ramdas Pophale) SiO2 
 PCOD9503333
Probable space group: C M M A
;
_chemical_formula_sum "Si O2"
_cell_formula_units_Z 88
_cell_length_a 26.522010
_cell_length_b 14.912575
_cell_length_c 11.496312
_cell_angle_alpha 90.000000
_cell_angle_beta 90.000000
_cell_angle_gamma 90.000000
_cell_volume 4546.923181
_symmetry_space_group_name_H-M "C M M A"
_symmetry_group_IT_number 67
_symmetry_cell_setting 'orthorhombic'
loop_
_space_group_symop_operation_xyz
x,y,z
-x,1/2-y,z
x,-y,-z
-x,1/2+y,-z
-x,-y,-z
x,1/2+y,-z
-x,y,z
x,1/2-y,z
1/2+x,1/2+y,z
1/2-x,-y,z
1/2+x,1/2-y,-z
1/2-x,y,-z
1/2-x,1/2-y,-z
1/2+x,y,-z
1/2-x,1/2+y,z
1/2+x,-y,z
loop_
_atom_site_type_symbol
_atom_site_label
_atom_site_fract_x
_atom_site_fract_y
_atom_site_fract_z
Si Si1 0.619091 0.250000 0.574806
Si Si2 0.897691 0.938650 0.889318
Si Si3 0.559251 0.750000 0.184620
Si Si4 0.307893 0.394502 0.478252
Si Si5 0.940099 0.750000 0.333599
Si Si6 0.808064 0.855824 0.005528
Si Si7 0.131934 0.398782 0.757519
O O1 0.590907 0.250000 0.696381
O O2 0.655193 0.164031 0.558109
O O3 0.579969 0.250000 0.466758
O O4 0.926873 0.844388 0.878542
O O5 0.892980 0.003600 0.778333
O O6 0.840149 0.910206 0.913074
O O7 0.914808 0.000000 0.000000
O O8 0.500000 0.750000 0.207758
O O9 0.311326 0.500000 0.500000
O O10 0.250000 0.366833 0.500000
O O11 0.328889 0.384322 0.347545
O O12 0.914595 0.833898 0.269233
O O13 0.000000 0.750000 0.328865
O O14 0.810721 0.750000 0.980657
O O15 0.836961 0.873489 0.126651
O O16 0.750000 0.882731 0.000000
#
# Coordination Sequence:
#
# PCOD9503333 Si02
#       7
#     8  16   8  16   8  16  16
#     4  10  22  40  60  88 120 156 200 247 289 353
#     4  10  23  41  62  88 119 154 199 247 296 351
#     4  12  25  42  62  86 119 157 197 249 308 353
#     4  10  21  37  58  90 126 159 194 237 293 355
#     4  10  21  40  64  86 113 155 206 256 298 342
#     4  10  20  37  59  87 118 154 194 233 286 352
#     4  10  21  38  61  87 120 155 200 246 291 354
#
# _framework density 19.353746000000001
#
# number of rings (size 3 to 8) (size 9 to 14) (size 15 to 20)
#    0.000    1.818    1.818    1.636    0.000    8.727 
#    0.000    6.364    0.000    6.000    0.000    0.000 
#    0.000    0.000    0.000    0.000    0.000    0.000 
#
# Total GULP energy -245509.702067 kJ/mol
# GULP energy per Si atom -5579.765956 kJ/mol
# Density = 1.930970 g / cm^3
# Si number density = 19.353746 Si / 1000 Ang^3
#
#
#
# Elastic Constant Matrix: (Units=GPa)
#
#
# Indices 1 2 3 4 5 6 
#
# 1 159.3313 68.7306 47.4375 0.0000 0.0000 0.0000
# 2 68.7306 142.8196 44.3552 0.0000 0.0000 0.0000
# 3 47.4375 44.3552 56.8176 0.0000 0.0000 0.0000
# 4 0.0000 0.0000 0.0000 -404.9580 0.0000 0.0000
# 5 0.0000 0.0000 0.0000 0.0000 16.4358 0.0000
# 6 0.0000 0.0000 0.0000 0.0000 0.0000 -11.5899
#
#
#
# Elastic Compliance Matrix: (Units=1/GPa)
#
#
# Indices 1 2 3 4 5 6 
#
# 1 0.009055 -0.002653 -0.005489 0.000000 0.000000 0.000000
# 2 -0.002653 0.010020 -0.005607 0.000000 0.000000 0.000000
# 3 -0.005489 -0.005607 0.026560 0.000000 0.000000 0.000000
# 4 0.000000 0.000000 0.000000 -0.002469 0.000000 0.000000
# 5 0.000000 0.000000 0.000000 0.000000 0.060843 0.000000
# 6 0.000000 0.000000 0.000000 0.000000 0.000000 -0.086282
#
#
# Mechanical properties :
#
#
# Convention : Reuss Voigt Hill
#
# Bulk Modulus (GPa) = 55.13621 75.55722 65.34672
# Shear Modulus (GPa) = 97.52201 -66.79275 15.36463
#
# Velocity S-wave (km/s) = 7.10624 -5.88103 2.82065
# Velocity P-wave (km/s) = 9.79193 2.64394 6.66677
#
# Compressibility (1/GPa) = 0.01813690
#
# Stress axis : x y z
#
# Youngs Moduli (GPa) = 110.43850 99.80102 37.65018
#
# Poissons Ratio (x) = 0.26476 0.20666
# Poissons Ratio (y) = 0.29298 0.21111
# Poissons Ratio (z) = 0.60619 0.55961
#
# Static dielectric constant tensor:
#      x y z
#    x 1.636780 0.000000 0.000000 
#    y 0.000000 1.717460 0.000000 
#    z 0.000000 0.000000 1.703550 
# 
# From -- ./inp_files/21802.got.cif
#   From: 2010.05.17/outbox.cif.g08.bks.cpg/sg67_11_cif.got.tgz:21802.got - 2010.06.03 18:28:57.
