data_PCOD9503599
_publ_section_title
;
Structure prediction by ZEFSAII (Michael W. Deem and Ramdas Pophale) SiO2 
 PCOD9503599
Probable space group: C M M A
;
_chemical_formula_sum "Si O2"
_cell_formula_units_Z 80
_cell_length_a 23.095287
_cell_length_b 24.038857
_cell_length_c 9.158508
_cell_angle_alpha 90.000000
_cell_angle_beta 90.000000
_cell_angle_gamma 90.000000
_cell_volume 5084.659867
_symmetry_space_group_name_H-M "C M M A"
_symmetry_group_IT_number 67
_symmetry_cell_setting 'orthorhombic'
loop_
_space_group_symop_operation_xyz
x,y,z
-x,1/2-y,z
x,-y,-z
-x,1/2+y,-z
-x,-y,-z
x,1/2+y,-z
-x,y,z
x,1/2-y,z
1/2+x,1/2+y,z
1/2-x,-y,z
1/2+x,1/2-y,-z
1/2-x,y,-z
1/2-x,1/2-y,-z
1/2+x,y,-z
1/2-x,1/2+y,z
1/2+x,-y,z
loop_
_atom_site_type_symbol
_atom_site_label
_atom_site_fract_x
_atom_site_fract_y
_atom_site_fract_z
Si Si1 0.068855 0.933988 0.000000
Si Si2 0.250000 0.816946 0.674703
Si Si3 0.366141 0.154311 0.834011
Si Si4 0.633858 0.345689 0.165990
Si Si5 0.068868 0.750000 0.666737
Si Si6 0.431132 0.750000 0.666737
O O1 0.100918 0.903936 0.863522
O O2 0.000000 0.921285 1.000000
O O3 0.100918 0.903936 0.136478
O O4 0.076159 0.000000 0.000000
O O5 0.250000 0.750000 0.706342
O O6 0.250000 0.822935 0.500000
O O7 0.193412 0.844652 0.745811
O O8 0.306588 0.844652 0.745811
O O9 0.407947 0.196444 0.751027
O O10 0.354553 0.174850 0.000000
O O11 0.592053 0.303556 0.248973
O O12 0.091194 0.750000 0.500000
O O13 0.000000 0.750000 0.664412
O O14 0.500000 0.750000 0.664412
#
# Coordination Sequence:
#
# PCOD9503599 Si02
#       6
#    16  16  16  16   8   8
#     4   9  20  38  59  82 108 140 184 237 280 315
#     4  11  21  35  53  80 119 155 178 215 275 340
#     4  10  21  33  56  82 108 142 189 225 270 324
#     4  10  21  33  56  82 108 142 189 225 270 324
#     4  11  21  32  49  80 119 147 174 222 281 338
#     4  11  21  32  49  80 119 147 174 222 281 338
#
# _framework density 15.733599
#
# number of rings (size 3 to 8) (size 9 to 14) (size 15 to 20)
#    1.200    0.600    2.000    3.600    0.000    1.600 
#    0.000    2.000    0.000    6.000    0.000   14.000 
#    0.000    0.000    0.000    0.000    0.000    0.000 
#
# Total GULP energy -222706.548684 kJ/mol
# GULP energy per Si atom -5567.663717 kJ/mol
# Density = 1.569779 g / cm^3
# Si number density = 15.733599 Si / 1000 Ang^3
#
#
#
# Elastic Constant Matrix: (Units=GPa)
#
#
# Indices 1 2 3 4 5 6 
#
# 1 130.0075 66.9086 52.2178 0.0000 0.0000 0.0000
# 2 66.9086 110.9159 44.2725 0.0000 0.0000 0.0000
# 3 52.2178 44.2725 109.7263 0.0000 0.0000 0.0000
# 4 0.0000 0.0000 0.0000 -3.6727 0.0000 0.0000
# 5 0.0000 0.0000 0.0000 0.0000 31.5835 0.0000
# 6 0.0000 0.0000 0.0000 0.0000 0.0000 -63.2888
#
#
#
# Elastic Compliance Matrix: (Units=1/GPa)
#
#
# Indices 1 2 3 4 5 6 
#
# 1 0.012110 -0.005966 -0.003356 0.000000 0.000000 0.000000
# 2 -0.005966 0.013685 -0.002683 0.000000 0.000000 0.000000
# 3 -0.003356 -0.002683 0.011793 0.000000 0.000000 0.000000
# 4 0.000000 0.000000 0.000000 -0.272280 0.000000 0.000000
# 5 0.000000 0.000000 0.000000 0.000000 0.031662 0.000000
# 6 0.000000 0.000000 0.000000 0.000000 0.000000 -0.015801
#
#
# Mechanical properties :
#
#
# Convention : Reuss Voigt Hill
#
# Bulk Modulus (GPa) = 73.63976 75.27193 74.45584
# Shear Modulus (GPa) = -26.27502 5.40779 -10.43361
#
# Velocity S-wave (km/s) = -4.09099 1.85595 -2.57795
# Velocity P-wave (km/s) = 4.95891 7.24832 6.21003
#
# Compressibility (1/GPa) = 0.01357962
#
# Stress axis : x y z
#
# Youngs Moduli (GPa) = 82.57592 73.07059 84.79495
#
# Poissons Ratio (x) = 0.43591 0.28458
# Poissons Ratio (y) = 0.49262 0.22749
# Poissons Ratio (z) = 0.27713 0.19603
#
# Static dielectric constant tensor:
#      x y z
#    x 1.535520 0.000000 0.000000 
#    y 0.000000 1.500900 0.000000 
#    z 0.000000 0.000000 1.518900 
# 
# From -- ./inp_files/12737.got.cif
#   From: 2010.05.17/outbox.cif.g08.bks.cpg/sg67_7_cif.got.tgz:12737.got - 2010.06.03 18:28:57.
