data_PCOD9503228
_publ_section_title
;
Structure prediction by ZEFSAII (Michael W. Deem and Ramdas Pophale) SiO2 
 PCOD9503228
Probable space group: C M M A
;
_chemical_formula_sum "Si O2"
_cell_formula_units_Z 72
_cell_length_a 8.857492
_cell_length_b 14.906439
_cell_length_c 29.201613
_cell_angle_alpha 90.000000
_cell_angle_beta 90.000000
_cell_angle_gamma 90.000000
_cell_volume 3855.595965
_symmetry_space_group_name_H-M "C M M A"
_symmetry_group_IT_number 67
_symmetry_cell_setting 'orthorhombic'
loop_
_space_group_symop_operation_xyz
x,y,z
-x,1/2-y,z
x,-y,-z
-x,1/2+y,-z
-x,-y,-z
x,1/2+y,-z
-x,y,z
x,1/2-y,z
1/2+x,1/2+y,z
1/2-x,-y,z
1/2+x,1/2-y,-z
1/2-x,y,-z
1/2-x,1/2-y,-z
1/2+x,y,-z
1/2-x,1/2+y,z
1/2+x,-y,z
loop_
_atom_site_type_symbol
_atom_site_label
_atom_site_fract_x
_atom_site_fract_y
_atom_site_fract_z
Si Si1 0.672769 0.358640 0.047205
Si Si2 0.679529 0.406154 0.856567
Si Si3 0.680825 0.750000 0.449853
Si Si4 0.680416 0.750000 0.688468
Si Si5 0.317742 0.600303 0.375944
Si Si6 0.679618 0.750000 0.796950
O O1 0.500000 0.390909 0.050417
O O2 0.669477 0.250000 0.046640
O O3 0.765004 0.386517 0.091792
O O4 0.750000 0.388242 0.000000
O O5 0.500000 0.406406 0.855330
O O6 0.750000 0.500000 0.842791
O O7 0.746417 0.333724 0.822202
O O8 0.500000 0.750000 0.453340
O O9 0.750000 0.750000 0.500000
O O10 0.722594 0.838900 0.420558
O O11 0.500000 0.750000 0.679980
O O12 0.753382 0.838339 0.665312
O O13 0.706269 0.750000 0.742761
O O14 0.500000 0.595549 0.372929
O O15 0.250000 0.500000 0.376982
O O16 0.500000 0.750000 0.805121
#
# Coordination Sequence:
#
# PCOD9503228 Si02
#       6
#    16  16   8   8  16   8
#     4  10  20  36  60  87 119 153 191 236 284 342
#     4  12  25  41  63  89 119 155 195 237 290 349
#     4   9  20  36  55  84 122 165 208 253 299 352
#     4  10  22  40  64  89 116 153 195 245 303 359
#     4  10  21  38  60  88 122 159 204 252 301 354
#     4  11  24  44  65  89 120 152 192 242 298 357
#
# _framework density 18.674154999999999
#
# number of rings (size 3 to 8) (size 9 to 14) (size 15 to 20)
#    0.000    1.556    1.111    4.667    0.000    7.111 
#    0.000    4.444    0.000    0.000    0.000    0.000 
#    0.000    0.000    0.000    0.000    0.000    0.000 
#
# Total GULP energy -201200.125578 kJ/mol
# GULP energy per Si atom -5588.892377 kJ/mol
# Density = 1.863165 g / cm^3
# Si number density = 18.674155 Si / 1000 Ang^3
#
#
#
# Elastic Constant Matrix: (Units=GPa)
#
#
# Indices 1 2 3 4 5 6 
#
# 1 159.1706 85.0273 101.9632 0.0000 0.0000 0.0000
# 2 85.0273 174.9105 92.6724 0.0000 0.0000 0.0000
# 3 101.9632 92.6724 149.8132 0.0000 0.0000 0.0000
# 4 0.0000 0.0000 0.0000 23.8768 0.0000 0.0000
# 5 0.0000 0.0000 0.0000 0.0000 32.9234 0.0000
# 6 0.0000 0.0000 0.0000 0.0000 0.0000 32.9422
#
#
#
# Elastic Compliance Matrix: (Units=1/GPa)
#
#
# Indices 1 2 3 4 5 6 
#
# 1 0.011672 -0.002179 -0.006596 0.000000 0.000000 0.000000
# 2 -0.002179 0.008911 -0.004029 0.000000 0.000000 0.000000
# 3 -0.006596 -0.004029 0.013657 0.000000 0.000000 0.000000
# 4 0.000000 0.000000 0.000000 0.041882 0.000000 0.000000
# 5 0.000000 0.000000 0.000000 0.000000 0.030374 0.000000
# 6 0.000000 0.000000 0.000000 0.000000 0.000000 0.030356
#
#
# Mechanical properties :
#
#
# Convention : Reuss Voigt Hill
#
# Bulk Modulus (GPa) = 115.85974 115.91333 115.88654
# Shear Modulus (GPa) = 30.24120 31.56390 30.90255
#
# Velocity S-wave (km/s) = 4.02856 4.11572 4.07237
# Velocity P-wave (km/s) = 9.15514 9.20825 9.18173
#
# Compressibility (1/GPa) = 0.00863113
#
# Stress axis : x y z
#
# Youngs Moduli (GPa) = 85.67519 112.21568 73.22462
#
# Poissons Ratio (x) = 0.24455 0.48298
# Poissons Ratio (y) = 0.18671 0.29504
# Poissons Ratio (z) = 0.56511 0.45215
#
# Static dielectric constant tensor:
#      x y z
#    x 1.625290 0.000000 0.000000 
#    y 0.000000 1.637550 0.000000 
#    z 0.000000 0.000000 1.618190 
# 
# From -- ./inp_files/43163.got.cif
#   From: 2010.05.17/outbox.cif.g08.bks.cpg/sg67_22_cif.got.tgz:43163.got - 2010.06.03 18:28:57.
