data_PCOD9503936
_publ_section_title
;
Structure prediction by ZEFSAII (Michael W. Deem and Ramdas Pophale) SiO2 
 PCOD9503936
Probable space group: C M M A
;
_chemical_formula_sum "Si O2"
_cell_formula_units_Z 56
_cell_length_a 16.713474
_cell_length_b 21.603875
_cell_length_c 7.730921
_cell_angle_alpha 90.000000
_cell_angle_beta 90.000000
_cell_angle_gamma 90.000000
_cell_volume 2791.448509
_symmetry_space_group_name_H-M "C M M A"
_symmetry_group_IT_number 67
_symmetry_cell_setting 'orthorhombic'
loop_
_space_group_symop_operation_xyz
x,y,z
-x,1/2-y,z
x,-y,-z
-x,1/2+y,-z
-x,-y,-z
x,1/2+y,-z
-x,y,z
x,1/2-y,z
1/2+x,1/2+y,z
1/2-x,-y,z
1/2+x,1/2-y,-z
1/2-x,y,-z
1/2-x,1/2-y,-z
1/2+x,y,-z
1/2-x,1/2+y,z
1/2+x,-y,z
loop_
_atom_site_type_symbol
_atom_site_label
_atom_site_fract_x
_atom_site_fract_y
_atom_site_fract_z
Si Si1 0.591632 0.932068 0.988105
Si Si2 0.587654 0.070094 0.426502
Si Si3 0.316900 0.816578 0.146359
Si Si4 0.750000 0.641527 0.500000
O O1 0.500000 0.937574 0.052018
O O2 0.589116 0.922210 0.781730
O O3 0.631870 0.877268 0.096849
O O4 0.631430 0.000000 0.000000
O O5 0.500000 0.095432 0.483723
O O6 0.669077 0.101998 0.483524
O O7 0.589924 0.000000 0.500000
O O8 0.361264 0.750000 0.143465
O O9 0.269102 0.821732 0.325835
O O10 0.250000 0.815273 0.000000
#
# Coordination Sequence:
#
# PCOD9503936 Si02
#       4
#    16  16  16   8
#     4  10  21  40  65  93 129 170 216 275 331 387
#     4  10  21  37  59  95 134 167 216 276 328 390
#     4  11  24  42  63  92 128 168 215 268 323 390
#     4  12  22  40  66  92 126 179 215 268 333 392
#
# _framework density 20.061267999999998
#
# number of rings (size 3 to 8) (size 9 to 14) (size 15 to 20)
#    0.000    1.429    2.857    2.571    0.000    4.571 
#    0.000    0.000    0.000    2.571    0.000    0.000 
#    0.000    0.000    0.000    0.000    0.000    0.000 
#
# Total GULP energy -155993.498820 kJ/mol
# GULP energy per Si atom -5571.196386 kJ/mol
# Density = 2.001561 g / cm^3
# Si number density = 20.061268 Si / 1000 Ang^3
#
#
#
# Elastic Constant Matrix: (Units=GPa)
#
#
# Indices 1 2 3 4 5 6 
#
# 1 114.0526 66.2470 29.8684 0.0000 0.0000 0.0000
# 2 66.2470 153.8869 42.2712 0.0000 0.0000 0.0000
# 3 29.8684 42.2712 123.6693 0.0000 0.0000 0.0000
# 4 0.0000 0.0000 0.0000 92.4793 0.0000 0.0000
# 5 0.0000 0.0000 0.0000 0.0000 7.7545 0.0000
# 6 0.0000 0.0000 0.0000 0.0000 0.0000 73.5553
#
#
#
# Elastic Compliance Matrix: (Units=1/GPa)
#
#
# Indices 1 2 3 4 5 6 
#
# 1 0.011860 -0.004766 -0.001235 0.000000 0.000000 0.000000
# 2 -0.004766 0.009087 -0.001955 0.000000 0.000000 0.000000
# 3 -0.001235 -0.001955 0.009053 0.000000 0.000000 0.000000
# 4 0.000000 0.000000 0.000000 0.010813 0.000000 0.000000
# 5 0.000000 0.000000 0.000000 0.000000 0.128957 0.000000
# 6 0.000000 0.000000 0.000000 0.000000 0.000000 0.013595
#
#
# Mechanical properties :
#
#
# Convention : Reuss Voigt Hill
#
# Bulk Modulus (GPa) = 70.98857 74.26468 72.62663
# Shear Modulus (GPa) = 24.51296 51.63930 38.07613
#
# Velocity S-wave (km/s) = 3.49937 5.07904 4.36132
# Velocity P-wave (km/s) = 7.19654 8.45546 7.85127
#
# Compressibility (1/GPa) = 0.01408677
#
# Stress axis : x y z
#
# Youngs Moduli (GPa) = 84.31832 110.04607 110.46528
#
# Poissons Ratio (x) = 0.52451 0.13645
# Poissons Ratio (y) = 0.40188 0.21595
# Poissons Ratio (z) = 0.10415 0.21513
#
# Static dielectric constant tensor:
#      x y z
#    x 1.704330 0.000000 0.000000 
#    y 0.000000 1.775370 0.000000 
#    z 0.000000 0.000000 1.734920 
# 
# From -- ./inp_files/9083.got.cif
#   From: 2010.05.17/outbox.cif.g08.bks.cpg/sg67_5_cif.got.tgz:9083.got - 2010.06.03 18:28:57.
