data_PCOD9503102
_publ_section_title
;
Structure prediction by ZEFSAII (Michael W. Deem and Ramdas Pophale) SiO2 
 PCOD9503102
Probable space group: C M M A
;
_chemical_formula_sum "Si O2"
_cell_formula_units_Z 80
_cell_length_a 7.492786
_cell_length_b 16.161466
_cell_length_c 30.168316
_cell_angle_alpha 90.000000
_cell_angle_beta 90.000000
_cell_angle_gamma 90.000000
_cell_volume 3653.214312
_symmetry_space_group_name_H-M "C M M A"
_symmetry_group_IT_number 67
_symmetry_cell_setting 'orthorhombic'
loop_
_space_group_symop_operation_xyz
x,y,z
-x,1/2-y,z
x,-y,-z
-x,1/2+y,-z
-x,-y,-z
x,1/2+y,-z
-x,y,z
x,1/2-y,z
1/2+x,1/2+y,z
1/2-x,-y,z
1/2+x,1/2-y,-z
1/2-x,y,-z
1/2-x,1/2-y,-z
1/2+x,y,-z
1/2-x,1/2+y,z
1/2+x,-y,z
loop_
_atom_site_type_symbol
_atom_site_label
_atom_site_fract_x
_atom_site_fract_y
_atom_site_fract_z
Si Si1 0.283723 0.655849 0.803608
Si Si2 0.785889 0.250000 0.948002
Si Si3 0.713211 0.097105 0.290574
Si Si4 0.786473 0.590935 0.105378
Si Si5 0.285576 0.902675 0.610654
Si Si6 0.213930 0.750000 0.447968
O O1 0.500000 0.647255 0.801140
O O2 0.245340 0.750000 0.816326
O O3 0.215954 0.638627 0.754109
O O4 0.218473 0.599431 0.843935
O O5 0.718150 0.333170 0.924106
O O6 0.000000 0.250000 0.942533
O O7 0.750000 0.250000 0.000000
O O8 0.500000 0.111982 0.291731
O O9 0.781575 0.118933 0.339648
O O10 0.750000 0.000000 0.285533
O O11 0.750000 0.500000 0.087345
O O12 0.000000 0.599795 0.107736
O O13 0.500000 0.896666 0.611840
O O14 0.219728 0.834049 0.575957
O O15 0.250000 0.000000 0.601207
O O16 0.250000 0.750000 0.500000
O O17 0.000000 0.750000 0.442699
#
# Coordination Sequence:
#
# PCOD9503102 Si02
#       6
#    16   8  16  16  16   8
#     4   9  16  28  50  78 106 139 176 210 249 303
#     4  10  22  40  59  79 107 139 176 222 269 318
#     4   9  17  29  49  75 103 135 170 207 249 301
#     4  10  20  36  57  81 109 141 177 217 261 311
#     4   9  19  35  54  78 107 137 172 214 259 309
#     4  10  22  38  55  77 103 133 174 220 265 314
#
# _framework density 21.898523999999998
#
# number of rings (size 3 to 8) (size 9 to 14) (size 15 to 20)
#    0.000    2.600    1.000    0.600    1.400    2.400 
#    0.000    4.000    0.000    1.800    0.000    0.000 
#    0.000    0.000    0.000    0.000    0.000    0.000 
#
# Total GULP energy -223199.574595 kJ/mol
# GULP energy per Si atom -5579.989365 kJ/mol
# Density = 2.184868 g / cm^3
# Si number density = 21.898524 Si / 1000 Ang^3
#
#
#
# Elastic Constant Matrix: (Units=GPa)
#
#
# Indices 1 2 3 4 5 6 
#
# 1 62.9287 1.1999 6.0434 0.0000 0.0000 0.0000
# 2 1.1999 152.0584 108.6990 0.0000 0.0000 0.0000
# 3 6.0434 108.6990 164.2366 0.0000 0.0000 0.0000
# 4 0.0000 0.0000 0.0000 19.7367 0.0000 0.0000
# 5 0.0000 0.0000 0.0000 0.0000 11.1958 0.0000
# 6 0.0000 0.0000 0.0000 0.0000 0.0000 18.7045
#
#
#
# Elastic Compliance Matrix: (Units=1/GPa)
#
#
# Indices 1 2 3 4 5 6 
#
# 1 0.015972 0.000558 -0.000957 0.000000 0.000000 0.000000
# 2 0.000558 0.012501 -0.008294 0.000000 0.000000 0.000000
# 3 -0.000957 -0.008294 0.011614 0.000000 0.000000 0.000000
# 4 0.000000 0.000000 0.000000 0.050667 0.000000 0.000000
# 5 0.000000 0.000000 0.000000 0.000000 0.089319 0.000000
# 6 0.000000 0.000000 0.000000 0.000000 0.000000 0.053463
#
#
# Mechanical properties :
#
#
# Convention : Reuss Voigt Hill
#
# Bulk Modulus (GPa) = 44.05215 67.90092 55.97653
# Shear Modulus (GPa) = 19.34311 27.47950 23.41131
#
# Velocity S-wave (km/s) = 2.97527 3.54624 3.27323
# Velocity P-wave (km/s) = 5.65360 6.91680 6.31685
#
# Compressibility (1/GPa) = 0.02270037
#
# Stress axis : x y z
#
# Youngs Moduli (GPa) = 62.60848 79.99165 86.10572
#
# Poissons Ratio (x) = -0.04465 0.08242
# Poissons Ratio (y) = -0.03495 0.71420
# Poissons Ratio (z) = 0.05993 0.66349
#
# Static dielectric constant tensor:
#      x y z
#    x 1.885560 0.000000 0.000000 
#    y 0.000000 1.782770 0.000000 
#    z 0.000000 0.000000 1.800090 
# 
# From -- ./inp_files/43376.got.cif
#   From: 2010.05.17/outbox.cif.g08.bks.cpg/sg67_22_cif.got.tgz:43376.got - 2010.06.03 18:28:57.
