data_PCOD9503002
_publ_section_title
;
Structure prediction by ZEFSAII (Michael W. Deem and Ramdas Pophale) SiO2 
 PCOD9503002
Probable space group: C M M A
;
_chemical_formula_sum "Si O2"
_cell_formula_units_Z 96
_cell_length_a 21.216937
_cell_length_b 20.604278
_cell_length_c 9.885173
_cell_angle_alpha 90.000000
_cell_angle_beta 90.000000
_cell_angle_gamma 90.000000
_cell_volume 4321.398949
_symmetry_space_group_name_H-M "C M M A"
_symmetry_group_IT_number 67
_symmetry_cell_setting 'orthorhombic'
loop_
_space_group_symop_operation_xyz
x,y,z
-x,1/2-y,z
x,-y,-z
-x,1/2+y,-z
-x,-y,-z
x,1/2+y,-z
-x,y,z
x,1/2-y,z
1/2+x,1/2+y,z
1/2-x,-y,z
1/2+x,1/2-y,-z
1/2-x,y,-z
1/2-x,1/2-y,-z
1/2+x,y,-z
1/2-x,1/2+y,z
1/2+x,-y,z
loop_
_atom_site_type_symbol
_atom_site_label
_atom_site_fract_x
_atom_site_fract_y
_atom_site_fract_z
Si Si1 0.733602 0.900632 0.655272
Si Si2 0.850567 0.021649 0.278184
Si Si3 0.879947 0.823940 0.311054
Si Si4 0.425645 0.629846 0.403978
Si Si5 0.923939 0.678990 0.893826
Si Si6 0.926796 0.073990 0.895087
O O1 0.750000 0.886022 0.500000
O O2 0.794687 0.925094 0.737246
O O3 0.692854 0.842683 0.717468
O O4 0.685778 0.961770 0.652642
O O5 0.901420 0.057528 0.371317
O O6 0.885860 0.987690 0.152262
O O7 0.894781 0.750000 0.279592
O O8 0.891719 0.838366 0.468908
O O9 0.921829 0.874185 0.227198
O O10 0.500000 0.630277 0.428802
O O11 0.412884 0.668202 0.264745
O O12 0.900155 0.750000 0.936574
O O13 0.000000 0.679072 0.912344
O O14 0.901847 0.617173 0.979742
O O15 0.000000 0.056476 0.913731
#
# Coordination Sequence:
#
# PCOD9503002 Si02
#       6
#    16  16  16  16  16  16
#     4  10  20  38  60  81 112 156 198 247 298 353
#     4  10  20  35  58  85 114 149 198 250 295 352
#     4  11  23  37  58  90 119 151 201 255 297 347
#     4  11  22  35  57  90 126 159 193 246 305 358
#     4   9  19  37  57  80 120 170 203 228 286 367
#     4  10  21  36  60  89 119 159 196 241 300 360
#
# _framework density 22.215029000000001
#
# number of rings (size 3 to 8) (size 9 to 14) (size 15 to 20)
#    0.000    1.833    1.667    3.000    2.333    3.667 
#    0.000    5.000    0.000   17.000    0.000   11.667 
#    0.000    0.000    0.000    0.000    0.000    0.000 
#
# Total GULP energy -268125.036571 kJ/mol
# GULP energy per Si atom -5585.938262 kJ/mol
# Density = 2.216447 g / cm^3
# Si number density = 22.215029 Si / 1000 Ang^3
#
#
#
# Elastic Constant Matrix: (Units=GPa)
#
#
# Indices 1 2 3 4 5 6 
#
# 1 88.7454 40.8273 23.2866 0.0000 0.0000 0.0000
# 2 40.8273 120.7393 40.6948 0.0000 0.0000 0.0000
# 3 23.2866 40.6948 91.9899 0.0000 0.0000 0.0000
# 4 0.0000 0.0000 0.0000 10.1140 0.0000 0.0000
# 5 0.0000 0.0000 0.0000 0.0000 1.4383 0.0000
# 6 0.0000 0.0000 0.0000 0.0000 0.0000 7.6265
#
#
#
# Elastic Compliance Matrix: (Units=1/GPa)
#
#
# Indices 1 2 3 4 5 6 
#
# 1 0.013554 -0.004027 -0.001649 0.000000 0.000000 0.000000
# 2 -0.004027 0.010930 -0.003816 0.000000 0.000000 0.000000
# 3 -0.001649 -0.003816 0.012976 0.000000 0.000000 0.000000
# 4 0.000000 0.000000 0.000000 0.098873 0.000000 0.000000
# 5 0.000000 0.000000 0.000000 0.000000 0.695252 0.000000
# 6 0.000000 0.000000 0.000000 0.000000 0.000000 0.131123
#
#
# Mechanical properties :
#
#
# Convention : Reuss Voigt Hill
#
# Bulk Modulus (GPa) = 54.12645 56.78799 55.45722
# Shear Modulus (GPa) = 5.06149 16.94682 11.00415
#
# Velocity S-wave (km/s) = 1.51108 2.76498 2.22805
# Velocity P-wave (km/s) = 5.24043 5.98430 5.62468
#
# Compressibility (1/GPa) = 0.01847526
#
# Stress axis : x y z
#
# Youngs Moduli (GPa) = 73.78053 91.48965 77.06298
#
# Poissons Ratio (x) = 0.36844 0.12711
# Poissons Ratio (y) = 0.29713 0.29406
# Poissons Ratio (z) = 0.12170 0.34911
#
# Static dielectric constant tensor:
#      x y z
#    x 1.820970 0.000000 0.000000 
#    y 0.000000 1.838360 0.000000 
#    z 0.000000 0.000000 1.831360 
# 
# From -- ./inp_files/21920.got.cif
#   From: 2010.05.17/outbox.cif.g08.bks.cpg/sg67_11_cif.got.tgz:21920.got - 2010.06.03 18:28:57.
