data_PCOD9503943
_publ_section_title
;
Structure prediction by ZEFSAII (Michael W. Deem and Ramdas Pophale) SiO2 
 PCOD9503943
Probable space group: C M M A
;
_chemical_formula_sum "Si O2"
_cell_formula_units_Z 96
_cell_length_a 25.812446
_cell_length_b 17.399649
_cell_length_c 10.958784
_cell_angle_alpha 90.000000
_cell_angle_beta 90.000000
_cell_angle_gamma 90.000000
_cell_volume 4921.891263
_symmetry_space_group_name_H-M "C M M A"
_symmetry_group_IT_number 67
_symmetry_cell_setting 'orthorhombic'
loop_
_space_group_symop_operation_xyz
x,y,z
-x,1/2-y,z
x,-y,-z
-x,1/2+y,-z
-x,-y,-z
x,1/2+y,-z
-x,y,z
x,1/2-y,z
1/2+x,1/2+y,z
1/2-x,-y,z
1/2+x,1/2-y,-z
1/2-x,y,-z
1/2-x,1/2-y,-z
1/2+x,y,-z
1/2-x,1/2+y,z
1/2+x,-y,z
loop_
_atom_site_type_symbol
_atom_site_label
_atom_site_fract_x
_atom_site_fract_y
_atom_site_fract_z
Si Si1 0.303664 0.031614 0.771744
Si Si2 0.060854 0.441618 0.827236
Si Si3 0.892169 0.591432 0.907867
Si Si4 0.650341 0.118915 0.329794
Si Si5 0.666793 0.250000 0.901247
Si Si6 0.804451 0.338025 0.427974
Si Si7 0.789870 0.750000 0.176615
O O1 0.338770 0.046418 0.887651
O O2 0.302360 0.105919 0.686124
O O3 0.250000 0.000000 0.815873
O O4 0.325337 0.964947 0.685360
O O5 0.071905 0.534632 0.824196
O O6 0.094061 0.393158 0.729772
O O7 0.000000 0.428606 0.818643
O O8 0.082570 0.413828 0.959148
O O9 0.871469 0.676959 0.877688
O O10 0.652650 0.141999 0.470638
O O11 0.686940 0.177556 0.252724
O O12 0.726857 0.250000 0.845250
O O13 0.682272 0.250000 0.045112
O O14 0.811723 0.250000 0.392034
O O15 0.750000 0.344746 0.500000
#
# Coordination Sequence:
#
# PCOD9503943 Si02
#       7
#    16  16  16  16   8  16   8
#     4  11  22  36  57  86 128 169 207 238 302 390
#     4  10  22  44  66  87 116 160 218 275 316 355
#     4  10  21  37  60  88 123 160 205 259 313 383
#     4  11  21  39  61  88 122 164 213 252 309 374
#     4  11  22  34  57  88 135 166 191 248 326 388
#     4  11  23  36  59  88 126 167 201 251 309 371
#     4  11  22  38  54  89 138 163 201 253 308 393
#
# _framework density 19.504698999999999
#
# number of rings (size 3 to 8) (size 9 to 14) (size 15 to 20)
#    0.000    1.333    4.167    2.500    1.167    0.000 
#    0.000    3.750    0.000    9.000    0.000    0.000 
#    0.000    0.000    0.000    0.000    0.000    0.000 
#
# Total GULP energy -267454.566691 kJ/mol
# GULP energy per Si atom -5571.970139 kJ/mol
# Density = 1.946031 g / cm^3
# Si number density = 19.504699 Si / 1000 Ang^3
#
#
#
# Elastic Constant Matrix: (Units=GPa)
#
#
# Indices 1 2 3 4 5 6 
#
# 1 145.8641 41.7187 40.9481 0.0000 0.0000 0.0000
# 2 41.7187 134.7126 24.9023 0.0000 0.0000 0.0000
# 3 40.9481 24.9023 50.0188 0.0000 0.0000 0.0000
# 4 0.0000 0.0000 0.0000 86.9088 0.0000 0.0000
# 5 0.0000 0.0000 0.0000 0.0000 7.9411 0.0000
# 6 0.0000 0.0000 0.0000 0.0000 0.0000 10.7103
#
#
#
# Elastic Compliance Matrix: (Units=1/GPa)
#
#
# Indices 1 2 3 4 5 6 
#
# 1 0.009206 -0.001606 -0.006737 0.000000 0.000000 0.000000
# 2 -0.001606 0.008456 -0.002895 0.000000 0.000000 0.000000
# 3 -0.006737 -0.002895 0.026950 0.000000 0.000000 0.000000
# 4 0.000000 0.000000 0.000000 0.011506 0.000000 0.000000
# 5 0.000000 0.000000 0.000000 0.000000 0.125927 0.000000
# 6 0.000000 0.000000 0.000000 0.000000 0.000000 0.093368
#
#
# Mechanical properties :
#
#
# Convention : Reuss Voigt Hill
#
# Bulk Modulus (GPa) = 45.17753 60.63708 52.90730
# Shear Modulus (GPa) = 16.37904 35.98047 26.17976
#
# Velocity S-wave (km/s) = 2.90099 4.29967 3.66762
# Velocity P-wave (km/s) = 5.86802 7.47030 6.71711
#
# Compressibility (1/GPa) = 0.02213490
#
# Stress axis : x y z
#
# Youngs Moduli (GPa) = 108.62123 118.26410 37.10637
#
# Poissons Ratio (x) = 0.18989 0.25000
# Poissons Ratio (y) = 0.17440 0.10743
# Poissons Ratio (z) = 0.73183 0.34241
#
# Static dielectric constant tensor:
#      x y z
#    x 1.710590 0.000000 0.000000 
#    y 0.000000 1.772490 0.000000 
#    z 0.000000 0.000000 1.694870 
# 
# From -- ./inp_files/22002.got.cif
#   From: 2010.05.17/outbox.cif.g08.bks.cpg/sg67_12_cif.got.tgz:22002.got - 2010.06.03 18:28:57.
