data_PCOD9503419
_publ_section_title
;
Structure prediction by ZEFSAII (Michael W. Deem and Ramdas Pophale) SiO2 
 PCOD9503419
Probable space group: C M M A
;
_chemical_formula_sum "Si O2"
_cell_formula_units_Z 60
_cell_length_a 15.660756
_cell_length_b 18.633561
_cell_length_c 11.300779
_cell_angle_alpha 90.000000
_cell_angle_beta 90.000000
_cell_angle_gamma 90.000000
_cell_volume 3297.744195
_symmetry_space_group_name_H-M "C M M A"
_symmetry_group_IT_number 67
_symmetry_cell_setting 'orthorhombic'
loop_
_space_group_symop_operation_xyz
x,y,z
-x,1/2-y,z
x,-y,-z
-x,1/2+y,-z
-x,-y,-z
x,1/2+y,-z
-x,y,z
x,1/2-y,z
1/2+x,1/2+y,z
1/2-x,-y,z
1/2+x,1/2-y,-z
1/2-x,y,-z
1/2-x,1/2-y,-z
1/2+x,y,-z
1/2-x,1/2+y,z
1/2+x,-y,z
loop_
_atom_site_type_symbol
_atom_site_label
_atom_site_fract_x
_atom_site_fract_y
_atom_site_fract_z
Si Si1 0.343782 0.377982 0.346559
Si Si2 0.500000 0.250000 0.963159
Si Si3 0.500000 0.984644 0.642597
Si Si4 0.000000 0.138222 0.242167
Si Si5 0.596586 0.750000 0.806466
Si Si6 0.167079 0.169052 0.388309
O O1 0.412687 0.440759 0.333163
O O2 0.359722 0.320656 0.243575
O O3 0.241090 0.387588 0.353362
O O4 0.361074 0.344954 0.477014
O O5 0.500000 0.321879 0.884071
O O6 0.580381 0.250000 0.053248
O O7 0.500000 0.000000 0.500000
O O8 0.500000 0.053474 0.728646
O O9 0.085373 0.164495 0.306735
O O10 0.500000 0.750000 0.754715
O O11 0.202977 0.250000 0.380181
#
# Coordination Sequence:
#
# PCOD9503419 Si02
#       6
#    16   4   8   8   8  16
#     4  11  20  36  59  96 120 151 205 249 310 381
#     4  10  24  40  64  84 112 176 218 274 294 356
#     4  12  23  36  58  91 129 171 182 238 323 392
#     4  12  24  40  54  84 132 160 205 245 321 366
#     4  10  20  37  65  85 113 155 217 255 303 347
#     4  11  20  34  64  92 126 153 196 262 317 362
#
# _framework density 18.194254999999998
#
# number of rings (size 3 to 8) (size 9 to 14) (size 15 to 20)
#    0.400    0.533    8.000    0.800    0.000    1.067 
#    0.000    5.333    0.000    0.000    0.000    7.467 
#    0.000    0.000    0.000    0.000    0.000    0.000 
#
# Total GULP energy -167095.640253 kJ/mol
# GULP energy per Si atom -5569.854675 kJ/mol
# Density = 1.815284 g / cm^3
# Si number density = 18.194255 Si / 1000 Ang^3
#
#
#
# Elastic Constant Matrix: (Units=GPa)
#
#
# Indices 1 2 3 4 5 6 
#
# 1 92.4923 43.7611 45.6821 0.0000 0.0000 0.0000
# 2 43.7611 113.7439 46.5188 0.0000 0.0000 0.0000
# 3 45.6821 46.5188 124.4243 0.0000 0.0000 0.0000
# 4 0.0000 0.0000 0.0000 10.4369 0.0000 0.0000
# 5 0.0000 0.0000 0.0000 0.0000 17.1051 0.0000
# 6 0.0000 0.0000 0.0000 0.0000 0.0000 9.6978
#
#
#
# Elastic Compliance Matrix: (Units=1/GPa)
#
#
# Indices 1 2 3 4 5 6 
#
# 1 0.014635 -0.004053 -0.003858 0.000000 0.000000 0.000000
# 2 -0.004053 0.011501 -0.002812 0.000000 0.000000 0.000000
# 3 -0.003858 -0.002812 0.010505 0.000000 0.000000 0.000000
# 4 0.000000 0.000000 0.000000 0.095814 0.000000 0.000000
# 5 0.000000 0.000000 0.000000 0.000000 0.058462 0.000000
# 6 0.000000 0.000000 0.000000 0.000000 0.000000 0.103116
#
#
# Mechanical properties :
#
#
# Convention : Reuss Voigt Hill
#
# Bulk Modulus (GPa) = 65.80993 66.95383 66.38188
# Shear Modulus (GPa) = 15.59856 20.42785 18.01321
#
# Velocity S-wave (km/s) = 2.93120 3.35440 3.14992
# Velocity P-wave (km/s) = 6.90689 7.20292 7.05646
#
# Compressibility (1/GPa) = 0.01519528
#
# Stress axis : x y z
#
# Youngs Moduli (GPa) = 68.33154 86.94980 95.19512
#
# Poissons Ratio (x) = 0.35237 0.36725
# Poissons Ratio (y) = 0.27692 0.26769
# Poissons Ratio (z) = 0.26361 0.24450
#
# Static dielectric constant tensor:
#      x y z
#    x 1.689120 0.000000 0.000000 
#    y 0.000000 1.686910 0.000000 
#    z 0.000000 0.000000 1.592210 
# 
# From -- ./inp_files/17675.got.cif
#   From: 2010.05.17/outbox.cif.g08.bks.cpg/sg67_9_cif.got.tgz:17675.got - 2010.06.03 18:28:57.
