data_PCOD9503905
_publ_section_title
;
Structure prediction by ZEFSAII (Michael W. Deem and Ramdas Pophale) SiO2 
 PCOD9503905
Probable space group: C M M A
;
_chemical_formula_sum "Si O2"
_cell_formula_units_Z 96
_cell_length_a 18.779723
_cell_length_b 8.894357
_cell_length_c 31.986336
_cell_angle_alpha 90.000000
_cell_angle_beta 90.000000
_cell_angle_gamma 90.000000
_cell_volume 5342.791597
_symmetry_space_group_name_H-M "C M M A"
_symmetry_group_IT_number 67
_symmetry_cell_setting 'orthorhombic'
loop_
_space_group_symop_operation_xyz
x,y,z
-x,1/2-y,z
x,-y,-z
-x,1/2+y,-z
-x,-y,-z
x,1/2+y,-z
-x,y,z
x,1/2-y,z
1/2+x,1/2+y,z
1/2-x,-y,z
1/2+x,1/2-y,-z
1/2-x,y,-z
1/2-x,1/2-y,-z
1/2+x,y,-z
1/2-x,1/2+y,z
1/2+x,-y,z
loop_
_atom_site_type_symbol
_atom_site_label
_atom_site_fract_x
_atom_site_fract_y
_atom_site_fract_z
Si Si1 0.828258 0.069513 0.710984
Si Si2 0.583579 0.070264 0.206261
Si Si3 0.413458 0.075208 0.542533
Si Si4 0.415872 0.568069 0.365155
Si Si5 0.414552 0.074093 0.881898
Si Si6 0.171473 0.429611 0.956526
O O1 0.824644 0.250000 0.708654
O O2 0.870266 0.028808 0.753480
O O3 0.750000 0.000000 0.711707
O O4 0.871250 0.006474 0.671416
O O5 0.500000 0.037591 0.214247
O O6 0.589851 0.250000 0.199481
O O7 0.605582 0.985235 0.164109
O O8 0.500000 0.065355 0.542434
O O9 0.394785 0.250000 0.540848
O O10 0.391982 0.016408 0.588312
O O11 0.387194 0.000000 0.500000
O O12 0.500000 0.533625 0.360327
O O13 0.409183 0.750000 0.363720
O O14 0.500000 0.058094 0.885387
O O15 0.396491 0.250000 0.886347
O O16 0.376571 0.979420 0.917800
O O17 0.176092 0.250000 0.959963
O O18 0.250000 0.500000 0.950617
O O19 0.143493 0.500000 0.000000
#
# Coordination Sequence:
#
# PCOD9503905 Si02
#       6
#    16  16  16  16  16  16
#     4  11  23  37  54  77 106 140 178 220 265 315
#     4   9  19  37  58  79 105 138 177 221 268 317
#     4   8  14  25  43  70 102 133 166 207 254 304
#     4   9  18  33  53  77 106 139 174 214 262 314
#     4  10  21  37  58  85 114 144 180 220 265 318
#     4  11  22  38  59  82 112 148 186 227 270 317
#
# _framework density 17.968136000000001
#
# number of rings (size 3 to 8) (size 9 to 14) (size 15 to 20)
#    0.000    2.333    0.000    4.500    0.000    5.000 
#    0.000    5.000    0.000    0.500    0.000    3.500 
#    0.000    0.000    0.000    0.000    0.000    0.000 
#
# Total GULP energy -267829.807637 kJ/mol
# GULP energy per Si atom -5579.787659 kJ/mol
# Density = 1.792724 g / cm^3
# Si number density = 17.968136 Si / 1000 Ang^3
#
#
#
# Elastic Constant Matrix: (Units=GPa)
#
#
# Indices 1 2 3 4 5 6 
#
# 1 53.7411 43.5947 72.9190 0.0000 0.0000 0.0000
# 2 43.5947 90.9706 85.1807 0.0000 0.0000 0.0000
# 3 72.9190 85.1807 193.5505 0.0000 0.0000 0.0000
# 4 0.0000 0.0000 0.0000 37.1802 0.0000 0.0000
# 5 0.0000 0.0000 0.0000 0.0000 -24.7884 0.0000
# 6 0.0000 0.0000 0.0000 0.0000 0.0000 22.5325
#
#
#
# Elastic Compliance Matrix: (Units=1/GPa)
#
#
# Indices 1 2 3 4 5 6 
#
# 1 0.042026 -0.009039 -0.011855 0.000000 0.000000 0.000000
# 2 -0.009039 0.020642 -0.005679 0.000000 0.000000 0.000000
# 3 -0.011855 -0.005679 0.012132 0.000000 0.000000 0.000000
# 4 0.000000 0.000000 0.000000 0.026896 0.000000 0.000000
# 5 0.000000 0.000000 0.000000 0.000000 -0.040341 0.000000
# 6 0.000000 0.000000 0.000000 0.000000 0.000000 0.044380
#
#
# Mechanical properties :
#
#
# Convention : Reuss Voigt Hill
#
# Bulk Modulus (GPa) = 46.18131 82.40568 64.29349
# Shear Modulus (GPa) = 30.10275 16.08938 23.09607
#
# Velocity S-wave (km/s) = 4.09753 2.99564 3.58912
# Velocity P-wave (km/s) = 6.93858 7.61097 7.28254
#
# Compressibility (1/GPa) = 0.02165378
#
# Stress axis : x y z
#
# Youngs Moduli (GPa) = 23.79506 48.44560 82.42578
#
# Poissons Ratio (x) = 0.43790 0.97714
# Poissons Ratio (y) = 0.21508 0.46809
# Poissons Ratio (z) = 0.28209 0.27512
#
# Static dielectric constant tensor:
#      x y z
#    x 1.594290 0.000000 0.000000 
#    y 0.000000 1.604920 0.000000 
#    z 0.000000 0.000000 1.613970 
# 
# From -- ./inp_files/43464.got.cif
#   From: 2010.05.17/outbox.cif.g08.bks.cpg/sg67_22_cif.got.tgz:43464.got - 2010.06.03 18:28:57.
