data_PCOD9503308
_publ_section_title
;
Structure prediction by ZEFSAII (Michael W. Deem and Ramdas Pophale) SiO2 
 PCOD9503308
Probable space group: C M M A
;
_chemical_formula_sum "Si O2"
_cell_formula_units_Z 80
_cell_length_a 18.612335
_cell_length_b 16.754657
_cell_length_c 13.553626
_cell_angle_alpha 90.000000
_cell_angle_beta 90.000000
_cell_angle_gamma 90.000000
_cell_volume 4226.607308
_symmetry_space_group_name_H-M "C M M A"
_symmetry_group_IT_number 67
_symmetry_cell_setting 'orthorhombic'
loop_
_space_group_symop_operation_xyz
x,y,z
-x,1/2-y,z
x,-y,-z
-x,1/2+y,-z
-x,-y,-z
x,1/2+y,-z
-x,y,z
x,1/2-y,z
1/2+x,1/2+y,z
1/2-x,-y,z
1/2+x,1/2-y,-z
1/2-x,y,-z
1/2-x,1/2-y,-z
1/2+x,y,-z
1/2-x,1/2+y,z
1/2+x,-y,z
loop_
_atom_site_type_symbol
_atom_site_label
_atom_site_fract_x
_atom_site_fract_y
_atom_site_fract_z
Si Si1 0.324384 0.546230 0.722248
Si Si2 0.830493 0.080214 0.953218
Si Si3 0.915626 0.093179 0.362172
Si Si4 0.336223 0.250000 0.976717
Si Si5 0.330834 0.158736 0.458377
Si Si6 0.585614 0.250000 0.770161
O O1 0.250000 0.500000 0.702023
O O2 0.325826 0.569891 0.836346
O O3 0.385772 0.483349 0.694422
O O4 0.330276 0.621135 0.649811
O O5 0.750000 0.082544 0.000000
O O6 0.864051 0.165933 0.979632
O O7 0.864821 0.000000 0.000000
O O8 0.876943 0.105831 0.466536
O O9 0.900910 0.171763 0.295964
O O10 0.000000 0.087146 0.377431
O O11 0.360656 0.250000 0.862830
O O12 0.250000 0.250000 0.000000
O O13 0.357173 0.250000 0.458577
O O14 0.250000 0.158281 0.500000
O O15 0.500000 0.250000 0.798253
#
# Coordination Sequence:
#
# PCOD9503308 Si02
#       6
#    16  16  16   8  16   8
#     4  12  23  38  64  91 131 168 214 266 324 381
#     4  10  20  37  57  92 126 164 209 266 316 373
#     4  11  24  43  66  93 129 173 216 258 319 397
#     4  10  22  34  63  96 125 166 218 267 321 377
#     4  11  24  39  60  94 130 165 209 265 323 384
#     4  10  22  42  66  94 130 172 213 259 318 389
#
# _framework density 18.927709
#
# number of rings (size 3 to 8) (size 9 to 14) (size 15 to 20)
#    0.000    1.200    5.000    1.800    4.200    1.600 
#    0.000    1.000    0.000    3.600    0.000    0.000 
#    0.000    0.000    0.000    0.000    0.000    0.000 
#
# Total GULP energy -223394.632462 kJ/mol
# GULP energy per Si atom -5584.865812 kJ/mol
# Density = 1.888463 g / cm^3
# Si number density = 18.927709 Si / 1000 Ang^3
#
#
#
# Elastic Constant Matrix: (Units=GPa)
#
#
# Indices 1 2 3 4 5 6 
#
# 1 41.4101 4.9214 31.7666 0.0000 0.0000 0.0000
# 2 4.9214 118.5001 42.5433 0.0000 0.0000 0.0000
# 3 31.7666 42.5433 160.7093 0.0000 0.0000 0.0000
# 4 0.0000 0.0000 0.0000 347.1483 0.0000 0.0000
# 5 0.0000 0.0000 0.0000 0.0000 18.7337 0.0000
# 6 0.0000 0.0000 0.0000 0.0000 0.0000 10.5982
#
#
#
# Elastic Compliance Matrix: (Units=1/GPa)
#
#
# Indices 1 2 3 4 5 6 
#
# 1 0.028557 0.000929 -0.005891 0.000000 0.000000 0.000000
# 2 0.000929 0.009355 -0.002660 0.000000 0.000000 0.000000
# 3 -0.005891 -0.002660 0.008091 0.000000 0.000000 0.000000
# 4 0.000000 0.000000 0.000000 0.002881 0.000000 0.000000
# 5 0.000000 0.000000 0.000000 0.000000 0.053380 0.000000
# 6 0.000000 0.000000 0.000000 0.000000 0.000000 0.094356
#
#
# Mechanical properties :
#
#
# Convention : Reuss Voigt Hill
#
# Bulk Modulus (GPa) = 32.51030 53.23135 42.87083
# Shear Modulus (GPa) = 22.51072 91.38860 56.94966
#
# Velocity S-wave (km/s) = 3.45236 6.95613 5.49120
# Velocity P-wave (km/s) = 5.75370 9.62817 7.93116
#
# Compressibility (1/GPa) = 0.03075948
#
# Stress axis : x y z
#
# Youngs Moduli (GPa) = 35.01753 106.89171 123.59441
#
# Poissons Ratio (x) = -0.09928 0.72805
# Poissons Ratio (y) = -0.03252 0.32878
# Poissons Ratio (z) = 0.20627 0.28435
#
# Static dielectric constant tensor:
#      x y z
#    x 1.628900 0.000000 0.000000 
#    y 0.000000 1.695670 0.000000 
#    z 0.000000 0.000000 1.626160 
# 
# From -- ./inp_files/20561.got.cif
#   From: 2010.05.17/outbox.cif.g08.bks.cpg/sg67_11_cif.got.tgz:20561.got - 2010.06.03 18:28:57.
