data_PCOD9503912
_publ_section_title
;
Structure prediction by ZEFSAII (Michael W. Deem and Ramdas Pophale) SiO2 
 PCOD9503912
Probable space group: C M M A
;
_chemical_formula_sum "Si O2"
_cell_formula_units_Z 96
_cell_length_a 28.269215
_cell_length_b 20.957636
_cell_length_c 8.600018
_cell_angle_alpha 90.000000
_cell_angle_beta 90.000000
_cell_angle_gamma 90.000000
_cell_volume 5095.131559
_symmetry_space_group_name_H-M "C M M A"
_symmetry_group_IT_number 67
_symmetry_cell_setting 'orthorhombic'
loop_
_space_group_symop_operation_xyz
x,y,z
-x,1/2-y,z
x,-y,-z
-x,1/2+y,-z
-x,-y,-z
x,1/2+y,-z
-x,y,z
x,1/2-y,z
1/2+x,1/2+y,z
1/2-x,-y,z
1/2+x,1/2-y,-z
1/2-x,y,-z
1/2-x,1/2-y,-z
1/2+x,y,-z
1/2-x,1/2+y,z
1/2+x,-y,z
loop_
_atom_site_type_symbol
_atom_site_label
_atom_site_fract_x
_atom_site_fract_y
_atom_site_fract_z
Si Si1 0.722859 0.943493 0.665657
Si Si2 0.640743 0.176195 0.640284
Si Si3 0.740845 0.178129 0.814899
Si Si4 0.055380 0.439340 0.895313
Si Si5 0.881694 0.059876 0.593414
Si Si6 0.553228 0.178417 0.873675
O O1 0.750000 0.936804 0.500000
O O2 0.726109 0.875345 0.743339
O O3 0.669297 0.964334 0.650399
O O4 0.750000 0.000000 0.753683
O O5 0.644725 0.250000 0.581726
O O6 0.687694 0.164776 0.747613
O O7 0.631794 0.121934 0.510455
O O8 0.594430 0.172975 0.748250
O O9 0.752419 0.250000 0.763304
O O10 0.750000 0.175963 0.000000
O O11 0.085452 0.428428 0.740852
O O12 0.000000 0.450301 0.856747
O O13 0.071204 0.500000 0.000000
O O14 0.058830 0.376409 0.000268
O O15 0.903191 0.000000 0.500000
O O16 0.500000 0.171930 0.805917
O O17 0.556414 0.250000 0.941686
#
# Coordination Sequence:
#
# PCOD9503912 Si02
#       6
#    16  16  16  16  16  16
#     4  11  21  40  57  80 116 153 190 235 288 344
#     4  10  21  37  58  87 119 152 195 241 290 349
#     4  10  22  38  57  84 117 154 195 239 285 342
#     4  10  23  41  61  87 116 150 196 246 299 360
#     4  12  23  38  60  85 115 154 194 239 295 351
#     4   9  19  38  61  83 113 150 186 233 290 347
#
# _framework density 18.841515000000001
#
# number of rings (size 3 to 8) (size 9 to 14) (size 15 to 20)
#    0.000    1.667    3.333    1.000    2.333    3.000 
#    0.000    0.000    0.000    0.000    0.000    0.000 
#    0.000    0.000    0.000    0.000    0.000    0.000 
#
# Total GULP energy -267577.596623 kJ/mol
# GULP energy per Si atom -5574.533263 kJ/mol
# Density = 1.879863 g / cm^3
# Si number density = 18.841515 Si / 1000 Ang^3
#
#
#
# Elastic Constant Matrix: (Units=GPa)
#
#
# Indices 1 2 3 4 5 6 
#
# 1 62.2993 19.9358 28.2899 0.0000 0.0000 0.0000
# 2 19.9358 103.7039 46.1437 0.0000 0.0000 0.0000
# 3 28.2899 46.1437 59.2085 0.0000 0.0000 0.0000
# 4 0.0000 0.0000 0.0000 40.2044 0.0000 0.0000
# 5 0.0000 0.0000 0.0000 0.0000 32.1184 0.0000
# 6 0.0000 0.0000 0.0000 0.0000 0.0000 16.3200
#
#
#
# Elastic Compliance Matrix: (Units=1/GPa)
#
#
# Indices 1 2 3 4 5 6 
#
# 1 0.020527 0.000640 -0.010306 0.000000 0.000000 0.000000
# 2 0.000640 0.014782 -0.011826 0.000000 0.000000 0.000000
# 3 -0.010306 -0.011826 0.031030 0.000000 0.000000 0.000000
# 4 0.000000 0.000000 0.000000 0.024873 0.000000 0.000000
# 5 0.000000 0.000000 0.000000 0.000000 0.031135 0.000000
# 6 0.000000 0.000000 0.000000 0.000000 0.000000 0.061274
#
#
# Mechanical properties :
#
#
# Convention : Reuss Voigt Hill
#
# Bulk Modulus (GPa) = 42.81891 45.99451 44.40671
# Shear Modulus (GPa) = 21.33191 26.45138 23.89165
#
# Velocity S-wave (km/s) = 3.36843 3.75091 3.56481
# Velocity P-wave (km/s) = 6.15659 6.57445 6.36895
#
# Compressibility (1/GPa) = 0.02335417
#
# Stress axis : x y z
#
# Youngs Moduli (GPa) = 48.71649 67.65074 32.22662
#
# Poissons Ratio (x) = -0.04329 0.33214
# Poissons Ratio (y) = -0.03117 0.38111
# Poissons Ratio (z) = 0.50209 0.80003
#
# Static dielectric constant tensor:
#      x y z
#    x 1.649760 0.000000 0.000000 
#    y 0.000000 1.700170 0.000000 
#    z 0.000000 0.000000 1.673710 
# 
# From -- ./inp_files/13698.got.cif
#   From: 2010.05.17/outbox.cif.g08.bks.cpg/sg67_7_cif.got.tgz:13698.got - 2010.06.03 18:28:57.
