data_PCOD9503839
_publ_section_title
;
Structure prediction by ZEFSAII (Michael W. Deem and Ramdas Pophale) SiO2 
 PCOD9503839
Probable space group: C M M A
;
_chemical_formula_sum "Si O2"
_cell_formula_units_Z 104
_cell_length_a 27.991500
_cell_length_b 8.474355
_cell_length_c 19.415506
_cell_angle_alpha 90.000000
_cell_angle_beta 90.000000
_cell_angle_gamma 90.000000
_cell_volume 4605.550392
_symmetry_space_group_name_H-M "C M M A"
_symmetry_group_IT_number 67
_symmetry_cell_setting 'orthorhombic'
loop_
_space_group_symop_operation_xyz
x,y,z
-x,1/2-y,z
x,-y,-z
-x,1/2+y,-z
-x,-y,-z
x,1/2+y,-z
-x,y,z
x,1/2-y,z
1/2+x,1/2+y,z
1/2-x,-y,z
1/2+x,1/2-y,-z
1/2-x,y,-z
1/2-x,1/2-y,-z
1/2+x,y,-z
1/2-x,1/2+y,z
1/2+x,-y,z
loop_
_atom_site_type_symbol
_atom_site_label
_atom_site_fract_x
_atom_site_fract_y
_atom_site_fract_z
Si Si1 0.056599 0.573468 0.930118
Si Si2 0.946516 0.064824 0.781127
Si Si3 0.347053 0.063669 0.788612
Si Si4 0.103322 0.941233 0.578426
Si Si5 0.000000 0.059019 0.420662
Si Si6 0.199435 0.559511 0.653659
Si Si7 0.303180 0.563227 0.924367
O O1 0.075977 0.750000 0.915468
O O2 0.058096 0.462073 0.863813
O O3 0.000000 0.593196 0.942232
O O4 0.076874 0.500000 0.000000
O O5 0.943438 0.250000 0.765391
O O6 0.000000 0.006246 0.762092
O O7 0.899412 0.973563 0.757332
O O8 0.342204 0.250000 0.795383
O O9 0.308805 0.006014 0.732506
O O10 0.337585 0.989305 0.862820
O O11 0.103527 0.750000 0.580040
O O12 0.152218 0.996036 0.613479
O O13 0.051473 0.993996 0.608789
O O14 0.104043 0.000000 0.500000
O O15 0.000000 0.250000 0.420043
O O16 0.000000 0.000000 0.500000
O O17 0.199640 0.750000 0.652337
O O18 0.250000 0.500000 0.626629
O O19 0.301803 0.750000 0.927552
O O20 0.250000 0.500000 0.908352
O O21 0.315675 0.500000 0.000000
#
# Coordination Sequence:
#
# PCOD9503839 Si02
#       7
#    16  16  16  16   8  16  16
#     4   9  16  27  45  69  97 131 173 221 277 342
#     4  10  21  37  55  76 106 143 185 235 291 354
#     4  11  23  40  60  85 116 154 201 251 305 371
#     4   9  18  35  59  92 127 165 208 252 300 354
#     4   8  14  28  54  84 122 162 201 248 295 346
#     4  10  23  41  61  88 122 161 208 254 306 367
#     4  11  22  39  63  91 119 149 189 244 306 370
#
# _framework density 22.581448999999999
#
# number of rings (size 3 to 8) (size 9 to 14) (size 15 to 20)
#    0.000    2.154    0.000    3.692    0.000    6.769 
#    1.385    4.615    0.000    0.000    0.000    0.000 
#    0.000    0.000    0.000    0.000    0.000    0.000 
#
# Total GULP energy -290408.964210 kJ/mol
# GULP energy per Si atom -5584.787773 kJ/mol
# Density = 2.253005 g / cm^3
# Si number density = 22.581449 Si / 1000 Ang^3
#
#
#
# Elastic Constant Matrix: (Units=GPa)
#
#
# Indices 1 2 3 4 5 6 
#
# 1 196.9687 19.5860 53.8260 0.0000 0.0000 0.0000
# 2 19.5860 65.3999 4.5936 0.0000 0.0000 0.0000
# 3 53.8260 4.5936 61.7102 0.0000 0.0000 0.0000
# 4 0.0000 0.0000 0.0000 15.1291 0.0000 0.0000
# 5 0.0000 0.0000 0.0000 0.0000 29.1516 0.0000
# 6 0.0000 0.0000 0.0000 0.0000 0.0000 29.9000
#
#
#
# Elastic Compliance Matrix: (Units=1/GPa)
#
#
# Indices 1 2 3 4 5 6 
#
# 1 0.006836 -0.001637 -0.005841 0.000000 0.000000 0.000000
# 2 -0.001637 0.015763 0.000254 0.000000 0.000000 0.000000
# 3 -0.005841 0.000254 0.021280 0.000000 0.000000 0.000000
# 4 0.000000 0.000000 0.000000 0.066098 0.000000 0.000000
# 5 0.000000 0.000000 0.000000 0.000000 0.034303 0.000000
# 6 0.000000 0.000000 0.000000 0.000000 0.000000 0.033445
#
#
# Mechanical properties :
#
#
# Convention : Reuss Voigt Hill
#
# Bulk Modulus (GPa) = 33.97579 53.34334 43.65956
# Shear Modulus (GPa) = 24.75466 31.24101 27.99784
#
# Velocity S-wave (km/s) = 3.31454 3.72355 3.52498
# Velocity P-wave (km/s) = 5.45223 6.49310 5.99530
#
# Compressibility (1/GPa) = 0.02943272
#
# Stress axis : x y z
#
# Youngs Moduli (GPa) = 146.28890 63.44003 46.99204
#
# Poissons Ratio (x) = 0.10385 0.27446
# Poissons Ratio (y) = 0.23947 -0.01196
# Poissons Ratio (z) = 0.85441 -0.01614
#
# Static dielectric constant tensor:
#      x y z
#    x 1.906340 0.000000 0.000000 
#    y 0.000000 1.837570 0.000000 
#    z 0.000000 0.000000 1.852080 
# 
# From -- ./inp_files/39940.got.cif
#   From: 2010.05.17/outbox.cif.g08.bks.cpg/sg67_20_cif.got.tgz:39940.got - 2010.06.03 18:28:57.
