data_PCOD9503884
_publ_section_title
;
Structure prediction by ZEFSAII (Michael W. Deem and Ramdas Pophale) SiO2 
 PCOD9503884
Probable space group: C M M A
;
_chemical_formula_sum "Si O2"
_cell_formula_units_Z 64
_cell_length_a 8.522350
_cell_length_b 28.175943
_cell_length_c 11.496039
_cell_angle_alpha 90.000000
_cell_angle_beta 90.000000
_cell_angle_gamma 90.000000
_cell_volume 2760.489214
_symmetry_space_group_name_H-M "C M M A"
_symmetry_group_IT_number 67
_symmetry_cell_setting 'orthorhombic'
loop_
_space_group_symop_operation_xyz
x,y,z
-x,1/2-y,z
x,-y,-z
-x,1/2+y,-z
-x,-y,-z
x,1/2+y,-z
-x,y,z
x,1/2-y,z
1/2+x,1/2+y,z
1/2-x,-y,z
1/2+x,1/2-y,-z
1/2-x,y,-z
1/2-x,1/2-y,-z
1/2+x,y,-z
1/2-x,1/2+y,z
1/2+x,-y,z
loop_
_atom_site_type_symbol
_atom_site_label
_atom_site_fract_x
_atom_site_fract_y
_atom_site_fract_z
Si Si1 0.319454 0.304056 0.647615
Si Si2 0.325276 0.806170 0.886011
Si Si3 0.317890 0.403993 0.378230
Si Si4 0.810673 0.053814 0.871512
O O1 0.500000 0.309940 0.611438
O O2 0.267297 0.250000 0.620622
O O3 0.302341 0.308484 0.785810
O O4 0.209957 0.347316 0.611546
O O5 0.500000 0.825438 0.856930
O O6 0.347042 0.750000 0.905201
O O7 0.250000 0.827596 0.000000
O O8 0.500000 0.415128 0.378728
O O9 0.250000 0.424456 0.500000
O O10 0.258087 0.419846 0.249256
O O11 0.000000 0.055045 0.875495
O O12 0.750000 0.000000 0.858529
O O13 0.750000 0.069368 0.000000
#
# Coordination Sequence:
#
# PCOD9503884 Si02
#       4
#    16  16  16  16
#     4  10  21  37  57  82 116 163 217 271 326 382
#     4   9  16  27  45  70 102 142 191 249 310 370
#     4  11  25  43  64  94 131 173 220 269 324 386
#     4  10  22  42  71 104 135 169 210 258 318 388
#
# _framework density 23.184296
#
# number of rings (size 3 to 8) (size 9 to 14) (size 15 to 20)
#    0.000    2.000    0.000    3.750    0.000   10.500 
#    0.000    5.000    0.000    0.000    0.000    0.000 
#    0.000    0.000    0.000    0.000    0.000    0.000 
#
# Total GULP energy -178351.995114 kJ/mol
# GULP energy per Si atom -5573.499847 kJ/mol
# Density = 2.313153 g / cm^3
# Si number density = 23.184296 Si / 1000 Ang^3
#
#
#
# Elastic Constant Matrix: (Units=GPa)
#
#
# Indices 1 2 3 4 5 6 
#
# 1 71.8884 15.4618 43.4303 0.0000 0.0000 0.0000
# 2 15.4618 103.9839 44.1183 0.0000 0.0000 0.0000
# 3 43.4303 44.1183 222.9171 0.0000 0.0000 0.0000
# 4 0.0000 0.0000 0.0000 -19.3746 0.0000 0.0000
# 5 0.0000 0.0000 0.0000 0.0000 35.7748 0.0000
# 6 0.0000 0.0000 0.0000 0.0000 0.0000 -27.5505
#
#
#
# Elastic Compliance Matrix: (Units=1/GPa)
#
#
# Indices 1 2 3 4 5 6 
#
# 1 0.015890 -0.001145 -0.002869 0.000000 0.000000 0.000000
# 2 -0.001145 0.010581 -0.001871 0.000000 0.000000 0.000000
# 3 -0.002869 -0.001871 0.005415 0.000000 0.000000 0.000000
# 4 0.000000 0.000000 0.000000 -0.051614 0.000000 0.000000
# 5 0.000000 0.000000 0.000000 0.000000 0.027953 0.000000
# 6 0.000000 0.000000 0.000000 0.000000 0.000000 -0.036297
#
#
# Mechanical properties :
#
#
# Convention : Reuss Voigt Hill
#
# Bulk Modulus (GPa) = 49.71335 67.20111 58.45723
# Shear Modulus (GPa) = -521.06078 17.48856 -251.78611
#
# Velocity S-wave (km/s) = -15.00784 2.74948 -10.43253
# Velocity P-wave (km/s) = 16.69804 6.25524 10.94752
#
# Compressibility (1/GPa) = 0.02011532
#
# Stress axis : x y z
#
# Youngs Moduli (GPa) = 62.93202 94.50897 184.66389
#
# Poissons Ratio (x) = 0.10826 0.52983
# Poissons Ratio (y) = 0.07209 0.34550
# Poissons Ratio (z) = 0.18056 0.17682
#
# Static dielectric constant tensor:
#      x y z
#    x 1.834390 0.000000 0.000000 
#    y 0.000000 1.893700 0.000000 
#    z 0.000000 0.000000 2.050590 
# 
# From -- ./inp_files/15796.got.cif
#   From: 2010.05.17/outbox.cif.g08.bks.cpg/sg67_8_cif.got.tgz:15796.got - 2010.06.03 18:28:57.
