data_PCOD9503670
_publ_section_title
;
Structure prediction by ZEFSAII (Michael W. Deem and Ramdas Pophale) SiO2 
 PCOD9503670
Probable space group: C M M A
;
_chemical_formula_sum "Si O2"
_cell_formula_units_Z 116
_cell_length_a 18.418077
_cell_length_b 23.826795
_cell_length_c 14.698979
_cell_angle_alpha 90.000000
_cell_angle_beta 90.000000
_cell_angle_gamma 90.000000
_cell_volume 6450.554992
_symmetry_space_group_name_H-M "C M M A"
_symmetry_group_IT_number 67
_symmetry_cell_setting 'orthorhombic'
loop_
_space_group_symop_operation_xyz
x,y,z
-x,1/2-y,z
x,-y,-z
-x,1/2+y,-z
-x,-y,-z
x,1/2+y,-z
-x,y,z
x,1/2-y,z
1/2+x,1/2+y,z
1/2-x,-y,z
1/2+x,1/2-y,-z
1/2-x,y,-z
1/2-x,1/2-y,-z
1/2+x,y,-z
1/2-x,1/2+y,z
1/2+x,-y,z
loop_
_atom_site_type_symbol
_atom_site_label
_atom_site_fract_x
_atom_site_fract_y
_atom_site_fract_z
Si Si1 0.824263 0.608842 0.262473
Si Si2 0.085769 0.814980 0.126935
Si Si3 0.920187 0.498156 0.690267
Si Si4 0.176772 0.183604 0.557946
Si Si5 0.000000 0.500000 0.500000
Si Si6 0.917245 0.817311 0.609890
Si Si7 0.086261 0.185775 0.089763
Si Si8 0.155711 0.610223 0.760636
O O1 0.865927 0.642417 0.183558
O O2 0.866337 0.552298 0.287682
O O3 0.824586 0.647934 0.351651
O O4 0.740924 0.598343 0.236483
O O5 0.103064 0.750000 0.150415
O O6 0.000000 0.823463 0.145824
O O7 0.096134 0.820957 0.018366
O O8 0.888106 0.554858 0.732295
O O9 0.000000 0.486386 0.731623
O O10 0.937598 0.503431 0.582268
O O11 0.173687 0.250000 0.578376
O O12 0.250000 0.173799 0.500000
O O13 0.109858 0.169017 0.491405
O O14 0.914882 0.750000 0.619371
O O15 0.863813 0.845165 0.681564
O O16 0.000000 0.836511 0.624917
O O17 0.108062 0.250000 0.114110
O O18 0.128185 0.139726 0.147582
O O19 0.000000 0.181330 0.109278
#
# Coordination Sequence:
#
# PCOD9503670 Si02
#       8
#    16  16  16  16   4  16  16  16
#     4  12  24  37  60  89 122 162 200 251 309 377
#     4   9  20  40  64  92 125 163 208 253 303 368
#     4  10  24  43  62  84 114 157 213 259 301 357
#     4  10  21  37  54  82 121 158 194 240 303 367
#     4   8  24  44  66  84 108 156 214 268 288 350
#     4  10  21  35  55  83 114 151 196 244 298 366
#     4   9  19  38  65  94 124 161 204 253 310 370
#     4  12  23  37  59  89 123 155 197 254 315 372
#
# _framework density 17.982949000000001
#
# number of rings (size 3 to 8) (size 9 to 14) (size 15 to 20)
#    0.414    1.379    1.379    3.724    1.931    4.414 
#    0.000    4.138    0.000    4.138    0.000    0.000 
#    0.000    0.000    0.000    0.000    0.000    0.000 
#
# Total GULP energy -323252.839172 kJ/mol
# GULP energy per Si atom -5573.324813 kJ/mol
# Density = 1.794202 g / cm^3
# Si number density = 17.982949 Si / 1000 Ang^3
#
#
#
# Elastic Constant Matrix: (Units=GPa)
#
#
# Indices 1 2 3 4 5 6 
#
# 1 113.8936 56.1859 46.0410 0.0000 0.0000 0.0000
# 2 56.1859 74.6817 51.2936 0.0000 0.0000 0.0000
# 3 46.0410 51.2936 63.6307 0.0000 0.0000 0.0000
# 4 0.0000 0.0000 0.0000 152.8901 0.0000 0.0000
# 5 0.0000 0.0000 0.0000 0.0000 27.3456 0.0000
# 6 0.0000 0.0000 0.0000 0.0000 0.0000 29.5105
#
#
#
# Elastic Compliance Matrix: (Units=1/GPa)
#
#
# Indices 1 2 3 4 5 6 
#
# 1 0.014354 -0.008213 -0.003766 0.000000 0.000000 0.000000
# 2 -0.008213 0.034699 -0.022029 0.000000 0.000000 0.000000
# 3 -0.003766 -0.022029 0.036198 0.000000 0.000000 0.000000
# 4 0.000000 0.000000 0.000000 0.006541 0.000000 0.000000
# 5 0.000000 0.000000 0.000000 0.000000 0.036569 0.000000
# 6 0.000000 0.000000 0.000000 0.000000 0.000000 0.033886
#
#
# Mechanical properties :
#
#
# Convention : Reuss Voigt Hill
#
# Bulk Modulus (GPa) = 58.01606 62.13855 60.07730
# Shear Modulus (GPa) = 21.18582 48.52827 34.85704
#
# Velocity S-wave (km/s) = 3.43608 5.20041 4.40743
# Velocity P-wave (km/s) = 6.93354 8.40763 7.70591
#
# Compressibility (1/GPa) = 0.01723661
#
# Stress axis : x y z
#
# Youngs Moduli (GPa) = 69.66814 28.81930 27.62558
#
# Poissons Ratio (x) = 0.23668 0.10403
# Poissons Ratio (y) = 0.57215 0.60857
# Poissons Ratio (z) = 0.26235 0.63486
#
# Static dielectric constant tensor:
#      x y z
#    x 1.620070 0.000000 0.000000 
#    y 0.000000 1.527530 0.000000 
#    z 0.000000 0.000000 1.594320 
# 
# From -- ./inp_files/28766.got.cif
#   From: 2010.05.17/outbox.cif.g08.bks.cpg/sg67_15_cif.got.tgz:28766.got - 2010.06.03 18:28:57.
