data_PCOD9503743
_publ_section_title
;
Structure prediction by ZEFSAII (Michael W. Deem and Ramdas Pophale) SiO2 
 PCOD9503743
Probable space group: C M M A
;
_chemical_formula_sum "Si O2"
_cell_formula_units_Z 80
_cell_length_a 14.644115
_cell_length_b 9.694239
_cell_length_c 25.209178
_cell_angle_alpha 90.000000
_cell_angle_beta 90.000000
_cell_angle_gamma 90.000000
_cell_volume 3578.784420
_symmetry_space_group_name_H-M "C M M A"
_symmetry_group_IT_number 67
_symmetry_cell_setting 'orthorhombic'
loop_
_space_group_symop_operation_xyz
x,y,z
-x,1/2-y,z
x,-y,-z
-x,1/2+y,-z
-x,-y,-z
x,1/2+y,-z
-x,y,z
x,1/2-y,z
1/2+x,1/2+y,z
1/2-x,-y,z
1/2+x,1/2-y,-z
1/2-x,y,-z
1/2-x,1/2-y,-z
1/2+x,y,-z
1/2-x,1/2+y,z
1/2+x,-y,z
loop_
_atom_site_type_symbol
_atom_site_label
_atom_site_fract_x
_atom_site_fract_y
_atom_site_fract_z
Si Si1 0.888278 0.410291 0.948426
Si Si2 0.893819 0.092043 0.150147
Si Si3 0.140688 0.250000 0.553410
Si Si4 0.361164 0.012927 0.368261
Si Si5 0.863192 0.750000 0.567666
Si Si6 0.654333 0.582825 0.748406
O O1 0.856984 0.250000 0.949260
O O2 0.855963 0.498043 0.897494
O O3 0.000000 0.403982 0.947118
O O4 0.863482 0.500000 0.000000
O O5 0.855644 0.250000 0.156259
O O6 0.000000 0.110785 0.137139
O O7 0.890736 0.996885 0.202547
O O8 0.111385 0.122158 0.587993
O O9 0.106963 0.250000 0.493352
O O10 0.252281 0.250000 0.558450
O O11 0.389931 0.053265 0.309090
O O12 0.250000 0.000000 0.366262
O O13 0.391668 0.874336 0.395348
O O14 0.661946 0.750000 0.755212
O O15 0.750000 0.500000 0.746305
#
# Coordination Sequence:
#
# PCOD9503743 Si02
#       6
#    16  16   8  16   8  16
#     4   9  16  28  49  77 108 139 172 212 260 308
#     4  10  21  36  55  80 109 139 176 221 264 308
#     4   9  14  26  36  60  89 123 162 201 254 306
#     4   9  17  26  40  62  91 128 165 205 252 310
#     4   9  16  22  40  58  89 125 160 203 254 306
#     4  11  22  35  53  74 104 143 180 218 260 314
#
# _framework density 22.353957999999999
#
# number of rings (size 3 to 8) (size 9 to 14) (size 15 to 20)
#    0.000    2.400    1.000    2.400    5.600    6.000 
#    0.000    0.000    0.000    0.600    0.000    4.200 
#    0.000    4.800    0.000    0.000    0.000    0.000 
#
# Total GULP energy -222971.062085 kJ/mol
# GULP energy per Si atom -5574.276552 kJ/mol
# Density = 2.230308 g / cm^3
# Si number density = 22.353958 Si / 1000 Ang^3
#
#
#
# Elastic Constant Matrix: (Units=GPa)
#
#
# Indices 1 2 3 4 5 6 
#
# 1 65.5591 10.8442 6.4770 0.0000 0.0000 0.0000
# 2 10.8442 288.9090 130.5143 0.0000 0.0000 0.0000
# 3 6.4770 130.5143 207.5015 0.0000 0.0000 0.0000
# 4 0.0000 0.0000 0.0000 35.2209 0.0000 0.0000
# 5 0.0000 0.0000 0.0000 0.0000 8.8256 0.0000
# 6 0.0000 0.0000 0.0000 0.0000 0.0000 4.9853
#
#
#
# Elastic Compliance Matrix: (Units=1/GPa)
#
#
# Indices 1 2 3 4 5 6 
#
# 1 0.015353 -0.000503 -0.000163 0.000000 0.000000 0.000000
# 2 -0.000503 0.004852 -0.003036 0.000000 0.000000 0.000000
# 3 -0.000163 -0.003036 0.006734 0.000000 0.000000 0.000000
# 4 0.000000 0.000000 0.000000 0.028392 0.000000 0.000000
# 5 0.000000 0.000000 0.000000 0.000000 0.113306 0.000000
# 6 0.000000 0.000000 0.000000 0.000000 0.000000 0.200591
#
#
# Mechanical properties :
#
#
# Convention : Reuss Voigt Hill
#
# Bulk Modulus (GPa) = 51.19024 95.29342 73.24183
# Shear Modulus (GPa) = 13.05000 37.41531 25.23265
#
# Velocity S-wave (km/s) = 2.41879 4.09561 3.36337
# Velocity P-wave (km/s) = 5.54530 8.06766 6.92234
#
# Compressibility (1/GPa) = 0.01953497
#
# Stress axis : x y z
#
# Youngs Moduli (GPa) = 65.13530 206.11683 148.50362
#
# Poissons Ratio (x) = 0.10359 0.02422
# Poissons Ratio (y) = 0.03274 0.45084
# Poissons Ratio (z) = 0.01062 0.62575
#
# Static dielectric constant tensor:
#      x y z
#    x 1.927130 0.000000 0.000000 
#    y 0.000000 1.745640 0.000000 
#    z 0.000000 0.000000 1.798270 
# 
# From -- ./inp_files/40754.got.cif
#   From: 2010.05.17/outbox.cif.g08.bks.cpg/sg67_21_cif.got.tgz:40754.got - 2010.06.03 18:28:57.
