data_PCOD9503222
_publ_section_title
;
Structure prediction by ZEFSAII (Michael W. Deem and Ramdas Pophale) SiO2 
 PCOD9503222
Probable space group: C M M A
;
_chemical_formula_sum "Si O2"
_cell_formula_units_Z 88
_cell_length_a 16.764092
_cell_length_b 8.976458
_cell_length_c 30.017878
_cell_angle_alpha 90.000000
_cell_angle_beta 90.000000
_cell_angle_gamma 90.000000
_cell_volume 4517.155353
_symmetry_space_group_name_H-M "C M M A"
_symmetry_group_IT_number 67
_symmetry_cell_setting 'orthorhombic'
loop_
_space_group_symop_operation_xyz
x,y,z
-x,1/2-y,z
x,-y,-z
-x,1/2+y,-z
-x,-y,-z
x,1/2+y,-z
-x,y,z
x,1/2-y,z
1/2+x,1/2+y,z
1/2-x,-y,z
1/2+x,1/2-y,-z
1/2-x,y,-z
1/2-x,1/2-y,-z
1/2+x,y,-z
1/2-x,1/2+y,z
1/2+x,-y,z
loop_
_atom_site_type_symbol
_atom_site_label
_atom_site_fract_x
_atom_site_fract_y
_atom_site_fract_z
Si Si1 0.593038 0.579540 0.286235
Si Si2 0.163733 0.428620 0.900384
Si Si3 0.000000 0.069269 0.951079
Si Si4 0.164574 0.428092 0.795867
Si Si5 0.404910 0.581761 0.456012
Si Si6 0.165011 0.072877 0.627936
O O1 0.500000 0.582836 0.297544
O O2 0.623131 0.750000 0.285203
O O3 0.604517 0.503397 0.238403
O O4 0.636732 0.486540 0.324220
O O5 0.171967 0.250000 0.905276
O O6 0.250000 0.500000 0.912939
O O7 0.149322 0.460681 0.847946
O O8 0.083364 0.475005 0.926676
O O9 0.000000 0.250000 0.952729
O O10 0.000000 0.000000 0.000000
O O11 0.165918 0.250000 0.790294
O O12 0.250000 0.500000 0.784946
O O13 0.372223 0.500000 0.500000
O O14 0.500000 0.593424 0.461664
O O15 0.372755 0.750000 0.451449
O O16 0.389801 0.487809 0.411721
O O17 0.168178 0.250000 0.627966
O O18 0.250000 0.000000 0.618856
#
# Coordination Sequence:
#
# PCOD9503222 Si02
#       6
#    16  16   8  16  16  16
#     4  11  24  40  58  84 118 153 191 238 289 346
#     4   9  20  38  61  87 121 160 203 253 308 366
#     4  10  22  40  60  88 122 162 206 256 309 366
#     4  10  20  36  60  86 116 153 194 241 293 353
#     4  10  21  39  63  90 119 150 187 234 287 344
#     4  12  25  41  61  84 114 152 194 239 288 345
#
# _framework density 19.481286999999998
#
# number of rings (size 3 to 8) (size 9 to 14) (size 15 to 20)
#    0.000    1.636    0.000    4.364    1.273    6.909 
#    0.000    3.636    0.000    0.000    0.000    0.000 
#    0.000    0.000    0.000    0.000    0.000    0.000 
#
# Total GULP energy -245724.425017 kJ/mol
# GULP energy per Si atom -5584.646023 kJ/mol
# Density = 1.943695 g / cm^3
# Si number density = 19.481287 Si / 1000 Ang^3
#
#
#
# Elastic Constant Matrix: (Units=GPa)
#
#
# Indices 1 2 3 4 5 6 
#
# 1 65.9064 35.9423 37.4698 0.0000 0.0000 0.0000
# 2 35.9423 134.3089 51.0943 0.0000 0.0000 0.0000
# 3 37.4698 51.0943 84.5107 0.0000 0.0000 0.0000
# 4 0.0000 0.0000 0.0000 29.9286 0.0000 0.0000
# 5 0.0000 0.0000 0.0000 0.0000 45.8168 0.0000
# 6 0.0000 0.0000 0.0000 0.0000 0.0000 20.8950
#
#
#
# Elastic Compliance Matrix: (Units=1/GPa)
#
#
# Indices 1 2 3 4 5 6 
#
# 1 0.021015 -0.002700 -0.007685 0.000000 0.000000 0.000000
# 2 -0.002700 0.010016 -0.004859 0.000000 0.000000 0.000000
# 3 -0.007685 -0.004859 0.018178 0.000000 0.000000 0.000000
# 4 0.000000 0.000000 0.000000 0.033413 0.000000 0.000000
# 5 0.000000 0.000000 0.000000 0.000000 0.021826 0.000000
# 6 0.000000 0.000000 0.000000 0.000000 0.000000 0.047858
#
#
# Mechanical properties :
#
#
# Convention : Reuss Voigt Hill
#
# Bulk Modulus (GPa) = 53.41506 59.30431 56.35968
# Shear Modulus (GPa) = 26.45030 30.00939 28.22984
#
# Velocity S-wave (km/s) = 3.68873 3.92908 3.81080
# Velocity P-wave (km/s) = 6.75430 7.14782 6.95384
#
# Compressibility (1/GPa) = 0.01872131
#
# Stress axis : x y z
#
# Youngs Moduli (GPa) = 47.58577 99.83558 55.01294
#
# Poissons Ratio (x) = 0.26958 0.42276
# Poissons Ratio (y) = 0.12849 0.26729
# Poissons Ratio (z) = 0.36569 0.48506
#
# Static dielectric constant tensor:
#      x y z
#    x 1.751630 0.000000 0.000000 
#    y 0.000000 1.669990 0.000000 
#    z 0.000000 0.000000 1.653140 
# 
# From -- ./inp_files/45792.got.cif
#   From: 2010.05.17/outbox.cif.g08.bks.cpg/sg67_23_cif.got.tgz:45792.got - 2010.06.03 18:28:57.
