data_PCOD9503923
_publ_section_title
;
Structure prediction by ZEFSAII (Michael W. Deem and Ramdas Pophale) SiO2 
 PCOD9503923
Probable space group: C M M A
;
_chemical_formula_sum "Si O2"
_cell_formula_units_Z 104
_cell_length_a 8.349106
_cell_length_b 31.128040
_cell_length_c 20.755300
_cell_angle_alpha 90.000000
_cell_angle_beta 90.000000
_cell_angle_gamma 90.000000
_cell_volume 5394.122014
_symmetry_space_group_name_H-M "C M M A"
_symmetry_group_IT_number 67
_symmetry_cell_setting 'orthorhombic'
loop_
_space_group_symop_operation_xyz
x,y,z
-x,1/2-y,z
x,-y,-z
-x,1/2+y,-z
-x,-y,-z
x,1/2+y,-z
-x,y,z
x,1/2-y,z
1/2+x,1/2+y,z
1/2-x,-y,z
1/2+x,1/2-y,-z
1/2-x,y,-z
1/2-x,1/2-y,-z
1/2+x,y,-z
1/2-x,1/2+y,z
1/2+x,-y,z
loop_
_atom_site_type_symbol
_atom_site_label
_atom_site_fract_x
_atom_site_fract_y
_atom_site_fract_z
Si Si1 0.310875 0.667886 0.855175
Si Si2 0.307981 0.889521 0.316439
Si Si3 0.690298 0.799362 0.280680
Si Si4 0.192785 0.580541 0.073197
Si Si5 0.190729 0.547888 0.427601
Si Si6 0.306967 0.750000 0.071894
Si Si7 0.308434 0.545844 0.792438
O O1 0.500000 0.662597 0.840725
O O2 0.220622 0.680342 0.789748
O O3 0.259512 0.627031 0.897709
O O4 0.273918 0.708792 0.897523
O O5 0.500000 0.888559 0.312899
O O6 0.249107 0.839927 0.322817
O O7 0.254750 0.917967 0.376655
O O8 0.248171 0.914745 0.252339
O O9 0.500000 0.795653 0.290939
O O10 0.755052 0.750000 0.285512
O O11 0.246960 0.550503 0.132880
O O12 0.000000 0.578889 0.070466
O O13 0.250000 0.572940 0.000000
O O14 0.250000 0.500000 0.410568
O O15 0.250000 0.557014 0.500000
O O16 0.000000 0.547866 0.426677
O O17 0.500000 0.750000 0.080121
O O18 0.250000 0.750000 0.000000
O O19 0.500000 0.546665 0.792035
O O20 0.250000 0.500000 0.766540
#
# Coordination Sequence:
#
# PCOD9503923 Si02
#       7
#    16  16  16  16  16   8  16
#     4  11  21  36  55  78 105 141 184 238 299 358
#     4  11  22  38  62  91 124 162 199 241 295 348
#     4  10  21  37  59  87 117 153 196 244 293 349
#     4  10  23  39  56  76 105 141 188 241 298 359
#     4  11  22  39  64  96 134 169 204 243 288 345
#     4  12  24  36  50  74 104 138 181 234 297 364
#     4  11  23  40  58  83 113 148 195 247 299 357
#
# _framework density 19.280246000000002
#
# number of rings (size 3 to 8) (size 9 to 14) (size 15 to 20)
#    0.000    1.231    2.308    4.846    0.000    4.615 
#    0.000    1.538    0.000    0.462    0.000    0.000 
#    0.000    0.000    0.000    0.000    0.000    0.000 
#
# Total GULP energy -290095.175178 kJ/mol
# GULP energy per Si atom -5578.753369 kJ/mol
# Density = 1.923636 g / cm^3
# Si number density = 19.280246 Si / 1000 Ang^3
#
#
#
# Elastic Constant Matrix: (Units=GPa)
#
#
# Indices 1 2 3 4 5 6 
#
# 1 44.1798 22.4904 9.5374 0.0000 0.0000 0.0000
# 2 22.4904 151.3848 61.5791 0.0000 0.0000 0.0000
# 3 9.5374 61.5791 97.8401 0.0000 0.0000 0.0000
# 4 0.0000 0.0000 0.0000 41.6655 0.0000 0.0000
# 5 0.0000 0.0000 0.0000 0.0000 -0.2315 0.0000
# 6 0.0000 0.0000 0.0000 0.0000 0.0000 11.7845
#
#
#
# Elastic Compliance Matrix: (Units=1/GPa)
#
#
# Indices 1 2 3 4 5 6 
#
# 1 0.024488 -0.003585 -0.000131 0.000000 0.000000 0.000000
# 2 -0.003585 0.009404 -0.005569 0.000000 0.000000 0.000000
# 3 -0.000131 -0.005569 0.013739 0.000000 0.000000 0.000000
# 4 0.000000 0.000000 0.000000 0.024001 0.000000 0.000000
# 5 0.000000 0.000000 0.000000 0.000000 -4.319654 0.000000
# 6 0.000000 0.000000 0.000000 0.000000 0.000000 0.084857
#
#
# Mechanical properties :
#
#
# Convention : Reuss Voigt Hill
#
# Bulk Modulus (GPa) = 34.41073 53.40205 43.90639
# Shear Modulus (GPa) = -1.20922 23.96355 11.37717
#
# Velocity S-wave (km/s) = -0.79281 3.52931 2.43182
# Velocity P-wave (km/s) = 4.12897 6.66078 5.54141
#
# Compressibility (1/GPa) = 0.02906070
#
# Stress axis : x y z
#
# Youngs Moduli (GPa) = 40.83647 106.34245 72.78771
#
# Poissons Ratio (x) = 0.38122 0.00952
# Poissons Ratio (y) = 0.14639 0.40536
# Poissons Ratio (z) = 0.00534 0.59222
#
# Static dielectric constant tensor:
#      x y z
#    x 1.672700 0.000000 0.000000 
#    y 0.000000 1.674700 0.000000 
#    z 0.000000 0.000000 1.669940 
# 
# From -- ./inp_files/37529.got.cif
#   From: 2010.05.17/outbox.cif.g08.bks.cpg/sg67_19_cif.got.tgz:37529.got - 2010.06.03 18:28:57.
