data_PCOD9503954
_publ_section_title
;
Structure prediction by ZEFSAII (Michael W. Deem and Ramdas Pophale) SiO2 
 PCOD9503954
Probable space group: C M M A
;
_chemical_formula_sum "Si O2"
_cell_formula_units_Z 88
_cell_length_a 20.441253
_cell_length_b 15.634710
_cell_length_c 11.490157
_cell_angle_alpha 90.000000
_cell_angle_beta 90.000000
_cell_angle_gamma 90.000000
_cell_volume 3672.174466
_symmetry_space_group_name_H-M "C M M A"
_symmetry_group_IT_number 67
_symmetry_cell_setting 'orthorhombic'
loop_
_space_group_symop_operation_xyz
x,y,z
-x,1/2-y,z
x,-y,-z
-x,1/2+y,-z
-x,-y,-z
x,1/2+y,-z
-x,y,z
x,1/2-y,z
1/2+x,1/2+y,z
1/2-x,-y,z
1/2+x,1/2-y,-z
1/2-x,y,-z
1/2-x,1/2-y,-z
1/2+x,y,-z
1/2-x,1/2+y,z
1/2+x,-y,z
loop_
_atom_site_type_symbol
_atom_site_label
_atom_site_fract_x
_atom_site_fract_y
_atom_site_fract_z
Si Si1 0.129310 0.915265 0.542633
Si Si2 0.745949 0.152638 0.861988
Si Si3 0.577450 0.152492 0.317940
Si Si4 0.071905 0.478727 0.881870
Si Si5 0.096121 0.842284 0.777798
Si Si6 0.250000 0.000000 0.310573
O O1 0.128314 0.862026 0.423717
O O2 0.097850 0.855736 0.639448
O O3 0.193612 0.956683 0.607304
O O4 0.091062 0.000000 0.500000
O O5 0.772927 0.250000 0.843222
O O6 0.669791 0.157273 0.826607
O O7 0.770512 0.076737 0.777289
O O8 0.750000 0.134042 0.000000
O O9 0.500000 0.137328 0.351860
O O10 0.580859 0.250000 0.278820
O O11 0.593662 0.088373 0.213543
O O12 0.066373 0.570751 0.823620
O O13 0.000000 0.444354 0.916525
O O14 0.110522 0.500000 0.000000
O O15 0.068615 0.750000 0.809041
#
# Coordination Sequence:
#
# PCOD9503954 Si02
#       6
#    16  16  16  16  16   8
#     4  11  21  39  63  92 129 172 216 263 319 386
#     4   9  19  38  62  91 127 170 221 273 326 386
#     4  10  22  42  69  99 131 170 217 270 330 396
#     4  10  22  40  64  95 128 164 210 266 329 395
#     4  10  21  37  61  92 127 163 210 267 320 383
#     4  10  22  36  64  96 131 176 223 272 330 391
#
# _framework density 23.964003000000002
#
# number of rings (size 3 to 8) (size 9 to 14) (size 15 to 20)
#    0.000    2.000    1.818    1.091    0.000    5.818 
#    0.000    3.636    0.000    7.636    0.000    0.000 
#    0.000    0.000    0.000    0.000    0.000    0.000 
#
# Total GULP energy -245280.439714 kJ/mol
# GULP energy per Si atom -5574.555448 kJ/mol
# Density = 2.390946 g / cm^3
# Si number density = 23.964003 Si / 1000 Ang^3
#
#
#
# Elastic Constant Matrix: (Units=GPa)
#
#
# Indices 1 2 3 4 5 6 
#
# 1 96.5685 33.8404 31.6395 0.0000 0.0000 0.0000
# 2 33.8404 205.0427 85.2424 0.0000 0.0000 0.0000
# 3 31.6395 85.2424 208.3114 0.0000 0.0000 0.0000
# 4 0.0000 0.0000 0.0000 -28.4694 0.0000 0.0000
# 5 0.0000 0.0000 0.0000 0.0000 12.5404 0.0000
# 6 0.0000 0.0000 0.0000 0.0000 0.0000 34.7813
#
#
#
# Elastic Compliance Matrix: (Units=1/GPa)
#
#
# Indices 1 2 3 4 5 6 
#
# 1 0.011211 -0.001377 -0.001140 0.000000 0.000000 0.000000
# 2 -0.001377 0.006046 -0.002265 0.000000 0.000000 0.000000
# 3 -0.001140 -0.002265 0.005900 0.000000 0.000000 0.000000
# 4 0.000000 0.000000 0.000000 -0.035125 0.000000 0.000000
# 5 0.000000 0.000000 0.000000 0.000000 0.079742 0.000000
# 6 0.000000 0.000000 0.000000 0.000000 0.000000 0.028751
#
#
# Mechanical properties :
#
#
# Convention : Reuss Voigt Hill
#
# Bulk Modulus (GPa) = 73.55461 90.15192 81.85326
# Shear Modulus (GPa) = 45.20013 27.71713 36.45863
#
# Velocity S-wave (km/s) = 4.34772 3.40459 3.90473
# Velocity P-wave (km/s) = 7.48090 7.29084 7.38649
#
# Compressibility (1/GPa) = 0.01359534
#
# Stress axis : x y z
#
# Youngs Moduli (GPa) = 89.19754 165.40376 169.48020
#
# Poissons Ratio (x) = 0.22769 0.19312
# Poissons Ratio (y) = 0.12279 0.38386
# Poissons Ratio (z) = 0.10164 0.37462
#
# Static dielectric constant tensor:
#      x y z
#    x 2.050240 0.000000 0.000000 
#    y 0.000000 1.931660 0.000000 
#    z 0.000000 0.000000 1.960550 
# 
# From -- ./inp_files/21746.got.cif
#   From: 2010.05.17/outbox.cif.g08.bks.cpg/sg67_11_cif.got.tgz:21746.got - 2010.06.03 18:28:57.
