data_PCOD9503740
_publ_section_title
;
Structure prediction by ZEFSAII (Michael W. Deem and Ramdas Pophale) SiO2 
 PCOD9503740
Probable space group: C M M A
;
_chemical_formula_sum "Si O2"
_cell_formula_units_Z 96
_cell_length_a 20.545267
_cell_length_b 8.830669
_cell_length_c 30.303341
_cell_angle_alpha 90.000000
_cell_angle_beta 90.000000
_cell_angle_gamma 90.000000
_cell_volume 5497.888260
_symmetry_space_group_name_H-M "C M M A"
_symmetry_group_IT_number 67
_symmetry_cell_setting 'orthorhombic'
loop_
_space_group_symop_operation_xyz
x,y,z
-x,1/2-y,z
x,-y,-z
-x,1/2+y,-z
-x,-y,-z
x,1/2+y,-z
-x,y,z
x,1/2-y,z
1/2+x,1/2+y,z
1/2-x,-y,z
1/2+x,1/2-y,-z
1/2-x,y,-z
1/2-x,1/2-y,-z
1/2+x,y,-z
1/2-x,1/2+y,z
1/2+x,-y,z
loop_
_atom_site_type_symbol
_atom_site_label
_atom_site_fract_x
_atom_site_fract_y
_atom_site_fract_z
Si Si1 0.075771 0.068826 0.548234
Si Si2 0.820621 0.068450 0.384807
Si Si3 0.925200 0.067857 0.783268
Si Si4 0.179919 0.069359 0.282103
Si Si5 0.819740 0.569036 0.951618
Si Si6 0.923889 0.431595 0.885911
O O1 0.083113 0.250000 0.546755
O O2 0.000000 0.034271 0.558658
O O3 0.089570 0.000000 0.500000
O O4 0.124170 0.998910 0.583910
O O5 0.818510 0.250000 0.388848
O O6 0.833514 0.029491 0.333386
O O7 0.750000 0.000000 0.396247
O O8 0.921164 0.250000 0.779450
O O9 0.911424 0.030391 0.834520
O O10 0.000000 0.023727 0.773895
O O11 0.875197 0.992804 0.750024
O O12 0.183494 0.250000 0.279001
O O13 0.250000 0.000000 0.270447
O O14 0.815046 0.750000 0.954539
O O15 0.750000 0.500000 0.937629
O O16 0.875516 0.518415 0.917987
O O17 0.833529 0.500000 0.000000
O O18 0.915071 0.250000 0.891003
O O19 0.000000 0.464588 0.895060
#
# Coordination Sequence:
#
# PCOD9503740 Si02
#       6
#    16  16  16  16  16  16
#     4  10  21  37  57  81 109 141 177 218 264 315
#     4  10  21  37  56  79 108 141 179 222 267 315
#     4   9  19  36  57  80 108 142 178 219 266 315
#     4  10  21  36  55  79 108 142 179 222 267 314
#     4  11  22  37  57  80 108 141 178 220 266 316
#     4   9  19  37  58  80 108 141 178 220 265 314
#
# _framework density 17.461248999999999
#
# number of rings (size 3 to 8) (size 9 to 14) (size 15 to 20)
#    0.000    2.167    0.000    4.500    0.000    6.333 
#    0.000    6.667    0.000    0.000    0.000    0.000 
#    0.000    0.000    0.000    0.000    0.000    0.000 
#
# Total GULP energy -268023.607189 kJ/mol
# GULP energy per Si atom -5583.825150 kJ/mol
# Density = 1.742151 g / cm^3
# Si number density = 17.461249 Si / 1000 Ang^3
#
#
#
# Elastic Constant Matrix: (Units=GPa)
#
#
# Indices 1 2 3 4 5 6 
#
# 1 151.6246 79.6576 120.1464 0.0000 0.0000 0.0000
# 2 79.6576 86.5478 69.1639 0.0000 0.0000 0.0000
# 3 120.1464 69.1639 111.7037 0.0000 0.0000 0.0000
# 4 0.0000 0.0000 0.0000 32.4100 0.0000 0.0000
# 5 0.0000 0.0000 0.0000 0.0000 43.8559 0.0000
# 6 0.0000 0.0000 0.0000 0.0000 0.0000 33.4679
#
#
#
# Elastic Compliance Matrix: (Units=1/GPa)
#
#
# Indices 1 2 3 4 5 6 
#
# 1 0.045949 -0.005534 -0.045995 0.000000 0.000000 0.000000
# 2 -0.005534 0.023538 -0.008621 0.000000 0.000000 0.000000
# 3 -0.045995 -0.008621 0.063762 0.000000 0.000000 0.000000
# 4 0.000000 0.000000 0.000000 0.030855 0.000000 0.000000
# 5 0.000000 0.000000 0.000000 0.000000 0.022802 0.000000
# 6 0.000000 0.000000 0.000000 0.000000 0.000000 0.029879
#
#
# Mechanical properties :
#
#
# Convention : Reuss Voigt Hill
#
# Bulk Modulus (GPa) = 77.23812 98.64577 87.94195
# Shear Modulus (GPa) = 14.64550 27.34065 20.99307
#
# Velocity S-wave (km/s) = 2.89925 3.96130 3.47113
# Velocity P-wave (km/s) = 7.45235 8.80564 8.15711
#
# Compressibility (1/GPa) = 0.01294697
#
# Stress axis : x y z
#
# Youngs Moduli (GPa) = 21.76323 42.48513 15.68335
#
# Poissons Ratio (x) = 0.23513 0.72136
# Poissons Ratio (y) = 0.12044 0.13521
# Poissons Ratio (z) = 1.00100 0.36628
#
# Static dielectric constant tensor:
#      x y z
#    x 1.567000 0.000000 0.000000 
#    y 0.000000 1.582280 0.000000 
#    z 0.000000 0.000000 1.571540 
# 
# From -- ./inp_files/43416.got.cif
#   From: 2010.05.17/outbox.cif.g08.bks.cpg/sg67_22_cif.got.tgz:43416.got - 2010.06.03 18:28:57.
