data_PCOD9503745
_publ_section_title
;
Structure prediction by ZEFSAII (Michael W. Deem and Ramdas Pophale) SiO2 
 PCOD9503745
Probable space group: C M M A
;
_chemical_formula_sum "Si O2"
_cell_formula_units_Z 96
_cell_length_a 17.105175
_cell_length_b 14.339501
_cell_length_c 21.684357
_cell_angle_alpha 90.000000
_cell_angle_beta 90.000000
_cell_angle_gamma 90.000000
_cell_volume 5318.732016
_symmetry_space_group_name_H-M "C M M A"
_symmetry_group_IT_number 67
_symmetry_cell_setting 'orthorhombic'
loop_
_space_group_symop_operation_xyz
x,y,z
-x,1/2-y,z
x,-y,-z
-x,1/2+y,-z
-x,-y,-z
x,1/2+y,-z
-x,y,z
x,1/2-y,z
1/2+x,1/2+y,z
1/2-x,-y,z
1/2+x,1/2-y,-z
1/2-x,y,-z
1/2-x,1/2-y,-z
1/2+x,y,-z
1/2-x,1/2+y,z
1/2+x,-y,z
loop_
_atom_site_type_symbol
_atom_site_label
_atom_site_fract_x
_atom_site_fract_y
_atom_site_fract_z
Si Si1 0.408745 0.487976 0.736594
Si Si2 0.408246 0.989294 0.071237
Si Si3 0.093784 0.141020 0.501149
Si Si4 0.656702 0.498644 0.599306
Si Si5 0.365076 0.141426 0.167831
Si Si6 0.177151 0.641030 0.833493
O O1 0.500000 0.463499 0.739041
O O2 0.379977 0.495281 0.666860
O O3 0.396166 0.585049 0.773046
O O4 0.359209 0.411913 0.774731
O O5 0.500000 0.963958 0.074572
O O6 0.396255 0.085527 0.108501
O O7 0.357648 0.912684 0.107439
O O8 0.385947 0.000000 0.000000
O O9 0.112648 0.250000 0.501649
O O10 0.127181 0.088012 0.560770
O O11 0.000000 0.129814 0.500163
O O12 0.129107 0.089082 0.441782
O O13 0.750000 0.500000 0.603236
O O14 0.386419 0.250000 0.167962
O O15 0.270860 0.133206 0.167663
O O16 0.156423 0.750000 0.833937
#
# Coordination Sequence:
#
# PCOD9503745 Si02
#       6
#    16  16  16  16  16  16
#     4  11  22  37  58  81 109 144 181 223 270 321
#     4  10  21  36  55  80 110 144 181 222 267 318
#     4  10  21  38  59  83 112 144 181 225 270 319
#     4  11  22  37  58  82 112 146 181 224 269 319
#     4  10  21  37  57  81 109 141 179 224 272 322
#     4  10  21  37  57  81 109 141 179 224 272 322
#
# _framework density 18.049415
#
# number of rings (size 3 to 8) (size 9 to 14) (size 15 to 20)
#    0.000    1.667    0.000    8.000    0.000    7.333 
#    0.000    3.333    0.000    0.000    0.000    0.000 
#    0.000    0.000    0.000    0.000    0.000    0.000 
#
# Total GULP energy -268219.678000 kJ/mol
# GULP energy per Si atom -5587.909958 kJ/mol
# Density = 1.800833 g / cm^3
# Si number density = 18.049415 Si / 1000 Ang^3
#
#
#
# Elastic Constant Matrix: (Units=GPa)
#
#
# Indices 1 2 3 4 5 6 
#
# 1 51.8555 5.7903 18.3793 0.0000 0.0000 0.0000
# 2 5.7903 99.8446 39.1689 0.0000 0.0000 0.0000
# 3 18.3793 39.1689 154.5583 0.0000 0.0000 0.0000
# 4 0.0000 0.0000 0.0000 1.9849 0.0000 0.0000
# 5 0.0000 0.0000 0.0000 0.0000 33.3994 0.0000
# 6 0.0000 0.0000 0.0000 0.0000 0.0000 28.0874
#
#
#
# Elastic Compliance Matrix: (Units=1/GPa)
#
#
# Indices 1 2 3 4 5 6 
#
# 1 0.020139 -0.000254 -0.002331 0.000000 0.000000 0.000000
# 2 -0.000254 0.011124 -0.002789 0.000000 0.000000 0.000000
# 3 -0.002331 -0.002789 0.007454 0.000000 0.000000 0.000000
# 4 0.000000 0.000000 0.000000 0.503813 0.000000 0.000000
# 5 0.000000 0.000000 0.000000 0.000000 0.029941 0.000000
# 6 0.000000 0.000000 0.000000 0.000000 0.000000 0.035603
#
#
# Mechanical properties :
#
#
# Convention : Reuss Voigt Hill
#
# Bulk Modulus (GPa) = 35.75171 48.10393 41.92782
# Shear Modulus (GPa) = 7.95997 28.88899 18.42448
#
# Velocity S-wave (km/s) = 2.10230 4.00503 3.19843
# Velocity P-wave (km/s) = 5.07381 6.93513 6.07617
#
# Compressibility (1/GPa) = 0.02797069
#
# Stress axis : x y z
#
# Youngs Moduli (GPa) = 49.65571 89.89244 134.15622
#
# Poissons Ratio (x) = 0.02280 0.31265
# Poissons Ratio (y) = 0.01259 0.37417
# Poissons Ratio (z) = 0.11572 0.25071
#
# Static dielectric constant tensor:
#      x y z
#    x 1.616640 0.000000 0.000000 
#    y 0.000000 1.602740 0.000000 
#    z 0.000000 0.000000 1.583960 
# 
# From -- ./inp_files/38405.got.cif
#   From: 2010.05.17/outbox.cif.g08.bks.cpg/sg67_20_cif.got.tgz:38405.got - 2010.06.03 18:28:57.
