data_PCOD9503175
_publ_section_title
;
Structure prediction by ZEFSAII (Michael W. Deem and Ramdas Pophale) SiO2 
 PCOD9503175
Probable space group: C M M A
;
_chemical_formula_sum "Si O2"
_cell_formula_units_Z 80
_cell_length_a 20.081486
_cell_length_b 17.348453
_cell_length_c 11.623798
_cell_angle_alpha 90.000000
_cell_angle_beta 90.000000
_cell_angle_gamma 90.000000
_cell_volume 4049.530318
_symmetry_space_group_name_H-M "C M M A"
_symmetry_group_IT_number 67
_symmetry_cell_setting 'orthorhombic'
loop_
_space_group_symop_operation_xyz
x,y,z
-x,1/2-y,z
x,-y,-z
-x,1/2+y,-z
-x,-y,-z
x,1/2+y,-z
-x,y,z
x,1/2-y,z
1/2+x,1/2+y,z
1/2-x,-y,z
1/2+x,1/2-y,-z
1/2-x,y,-z
1/2-x,1/2-y,-z
1/2+x,y,-z
1/2-x,1/2+y,z
1/2+x,-y,z
loop_
_atom_site_type_symbol
_atom_site_label
_atom_site_fract_x
_atom_site_fract_y
_atom_site_fract_z
Si Si1 0.171137 0.334095 0.515488
Si Si2 0.645413 0.625931 0.257964
Si Si3 0.640215 0.052833 0.281188
Si Si4 0.000000 0.500311 0.362326
Si Si5 0.223613 0.837761 0.123913
Si Si6 0.000000 0.339103 0.247056
O O1 0.148488 0.250000 0.561551
O O2 0.250000 0.329884 0.500000
O O3 0.139153 0.347538 0.390604
O O4 0.160799 0.404578 0.601351
O O5 0.662837 0.535023 0.261966
O O6 0.710482 0.663638 0.203312
O O7 0.575073 0.646215 0.194806
O O8 0.562262 0.040436 0.301859
O O9 0.669150 0.106436 0.180600
O O10 0.000000 0.500000 0.500000
O O11 0.000000 0.409480 0.335734
O O12 0.198268 0.750000 0.112855
O O13 0.250000 0.864804 0.000000
O O14 0.000000 0.250000 0.283652
#
# Coordination Sequence:
#
# PCOD9503175 Si02
#       6
#    16  16  16   8  16   8
#     4  11  21  33  55  86 121 155 195 242 298 372
#     4  11  22  37  60  89 119 153 201 253 309 377
#     4  11  22  38  61  88 123 161 202 253 317 378
#     4  10  22  40  59  93 129 165 205 257 317 398
#     4  11  24  42  62  86 119 159 207 262 316 374
#     4  10  20  36  59  83 115 157 197 242 299 362
#
# _framework density 19.755375999999998
#
# number of rings (size 3 to 8) (size 9 to 14) (size 15 to 20)
#    0.000    1.200    2.000    6.000    0.000    2.400 
#    0.000    4.000    0.000    6.000    0.000    0.000 
#    0.000    0.000    0.000    0.000    0.000    0.000 
#
# Total GULP energy -222925.673203 kJ/mol
# GULP energy per Si atom -5573.141830 kJ/mol
# Density = 1.971041 g / cm^3
# Si number density = 19.755376 Si / 1000 Ang^3
#
#
#
# Elastic Constant Matrix: (Units=GPa)
#
#
# Indices 1 2 3 4 5 6 
#
# 1 91.4587 50.7661 25.8550 0.0000 0.0000 0.0000
# 2 50.7661 136.2338 32.0141 0.0000 0.0000 0.0000
# 3 25.8550 32.0141 78.8600 0.0000 0.0000 0.0000
# 4 0.0000 0.0000 0.0000 -234.1537 0.0000 0.0000
# 5 0.0000 0.0000 0.0000 0.0000 10.7463 0.0000
# 6 0.0000 0.0000 0.0000 0.0000 0.0000 30.3919
#
#
#
# Elastic Compliance Matrix: (Units=1/GPa)
#
#
# Indices 1 2 3 4 5 6 
#
# 1 0.014322 -0.004680 -0.002796 0.000000 0.000000 0.000000
# 2 -0.004680 0.009644 -0.002381 0.000000 0.000000 0.000000
# 3 -0.002796 -0.002381 0.014564 0.000000 0.000000 0.000000
# 4 0.000000 0.000000 0.000000 -0.004271 0.000000 0.000000
# 5 0.000000 0.000000 0.000000 0.000000 0.093055 0.000000
# 6 0.000000 0.000000 0.000000 0.000000 0.000000 0.032904
#
#
# Mechanical properties :
#
#
# Convention : Reuss Voigt Hill
#
# Bulk Modulus (GPa) = 53.14385 58.20254 55.67319
# Shear Modulus (GPa) = 26.85256 -25.40861 0.72198
#
# Velocity S-wave (km/s) = 3.69081 -3.59020 0.60519
# Velocity P-wave (km/s) = 6.71730 3.51277 5.36011
#
# Compressibility (1/GPa) = 0.01881685
#
# Stress axis : x y z
#
# Youngs Moduli (GPa) = 69.82297 103.69486 68.66375
#
# Poissons Ratio (x) = 0.48529 0.19196
# Poissons Ratio (y) = 0.32677 0.16346
# Poissons Ratio (z) = 0.19520 0.24685
#
# Static dielectric constant tensor:
#      x y z
#    x 1.708090 0.000000 0.000000 
#    y 0.000000 1.747970 0.000000 
#    z 0.000000 0.000000 1.695600 
# 
# From -- ./inp_files/20563.got.cif
#   From: 2010.05.17/outbox.cif.g08.bks.cpg/sg67_11_cif.got.tgz:20563.got - 2010.06.03 18:28:57.
