data_PCOD9503235
_publ_section_title
;
Structure prediction by ZEFSAII (Michael W. Deem and Ramdas Pophale) SiO2 
 PCOD9503235
Probable space group: C M M A
;
_chemical_formula_sum "Si O2"
_cell_formula_units_Z 96
_cell_length_a 20.062140
_cell_length_b 13.597777
_cell_length_c 16.314861
_cell_angle_alpha 90.000000
_cell_angle_beta 90.000000
_cell_angle_gamma 90.000000
_cell_volume 4450.702334
_symmetry_space_group_name_H-M "C M M A"
_symmetry_group_IT_number 67
_symmetry_cell_setting 'orthorhombic'
loop_
_space_group_symop_operation_xyz
x,y,z
-x,1/2-y,z
x,-y,-z
-x,1/2+y,-z
-x,-y,-z
x,1/2+y,-z
-x,y,z
x,1/2-y,z
1/2+x,1/2+y,z
1/2-x,-y,z
1/2+x,1/2-y,-z
1/2-x,y,-z
1/2-x,1/2-y,-z
1/2+x,y,-z
1/2-x,1/2+y,z
1/2+x,-y,z
loop_
_atom_site_type_symbol
_atom_site_label
_atom_site_fract_x
_atom_site_fract_y
_atom_site_fract_z
Si Si1 0.788185 0.631225 0.859585
Si Si2 0.768674 0.865638 0.667942
Si Si3 0.074926 0.370311 0.057526
Si Si4 0.856060 0.869695 0.108275
Si Si5 0.143366 0.014257 0.595900
Si Si6 0.923863 0.363608 0.724550
O O1 0.790944 0.750000 0.868182
O O2 0.773270 0.610482 0.764335
O O3 0.860641 0.596194 0.889720
O O4 0.720512 0.600132 0.905925
O O5 0.762248 0.750000 0.659042
O O6 0.707285 0.917579 0.621054
O O7 0.836275 0.908133 0.630259
O O8 0.073880 0.250000 0.061908
O O9 0.000000 0.403010 0.080207
O O10 0.093845 0.397260 0.964067
O O11 0.856363 0.750000 0.108881
O O12 0.879514 0.897544 0.199097
O O13 0.085762 0.066755 0.646808
O O14 0.133391 0.000000 0.500000
O O15 0.905739 0.250000 0.704326
O O16 0.000000 0.363665 0.752199
#
# Coordination Sequence:
#
# PCOD9503235 Si02
#       6
#    16  16  16  16  16  16
#     4   9  16  28  49  76 112 154 198 246 294 350
#     4  10  20  37  59  86 117 152 196 246 302 366
#     4   9  16  25  42  76 118 156 198 244 292 351
#     4   9  15  27  49  79 113 153 203 253 295 343
#     4  11  23  37  59  89 119 150 193 253 311 369
#     4  10  20  36  60  88 121 162 204 251 306 359
#
# _framework density 21.569628999999999
#
# number of rings (size 3 to 8) (size 9 to 14) (size 15 to 20)
#    0.000    2.333    1.667    2.500    0.000    6.333 
#    0.000    0.833    0.000    2.500    0.000    2.333 
#    0.000    0.000    0.000    0.000    0.000    0.000 
#
# Total GULP energy -268158.841887 kJ/mol
# GULP energy per Si atom -5586.642539 kJ/mol
# Density = 2.152054 g / cm^3
# Si number density = 21.569629 Si / 1000 Ang^3
#
#
#
# Elastic Constant Matrix: (Units=GPa)
#
#
# Indices 1 2 3 4 5 6 
#
# 1 143.7488 28.9030 57.7849 0.0000 0.0000 0.0000
# 2 28.9030 72.4834 25.0209 0.0000 0.0000 0.0000
# 3 57.7849 25.0209 107.8880 0.0000 0.0000 0.0000
# 4 0.0000 0.0000 0.0000 29.3906 0.0000 0.0000
# 5 0.0000 0.0000 0.0000 0.0000 -19.0620 0.0000
# 6 0.0000 0.0000 0.0000 0.0000 0.0000 25.3545
#
#
#
# Elastic Compliance Matrix: (Units=1/GPa)
#
#
# Indices 1 2 3 4 5 6 
#
# 1 0.009158 -0.002129 -0.004411 0.000000 0.000000 0.000000
# 2 -0.002129 0.015492 -0.002452 0.000000 0.000000 0.000000
# 3 -0.004411 -0.002452 0.012200 0.000000 0.000000 0.000000
# 4 0.000000 0.000000 0.000000 0.034024 0.000000 0.000000
# 5 0.000000 0.000000 0.000000 0.000000 -0.052460 0.000000
# 6 0.000000 0.000000 0.000000 0.000000 0.000000 0.039441
#
#
# Mechanical properties :
#
#
# Convention : Reuss Voigt Hill
#
# Bulk Modulus (GPa) = 53.00950 60.83753 56.92351
# Shear Modulus (GPa) = 60.88012 21.29737 41.08874
#
# Velocity S-wave (km/s) = 5.31848 3.14567 4.36929
# Velocity P-wave (km/s) = 7.89584 6.43895 7.20431
#
# Compressibility (1/GPa) = 0.01886454
#
# Stress axis : x y z
#
# Youngs Moduli (GPa) = 109.19536 64.55028 81.96522
#
# Poissons Ratio (x) = 0.13743 0.36157
# Poissons Ratio (y) = 0.23248 0.20102
# Poissons Ratio (z) = 0.48169 0.15831
#
# Static dielectric constant tensor:
#      x y z
#    x 1.801810 0.000000 0.000000 
#    y 0.000000 1.862740 0.000000 
#    z 0.000000 0.000000 1.748260 
# 
# From -- ./inp_files/27237.got.cif
#   From: 2010.05.17/outbox.cif.g08.bks.cpg/sg67_14_cif.got.tgz:27237.got - 2010.06.03 18:28:57.
