data_PCOD9503224
_publ_section_title
;
Structure prediction by ZEFSAII (Michael W. Deem and Ramdas Pophale) SiO2 
 PCOD9503224
Probable space group: C M M A
;
_chemical_formula_sum "Si O2"
_cell_formula_units_Z 96
_cell_length_a 21.367261
_cell_length_b 19.011007
_cell_length_c 12.059232
_cell_angle_alpha 90.000000
_cell_angle_beta 90.000000
_cell_angle_gamma 90.000000
_cell_volume 4898.618599
_symmetry_space_group_name_H-M "C M M A"
_symmetry_group_IT_number 67
_symmetry_cell_setting 'orthorhombic'
loop_
_space_group_symop_operation_xyz
x,y,z
-x,1/2-y,z
x,-y,-z
-x,1/2+y,-z
-x,-y,-z
x,1/2+y,-z
-x,y,z
x,1/2-y,z
1/2+x,1/2+y,z
1/2-x,-y,z
1/2+x,1/2-y,-z
1/2-x,y,-z
1/2-x,1/2-y,-z
1/2+x,y,-z
1/2-x,1/2+y,z
1/2+x,-y,z
loop_
_atom_site_type_symbol
_atom_site_label
_atom_site_fract_x
_atom_site_fract_y
_atom_site_fract_z
Si Si1 0.318904 0.664696 0.962530
Si Si2 0.572988 0.061310 0.660274
Si Si3 0.925866 0.173630 0.522292
Si Si4 0.836543 0.670158 0.291296
Si Si5 0.311670 0.970419 0.624312
Si Si6 0.428465 0.666689 0.132075
O O1 0.317230 0.750000 0.965221
O O2 0.375167 0.645046 0.044814
O O3 0.250000 0.639704 0.000000
O O4 0.333722 0.646021 0.835390
O O5 0.500000 0.038222 0.648421
O O6 0.592316 0.107198 0.552144
O O7 0.576034 0.116838 0.760978
O O8 0.622893 0.998827 0.673950
O O9 0.901841 0.250000 0.479890
O O10 0.904048 0.169762 0.649336
O O11 0.000000 0.175136 0.514936
O O12 0.812082 0.750000 0.296987
O O13 0.802857 0.612947 0.367005
O O14 0.311554 0.000000 0.500000
O O15 0.250000 0.000000 0.683634
O O16 0.500000 0.660139 0.088623
O O17 0.419885 0.750000 0.160074
#
# Coordination Sequence:
#
# PCOD9503224 Si02
#       6
#    16  16  16  16  16  16
#     4   9  19  35  58  86 116 156 206 251 292 348
#     4  10  20  36  60  86 118 161 201 240 301 363
#     4   9  17  31  55  89 122 152 195 245 292 355
#     4  10  21  39  60  85 116 156 203 244 292 354
#     4  11  24  41  58  87 125 156 191 245 302 359
#     4   9  18  34  58  89 123 158 201 252 299 350
#
# _framework density 19.597360999999999
#
# number of rings (size 3 to 8) (size 9 to 14) (size 15 to 20)
#    0.000    2.333    1.667    0.500    2.333    3.667 
#    0.000    6.667    0.000    2.000    0.000    0.000 
#    0.000    0.000    0.000    0.000    0.000    0.000 
#
# Total GULP energy -267231.268437 kJ/mol
# GULP energy per Si atom -5567.318092 kJ/mol
# Density = 1.955276 g / cm^3
# Si number density = 19.597361 Si / 1000 Ang^3
#
#
#
# Elastic Constant Matrix: (Units=GPa)
#
#
# Indices 1 2 3 4 5 6 
#
# 1 101.7578 39.0053 39.9126 0.0000 0.0000 0.0000
# 2 39.0053 78.4631 23.2701 0.0000 0.0000 0.0000
# 3 39.9126 23.2701 95.7249 0.0000 0.0000 0.0000
# 4 0.0000 0.0000 0.0000 12.4333 0.0000 0.0000
# 5 0.0000 0.0000 0.0000 0.0000 -20.5696 0.0000
# 6 0.0000 0.0000 0.0000 0.0000 0.0000 7.3508
#
#
#
# Elastic Compliance Matrix: (Units=1/GPa)
#
#
# Indices 1 2 3 4 5 6 
#
# 1 0.013638 -0.005489 -0.004352 0.000000 0.000000 0.000000
# 2 -0.005489 0.015944 -0.001587 0.000000 0.000000 0.000000
# 3 -0.004352 -0.001587 0.012647 0.000000 0.000000 0.000000
# 4 0.000000 0.000000 0.000000 0.080429 0.000000 0.000000
# 5 0.000000 0.000000 0.000000 0.000000 -0.048615 0.000000
# 6 0.000000 0.000000 0.000000 0.000000 0.000000 0.136039
#
#
# Mechanical properties :
#
#
# Convention : Reuss Voigt Hill
#
# Bulk Modulus (GPa) = 51.61908 53.36910 52.49409
# Shear Modulus (GPa) = 20.88578 11.42675 16.15626
#
# Velocity S-wave (km/s) = 3.26812 2.41732 2.87437
# Velocity P-wave (km/s) = 6.37478 5.92310 6.15309
#
# Compressibility (1/GPa) = 0.01937268
#
# Stress axis : x y z
#
# Youngs Moduli (GPa) = 73.32252 62.71825 79.06947
#
# Poissons Ratio (x) = 0.34427 0.34412
# Poissons Ratio (y) = 0.40248 0.12550
# Poissons Ratio (z) = 0.31911 0.09955
#
# Static dielectric constant tensor:
#      x y z
#    x 1.728120 0.000000 0.000000 
#    y 0.000000 1.754570 0.000000 
#    z 0.000000 0.000000 1.683090 
# 
# From -- ./inp_files/21936.got.cif
#   From: 2010.05.17/outbox.cif.g08.bks.cpg/sg67_11_cif.got.tgz:21936.got - 2010.06.03 18:28:57.
