data_PCOD9503061
_publ_section_title
;
Structure prediction by ZEFSAII (Michael W. Deem and Ramdas Pophale) SiO2 
 PCOD9503061
Probable space group: C M M A
;
_chemical_formula_sum "Si O2"
_cell_formula_units_Z 112
_cell_length_a 19.828983
_cell_length_b 26.825534
_cell_length_c 11.717218
_cell_angle_alpha 90.000000
_cell_angle_beta 90.000000
_cell_angle_gamma 90.000000
_cell_volume 6232.658426
_symmetry_space_group_name_H-M "C M M A"
_symmetry_group_IT_number 67
_symmetry_cell_setting 'orthorhombic'
loop_
_space_group_symop_operation_xyz
x,y,z
-x,1/2-y,z
x,-y,-z
-x,1/2+y,-z
-x,-y,-z
x,1/2+y,-z
-x,y,z
x,1/2-y,z
1/2+x,1/2+y,z
1/2-x,-y,z
1/2+x,1/2-y,-z
1/2-x,y,-z
1/2-x,1/2-y,-z
1/2+x,y,-z
1/2-x,1/2+y,z
1/2+x,-y,z
loop_
_atom_site_type_symbol
_atom_site_label
_atom_site_fract_x
_atom_site_fract_y
_atom_site_fract_z
Si Si1 0.706993 0.953067 0.665256
Si Si2 0.279185 0.594617 0.116954
Si Si3 0.739300 0.694600 0.779536
Si Si4 0.318340 0.347027 0.437412
Si Si5 0.076820 0.994758 0.635748
Si Si6 0.425701 0.600755 0.211095
Si Si7 0.384441 0.306714 0.651222
O O1 0.749444 0.933208 0.772403
O O2 0.691535 0.906040 0.583668
O O3 0.633683 0.973512 0.698362
O O4 0.750000 0.000000 0.620046
O O5 0.249579 0.650615 0.130771
O O6 0.360299 0.595226 0.130323
O O7 0.250000 0.573116 0.000000
O O8 0.726958 0.750000 0.824352
O O9 0.683044 0.678812 0.686218
O O10 0.810225 0.694888 0.710208
O O11 0.250000 0.329762 0.500000
O O12 0.375869 0.330605 0.525141
O O13 0.000000 0.011615 0.655029
O O14 0.090059 0.000000 0.500000
O O15 0.082455 0.939083 0.685534
O O16 0.500000 0.592010 0.159312
O O17 0.423646 0.655049 0.268726
O O18 0.409324 0.250000 0.645068
#
# Coordination Sequence:
#
# PCOD9503061 Si02
#       7
#    16  16  16  16  16  16  16
#     4  11  21  32  51  76 101 140 183 225 261 310
#     4  10  21  37  53  76 102 132 181 234 277 317
#     4   8  15  28  47  72 102 133 165 211 265 312
#     4   9  17  26  43  74 107 136 172 209 251 308
#     4  10  21  35  52  76 109 142 171 209 260 318
#     4  10  20  36  52  75 107 136 172 218 268 323
#     4   9  16  28  47  73 105 139 167 201 252 318
#
# _framework density 17.969860000000001
#
# number of rings (size 3 to 8) (size 9 to 14) (size 15 to 20)
#    0.000    2.429    1.429    2.143    2.000    2.571 
#    0.000    0.714    0.000    1.714    0.000    0.000 
#    0.000   10.857    0.000    0.000    0.000    0.000 
#
# Total GULP energy -311818.892452 kJ/mol
# GULP energy per Si atom -5568.194508 kJ/mol
# Density = 1.792896 g / cm^3
# Si number density = 17.969860 Si / 1000 Ang^3
#
#
#
# Elastic Constant Matrix: (Units=GPa)
#
#
# Indices 1 2 3 4 5 6 
#
# 1 94.0632 19.8663 25.3982 0.0000 0.0000 0.0000
# 2 19.8663 68.6461 15.7644 0.0000 0.0000 0.0000
# 3 25.3982 15.7644 52.5910 0.0000 0.0000 0.0000
# 4 0.0000 0.0000 0.0000 2.2598 0.0000 0.0000
# 5 0.0000 0.0000 0.0000 0.0000 11.3015 0.0000
# 6 0.0000 0.0000 0.0000 0.0000 0.0000 14.8587
#
#
#
# Elastic Compliance Matrix: (Units=1/GPa)
#
#
# Indices 1 2 3 4 5 6 
#
# 1 0.012587 -0.002413 -0.005355 0.000000 0.000000 0.000000
# 2 -0.002413 0.016107 -0.003663 0.000000 0.000000 0.000000
# 3 -0.005355 -0.003663 0.022699 0.000000 0.000000 0.000000
# 4 0.000000 0.000000 0.000000 0.442526 0.000000 0.000000
# 5 0.000000 0.000000 0.000000 0.000000 0.088484 0.000000
# 6 0.000000 0.000000 0.000000 0.000000 0.000000 0.067301
#
#
# Mechanical properties :
#
#
# Convention : Reuss Voigt Hill
#
# Bulk Modulus (GPa) = 35.05021 37.48422 36.26722
# Shear Modulus (GPa) = 7.33057 15.96876 11.64967
#
# Velocity S-wave (km/s) = 2.02194 2.98424 2.54891
# Velocity P-wave (km/s) = 4.99983 5.72530 5.37482
#
# Compressibility (1/GPa) = 0.02853050
#
# Stress axis : x y z
#
# Youngs Moduli (GPa) = 79.44867 62.08512 44.05493
#
# Poissons Ratio (x) = 0.14980 0.23593
# Poissons Ratio (y) = 0.19169 0.16137
# Poissons Ratio (z) = 0.42548 0.22741
#
# Static dielectric constant tensor:
#      x y z
#    x 1.620300 0.000000 0.000000 
#    y 0.000000 1.657800 0.000000 
#    z 0.000000 0.000000 1.627240 
# 
# From -- ./inp_files/21246.got.cif
#   From: 2010.05.17/outbox.cif.g08.bks.cpg/sg67_11_cif.got.tgz:21246.got - 2010.06.03 18:28:57.
