data_PCOD9503447
_publ_section_title
;
Structure prediction by ZEFSAII (Michael W. Deem and Ramdas Pophale) SiO2 
 PCOD9503447
Probable space group: C M M A
;
_chemical_formula_sum "Si O2"
_cell_formula_units_Z 96
_cell_length_a 28.921356
_cell_length_b 15.443233
_cell_length_c 10.076760
_cell_angle_alpha 90.000000
_cell_angle_beta 90.000000
_cell_angle_gamma 90.000000
_cell_volume 4500.676422
_symmetry_space_group_name_H-M "C M M A"
_symmetry_group_IT_number 67
_symmetry_cell_setting 'orthorhombic'
loop_
_space_group_symop_operation_xyz
x,y,z
-x,1/2-y,z
x,-y,-z
-x,1/2+y,-z
-x,-y,-z
x,1/2+y,-z
-x,y,z
x,1/2-y,z
1/2+x,1/2+y,z
1/2-x,-y,z
1/2+x,1/2-y,-z
1/2-x,y,-z
1/2-x,1/2-y,-z
1/2+x,y,-z
1/2-x,1/2+y,z
1/2+x,-y,z
loop_
_atom_site_type_symbol
_atom_site_label
_atom_site_fract_x
_atom_site_fract_y
_atom_site_fract_z
Si Si1 0.948588 0.416450 0.269743
Si Si2 0.106183 0.150606 0.504127
Si Si3 0.212262 0.352306 0.102472
Si Si4 0.292811 0.144174 0.591674
Si Si5 0.053148 0.622068 0.228880
Si Si6 0.389500 0.395906 0.975866
O O1 0.929021 0.403357 0.415420
O O2 0.950161 0.518025 0.237840
O O3 0.000000 0.380316 0.256969
O O4 0.913654 0.376610 0.164061
O O5 0.104194 0.250000 0.457101
O O6 0.158333 0.119325 0.475981
O O7 0.087247 0.148881 0.652934
O O8 0.222282 0.250000 0.116890
O O9 0.210831 0.386446 0.254746
O O10 0.250000 0.389323 0.000000
O O11 0.162510 0.363264 0.034464
O O12 0.292040 0.250000 0.593512
O O13 0.250000 0.115905 0.500000
O O14 0.078486 0.642521 0.091256
O O15 0.000000 0.653553 0.239503
O O16 0.387711 0.500000 0.000000
#
# Coordination Sequence:
#
# PCOD9503447 Si02
#       6
#    16  16  16  16  16  16
#     4  10  20  38  61  81 110 153 194 231 278 339
#     4  11  22  36  58  86 116 147 188 237 283 333
#     4  10  21  37  60  86 112 146 188 229 283 347
#     4   9  19  36  57  82 110 144 184 227 277 336
#     4  10  22  38  57  83 115 154 193 229 279 340
#     4  10  21  38  60  85 114 148 190 240 281 329
#
# _framework density 21.330127000000001
#
# number of rings (size 3 to 8) (size 9 to 14) (size 15 to 20)
#    0.000    2.000    1.667    1.500    2.333    5.667 
#    0.000    0.000    0.000    5.000    0.000    0.000 
#    0.000    0.000    0.000    0.000    0.000    0.000 
#
# Total GULP energy -268043.339464 kJ/mol
# GULP energy per Si atom -5584.236239 kJ/mol
# Density = 2.128158 g / cm^3
# Si number density = 21.330127 Si / 1000 Ang^3
#
#
#
# Elastic Constant Matrix: (Units=GPa)
#
#
# Indices 1 2 3 4 5 6 
#
# 1 162.4323 3.7671 47.8194 0.0000 0.0000 0.0000
# 2 3.7671 15.7047 7.9914 0.0000 0.0000 0.0000
# 3 47.8194 7.9914 112.4835 0.0000 0.0000 0.0000
# 4 0.0000 0.0000 0.0000 -2.0005 0.0000 0.0000
# 5 0.0000 0.0000 0.0000 0.0000 12.7615 0.0000
# 6 0.0000 0.0000 0.0000 0.0000 0.0000 16.7479
#
#
#
# Elastic Compliance Matrix: (Units=1/GPa)
#
#
# Indices 1 2 3 4 5 6 
#
# 1 0.007038 -0.000172 -0.002980 0.000000 0.000000 0.000000
# 2 -0.000172 0.066068 -0.004621 0.000000 0.000000 0.000000
# 3 -0.002980 -0.004621 0.010485 0.000000 0.000000 0.000000
# 4 0.000000 0.000000 0.000000 -0.499870 0.000000 0.000000
# 5 0.000000 0.000000 0.000000 0.000000 0.078360 0.000000
# 6 0.000000 0.000000 0.000000 0.000000 0.000000 0.059709
#
#
# Mechanical properties :
#
#
# Convention : Reuss Voigt Hill
#
# Bulk Modulus (GPa) = 14.69592 45.53070 30.11331
# Shear Modulus (GPa) = -20.83480 20.90463 0.03492
#
# Velocity S-wave (km/s) = -3.12874 3.13397 0.12808
# Velocity P-wave (km/s) = 2.47937 5.87263 3.76434
#
# Compressibility (1/GPa) = 0.06804609
#
# Stress axis : x y z
#
# Youngs Moduli (GPa) = 142.09411 15.13596 95.37272
#
# Poissons Ratio (x) = 0.00260 0.28418
# Poissons Ratio (y) = 0.02443 0.44069
# Poissons Ratio (z) = 0.42339 0.06994
#
# Static dielectric constant tensor:
#      x y z
#    x 1.742510 0.000000 0.000000 
#    y 0.000000 1.821120 0.000000 
#    z 0.000000 0.000000 1.739150 
# 
# From -- ./inp_files/13709.got.cif
#   From: 2010.05.17/outbox.cif.g08.bks.cpg/sg67_7_cif.got.tgz:13709.got - 2010.06.03 18:28:57.
