data_PCOD9503987
_publ_section_title
;
Structure prediction by ZEFSAII (Michael W. Deem and Ramdas Pophale) SiO2 
 PCOD9503987
Probable space group: C M M A
;
_chemical_formula_sum "Si O2"
_cell_formula_units_Z 68
_cell_length_a 19.256329
_cell_length_b 9.051130
_cell_length_c 21.574281
_cell_angle_alpha 90.000000
_cell_angle_beta 90.000000
_cell_angle_gamma 90.000000
_cell_volume 3760.214597
_symmetry_space_group_name_H-M "C M M A"
_symmetry_group_IT_number 67
_symmetry_cell_setting 'orthorhombic'
loop_
_space_group_symop_operation_xyz
x,y,z
-x,1/2-y,z
x,-y,-z
-x,1/2+y,-z
-x,-y,-z
x,1/2+y,-z
-x,y,z
x,1/2-y,z
1/2+x,1/2+y,z
1/2-x,-y,z
1/2+x,1/2-y,-z
1/2-x,y,-z
1/2-x,1/2-y,-z
1/2+x,y,-z
1/2-x,1/2+y,z
1/2+x,-y,z
loop_
_atom_site_type_symbol
_atom_site_label
_atom_site_fract_x
_atom_site_fract_y
_atom_site_fract_z
Si Si1 0.250000 0.500000 0.500000
Si Si2 0.184300 0.916082 0.376844
Si Si3 0.079786 0.071279 0.720029
Si Si4 0.173581 0.928343 0.826281
Si Si5 0.919145 0.573558 0.067672
O O1 0.198387 0.423300 0.549342
O O2 0.193055 0.750000 0.356996
O O3 0.111752 0.964234 0.348008
O O4 0.250000 0.000000 0.348967
O O5 0.081957 0.250000 0.730147
O O6 0.000000 0.025814 0.725497
O O7 0.128719 0.989058 0.768585
O O8 0.177238 0.750000 0.826424
O O9 0.250000 0.000000 0.824592
O O10 0.132339 0.990306 0.886059
O O11 0.904916 0.750000 0.065527
O O12 0.000000 0.556342 0.088011
O O13 0.913340 0.500000 0.000000
#
# Coordination Sequence:
#
# PCOD9503987 Si02
#       5
#     4  16  16  16  16
#     4   8  18  32  56  84 110 148 190 232 278 336
#     4   9  18  32  54  80 107 144 186 229 279 335
#     4  10  21  38  58  82 114 151 191 237 291 347
#     4  12  25  40  59  85 116 151 196 243 292 346
#     4  10  21  39  63  90 121 157 195 237 288 344
#
# _framework density 18.084074999999999
#
# number of rings (size 3 to 8) (size 9 to 14) (size 15 to 20)
#    0.706    1.176    0.000    4.588    0.000    8.000 
#    0.000    2.941    0.000    0.000    0.000    0.000 
#    0.000    0.000    0.000    0.000    0.000    0.000 
#
# Total GULP energy -189278.492100 kJ/mol
# GULP energy per Si atom -5567.014474 kJ/mol
# Density = 1.804291 g / cm^3
# Si number density = 18.084075 Si / 1000 Ang^3
#
#
#
# Elastic Constant Matrix: (Units=GPa)
#
#
# Indices 1 2 3 4 5 6 
#
# 1 170.0562 76.4601 81.1467 0.0000 0.0000 0.0000
# 2 76.4601 96.8265 43.7027 0.0000 0.0000 0.0000
# 3 81.1467 43.7027 90.6417 0.0000 0.0000 0.0000
# 4 0.0000 0.0000 0.0000 97.3094 0.0000 0.0000
# 5 0.0000 0.0000 0.0000 0.0000 56.0198 0.0000
# 6 0.0000 0.0000 0.0000 0.0000 0.0000 26.3017
#
#
#
# Elastic Compliance Matrix: (Units=1/GPa)
#
#
# Indices 1 2 3 4 5 6 
#
# 1 0.012657 -0.006238 -0.008323 0.000000 0.000000 0.000000
# 2 -0.006238 0.016275 -0.002262 0.000000 0.000000 0.000000
# 3 -0.008323 -0.002262 0.019575 0.000000 0.000000 0.000000
# 4 0.000000 0.000000 0.000000 0.010277 0.000000 0.000000
# 5 0.000000 0.000000 0.000000 0.000000 0.017851 0.000000
# 6 0.000000 0.000000 0.000000 0.000000 0.000000 0.038020
#
#
# Mechanical properties :
#
#
# Convention : Reuss Voigt Hill
#
# Bulk Modulus (GPa) = 67.29944 84.46038 75.87991
# Shear Modulus (GPa) = 32.62558 46.34049 39.48303
#
# Velocity S-wave (km/s) = 4.25208 5.06761 4.67765
# Velocity P-wave (km/s) = 7.83598 9.00259 8.43946
#
# Compressibility (1/GPa) = 0.01485896
#
# Stress axis : x y z
#
# Youngs Moduli (GPa) = 79.00937 61.44531 51.08624
#
# Poissons Ratio (x) = 0.38328 0.42521
# Poissons Ratio (y) = 0.49284 0.11558
# Poissons Ratio (z) = 0.65762 0.13902
#
# Static dielectric constant tensor:
#      x y z
#    x 1.626420 0.000000 0.000000 
#    y 0.000000 1.470060 0.000000 
#    z 0.000000 0.000000 1.653730 
# 
# From -- ./inp_files/42099.got.cif
#   From: 2010.05.17/outbox.cif.g08.bks.cpg/sg67_22_cif.got.tgz:42099.got - 2010.06.03 18:28:57.
