data_PCOD9503705
_publ_section_title
;
Structure prediction by ZEFSAII (Michael W. Deem and Ramdas Pophale) SiO2 
 PCOD9503705
Probable space group: C M M A
;
_chemical_formula_sum "Si O2"
_cell_formula_units_Z 88
_cell_length_a 16.371741
_cell_length_b 8.598582
_cell_length_c 31.748123
_cell_angle_alpha 90.000000
_cell_angle_beta 90.000000
_cell_angle_gamma 90.000000
_cell_volume 4469.302567
_symmetry_space_group_name_H-M "C M M A"
_symmetry_group_IT_number 67
_symmetry_cell_setting 'orthorhombic'
loop_
_space_group_symop_operation_xyz
x,y,z
-x,1/2-y,z
x,-y,-z
-x,1/2+y,-z
-x,-y,-z
x,1/2+y,-z
-x,y,z
x,1/2-y,z
1/2+x,1/2+y,z
1/2-x,-y,z
1/2+x,1/2-y,-z
1/2-x,y,-z
1/2-x,1/2-y,-z
1/2+x,y,-z
1/2-x,1/2+y,z
1/2+x,-y,z
loop_
_atom_site_type_symbol
_atom_site_label
_atom_site_fract_x
_atom_site_fract_y
_atom_site_fract_z
Si Si1 0.341711 0.561806 0.365828
Si Si2 0.500000 0.061762 0.952687
Si Si3 0.096040 0.574574 0.723748
Si Si4 0.843491 0.563443 0.543118
Si Si5 0.657005 0.063857 0.897771
Si Si6 0.659533 0.066519 0.191936
O O1 0.343845 0.750000 0.364572
O O2 0.250000 0.500000 0.367066
O O3 0.376484 0.507173 0.321194
O O4 0.380196 0.517719 0.411233
O O5 0.500000 0.250000 0.952547
O O6 0.584363 0.012609 0.929250
O O7 0.500000 0.000000 0.000000
O O8 0.132018 0.750000 0.729139
O O9 0.115244 0.476215 0.764953
O O10 0.000000 0.590058 0.720832
O O11 0.881984 0.500000 0.500000
O O12 0.840893 0.750000 0.540787
O O13 0.750000 0.500000 0.543668
O O14 0.663021 0.250000 0.899434
O O15 0.750000 0.000000 0.904999
O O16 0.628919 0.013071 0.850941
O O17 0.660990 0.250000 0.185286
O O18 0.750000 0.000000 0.197396
#
# Coordination Sequence:
#
# PCOD9503705 Si02
#       6
#    16   8  16  16  16  16
#     4   9  18  31  48  70  95 128 167 209 259 316
#     4  10  24  42  64  92 126 164 206 248 299 352
#     4  10  21  36  53  74 104 142 179 220 270 325
#     4   9  15  24  40  64  91 117 154 202 254 310
#     4  10  21  40  63  91 122 161 203 248 298 352
#     4  11  22  37  58  85 113 145 185 231 280 334
#
# _framework density 19.689874
#
# number of rings (size 3 to 8) (size 9 to 14) (size 15 to 20)
#    0.000    2.182    0.000    4.909    1.273    5.091 
#    0.000    1.818    0.000    0.545    0.000    0.000 
#    0.000    0.000    0.000    0.000    0.000    4.909 
#
# Total GULP energy -245195.100141 kJ/mol
# GULP energy per Si atom -5572.615912 kJ/mol
# Density = 1.964506 g / cm^3
# Si number density = 19.689874 Si / 1000 Ang^3
#
#
#
# Elastic Constant Matrix: (Units=GPa)
#
#
# Indices 1 2 3 4 5 6 
#
# 1 54.2822 17.9144 77.3093 0.0000 0.0000 0.0000
# 2 17.9144 47.1927 32.2144 0.0000 0.0000 0.0000
# 3 77.3093 32.2144 201.6662 0.0000 0.0000 0.0000
# 4 0.0000 0.0000 0.0000 5.1044 0.0000 0.0000
# 5 0.0000 0.0000 0.0000 0.0000 323.1875 0.0000
# 6 0.0000 0.0000 0.0000 0.0000 0.0000 13.5291
#
#
#
# Elastic Compliance Matrix: (Units=1/GPa)
#
#
# Indices 1 2 3 4 5 6 
#
# 1 0.041825 -0.005536 -0.015150 0.000000 0.000000 0.000000
# 2 -0.005536 0.024516 -0.001794 0.000000 0.000000 0.000000
# 3 -0.015150 -0.001794 0.011053 0.000000 0.000000 0.000000
# 4 0.000000 0.000000 0.000000 0.195910 0.000000 0.000000
# 5 0.000000 0.000000 0.000000 0.000000 0.003094 0.000000
# 6 0.000000 0.000000 0.000000 0.000000 0.000000 0.073915
#
#
# Mechanical properties :
#
#
# Convention : Reuss Voigt Hill
#
# Bulk Modulus (GPa) = 30.83052 62.00193 46.41622
# Shear Modulus (GPa) = 12.31275 80.07773 46.19524
#
# Velocity S-wave (km/s) = 2.50338 6.38418 4.84895
# Velocity P-wave (km/s) = 4.90387 9.26830 7.41449
#
# Compressibility (1/GPa) = 0.03243539
#
# Stress axis : x y z
#
# Youngs Moduli (GPa) = 23.90894 40.79015 90.47387
#
# Poissons Ratio (x) = 0.22580 1.37064
# Poissons Ratio (y) = 0.13235 0.16232
# Poissons Ratio (z) = 0.36221 0.07318
#
# Static dielectric constant tensor:
#      x y z
#    x 1.668060 0.000000 0.000000 
#    y 0.000000 1.707820 0.000000 
#    z 0.000000 0.000000 1.769900 
# 
# From -- ./inp_files/45768.got.cif
#   From: 2010.05.17/outbox.cif.g08.bks.cpg/sg67_23_cif.got.tgz:45768.got - 2010.06.03 18:28:57.
