data_PCOD9503877
_publ_section_title
;
Structure prediction by ZEFSAII (Michael W. Deem and Ramdas Pophale) SiO2 
 PCOD9503877
Probable space group: C M M A
;
_chemical_formula_sum "Si O2"
_cell_formula_units_Z 88
_cell_length_a 19.781687
_cell_length_b 10.899684
_cell_length_c 20.922371
_cell_angle_alpha 90.000000
_cell_angle_beta 90.000000
_cell_angle_gamma 90.000000
_cell_volume 4511.158973
_symmetry_space_group_name_H-M "C M M A"
_symmetry_group_IT_number 67
_symmetry_cell_setting 'orthorhombic'
loop_
_space_group_symop_operation_xyz
x,y,z
-x,1/2-y,z
x,-y,-z
-x,1/2+y,-z
-x,-y,-z
x,1/2+y,-z
-x,y,z
x,1/2-y,z
1/2+x,1/2+y,z
1/2-x,-y,z
1/2+x,1/2-y,-z
1/2-x,y,-z
1/2-x,1/2-y,-z
1/2+x,y,-z
1/2-x,1/2+y,z
1/2+x,-y,z
loop_
_atom_site_type_symbol
_atom_site_label
_atom_site_fract_x
_atom_site_fract_y
_atom_site_fract_z
Si Si1 0.925891 0.250000 0.497697
Si Si2 0.576708 0.108685 0.721456
Si Si3 0.421339 0.750000 0.652130
Si Si4 0.917550 0.250000 0.917285
Si Si5 0.917622 0.750000 0.933970
Si Si6 0.325241 0.521830 0.643208
Si Si7 0.850983 0.000000 0.500000
Si Si8 0.417812 0.007526 0.856977
O O1 0.929409 0.250000 0.575171
O O2 0.891547 0.377997 0.481157
O O3 0.000000 0.250000 0.469019
O O4 0.500000 0.072544 0.702841
O O5 0.574339 0.250000 0.742081
O O6 0.599285 0.031739 0.783249
O O7 0.628835 0.091961 0.664346
O O8 0.500000 0.750000 0.677616
O O9 0.373434 0.633493 0.666858
O O10 0.894939 0.375991 0.883489
O O11 0.000000 0.250000 0.915230
O O12 0.898050 0.250000 0.991750
O O13 0.895386 0.624902 0.898829
O O14 0.000000 0.750000 0.931835
O O15 0.250000 0.500000 0.669599
O O16 0.317053 0.538047 0.566779
O O17 0.500000 0.007595 0.859622
#
# Coordination Sequence:
#
# PCOD9503877 Si02
#       8
#     8  16   8   8   8  16   8  16
#     4   9  18  33  55  81 111 143 181 224 281 350
#     4  10  21  37  57  81 111 151 195 236 286 348
#     4   9  20  40  58  80 116 152 183 233 304 357
#     4   9  16  23  42  74 105 147 194 225 270 337
#     4   9  14  24  41  67 109 152 184 225 278 329
#     4  11  24  39  61  85 114 148 194 245 298 364
#     4  10  22  38  56  84 115 148 181 242 307 364
#     4   9  16  28  44  69 109 150 186 230 279 333
#
# _framework density 19.507183000000001
#
# number of rings (size 3 to 8) (size 9 to 14) (size 15 to 20)
#    0.000    2.364    0.909    1.636    2.545    5.091 
#    0.000    4.545    0.000    0.000    0.000    0.000 
#    0.000    4.364    0.000    0.000    0.000    0.000 
#
# Total GULP energy -244955.337786 kJ/mol
# GULP energy per Si atom -5567.166768 kJ/mol
# Density = 1.946278 g / cm^3
# Si number density = 19.507183 Si / 1000 Ang^3
#
#
#
# Elastic Constant Matrix: (Units=GPa)
#
#
# Indices 1 2 3 4 5 6 
#
# 1 93.8124 35.7243 20.9244 0.0000 0.0000 0.0000
# 2 35.7243 128.3993 29.0037 0.0000 0.0000 0.0000
# 3 20.9244 29.0037 91.2260 0.0000 0.0000 0.0000
# 4 0.0000 0.0000 0.0000 30.6418 0.0000 0.0000
# 5 0.0000 0.0000 0.0000 0.0000 5.9561 0.0000
# 6 0.0000 0.0000 0.0000 0.0000 0.0000 7.4976
#
#
#
# Elastic Compliance Matrix: (Units=1/GPa)
#
#
# Indices 1 2 3 4 5 6 
#
# 1 0.012207 -0.002978 -0.001853 0.000000 0.000000 0.000000
# 2 -0.002978 0.009117 -0.002216 0.000000 0.000000 0.000000
# 3 -0.001853 -0.002216 0.012091 0.000000 0.000000 0.000000
# 4 0.000000 0.000000 0.000000 0.032635 0.000000 0.000000
# 5 0.000000 0.000000 0.000000 0.000000 0.167894 0.000000
# 6 0.000000 0.000000 0.000000 0.000000 0.000000 0.133376
#
#
# Mechanical properties :
#
#
# Convention : Reuss Voigt Hill
#
# Bulk Modulus (GPa) = 51.75375 53.86028 52.80702
# Shear Modulus (GPa) = 12.89146 24.00481 18.44813
#
# Velocity S-wave (km/s) = 2.57350 3.51174 3.07858
# Velocity P-wave (km/s) = 5.95137 6.64180 6.30604
#
# Compressibility (1/GPa) = 0.01932227
#
# Stress axis : x y z
#
# Youngs Moduli (GPa) = 81.92137 109.68317 82.70424
#
# Poissons Ratio (x) = 0.32660 0.15326
# Poissons Ratio (y) = 0.24394 0.18324
# Poissons Ratio (z) = 0.15181 0.24302
#
# Static dielectric constant tensor:
#      x y z
#    x 1.664900 0.000000 0.000000 
#    y 0.000000 1.719080 0.000000 
#    z 0.000000 0.000000 1.693760 
# 
# From -- ./inp_files/38969.got.cif
#   From: 2010.05.17/outbox.cif.g08.bks.cpg/sg67_20_cif.got.tgz:38969.got - 2010.06.03 18:28:57.
