data_PCOD9503137
_publ_section_title
;
Structure prediction by ZEFSAII (Michael W. Deem and Ramdas Pophale) SiO2 
 PCOD9503137
Probable space group: C M M A
;
_chemical_formula_sum "Si O2"
_cell_formula_units_Z 96
_cell_length_a 26.525173
_cell_length_b 21.381426
_cell_length_c 9.368539
_cell_angle_alpha 90.000000
_cell_angle_beta 90.000000
_cell_angle_gamma 90.000000
_cell_volume 5313.329641
_symmetry_space_group_name_H-M "C M M A"
_symmetry_group_IT_number 67
_symmetry_cell_setting 'orthorhombic'
loop_
_space_group_symop_operation_xyz
x,y,z
-x,1/2-y,z
x,-y,-z
-x,1/2+y,-z
-x,-y,-z
x,1/2+y,-z
-x,y,z
x,1/2-y,z
1/2+x,1/2+y,z
1/2-x,-y,z
1/2+x,1/2-y,-z
1/2-x,y,-z
1/2-x,1/2-y,-z
1/2+x,y,-z
1/2-x,1/2+y,z
1/2+x,-y,z
loop_
_atom_site_type_symbol
_atom_site_label
_atom_site_fract_x
_atom_site_fract_y
_atom_site_fract_z
Si Si1 0.059295 0.563238 0.406706
Si Si2 0.698431 0.110587 0.088578
Si Si3 0.142526 0.635004 0.811862
Si Si4 0.254516 0.175417 0.662092
Si Si5 0.940229 0.321155 0.389973
Si Si6 0.622574 0.991744 0.843334
O O1 0.065198 0.500000 0.500000
O O2 0.074592 0.624736 0.496849
O O3 0.090308 0.549799 0.264122
O O4 0.000000 0.569965 0.374237
O O5 0.713015 0.147922 0.230204
O O6 0.674602 0.044670 0.130861
O O7 0.750000 0.103192 0.000000
O O8 0.658569 0.141948 0.978173
O O9 0.190738 0.657456 0.722715
O O10 0.093459 0.669198 0.751036
O O11 0.133121 0.561200 0.788201
O O12 0.249864 0.250000 0.662401
O O13 0.250000 0.152311 0.500000
O O14 0.932582 0.250000 0.442869
O O15 0.000000 0.329373 0.360888
O O16 0.598005 0.000000 0.000000
#
# Coordination Sequence:
#
# PCOD9503137 Si02
#       6
#    16  16  16  16  16  16
#     4  10  20  36  59  87 119 151 192 243 293 350
#     4   9  21  38  56  80 116 156 195 245 301 352
#     4  10  20  36  58  82 113 152 193 243 292 352
#     4  10  22  37  54  81 114 152 197 241 291 353
#     4  10  21  37  60  89 120 156 197 244 298 356
#     4  10  21  36  58  86 115 152 195 243 298 355
#
# _framework density 18.067765999999999
#
# number of rings (size 3 to 8) (size 9 to 14) (size 15 to 20)
#    0.000    2.167    1.667    0.500    2.333   11.667 
#    0.000    3.333    0.000    2.000    0.000    9.333 
#    0.000    0.000    0.000    0.000    0.000    0.000 
#
# Total GULP energy -267617.925965 kJ/mol
# GULP energy per Si atom -5575.373458 kJ/mol
# Density = 1.802664 g / cm^3
# Si number density = 18.067766 Si / 1000 Ang^3
#
#
#
# Elastic Constant Matrix: (Units=GPa)
#
#
# Indices 1 2 3 4 5 6 
#
# 1 51.3344 35.6311 56.0167 0.0000 0.0000 0.0000
# 2 35.6311 102.4402 55.6096 0.0000 0.0000 0.0000
# 3 56.0167 55.6096 115.8602 0.0000 0.0000 0.0000
# 4 0.0000 0.0000 0.0000 31.0407 0.0000 0.0000
# 5 0.0000 0.0000 0.0000 0.0000 26.4486 0.0000
# 6 0.0000 0.0000 0.0000 0.0000 0.0000 -311.6248
#
#
#
# Elastic Compliance Matrix: (Units=1/GPa)
#
#
# Indices 1 2 3 4 5 6 
#
# 1 0.043026 -0.004967 -0.018419 0.000000 0.000000 0.000000
# 2 -0.004967 0.013775 -0.004210 0.000000 0.000000 0.000000
# 3 -0.018419 -0.004210 0.019557 0.000000 0.000000 0.000000
# 4 0.000000 0.000000 0.000000 0.032216 0.000000 0.000000
# 5 0.000000 0.000000 0.000000 0.000000 0.037809 0.000000
# 6 0.000000 0.000000 0.000000 0.000000 0.000000 -0.003209
#
#
# Mechanical properties :
#
#
# Convention : Reuss Voigt Hill
#
# Bulk Modulus (GPa) = 47.24387 62.68331 54.96359
# Shear Modulus (GPa) = 24.34025 -42.66862 -9.16419
#
# Velocity S-wave (km/s) = 3.67436 -4.86489 -2.25458
# Velocity P-wave (km/s) = 6.64877 1.79236 4.86922
#
# Compressibility (1/GPa) = 0.02116677
#
# Stress axis : x y z
#
# Youngs Moduli (GPa) = 23.24158 72.59594 51.13279
#
# Poissons Ratio (x) = 0.36059 0.94179
# Poissons Ratio (y) = 0.11544 0.21527
# Poissons Ratio (z) = 0.42808 0.30563
#
# Static dielectric constant tensor:
#      x y z
#    x 1.611900 0.000000 0.000000 
#    y 0.000000 1.622040 0.000000 
#    z 0.000000 0.000000 1.641010 
# 
# From -- ./inp_files/11463.got.cif
#   From: 2010.05.17/outbox.cif.g08.bks.cpg/sg67_6_cif.got.tgz:11463.got - 2010.06.03 18:28:57.
