data_PCOD9503146
_publ_section_title
;
Structure prediction by ZEFSAII (Michael W. Deem and Ramdas Pophale) SiO2 
 PCOD9503146
Probable space group: C M M A
;
_chemical_formula_sum "Si O2"
_cell_formula_units_Z 112
_cell_length_a 15.768489
_cell_length_b 15.625645
_cell_length_c 22.173771
_cell_angle_alpha 90.000000
_cell_angle_beta 90.000000
_cell_angle_gamma 90.000000
_cell_volume 5463.457774
_symmetry_space_group_name_H-M "C M M A"
_symmetry_group_IT_number 67
_symmetry_cell_setting 'orthorhombic'
loop_
_space_group_symop_operation_xyz
x,y,z
-x,1/2-y,z
x,-y,-z
-x,1/2+y,-z
-x,-y,-z
x,1/2+y,-z
-x,y,z
x,1/2-y,z
1/2+x,1/2+y,z
1/2-x,-y,z
1/2+x,1/2-y,-z
1/2-x,y,-z
1/2-x,1/2-y,-z
1/2+x,y,-z
1/2-x,1/2+y,z
1/2+x,-y,z
loop_
_atom_site_type_symbol
_atom_site_label
_atom_site_fract_x
_atom_site_fract_y
_atom_site_fract_z
Si Si1 0.091412 0.018119 0.751648
Si Si2 0.761700 0.600490 0.589765
Si Si3 0.752771 0.602966 0.929778
Si Si4 0.599977 0.648288 0.509648
Si Si5 0.153712 0.845597 0.812949
Si Si6 0.210401 0.656238 0.289622
Si Si7 0.590122 0.345499 0.140673
O O1 0.156406 0.068846 0.709495
O O2 0.090351 0.083130 0.808225
O O3 0.000000 0.016242 0.721627
O O4 0.108995 0.925530 0.780404
O O5 0.750000 0.500000 0.595086
O O6 0.670294 0.631861 0.562589
O O7 0.843725 0.615915 0.547355
O O8 0.773485 0.645661 0.654140
O O9 0.750000 0.500000 0.925448
O O10 0.825272 0.634370 0.883031
O O11 0.667357 0.640522 0.902632
O O12 0.750000 0.626548 0.000000
O O13 0.500000 0.617003 0.515165
O O14 0.593366 0.750000 0.504053
O O15 0.115838 0.750000 0.808002
O O16 0.240661 0.843113 0.774025
O O17 0.167672 0.750000 0.296405
O O18 0.500000 0.352852 0.107650
O O19 0.593788 0.250000 0.167051
#
# Coordination Sequence:
#
# PCOD9503146 Si02
#       7
#    16  16  16  16  16  16  16
#     4  11  22  38  59  86 120 153 192 244 304 369
#     4  11  22  37  61  92 126 164 210 262 316 379
#     4  11  21  37  61  90 118 157 206 252 304 368
#     4  10  21  39  62  88 125 169 213 263 316 373
#     4  11  22  39  61  84 117 159 200 247 303 365
#     4  11  22  39  64  89 118 157 203 255 310 366
#     4  10  20  36  58  84 114 148 189 242 302 357
#
# _framework density 20.499838
#
# number of rings (size 3 to 8) (size 9 to 14) (size 15 to 20)
#    0.000    1.286    2.857    4.714    0.000    4.000 
#    0.000    4.286    0.000    0.857    0.000    0.000 
#    0.000    0.000    0.000    0.000    0.000    0.000 
#
# Total GULP energy -311879.888723 kJ/mol
# GULP energy per Si atom -5569.283727 kJ/mol
# Density = 2.045318 g / cm^3
# Si number density = 20.499838 Si / 1000 Ang^3
#
#
#
# Elastic Constant Matrix: (Units=GPa)
#
#
# Indices 1 2 3 4 5 6 
#
# 1 80.7047 22.4384 7.0152 0.0000 0.0000 0.0000
# 2 22.4384 141.1129 11.3509 0.0000 0.0000 0.0000
# 3 7.0152 11.3509 81.7764 0.0000 0.0000 0.0000
# 4 0.0000 0.0000 0.0000 -4.7595 0.0000 0.0000
# 5 0.0000 0.0000 0.0000 0.0000 0.5376 0.0000
# 6 0.0000 0.0000 0.0000 0.0000 0.0000 37.9192
#
#
#
# Elastic Compliance Matrix: (Units=1/GPa)
#
#
# Indices 1 2 3 4 5 6 
#
# 1 0.013021 -0.002003 -0.000839 0.000000 0.000000 0.000000
# 2 -0.002003 0.007475 -0.000866 0.000000 0.000000 0.000000
# 3 -0.000839 -0.000866 0.012421 0.000000 0.000000 0.000000
# 4 0.000000 0.000000 0.000000 -0.210106 0.000000 0.000000
# 5 0.000000 0.000000 0.000000 0.000000 1.860285 0.000000
# 6 0.000000 0.000000 0.000000 0.000000 0.000000 0.026372
#
#
# Mechanical properties :
#
#
# Convention : Reuss Voigt Hill
#
# Bulk Modulus (GPa) = 39.21457 42.80033 41.00745
# Shear Modulus (GPa) = 2.89791 24.25875 13.57833
#
# Velocity S-wave (km/s) = 1.19025 3.44374 2.57643
# Velocity P-wave (km/s) = 4.58908 6.06103 5.37568
#
# Compressibility (1/GPa) = 0.02550073
#
# Stress axis : x y z
#
# Youngs Moduli (GPa) = 76.80103 133.78558 80.51138
#
# Poissons Ratio (x) = 0.26796 0.06755
# Poissons Ratio (y) = 0.15383 0.06970
# Poissons Ratio (z) = 0.06443 0.11582
#
# Static dielectric constant tensor:
#      x y z
#    x 1.779210 0.000000 0.000000 
#    y 0.000000 1.759370 0.000000 
#    z 0.000000 0.000000 1.731100 
# 
# From -- ./inp_files/41977.got.cif
#   From: 2010.05.17/outbox.cif.g08.bks.cpg/sg67_21_cif.got.tgz:41977.got - 2010.06.03 18:28:57.
