data_PCOD9503806
_publ_section_title
;
Structure prediction by ZEFSAII (Michael W. Deem and Ramdas Pophale) SiO2 
 PCOD9503806
Probable space group: C M M A
;
_chemical_formula_sum "Si O2"
_cell_formula_units_Z 116
_cell_length_a 17.766748
_cell_length_b 14.514981
_cell_length_c 24.778065
_cell_angle_alpha 90.000000
_cell_angle_beta 90.000000
_cell_angle_gamma 90.000000
_cell_volume 6389.866754
_symmetry_space_group_name_H-M "C M M A"
_symmetry_group_IT_number 67
_symmetry_cell_setting 'orthorhombic'
loop_
_space_group_symop_operation_xyz
x,y,z
-x,1/2-y,z
x,-y,-z
-x,1/2+y,-z
-x,-y,-z
x,1/2+y,-z
-x,y,z
x,1/2-y,z
1/2+x,1/2+y,z
1/2-x,-y,z
1/2+x,1/2-y,-z
1/2-x,y,-z
1/2-x,1/2-y,-z
1/2+x,y,-z
1/2-x,1/2+y,z
1/2+x,-y,z
loop_
_atom_site_type_symbol
_atom_site_label
_atom_site_fract_x
_atom_site_fract_y
_atom_site_fract_z
Si Si1 0.338734 0.514880 0.689891
Si Si2 0.500000 0.250000 0.185769
Si Si3 0.082944 0.940360 0.198805
Si Si4 0.341472 0.854151 0.001698
Si Si5 0.835548 0.138145 0.489432
Si Si6 0.587416 0.639104 0.600272
Si Si7 0.089463 0.141126 0.376884
Si Si8 0.340937 0.499398 0.089498
O O1 0.250000 0.500000 0.689611
O O2 0.367819 0.546453 0.748040
O O3 0.363010 0.590170 0.645385
O O4 0.379489 0.421062 0.671110
O O5 0.564476 0.332777 0.187898
O O6 0.121114 0.985669 0.146832
O O7 0.000000 0.982786 0.208591
O O8 0.369529 0.750000 0.999824
O O9 0.362431 0.909204 0.055888
O O10 0.250000 0.852328 0.000000
O O11 0.363593 0.914962 0.950024
O O12 0.835629 0.250000 0.488462
O O13 0.750000 0.108380 0.500000
O O14 0.886164 0.111203 0.540448
O O15 0.868912 0.110048 0.431933
O O16 0.500000 0.615268 0.608794
O O17 0.594622 0.750000 0.604320
O O18 0.104200 0.250000 0.368868
O O19 0.000000 0.129400 0.383470
O O20 0.250000 0.500000 0.094771
#
# Coordination Sequence:
#
# PCOD9503806 Si02
#       8
#    16   4  16  16  16  16  16  16
#     4  12  25  39  59  84 110 143 186 241 289 339
#     4   8  24  40  64  86 108 158 196 234 304 344
#     4  10  22  40  59  83 114 147 192 234 290 349
#     4   8  15  28  51  85 122 160 199 237 285 335
#     4   9  17  32  54  82 114 146 182 230 280 337
#     4  10  21  36  59  86 114 145 182 232 294 348
#     4  10  21  39  59  79 110 149 188 223 276 349
#     4   9  17  32  56  84 120 157 196 247 286 332
#
# _framework density 18.153742999999999
#
# number of rings (size 3 to 8) (size 9 to 14) (size 15 to 20)
#    0.414    1.931    0.000    3.724    1.931    3.862 
#    0.000    4.828    0.000    2.069    0.000    0.000 
#    0.000    0.000    0.000    0.000    0.000    0.000 
#
# Total GULP energy -323068.792360 kJ/mol
# GULP energy per Si atom -5570.151592 kJ/mol
# Density = 1.811242 g / cm^3
# Si number density = 18.153743 Si / 1000 Ang^3
#
#
#
# Elastic Constant Matrix: (Units=GPa)
#
#
# Indices 1 2 3 4 5 6 
#
# 1 74.5937 17.1655 18.0163 0.0000 0.0000 0.0000
# 2 17.1655 93.3589 25.3019 0.0000 0.0000 0.0000
# 3 18.0163 25.3019 81.4960 0.0000 0.0000 0.0000
# 4 0.0000 0.0000 0.0000 8.4676 0.0000 0.0000
# 5 0.0000 0.0000 0.0000 0.0000 60.0764 0.0000
# 6 0.0000 0.0000 0.0000 0.0000 0.0000 23.1734
#
#
#
# Elastic Compliance Matrix: (Units=1/GPa)
#
#
# Indices 1 2 3 4 5 6 
#
# 1 0.014483 -0.001960 -0.002593 0.000000 0.000000 0.000000
# 2 -0.001960 0.011961 -0.003280 0.000000 0.000000 0.000000
# 3 -0.002593 -0.003280 0.013862 0.000000 0.000000 0.000000
# 4 0.000000 0.000000 0.000000 0.118097 0.000000 0.000000
# 5 0.000000 0.000000 0.000000 0.000000 0.016645 0.000000
# 6 0.000000 0.000000 0.000000 0.000000 0.000000 0.043153
#
#
# Mechanical properties :
#
#
# Convention : Reuss Voigt Hill
#
# Bulk Modulus (GPa) = 40.58566 41.15733 40.87149
# Shear Modulus (GPa) = 20.65418 30.94114 25.79766
#
# Velocity S-wave (km/s) = 3.37669 4.13291 3.77379
# Velocity P-wave (km/s) = 6.13253 6.74502 6.44606
#
# Compressibility (1/GPa) = 0.02463924
#
# Stress axis : x y z
#
# Youngs Moduli (GPa) = 69.04465 83.60703 72.13868
#
# Poissons Ratio (x) = 0.16388 0.18708
# Poissons Ratio (y) = 0.13534 0.23662
# Poissons Ratio (z) = 0.17905 0.27424
#
# Static dielectric constant tensor:
#      x y z
#    x 1.615310 0.000000 0.000000 
#    y 0.000000 1.647510 0.000000 
#    z 0.000000 0.000000 1.591140 
# 
# From -- ./inp_files/42205.got.cif
#   From: 2010.05.17/outbox.cif.g08.bks.cpg/sg67_22_cif.got.tgz:42205.got - 2010.06.03 18:28:57.
