data_PCOD9503766
_publ_section_title
;
Structure prediction by ZEFSAII (Michael W. Deem and Ramdas Pophale) SiO2 
 PCOD9503766
Probable space group: C M M A
;
_chemical_formula_sum "Si O2"
_cell_formula_units_Z 96
_cell_length_a 8.735439
_cell_length_b 18.920112
_cell_length_c 31.511296
_cell_angle_alpha 90.000000
_cell_angle_beta 90.000000
_cell_angle_gamma 90.000000
_cell_volume 5208.044706
_symmetry_space_group_name_H-M "C M M A"
_symmetry_group_IT_number 67
_symmetry_cell_setting 'orthorhombic'
loop_
_space_group_symop_operation_xyz
x,y,z
-x,1/2-y,z
x,-y,-z
-x,1/2+y,-z
-x,-y,-z
x,1/2+y,-z
-x,y,z
x,1/2-y,z
1/2+x,1/2+y,z
1/2-x,-y,z
1/2+x,1/2-y,-z
1/2-x,y,-z
1/2-x,1/2-y,-z
1/2+x,y,-z
1/2-x,1/2+y,z
1/2+x,-y,z
loop_
_atom_site_type_symbol
_atom_site_label
_atom_site_fract_x
_atom_site_fract_y
_atom_site_fract_z
Si Si1 0.315179 0.078585 0.705388
Si Si2 0.680659 0.165724 0.121279
Si Si3 0.182088 0.578597 0.955557
Si Si4 0.815531 0.667392 0.787629
Si Si5 0.184573 0.332677 0.377871
Si Si6 0.817132 0.577382 0.453722
O O1 0.500000 0.075287 0.705716
O O2 0.267008 0.119232 0.748196
O O3 0.270174 0.124048 0.664177
O O4 0.250000 0.000000 0.703408
O O5 0.500000 0.151344 0.118097
O O6 0.704886 0.250000 0.117172
O O7 0.767658 0.125524 0.084072
O O8 0.741146 0.145380 0.167890
O O9 0.250000 0.500000 0.950037
O O10 0.000000 0.574519 0.958777
O O11 0.250000 0.606734 0.000000
O O12 0.776975 0.750000 0.779667
O O13 0.000000 0.663317 0.791530
O O14 0.221645 0.250000 0.373491
O O15 0.263493 0.367387 0.418518
O O16 0.000000 0.338620 0.382492
O O17 0.750000 0.500000 0.442564
O O18 0.750000 0.595664 0.500000
O O19 0.000000 0.573175 0.455987
#
# Coordination Sequence:
#
# PCOD9503766 Si02
#       6
#    16  16  16  16  16  16
#     4  10  21  36  56  82 111 145 184 228 277 331
#     4  10  21  37  57  83 114 147 185 229 277 329
#     4  11  22  38  59  82 111 146 185 229 278 331
#     4   9  18  35  57  79 106 143 186 228 273 327
#     4  10  21  38  59  83 113 149 188 231 280 332
#     4  11  22  38  60  85 114 148 187 230 278 331
#
# _framework density 18.433022000000001
#
# number of rings (size 3 to 8) (size 9 to 14) (size 15 to 20)
#    0.000    1.833    0.000    5.500    0.000    7.333 
#    0.000    1.667    0.000    3.000    0.000    0.000 
#    0.000    0.000    0.000    0.000    0.000    0.000 
#
# Total GULP energy -268215.537446 kJ/mol
# GULP energy per Si atom -5587.823697 kJ/mol
# Density = 1.839107 g / cm^3
# Si number density = 18.433022 Si / 1000 Ang^3
#
#
#
# Elastic Constant Matrix: (Units=GPa)
#
#
# Indices 1 2 3 4 5 6 
#
# 1 91.9574 62.4763 74.1427 0.0000 0.0000 0.0000
# 2 62.4763 108.5045 104.9333 0.0000 0.0000 0.0000
# 3 74.1427 104.9333 158.1448 0.0000 0.0000 0.0000
# 4 0.0000 0.0000 0.0000 41.6787 0.0000 0.0000
# 5 0.0000 0.0000 0.0000 0.0000 30.5448 0.0000
# 6 0.0000 0.0000 0.0000 0.0000 0.0000 30.1390
#
#
#
# Elastic Compliance Matrix: (Units=1/GPa)
#
#
# Indices 1 2 3 4 5 6 
#
# 1 0.018990 -0.006487 -0.004599 0.000000 0.000000 0.000000
# 2 -0.006487 0.027937 -0.015496 0.000000 0.000000 0.000000
# 3 -0.004599 -0.015496 0.018761 0.000000 0.000000 0.000000
# 4 0.000000 0.000000 0.000000 0.023993 0.000000 0.000000
# 5 0.000000 0.000000 0.000000 0.000000 0.032739 0.000000
# 6 0.000000 0.000000 0.000000 0.000000 0.000000 0.033180
#
#
# Mechanical properties :
#
#
# Convention : Reuss Voigt Hill
#
# Bulk Modulus (GPa) = 79.83850 93.52350 86.68100
# Shear Modulus (GPa) = 23.48115 28.27611 25.87863
#
# Velocity S-wave (km/s) = 3.57299 3.92087 3.75097
# Velocity P-wave (km/s) = 7.77358 8.44658 8.11706
#
# Compressibility (1/GPa) = 0.01252528
#
# Stress axis : x y z
#
# Youngs Moduli (GPa) = 52.66065 35.79481 53.30147
#
# Poissons Ratio (x) = 0.23219 0.24512
# Poissons Ratio (y) = 0.34159 0.82595
# Poissons Ratio (z) = 0.24217 0.55467
#
# Static dielectric constant tensor:
#      x y z
#    x 1.621900 0.000000 0.000000 
#    y 0.000000 1.609450 0.000000 
#    z 0.000000 0.000000 1.614230 
# 
# From -- ./inp_files/43489.got.cif
#   From: 2010.05.17/outbox.cif.g08.bks.cpg/sg67_22_cif.got.tgz:43489.got - 2010.06.03 18:28:57.
