data_PCOD9503861
_publ_section_title
;
Structure prediction by ZEFSAII (Michael W. Deem and Ramdas Pophale) SiO2 
 PCOD9503861
Probable space group: C M M A
;
_chemical_formula_sum "Si O2"
_cell_formula_units_Z 72
_cell_length_a 10.228896
_cell_length_b 14.168205
_cell_length_c 27.392120
_cell_angle_alpha 90.000000
_cell_angle_beta 90.000000
_cell_angle_gamma 90.000000
_cell_volume 3969.805606
_symmetry_space_group_name_H-M "C M M A"
_symmetry_group_IT_number 67
_symmetry_cell_setting 'orthorhombic'
loop_
_space_group_symop_operation_xyz
x,y,z
-x,1/2-y,z
x,-y,-z
-x,1/2+y,-z
-x,-y,-z
x,1/2+y,-z
-x,y,z
x,1/2-y,z
1/2+x,1/2+y,z
1/2-x,-y,z
1/2+x,1/2-y,-z
1/2-x,y,-z
1/2-x,1/2-y,-z
1/2+x,y,-z
1/2-x,1/2+y,z
1/2+x,-y,z
loop_
_atom_site_type_symbol
_atom_site_label
_atom_site_fract_x
_atom_site_fract_y
_atom_site_fract_z
Si Si1 0.652562 0.588433 0.625610
Si Si2 0.000000 0.887667 0.949731
Si Si3 0.000000 0.884411 0.061356
Si Si4 0.151956 0.250000 0.706549
Si Si5 0.740336 0.112886 0.881798
Si Si6 0.657575 0.250000 0.798181
Si Si7 0.846528 0.250000 0.545495
O O1 0.500000 0.557935 0.624352
O O2 0.750000 0.500000 0.626440
O O3 0.668067 0.657735 0.672251
O O4 0.674922 0.657618 0.579325
O O5 0.872243 0.860201 0.920016
O O6 0.000000 0.001889 0.945991
O O7 0.000000 0.853352 0.005152
O O8 0.125252 0.857698 0.092845
O O9 0.259360 0.250000 0.748727
O O10 0.000000 0.250000 0.724312
O O11 0.702884 0.161448 0.831214
O O12 0.750000 0.000000 0.875696
O O13 0.500000 0.250000 0.791671
O O14 0.750000 0.250000 0.500000
O O15 0.000000 0.250000 0.531138
#
# Coordination Sequence:
#
# PCOD9503861 Si02
#       7
#    16   8   8   8  16   8   8
#     4   9  19  38  61  87 118 155 201 250 291 339
#     4   9  16  35  55  81 110 143 173 218 267 327
#     4   9  18  31  59  81 106 143 181 210 267 331
#     4   9  22  42  61  80 108 147 190 240 295 345
#     4  10  21  37  56  81 111 141 177 222 272 333
#     4  12  25  41  58  81 114 144 178 231 290 343
#     4   9  19  35  55  86 132 173 206 242 288 336
#
# _framework density 18.136907000000001
#
# number of rings (size 3 to 8) (size 9 to 14) (size 15 to 20)
#    0.000    2.444    1.111    2.000    1.556    5.778 
#    0.000   10.000    0.000    0.000    0.000    0.000 
#    0.000    0.000    0.000    0.000    0.000    0.000 
#
# Total GULP energy -200849.887402 kJ/mol
# GULP energy per Si atom -5579.163539 kJ/mol
# Density = 1.809563 g / cm^3
# Si number density = 18.136907 Si / 1000 Ang^3
#
#
#
# Elastic Constant Matrix: (Units=GPa)
#
#
# Indices 1 2 3 4 5 6 
#
# 1 204.5235 75.1244 111.0231 0.0000 0.0000 0.0000
# 2 75.1244 136.0313 44.4000 0.0000 0.0000 0.0000
# 3 111.0231 44.4000 142.6847 0.0000 0.0000 0.0000
# 4 0.0000 0.0000 0.0000 9.4742 0.0000 0.0000
# 5 0.0000 0.0000 0.0000 0.0000 37.7610 0.0000
# 6 0.0000 0.0000 0.0000 0.0000 0.0000 39.8646
#
#
#
# Elastic Compliance Matrix: (Units=1/GPa)
#
#
# Indices 1 2 3 4 5 6 
#
# 1 0.009554 -0.003172 -0.006447 0.000000 0.000000 0.000000
# 2 -0.003172 0.009235 -0.000406 0.000000 0.000000 0.000000
# 3 -0.006447 -0.000406 0.012151 0.000000 0.000000 0.000000
# 4 0.000000 0.000000 0.000000 0.105550 0.000000 0.000000
# 5 0.000000 0.000000 0.000000 0.000000 0.026482 0.000000
# 6 0.000000 0.000000 0.000000 0.000000 0.000000 0.025085
#
#
# Mechanical properties :
#
#
# Convention : Reuss Voigt Hill
#
# Bulk Modulus (GPa) = 91.81702 104.92604 98.37153
# Shear Modulus (GPa) = 23.61401 34.26610 28.94005
#
# Velocity S-wave (km/s) = 3.61222 4.35133 3.99889
# Velocity P-wave (km/s) = 8.25420 9.12267 8.69928
#
# Compressibility (1/GPa) = 0.01089123
#
# Stress axis : x y z
#
# Youngs Moduli (GPa) = 104.66453 108.27811 82.29640
#
# Poissons Ratio (x) = 0.34347 0.53058
# Poissons Ratio (y) = 0.33201 0.03338
# Poissons Ratio (z) = 0.67479 0.04392
#
# Static dielectric constant tensor:
#      x y z
#    x 1.537910 0.000000 0.000000 
#    y 0.000000 1.644510 0.000000 
#    z 0.000000 0.000000 1.589870 
# 
# From -- ./inp_files/43169.got.cif
#   From: 2010.05.17/outbox.cif.g08.bks.cpg/sg67_22_cif.got.tgz:43169.got - 2010.06.03 18:28:57.
