data_PCOD9503215
_publ_section_title
;
Structure prediction by ZEFSAII (Michael W. Deem and Ramdas Pophale) SiO2 
 PCOD9503215
Probable space group: C M M A
;
_chemical_formula_sum "Si O2"
_cell_formula_units_Z 116
_cell_length_a 32.160530
_cell_length_b 7.620173
_cell_length_c 23.979544
_cell_angle_alpha 90.000000
_cell_angle_beta 90.000000
_cell_angle_gamma 90.000000
_cell_volume 5876.638129
_symmetry_space_group_name_H-M "C M M A"
_symmetry_group_IT_number 67
_symmetry_cell_setting 'orthorhombic'
loop_
_space_group_symop_operation_xyz
x,y,z
-x,1/2-y,z
x,-y,-z
-x,1/2+y,-z
-x,-y,-z
x,1/2+y,-z
-x,y,z
x,1/2-y,z
1/2+x,1/2+y,z
1/2-x,-y,z
1/2+x,1/2-y,-z
1/2-x,y,-z
1/2-x,1/2-y,-z
1/2+x,y,-z
1/2-x,1/2+y,z
1/2+x,-y,z
loop_
_atom_site_type_symbol
_atom_site_label
_atom_site_fract_x
_atom_site_fract_y
_atom_site_fract_z
Si Si1 0.296783 0.042548 0.858311
Si Si2 0.500000 0.250000 0.408801
Si Si3 0.045875 0.959575 0.738716
Si Si4 0.703038 0.539018 0.268135
Si Si5 0.570913 0.040326 0.565048
Si Si6 0.125444 0.455353 0.935402
Si Si7 0.876498 0.462360 0.333564
Si Si8 0.046321 0.537794 0.130781
O O1 0.299224 0.250000 0.853524
O O2 0.302254 0.969510 0.795414
O O3 0.250000 0.000000 0.877609
O O4 0.333177 0.990521 0.900004
O O5 0.464103 0.406615 0.413497
O O6 0.044186 0.750000 0.729903
O O7 0.084534 0.027852 0.703478
O O8 0.000000 0.032350 0.723500
O O9 0.052519 0.990859 0.804329
O O10 0.699490 0.750000 0.265559
O O11 0.750000 0.500000 0.286140
O O12 0.666790 0.472279 0.308473
O O13 0.560015 0.250000 0.571429
O O14 0.611541 0.004889 0.602656
O O15 0.576784 0.000000 0.500000
O O16 0.118713 0.250000 0.933280
O O17 0.084251 0.533853 0.906115
O O18 0.130146 0.500000 0.000000
O O19 0.875829 0.250000 0.327457
O O20 0.045624 0.750000 0.128004
O O21 0.000000 0.475698 0.114201
#
# Coordination Sequence:
#
# PCOD9503215 Si02
#       8
#    16   4  16  16  16  16  16  16
#     4  10  20  36  60  85 112 139 173 214 267 334
#     4  12  24  40  58  86 116 160 218 236 292 338
#     4   9  17  31  51  77 104 139 178 216 271 336
#     4   9  18  35  58  85 110 142 180 223 279 337
#     4  11  23  39  58  83 118 162 202 250 288 337
#     4  11  23  37  54  76 104 137 179 220 268 321
#     4   9  19  35  55  78 113 149 183 231 280 329
#     4   9  19  36  53  73 103 138 173 222 273 317
#
# _framework density 19.739177000000002
#
# number of rings (size 3 to 8) (size 9 to 14) (size 15 to 20)
#    0.000    2.207    0.690    2.069    0.966    3.310 
#    2.483    1.379    0.000    0.414    0.000    2.897 
#    0.000    0.000    0.000    0.000    0.000    0.000 
#
# Total GULP energy -323098.428056 kJ/mol
# GULP energy per Si atom -5570.662553 kJ/mol
# Density = 1.969425 g / cm^3
# Si number density = 19.739177 Si / 1000 Ang^3
#
#
#
# Elastic Constant Matrix: (Units=GPa)
#
#
# Indices 1 2 3 4 5 6 
#
# 1 152.6764 13.0967 84.5997 0.0000 0.0000 0.0000
# 2 13.0967 71.6954 10.1598 0.0000 0.0000 0.0000
# 3 84.5997 10.1598 72.7925 0.0000 0.0000 0.0000
# 4 0.0000 0.0000 0.0000 11.9608 0.0000 0.0000
# 5 0.0000 0.0000 0.0000 0.0000 -12.6613 0.0000
# 6 0.0000 0.0000 0.0000 0.0000 0.0000 17.4295
#
#
#
# Elastic Compliance Matrix: (Units=1/GPa)
#
#
# Indices 1 2 3 4 5 6 
#
# 1 0.018406 -0.000338 -0.021344 0.000000 0.000000 0.000000
# 2 -0.000338 0.014236 -0.001595 0.000000 0.000000 0.000000
# 3 -0.021344 -0.001595 0.038767 0.000000 0.000000 0.000000
# 4 0.000000 0.000000 0.000000 0.083607 0.000000 0.000000
# 5 0.000000 0.000000 0.000000 0.000000 -0.078981 0.000000
# 6 0.000000 0.000000 0.000000 0.000000 0.000000 0.057374
#
#
# Mechanical properties :
#
#
# Convention : Reuss Voigt Hill
#
# Bulk Modulus (GPa) = 40.23297 56.98632 48.60964
# Shear Modulus (GPa) = 26.56106 15.96632 21.26369
#
# Velocity S-wave (km/s) = 3.67222 2.84714 3.28568
# Velocity P-wave (km/s) = 6.19733 6.30401 6.25090
#
# Compressibility (1/GPa) = 0.02485524
#
# Stress axis : x y z
#
# Youngs Moduli (GPa) = 54.33065 70.24680 25.79545
#
# Poissons Ratio (x) = 0.02371 0.55058
# Poissons Ratio (y) = 0.01834 0.04113
# Poissons Ratio (z) = 1.15964 0.11201
#
# Static dielectric constant tensor:
#      x y z
#    x 1.680850 0.000000 0.000000 
#    y 0.000000 1.731560 0.000000 
#    z 0.000000 0.000000 1.639470 
# 
# From -- ./inp_files/42989.got.cif
#   From: 2010.05.17/outbox.cif.g08.bks.cpg/sg67_22_cif.got.tgz:42989.got - 2010.06.03 18:28:57.
