data_PCOD9503372
_publ_section_title
;
Structure prediction by ZEFSAII (Michael W. Deem and Ramdas Pophale) SiO2 
 PCOD9503372
Probable space group: C M M A
;
_chemical_formula_sum "Si O2"
_cell_formula_units_Z 80
_cell_length_a 8.541255
_cell_length_b 31.215990
_cell_length_c 14.828635
_cell_angle_alpha 90.000000
_cell_angle_beta 90.000000
_cell_angle_gamma 90.000000
_cell_volume 3953.665984
_symmetry_space_group_name_H-M "C M M A"
_symmetry_group_IT_number 67
_symmetry_cell_setting 'orthorhombic'
loop_
_space_group_symop_operation_xyz
x,y,z
-x,1/2-y,z
x,-y,-z
-x,1/2+y,-z
-x,-y,-z
x,1/2+y,-z
-x,y,z
x,1/2-y,z
1/2+x,1/2+y,z
1/2-x,-y,z
1/2+x,1/2-y,-z
1/2-x,y,-z
1/2-x,1/2-y,-z
1/2+x,y,-z
1/2-x,1/2+y,z
1/2+x,-y,z
loop_
_atom_site_type_symbol
_atom_site_label
_atom_site_fract_x
_atom_site_fract_y
_atom_site_fract_z
Si Si1 0.313732 0.951936 0.253624
Si Si2 0.811957 0.203409 0.396909
Si Si3 0.189203 0.295921 0.896993
Si Si4 0.688669 0.890009 0.897795
Si Si5 0.686320 0.386171 0.397958
O O1 0.500000 0.952651 0.255443
O O2 0.255462 0.926874 0.165127
O O3 0.251079 0.924406 0.337691
O O4 0.250000 0.000000 0.255652
O O5 0.767629 0.250000 0.357584
O O6 0.750000 0.204205 0.500000
O O7 0.740406 0.159918 0.358537
O O8 0.000000 0.200153 0.397417
O O9 0.242170 0.250000 0.857051
O O10 0.238313 0.342588 0.861757
O O11 0.000000 0.295817 0.897008
O O12 0.250000 0.295747 0.000000
O O13 0.500000 0.891890 0.897561
O O14 0.750000 0.894024 0.000000
O O15 0.500000 0.387109 0.399598
O O16 0.750000 0.389371 0.500000
#
# Coordination Sequence:
#
# PCOD9503372 Si02
#       5
#    16  16  16  16  16
#     4  12  26  45  65  87 115 149 194 249 305 359
#     4   9  16  28  50  82 119 158 198 239 285 339
#     4   8  14  26  48  79 115 153 191 230 274 329
#     4  10  20  37  61  90 122 158 198 241 292 349
#     4  11  22  39  63  91 122 158 198 241 293 352
#
# _framework density 20.234383999999999
#
# number of rings (size 3 to 8) (size 9 to 14) (size 15 to 20)
#    0.000    2.000    0.000    6.000    0.000    2.800 
#    0.000    5.000    0.000    3.600    0.000    0.000 
#    0.000    0.000    0.000    0.000    0.000    0.000 
#
# Total GULP energy -223293.389506 kJ/mol
# GULP energy per Si atom -5582.334738 kJ/mol
# Density = 2.018833 g / cm^3
# Si number density = 20.234384 Si / 1000 Ang^3
#
#
#
# Elastic Constant Matrix: (Units=GPa)
#
#
# Indices 1 2 3 4 5 6 
#
# 1 130.5954 82.3576 37.1078 0.0000 0.0000 0.0000
# 2 82.3576 253.7067 80.0963 0.0000 0.0000 0.0000
# 3 37.1078 80.0963 101.6562 0.0000 0.0000 0.0000
# 4 0.0000 0.0000 0.0000 46.7909 0.0000 0.0000
# 5 0.0000 0.0000 0.0000 0.0000 23.3666 0.0000
# 6 0.0000 0.0000 0.0000 0.0000 0.0000 36.8971
#
#
#
# Elastic Compliance Matrix: (Units=1/GPa)
#
#
# Indices 1 2 3 4 5 6 
#
# 1 0.009780 -0.002726 -0.001422 0.000000 0.000000 0.000000
# 2 -0.002726 0.006006 -0.003737 0.000000 0.000000 0.000000
# 3 -0.001422 -0.003737 0.013301 0.000000 0.000000 0.000000
# 4 0.000000 0.000000 0.000000 0.021372 0.000000 0.000000
# 5 0.000000 0.000000 0.000000 0.000000 0.042796 0.000000
# 6 0.000000 0.000000 0.000000 0.000000 0.000000 0.027102
#
#
# Mechanical properties :
#
#
# Convention : Reuss Voigt Hill
#
# Bulk Modulus (GPa) = 75.09543 98.34242 86.71893
# Shear Modulus (GPa) = 35.56988 40.50401 38.03695
#
# Velocity S-wave (km/s) = 4.19727 4.47894 4.34039
# Velocity P-wave (km/s) = 7.78992 8.68648 8.25039
#
# Compressibility (1/GPa) = 0.01331639
#
# Stress axis : x y z
#
# Youngs Moduli (GPa) = 102.24520 166.49071 75.18159
#
# Poissons Ratio (x) = 0.45382 0.10694
# Poissons Ratio (y) = 0.27870 0.28099
# Poissons Ratio (z) = 0.14544 0.62225
#
# Static dielectric constant tensor:
#      x y z
#    x 1.655720 0.000000 0.000000 
#    y 0.000000 1.750130 0.000000 
#    z 0.000000 0.000000 1.752730 
# 
# From -- ./inp_files/32295.got.cif
#   From: 2010.05.17/outbox.cif.g08.bks.cpg/sg67_17_cif.got.tgz:32295.got - 2010.06.03 18:28:57.
