data_PCOD9503305
_publ_section_title
;
Structure prediction by ZEFSAII (Michael W. Deem and Ramdas Pophale) SiO2 
 PCOD9503305
Probable space group: C M M A
;
_chemical_formula_sum "Si O2"
_cell_formula_units_Z 96
_cell_length_a 20.492466
_cell_length_b 14.306488
_cell_length_c 15.065878
_cell_angle_alpha 90.000000
_cell_angle_beta 90.000000
_cell_angle_gamma 90.000000
_cell_volume 4416.942081
_symmetry_space_group_name_H-M "C M M A"
_symmetry_group_IT_number 67
_symmetry_cell_setting 'orthorhombic'
loop_
_space_group_symop_operation_xyz
x,y,z
-x,1/2-y,z
x,-y,-z
-x,1/2+y,-z
-x,-y,-z
x,1/2+y,-z
-x,y,z
x,1/2-y,z
1/2+x,1/2+y,z
1/2-x,-y,z
1/2+x,1/2-y,-z
1/2-x,y,-z
1/2-x,1/2-y,-z
1/2+x,y,-z
1/2-x,1/2+y,z
1/2+x,-y,z
loop_
_atom_site_type_symbol
_atom_site_label
_atom_site_fract_x
_atom_site_fract_y
_atom_site_fract_z
Si Si1 0.701515 0.355325 0.069595
Si Si2 0.422701 0.544917 0.230592
Si Si3 0.185279 0.363046 0.549845
Si Si4 0.848757 0.363361 0.749089
Si Si5 0.925506 0.895511 0.962543
Si Si6 0.924168 0.637181 0.587205
O O1 0.726001 0.250000 0.082897
O O2 0.696775 0.392768 0.168689
O O3 0.750000 0.401218 0.000000
O O4 0.629767 0.351946 0.025039
O O5 0.500000 0.558849 0.228540
O O6 0.408739 0.434211 0.236297
O O7 0.400272 0.593468 0.138846
O O8 0.398723 0.593495 0.320746
O O9 0.186401 0.250000 0.547142
O O10 0.250000 0.395768 0.500000
O O11 0.180646 0.386175 0.653224
O O12 0.121353 0.391159 0.494619
O O13 0.861908 0.250000 0.753902
O O14 0.000000 0.856830 0.964591
O O15 0.930811 0.000000 0.000000
O O16 0.922155 0.750000 0.595052
O O17 0.000000 0.610354 0.573666
#
# Coordination Sequence:
#
# PCOD9503305 Si02
#       6
#    16  16  16  16  16  16
#     4  10  22  39  59  86 118 152 195 245 293 350
#     4  10  21  37  59  88 118 151 195 243 288 344
#     4   9  19  37  60  84 115 153 191 238 291 344
#     4  10  21  38  58  83 115 152 193 238 294 352
#     4  10  20  37  57  81 116 153 191 238 290 346
#     4   9  19  37  59  84 116 153 194 240 289 341
#
# _framework density 21.734494000000002
#
# number of rings (size 3 to 8) (size 9 to 14) (size 15 to 20)
#    0.000    2.333    1.667    0.000    0.000    4.333 
#    0.000   13.333    0.000    0.000    0.000    0.000 
#    0.000    0.000    0.000    0.000    0.000    0.000 
#
# Total GULP energy -267638.388689 kJ/mol
# GULP energy per Si atom -5575.799764 kJ/mol
# Density = 2.168503 g / cm^3
# Si number density = 21.734494 Si / 1000 Ang^3
#
#
#
# Elastic Constant Matrix: (Units=GPa)
#
#
# Indices 1 2 3 4 5 6 
#
# 1 50.4093 -0.9065 56.7774 0.0000 0.0000 0.0000
# 2 -0.9065 64.5560 13.3655 0.0000 0.0000 0.0000
# 3 56.7774 13.3655 220.6809 0.0000 0.0000 0.0000
# 4 0.0000 0.0000 0.0000 25.0869 0.0000 0.0000
# 5 0.0000 0.0000 0.0000 0.0000 19.9823 0.0000
# 6 0.0000 0.0000 0.0000 0.0000 0.0000 -15.9840
#
#
#
# Elastic Compliance Matrix: (Units=1/GPa)
#
#
# Indices 1 2 3 4 5 6 
#
# 1 0.028165 0.001920 -0.007363 0.000000 0.000000 0.000000
# 2 0.001920 0.015818 -0.001452 0.000000 0.000000 0.000000
# 3 -0.007363 -0.001452 0.006514 0.000000 0.000000 0.000000
# 4 0.000000 0.000000 0.000000 0.039861 0.000000 0.000000
# 5 0.000000 0.000000 0.000000 0.000000 0.050044 0.000000
# 6 0.000000 0.000000 0.000000 0.000000 0.000000 -0.062563
#
#
# Mechanical properties :
#
#
# Convention : Reuss Voigt Hill
#
# Bulk Modulus (GPa) = 27.24273 52.67989 39.96131
# Shear Modulus (GPa) = 48.13956 23.57770 35.85863
#
# Velocity S-wave (km/s) = 4.71137 3.29721 4.06624
# Velocity P-wave (km/s) = 6.49288 6.22784 6.36174
#
# Compressibility (1/GPa) = 0.03670704
#
# Stress axis : x y z
#
# Youngs Moduli (GPa) = 35.50527 63.21914 153.52408
#
# Poissons Ratio (x) = -0.12137 1.13034
# Poissons Ratio (y) = -0.06816 0.22291
# Poissons Ratio (z) = 0.26141 0.09179
#
# Static dielectric constant tensor:
#      x y z
#    x 1.802860 0.000000 0.000000 
#    y 0.000000 1.797660 0.000000 
#    z 0.000000 0.000000 1.846060 
# 
# From -- ./inp_files/29290.got.cif
#   From: 2010.05.17/outbox.cif.g08.bks.cpg/sg67_15_cif.got.tgz:29290.got - 2010.06.03 18:28:57.
