data_PCOD9503358
_publ_section_title
;
Structure prediction by ZEFSAII (Michael W. Deem and Ramdas Pophale) SiO2 
 PCOD9503358
Probable space group: C M M A
;
_chemical_formula_sum "Si O2"
_cell_formula_units_Z 88
_cell_length_a 16.089622
_cell_length_b 9.439484
_cell_length_c 30.178463
_cell_angle_alpha 90.000000
_cell_angle_beta 90.000000
_cell_angle_gamma 90.000000
_cell_volume 4583.436438
_symmetry_space_group_name_H-M "C M M A"
_symmetry_group_IT_number 67
_symmetry_cell_setting 'orthorhombic'
loop_
_space_group_symop_operation_xyz
x,y,z
-x,1/2-y,z
x,-y,-z
-x,1/2+y,-z
-x,-y,-z
x,1/2+y,-z
-x,y,z
x,1/2-y,z
1/2+x,1/2+y,z
1/2-x,-y,z
1/2+x,1/2-y,-z
1/2-x,y,-z
1/2-x,1/2-y,-z
1/2+x,y,-z
1/2-x,1/2+y,z
1/2+x,-y,z
loop_
_atom_site_type_symbol
_atom_site_label
_atom_site_fract_x
_atom_site_fract_y
_atom_site_fract_z
Si Si1 0.101770 0.412377 0.543107
Si Si2 0.832414 0.919674 0.100230
Si Si3 0.000000 0.420619 0.953439
Si Si4 0.836218 0.580596 0.726466
Si Si5 0.095618 0.087142 0.805785
Si Si6 0.899671 0.087139 0.371834
O O1 0.128280 0.500000 0.500000
O O2 0.128461 0.250000 0.540598
O O3 0.129229 0.486329 0.588600
O O4 0.000000 0.413768 0.543229
O O5 0.821339 0.750000 0.096943
O O6 0.849203 0.953162 0.152023
O O7 0.915955 0.957183 0.073413
O O8 0.750000 0.000000 0.084821
O O9 0.000000 0.250000 0.959243
O O10 0.000000 0.500000 0.000000
O O11 0.828954 0.750000 0.730687
O O12 0.750000 0.500000 0.732845
O O13 0.894132 0.516453 0.764525
O O14 0.867935 0.548796 0.676875
O O15 0.115864 0.250000 0.792685
O O16 0.000000 0.087083 0.820899
O O17 0.875673 0.250000 0.381296
O O18 0.000000 0.082099 0.370756
#
# Coordination Sequence:
#
# PCOD9503358 Si02
#       6
#    16  16   8  16  16  16
#     4   9  16  26  44  71 100 129 165 211 264 323
#     4  10  21  39  62  89 123 162 202 250 303 359
#     4  10  22  42  64  88 124 164 206 254 307 360
#     4  11  23  37  53  77 110 147 186 231 281 336
#     4  10  20  37  61  86 115 152 191 235 291 350
#     4   9  18  33  51  71  99 134 172 217 270 325
#
# _framework density 19.199569
#
# number of rings (size 3 to 8) (size 9 to 14) (size 15 to 20)
#    0.000    2.182    0.909    2.182    0.000    8.000 
#    0.000    3.636    0.000    0.545    0.000    3.818 
#    0.000    0.000    0.000    0.000    0.000    0.000 
#
# Total GULP energy -245653.392004 kJ/mol
# GULP energy per Si atom -5583.031636 kJ/mol
# Density = 1.915587 g / cm^3
# Si number density = 19.199569 Si / 1000 Ang^3
#
#
#
# Elastic Constant Matrix: (Units=GPa)
#
#
# Indices 1 2 3 4 5 6 
#
# 1 79.5003 36.9529 40.8897 0.0000 0.0000 0.0000
# 2 36.9529 72.1603 67.7624 0.0000 0.0000 0.0000
# 3 40.8897 67.7624 117.6288 0.0000 0.0000 0.0000
# 4 0.0000 0.0000 0.0000 36.2213 0.0000 0.0000
# 5 0.0000 0.0000 0.0000 0.0000 -1.7904 0.0000
# 6 0.0000 0.0000 0.0000 0.0000 0.0000 22.4038
#
#
#
# Elastic Compliance Matrix: (Units=1/GPa)
#
#
# Indices 1 2 3 4 5 6 
#
# 1 0.016704 -0.006756 -0.001915 0.000000 0.000000 0.000000
# 2 -0.006756 0.032922 -0.016617 0.000000 0.000000 0.000000
# 3 -0.001915 -0.016617 0.018739 0.000000 0.000000 0.000000
# 4 0.000000 0.000000 0.000000 0.027608 0.000000 0.000000
# 5 0.000000 0.000000 0.000000 0.000000 -0.558540 0.000000
# 6 0.000000 0.000000 0.000000 0.000000 0.000000 0.044635
#
#
# Mechanical properties :
#
#
# Convention : Reuss Voigt Hill
#
# Bulk Modulus (GPa) = 56.21108 62.27771 59.24439
# Shear Modulus (GPa) = -13.83404 19.61257 2.88927
#
# Velocity S-wave (km/s) = -2.68720 3.19958 1.22806
# Velocity P-wave (km/s) = 4.43991 6.79391 5.73890
#
# Compressibility (1/GPa) = 0.01779009
#
# Stress axis : x y z
#
# Youngs Moduli (GPa) = 59.86757 30.37508 53.36403
#
# Poissons Ratio (x) = 0.20521 0.10217
# Poissons Ratio (y) = 0.40446 0.88673
# Poissons Ratio (z) = 0.11462 0.50473
#
# Static dielectric constant tensor:
#      x y z
#    x 1.687140 0.000000 0.000000 
#    y 0.000000 1.644630 0.000000 
#    z 0.000000 0.000000 1.651110 
# 
# From -- ./inp_files/45817.got.cif
#   From: 2010.05.17/outbox.cif.g08.bks.cpg/sg67_23_cif.got.tgz:45817.got - 2010.06.03 18:28:57.
