data_PCOD9503829
_publ_section_title
;
Structure prediction by ZEFSAII (Michael W. Deem and Ramdas Pophale) SiO2 
 PCOD9503829
Probable space group: C M M A
;
_chemical_formula_sum "Si O2"
_cell_formula_units_Z 84
_cell_length_a 30.040555
_cell_length_b 14.091705
_cell_length_c 11.742528
_cell_angle_alpha 90.000000
_cell_angle_beta 90.000000
_cell_angle_gamma 90.000000
_cell_volume 4970.877943
_symmetry_space_group_name_H-M "C M M A"
_symmetry_group_IT_number 67
_symmetry_cell_setting 'orthorhombic'
loop_
_space_group_symop_operation_xyz
x,y,z
-x,1/2-y,z
x,-y,-z
-x,1/2+y,-z
-x,-y,-z
x,1/2+y,-z
-x,y,z
x,1/2-y,z
1/2+x,1/2+y,z
1/2-x,-y,z
1/2+x,1/2-y,-z
1/2-x,y,-z
1/2-x,1/2-y,-z
1/2+x,y,-z
1/2-x,1/2+y,z
1/2+x,-y,z
loop_
_atom_site_type_symbol
_atom_site_label
_atom_site_fract_x
_atom_site_fract_y
_atom_site_fract_z
Si Si1 0.770773 0.364945 0.380288
Si Si2 0.750000 0.000000 0.000000
Si Si3 0.132120 0.136892 0.416584
Si Si4 0.796991 0.135987 0.823118
Si Si5 0.885300 0.862100 0.317829
Si Si6 0.950278 0.982441 0.636335
O O1 0.773638 0.250000 0.385836
O O2 0.750000 0.395271 0.500000
O O3 0.821183 0.400284 0.367739
O O4 0.737875 0.385881 0.278011
O O5 0.718521 0.069149 0.074636
O O6 0.130747 0.250000 0.405867
O O7 0.131340 0.116261 0.552623
O O8 0.088862 0.094610 0.356251
O O9 0.794092 0.250000 0.848552
O O10 0.846117 0.117951 0.771793
O O11 0.894668 0.750000 0.314173
O O12 0.929567 0.924386 0.305212
O O13 0.000000 0.958013 0.676000
O O14 0.953512 0.000000 0.500000
#
# Coordination Sequence:
#
# PCOD9503829 Si02
#       6
#    16   4  16  16  16  16
#     4   9  15  28  51  77 103 131 166 210 257 303
#     4  12  26  36  50  74 102 148 182 206 260 326
#     4   9  16  27  46  73 104 136 168 202 249 306
#     4  10  21  37  53  73 105 137 171 217 256 306
#     4   9  17  31  50  69  96 134 171 210 253 295
#     4   9  18  29  42  68 106 138 167 204 247 308
#
# _framework density 16.898423000000001
#
# number of rings (size 3 to 8) (size 9 to 14) (size 15 to 20)
#    0.000    2.667    1.905    0.286    2.667    0.762 
#    0.000    4.286    0.000    0.000    0.000    0.667 
#    0.000    0.000    0.000    0.000    0.000    0.000 
#
# Total GULP energy -234105.235501 kJ/mol
# GULP energy per Si atom -5573.934179 kJ/mol
# Density = 1.685996 g / cm^3
# Si number density = 16.898423 Si / 1000 Ang^3
#
#
#
# Elastic Constant Matrix: (Units=GPa)
#
#
# Indices 1 2 3 4 5 6 
#
# 1 147.4763 41.0911 37.3997 0.0000 0.0000 0.0000
# 2 41.0911 66.1525 37.0378 0.0000 0.0000 0.0000
# 3 37.3997 37.0378 58.5420 0.0000 0.0000 0.0000
# 4 0.0000 0.0000 0.0000 20.4319 0.0000 0.0000
# 5 0.0000 0.0000 0.0000 0.0000 10.6237 0.0000
# 6 0.0000 0.0000 0.0000 0.0000 0.0000 23.7908
#
#
#
# Elastic Compliance Matrix: (Units=1/GPa)
#
#
# Indices 1 2 3 4 5 6 
#
# 1 0.008586 -0.003503 -0.003269 0.000000 0.000000 0.000000
# 2 -0.003503 0.024838 -0.013476 0.000000 0.000000 0.000000
# 3 -0.003269 -0.013476 0.027696 0.000000 0.000000 0.000000
# 4 0.000000 0.000000 0.000000 0.048943 0.000000 0.000000
# 5 0.000000 0.000000 0.000000 0.000000 0.094129 0.000000
# 6 0.000000 0.000000 0.000000 0.000000 0.000000 0.042033
#
#
# Mechanical properties :
#
#
# Convention : Reuss Voigt Hill
#
# Bulk Modulus (GPa) = 48.48830 55.91421 52.20126
# Shear Modulus (GPa) = 17.03027 21.41209 19.22118
#
# Velocity S-wave (km/s) = 3.17803 3.56351 3.37628
# Velocity P-wave (km/s) = 6.49791 7.07755 6.79391
#
# Compressibility (1/GPa) = 0.02062353
#
# Stress axis : x y z
#
# Youngs Moduli (GPa) = 116.47239 40.26170 36.10634
#
# Poissons Ratio (x) = 0.14103 0.11803
# Poissons Ratio (y) = 0.40799 0.48657
# Poissons Ratio (z) = 0.38073 0.54257
#
# Static dielectric constant tensor:
#      x y z
#    x 1.579300 0.000000 0.000000 
#    y 0.000000 1.630080 0.000000 
#    z 0.000000 0.000000 1.545400 
# 
# From -- ./inp_files/23691.got.cif
#   From: 2010.05.17/outbox.cif.g08.bks.cpg/sg67_12_cif.got.tgz:23691.got - 2010.06.03 18:28:57.
