data_PCOD9503651
_publ_section_title
;
Structure prediction by ZEFSAII (Michael W. Deem and Ramdas Pophale) SiO2 
 PCOD9503651
Probable space group: C M M A
;
_chemical_formula_sum "Si O2"
_cell_formula_units_Z 52
_cell_length_a 20.607380
_cell_length_b 13.937243
_cell_length_c 7.046017
_cell_angle_alpha 90.000000
_cell_angle_beta 90.000000
_cell_angle_gamma 90.000000
_cell_volume 2023.686984
_symmetry_space_group_name_H-M "C M M A"
_symmetry_group_IT_number 67
_symmetry_cell_setting 'orthorhombic'
loop_
_space_group_symop_operation_xyz
x,y,z
-x,1/2-y,z
x,-y,-z
-x,1/2+y,-z
-x,-y,-z
x,1/2+y,-z
-x,y,z
x,1/2-y,z
1/2+x,1/2+y,z
1/2-x,-y,z
1/2+x,1/2-y,-z
1/2-x,y,-z
1/2-x,1/2-y,-z
1/2+x,y,-z
1/2-x,1/2+y,z
1/2+x,-y,z
loop_
_atom_site_type_symbol
_atom_site_label
_atom_site_fract_x
_atom_site_fract_y
_atom_site_fract_z
Si Si1 0.930001 0.527008 0.274892
Si Si2 0.358043 0.358281 0.834954
Si Si3 0.183942 0.355737 0.587275
Si Si4 0.750000 0.500000 0.000000
O O1 0.932126 0.500000 0.500000
O O2 0.918444 0.431118 0.150260
O O3 0.863881 0.590559 0.268229
O O4 0.000000 0.572394 0.234610
O O5 0.360440 0.250000 0.915160
O O6 0.355159 0.345450 0.607571
O O7 0.295926 0.423574 0.890449
O O8 0.201691 0.250000 0.662768
O O9 0.250000 0.399093 0.500000
#
# Coordination Sequence:
#
# PCOD9503651 Si02
#       4
#    16  16  16   4
#     4   9  18  33  55  83 112 142 180 231 294 360
#     4  10  21  35  53  77 107 147 191 236 288 342
#     4   9  17  31  54  84 115 145 180 228 290 353
#     4  12  22  36  56  78 108 152 210 256 280 326
#
# _framework density 25.695674
#
# number of rings (size 3 to 8) (size 9 to 14) (size 15 to 20)
#    0.000    2.462    0.000    2.308    0.000    5.538 
#    0.000    8.462    0.000    1.846    0.000    0.000 
#    0.000    0.000    0.000    0.000    0.000    0.000 
#
# Total GULP energy -144838.831485 kJ/mol
# GULP energy per Si atom -5570.724288 kJ/mol
# Density = 2.563719 g / cm^3
# Si number density = 25.695674 Si / 1000 Ang^3
#
#
#
# Elastic Constant Matrix: (Units=GPa)
#
#
# Indices 1 2 3 4 5 6 
#
# 1 176.2551 91.0156 12.1737 0.0000 0.0000 0.0000
# 2 91.0156 214.5726 37.6229 0.0000 0.0000 0.0000
# 3 12.1737 37.6229 71.8477 0.0000 0.0000 0.0000
# 4 0.0000 0.0000 0.0000 30.1367 0.0000 0.0000
# 5 0.0000 0.0000 0.0000 0.0000 32.2911 0.0000
# 6 0.0000 0.0000 0.0000 0.0000 0.0000 13.7315
#
#
#
# Elastic Compliance Matrix: (Units=1/GPa)
#
#
# Indices 1 2 3 4 5 6 
#
# 1 0.007276 -0.003160 0.000422 0.000000 0.000000 0.000000
# 2 -0.003160 0.006504 -0.002870 0.000000 0.000000 0.000000
# 3 0.000422 -0.002870 0.015350 0.000000 0.000000 0.000000
# 4 0.000000 0.000000 0.000000 0.033182 0.000000 0.000000
# 5 0.000000 0.000000 0.000000 0.000000 0.030968 0.000000
# 6 0.000000 0.000000 0.000000 0.000000 0.000000 0.072825
#
#
# Mechanical properties :
#
#
# Convention : Reuss Voigt Hill
#
# Bulk Modulus (GPa) = 55.82549 82.69998 69.26274
# Shear Modulus (GPa) = 27.27839 36.68941 31.98390
#
# Velocity S-wave (km/s) = 3.26175 3.78278 3.53189
# Velocity P-wave (km/s) = 5.99651 7.16474 6.60650
#
# Compressibility (1/GPa) = 0.01791296
#
# Stress axis : x y z
#
# Youngs Moduli (GPa) = 137.42934 153.74407 65.14687
#
# Poissons Ratio (x) = 0.48590 -0.02750
# Poissons Ratio (y) = 0.43434 0.18700
# Poissons Ratio (z) = -0.05800 0.44132
#
# Static dielectric constant tensor:
#      x y z
#    x 2.043310 0.000000 0.000000 
#    y 0.000000 2.119690 0.000000 
#    z 0.000000 0.000000 2.145680 
# 
# From -- ./inp_files/10495.got.cif
#   From: 2010.05.17/outbox.cif.g08.bks.cpg/sg67_6_cif.got.tgz:10495.got - 2010.06.03 18:28:57.
