data_PCOD9503444
_publ_section_title
;
Structure prediction by ZEFSAII (Michael W. Deem and Ramdas Pophale) SiO2 
 PCOD9503444
Probable space group: C M M A
;
_chemical_formula_sum "Si O2"
_cell_formula_units_Z 100
_cell_length_a 21.810620
_cell_length_b 14.502594
_cell_length_c 12.108253
_cell_angle_alpha 90.000000
_cell_angle_beta 90.000000
_cell_angle_gamma 90.000000
_cell_volume 3829.968369
_symmetry_space_group_name_H-M "C M M A"
_symmetry_group_IT_number 67
_symmetry_cell_setting 'orthorhombic'
loop_
_space_group_symop_operation_xyz
x,y,z
-x,1/2-y,z
x,-y,-z
-x,1/2+y,-z
-x,-y,-z
x,1/2+y,-z
-x,y,z
x,1/2-y,z
1/2+x,1/2+y,z
1/2-x,-y,z
1/2+x,1/2-y,-z
1/2-x,y,-z
1/2-x,1/2-y,-z
1/2+x,y,-z
1/2-x,1/2+y,z
1/2+x,-y,z
loop_
_atom_site_type_symbol
_atom_site_label
_atom_site_fract_x
_atom_site_fract_y
_atom_site_fract_z
Si Si1 0.889245 0.597778 0.807521
Si Si2 0.068765 0.107002 0.773849
Si Si3 0.249575 0.860765 0.778170
Si Si4 0.935168 0.355179 0.515203
Si Si5 0.500000 0.750000 0.216790
Si Si6 0.336745 0.145295 0.039304
Si Si7 0.688551 0.862797 0.561109
O O1 0.914461 0.500253 0.768192
O O2 0.821690 0.618889 0.757181
O O3 0.944194 0.670246 0.788075
O O4 0.869619 0.595372 0.937521
O O5 0.068582 0.146286 0.649250
O O6 0.114514 0.150542 0.861133
O O7 0.000000 0.118888 0.816722
O O8 0.254938 0.750000 0.777108
O O9 0.276969 0.892281 0.895621
O O10 0.296410 0.895708 0.684475
O O11 0.936976 0.250000 0.472833
O O12 0.869689 0.397313 0.491995
O O13 0.000000 0.397651 0.481245
O O14 0.324150 0.250000 0.998880
O O15 0.682628 0.750000 0.563347
O O16 0.750000 0.885474 0.500000
#
# Coordination Sequence:
#
# PCOD9503444 Si02
#       7
#    16  16  16  16   4  16  16
#     4  12  24  39  59  79 120 160 210 256 294 359
#     4  11  23  35  55  87 120 158 200 254 299 351
#     4  10  20  38  60  85 116 157 200 248 306 362
#     4   9  17  34  58  88 126 164 200 250 311 367
#     4  12  24  44  56  84 112 180 212 252 304 360
#     4  11  22  37  59  86 117 157 201 245 307 364
#     4   9  17  33  62  93 120 150 196 246 301 366
#
# _framework density 26.109877000000001
#
# number of rings (size 3 to 8) (size 9 to 14) (size 15 to 20)
#    0.000    1.600    4.000    1.440    1.120    3.520 
#    0.000    1.600    1.760    1.920    0.000    2.240 
#    0.000    0.000    0.000    0.000    0.000    0.000 
#
# Total GULP energy -279143.245966 kJ/mol
# GULP energy per Si atom -5582.864919 kJ/mol
# Density = 2.605045 g / cm^3
# Si number density = 26.109877 Si / 1000 Ang^3
#
#
#
# Elastic Constant Matrix: (Units=GPa)
#
#
# Indices 1 2 3 4 5 6 
#
# 1 250.4922 19.1666 16.0722 0.0000 0.0000 0.0000
# 2 19.1666 132.1755 -4.5237 0.0000 0.0000 0.0000
# 3 16.0722 -4.5237 79.1262 0.0000 0.0000 0.0000
# 4 0.0000 0.0000 0.0000 -5.7319 0.0000 0.0000
# 5 0.0000 0.0000 0.0000 0.0000 23.6282 0.0000
# 6 0.0000 0.0000 0.0000 0.0000 0.0000 20.4854
#
#
#
# Elastic Compliance Matrix: (Units=1/GPa)
#
#
# Indices 1 2 3 4 5 6 
#
# 1 0.004096 -0.000624 -0.000868 0.000000 0.000000 0.000000
# 2 -0.000624 0.007675 0.000565 0.000000 0.000000 0.000000
# 3 -0.000868 0.000565 0.012847 0.000000 0.000000 0.000000
# 4 0.000000 0.000000 0.000000 -0.174461 0.000000 0.000000
# 5 0.000000 0.000000 0.000000 0.000000 0.042322 0.000000
# 6 0.000000 0.000000 0.000000 0.000000 0.000000 0.048815
#
#
# Mechanical properties :
#
#
# Convention : Reuss Voigt Hill
#
# Bulk Modulus (GPa) = 43.92456 58.13600 51.03028
# Shear Modulus (GPa) = -101.49002 36.41490 -32.53756
#
# Velocity S-wave (km/s) = -6.24137 3.73859 -3.53395
# Velocity P-wave (km/s) = 5.92285 6.39924 1.71321
#
# Compressibility (1/GPa) = 0.02276631
#
# Stress axis : x y z
#
# Youngs Moduli (GPa) = 244.16939 130.28503 77.84168
#
# Poissons Ratio (x) = 0.08124 0.06753
# Poissons Ratio (y) = 0.15226 -0.04402
# Poissons Ratio (z) = 0.21183 -0.07367
#
# Static dielectric constant tensor:
#      x y z
#    x 2.114830 0.000000 0.000000 
#    y 0.000000 1.998900 0.000000 
#    z 0.000000 0.000000 2.105820 
# 
# From -- ./inp_files/29474.got.cif
#   From: 2010.05.17/outbox.cif.g08.bks.cpg/sg67_15_cif.got.tgz:29474.got - 2010.06.03 18:28:57.
