data_PCOD9503248
_publ_section_title
;
Structure prediction by ZEFSAII (Michael W. Deem and Ramdas Pophale) SiO2 
 PCOD9503248
Probable space group: C M M A
;
_chemical_formula_sum "Si O2"
_cell_formula_units_Z 64
_cell_length_a 8.781916
_cell_length_b 15.608417
_cell_length_c 24.247443
_cell_angle_alpha 90.000000
_cell_angle_beta 90.000000
_cell_angle_gamma 90.000000
_cell_volume 3323.640827
_symmetry_space_group_name_H-M "C M M A"
_symmetry_group_IT_number 67
_symmetry_cell_setting 'orthorhombic'
loop_
_space_group_symop_operation_xyz
x,y,z
-x,1/2-y,z
x,-y,-z
-x,1/2+y,-z
-x,-y,-z
x,1/2+y,-z
-x,y,z
x,1/2-y,z
1/2+x,1/2+y,z
1/2-x,-y,z
1/2+x,1/2-y,-z
1/2-x,y,-z
1/2-x,1/2-y,-z
1/2+x,y,-z
1/2-x,1/2+y,z
1/2+x,-y,z
loop_
_atom_site_type_symbol
_atom_site_label
_atom_site_fract_x
_atom_site_fract_y
_atom_site_fract_z
Si Si1 0.817222 0.750000 0.359929
Si Si2 0.317594 0.592325 0.560178
Si Si3 0.821916 0.353779 0.058566
Si Si4 0.181366 0.909483 0.172880
Si Si5 0.181277 0.750000 0.761053
O O1 0.780779 0.833764 0.396236
O O2 0.729776 0.750000 0.302553
O O3 0.000000 0.750000 0.349623
O O4 0.500000 0.585900 0.555553
O O5 0.250000 0.500000 0.576226
O O6 0.250000 0.613706 0.500000
O O7 0.811688 0.250000 0.062809
O O8 0.732971 0.393032 0.109896
O O9 0.000000 0.377157 0.061190
O O10 0.750000 0.378723 0.000000
O O11 0.249704 0.832999 0.209040
O O12 0.000000 0.909915 0.176644
O O13 0.250000 0.000000 0.191071
O O14 0.000000 0.750000 0.767562
#
# Coordination Sequence:
#
# PCOD9503248 Si02
#       5
#     8  16  16  16   8
#     4  10  23  41  61  87 121 164 207 252 303 360
#     4  10  20  36  60  90 126 162 201 247 301 359
#     4  10  20  36  61  92 127 161 201 249 306 371
#     4  12  25  43  67  92 123 162 206 256 312 371
#     4  12  26  45  66  91 123 162 209 260 312 368
#
# _framework density 19.255991999999999
#
# number of rings (size 3 to 8) (size 9 to 14) (size 15 to 20)
#    0.000    1.250    1.250    6.000    0.000    4.500 
#    0.000    5.000    0.000    0.000    0.000    0.000 
#    0.000    0.000    0.000    0.000    0.000    0.000 
#
# Total GULP energy -179059.467864 kJ/mol
# GULP energy per Si atom -5595.608371 kJ/mol
# Density = 1.921216 g / cm^3
# Si number density = 19.255992 Si / 1000 Ang^3
#
#
#
# Elastic Constant Matrix: (Units=GPa)
#
#
# Indices 1 2 3 4 5 6 
#
# 1 173.7978 94.1848 84.1252 0.0000 0.0000 0.0000
# 2 94.1848 150.4099 100.5493 0.0000 0.0000 0.0000
# 3 84.1252 100.5493 131.0365 0.0000 0.0000 0.0000
# 4 0.0000 0.0000 0.0000 -11.2681 0.0000 0.0000
# 5 0.0000 0.0000 0.0000 0.0000 38.2886 0.0000
# 6 0.0000 0.0000 0.0000 0.0000 0.0000 25.5299
#
#
#
# Elastic Compliance Matrix: (Units=1/GPa)
#
#
# Indices 1 2 3 4 5 6 
#
# 1 0.009276 -0.003752 -0.003076 0.000000 0.000000 0.000000
# 2 -0.003752 0.015169 -0.009231 0.000000 0.000000 0.000000
# 3 -0.003076 -0.009231 0.016689 0.000000 0.000000 0.000000
# 4 0.000000 0.000000 0.000000 -0.088746 0.000000 0.000000
# 5 0.000000 0.000000 0.000000 0.000000 0.026117 0.000000
# 6 0.000000 0.000000 0.000000 0.000000 0.000000 0.039170
#
#
# Mechanical properties :
#
#
# Convention : Reuss Voigt Hill
#
# Bulk Modulus (GPa) = 110.90932 112.55142 111.73037
# Shear Modulus (GPa) = 94.69916 22.26909 58.48412
#
# Velocity S-wave (km/s) = 7.02039 3.40439 5.51705
# Velocity P-wave (km/s) = 11.11021 8.60408 9.93647
#
# Compressibility (1/GPa) = 0.00901637
#
# Stress axis : x y z
#
# Youngs Moduli (GPa) = 107.80297 65.92450 59.91864
#
# Poissons Ratio (x) = 0.24737 0.18431
# Poissons Ratio (y) = 0.40451 0.55309
# Poissons Ratio (z) = 0.33160 0.60853
#
# Static dielectric constant tensor:
#      x y z
#    x 1.640640 0.000000 0.000000 
#    y 0.000000 1.661080 0.000000 
#    z 0.000000 0.000000 1.634550 
# 
# From -- ./inp_files/40422.got.cif
#   From: 2010.05.17/outbox.cif.g08.bks.cpg/sg67_21_cif.got.tgz:40422.got - 2010.06.03 18:28:57.
