data_PCOD9503589
_publ_section_title
;
Structure prediction by ZEFSAII (Michael W. Deem and Ramdas Pophale) SiO2 
 PCOD9503589
Probable space group: C M M A
;
_chemical_formula_sum "Si O2"
_cell_formula_units_Z 88
_cell_length_a 10.336188
_cell_length_b 32.819844
_cell_length_c 16.624871
_cell_angle_alpha 90.000000
_cell_angle_beta 90.000000
_cell_angle_gamma 90.000000
_cell_volume 5639.689531
_symmetry_space_group_name_H-M "C M M A"
_symmetry_group_IT_number 67
_symmetry_cell_setting 'orthorhombic'
loop_
_space_group_symop_operation_xyz
x,y,z
-x,1/2-y,z
x,-y,-z
-x,1/2+y,-z
-x,-y,-z
x,1/2+y,-z
-x,y,z
x,1/2-y,z
1/2+x,1/2+y,z
1/2-x,-y,z
1/2+x,1/2-y,-z
1/2-x,y,-z
1/2-x,1/2-y,-z
1/2+x,y,-z
1/2-x,1/2+y,z
1/2+x,-y,z
loop_
_atom_site_type_symbol
_atom_site_label
_atom_site_fract_x
_atom_site_fract_y
_atom_site_fract_z
Si Si1 0.651949 0.201698 0.927456
Si Si2 0.151017 0.630729 0.812232
Si Si3 0.750000 0.500000 0.806449
Si Si4 0.235230 0.571607 0.310653
Si Si5 0.500000 0.555650 0.580164
Si Si6 0.141107 0.943353 0.934231
Si Si7 0.500000 0.457993 0.606531
O O1 0.500000 0.193267 0.947930
O O2 0.663063 0.250000 0.911920
O O3 0.683713 0.174411 0.849706
O O4 0.750000 0.191585 0.000000
O O5 0.237205 0.612029 0.741255
O O6 0.159988 0.598910 0.886549
O O7 0.000000 0.630740 0.786651
O O8 0.806630 0.464423 0.750697
O O9 0.849358 0.522422 0.865424
O O10 0.127249 0.574401 0.378819
O O11 0.371498 0.556565 0.347637
O O12 0.500000 0.507031 0.598826
O O13 0.500000 0.559253 0.484132
O O14 0.000000 0.943839 0.972495
O O15 0.250000 0.949323 0.000000
#
# Coordination Sequence:
#
# PCOD9503589 Si02
#       7
#    16  16   8  16   8  16   8
#     4   9  17  31  52  76 102 131 165 202 243 292
#     4   9  18  33  51  67  96 131 158 197 242 290
#     4  10  21  30  47  60  86 124 158 194 237 278
#     4  11  20  34  50  69  98 126 160 197 245 288
#     4  11  22  32  52  76  95 122 167 205 236 299
#     4  10  21  34  45  61  85 121 163 201 237 274
#     4  11  20  36  52  70  97 130 159 199 250 293
#
# _framework density 15.603695999999999
#
# number of rings (size 3 to 8) (size 9 to 14) (size 15 to 20)
#    0.000    2.000    2.727    1.364    2.545    2.909 
#    6.545    0.000    0.000    0.000    0.000    0.000 
#    0.000    4.364    0.000    0.000    0.000    0.000 
#
# Total GULP energy -245394.697660 kJ/mol
# GULP energy per Si atom -5577.152220 kJ/mol
# Density = 1.556818 g / cm^3
# Si number density = 15.603696 Si / 1000 Ang^3
#
#
#
# Elastic Constant Matrix: (Units=GPa)
#
#
# Indices 1 2 3 4 5 6 
#
# 1 80.2578 22.2771 43.4035 0.0000 0.0000 0.0000
# 2 22.2771 54.9622 29.2720 0.0000 0.0000 0.0000
# 3 43.4035 29.2720 79.6574 0.0000 0.0000 0.0000
# 4 0.0000 0.0000 0.0000 24.3293 0.0000 0.0000
# 5 0.0000 0.0000 0.0000 0.0000 16.2910 0.0000
# 6 0.0000 0.0000 0.0000 0.0000 0.0000 11.7492
#
#
#
# Elastic Compliance Matrix: (Units=1/GPa)
#
#
# Indices 1 2 3 4 5 6 
#
# 1 0.017953 -0.002570 -0.008838 0.000000 0.000000 0.000000
# 2 -0.002570 0.022989 -0.007048 0.000000 0.000000 0.000000
# 3 -0.008838 -0.007048 0.019959 0.000000 0.000000 0.000000
# 4 0.000000 0.000000 0.000000 0.041103 0.000000 0.000000
# 5 0.000000 0.000000 0.000000 0.000000 0.061384 0.000000
# 6 0.000000 0.000000 0.000000 0.000000 0.000000 0.085112
#
#
# Mechanical properties :
#
#
# Convention : Reuss Voigt Hill
#
# Bulk Modulus (GPa) = 41.68279 44.97586 43.32933
# Shear Modulus (GPa) = 17.04120 18.46888 17.75504
#
# Velocity S-wave (km/s) = 3.30832 3.44411 3.37690
# Velocity P-wave (km/s) = 6.43154 6.68598 6.55999
#
# Compressibility (1/GPa) = 0.02399071
#
# Stress axis : x y z
#
# Youngs Moduli (GPa) = 55.70249 43.49818 50.10240
#
# Poissons Ratio (x) = 0.11178 0.44279
# Poissons Ratio (y) = 0.14314 0.35312
# Poissons Ratio (z) = 0.49228 0.30657
#
# Static dielectric constant tensor:
#      x y z
#    x 1.532070 0.000000 0.000000 
#    y 0.000000 1.524880 0.000000 
#    z 0.000000 0.000000 1.513600 
# 
# From -- ./inp_files/26376.got.cif
#   From: 2010.05.17/outbox.cif.g08.bks.cpg/sg67_14_cif.got.tgz:26376.got - 2010.06.03 18:28:57.
