data_PCOD9503617
_publ_section_title
;
Structure prediction by ZEFSAII (Michael W. Deem and Ramdas Pophale) SiO2 
 PCOD9503617
Probable space group: C M M A
;
_chemical_formula_sum "Si O2"
_cell_formula_units_Z 96
_cell_length_a 13.439649
_cell_length_b 14.270016
_cell_length_c 22.130061
_cell_angle_alpha 90.000000
_cell_angle_beta 90.000000
_cell_angle_gamma 90.000000
_cell_volume 4244.191757
_symmetry_space_group_name_H-M "C M M A"
_symmetry_group_IT_number 67
_symmetry_cell_setting 'orthorhombic'
loop_
_space_group_symop_operation_xyz
x,y,z
-x,1/2-y,z
x,-y,-z
-x,1/2+y,-z
-x,-y,-z
x,1/2+y,-z
-x,y,z
x,1/2-y,z
1/2+x,1/2+y,z
1/2-x,-y,z
1/2+x,1/2-y,-z
1/2-x,y,-z
1/2-x,1/2-y,-z
1/2+x,y,-z
1/2-x,1/2+y,z
1/2+x,-y,z
loop_
_atom_site_type_symbol
_atom_site_label
_atom_site_fract_x
_atom_site_fract_y
_atom_site_fract_z
Si Si1 0.313579 0.861403 0.726867
Si Si2 0.211386 0.853958 0.404184
Si Si3 0.893886 0.602773 0.525285
Si Si4 0.879359 0.050733 0.089267
Si Si5 0.116208 0.944421 0.773712
Si Si6 0.621314 0.354532 0.035070
O O1 0.331679 0.750000 0.740178
O O2 0.342138 0.883213 0.656916
O O3 0.196509 0.888096 0.733843
O O4 0.367969 0.942954 0.765080
O O5 0.248060 0.750000 0.389802
O O6 0.146685 0.847915 0.464940
O O7 0.311092 0.905829 0.423610
O O8 0.905022 0.500000 0.500000
O O9 0.000000 0.639736 0.545883
O O10 0.855000 0.079247 0.157049
O O11 0.000000 0.048116 0.087374
O O12 0.846515 0.943997 0.074728
O O13 0.851203 0.118682 0.034021
O O14 0.000000 0.922514 0.762994
O O15 0.500000 0.353507 0.037523
O O16 0.654486 0.250000 0.051985
#
# Coordination Sequence:
#
# PCOD9503617 Si02
#       6
#    16  16  16  16  16  16
#     4  10  24  42  60  86 119 158 204 249 293 347
#     4  10  21  38  57  78 113 151 183 230 285 340
#     4  10  21  34  57  89 114 142 181 227 282 345
#     4   8  15  28  46  77 112 143 188 236 286 349
#     4  10  22  39  62  86 116 159 202 250 298 346
#     4   8  13  23  44  75 111 145 178 229 293 350
#
# _framework density 22.619149
#
# number of rings (size 3 to 8) (size 9 to 14) (size 15 to 20)
#    0.000    2.667    0.000    3.000    4.667    4.667 
#    0.000    6.667    0.000    8.000    0.000    9.333 
#    0.000    0.000    0.000    0.000    0.000    0.000 
#
# Total GULP energy -267660.754347 kJ/mol
# GULP energy per Si atom -5576.265716 kJ/mol
# Density = 2.256767 g / cm^3
# Si number density = 22.619149 Si / 1000 Ang^3
#
#
#
# Elastic Constant Matrix: (Units=GPa)
#
#
# Indices 1 2 3 4 5 6 
#
# 1 63.5772 -14.3047 -16.4471 0.0000 0.0000 0.0000
# 2 -14.3047 83.8077 -4.6507 0.0000 0.0000 0.0000
# 3 -16.4471 -4.6507 54.7615 0.0000 0.0000 0.0000
# 4 0.0000 0.0000 0.0000 11.3975 0.0000 0.0000
# 5 0.0000 0.0000 0.0000 0.0000 25.8900 0.0000
# 6 0.0000 0.0000 0.0000 0.0000 0.0000 -11.4814
#
#
#
# Elastic Compliance Matrix: (Units=1/GPa)
#
#
# Indices 1 2 3 4 5 6 
#
# 1 0.017959 0.003381 0.005681 0.000000 0.000000 0.000000
# 2 0.003381 0.012625 0.002088 0.000000 0.000000 0.000000
# 3 0.005681 0.002088 0.020145 0.000000 0.000000 0.000000
# 4 0.000000 0.000000 0.000000 0.087738 0.000000 0.000000
# 5 0.000000 0.000000 0.000000 0.000000 0.038625 0.000000
# 6 0.000000 0.000000 0.000000 0.000000 0.000000 -0.087097
#
#
# Mechanical properties :
#
#
# Convention : Reuss Voigt Hill
#
# Bulk Modulus (GPa) = 13.69357 14.59347 14.14352
# Shear Modulus (GPa) = 54.32492 20.99781 37.66136
#
# Velocity S-wave (km/s) = 4.90605 3.05014 4.08489
# Velocity P-wave (km/s) = 6.17735 4.34400 5.33994
#
# Compressibility (1/GPa) = 0.07302699
#
# Stress axis : x y z
#
# Youngs Moduli (GPa) = 55.68178 79.20832 49.64122
#
# Poissons Ratio (x) = -0.26777 -0.28201
# Poissons Ratio (y) = -0.18824 -0.10363
# Poissons Ratio (z) = -0.31633 -0.16535
#
# Static dielectric constant tensor:
#      x y z
#    x 2.003350 0.000000 0.000000 
#    y 0.000000 1.905580 0.000000 
#    z 0.000000 0.000000 1.890820 
# 
# From -- ./inp_files/38370.got.cif
#   From: 2010.05.17/outbox.cif.g08.bks.cpg/sg67_20_cif.got.tgz:38370.got - 2010.06.03 18:28:57.
