data_PCOD9503608
_publ_section_title
;
Structure prediction by ZEFSAII (Michael W. Deem and Ramdas Pophale) SiO2 
 PCOD9503608
Probable space group: C M M A
;
_chemical_formula_sum "Si O2"
_cell_formula_units_Z 116
_cell_length_a 31.702259
_cell_length_b 8.226037
_cell_length_c 25.333064
_cell_angle_alpha 90.000000
_cell_angle_beta 90.000000
_cell_angle_gamma 90.000000
_cell_volume 6606.456635
_symmetry_space_group_name_H-M "C M M A"
_symmetry_group_IT_number 67
_symmetry_cell_setting 'orthorhombic'
loop_
_space_group_symop_operation_xyz
x,y,z
-x,1/2-y,z
x,-y,-z
-x,1/2+y,-z
-x,-y,-z
x,1/2+y,-z
-x,y,z
x,1/2-y,z
1/2+x,1/2+y,z
1/2-x,-y,z
1/2+x,1/2-y,-z
1/2-x,y,-z
1/2-x,1/2-y,-z
1/2+x,y,-z
1/2-x,1/2+y,z
1/2+x,-y,z
loop_
_atom_site_type_symbol
_atom_site_label
_atom_site_fract_x
_atom_site_fract_y
_atom_site_fract_z
Si Si1 0.705800 0.939779 0.379405
Si Si2 0.115592 0.435424 0.252280
Si Si3 0.874380 0.559289 0.441247
Si Si4 0.500000 0.750000 0.333518
Si Si5 0.935132 0.560625 0.344978
Si Si6 0.951008 0.059701 0.829802
Si Si7 0.796171 0.561126 0.260225
Si Si8 0.551112 0.935142 0.056366
O O1 0.709293 0.750000 0.367127
O O2 0.750000 0.000000 0.403500
O O3 0.666088 0.970798 0.416518
O O4 0.700714 0.029763 0.323361
O O5 0.115074 0.250000 0.270245
O O6 0.101171 0.548267 0.300633
O O7 0.081081 0.463307 0.206818
O O8 0.163069 0.476085 0.235345
O O9 0.883537 0.500000 0.500000
O O10 0.864406 0.750000 0.442303
O O11 0.913833 0.537473 0.402061
O O12 0.535839 0.598795 0.334358
O O13 0.951717 0.750000 0.342417
O O14 0.949194 0.250000 0.815994
O O15 0.000000 0.005264 0.822563
O O16 0.939389 0.036754 0.891248
O O17 0.799095 0.750000 0.249528
O O18 0.750000 0.500000 0.243777
O O19 0.500000 0.935153 0.053105
O O20 0.564873 0.750000 0.064403
O O21 0.566654 0.000000 0.000000
#
# Coordination Sequence:
#
# PCOD9503608 Si02
#       8
#    16  16  16   4  16  16  16  16
#     4  11  21  35  57  85 116 143 176 213 262 331
#     4  12  23  37  57  84 116 152 189 232 283 339
#     4  11  24  41  64  85 111 142 178 225 278 335
#     4  12  26  44  70  86 110 146 188 226 290 342
#     4  11  25  44  64  89 113 144 187 232 283 341
#     4  10  21  34  50  77 111 150 193 242 289 334
#     4  11  21  36  57  83 112 148 186 226 273 333
#     4   9  16  28  46  69 101 144 190 235 281 337
#
# _framework density 17.558581
#
# number of rings (size 3 to 8) (size 9 to 14) (size 15 to 20)
#    0.000    1.241    2.069    6.000    2.897    2.759 
#    0.000    1.724    0.000    0.000    0.000    0.000 
#    0.000    0.552    0.000    5.517    0.000    3.586 
#
# Total GULP energy -323135.947302 kJ/mol
# GULP energy per Si atom -5571.309436 kJ/mol
# Density = 1.751862 g / cm^3
# Si number density = 17.558581 Si / 1000 Ang^3
#
#
#
# Elastic Constant Matrix: (Units=GPa)
#
#
# Indices 1 2 3 4 5 6 
#
# 1 98.6342 33.7414 17.9661 0.0000 0.0000 0.0000
# 2 33.7414 95.6622 -3.2297 0.0000 0.0000 0.0000
# 3 17.9661 -3.2297 42.0146 0.0000 0.0000 0.0000
# 4 0.0000 0.0000 0.0000 22.3502 0.0000 0.0000
# 5 0.0000 0.0000 0.0000 0.0000 -5.1936 0.0000
# 6 0.0000 0.0000 0.0000 0.0000 0.0000 37.1575
#
#
#
# Elastic Compliance Matrix: (Units=1/GPa)
#
#
# Indices 1 2 3 4 5 6 
#
# 1 0.012817 -0.004718 -0.005843 0.000000 0.000000 0.000000
# 2 -0.004718 0.012217 0.002957 0.000000 0.000000 0.000000
# 3 -0.005843 0.002957 0.026527 0.000000 0.000000 0.000000
# 4 0.000000 0.000000 0.000000 0.044742 0.000000 0.000000
# 5 0.000000 0.000000 0.000000 0.000000 -0.192544 0.000000
# 6 0.000000 0.000000 0.000000 0.000000 0.000000 0.026912
#
#
# Mechanical properties :
#
#
# Convention : Reuss Voigt Hill
#
# Bulk Modulus (GPa) = 27.50873 37.02962 32.26917
# Shear Modulus (GPa) = -119.04364 23.38503 -47.82931
#
# Velocity S-wave (km/s) = -8.24289 3.65338 -5.22484
# Velocity P-wave (km/s) = 8.65406 6.23949 4.24037
#
# Compressibility (1/GPa) = 0.03635210
#
# Stress axis : x y z
#
# Youngs Moduli (GPa) = 78.02282 81.85079 37.69710
#
# Poissons Ratio (x) = 0.38617 0.22028
# Poissons Ratio (y) = 0.36811 -0.11146
# Poissons Ratio (z) = 0.45591 -0.24200
#
# Static dielectric constant tensor:
#      x y z
#    x 1.664420 0.000000 0.000000 
#    y 0.000000 1.617170 0.000000 
#    z 0.000000 0.000000 1.593430 
# 
# From -- ./inp_files/42982.got.cif
#   From: 2010.05.17/outbox.cif.g08.bks.cpg/sg67_22_cif.got.tgz:42982.got - 2010.06.03 18:28:57.
