data_PCOD9503145
_publ_section_title
;
Structure prediction by ZEFSAII (Michael W. Deem and Ramdas Pophale) SiO2 
 PCOD9503145
Probable space group: C M M A
;
_chemical_formula_sum "Si O2"
_cell_formula_units_Z 100
_cell_length_a 9.595548
_cell_length_b 29.998121
_cell_length_c 20.098227
_cell_angle_alpha 90.000000
_cell_angle_beta 90.000000
_cell_angle_gamma 90.000000
_cell_volume 5785.242685
_symmetry_space_group_name_H-M "C M M A"
_symmetry_group_IT_number 67
_symmetry_cell_setting 'orthorhombic'
loop_
_space_group_symop_operation_xyz
x,y,z
-x,1/2-y,z
x,-y,-z
-x,1/2+y,-z
-x,-y,-z
x,1/2+y,-z
-x,y,z
x,1/2-y,z
1/2+x,1/2+y,z
1/2-x,-y,z
1/2+x,1/2-y,-z
1/2-x,y,-z
1/2-x,1/2-y,-z
1/2+x,y,-z
1/2-x,1/2+y,z
1/2+x,-y,z
loop_
_atom_site_type_symbol
_atom_site_label
_atom_site_fract_x
_atom_site_fract_y
_atom_site_fract_z
Si Si1 0.841573 0.427016 0.602018
Si Si2 0.832914 0.139231 0.805816
Si Si3 0.250000 0.500000 0.500000
Si Si4 0.833834 0.198527 0.932224
Si Si5 0.663673 0.158407 0.562457
Si Si6 0.663246 0.800973 0.294409
Si Si7 0.165295 0.543969 0.245791
O O1 0.833350 0.467393 0.549513
O O2 0.732910 0.389178 0.580651
O O3 0.808721 0.443693 0.676539
O O4 0.000000 0.409077 0.602789
O O5 0.795637 0.163653 0.874657
O O6 0.757271 0.165624 0.747118
O O7 0.797245 0.087193 0.798105
O O8 0.000000 0.142879 0.797642
O O9 0.806374 0.250000 0.910762
O O10 0.000000 0.194985 0.944219
O O11 0.750000 0.190779 0.000000
O O12 0.500000 0.153138 0.547028
O O13 0.750000 0.176253 0.500000
O O14 0.677383 0.188838 0.627495
O O15 0.500000 0.807553 0.277536
O O16 0.700991 0.750000 0.279902
O O17 0.250000 0.500000 0.228383
O O18 0.000000 0.535933 0.239444
#
# Coordination Sequence:
#
# PCOD9503145 Si02
#       7
#    16  16   4  16  16  16  16
#     4  11  22  35  51  74 102 133 172 219 275 332
#     4  10  20  36  58  84 113 147 185 226 271 325
#     4  12  22  32  52  78 104 132 172 228 286 344
#     4   9  18  33  55  85 119 150 181 219 266 320
#     4  11  23  37  54  73 100 136 176 223 275 329
#     4  10  22  38  55  79 109 141 180 226 276 331
#     4  10  21  36  54  78 108 141 181 227 272 325
#
# _framework density 17.285359
#
# number of rings (size 3 to 8) (size 9 to 14) (size 15 to 20)
#    0.000    1.760    3.200    1.200    0.000    4.480 
#    0.000    1.600    0.000    0.480    0.000    3.360 
#    0.000    0.000    0.000    0.000    0.000    0.000 
#
# Total GULP energy -279105.711141 kJ/mol
# GULP energy per Si atom -5582.114223 kJ/mol
# Density = 1.724602 g / cm^3
# Si number density = 17.285359 Si / 1000 Ang^3
#
#
#
# Elastic Constant Matrix: (Units=GPa)
#
#
# Indices 1 2 3 4 5 6 
#
# 1 56.5960 42.9089 39.2337 0.0000 0.0000 0.0000
# 2 42.9089 106.0841 56.3443 0.0000 0.0000 0.0000
# 3 39.2337 56.3443 93.1625 0.0000 0.0000 0.0000
# 4 0.0000 0.0000 0.0000 28.2395 0.0000 0.0000
# 5 0.0000 0.0000 0.0000 0.0000 26.7605 0.0000
# 6 0.0000 0.0000 0.0000 0.0000 0.0000 19.0220
#
#
#
# Elastic Compliance Matrix: (Units=1/GPa)
#
#
# Indices 1 2 3 4 5 6 
#
# 1 0.028601 -0.007618 -0.007437 0.000000 0.000000 0.000000
# 2 -0.007618 0.015917 -0.006418 0.000000 0.000000 0.000000
# 3 -0.007437 -0.006418 0.017748 0.000000 0.000000 0.000000
# 4 0.000000 0.000000 0.000000 0.035411 0.000000 0.000000
# 5 0.000000 0.000000 0.000000 0.000000 0.037368 0.000000
# 6 0.000000 0.000000 0.000000 0.000000 0.000000 0.052571
#
#
# Mechanical properties :
#
#
# Convention : Reuss Voigt Hill
#
# Bulk Modulus (GPa) = 51.76536 59.20182 55.48359
# Shear Modulus (GPa) = 21.09690 22.62812 21.86251
#
# Velocity S-wave (km/s) = 3.49737 3.62206 3.56026
# Velocity P-wave (km/s) = 6.80597 7.19837 7.00492
#
# Compressibility (1/GPa) = 0.01931794
#
# Stress axis : x y z
#
# Youngs Moduli (GPa) = 34.96434 62.82679 56.34584
#
# Poissons Ratio (x) = 0.47864 0.41905
# Poissons Ratio (y) = 0.26637 0.36163
# Poissons Ratio (z) = 0.26003 0.40323
#
# Static dielectric constant tensor:
#      x y z
#    x 1.579510 0.000000 0.000000 
#    y 0.000000 1.580910 0.000000 
#    z 0.000000 0.000000 1.575160 
# 
# From -- ./inp_files/37530.got.cif
#   From: 2010.05.17/outbox.cif.g08.bks.cpg/sg67_19_cif.got.tgz:37530.got - 2010.06.03 18:28:57.
