data_PCOD9503921
_publ_section_title
;
Structure prediction by ZEFSAII (Michael W. Deem and Ramdas Pophale) SiO2 
 PCOD9503921
Probable space group: C M M A
;
_chemical_formula_sum "Si O2"
_cell_formula_units_Z 112
_cell_length_a 25.288942
_cell_length_b 18.282492
_cell_length_c 14.432114
_cell_angle_alpha 90.000000
_cell_angle_beta 90.000000
_cell_angle_gamma 90.000000
_cell_volume 6672.614013
_symmetry_space_group_name_H-M "C M M A"
_symmetry_group_IT_number 67
_symmetry_cell_setting 'orthorhombic'
loop_
_space_group_symop_operation_xyz
x,y,z
-x,1/2-y,z
x,-y,-z
-x,1/2+y,-z
-x,-y,-z
x,1/2+y,-z
-x,y,z
x,1/2-y,z
1/2+x,1/2+y,z
1/2-x,-y,z
1/2+x,1/2-y,-z
1/2-x,y,-z
1/2-x,1/2-y,-z
1/2+x,y,-z
1/2-x,1/2+y,z
1/2+x,-y,z
loop_
_atom_site_type_symbol
_atom_site_label
_atom_site_fract_x
_atom_site_fract_y
_atom_site_fract_z
Si Si1 0.347365 0.079843 0.209692
Si Si2 0.688524 0.662866 0.399415
Si Si3 0.247600 0.836110 0.110656
Si Si4 0.845305 0.591535 0.782212
Si Si5 0.561954 0.070819 0.062902
Si Si6 0.061927 0.334856 0.112290
Si Si7 0.185919 0.162576 0.611979
O O1 0.302586 0.121285 0.150690
O O2 0.401765 0.081979 0.152010
O O3 0.345299 0.117822 0.310388
O O4 0.334223 0.994325 0.217247
O O5 0.681511 0.750000 0.389563
O O6 0.656600 0.620742 0.322036
O O7 0.750871 0.648373 0.380337
O O8 0.673935 0.643748 0.504985
O O9 0.243222 0.750000 0.132544
O O10 0.300021 0.867738 0.158586
O O11 0.250000 0.844779 0.000000
O O12 0.900902 0.613412 0.827432
O O13 0.500000 0.061221 0.086114
O O14 0.567768 0.139536 0.993913
O O15 0.577730 0.000000 0.000000
O O16 0.076966 0.250000 0.123936
O O17 0.000000 0.343404 0.135836
O O18 0.178263 0.250000 0.624355
#
# Coordination Sequence:
#
# PCOD9503921 Si02
#       7
#    16  16  16  16  16  16  16
#     4  12  23  33  55  85 110 145 183 233 284 338
#     4   9  18  35  57  77 106 150 188 228 279 335
#     4  11  24  37  50  73 112 154 187 225 276 341
#     4  12  22  34  54  83 114 146 183 229 285 340
#     4  10  21  40  59  79 111 151 190 229 279 329
#     4  10  21  37  59  84 108 143 194 237 268 323
#     4   9  19  36  56  79 109 146 191 232 275 336
#
# _framework density 16.785025999999998
#
# number of rings (size 3 to 8) (size 9 to 14) (size 15 to 20)
#    0.000    1.571    2.857    3.857    0.000    3.429 
#    0.000    1.429    0.000    0.857    0.000    4.000 
#    0.000    0.000    0.000    0.000    0.000    0.000 
#
# Total GULP energy -312660.181321 kJ/mol
# GULP energy per Si atom -5583.217524 kJ/mol
# Density = 1.674682 g / cm^3
# Si number density = 16.785026 Si / 1000 Ang^3
#
#
#
# Elastic Constant Matrix: (Units=GPa)
#
#
# Indices 1 2 3 4 5 6 
#
# 1 59.8155 37.4776 57.7930 0.0000 0.0000 0.0000
# 2 37.4776 93.1991 64.9824 0.0000 0.0000 0.0000
# 3 57.7930 64.9824 128.4367 0.0000 0.0000 0.0000
# 4 0.0000 0.0000 0.0000 20.3021 0.0000 0.0000
# 5 0.0000 0.0000 0.0000 0.0000 11.0895 0.0000
# 6 0.0000 0.0000 0.0000 0.0000 0.0000 22.6117
#
#
#
# Elastic Compliance Matrix: (Units=1/GPa)
#
#
# Indices 1 2 3 4 5 6 
#
# 1 0.030595 -0.004178 -0.011653 0.000000 0.000000 0.000000
# 2 -0.004178 0.017148 -0.006796 0.000000 0.000000 0.000000
# 3 -0.011653 -0.006796 0.016468 0.000000 0.000000 0.000000
# 4 0.000000 0.000000 0.000000 0.049256 0.000000 0.000000
# 5 0.000000 0.000000 0.000000 0.000000 0.090175 0.000000
# 6 0.000000 0.000000 0.000000 0.000000 0.000000 0.044225
#
#
# Mechanical properties :
#
#
# Convention : Reuss Voigt Hill
#
# Bulk Modulus (GPa) = 52.75140 66.88414 59.81777
# Shear Modulus (GPa) = 16.69782 18.88056 17.78919
#
# Velocity S-wave (km/s) = 3.15747 3.35751 3.25903
# Velocity P-wave (km/s) = 6.69244 7.41381 7.06234
#
# Compressibility (1/GPa) = 0.01895684
#
# Stress axis : x y z
#
# Youngs Moduli (GPa) = 32.68533 58.31443 60.72367
#
# Poissons Ratio (x) = 0.24363 0.70761
# Poissons Ratio (y) = 0.13656 0.41270
# Poissons Ratio (z) = 0.38088 0.39632
#
# Static dielectric constant tensor:
#      x y z
#    x 1.551380 0.000000 0.000000 
#    y 0.000000 1.571640 0.000000 
#    z 0.000000 0.000000 1.567300 
# 
# From -- ./inp_files/30127.got.cif
#   From: 2010.05.17/outbox.cif.g08.bks.cpg/sg67_16_cif.got.tgz:30127.got - 2010.06.03 18:28:57.
