data_PCOD9503397
_publ_section_title
;
Structure prediction by ZEFSAII (Michael W. Deem and Ramdas Pophale) SiO2 
 PCOD9503397
Probable space group: C M M A
;
_chemical_formula_sum "Si O2"
_cell_formula_units_Z 104
_cell_length_a 20.463825
_cell_length_b 28.556785
_cell_length_c 7.334300
_cell_angle_alpha 90.000000
_cell_angle_beta 90.000000
_cell_angle_gamma 90.000000
_cell_volume 4286.025941
_symmetry_space_group_name_H-M "C M M A"
_symmetry_group_IT_number 67
_symmetry_cell_setting 'orthorhombic'
loop_
_space_group_symop_operation_xyz
x,y,z
-x,1/2-y,z
x,-y,-z
-x,1/2+y,-z
-x,-y,-z
x,1/2+y,-z
-x,y,z
x,1/2-y,z
1/2+x,1/2+y,z
1/2-x,-y,z
1/2+x,1/2-y,-z
1/2-x,y,-z
1/2-x,1/2-y,-z
1/2+x,y,-z
1/2-x,1/2+y,z
1/2+x,-y,z
loop_
_atom_site_type_symbol
_atom_site_label
_atom_site_fract_x
_atom_site_fract_y
_atom_site_fract_z
Si Si1 0.619679 0.905077 0.072538
Si Si2 0.280715 0.697694 0.700299
Si Si3 0.074241 0.327244 0.611458
Si Si4 0.174156 0.007991 0.220493
Si Si5 0.070717 0.434711 0.703880
Si Si6 0.076230 0.698389 0.810303
Si Si7 0.750000 0.629444 0.000000
O O1 0.639591 0.940578 0.234279
O O2 0.602001 0.851609 0.119370
O O3 0.687789 0.901401 0.964162
O O4 0.570402 0.924836 0.923405
O O5 0.268015 0.750000 0.763171
O O6 0.250000 0.692871 0.500000
O O7 0.359151 0.689523 0.708407
O O8 0.243002 0.661779 0.826161
O O9 0.078355 0.383665 0.613240
O O10 0.079231 0.306286 0.409016
O O11 0.000000 0.315584 0.680531
O O12 0.250000 0.000000 0.270477
O O13 0.129198 0.970553 0.322068
O O14 0.169920 0.000000 0.000000
O O15 0.000000 0.453795 0.649977
O O16 0.104423 0.750000 0.861855
O O17 0.000000 0.699427 0.861834
#
# Coordination Sequence:
#
# PCOD9503397 Si02
#       7
#    16  16  16  16  16  16   8
#     4  11  21  37  62  89 124 164 209 266 330 390
#     4  11  24  41  63  92 128 174 227 278 335 398
#     4  10  21  41  65  88 123 169 215 272 336 394
#     4   9  19  35  60  90 123 162 207 258 328 403
#     4  10  20  37  62  94 125 159 211 269 325 394
#     4  10  22  40  61  87 123 168 216 266 329 401
#     4  12  23  38  61  90 128 168 216 281 325 396
#
# _framework density 24.264900999999998
#
# number of rings (size 3 to 8) (size 9 to 14) (size 15 to 20)
#    0.000    1.692    1.538    3.923    0.000    6.769 
#    0.000    0.769    0.000    3.692    0.000    0.000 
#    0.000    0.000    0.000    0.000    0.000    0.000 
#
# Total GULP energy -290462.096034 kJ/mol
# GULP energy per Si atom -5585.809539 kJ/mol
# Density = 2.420967 g / cm^3
# Si number density = 24.264901 Si / 1000 Ang^3
#
#
#
# Elastic Constant Matrix: (Units=GPa)
#
#
# Indices 1 2 3 4 5 6 
#
# 1 140.8266 51.3249 0.3685 0.0000 0.0000 0.0000
# 2 51.3249 173.0777 23.3491 0.0000 0.0000 0.0000
# 3 0.3685 23.3491 42.4092 0.0000 0.0000 0.0000
# 4 0.0000 0.0000 0.0000 38.8961 0.0000 0.0000
# 5 0.0000 0.0000 0.0000 0.0000 13.4817 0.0000
# 6 0.0000 0.0000 0.0000 0.0000 0.0000 45.7035
#
#
#
# Elastic Compliance Matrix: (Units=1/GPa)
#
#
# Indices 1 2 3 4 5 6 
#
# 1 0.008031 -0.002563 0.001341 0.000000 0.000000 0.000000
# 2 -0.002563 0.007059 -0.003864 0.000000 0.000000 0.000000
# 3 0.001341 -0.003864 0.025696 0.000000 0.000000 0.000000
# 4 0.000000 0.000000 0.000000 0.025710 0.000000 0.000000
# 5 0.000000 0.000000 0.000000 0.000000 0.074175 0.000000
# 6 0.000000 0.000000 0.000000 0.000000 0.000000 0.021880
#
#
# Mechanical properties :
#
#
# Convention : Reuss Voigt Hill
#
# Bulk Modulus (GPa) = 32.66411 56.26652 44.46531
# Shear Modulus (GPa) = 27.33337 38.36765 32.85051
#
# Velocity S-wave (km/s) = 3.35991 3.98074 3.68343
# Velocity P-wave (km/s) = 5.34254 6.66087 6.03779
#
# Compressibility (1/GPa) = 0.03061464
#
# Stress axis : x y z
#
# Youngs Moduli (GPa) = 124.51193 141.66392 38.91710
#
# Poissons Ratio (x) = 0.36302 -0.05219
# Poissons Ratio (y) = 0.31907 0.15038
# Poissons Ratio (z) = -0.16698 0.54741
#
# Static dielectric constant tensor:
#      x y z
#    x 2.664190 0.000000 0.000000 
#    y 0.000000 1.993170 0.000000 
#    z 0.000000 0.000000 1.956310 
# 
# From -- ./inp_files/11575.got.cif
#   From: 2010.05.17/outbox.cif.g08.bks.cpg/sg67_6_cif.got.tgz:11575.got - 2010.06.03 18:28:57.
