data_PCOD9503744
_publ_section_title
;
Structure prediction by ZEFSAII (Michael W. Deem and Ramdas Pophale) SiO2 
 PCOD9503744
Probable space group: C M M A
;
_chemical_formula_sum "Si O2"
_cell_formula_units_Z 96
_cell_length_a 16.784431
_cell_length_b 14.443951
_cell_length_c 21.805632
_cell_angle_alpha 90.000000
_cell_angle_beta 90.000000
_cell_angle_gamma 90.000000
_cell_volume 5286.415662
_symmetry_space_group_name_H-M "C M M A"
_symmetry_group_IT_number 67
_symmetry_cell_setting 'orthorhombic'
loop_
_space_group_symop_operation_xyz
x,y,z
-x,1/2-y,z
x,-y,-z
-x,1/2+y,-z
-x,-y,-z
x,1/2+y,-z
-x,y,z
x,1/2-y,z
1/2+x,1/2+y,z
1/2-x,-y,z
1/2+x,1/2-y,-z
1/2-x,y,-z
1/2-x,1/2-y,-z
1/2+x,y,-z
1/2-x,1/2+y,z
1/2+x,-y,z
loop_
_atom_site_type_symbol
_atom_site_label
_atom_site_fract_x
_atom_site_fract_y
_atom_site_fract_z
Si Si1 0.908135 0.988698 0.739222
Si Si2 0.347043 0.145444 0.499726
Si Si3 0.177193 0.357452 0.166139
Si Si4 0.153541 0.999969 0.397979
Si Si5 0.631332 0.357032 0.165528
Si Si6 0.906805 0.988439 0.930051
O O1 0.896953 0.085488 0.775249
O O2 0.000000 0.960809 0.744880
O O3 0.854795 0.913536 0.775024
O O4 0.883382 0.997826 0.668900
O O5 0.376160 0.250000 0.500117
O O6 0.250000 0.146489 0.500000
O O7 0.370127 0.087567 0.559933
O O8 0.369985 0.088715 0.438990
O O9 0.152557 0.250000 0.166986
O O10 0.272658 0.360940 0.165014
O O11 0.142296 0.412316 0.107818
O O12 0.250000 0.000000 0.392393
O O13 0.606444 0.250000 0.165340
O O14 0.601685 0.415581 0.107182
O O15 0.000000 0.961943 0.930103
O O16 0.879924 0.000000 0.000000
#
# Coordination Sequence:
#
# PCOD9503744 Si02
#       6
#    16  16  16  16  16  16
#     4  11  22  35  53  77 108 142 173 211 261 316
#     4   8  15  29  50  74  98 128 168 213 256 297
#     4  10  21  37  57  79 103 135 177 222 262 302
#     4   9  17  31  51  74 100 130 170 215 253 299
#     4  10  21  37  57  79 103 135 177 222 262 302
#     4  10  21  36  55  80 110 142 172 207 256 313
#
# _framework density 18.159752000000001
#
# number of rings (size 3 to 8) (size 9 to 14) (size 15 to 20)
#    0.000    2.333    0.000    6.000    0.000    6.000 
#    0.000    8.333    0.000    1.000    0.000    0.000 
#    0.000    0.000    0.000    0.000    0.000    0.000 
#
# Total GULP energy -267904.678575 kJ/mol
# GULP energy per Si atom -5581.347470 kJ/mol
# Density = 1.811842 g / cm^3
# Si number density = 18.159752 Si / 1000 Ang^3
#
#
#
# Elastic Constant Matrix: (Units=GPa)
#
#
# Indices 1 2 3 4 5 6 
#
# 1 34.6039 2.7004 12.2199 0.0000 0.0000 0.0000
# 2 2.7004 129.9135 60.1767 0.0000 0.0000 0.0000
# 3 12.2199 60.1767 165.1538 0.0000 0.0000 0.0000
# 4 0.0000 0.0000 0.0000 3.9610 0.0000 0.0000
# 5 0.0000 0.0000 0.0000 0.0000 33.7742 0.0000
# 6 0.0000 0.0000 0.0000 0.0000 0.0000 -24.8644
#
#
#
# Elastic Compliance Matrix: (Units=1/GPa)
#
#
# Indices 1 2 3 4 5 6 
#
# 1 0.029699 0.000482 -0.002373 0.000000 0.000000 0.000000
# 2 0.000482 0.009268 -0.003413 0.000000 0.000000 0.000000
# 3 -0.002373 -0.003413 0.007474 0.000000 0.000000 0.000000
# 4 0.000000 0.000000 0.000000 0.252463 0.000000 0.000000
# 5 0.000000 0.000000 0.000000 0.000000 0.029608 0.000000
# 6 0.000000 0.000000 0.000000 0.000000 0.000000 -0.040218
#
#
# Mechanical properties :
#
#
# Convention : Reuss Voigt Hill
#
# Bulk Modulus (GPa) = 27.90693 53.31835 40.61264
# Shear Modulus (GPa) = 16.08509 19.54577 17.81543
#
# Velocity S-wave (km/s) = 2.97939 3.28430 3.13555
# Velocity P-wave (km/s) = 5.21886 6.61866 5.96000
#
# Compressibility (1/GPa) = 0.03583339
#
# Stress axis : x y z
#
# Youngs Moduli (GPa) = 33.67131 107.89599 133.79687
#
# Poissons Ratio (x) = -0.05199 0.31750
# Poissons Ratio (y) = -0.01623 0.45661
# Poissons Ratio (z) = 0.07990 0.36821
#
# Static dielectric constant tensor:
#      x y z
#    x 1.627860 0.000000 0.000000 
#    y 0.000000 1.615880 0.000000 
#    z 0.000000 0.000000 1.589020 
# 
# From -- ./inp_files/38436.got.cif
#   From: 2010.05.17/outbox.cif.g08.bks.cpg/sg67_20_cif.got.tgz:38436.got - 2010.06.03 18:28:57.
