data_PCOD9503911
_publ_section_title
;
Structure prediction by ZEFSAII (Michael W. Deem and Ramdas Pophale) SiO2 
 PCOD9503911
Probable space group: C M M A
;
_chemical_formula_sum "Si O2"
_cell_formula_units_Z 112
_cell_length_a 15.333645
_cell_length_b 23.879409
_cell_length_c 16.444927
_cell_angle_alpha 90.000000
_cell_angle_beta 90.000000
_cell_angle_gamma 90.000000
_cell_volume 6021.447836
_symmetry_space_group_name_H-M "C M M A"
_symmetry_group_IT_number 67
_symmetry_cell_setting 'orthorhombic'
loop_
_space_group_symop_operation_xyz
x,y,z
-x,1/2-y,z
x,-y,-z
-x,1/2+y,-z
-x,-y,-z
x,1/2+y,-z
-x,y,z
x,1/2-y,z
1/2+x,1/2+y,z
1/2-x,-y,z
1/2+x,1/2-y,-z
1/2-x,y,-z
1/2-x,1/2-y,-z
1/2+x,y,-z
1/2-x,1/2+y,z
1/2+x,-y,z
loop_
_atom_site_type_symbol
_atom_site_label
_atom_site_fract_x
_atom_site_fract_y
_atom_site_fract_z
Si Si1 0.844041 0.083445 0.473186
Si Si2 0.352310 0.516358 0.315035
Si Si3 0.602895 0.315324 0.215825
Si Si4 0.739495 0.316001 0.904488
Si Si5 0.404875 0.103006 0.346042
Si Si6 0.397403 0.185453 0.625052
Si Si7 0.602175 0.622861 0.206712
O O1 0.750000 0.062864 0.500000
O O2 0.879627 0.042644 0.402887
O O3 0.887557 0.092228 0.559799
O O4 0.840992 0.143359 0.428765
O O5 0.250000 0.500000 0.318218
O O6 0.399632 0.457460 0.303978
O O7 0.371683 0.563161 0.247447
O O8 0.500000 0.327988 0.196189
O O9 0.606062 0.250000 0.239093
O O10 0.667381 0.323810 0.140045
O O11 0.644013 0.352955 0.288851
O O12 0.715068 0.250000 0.893956
O O13 0.667237 0.355460 0.862503
O O14 0.750000 0.326893 0.000000
O O15 0.500000 0.128348 0.344935
O O16 0.500000 0.177039 0.602378
O O17 0.375156 0.250000 0.614117
O O18 0.389927 0.166669 0.718389
O O19 0.500000 0.620851 0.182557
#
# Coordination Sequence:
#
# PCOD9503911 Si02
#       7
#    16  16  16  16  16  16  16
#     4  11  22  33  49  78 110 147 190 238 285 328
#     4  11  21  36  56  78 111 150 195 244 287 337
#     4   9  20  39  60  84 115 150 189 236 290 351
#     4  10  21  37  61  92 120 149 186 230 286 351
#     4  11  22  35  55  79 106 148 192 235 283 336
#     4   9  19  35  52  73 108 151 191 232 278 331
#     4  10  21  37  58  86 118 152 192 239 291 348
#
# _framework density 18.600178
#
# number of rings (size 3 to 8) (size 9 to 14) (size 15 to 20)
#    0.000    1.857    1.429    2.571    2.000    4.571 
#    0.000    2.857    0.000    3.857    0.000    6.000 
#    0.000    0.000    0.000    0.000    0.000    0.000 
#
# Total GULP energy -312091.523469 kJ/mol
# GULP energy per Si atom -5573.062919 kJ/mol
# Density = 1.855784 g / cm^3
# Si number density = 18.600178 Si / 1000 Ang^3
#
#
#
# Elastic Constant Matrix: (Units=GPa)
#
#
# Indices 1 2 3 4 5 6 
#
# 1 68.6695 27.3980 48.7140 0.0000 0.0000 0.0000
# 2 27.3980 90.0225 60.8284 0.0000 0.0000 0.0000
# 3 48.7140 60.8284 118.9817 0.0000 0.0000 0.0000
# 4 0.0000 0.0000 0.0000 17.7734 0.0000 0.0000
# 5 0.0000 0.0000 0.0000 0.0000 41.8121 0.0000
# 6 0.0000 0.0000 0.0000 0.0000 0.0000 24.3141
#
#
#
# Elastic Compliance Matrix: (Units=1/GPa)
#
#
# Indices 1 2 3 4 5 6 
#
# 1 0.020568 -0.000870 -0.007976 0.000000 0.000000 0.000000
# 2 -0.000870 0.017008 -0.008339 0.000000 0.000000 0.000000
# 3 -0.007976 -0.008339 0.015933 0.000000 0.000000 0.000000
# 4 0.000000 0.000000 0.000000 0.056264 0.000000 0.000000
# 5 0.000000 0.000000 0.000000 0.000000 0.023916 0.000000
# 6 0.000000 0.000000 0.000000 0.000000 0.000000 0.041128
#
#
# Mechanical properties :
#
#
# Convention : Reuss Voigt Hill
#
# Bulk Modulus (GPa) = 52.24991 61.28382 56.76686
# Shear Modulus (GPa) = 23.19459 26.16215 24.67837
#
# Velocity S-wave (km/s) = 3.53513 3.75447 3.64645
# Velocity P-wave (km/s) = 6.69440 7.19821 6.95087
#
# Compressibility (1/GPa) = 0.01913879
#
# Stress axis : x y z
#
# Youngs Moduli (GPa) = 48.61929 58.79689 62.76137
#
# Poissons Ratio (x) = 0.05117 0.50059
# Poissons Ratio (y) = 0.04231 0.52335
# Poissons Ratio (z) = 0.38779 0.49029
#
# Static dielectric constant tensor:
#      x y z
#    x 1.711010 0.000000 0.000000 
#    y 0.000000 1.645900 0.000000 
#    z 0.000000 0.000000 1.770180 
# 
# From -- ./inp_files/27567.got.cif
#   From: 2010.05.17/outbox.cif.g08.bks.cpg/sg67_14_cif.got.tgz:27567.got - 2010.06.03 18:28:57.
