data_PCOD9503504
_publ_section_title
;
Structure prediction by ZEFSAII (Michael W. Deem and Ramdas Pophale) SiO2 
 PCOD9503504
Probable space group: C M M A
;
_chemical_formula_sum "Si O2"
_cell_formula_units_Z 64
_cell_length_a 17.400838
_cell_length_b 16.066393
_cell_length_c 10.986029
_cell_angle_alpha 90.000000
_cell_angle_beta 90.000000
_cell_angle_gamma 90.000000
_cell_volume 3071.349866
_symmetry_space_group_name_H-M "C M M A"
_symmetry_group_IT_number 67
_symmetry_cell_setting 'orthorhombic'
loop_
_space_group_symop_operation_xyz
x,y,z
-x,1/2-y,z
x,-y,-z
-x,1/2+y,-z
-x,-y,-z
x,1/2+y,-z
-x,y,z
x,1/2-y,z
1/2+x,1/2+y,z
1/2-x,-y,z
1/2+x,1/2-y,-z
1/2-x,y,-z
1/2-x,1/2-y,-z
1/2+x,y,-z
1/2-x,1/2+y,z
1/2+x,-y,z
loop_
_atom_site_type_symbol
_atom_site_label
_atom_site_fract_x
_atom_site_fract_y
_atom_site_fract_z
Si Si1 0.687525 0.250000 0.887475
Si Si2 0.659513 0.589484 0.518603
Si Si3 0.584175 0.651991 0.742424
Si Si4 0.317886 0.750000 0.396711
Si Si5 0.410101 0.403594 0.981267
O O1 0.710887 0.250000 0.743454
O O2 0.750000 0.250000 0.000000
O O3 0.638714 0.163981 0.905157
O O4 0.621775 0.500000 0.500000
O O5 0.750000 0.581212 0.500000
O O6 0.646989 0.612190 0.658195
O O7 0.635662 0.665900 0.431158
O O8 0.500000 0.621085 0.702874
O O9 0.586514 0.750000 0.724047
O O10 0.592252 0.633506 0.883243
O O11 0.250000 0.750000 0.500000
O O12 0.500000 0.405965 0.940576
O O13 0.383901 0.500000 0.000000
#
# Coordination Sequence:
#
# PCOD9503504 Si02
#       5
#     8  16  16   8  16
#     4  12  27  41  67 105 134 172 221 276 331 397
#     4  10  22  38  62  88 124 170 212 259 322 385
#     4  10  20  38  66  92 121 169 217 261 316 386
#     4  10  24  43  59  89 132 176 204 258 331 378
#     4  10  23  44  68  94 132 177 221 273 331 392
#
# _framework density 20.837743
#
# number of rings (size 3 to 8) (size 9 to 14) (size 15 to 20)
#    0.000    1.750    2.500    0.375   10.500    1.000 
#    0.000    2.500    0.000    0.000    0.000    0.000 
#    0.000    0.000    0.000    0.000    0.000    0.000 
#
# Total GULP energy -178255.318084 kJ/mol
# GULP energy per Si atom -5570.478690 kJ/mol
# Density = 2.079032 g / cm^3
# Si number density = 20.837743 Si / 1000 Ang^3
#
#
#
# Elastic Constant Matrix: (Units=GPa)
#
#
# Indices 1 2 3 4 5 6 
#
# 1 46.7953 19.0634 27.7731 0.0000 0.0000 0.0000
# 2 19.0634 146.6520 28.4119 0.0000 0.0000 0.0000
# 3 27.7731 28.4119 93.6575 0.0000 0.0000 0.0000
# 4 0.0000 0.0000 0.0000 369.0863 0.0000 0.0000
# 5 0.0000 0.0000 0.0000 0.0000 32.1808 0.0000
# 6 0.0000 0.0000 0.0000 0.0000 0.0000 -4.1978
#
#
#
# Elastic Compliance Matrix: (Units=1/GPa)
#
#
# Indices 1 2 3 4 5 6 
#
# 1 0.026497 -0.002042 -0.007238 0.000000 0.000000 0.000000
# 2 -0.002042 0.007402 -0.001640 0.000000 0.000000 0.000000
# 3 -0.007238 -0.001640 0.013321 0.000000 0.000000 0.000000
# 4 0.000000 0.000000 0.000000 0.002709 0.000000 0.000000
# 5 0.000000 0.000000 0.000000 0.000000 0.031074 0.000000
# 6 0.000000 0.000000 0.000000 0.000000 0.000000 -0.238222
#
#
# Mechanical properties :
#
#
# Convention : Reuss Voigt Hill
#
# Bulk Modulus (GPa) = 39.40058 48.62240 44.01149
# Shear Modulus (GPa) = -39.39573 93.53761 27.07094
#
# Velocity S-wave (km/s) = -4.35281 6.70716 3.60826
# Velocity P-wave (km/s) = 2.51264 9.13049 6.20695
#
# Compressibility (1/GPa) = 0.02538034
#
# Stress axis : x y z
#
# Youngs Moduli (GPa) = 37.73956 135.09799 75.06922
#
# Poissons Ratio (x) = 0.27589 0.54335
# Poissons Ratio (y) = 0.07707 0.12311
# Poissons Ratio (z) = 0.27316 0.22155
#
# Static dielectric constant tensor:
#      x y z
#    x 1.796650 0.000000 0.000000 
#    y 0.000000 1.888520 0.000000 
#    z 0.000000 0.000000 1.714770 
# 
# From -- ./inp_files/10714.got.cif
#   From: 2010.05.17/outbox.cif.g08.bks.cpg/sg67_6_cif.got.tgz:10714.got - 2010.06.03 18:28:57.
