data_PCOD9503797
_publ_section_title
;
Structure prediction by ZEFSAII (Michael W. Deem and Ramdas Pophale) SiO2 
 PCOD9503797
Probable space group: C M M A
;
_chemical_formula_sum "Si O2"
_cell_formula_units_Z 80
_cell_length_a 18.485272
_cell_length_b 9.985772
_cell_length_c 24.888572
_cell_angle_alpha 90.000000
_cell_angle_beta 90.000000
_cell_angle_gamma 90.000000
_cell_volume 4594.174326
_symmetry_space_group_name_H-M "C M M A"
_symmetry_group_IT_number 67
_symmetry_cell_setting 'orthorhombic'
loop_
_space_group_symop_operation_xyz
x,y,z
-x,1/2-y,z
x,-y,-z
-x,1/2+y,-z
-x,-y,-z
x,1/2+y,-z
-x,y,z
x,1/2-y,z
1/2+x,1/2+y,z
1/2-x,-y,z
1/2+x,1/2-y,-z
1/2-x,y,-z
1/2-x,1/2-y,-z
1/2+x,y,-z
1/2-x,1/2+y,z
1/2+x,-y,z
loop_
_atom_site_type_symbol
_atom_site_label
_atom_site_fract_x
_atom_site_fract_y
_atom_site_fract_z
Si Si1 0.680294 0.594027 0.767248
Si Si2 0.336230 0.978038 0.884487
Si Si3 0.582332 0.087396 0.333221
Si Si4 0.086188 0.750000 0.917454
Si Si5 0.088354 0.095339 0.548278
Si Si6 0.831563 0.750000 0.027167
O O1 0.700177 0.750000 0.760089
O O2 0.750000 0.500000 0.766469
O O3 0.644138 0.580573 0.826087
O O4 0.629144 0.551286 0.718253
O O5 0.344734 0.877452 0.934428
O O6 0.250000 0.000000 0.882924
O O7 0.377868 0.116679 0.892861
O O8 0.500000 0.039089 0.327311
O O9 0.579873 0.250000 0.334911
O O10 0.611043 0.047577 0.392162
O O11 0.000000 0.750000 0.911684
O O12 0.111567 0.750000 0.979216
O O13 0.110319 0.250000 0.540105
O O14 0.000000 0.094616 0.549358
O O15 0.112046 0.000000 0.500000
O O16 0.750000 0.750000 0.000000
#
# Coordination Sequence:
#
# PCOD9503797 Si02
#       6
#    16  16  16   8  16   8
#     4  10  21  36  58  84 109 141 192 236 267 328
#     4  11  22  40  64  87 112 154 198 231 281 348
#     4   8  15  30  51  75 104 143 181 220 275 329
#     4  12  28  42  60  94 128 146 179 247 305 335
#     4   8  13  23  43  70 100 132 173 221 266 320
#     4  12  22  40  66  92 112 154 199 235 278 353
#
# _framework density 17.413357000000001
#
# number of rings (size 3 to 8) (size 9 to 14) (size 15 to 20)
#    0.000    2.200    3.000    1.800    4.200    2.400 
#    0.000    1.000    0.000    1.800    0.000    4.200 
#    0.000    0.000    0.000    0.000    0.000    0.000 
#
# Total GULP energy -222878.237642 kJ/mol
# GULP energy per Si atom -5571.955941 kJ/mol
# Density = 1.737372 g / cm^3
# Si number density = 17.413357 Si / 1000 Ang^3
#
#
#
# Elastic Constant Matrix: (Units=GPa)
#
#
# Indices 1 2 3 4 5 6 
#
# 1 71.4865 42.8916 45.7649 0.0000 0.0000 0.0000
# 2 42.8916 94.7355 56.4407 0.0000 0.0000 0.0000
# 3 45.7649 56.4407 158.0964 0.0000 0.0000 0.0000
# 4 0.0000 0.0000 0.0000 165.1651 0.0000 0.0000
# 5 0.0000 0.0000 0.0000 0.0000 25.6929 0.0000
# 6 0.0000 0.0000 0.0000 0.0000 0.0000 16.0596
#
#
#
# Elastic Compliance Matrix: (Units=1/GPa)
#
#
# Indices 1 2 3 4 5 6 
#
# 1 0.020498 -0.007297 -0.003328 0.000000 0.000000 0.000000
# 2 -0.007297 0.016005 -0.003601 0.000000 0.000000 0.000000
# 3 -0.003328 -0.003601 0.008574 0.000000 0.000000 0.000000
# 4 0.000000 0.000000 0.000000 0.006055 0.000000 0.000000
# 5 0.000000 0.000000 0.000000 0.000000 0.038921 0.000000
# 6 0.000000 0.000000 0.000000 0.000000 0.000000 0.062268
#
#
# Mechanical properties :
#
#
# Convention : Reuss Voigt Hill
#
# Bulk Modulus (GPa) = 60.15778 68.27919 64.21848
# Shear Modulus (GPa) = 26.83592 53.33161 40.08376
#
# Velocity S-wave (km/s) = 3.92996 5.54016 4.80301
# Velocity P-wave (km/s) = 7.43066 8.95658 8.22907
#
# Compressibility (1/GPa) = 0.01662295
#
# Stress axis : x y z
#
# Youngs Moduli (GPa) = 48.78540 62.47929 116.62511
#
# Poissons Ratio (x) = 0.45594 0.38818
# Poissons Ratio (y) = 0.35601 0.42002
# Poissons Ratio (z) = 0.16238 0.22502
#
# Static dielectric constant tensor:
#      x y z
#    x 1.585080 0.000000 0.000000 
#    y 0.000000 1.577240 0.000000 
#    z 0.000000 0.000000 1.626040 
# 
# From -- ./inp_files/40592.got.cif
#   From: 2010.05.17/outbox.cif.g08.bks.cpg/sg67_21_cif.got.tgz:40592.got - 2010.06.03 18:28:57.
