data_PCOD9503199
_publ_section_title
;
Structure prediction by ZEFSAII (Michael W. Deem and Ramdas Pophale) SiO2 
 PCOD9503199
Probable space group: C M M A
;
_chemical_formula_sum "Si O2"
_cell_formula_units_Z 112
_cell_length_a 15.442524
_cell_length_b 15.149718
_cell_length_c 23.495097
_cell_angle_alpha 90.000000
_cell_angle_beta 90.000000
_cell_angle_gamma 90.000000
_cell_volume 5496.675213
_symmetry_space_group_name_H-M "C M M A"
_symmetry_group_IT_number 67
_symmetry_cell_setting 'orthorhombic'
loop_
_space_group_symop_operation_xyz
x,y,z
-x,1/2-y,z
x,-y,-z
-x,1/2+y,-z
-x,-y,-z
x,1/2+y,-z
-x,y,z
x,1/2-y,z
1/2+x,1/2+y,z
1/2-x,-y,z
1/2+x,1/2-y,-z
1/2-x,y,-z
1/2-x,1/2-y,-z
1/2+x,y,-z
1/2-x,1/2+y,z
1/2+x,-y,z
loop_
_atom_site_type_symbol
_atom_site_label
_atom_site_fract_x
_atom_site_fract_y
_atom_site_fract_z
Si Si1 0.896114 0.354739 0.453812
Si Si2 0.896783 0.847873 0.417035
Si Si3 0.906273 0.154983 0.869647
Si Si4 0.277640 0.599223 0.159458
Si Si5 0.096940 0.347949 0.259200
Si Si6 0.899888 0.971392 0.936805
Si Si7 0.845525 0.020742 0.353969
O O1 0.885526 0.250000 0.442862
O O2 0.866928 0.370789 0.518845
O O3 0.846859 0.415998 0.409365
O O4 0.000000 0.374393 0.448724
O O5 0.862662 0.750000 0.401372
O O6 0.000000 0.840075 0.422770
O O7 0.880929 0.926302 0.373525
O O8 0.907610 0.250000 0.900819
O O9 0.812888 0.151079 0.840529
O O10 0.000000 0.151793 0.837608
O O11 0.904900 0.066064 0.905757
O O12 0.250000 0.500000 0.174613
O O13 0.339042 0.637457 0.207385
O O14 0.332553 0.588080 0.099964
O O15 0.110436 0.250000 0.285017
O O16 0.106223 0.423892 0.305932
O O17 0.000000 0.351189 0.235978
O O18 0.000000 0.936335 0.938977
O O19 0.871206 0.000000 0.000000
O O20 0.750000 0.000000 0.332831
#
# Coordination Sequence:
#
# PCOD9503199 Si02
#       7
#    16  16  16  16  16  16  16
#     4   9  18  35  59  84 110 145 190 237 287 344
#     4   9  19  36  58  83 111 145 187 235 285 341
#     4   9  18  33  54  81 114 151 187 226 278 343
#     4  10  20  36  59  87 116 147 189 240 289 343
#     4  11  24  42  63  84 109 147 196 249 300 347
#     4   9  18  34  57  84 117 157 197 239 289 341
#     4  12  24  36  53  81 115 152 188 230 285 352
#
# _framework density 20.375954
#
# number of rings (size 3 to 8) (size 9 to 14) (size 15 to 20)
#    0.000    2.143    0.000    4.286    0.000    7.714 
#    0.000    3.571    0.000    4.286    0.000   10.000 
#    0.000    0.000    0.000    0.000    0.000    0.000 
#
# Total GULP energy -312022.880626 kJ/mol
# GULP energy per Si atom -5571.837154 kJ/mol
# Density = 2.032958 g / cm^3
# Si number density = 20.375954 Si / 1000 Ang^3
#
#
#
# Elastic Constant Matrix: (Units=GPa)
#
#
# Indices 1 2 3 4 5 6 
#
# 1 115.5764 36.9049 45.2542 0.0000 0.0000 0.0000
# 2 36.9049 70.1611 31.1649 0.0000 0.0000 0.0000
# 3 45.2542 31.1649 75.0095 0.0000 0.0000 0.0000
# 4 0.0000 0.0000 0.0000 7.8694 0.0000 0.0000
# 5 0.0000 0.0000 0.0000 0.0000 144.6205 0.0000
# 6 0.0000 0.0000 0.0000 0.0000 0.0000 -37.4237
#
#
#
# Elastic Compliance Matrix: (Units=1/GPa)
#
#
# Indices 1 2 3 4 5 6 
#
# 1 0.012114 -0.003833 -0.005716 0.000000 0.000000 0.000000
# 2 -0.003833 0.018691 -0.005453 0.000000 0.000000 0.000000
# 3 -0.005716 -0.005453 0.019046 0.000000 0.000000 0.000000
# 4 0.000000 0.000000 0.000000 0.127075 0.000000 0.000000
# 5 0.000000 0.000000 0.000000 0.000000 0.006915 0.000000
# 6 0.000000 0.000000 0.000000 0.000000 0.000000 -0.026721
#
#
# Mechanical properties :
#
#
# Convention : Reuss Voigt Hill
#
# Bulk Modulus (GPa) = 50.38645 54.15499 52.27072
# Shear Modulus (GPa) = 25.80758 32.84143 29.32450
#
# Velocity S-wave (km/s) = 3.56275 4.01905 3.79776
# Velocity P-wave (km/s) = 6.45804 6.94065 6.70369
#
# Compressibility (1/GPa) = 0.01984661
#
# Stress axis : x y z
#
# Youngs Moduli (GPa) = 82.54603 53.50036 52.50426
#
# Poissons Ratio (x) = 0.20507 0.30013
# Poissons Ratio (y) = 0.31641 0.28632
# Poissons Ratio (z) = 0.47185 0.29176
#
# Static dielectric constant tensor:
#      x y z
#    x 1.793530 0.000000 0.000000 
#    y 0.000000 1.657900 0.000000 
#    z 0.000000 0.000000 1.710830 
# 
# From -- ./inp_files/41912.got.cif
#   From: 2010.05.17/outbox.cif.g08.bks.cpg/sg67_21_cif.got.tgz:41912.got - 2010.06.03 18:28:57.
