data_PCOD9503076
_publ_section_title
;
Structure prediction by ZEFSAII (Michael W. Deem and Ramdas Pophale) SiO2 
 PCOD9503076
Probable space group: C M M A
;
_chemical_formula_sum "Si O2"
_cell_formula_units_Z 96
_cell_length_a 14.378903
_cell_length_b 17.828475
_cell_length_c 21.038164
_cell_angle_alpha 90.000000
_cell_angle_beta 90.000000
_cell_angle_gamma 90.000000
_cell_volume 5393.215657
_symmetry_space_group_name_H-M "C M M A"
_symmetry_group_IT_number 67
_symmetry_cell_setting 'orthorhombic'
loop_
_space_group_symop_operation_xyz
x,y,z
-x,1/2-y,z
x,-y,-z
-x,1/2+y,-z
-x,-y,-z
x,1/2+y,-z
-x,y,z
x,1/2-y,z
1/2+x,1/2+y,z
1/2-x,-y,z
1/2+x,1/2-y,-z
1/2-x,y,-z
1/2-x,1/2-y,-z
1/2+x,y,-z
1/2-x,1/2+y,z
1/2+x,-y,z
loop_
_atom_site_type_symbol
_atom_site_label
_atom_site_fract_x
_atom_site_fract_y
_atom_site_fract_z
Si Si1 0.229360 0.589030 0.906083
Si Si2 0.222871 0.329239 0.573867
Si Si3 0.392014 0.973611 0.570538
Si Si4 0.889564 0.339942 0.979996
Si Si5 0.391981 0.339975 0.797492
Si Si6 0.605090 0.623899 0.350313
O O1 0.250000 0.500000 0.907945
O O2 0.325909 0.632414 0.921288
O O3 0.180246 0.616616 0.841855
O O4 0.156906 0.615359 0.961158
O O5 0.172795 0.250000 0.583629
O O6 0.250000 0.334843 0.500000
O O7 0.164347 0.401548 0.591223
O O8 0.316696 0.330293 0.613981
O O9 0.500000 0.953586 0.563790
O O10 0.360982 0.000000 0.500000
O O11 0.384114 0.040390 0.621062
O O12 0.877960 0.250000 0.989421
O O13 0.000000 0.354843 0.973885
O O14 0.500000 0.352483 0.817856
O O15 0.376167 0.250000 0.800014
O O16 0.384032 0.367958 0.725005
O O17 0.500000 0.648596 0.366158
#
# Coordination Sequence:
#
# PCOD9503076 Si02
#       6
#    16  16  16  16  16  16
#     4  11  22  34  55  87 120 154 191 239 292 347
#     4  11  22  33  52  81 110 142 177 222 278 335
#     4  10  20  36  56  77 105 142 179 224 277 331
#     4  10  20  36  59  85 116 157 201 244 288 333
#     4  10  21  39  61  83 111 149 193 242 291 343
#     4  10  21  37  59  83 108 142 188 235 284 338
#
# _framework density 17.800142000000001
#
# number of rings (size 3 to 8) (size 9 to 14) (size 15 to 20)
#    0.000    1.667    1.667    4.500    0.000    6.000 
#    0.000    1.667    0.000    1.000    0.000    0.000 
#    0.000    0.000    0.000    0.000    0.000    0.000 
#
# Total GULP energy -267831.144588 kJ/mol
# GULP energy per Si atom -5579.815512 kJ/mol
# Density = 1.775963 g / cm^3
# Si number density = 17.800142 Si / 1000 Ang^3
#
#
#
# Elastic Constant Matrix: (Units=GPa)
#
#
# Indices 1 2 3 4 5 6 
#
# 1 129.0744 76.8136 56.3426 0.0000 0.0000 0.0000
# 2 76.8136 137.2138 47.1588 0.0000 0.0000 0.0000
# 3 56.3426 47.1588 78.9258 0.0000 0.0000 0.0000
# 4 0.0000 0.0000 0.0000 23.9795 0.0000 0.0000
# 5 0.0000 0.0000 0.0000 0.0000 28.2072 0.0000
# 6 0.0000 0.0000 0.0000 0.0000 0.0000 9.7707
#
#
#
# Elastic Compliance Matrix: (Units=1/GPa)
#
#
# Indices 1 2 3 4 5 6 
#
# 1 0.013932 -0.005513 -0.006651 0.000000 0.000000 0.000000
# 2 -0.005513 0.011353 -0.002848 0.000000 0.000000 0.000000
# 3 -0.006651 -0.002848 0.019120 0.000000 0.000000 0.000000
# 4 0.000000 0.000000 0.000000 0.041702 0.000000 0.000000
# 5 0.000000 0.000000 0.000000 0.000000 0.035452 0.000000
# 6 0.000000 0.000000 0.000000 0.000000 0.000000 0.102347
#
#
# Mechanical properties :
#
#
# Convention : Reuss Voigt Hill
#
# Bulk Modulus (GPa) = 69.54072 78.42712 73.98392
# Shear Modulus (GPa) = 19.32560 23.38473 21.35517
#
# Velocity S-wave (km/s) = 3.29857 3.62849 3.46745
# Velocity P-wave (km/s) = 7.32528 7.85557 7.59506
#
# Compressibility (1/GPa) = 0.01438006
#
# Stress axis : x y z
#
# Youngs Moduli (GPa) = 71.77818 88.08247 52.30164
#
# Poissons Ratio (x) = 0.48562 0.34787
# Poissons Ratio (y) = 0.39573 0.14895
# Poissons Ratio (z) = 0.47742 0.25084
#
# Static dielectric constant tensor:
#      x y z
#    x 1.615120 0.000000 0.000000 
#    y 0.000000 1.546590 0.000000 
#    z 0.000000 0.000000 1.604930 
# 
# From -- ./inp_files/38400.got.cif
#   From: 2010.05.17/outbox.cif.g08.bks.cpg/sg67_20_cif.got.tgz:38400.got - 2010.06.03 18:28:57.
