data_PCOD9503823
_publ_section_title
;
Structure prediction by ZEFSAII (Michael W. Deem and Ramdas Pophale) SiO2 
 PCOD9503823
Probable space group: C M M A
;
_chemical_formula_sum "Si O2"
_cell_formula_units_Z 64
_cell_length_a 18.403557
_cell_length_b 24.611608
_cell_length_c 6.727532
_cell_angle_alpha 90.000000
_cell_angle_beta 90.000000
_cell_angle_gamma 90.000000
_cell_volume 3047.175951
_symmetry_space_group_name_H-M "C M M A"
_symmetry_group_IT_number 67
_symmetry_cell_setting 'orthorhombic'
loop_
_space_group_symop_operation_xyz
x,y,z
-x,1/2-y,z
x,-y,-z
-x,1/2+y,-z
-x,-y,-z
x,1/2+y,-z
-x,y,z
x,1/2-y,z
1/2+x,1/2+y,z
1/2-x,-y,z
1/2+x,1/2-y,-z
1/2-x,y,-z
1/2-x,1/2-y,-z
1/2+x,y,-z
1/2-x,1/2+y,z
1/2+x,-y,z
loop_
_atom_site_type_symbol
_atom_site_label
_atom_site_fract_x
_atom_site_fract_y
_atom_site_fract_z
Si Si1 0.710318 0.750000 0.289356
Si Si2 0.083871 0.250000 0.005822
Si Si3 0.813102 0.635332 0.640502
Si Si4 0.413065 0.147461 0.277368
Si Si5 0.337901 0.562853 0.006013
O O1 0.750000 0.750000 0.500000
O O2 0.724673 0.685653 0.239210
O O3 0.628882 0.750000 0.206503
O O4 0.100214 0.198072 0.869482
O O5 0.000000 0.250000 0.054501
O O6 0.750000 0.610546 0.500000
O O7 0.872800 0.657647 0.485757
O O8 0.851961 0.593814 0.787067
O O9 0.500000 0.141349 0.301011
O O10 0.376817 0.095678 0.169738
O O11 0.359601 0.500000 0.000000
O O12 0.250000 0.565249 0.000000
#
# Coordination Sequence:
#
# PCOD9503823 Si02
#       5
#     8   8  16  16  16
#     4  10  21  36  66 100 129 169 218 268 329 393
#     4  10  21  40  66  96 140 182 214 268 345 408
#     4  11  22  41  65  99 131 171 218 274 333 394
#     4  11  24  42  66  98 132 171 219 273 331 400
#     4  11  24  44  68  93 128 176 223 272 329 391
#
# _framework density 21.003053999999999
#
# number of rings (size 3 to 8) (size 9 to 14) (size 15 to 20)
#    0.000    1.250    5.000    0.750    0.000    3.500 
#    0.000    5.000    0.000    0.000    0.000    0.000 
#    0.000    0.000    0.000    0.000    0.000    0.000 
#
# Total GULP energy -178254.632188 kJ/mol
# GULP energy per Si atom -5570.457256 kJ/mol
# Density = 2.095525 g / cm^3
# Si number density = 21.003054 Si / 1000 Ang^3
#
#
#
# Elastic Constant Matrix: (Units=GPa)
#
#
# Indices 1 2 3 4 5 6 
#
# 1 102.1238 18.1719 50.3971 0.0000 0.0000 0.0000
# 2 18.1719 132.2476 33.4586 0.0000 0.0000 0.0000
# 3 50.3971 33.4586 102.1603 0.0000 0.0000 0.0000
# 4 0.0000 0.0000 0.0000 41.3760 0.0000 0.0000
# 5 0.0000 0.0000 0.0000 0.0000 44.5872 0.0000
# 6 0.0000 0.0000 0.0000 0.0000 0.0000 19.7385
#
#
#
# Elastic Compliance Matrix: (Units=1/GPa)
#
#
# Indices 1 2 3 4 5 6 
#
# 1 0.012947 -0.000178 -0.006329 0.000000 0.000000 0.000000
# 2 -0.000178 0.008247 -0.002613 0.000000 0.000000 0.000000
# 3 -0.006329 -0.002613 0.013766 0.000000 0.000000 0.000000
# 4 0.000000 0.000000 0.000000 0.024169 0.000000 0.000000
# 5 0.000000 0.000000 0.000000 0.000000 0.022428 0.000000
# 6 0.000000 0.000000 0.000000 0.000000 0.000000 0.050662
#
#
# Mechanical properties :
#
#
# Convention : Reuss Voigt Hill
#
# Bulk Modulus (GPa) = 59.80546 60.06520 59.93533
# Shear Modulus (GPa) = 32.04463 36.77393 34.40928
#
# Velocity S-wave (km/s) = 3.91027 4.18890 4.05198
# Velocity P-wave (km/s) = 6.99453 7.21500 7.10562
#
# Compressibility (1/GPa) = 0.01672088
#
# Stress axis : x y z
#
# Youngs Moduli (GPa) = 77.23937 121.25360 72.64069
#
# Poissons Ratio (x) = 0.02157 0.45971
# Poissons Ratio (y) = 0.01374 0.18983
# Poissons Ratio (z) = 0.48881 0.31687
#
# Static dielectric constant tensor:
#      x y z
#    x 1.772190 0.000000 0.000000 
#    y 0.000000 1.799530 0.000000 
#    z 0.000000 0.000000 1.818810 
# 
# From -- ./inp_files/2862.got.cif
#   From: 2010.05.17/outbox.cif.g08.bks.cpg/sg67_2_cif.got.tgz:2862.got - 2010.06.03 18:28:57.
