data_PCOD9503818
_publ_section_title
;
Structure prediction by ZEFSAII (Michael W. Deem and Ramdas Pophale) SiO2 
 PCOD9503818
Probable space group: C M M A
;
_chemical_formula_sum "Si O2"
_cell_formula_units_Z 116
_cell_length_a 27.634793
_cell_length_b 19.727850
_cell_length_c 11.480279
_cell_angle_alpha 90.000000
_cell_angle_beta 90.000000
_cell_angle_gamma 90.000000
_cell_volume 6258.761690
_symmetry_space_group_name_H-M "C M M A"
_symmetry_group_IT_number 67
_symmetry_cell_setting 'orthorhombic'
loop_
_space_group_symop_operation_xyz
x,y,z
-x,1/2-y,z
x,-y,-z
-x,1/2+y,-z
-x,-y,-z
x,1/2+y,-z
-x,y,z
x,1/2-y,z
1/2+x,1/2+y,z
1/2-x,-y,z
1/2+x,1/2-y,-z
1/2-x,y,-z
1/2-x,1/2-y,-z
1/2+x,y,-z
1/2-x,1/2+y,z
1/2+x,-y,z
loop_
_atom_site_type_symbol
_atom_site_label
_atom_site_fract_x
_atom_site_fract_y
_atom_site_fract_z
Si Si1 0.000000 0.250000 0.791652
Si Si2 0.765314 0.422807 0.800831
Si Si3 0.685439 0.326141 0.373808
Si Si4 0.176738 0.670130 0.869027
Si Si5 0.133730 0.672412 0.610353
Si Si6 0.635768 0.073386 0.054788
Si Si7 0.444044 0.577388 0.495335
Si Si8 0.582634 0.359722 0.259130
O O1 0.042859 0.192163 0.784675
O O2 0.750000 0.500000 0.776682
O O3 0.781123 0.381876 0.685675
O O4 0.724476 0.376855 0.862436
O O5 0.812095 0.428086 0.882568
O O6 0.705866 0.250000 0.362064
O O7 0.673181 0.339996 0.508658
O O8 0.633786 0.328528 0.305469
O O9 0.185537 0.750000 0.897417
O O10 0.154930 0.667100 0.738875
O O11 0.140719 0.633423 0.959675
O O12 0.116931 0.750000 0.591247
O O13 0.090018 0.621564 0.587052
O O14 0.597285 0.090968 0.154322
O O15 0.626707 0.000000 0.000000
O O16 0.427585 0.500000 0.500000
O O17 0.500000 0.580327 0.459018
O O18 0.438584 0.605333 0.625773
#
# Coordination Sequence:
#
# PCOD9503818 Si02
#       8
#     4  16  16  16  16  16  16  16
#     4  12  20  40  68  96 128 146 214 262 310 382
#     4  11  22  37  60  88 120 160 211 254 306 366
#     4   9  18  36  59  90 123 152 200 252 310 362
#     4  11  24  39  59  86 123 165 210 255 302 365
#     4   9  21  38  59  86 119 162 200 248 317 374
#     4  11  24  41  64  86 124 164 207 260 312 364
#     4  10  21  36  61  92 122 152 199 255 308 381
#     4  10  22  36  64  95 117 156 197 260 312 352
#
# _framework density 18.534016999999999
#
# number of rings (size 3 to 8) (size 9 to 14) (size 15 to 20)
#    0.000    1.793    2.759    0.828    3.862    3.586 
#    0.000    3.103    1.517    0.000    0.000    0.000 
#    0.000    0.000    0.000    0.000    0.000    0.000 
#
# Total GULP energy -323234.836658 kJ/mol
# GULP energy per Si atom -5573.014425 kJ/mol
# Density = 1.849183 g / cm^3
# Si number density = 18.534017 Si / 1000 Ang^3
#
#
#
# Elastic Constant Matrix: (Units=GPa)
#
#
# Indices 1 2 3 4 5 6 
#
# 1 45.7809 26.3885 0.6652 0.0000 0.0000 0.0000
# 2 26.3885 117.9017 16.1066 0.0000 0.0000 0.0000
# 3 0.6652 16.1066 42.8383 0.0000 0.0000 0.0000
# 4 0.0000 0.0000 0.0000 2.5491 0.0000 0.0000
# 5 0.0000 0.0000 0.0000 0.0000 9.1107 0.0000
# 6 0.0000 0.0000 0.0000 0.0000 0.0000 62.3915
#
#
#
# Elastic Compliance Matrix: (Units=1/GPa)
#
#
# Indices 1 2 3 4 5 6 
#
# 1 0.025213 -0.005892 0.001824 0.000000 0.000000 0.000000
# 2 -0.005892 0.010318 -0.003788 0.000000 0.000000 0.000000
# 3 0.001824 -0.003788 0.024739 0.000000 0.000000 0.000000
# 4 0.000000 0.000000 0.000000 0.392292 0.000000 0.000000
# 5 0.000000 0.000000 0.000000 0.000000 0.109761 0.000000
# 6 0.000000 0.000000 0.000000 0.000000 0.000000 0.016028
#
#
# Mechanical properties :
#
#
# Convention : Reuss Voigt Hill
#
# Bulk Modulus (GPa) = 22.44274 32.53794 27.49034
# Shear Modulus (GPa) = 8.21132 25.70098 16.95615
#
# Velocity S-wave (km/s) = 2.10714 3.72787 3.02796
# Velocity P-wave (km/s) = 4.24915 6.01026 5.20474
#
# Compressibility (1/GPa) = 0.04455784
#
# Stress axis : x y z
#
# Youngs Moduli (GPa) = 39.66204 96.91898 40.42127
#
# Poissons Ratio (x) = 0.57107 -0.07372
# Poissons Ratio (y) = 0.23370 0.15311
# Poissons Ratio (z) = -0.07234 0.36712
#
# Static dielectric constant tensor:
#      x y z
#    x 1.634490 0.000000 0.000000 
#    y 0.000000 1.640430 0.000000 
#    z 0.000000 0.000000 1.644620 
# 
# From -- ./inp_files/23053.got.cif
#   From: 2010.05.17/outbox.cif.g08.bks.cpg/sg67_12_cif.got.tgz:23053.got - 2010.06.03 18:28:57.
