data_PCOD9503204
_publ_section_title
;
Structure prediction by ZEFSAII (Michael W. Deem and Ramdas Pophale) SiO2 
 PCOD9503204
Probable space group: C M M A
;
_chemical_formula_sum "Si O2"
_cell_formula_units_Z 104
_cell_length_a 26.428097
_cell_length_b 9.402279
_cell_length_c 21.559438
_cell_angle_alpha 90.000000
_cell_angle_beta 90.000000
_cell_angle_gamma 90.000000
_cell_volume 5357.182753
_symmetry_space_group_name_H-M "C M M A"
_symmetry_group_IT_number 67
_symmetry_cell_setting 'orthorhombic'
loop_
_space_group_symop_operation_xyz
x,y,z
-x,1/2-y,z
x,-y,-z
-x,1/2+y,-z
-x,-y,-z
x,1/2+y,-z
-x,y,z
x,1/2-y,z
1/2+x,1/2+y,z
1/2-x,-y,z
1/2+x,1/2-y,-z
1/2-x,y,-z
1/2-x,1/2-y,-z
1/2+x,y,-z
1/2-x,1/2+y,z
1/2+x,-y,z
loop_
_atom_site_type_symbol
_atom_site_label
_atom_site_fract_x
_atom_site_fract_y
_atom_site_fract_z
Si Si1 0.558384 0.411067 0.306813
Si Si2 0.143131 0.030562 0.880130
Si Si3 0.697847 0.920771 0.385192
Si Si4 0.440455 0.250000 0.077889
Si Si5 0.112964 0.750000 0.953356
Si Si6 0.648071 0.917495 0.253308
Si Si7 0.101840 0.916775 0.441377
Si Si8 0.296180 0.750000 0.952172
O O1 0.500000 0.426965 0.290796
O O2 0.575106 0.250000 0.289230
O O3 0.593419 0.527978 0.275782
O O4 0.566572 0.421984 0.380772
O O5 0.092299 0.122693 0.892005
O O6 0.191490 0.110072 0.911228
O O7 0.125100 0.885824 0.912078
O O8 0.158048 0.002781 0.809358
O O9 0.699292 0.750000 0.396681
O O10 0.684711 0.942398 0.312062
O O11 0.750000 0.000000 0.399882
O O12 0.652877 0.998452 0.422442
O O13 0.500000 0.250000 0.092804
O O14 0.434289 0.250000 0.001764
O O15 0.156437 0.750000 0.003454
O O16 0.648129 0.750000 0.240252
O O17 0.111868 0.750000 0.454850
O O18 0.079809 0.000000 0.500000
O O19 0.250000 0.750000 0.000000
#
# Coordination Sequence:
#
# PCOD9503204 Si02
#       8
#    16  16  16   8   8  16  16   8
#     4   9  20  37  59  86 120 161 199 243 295 346
#     4  10  21  39  60  83 114 150 189 240 286 345
#     4  10  21  39  59  83 116 151 191 245 295 348
#     4  10  22  38  58  84 112 150 189 229 292 346
#     4  10  20  38  62  80 114 146 184 238 288 340
#     4  10  21  39  59  83 118 152 193 241 293 351
#     4  10  20  36  59  87 118 159 201 244 293 345
#     4  10  22  40  58  86 114 150 189 234 291 353
#
# _framework density 19.413188000000002
#
# number of rings (size 3 to 8) (size 9 to 14) (size 15 to 20)
#    0.000    2.308    0.769    2.769    2.154    5.231 
#    2.769    1.538    0.000    0.000    0.000    0.000 
#    0.000    0.000    0.000    0.000    0.000    0.000 
#
# Total GULP energy -289748.823841 kJ/mol
# GULP energy per Si atom -5572.092766 kJ/mol
# Density = 1.936900 g / cm^3
# Si number density = 19.413188 Si / 1000 Ang^3
#
#
#
# Elastic Constant Matrix: (Units=GPa)
#
#
# Indices 1 2 3 4 5 6 
#
# 1 50.5959 6.0319 -13.2259 0.0000 0.0000 0.0000
# 2 6.0319 106.5041 25.8949 0.0000 0.0000 0.0000
# 3 -13.2259 25.8949 58.8002 0.0000 0.0000 0.0000
# 4 0.0000 0.0000 0.0000 44.7899 0.0000 0.0000
# 5 0.0000 0.0000 0.0000 0.0000 -1.1788 0.0000
# 6 0.0000 0.0000 0.0000 0.0000 0.0000 17.3597
#
#
#
# Elastic Compliance Matrix: (Units=1/GPa)
#
#
# Indices 1 2 3 4 5 6 
#
# 1 0.021672 -0.002702 0.006065 0.000000 0.000000 0.000000
# 2 -0.002702 0.010852 -0.005387 0.000000 0.000000 0.000000
# 3 0.006065 -0.005387 0.020743 0.000000 0.000000 0.000000
# 4 0.000000 0.000000 0.000000 0.022326 0.000000 0.000000
# 5 0.000000 0.000000 0.000000 0.000000 -0.848336 0.000000
# 6 0.000000 0.000000 0.000000 0.000000 0.000000 0.057605
#
#
# Mechanical properties :
#
#
# Convention : Reuss Voigt Hill
#
# Bulk Modulus (GPa) = 20.31752 28.14466 24.23109
# Shear Modulus (GPa) = -7.19752 25.34079 9.07163
#
# Velocity S-wave (km/s) = -1.92759 3.61687 2.16404
# Velocity P-wave (km/s) = 2.35254 5.65433 4.33047
#
# Compressibility (1/GPa) = 0.04921860
#
# Stress axis : x y z
#
# Youngs Moduli (GPa) = 46.14282 92.14840 48.20874
#
# Poissons Ratio (x) = 0.24897 -0.29236
# Poissons Ratio (y) = 0.12467 0.25969
# Poissons Ratio (z) = -0.27983 0.49639
#
# Static dielectric constant tensor:
#      x y z
#    x 1.729370 0.000000 0.000000 
#    y 0.000000 1.963090 0.000000 
#    z 0.000000 0.000000 1.785080 
# 
# From -- ./inp_files/40027.got.cif
#   From: 2010.05.17/outbox.cif.g08.bks.cpg/sg67_21_cif.got.tgz:40027.got - 2010.06.03 18:28:57.
