data_PCOD9503173
_publ_section_title
;
Structure prediction by ZEFSAII (Michael W. Deem and Ramdas Pophale) SiO2 
 PCOD9503173
Probable space group: C M M A
;
_chemical_formula_sum "Si O2"
_cell_formula_units_Z 96
_cell_length_a 16.428944
_cell_length_b 15.179259
_cell_length_c 19.585953
_cell_angle_alpha 90.000000
_cell_angle_beta 90.000000
_cell_angle_gamma 90.000000
_cell_volume 4884.329213
_symmetry_space_group_name_H-M "C M M A"
_symmetry_group_IT_number 67
_symmetry_cell_setting 'orthorhombic'
loop_
_space_group_symop_operation_xyz
x,y,z
-x,1/2-y,z
x,-y,-z
-x,1/2+y,-z
-x,-y,-z
x,1/2+y,-z
-x,y,z
x,1/2-y,z
1/2+x,1/2+y,z
1/2-x,-y,z
1/2+x,1/2-y,-z
1/2-x,y,-z
1/2-x,1/2-y,-z
1/2+x,y,-z
1/2-x,1/2+y,z
1/2+x,-y,z
loop_
_atom_site_type_symbol
_atom_site_label
_atom_site_fract_x
_atom_site_fract_y
_atom_site_fract_z
Si Si1 0.655245 0.605427 0.005656
Si Si2 0.151509 0.496304 0.607389
Si Si3 0.591173 0.506437 0.240357
Si Si4 0.128239 0.152234 0.858745
Si Si5 0.823976 0.348649 0.154944
Si Si6 0.849062 0.647996 0.503996
O O1 0.632483 0.633448 0.081972
O O2 0.653360 0.500000 0.000000
O O3 0.750000 0.634397 0.000000
O O4 0.608915 0.640183 0.939158
O O5 0.250000 0.500000 0.610547
O O6 0.116753 0.486235 0.682661
O O7 0.126598 0.412977 0.560453
O O8 0.127452 0.587747 0.569346
O O9 0.500000 0.542096 0.239639
O O10 0.594832 0.422103 0.190729
O O11 0.650225 0.578694 0.208427
O O12 0.104523 0.250000 0.836981
O O13 0.226683 0.144492 0.854954
O O14 0.842853 0.250000 0.177622
O O15 0.877128 0.750000 0.504595
O O16 0.750000 0.650724 0.500000
#
# Coordination Sequence:
#
# PCOD9503173 Si02
#       6
#    16  16  16  16  16  16
#     4   9  15  29  57  85 107 130 173 240 295 334
#     4   9  18  34  57  83 109 138 178 221 262 316
#     4  12  25  38  52  76 118 158 187 222 268 326
#     4  10  20  36  59  83 106 139 187 238 285 332
#     4  10  20  36  59  83 106 139 187 238 285 332
#     4   8  15  31  58  88 110 130 166 221 274 315
#
# _framework density 19.654696000000001
#
# number of rings (size 3 to 8) (size 9 to 14) (size 15 to 20)
#    0.000    2.333    1.667    3.000    0.000    4.000 
#    0.000    6.667    0.000    3.000    0.000    0.000 
#    0.000    0.000    0.000    0.000    0.000    0.000 
#
# Total GULP energy -267767.162435 kJ/mol
# GULP energy per Si atom -5578.482551 kJ/mol
# Density = 1.960996 g / cm^3
# Si number density = 19.654696 Si / 1000 Ang^3
#
#
#
# Elastic Constant Matrix: (Units=GPa)
#
#
# Indices 1 2 3 4 5 6 
#
# 1 19.2078 12.4129 4.3708 0.0000 0.0000 0.0000
# 2 12.4129 111.9878 39.3226 0.0000 0.0000 0.0000
# 3 4.3708 39.3226 111.7618 0.0000 0.0000 0.0000
# 4 0.0000 0.0000 0.0000 -12.8287 0.0000 0.0000
# 5 0.0000 0.0000 0.0000 0.0000 -24.6177 0.0000
# 6 0.0000 0.0000 0.0000 0.0000 0.0000 -11.7066
#
#
#
# Elastic Compliance Matrix: (Units=1/GPa)
#
#
# Indices 1 2 3 4 5 6 
#
# 1 0.056079 -0.006213 -0.000007 0.000000 0.000000 0.000000
# 2 -0.006213 0.010877 -0.003584 0.000000 0.000000 0.000000
# 3 -0.000007 -0.003584 0.010209 0.000000 0.000000 0.000000
# 4 0.000000 0.000000 0.000000 -0.077950 0.000000 0.000000
# 5 0.000000 0.000000 0.000000 0.000000 -0.040621 0.000000
# 6 0.000000 0.000000 0.000000 0.000000 0.000000 -0.085422
#
#
# Mechanical properties :
#
#
# Convention : Reuss Voigt Hill
#
# Bulk Modulus (GPa) = 17.37435 39.46335 28.41885
# Shear Modulus (GPa) = -56.79586 2.62614 -27.08486
#
# Velocity S-wave (km/s) = -5.38141 1.15717 -3.71622
# Velocity P-wave (km/s) = 5.45470 4.68052 1.98072
#
# Compressibility (1/GPa) = 0.05755610
#
# Stress axis : x y z
#
# Youngs Moduli (GPa) = 17.83188 91.93983 97.95427
#
# Poissons Ratio (x) = 0.57127 0.00069
# Poissons Ratio (y) = 0.11080 0.35106
# Poissons Ratio (z) = 0.00012 0.32950
#
# Static dielectric constant tensor:
#      x y z
#    x 1.739420 0.000000 0.000000 
#    y 0.000000 1.678690 0.000000 
#    z 0.000000 0.000000 1.675750 
# 
# From -- ./inp_files/38484.got.cif
#   From: 2010.05.17/outbox.cif.g08.bks.cpg/sg67_20_cif.got.tgz:38484.got - 2010.06.03 18:28:57.
