data_PCOD9503232
_publ_section_title
;
Structure prediction by ZEFSAII (Michael W. Deem and Ramdas Pophale) SiO2 
 PCOD9503232
Probable space group: C M M A
;
_chemical_formula_sum "Si O2"
_cell_formula_units_Z 112
_cell_length_a 15.166321
_cell_length_b 15.068896
_cell_length_c 22.797306
_cell_angle_alpha 90.000000
_cell_angle_beta 90.000000
_cell_angle_gamma 90.000000
_cell_volume 5210.089790
_symmetry_space_group_name_H-M "C M M A"
_symmetry_group_IT_number 67
_symmetry_cell_setting 'orthorhombic'
loop_
_space_group_symop_operation_xyz
x,y,z
-x,1/2-y,z
x,-y,-z
-x,1/2+y,-z
-x,-y,-z
x,1/2+y,-z
-x,y,z
x,1/2-y,z
1/2+x,1/2+y,z
1/2-x,-y,z
1/2+x,1/2-y,-z
1/2-x,y,-z
1/2-x,1/2-y,-z
1/2+x,y,-z
1/2-x,1/2+y,z
1/2+x,-y,z
loop_
_atom_site_type_symbol
_atom_site_label
_atom_site_fract_x
_atom_site_fract_y
_atom_site_fract_z
Si Si1 0.900115 0.650885 0.383519
Si Si2 0.602980 0.858486 0.027582
Si Si3 0.901358 0.645618 0.193507
Si Si4 0.854311 0.899958 0.508737
Si Si5 0.718526 0.142192 0.085692
Si Si6 0.843510 0.521236 0.294433
Si Si7 0.895843 0.654462 0.641044
O O1 0.884742 0.750000 0.361326
O O2 0.892805 0.651821 0.453516
O O3 0.835307 0.580925 0.353584
O O4 0.000000 0.623019 0.368416
O O5 0.500000 0.888030 0.033743
O O6 0.599566 0.750000 0.028802
O O7 0.679965 0.886590 0.074053
O O8 0.650799 0.884850 0.966355
O O9 0.888660 0.750000 0.209255
O O10 0.826938 0.619070 0.146842
O O11 0.896384 0.581922 0.249486
O O12 0.000000 0.639315 0.167232
O O13 0.750000 0.899288 0.500000
O O14 0.871875 0.866284 0.573704
O O15 0.887776 0.000000 0.500000
O O16 0.720445 0.250000 0.083006
O O17 0.750000 0.500000 0.266893
O O18 0.877158 0.426823 0.316161
O O19 0.855503 0.750000 0.658071
O O20 0.000000 0.662533 0.641350
#
# Coordination Sequence:
#
# PCOD9503232 Si02
#       7
#    16  16  16  16  16  16  16
#     4  11  23  39  62  89 115 147 189 239 296 359
#     4   8  12  20  39  73 122 173 211 246 295 356
#     4  10  20  36  60  88 119 157 204 260 314 360
#     4  11  22  36  57  88 120 150 182 228 295 363
#     4   8  14  24  43  78 121 164 210 253 295 354
#     4  12  25  40  59  83 112 150 196 247 305 361
#     4  11  24  41  61  84 112 150 193 238 294 361
#
# _framework density 21.496751
#
# number of rings (size 3 to 8) (size 9 to 14) (size 15 to 20)
#    0.000    1.857    1.429    4.714    0.000    8.000 
#    0.000    0.000    0.000    2.571    0.000    4.000 
#    0.000    5.714    0.000    2.571    0.000    4.857 
#
# Total GULP energy -312527.443397 kJ/mol
# GULP energy per Si atom -5580.847204 kJ/mol
# Density = 2.144782 g / cm^3
# Si number density = 21.496751 Si / 1000 Ang^3
#
#
#
# Elastic Constant Matrix: (Units=GPa)
#
#
# Indices 1 2 3 4 5 6 
#
# 1 136.2020 29.2461 46.9175 0.0000 0.0000 0.0000
# 2 29.2461 93.7422 43.6124 0.0000 0.0000 0.0000
# 3 46.9175 43.6124 103.4857 0.0000 0.0000 0.0000
# 4 0.0000 0.0000 0.0000 8.5293 0.0000 0.0000
# 5 0.0000 0.0000 0.0000 0.0000 26.0665 0.0000
# 6 0.0000 0.0000 0.0000 0.0000 0.0000 11.4294
#
#
#
# Elastic Compliance Matrix: (Units=1/GPa)
#
#
# Indices 1 2 3 4 5 6 
#
# 1 0.008792 -0.001105 -0.003520 0.000000 0.000000 0.000000
# 2 -0.001105 0.013408 -0.005150 0.000000 0.000000 0.000000
# 3 -0.003520 -0.005150 0.013429 0.000000 0.000000 0.000000
# 4 0.000000 0.000000 0.000000 0.117243 0.000000 0.000000
# 5 0.000000 0.000000 0.000000 0.000000 0.038363 0.000000
# 6 0.000000 0.000000 0.000000 0.000000 0.000000 0.087493
#
#
# Mechanical properties :
#
#
# Convention : Reuss Voigt Hill
#
# Bulk Modulus (GPa) = 62.19139 63.66464 62.92802
# Shear Modulus (GPa) = 16.46692 23.44864 19.95778
#
# Velocity S-wave (km/s) = 2.77071 3.30631 3.05029
# Velocity P-wave (km/s) = 6.26332 6.65250 6.46084
#
# Compressibility (1/GPa) = 0.01607940
#
# Stress axis : x y z
#
# Youngs Moduli (GPa) = 113.74002 74.58160 74.46364
#
# Poissons Ratio (x) = 0.08243 0.26213
# Poissons Ratio (y) = 0.12570 0.38346
# Poissons Ratio (z) = 0.40040 0.38406
#
# Static dielectric constant tensor:
#      x y z
#    x 1.814660 0.000000 0.000000 
#    y 0.000000 1.636230 0.000000 
#    z 0.000000 0.000000 1.826980 
# 
# From -- ./inp_files/42015.got.cif
#   From: 2010.05.17/outbox.cif.g08.bks.cpg/sg67_22_cif.got.tgz:42015.got - 2010.06.03 18:28:57.
