data_PCOD9503049
_publ_section_title
;
Structure prediction by ZEFSAII (Michael W. Deem and Ramdas Pophale) SiO2 
 PCOD9503049
Probable space group: C M M A
;
_chemical_formula_sum "Si O2"
_cell_formula_units_Z 112
_cell_length_a 22.527515
_cell_length_b 23.887636
_cell_length_c 10.965367
_cell_angle_alpha 90.000000
_cell_angle_beta 90.000000
_cell_angle_gamma 90.000000
_cell_volume 5900.782837
_symmetry_space_group_name_H-M "C M M A"
_symmetry_group_IT_number 67
_symmetry_cell_setting 'orthorhombic'
loop_
_space_group_symop_operation_xyz
x,y,z
-x,1/2-y,z
x,-y,-z
-x,1/2+y,-z
-x,-y,-z
x,1/2+y,-z
-x,y,z
x,1/2-y,z
1/2+x,1/2+y,z
1/2-x,-y,z
1/2+x,1/2-y,-z
1/2-x,y,-z
1/2-x,1/2-y,-z
1/2+x,y,-z
1/2-x,1/2+y,z
1/2+x,-y,z
loop_
_atom_site_type_symbol
_atom_site_label
_atom_site_fract_x
_atom_site_fract_y
_atom_site_fract_z
Si Si1 0.871493 0.910786 0.249019
Si Si2 0.931271 0.577076 0.997217
Si Si3 0.070843 0.683275 0.400778
Si Si4 0.875185 0.370628 0.360551
Si Si5 0.068462 0.021578 0.264915
Si Si6 0.747581 0.565272 0.353268
Si Si7 0.932768 0.811105 0.851111
O O1 0.885606 0.923920 0.108031
O O2 0.909542 0.857007 0.289669
O O3 0.803662 0.905087 0.290040
O O4 0.894135 0.968782 0.310655
O O5 0.000000 0.565688 0.035187
O O6 0.918759 0.539597 0.876757
O O7 0.929383 0.640212 0.948384
O O8 0.081281 0.750000 0.383157
O O9 0.110652 0.658776 0.511674
O O10 0.000000 0.676494 0.424726
O O11 0.919970 0.422678 0.341920
O O12 0.812467 0.400033 0.332458
O O13 0.888803 0.325196 0.257464
O O14 0.000000 0.006186 0.271626
O O15 0.750000 0.500000 0.311910
O O16 0.750000 0.564201 0.500000
O O17 0.922907 0.750000 0.903723
O O18 0.000000 0.813076 0.799516
#
# Coordination Sequence:
#
# PCOD9503049 Si02
#       7
#    16  16  16  16  16  16  16
#     4  12  22  38  60  85 120 162 198 239 302 358
#     4   9  19  35  58  90 126 157 192 243 300 361
#     4  11  24  39  58  89 123 153 194 250 304 356
#     4  11  20  38  60  85 117 156 199 249 298 349
#     4  10  20  35  60  92 121 150 192 247 308 364
#     4  11  23  42  59  82 118 162 200 244 291 352
#     4   9  18  35  62  91 119 156 197 242 298 354
#
# _framework density 18.980533000000001
#
# number of rings (size 3 to 8) (size 9 to 14) (size 15 to 20)
#    0.000    1.571    2.857    4.286    0.000    3.429 
#    0.000    7.857    0.000    0.857    0.000    0.000 
#    0.000    0.000    0.000    0.000    0.000    0.000 
#
# Total GULP energy -312279.297188 kJ/mol
# GULP energy per Si atom -5576.416021 kJ/mol
# Density = 1.893733 g / cm^3
# Si number density = 18.980533 Si / 1000 Ang^3
#
#
#
# Elastic Constant Matrix: (Units=GPa)
#
#
# Indices 1 2 3 4 5 6 
#
# 1 87.6568 37.3965 16.5835 0.0000 0.0000 0.0000
# 2 37.3965 122.2807 15.6821 0.0000 0.0000 0.0000
# 3 16.5835 15.6821 25.5201 0.0000 0.0000 0.0000
# 4 0.0000 0.0000 0.0000 2.6215 0.0000 0.0000
# 5 0.0000 0.0000 0.0000 0.0000 4.7705 0.0000
# 6 0.0000 0.0000 0.0000 0.0000 0.0000 21.5784
#
#
#
# Elastic Compliance Matrix: (Units=1/GPa)
#
#
# Indices 1 2 3 4 5 6 
#
# 1 0.014223 -0.003435 -0.007131 0.000000 0.000000 0.000000
# 2 -0.003435 0.009707 -0.003733 0.000000 0.000000 0.000000
# 3 -0.007131 -0.003733 0.046113 0.000000 0.000000 0.000000
# 4 0.000000 0.000000 0.000000 0.381456 0.000000 0.000000
# 5 0.000000 0.000000 0.000000 0.000000 0.209620 0.000000
# 6 0.000000 0.000000 0.000000 0.000000 0.000000 0.046343
#
#
# Mechanical properties :
#
#
# Convention : Reuss Voigt Hill
#
# Bulk Modulus (GPa) = 24.12893 41.64242 32.88567
# Shear Modulus (GPa) = 6.66778 16.84712 11.75745
#
# Velocity S-wave (km/s) = 1.87632 2.98249 2.49157
# Velocity P-wave (km/s) = 4.17542 5.81786 5.06368
#
# Compressibility (1/GPa) = 0.04144403
#
# Stress axis : x y z
#
# Youngs Moduli (GPa) = 70.30959 103.01663 21.68596
#
# Poissons Ratio (x) = 0.35387 0.15465
# Poissons Ratio (y) = 0.24152 0.08095
# Poissons Ratio (z) = 0.50141 0.38454
#
# Static dielectric constant tensor:
#      x y z
#    x 1.675890 0.000000 0.000000 
#    y 0.000000 1.673320 0.000000 
#    z 0.000000 0.000000 1.682700 
# 
# From -- ./inp_files/21084.got.cif
#   From: 2010.05.17/outbox.cif.g08.bks.cpg/sg67_11_cif.got.tgz:21084.got - 2010.06.03 18:28:57.
