data_PCOD9503636
_publ_section_title
;
Structure prediction by ZEFSAII (Michael W. Deem and Ramdas Pophale) SiO2 
 PCOD9503636
Probable space group: C M M A
;
_chemical_formula_sum "Si O2"
_cell_formula_units_Z 112
_cell_length_a 15.786003
_cell_length_b 10.839883
_cell_length_c 35.260125
_cell_angle_alpha 90.000000
_cell_angle_beta 90.000000
_cell_angle_gamma 90.000000
_cell_volume 6033.657075
_symmetry_space_group_name_H-M "C M M A"
_symmetry_group_IT_number 67
_symmetry_cell_setting 'orthorhombic'
loop_
_space_group_symop_operation_xyz
x,y,z
-x,1/2-y,z
x,-y,-z
-x,1/2+y,-z
-x,-y,-z
x,1/2+y,-z
-x,y,z
x,1/2-y,z
1/2+x,1/2+y,z
1/2-x,-y,z
1/2+x,1/2-y,-z
1/2-x,y,-z
1/2-x,1/2-y,-z
1/2+x,y,-z
1/2-x,1/2+y,z
1/2+x,-y,z
loop_
_atom_site_type_symbol
_atom_site_label
_atom_site_fract_x
_atom_site_fract_y
_atom_site_fract_z
Si Si1 0.602060 0.613964 0.311069
Si Si2 0.397908 0.613556 0.474736
Si Si3 0.595189 0.897806 0.899178
Si Si4 0.320084 0.895245 0.819923
Si Si5 0.898478 0.385195 0.738024
Si Si6 0.315826 0.110858 0.607193
Si Si7 0.842512 0.612893 0.020284
O O1 0.500000 0.612897 0.309077
O O2 0.630858 0.750000 0.297615
O O3 0.635086 0.500372 0.286068
O O4 0.628964 0.600811 0.354703
O O5 0.365743 0.500000 0.500000
O O6 0.500000 0.611740 0.476175
O O7 0.369893 0.750000 0.488289
O O8 0.369742 0.600515 0.431267
O O9 0.500000 0.947025 0.905795
O O10 0.588597 0.750000 0.897186
O O11 0.631435 0.933266 0.858410
O O12 0.655802 0.920531 0.935188
O O13 0.291767 0.750000 0.824107
O O14 0.377289 0.897818 0.782330
O O15 0.250000 0.000000 0.814248
O O16 0.866476 0.250000 0.725225
O O17 0.000000 0.384485 0.733852
O O18 0.277843 0.250000 0.607291
O O19 0.250000 0.000000 0.607481
O O20 0.880314 0.750000 0.016488
O O21 0.888712 0.500000 0.000000
O O22 0.750000 0.620137 0.000000
#
# Coordination Sequence:
#
# PCOD9503636 Si02
#       7
#    16  16  16  16  16  16  16
#     4   9  18  34  56  78 101 135 176 215 258 308
#     4   9  18  34  55  76  99 131 173 219 263 309
#     4   9  18  34  55  76 100 136 178 212 247 299
#     4  10  21  35  54  78 104 136 172 210 253 304
#     4   9  18  34  55  78 103 132 170 214 255 298
#     4  10  21  35  51  74 105 139 173 212 259 312
#     4   9  18  31  50  75 102 132 165 205 251 298
#
# _framework density 18.562539000000001
#
# number of rings (size 3 to 8) (size 9 to 14) (size 15 to 20)
#    0.000    2.714    0.000    0.857    2.000    6.286 
#    0.000    4.286    0.000    6.429    0.000    0.000 
#    0.000    0.000    0.000    0.000    0.000    0.000 
#
# Total GULP energy -311758.292703 kJ/mol
# GULP energy per Si atom -5567.112370 kJ/mol
# Density = 1.852029 g / cm^3
# Si number density = 18.562539 Si / 1000 Ang^3
#
#
#
# Elastic Constant Matrix: (Units=GPa)
#
#
# Indices 1 2 3 4 5 6 
#
# 1 23.2882 24.7291 5.5029 0.0000 0.0000 0.0000
# 2 24.7291 153.6764 78.5642 0.0000 0.0000 0.0000
# 3 5.5029 78.5642 110.3653 0.0000 0.0000 0.0000
# 4 0.0000 0.0000 0.0000 30.7299 0.0000 0.0000
# 5 0.0000 0.0000 0.0000 0.0000 28.6638 0.0000
# 6 0.0000 0.0000 0.0000 0.0000 0.0000 -1.6978
#
#
#
# Elastic Compliance Matrix: (Units=1/GPa)
#
#
# Indices 1 2 3 4 5 6 
#
# 1 0.053813 -0.011457 0.005473 0.000000 0.000000 0.000000
# 2 -0.011457 0.012670 -0.008448 0.000000 0.000000 0.000000
# 3 0.005473 -0.008448 0.014801 0.000000 0.000000 0.000000
# 4 0.000000 0.000000 0.000000 0.032542 0.000000 0.000000
# 5 0.000000 0.000000 0.000000 0.000000 0.034887 0.000000
# 6 0.000000 0.000000 0.000000 0.000000 0.000000 -0.589013
#
#
# Mechanical properties :
#
#
# Convention : Reuss Voigt Hill
#
# Bulk Modulus (GPa) = 19.07667 56.10246 37.58957
# Shear Modulus (GPa) = -12.69157 23.44142 5.37492
#
# Velocity S-wave (km/s) = -2.61764 3.55749 1.70348
# Velocity P-wave (km/s) = 1.07853 6.86756 4.91562
#
# Compressibility (1/GPa) = 0.05242005
#
# Stress axis : x y z
#
# Youngs Moduli (GPa) = 18.58274 78.92933 67.56097
#
# Poissons Ratio (x) = 0.90432 -0.36975
# Poissons Ratio (y) = 0.21291 0.57073
# Poissons Ratio (z) = -0.10170 0.66677
#
# Static dielectric constant tensor:
#      x y z
#    x 1.746660 0.000000 0.000000 
#    y 0.000000 1.685760 0.000000 
#    z 0.000000 0.000000 1.629280 
# 
# From -- ./inp_files/45554.got.cif
#   From: 2010.05.17/outbox.cif.g08.bks.cpg/sg67_23_cif.got.tgz:45554.got - 2010.06.03 18:28:57.
