data_PCOD9503251
_publ_section_title
;
Structure prediction by ZEFSAII (Michael W. Deem and Ramdas Pophale) SiO2 
 PCOD9503251
Probable space group: C M M A
;
_chemical_formula_sum "Si O2"
_cell_formula_units_Z 64
_cell_length_a 18.580250
_cell_length_b 7.700773
_cell_length_c 23.996628
_cell_angle_alpha 90.000000
_cell_angle_beta 90.000000
_cell_angle_gamma 90.000000
_cell_volume 3433.492427
_symmetry_space_group_name_H-M "C M M A"
_symmetry_group_IT_number 67
_symmetry_cell_setting 'orthorhombic'
loop_
_space_group_symop_operation_xyz
x,y,z
-x,1/2-y,z
x,-y,-z
-x,1/2+y,-z
-x,-y,-z
x,1/2+y,-z
-x,y,z
x,1/2-y,z
1/2+x,1/2+y,z
1/2-x,-y,z
1/2+x,1/2-y,-z
1/2-x,y,-z
1/2-x,1/2-y,-z
1/2+x,y,-z
1/2-x,1/2+y,z
1/2+x,-y,z
loop_
_atom_site_type_symbol
_atom_site_label
_atom_site_fract_x
_atom_site_fract_y
_atom_site_fract_z
Si Si1 0.416681 0.957452 0.563516
Si Si2 0.084928 0.750000 0.131518
Si Si3 0.833433 0.053261 0.328317
Si Si4 0.085167 0.250000 0.735902
Si Si5 0.334393 0.454816 0.935679
O O1 0.500000 0.014076 0.571227
O O2 0.414129 0.750000 0.571100
O O3 0.396420 0.000000 0.500000
O O4 0.365753 0.040545 0.609467
O O5 0.095849 0.750000 0.197850
O O6 0.120622 0.580317 0.104039
O O7 0.000000 0.750000 0.120310
O O8 0.840511 0.250000 0.307804
O O9 0.750000 0.000000 0.328751
O O10 0.878027 0.917969 0.291371
O O11 0.000000 0.250000 0.723523
O O12 0.345522 0.250000 0.926120
O O13 0.250000 0.500000 0.928359
O O14 0.352148 0.500000 0.000000
#
# Coordination Sequence:
#
# PCOD9503251 Si02
#       5
#    16   8  16   8  16
#     4  10  20  36  60  93 129 166 210 256 314 391
#     4  11  26  43  63  99 133 166 217 269 317 377
#     4  12  24  43  67  94 127 166 214 269 326 377
#     4  11  26  48  67  90 131 173 215 264 319 391
#     4  11  20  40  68  97 132 174 217 258 317 385
#
# _framework density 18.639911999999999
#
# number of rings (size 3 to 8) (size 9 to 14) (size 15 to 20)
#    0.000    1.000    5.000    2.250    0.000    6.500 
#    0.000    5.000    0.000    0.000    0.000    0.000 
#    0.000    0.000    0.000    0.000    0.000    0.000 
#
# Total GULP energy -178941.797172 kJ/mol
# GULP energy per Si atom -5591.931162 kJ/mol
# Density = 1.859749 g / cm^3
# Si number density = 18.639912 Si / 1000 Ang^3
#
#
#
# Elastic Constant Matrix: (Units=GPa)
#
#
# Indices 1 2 3 4 5 6 
#
# 1 128.1794 76.9153 97.4120 0.0000 0.0000 0.0000
# 2 76.9153 196.0897 71.2095 0.0000 0.0000 0.0000
# 3 97.4120 71.2095 110.6523 0.0000 0.0000 0.0000
# 4 0.0000 0.0000 0.0000 22.2455 0.0000 0.0000
# 5 0.0000 0.0000 0.0000 0.0000 70.6524 0.0000
# 6 0.0000 0.0000 0.0000 0.0000 0.0000 27.6198
#
#
#
# Elastic Compliance Matrix: (Units=1/GPa)
#
#
# Indices 1 2 3 4 5 6 
#
# 1 0.024345 -0.002305 -0.019949 0.000000 0.000000 0.000000
# 2 -0.002305 0.006873 -0.002394 0.000000 0.000000 0.000000
# 3 -0.019949 -0.002394 0.028140 0.000000 0.000000 0.000000
# 4 0.000000 0.000000 0.000000 0.044953 0.000000 0.000000
# 5 0.000000 0.000000 0.000000 0.000000 0.014154 0.000000
# 6 0.000000 0.000000 0.000000 0.000000 0.000000 0.036206
#
#
# Mechanical properties :
#
#
# Convention : Reuss Voigt Hill
#
# Bulk Modulus (GPa) = 99.37807 102.88833 101.13320
# Shear Modulus (GPa) = 24.11735 36.72918 30.42326
#
# Velocity S-wave (km/s) = 3.60092 4.44380 4.04438
# Velocity P-wave (km/s) = 8.40947 9.03590 8.72831
#
# Compressibility (1/GPa) = 0.01006258
#
# Stress axis : x y z
#
# Youngs Moduli (GPa) = 41.07641 145.49261 35.53713
#
# Poissons Ratio (x) = 0.33535 0.70891
# Poissons Ratio (y) = 0.09468 0.08508
# Poissons Ratio (z) = 0.81941 0.34832
#
# Static dielectric constant tensor:
#      x y z
#    x 1.618280 0.000000 0.000000 
#    y 0.000000 1.628810 0.000000 
#    z 0.000000 0.000000 1.623320 
# 
# From -- ./inp_files/40413.got.cif
#   From: 2010.05.17/outbox.cif.g08.bks.cpg/sg67_21_cif.got.tgz:40413.got - 2010.06.03 18:28:57.
