data_PCOD9503040
_publ_section_title
;
Structure prediction by ZEFSAII (Michael W. Deem and Ramdas Pophale) SiO2 
 PCOD9503040
Probable space group: C M M A
;
_chemical_formula_sum "Si O2"
_cell_formula_units_Z 112
_cell_length_a 29.014098
_cell_length_b 14.793618
_cell_length_c 12.049006
_cell_angle_alpha 90.000000
_cell_angle_beta 90.000000
_cell_angle_gamma 90.000000
_cell_volume 5171.716315
_symmetry_space_group_name_H-M "C M M A"
_symmetry_group_IT_number 67
_symmetry_cell_setting 'orthorhombic'
loop_
_space_group_symop_operation_xyz
x,y,z
-x,1/2-y,z
x,-y,-z
-x,1/2+y,-z
-x,-y,-z
x,1/2+y,-z
-x,y,z
x,1/2-y,z
1/2+x,1/2+y,z
1/2-x,-y,z
1/2+x,1/2-y,-z
1/2-x,y,-z
1/2-x,1/2-y,-z
1/2+x,y,-z
1/2-x,1/2+y,z
1/2+x,-y,z
loop_
_atom_site_type_symbol
_atom_site_label
_atom_site_fract_x
_atom_site_fract_y
_atom_site_fract_z
Si Si1 0.294864 0.359662 0.432004
Si Si2 0.875244 0.402674 0.967552
Si Si3 0.637509 0.359131 0.616218
Si Si4 0.447800 0.519454 0.368820
Si Si5 0.054592 0.151031 0.785410
Si Si6 0.788995 0.639871 0.172540
Si Si7 0.312274 0.355758 0.831774
O O1 0.294036 0.250000 0.436528
O O2 0.250000 0.390842 0.500000
O O3 0.340586 0.387723 0.498658
O O4 0.292436 0.381241 0.302929
O O5 0.914095 0.354456 0.895055
O O6 0.830264 0.409513 0.889465
O O7 0.894089 0.500000 0.000000
O O8 0.853078 0.362537 0.079260
O O9 0.634882 0.250000 0.618148
O O10 0.588794 0.401748 0.644954
O O11 0.671950 0.391802 0.713075
O O12 0.448517 0.500000 0.500000
O O13 0.500000 0.543941 0.335191
O O14 0.434275 0.430701 0.298022
O O15 0.062884 0.250000 0.732802
O O16 0.000000 0.144992 0.811224
O O17 0.795567 0.750000 0.155351
O O18 0.738122 0.611377 0.132464
O O19 0.303500 0.250000 0.812091
#
# Coordination Sequence:
#
# PCOD9503040 Si02
#       7
#    16  16  16  16  16  16  16
#     4   9  16  32  59  93 128 172 222 266 316 382
#     4  12  25  39  60  91 128 166 210 271 331 394
#     4  10  20  36  63  95 133 177 217 264 329 402
#     4  10  23  42  63  92 132 168 209 274 340 398
#     4  10  23  46  73  97 123 167 229 286 339 405
#     4  10  20  35  59  89 125 170 220 265 314 385
#     4  10  20  37  58  85 125 170 215 261 314 381
#
# _framework density 21.656253
#
# number of rings (size 3 to 8) (size 9 to 14) (size 15 to 20)
#    0.000    1.857    1.429    2.571    2.000    3.429 
#    0.000    2.143    0.000    1.286    0.000    0.000 
#    0.000    0.571    0.000    0.000    0.000    0.000 
#
# Total GULP energy -312885.600809 kJ/mol
# GULP energy per Si atom -5587.242872 kJ/mol
# Density = 2.160696 g / cm^3
# Si number density = 21.656253 Si / 1000 Ang^3
#
#
#
# Elastic Constant Matrix: (Units=GPa)
#
#
# Indices 1 2 3 4 5 6 
#
# 1 79.2945 31.8041 16.4018 0.0000 0.0000 0.0000
# 2 31.8041 66.2193 6.2210 0.0000 0.0000 0.0000
# 3 16.4018 6.2210 73.2965 0.0000 0.0000 0.0000
# 4 0.0000 0.0000 0.0000 23.8353 0.0000 0.0000
# 5 0.0000 0.0000 0.0000 0.0000 40.1895 0.0000
# 6 0.0000 0.0000 0.0000 0.0000 0.0000 25.7408
#
#
#
# Elastic Compliance Matrix: (Units=1/GPa)
#
#
# Indices 1 2 3 4 5 6 
#
# 1 0.016248 -0.007522 -0.002997 0.000000 0.000000 0.000000
# 2 -0.007522 0.018705 0.000096 0.000000 0.000000 0.000000
# 3 -0.002997 0.000096 0.014306 0.000000 0.000000 0.000000
# 4 0.000000 0.000000 0.000000 0.041955 0.000000 0.000000
# 5 0.000000 0.000000 0.000000 0.000000 0.024882 0.000000
# 6 0.000000 0.000000 0.000000 0.000000 0.000000 0.038849
#
#
# Mechanical properties :
#
#
# Convention : Reuss Voigt Hill
#
# Bulk Modulus (GPa) = 35.19731 36.40712 35.80222
# Shear Modulus (GPa) = 26.98861 28.91200 27.95030
#
# Velocity S-wave (km/s) = 3.53402 3.65779 3.59644
# Velocity P-wave (km/s) = 5.73938 5.88957 5.81496
#
# Compressibility (1/GPa) = 0.02841126
#
# Stress axis : x y z
#
# Youngs Moduli (GPa) = 61.54488 53.46127 69.90144
#
# Poissons Ratio (x) = 0.40215 0.20953
# Poissons Ratio (y) = 0.46295 -0.00669
# Poissons Ratio (z) = 0.18448 -0.00512
#
# Static dielectric constant tensor:
#      x y z
#    x 1.778530 0.000000 0.000000 
#    y 0.000000 1.817070 0.000000 
#    z 0.000000 0.000000 1.771550 
# 
# From -- ./inp_files/18563.got.cif
#   From: 2010.05.17/outbox.cif.g08.bks.cpg/sg67_10_cif.got.tgz:18563.got - 2010.06.03 18:28:57.
