data_PCOD9503853
_publ_section_title
;
Structure prediction by ZEFSAII (Michael W. Deem and Ramdas Pophale) SiO2 
 PCOD9503853
Probable space group: C M M A
;
_chemical_formula_sum "Si O2"
_cell_formula_units_Z 96
_cell_length_a 20.501398
_cell_length_b 8.586463
_cell_length_c 31.005931
_cell_angle_alpha 90.000000
_cell_angle_beta 90.000000
_cell_angle_gamma 90.000000
_cell_volume 5458.113417
_symmetry_space_group_name_H-M "C M M A"
_symmetry_group_IT_number 67
_symmetry_cell_setting 'orthorhombic'
loop_
_space_group_symop_operation_xyz
x,y,z
-x,1/2-y,z
x,-y,-z
-x,1/2+y,-z
-x,-y,-z
x,1/2+y,-z
-x,y,z
x,1/2-y,z
1/2+x,1/2+y,z
1/2-x,-y,z
1/2+x,1/2-y,-z
1/2-x,y,-z
1/2-x,1/2-y,-z
1/2+x,y,-z
1/2-x,1/2+y,z
1/2+x,-y,z
loop_
_atom_site_type_symbol
_atom_site_label
_atom_site_fract_x
_atom_site_fract_y
_atom_site_fract_z
Si Si1 0.075194 0.938174 0.289193
Si Si2 0.424342 0.936418 0.384093
Si Si3 0.074997 0.938183 0.047153
Si Si4 0.821483 0.435502 0.547784
Si Si5 0.178088 0.938252 0.118692
Si Si6 0.178143 0.061892 0.782692
O O1 0.078397 0.750000 0.292298
O O2 0.124363 0.989649 0.251783
O O3 0.000000 0.980158 0.279368
O O4 0.092076 0.008463 0.335706
O O5 0.500000 0.982024 0.392142
O O6 0.420069 0.750000 0.386511
O O7 0.375672 0.010227 0.418473
O O8 0.076150 0.750000 0.046161
O O9 0.124227 0.991058 0.084382
O O10 0.000000 0.986776 0.055472
O O11 0.093850 0.000000 0.000000
O O12 0.836254 0.500000 0.500000
O O13 0.818471 0.250000 0.545967
O O14 0.750000 0.500000 0.560024
O O15 0.179554 0.750000 0.117964
O O16 0.163067 0.986771 0.168014
O O17 0.250000 0.000000 0.107859
O O18 0.179675 0.250000 0.782097
O O19 0.250000 0.000000 0.771820
#
# Coordination Sequence:
#
# PCOD9503853 Si02
#       6
#    16  16  16  16  16  16
#     4   9  18  33  52  74 100 131 168 209 252 298
#     4  10  21  37  56  79 108 141 177 216 258 305
#     4   9  18  32  49  69  94 124 159 199 242 289
#     4  11  22  38  59  82 110 141 176 217 261 309
#     4   9  18  32  49  70  96 126 160 199 244 293
#     4   9  18  32  50  72  98 128 162 202 247 296
#
# _framework density 17.588494000000001
#
# number of rings (size 3 to 8) (size 9 to 14) (size 15 to 20)
#    0.000    2.500    0.000    2.500    0.000    4.333 
#    0.000    6.667    0.000    0.000    0.000    9.333 
#    0.000    0.000    0.000    0.000    0.000    0.000 
#
# Total GULP energy -267796.682356 kJ/mol
# GULP energy per Si atom -5579.097549 kJ/mol
# Density = 1.754846 g / cm^3
# Si number density = 17.588494 Si / 1000 Ang^3
#
#
#
# Elastic Constant Matrix: (Units=GPa)
#
#
# Indices 1 2 3 4 5 6 
#
# 1 137.5061 40.4182 133.7141 0.0000 0.0000 0.0000
# 2 40.4182 39.1564 43.0986 0.0000 0.0000 0.0000
# 3 133.7141 43.0986 152.5584 0.0000 0.0000 0.0000
# 4 0.0000 0.0000 0.0000 27.2625 0.0000 0.0000
# 5 0.0000 0.0000 0.0000 0.0000 44.6779 0.0000
# 6 0.0000 0.0000 0.0000 0.0000 0.0000 27.8651
#
#
#
# Elastic Compliance Matrix: (Units=1/GPa)
#
#
# Indices 1 2 3 4 5 6 
#
# 1 0.049876 -0.004886 -0.042335 0.000000 0.000000 0.000000
# 2 -0.004886 0.037542 -0.006323 0.000000 0.000000 0.000000
# 3 -0.042335 -0.006323 0.045447 0.000000 0.000000 0.000000
# 4 0.000000 0.000000 0.000000 0.036680 0.000000 0.000000
# 5 0.000000 0.000000 0.000000 0.000000 0.022382 0.000000
# 6 0.000000 0.000000 0.000000 0.000000 0.000000 0.035887
#
#
# Mechanical properties :
#
#
# Convention : Reuss Voigt Hill
#
# Bulk Modulus (GPa) = 38.79523 84.85364 61.82443
# Shear Modulus (GPa) = 14.55619 27.42708 20.99164
#
# Velocity S-wave (km/s) = 2.87992 3.95318 3.45844
# Velocity P-wave (km/s) = 5.75879 8.31778 7.15364
#
# Compressibility (1/GPa) = 0.02577637
#
# Stress axis : x y z
#
# Youngs Moduli (GPa) = 20.04962 26.63678 22.00365
#
# Poissons Ratio (x) = 0.13015 0.93153
# Poissons Ratio (y) = 0.09796 0.13914
# Poissons Ratio (z) = 0.84880 0.16843
#
# Static dielectric constant tensor:
#      x y z
#    x 1.581170 0.000000 0.000000 
#    y 0.000000 1.600620 0.000000 
#    z 0.000000 0.000000 1.578670 
# 
# From -- ./inp_files/43434.got.cif
#   From: 2010.05.17/outbox.cif.g08.bks.cpg/sg67_22_cif.got.tgz:43434.got - 2010.06.03 18:28:57.
