data_PCOD9503697
_publ_section_title
;
Structure prediction by ZEFSAII (Michael W. Deem and Ramdas Pophale) SiO2 
 PCOD9503697
Probable space group: C M M A
;
_chemical_formula_sum "Si O2"
_cell_formula_units_Z 80
_cell_length_a 26.266408
_cell_length_b 14.268039
_cell_length_c 9.824873
_cell_angle_alpha 90.000000
_cell_angle_beta 90.000000
_cell_angle_gamma 90.000000
_cell_volume 3682.068968
_symmetry_space_group_name_H-M "C M M A"
_symmetry_group_IT_number 67
_symmetry_cell_setting 'orthorhombic'
loop_
_space_group_symop_operation_xyz
x,y,z
-x,1/2-y,z
x,-y,-z
-x,1/2+y,-z
-x,-y,-z
x,1/2+y,-z
-x,y,z
x,1/2-y,z
1/2+x,1/2+y,z
1/2-x,-y,z
1/2+x,1/2-y,-z
1/2-x,y,-z
1/2-x,1/2-y,-z
1/2+x,y,-z
1/2-x,1/2+y,z
1/2+x,-y,z
loop_
_atom_site_type_symbol
_atom_site_label
_atom_site_fract_x
_atom_site_fract_y
_atom_site_fract_z
Si Si1 0.000000 0.135330 0.598384
Si Si2 0.797616 0.099055 0.423343
Si Si3 0.086292 0.642104 0.603003
Si Si4 0.092828 0.135592 0.093831
Si Si5 0.292025 0.136211 0.888881
Si Si6 0.000000 0.135431 0.905691
O O1 0.950221 0.105311 0.514342
O O2 0.000000 0.100794 0.751989
O O3 0.000000 0.250000 0.607837
O O4 0.750000 0.146233 0.500000
O O5 0.854023 0.141379 0.433110
O O6 0.785264 0.095103 0.262579
O O7 0.802456 0.000000 0.500000
O O8 0.070250 0.750000 0.618824
O O9 0.080904 0.599750 0.753692
O O10 0.091871 0.250000 0.098306
O O11 0.151159 0.110924 0.061740
O O12 0.050512 0.106886 0.986675
O O13 0.290126 0.250000 0.872360
O O14 0.250000 0.110152 0.000000
O O15 0.000000 0.250000 0.904039
#
# Coordination Sequence:
#
# PCOD9503697 Si02
#       6
#     8  16  16  16  16   8
#     4   9  17  27  44  75 107 132 165 217 275 322
#     4  10  21  36  52  75 107 144 183 221 268 330
#     4   9  17  31  51  74 101 134 173 217 268 323
#     4   8  14  25  42  66  97 130 161 200 256 317
#     4   9  18  33  55  82 106 132 176 231 280 322
#     4   9  15  23  39  67 100 126 154 201 260 314
#
# _framework density 21.726915000000002
#
# number of rings (size 3 to 8) (size 9 to 14) (size 15 to 20)
#    0.000    3.000    0.000    2.400    0.000    5.600 
#    0.000    6.500    0.000    0.000    0.000    5.600 
#    0.000    0.000    0.000    0.000    0.000    0.000 
#
# Total GULP energy -223228.404604 kJ/mol
# GULP energy per Si atom -5580.710115 kJ/mol
# Density = 2.167746 g / cm^3
# Si number density = 21.726915 Si / 1000 Ang^3
#
#
#
# Elastic Constant Matrix: (Units=GPa)
#
#
# Indices 1 2 3 4 5 6 
#
# 1 202.6276 1.9907 159.2734 0.0000 0.0000 0.0000
# 2 1.9907 73.4862 21.5999 0.0000 0.0000 0.0000
# 3 159.2734 21.5999 207.7605 0.0000 0.0000 0.0000
# 4 0.0000 0.0000 0.0000 11.5026 0.0000 0.0000
# 5 0.0000 0.0000 0.0000 0.0000 39.4702 0.0000
# 6 0.0000 0.0000 0.0000 0.0000 0.0000 -7.0576
#
#
#
# Elastic Compliance Matrix: (Units=1/GPa)
#
#
# Indices 1 2 3 4 5 6 
#
# 1 0.012896 0.002637 -0.010160 0.000000 0.000000 0.000000
# 2 0.002637 0.014576 -0.003537 0.000000 0.000000 0.000000
# 3 -0.010160 -0.003537 0.012970 0.000000 0.000000 0.000000
# 4 0.000000 0.000000 0.000000 0.086937 0.000000 0.000000
# 5 0.000000 0.000000 0.000000 0.000000 0.025336 0.000000
# 6 0.000000 0.000000 0.000000 0.000000 0.000000 -0.141692
#
#
# Mechanical properties :
#
#
# Convention : Reuss Voigt Hill
#
# Bulk Modulus (GPa) = 54.58088 94.40024 74.49056
# Shear Modulus (GPa) = 127.38821 28.85039 78.11930
#
# Velocity S-wave (km/s) = 7.66543 3.64794 6.00276
# Velocity P-wave (km/s) = 10.17452 7.82855 9.07764
#
# Compressibility (1/GPa) = 0.01832143
#
# Stress axis : x y z
#
# Youngs Moduli (GPa) = 77.54623 68.60489 77.10138
#
# Poissons Ratio (x) = -0.18092 0.78336
# Poissons Ratio (y) = -0.20449 0.27271
# Poissons Ratio (z) = 0.78788 0.24266
#
# Static dielectric constant tensor:
#      x y z
#    x 1.783260 0.000000 0.000000 
#    y 0.000000 1.845780 0.000000 
#    z 0.000000 0.000000 1.753560 
# 
# From -- ./inp_files/13565.got.cif
#   From: 2010.05.17/outbox.cif.g08.bks.cpg/sg67_7_cif.got.tgz:13565.got - 2010.06.03 18:28:57.
