data_PCOD9503024
_publ_section_title
;
Structure prediction by ZEFSAII (Michael W. Deem and Ramdas Pophale) SiO2 
 PCOD9503024
Probable space group: C M M A
;
_chemical_formula_sum "Si O2"
_cell_formula_units_Z 64
_cell_length_a 21.380939
_cell_length_b 15.118238
_cell_length_c 9.247946
_cell_angle_alpha 90.000000
_cell_angle_beta 90.000000
_cell_angle_gamma 90.000000
_cell_volume 2989.325712
_symmetry_space_group_name_H-M "C M M A"
_symmetry_group_IT_number 67
_symmetry_cell_setting 'orthorhombic'
loop_
_space_group_symop_operation_xyz
x,y,z
-x,1/2-y,z
x,-y,-z
-x,1/2+y,-z
-x,-y,-z
x,1/2+y,-z
-x,y,z
x,1/2-y,z
1/2+x,1/2+y,z
1/2-x,-y,z
1/2+x,1/2-y,-z
1/2-x,y,-z
1/2-x,1/2-y,-z
1/2+x,y,-z
1/2-x,1/2+y,z
1/2+x,-y,z
loop_
_atom_site_type_symbol
_atom_site_label
_atom_site_fract_x
_atom_site_fract_y
_atom_site_fract_z
Si Si1 0.810182 0.404082 0.427236
Si Si2 0.431293 0.854823 0.588230
Si Si3 0.071434 0.357956 0.914999
Si Si4 0.309478 0.142673 0.899072
O O1 0.811502 0.500000 0.500000
O O2 0.750000 0.357375 0.500000
O O3 0.877107 0.367187 0.473344
O O4 0.802648 0.401706 0.256400
O O5 0.500000 0.889337 0.545727
O O6 0.436918 0.750000 0.606478
O O7 0.415464 0.888704 0.749964
O O8 0.072777 0.250000 0.915910
O O9 0.000000 0.383817 0.952502
O O10 0.126408 0.385589 0.022247
O O11 0.311200 0.250000 0.877845
O O12 0.250000 0.123470 0.000000
#
# Coordination Sequence:
#
# PCOD9503024 Si02
#       4
#    16  16  16  16
#     4  11  24  39  53  78 117 157 194 231 286 353
#     4   9  18  35  60  86 112 147 192 241 290 340
#     4   8  15  30  53  81 109 135 173 229 286 335
#     4  10  20  35  59  86 109 142 192 246 292 334
#
# _framework density 21.409509
#
# number of rings (size 3 to 8) (size 9 to 14) (size 15 to 20)
#    0.000    2.500    0.000    3.750    0.000    5.500 
#    0.000   11.250    0.000    3.000    0.000    0.000 
#    0.000    0.000    0.000    0.000    0.000    0.000 
#
# Total GULP energy -178587.459454 kJ/mol
# GULP energy per Si atom -5580.858108 kJ/mol
# Density = 2.136078 g / cm^3
# Si number density = 21.409509 Si / 1000 Ang^3
#
#
#
# Elastic Constant Matrix: (Units=GPa)
#
#
# Indices 1 2 3 4 5 6 
#
# 1 157.3581 10.0766 111.9881 0.0000 0.0000 0.0000
# 2 10.0766 38.2837 26.8374 0.0000 0.0000 0.0000
# 3 111.9881 26.8374 180.6301 0.0000 0.0000 0.0000
# 4 0.0000 0.0000 0.0000 15.7804 0.0000 0.0000
# 5 0.0000 0.0000 0.0000 0.0000 32.7622 0.0000
# 6 0.0000 0.0000 0.0000 0.0000 0.0000 2.5052
#
#
#
# Elastic Compliance Matrix: (Units=1/GPa)
#
#
# Indices 1 2 3 4 5 6 
#
# 1 0.011538 0.002208 -0.007481 0.000000 0.000000 0.000000
# 2 0.002208 0.029580 -0.005764 0.000000 0.000000 0.000000
# 3 -0.007481 -0.005764 0.011031 0.000000 0.000000 0.000000
# 4 0.000000 0.000000 0.000000 0.063370 0.000000 0.000000
# 5 0.000000 0.000000 0.000000 0.000000 0.030523 0.000000
# 6 0.000000 0.000000 0.000000 0.000000 0.000000 0.399162
#
#
# Mechanical properties :
#
#
# Convention : Reuss Voigt Hill
#
# Bulk Modulus (GPa) = 33.25111 74.89735 54.07423
# Shear Modulus (GPa) = 8.66097 25.36755 17.01426
#
# Velocity S-wave (km/s) = 2.01350 3.44593 2.82211
# Velocity P-wave (km/s) = 4.57933 7.13385 5.99425
#
# Compressibility (1/GPa) = 0.03007419
#
# Stress axis : x y z
#
# Youngs Moduli (GPa) = 86.67149 33.80650 90.65523
#
# Poissons Ratio (x) = -0.07463 0.67822
# Poissons Ratio (y) = -0.19134 0.52250
# Poissons Ratio (z) = 0.64841 0.19485
#
# Static dielectric constant tensor:
#      x y z
#    x 1.775270 0.000000 0.000000 
#    y 0.000000 2.910130 0.000000 
#    z 0.000000 0.000000 1.739730 
# 
# From -- ./inp_files/7963.got.cif
#   From: 2010.05.17/outbox.cif.g08.bks.cpg/sg67_4_cif.got.tgz:7963.got - 2010.06.03 18:28:57.
