data_PCOD9503231
_publ_section_title
;
Structure prediction by ZEFSAII (Michael W. Deem and Ramdas Pophale) SiO2 
 PCOD9503231
Probable space group: C M M A
;
_chemical_formula_sum "Si O2"
_cell_formula_units_Z 88
_cell_length_a 15.971821
_cell_length_b 9.422501
_cell_length_c 30.350284
_cell_angle_alpha 90.000000
_cell_angle_beta 90.000000
_cell_angle_gamma 90.000000
_cell_volume 4567.550796
_symmetry_space_group_name_H-M "C M M A"
_symmetry_group_IT_number 67
_symmetry_cell_setting 'orthorhombic'
loop_
_space_group_symop_operation_xyz
x,y,z
-x,1/2-y,z
x,-y,-z
-x,1/2+y,-z
-x,-y,-z
x,1/2+y,-z
-x,y,z
x,1/2-y,z
1/2+x,1/2+y,z
1/2-x,-y,z
1/2+x,1/2-y,-z
1/2-x,y,-z
1/2-x,1/2-y,-z
1/2+x,y,-z
1/2-x,1/2+y,z
1/2+x,-y,z
loop_
_atom_site_type_symbol
_atom_site_label
_atom_site_fract_x
_atom_site_fract_y
_atom_site_fract_z
Si Si1 0.167587 0.080490 0.601727
Si Si2 0.397449 0.912801 0.956950
Si Si3 0.000000 0.419172 0.545966
Si Si4 0.097513 0.414775 0.318557
Si Si5 0.335924 0.919515 0.223914
Si Si6 0.600913 0.086703 0.872148
O O1 0.179616 0.250000 0.602477
O O2 0.084404 0.047658 0.573306
O O3 0.250000 0.000000 0.584577
O O4 0.149240 0.018943 0.650414
O O5 0.500000 0.913591 0.956744
O O6 0.370441 0.750000 0.959152
O O7 0.369346 0.988472 0.912018
O O8 0.371083 0.000000 0.000000
O O9 0.000000 0.500000 0.500000
O O10 0.000000 0.250000 0.538477
O O11 0.123699 0.250000 0.325600
O O12 0.107875 0.446900 0.266807
O O13 0.000000 0.426201 0.330178
O O14 0.323468 0.750000 0.222056
O O15 0.372379 0.961963 0.176448
O O16 0.250000 0.000000 0.231062
O O17 0.500000 0.087321 0.873161
O O18 0.628514 0.250000 0.878848
#
# Coordination Sequence:
#
# PCOD9503231 Si02
#       6
#    16  16   8  16  16  16
#     4  11  23  41  63  93 128 165 207 256 308 364
#     4   9  16  26  43  69  98 126 161 207 260 320
#     4  10  24  44  66  92 128 166 210 260 311 364
#     4  10  20  36  60  88 117 154 198 243 293 352
#     4  10  21  35  51  75 107 143 183 226 274 332
#     4   9  17  31  50  70  96 131 170 215 265 318
#
# _framework density 19.266342999999999
#
# number of rings (size 3 to 8) (size 9 to 14) (size 15 to 20)
#    0.000    2.182    0.909    2.182    0.000    9.091 
#    0.000    1.818    0.000    3.818    0.000    3.818 
#    0.000    0.000    0.000    0.000    0.000    0.000 
#
# Total GULP energy -245615.840366 kJ/mol
# GULP energy per Si atom -5582.178190 kJ/mol
# Density = 1.922249 g / cm^3
# Si number density = 19.266343 Si / 1000 Ang^3
#
#
#
# Elastic Constant Matrix: (Units=GPa)
#
#
# Indices 1 2 3 4 5 6 
#
# 1 75.4199 47.9540 41.4987 0.0000 0.0000 0.0000
# 2 47.9540 81.8846 69.5710 0.0000 0.0000 0.0000
# 3 41.4987 69.5710 132.4206 0.0000 0.0000 0.0000
# 4 0.0000 0.0000 0.0000 35.5103 0.0000 0.0000
# 5 0.0000 0.0000 0.0000 0.0000 -4.7982 0.0000
# 6 0.0000 0.0000 0.0000 0.0000 0.0000 24.3926
#
#
#
# Elastic Compliance Matrix: (Units=1/GPa)
#
#
# Indices 1 2 3 4 5 6 
#
# 1 0.021129 -0.012189 -0.000218 0.000000 0.000000 0.000000
# 2 -0.012189 0.029090 -0.011464 0.000000 0.000000 0.000000
# 3 -0.000218 -0.011464 0.013643 0.000000 0.000000 0.000000
# 4 0.000000 0.000000 0.000000 0.028161 0.000000 0.000000
# 5 0.000000 0.000000 0.000000 0.000000 -0.208411 0.000000
# 6 0.000000 0.000000 0.000000 0.000000 0.000000 0.040996
#
#
# Mechanical properties :
#
#
# Convention : Reuss Voigt Hill
#
# Bulk Modulus (GPa) = 62.02880 67.53027 64.77953
# Shear Modulus (GPa) = -224.42252 19.73436 -102.34408
#
# Velocity S-wave (km/s) = -10.80449 3.20393 -7.29630
# Velocity P-wave (km/s) = 11.10784 6.98669 6.10616
#
# Compressibility (1/GPa) = 0.01612154
#
# Stress axis : x y z
#
# Youngs Moduli (GPa) = 47.32876 34.37610 73.29946
#
# Poissons Ratio (x) = 0.41900 0.01597
# Poissons Ratio (y) = 0.57687 0.84027
# Poissons Ratio (z) = 0.01031 0.39407
#
# Static dielectric constant tensor:
#      x y z
#    x 1.678920 0.000000 0.000000 
#    y 0.000000 1.647630 0.000000 
#    z 0.000000 0.000000 1.665690 
# 
# From -- ./inp_files/45244.got.cif
#   From: 2010.05.17/outbox.cif.g08.bks.cpg/sg67_23_cif.got.tgz:45244.got - 2010.06.03 18:28:57.
