data_PCOD9503976
_publ_section_title
;
Structure prediction by ZEFSAII (Michael W. Deem and Ramdas Pophale) SiO2 
 PCOD9503976
Probable space group: C M M A
;
_chemical_formula_sum "Si O2"
_cell_formula_units_Z 60
_cell_length_a 21.741289
_cell_length_b 23.648766
_cell_length_c 4.990423
_cell_angle_alpha 90.000000
_cell_angle_beta 90.000000
_cell_angle_gamma 90.000000
_cell_volume 2565.849221
_symmetry_space_group_name_H-M "C M M A"
_symmetry_group_IT_number 67
_symmetry_cell_setting 'orthorhombic'
loop_
_space_group_symop_operation_xyz
x,y,z
-x,1/2-y,z
x,-y,-z
-x,1/2+y,-z
-x,-y,-z
x,1/2+y,-z
-x,y,z
x,1/2-y,z
1/2+x,1/2+y,z
1/2-x,-y,z
1/2+x,1/2-y,-z
1/2-x,y,-z
1/2-x,1/2-y,-z
1/2+x,y,-z
1/2-x,1/2+y,z
1/2+x,-y,z
loop_
_atom_site_type_symbol
_atom_site_label
_atom_site_fract_x
_atom_site_fract_y
_atom_site_fract_z
Si Si1 0.208709 0.835255 0.736751
Si Si2 0.639284 0.433113 0.483899
Si Si3 0.566283 0.931654 0.018970
Si Si4 0.903028 0.750000 0.785546
Si Si5 0.500000 0.750000 0.714747
O O1 0.250000 0.809603 0.500000
O O2 0.190933 0.896958 0.625475
O O3 0.144810 0.802568 0.781443
O O4 0.250000 0.836389 0.000000
O O5 0.652279 0.500000 0.500000
O O6 0.620167 0.415087 0.185480
O O7 0.580194 0.421361 0.672026
O O8 0.500000 0.907453 0.940501
O O9 0.563658 0.000000 0.000000
O O10 0.945953 0.750000 0.523114
O O11 0.945860 0.750000 0.047581
#
# Coordination Sequence:
#
# PCOD9503976 Si02
#       5
#    16  16  16   8   4
#     4  12  25  44  70 100 137 187 240 287 337 413
#     4  10  21  38  57  91 132 173 223 275 332 397
#     4   9  17  33  56  83 122 170 222 269 325 397
#     4  11  24  49  74 107 134 181 226 292 358 425
#     4  10  24  48  76 104 146 166 222 292 376 428
#
# _framework density 23.384069
#
# number of rings (size 3 to 8) (size 9 to 14) (size 15 to 20)
#    0.000    1.600    0.000    4.800    0.000    3.733 
#   14.400    1.333    0.000    0.000    0.000    0.000 
#    0.000    0.000    0.000    0.000    0.000    0.000 
#
# Total GULP energy -167158.087276 kJ/mol
# GULP energy per Si atom -5571.936243 kJ/mol
# Density = 2.333085 g / cm^3
# Si number density = 23.384069 Si / 1000 Ang^3
#
#
#
# Elastic Constant Matrix: (Units=GPa)
#
#
# Indices 1 2 3 4 5 6 
#
# 1 181.3694 60.3387 94.2168 0.0000 0.0000 0.0000
# 2 60.3387 95.8257 49.9924 0.0000 0.0000 0.0000
# 3 94.2168 49.9924 199.1791 0.0000 0.0000 0.0000
# 4 0.0000 0.0000 0.0000 35.5848 0.0000 0.0000
# 5 0.0000 0.0000 0.0000 0.0000 55.1691 0.0000
# 6 0.0000 0.0000 0.0000 0.0000 0.0000 56.3846
#
#
#
# Elastic Compliance Matrix: (Units=1/GPa)
#
#
# Indices 1 2 3 4 5 6 
#
# 1 0.008289 -0.003652 -0.003004 0.000000 0.000000 0.000000
# 2 -0.003652 0.013617 -0.001690 0.000000 0.000000 0.000000
# 3 -0.003004 -0.001690 0.006866 0.000000 0.000000 0.000000
# 4 0.000000 0.000000 0.000000 0.028102 0.000000 0.000000
# 5 0.000000 0.000000 0.000000 0.000000 0.018126 0.000000
# 6 0.000000 0.000000 0.000000 0.000000 0.000000 0.017735
#
#
# Mechanical properties :
#
#
# Convention : Reuss Voigt Hill
#
# Bulk Modulus (GPa) = 82.78936 98.38554 90.58745
# Shear Modulus (GPa) = 44.07015 47.54947 45.80981
#
# Velocity S-wave (km/s) = 4.34593 4.51423 4.43088
# Velocity P-wave (km/s) = 7.78870 8.32683 8.06226
#
# Compressibility (1/GPa) = 0.01207885
#
# Stress axis : x y z
#
# Youngs Moduli (GPa) = 120.63689 73.43729 145.64530
#
# Poissons Ratio (x) = 0.26820 0.43758
# Poissons Ratio (y) = 0.44059 0.24617
# Poissons Ratio (z) = 0.36244 0.12412
#
# Static dielectric constant tensor:
#      x y z
#    x 1.879150 0.000000 0.000000 
#    y 0.000000 1.979140 0.000000 
#    z 0.000000 0.000000 1.819990 
# 
# From -- ./inp_files/2753.got.cif
#   From: 2010.05.17/outbox.cif.g08.bks.cpg/sg67_2_cif.got.tgz:2753.got - 2010.06.03 18:28:57.
