data_PCOD9503649
_publ_section_title
;
Structure prediction by ZEFSAII (Michael W. Deem and Ramdas Pophale) SiO2 
 PCOD9503649
Probable space group: C M M A
;
_chemical_formula_sum "Si O2"
_cell_formula_units_Z 116
_cell_length_a 8.894046
_cell_length_b 29.899739
_cell_length_c 24.193910
_cell_angle_alpha 90.000000
_cell_angle_beta 90.000000
_cell_angle_gamma 90.000000
_cell_volume 6433.878117
_symmetry_space_group_name_H-M "C M M A"
_symmetry_group_IT_number 67
_symmetry_cell_setting 'orthorhombic'
loop_
_space_group_symop_operation_xyz
x,y,z
-x,1/2-y,z
x,-y,-z
-x,1/2+y,-z
-x,-y,-z
x,1/2+y,-z
-x,y,z
x,1/2-y,z
1/2+x,1/2+y,z
1/2-x,-y,z
1/2+x,1/2-y,-z
1/2-x,y,-z
1/2-x,1/2-y,-z
1/2+x,y,-z
1/2-x,1/2+y,z
1/2+x,-y,z
loop_
_atom_site_type_symbol
_atom_site_label
_atom_site_fract_x
_atom_site_fract_y
_atom_site_fract_z
Si Si1 0.180894 0.198621 0.723945
Si Si2 0.820646 0.633753 0.942311
Si Si3 0.331689 0.911926 0.554224
Si Si4 0.250000 0.500000 0.500000
Si Si5 0.678667 0.884403 0.332727
Si Si6 0.178021 0.803318 0.148436
Si Si7 0.819009 0.549045 0.113624
Si Si8 0.818791 0.048435 0.232602
O O1 0.225189 0.250000 0.713423
O O2 0.254013 0.163487 0.683046
O O3 0.220625 0.187610 0.787763
O O4 0.000000 0.196167 0.720429
O O5 0.773486 0.667841 0.893975
O O6 0.745535 0.586151 0.927433
O O7 0.000000 0.629653 0.945938
O O8 0.750000 0.649593 0.000000
O O9 0.500000 0.894948 0.559240
O O10 0.250000 0.892175 0.500000
O O11 0.334881 0.965007 0.539457
O O12 0.243895 0.902787 0.610129
O O13 0.500000 0.881732 0.336928
O O14 0.715079 0.917572 0.281903
O O15 0.195168 0.750000 0.139528
O O16 0.000000 0.813940 0.141838
O O17 0.750000 0.500000 0.102146
O O18 0.758974 0.561862 0.174904
O O19 0.000000 0.547575 0.112822
O O20 0.000000 0.045481 0.225040
O O21 0.750000 0.000000 0.246404
#
# Coordination Sequence:
#
# PCOD9503649 Si02
#       8
#    16  16  16   4  16  16  16  16
#     4   9  19  37  61  87 114 147 187 230 281 337
#     4  12  25  40  58  82 111 145 187 232 279 333
#     4  10  21  36  56  79 111 150 191 235 279 326
#     4   8  22  36  58  80 108 152 198 236 280 328
#     4  11  23  35  53  84 118 151 192 234 278 334
#     4   9  19  38  63  89 117 149 184 226 281 342
#     4  11  22  39  60  81 108 144 185 231 283 338
#     4  10  21  35  52  80 114 149 186 228 277 333
#
# _framework density 18.029561999999999
#
# number of rings (size 3 to 8) (size 9 to 14) (size 15 to 20)
#    0.414    1.379    0.000    6.414    0.966    6.069 
#    0.000    2.759    0.000    0.414    0.000    0.000 
#    0.000    0.000    0.000    0.000    0.000    0.000 
#
# Total GULP energy -323743.738831 kJ/mol
# GULP energy per Si atom -5581.788601 kJ/mol
# Density = 1.798853 g / cm^3
# Si number density = 18.029562 Si / 1000 Ang^3
#
#
#
# Elastic Constant Matrix: (Units=GPa)
#
#
# Indices 1 2 3 4 5 6 
#
# 1 87.9985 30.7202 33.1125 0.0000 0.0000 0.0000
# 2 30.7202 60.2053 49.1076 0.0000 0.0000 0.0000
# 3 33.1125 49.1076 70.3643 0.0000 0.0000 0.0000
# 4 0.0000 0.0000 0.0000 11.4364 0.0000 0.0000
# 5 0.0000 0.0000 0.0000 0.0000 27.3197 0.0000
# 6 0.0000 0.0000 0.0000 0.0000 0.0000 22.3841
#
#
#
# Elastic Compliance Matrix: (Units=1/GPa)
#
#
# Indices 1 2 3 4 5 6 
#
# 1 0.014249 -0.004182 -0.003787 0.000000 0.000000 0.000000
# 2 -0.004182 0.039788 -0.025801 0.000000 0.000000 0.000000
# 3 -0.003787 -0.025801 0.034000 0.000000 0.000000 0.000000
# 4 0.000000 0.000000 0.000000 0.087440 0.000000 0.000000
# 5 0.000000 0.000000 0.000000 0.000000 0.036604 0.000000
# 6 0.000000 0.000000 0.000000 0.000000 0.000000 0.044675
#
#
# Mechanical properties :
#
#
# Convention : Reuss Voigt Hill
#
# Bulk Modulus (GPa) = 48.78314 49.38317 49.08315
# Shear Modulus (GPa) = 15.09996 19.26989 17.18493
#
# Velocity S-wave (km/s) = 2.89712 3.27279 3.09067
# Velocity P-wave (km/s) = 6.18927 6.45996 6.32607
#
# Compressibility (1/GPa) = 0.02049888
#
# Stress axis : x y z
#
# Youngs Moduli (GPa) = 70.18252 25.13294 29.41160
#
# Poissons Ratio (x) = 0.10510 0.11137
# Poissons Ratio (y) = 0.29348 0.75884
# Poissons Ratio (z) = 0.26576 0.64845
#
# Static dielectric constant tensor:
#      x y z
#    x 1.609530 0.000000 0.000000 
#    y 0.000000 1.611280 0.000000 
#    z 0.000000 0.000000 1.610590 
# 
# From -- ./inp_files/41216.got.cif
#   From: 2010.05.17/outbox.cif.g08.bks.cpg/sg67_21_cif.got.tgz:41216.got - 2010.06.03 18:28:57.
