data_PCOD9503005
_publ_section_title
;
Structure prediction by ZEFSAII (Michael W. Deem and Ramdas Pophale) SiO2 
 PCOD9503005
Probable space group: C M M A
;
_chemical_formula_sum "Si O2"
_cell_formula_units_Z 80
_cell_length_a 10.029758
_cell_length_b 16.340801
_cell_length_c 24.523082
_cell_angle_alpha 90.000000
_cell_angle_beta 90.000000
_cell_angle_gamma 90.000000
_cell_volume 4019.192857
_symmetry_space_group_name_H-M "C M M A"
_symmetry_group_IT_number 67
_symmetry_cell_setting 'orthorhombic'
loop_
_space_group_symop_operation_xyz
x,y,z
-x,1/2-y,z
x,-y,-z
-x,1/2+y,-z
-x,-y,-z
x,1/2+y,-z
-x,y,z
x,1/2-y,z
1/2+x,1/2+y,z
1/2-x,-y,z
1/2+x,1/2-y,-z
1/2-x,y,-z
1/2-x,1/2-y,-z
1/2+x,y,-z
1/2-x,1/2+y,z
1/2+x,-y,z
loop_
_atom_site_type_symbol
_atom_site_label
_atom_site_fract_x
_atom_site_fract_y
_atom_site_fract_z
Si Si1 0.284111 0.848463 0.624949
Si Si2 0.845426 0.922918 0.260598
Si Si3 0.152417 0.349831 0.047171
Si Si4 0.346738 0.651568 0.171101
Si Si5 0.000000 0.149973 0.538240
Si Si6 0.000000 0.350285 0.412684
O O1 0.282769 0.750000 0.622873
O O2 0.342229 0.873878 0.682727
O O3 0.372711 0.876139 0.573694
O O4 0.133251 0.878159 0.617299
O O5 0.766894 0.876531 0.212438
O O6 0.000000 0.940559 0.246976
O O7 0.750000 0.000000 0.270202
O O8 0.158524 0.250000 0.047502
O O9 0.183048 0.376129 0.109103
O O10 0.000000 0.372356 0.035139
O O11 0.250000 0.379597 0.000000
O O12 0.500000 0.625585 0.185052
O O13 0.348902 0.750000 0.171248
O O14 0.000000 0.250000 0.536709
O O15 0.000000 0.123238 0.475772
O O16 0.000000 0.250000 0.412555
#
# Coordination Sequence:
#
# PCOD9503005 Si02
#       6
#    16  16  16  16   8   8
#     4  10  20  35  58  86 112 141 180 225 273 330
#     4  12  26  41  57  77 108 149 191 238 286 332
#     4   8  14  26  47  79 116 149 179 217 267 320
#     4   9  19  36  59  86 116 149 187 230 275 328
#     4   9  16  32  55  85 117 139 172 223 272 323
#     4   9  18  30  55  89 115 141 172 215 274 331
#
# _framework density 19.904495000000001
#
# number of rings (size 3 to 8) (size 9 to 14) (size 15 to 20)
#    0.000    2.400    1.000    3.000    2.800    4.400 
#    0.000    2.000    0.000    4.200    0.000    4.200 
#    0.000    0.000    0.000    0.000    0.000    0.000 
#
# Total GULP energy -223127.957428 kJ/mol
# GULP energy per Si atom -5578.198936 kJ/mol
# Density = 1.985919 g / cm^3
# Si number density = 19.904495 Si / 1000 Ang^3
#
#
#
# Elastic Constant Matrix: (Units=GPa)
#
#
# Indices 1 2 3 4 5 6 
#
# 1 163.0672 17.3773 76.4667 0.0000 0.0000 0.0000
# 2 17.3773 5.8117 10.5391 0.0000 0.0000 0.0000
# 3 76.4667 10.5391 120.7734 0.0000 0.0000 0.0000
# 4 0.0000 0.0000 0.0000 -21.7738 0.0000 0.0000
# 5 0.0000 0.0000 0.0000 0.0000 42.4153 0.0000
# 6 0.0000 0.0000 0.0000 0.0000 0.0000 9.1545
#
#
#
# Elastic Compliance Matrix: (Units=1/GPa)
#
#
# Indices 1 2 3 4 5 6 
#
# 1 0.010961 -0.023985 -0.004847 0.000000 0.000000 0.000000
# 2 -0.023985 0.256901 -0.007232 0.000000 0.000000 0.000000
# 3 -0.004847 -0.007232 0.011980 0.000000 0.000000 0.000000
# 4 0.000000 0.000000 0.000000 -0.045927 0.000000 0.000000
# 5 0.000000 0.000000 0.000000 0.000000 0.023576 0.000000
# 6 0.000000 0.000000 0.000000 0.000000 0.000000 0.109236
#
#
# Mechanical properties :
#
#
# Convention : Reuss Voigt Hill
#
# Bulk Modulus (GPa) = 4.81433 55.37984 30.09709
# Shear Modulus (GPa) = 9.84070 18.31046 14.07558
#
# Velocity S-wave (km/s) = 2.22591 3.03630 2.66213
# Velocity P-wave (km/s) = 3.00503 6.33840 4.96012
#
# Compressibility (1/GPa) = 0.20771310
#
# Stress axis : x y z
#
# Youngs Moduli (GPa) = 91.22939 3.89256 83.47302
#
# Poissons Ratio (x) = 0.09336 0.40460
# Poissons Ratio (y) = 2.18818 0.60366
# Poissons Ratio (z) = 0.44219 0.02815
#
# Static dielectric constant tensor:
#      x y z
#    x 1.701650 0.000000 0.000000 
#    y 0.000000 1.724600 0.000000 
#    z 0.000000 0.000000 1.693180 
# 
# From -- ./inp_files/40591.got.cif
#   From: 2010.05.17/outbox.cif.g08.bks.cpg/sg67_21_cif.got.tgz:40591.got - 2010.06.03 18:28:57.
