data_PCOD9503344
_publ_section_title
;
Structure prediction by ZEFSAII (Michael W. Deem and Ramdas Pophale) SiO2 
 PCOD9503344
Probable space group: C M M A
;
_chemical_formula_sum "Si O2"
_cell_formula_units_Z 96
_cell_length_a 22.744674
_cell_length_b 8.518378
_cell_length_c 24.468954
_cell_angle_alpha 90.000000
_cell_angle_beta 90.000000
_cell_angle_gamma 90.000000
_cell_volume 4740.804308
_symmetry_space_group_name_H-M "C M M A"
_symmetry_group_IT_number 67
_symmetry_cell_setting 'orthorhombic'
loop_
_space_group_symop_operation_xyz
x,y,z
-x,1/2-y,z
x,-y,-z
-x,1/2+y,-z
-x,-y,-z
x,1/2+y,-z
-x,y,z
x,1/2-y,z
1/2+x,1/2+y,z
1/2-x,-y,z
1/2+x,1/2-y,-z
1/2-x,y,-z
1/2-x,1/2-y,-z
1/2+x,y,-z
1/2-x,1/2+y,z
1/2+x,-y,z
loop_
_atom_site_type_symbol
_atom_site_label
_atom_site_fract_x
_atom_site_fract_y
_atom_site_fract_z
Si Si1 0.686064 0.437204 0.161966
Si Si2 0.000000 0.438390 0.124756
Si Si3 0.627488 0.939176 0.268179
Si Si4 0.000000 0.558960 0.747561
Si Si5 0.313999 0.560226 0.376793
Si Si6 0.065552 0.560018 0.562116
Si Si7 0.113702 0.437799 0.938867
O O1 0.684755 0.250000 0.164697
O O2 0.750000 0.500000 0.174717
O O3 0.643298 0.503997 0.208034
O O4 0.666523 0.486392 0.101307
O O5 0.056128 0.499826 0.091942
O O6 0.000000 0.250000 0.124540
O O7 0.000000 0.489188 0.188370
O O8 0.628367 0.750000 0.268414
O O9 0.560718 0.991188 0.280057
O O10 0.673111 0.991965 0.314290
O O11 0.000000 0.750000 0.746971
O O12 0.312127 0.750000 0.378808
O O13 0.250000 0.500000 0.395371
O O14 0.373630 0.509601 0.408574
O O15 0.068074 0.500000 0.500000
O O16 0.066111 0.750000 0.563462
O O17 0.000000 0.512587 0.583833
O O18 0.110961 0.250000 0.940864
O O19 0.118278 0.500000 0.000000
#
# Coordination Sequence:
#
# PCOD9503344 Si02
#       7
#    16   8  16   8  16  16  16
#     4  11  24  40  59  81 109 146 186 231 282 338
#     4  11  20  36  61  87 112 141 179 224 276 338
#     4  10  20  37  60  87 117 150 189 233 284 342
#     4   9  18  32  58  89 112 143 187 230 276 339
#     4  10  22  37  58  87 121 158 198 245 291 346
#     4   9  19  37  60  87 118 157 202 248 296 343
#     4  11  24  40  58  82 111 143 180 227 281 338
#
# _framework density 20.249728999999999
#
# number of rings (size 3 to 8) (size 9 to 14) (size 15 to 20)
#    0.000    1.833    1.667    2.000    1.167    5.333 
#    0.000    3.750    0.000    0.000    0.000    0.000 
#    0.000    0.000    0.000    0.000    0.000    0.000 
#
# Total GULP energy -267888.192591 kJ/mol
# GULP energy per Si atom -5581.004012 kJ/mol
# Density = 2.020364 g / cm^3
# Si number density = 20.249729 Si / 1000 Ang^3
#
#
#
# Elastic Constant Matrix: (Units=GPa)
#
#
# Indices 1 2 3 4 5 6 
#
# 1 155.1958 18.4339 40.8679 0.0000 0.0000 0.0000
# 2 18.4339 15.5378 12.5381 0.0000 0.0000 0.0000
# 3 40.8679 12.5381 63.6507 0.0000 0.0000 0.0000
# 4 0.0000 0.0000 0.0000 20.9923 0.0000 0.0000
# 5 0.0000 0.0000 0.0000 0.0000 29.2668 0.0000
# 6 0.0000 0.0000 0.0000 0.0000 0.0000 14.4327
#
#
#
# Elastic Compliance Matrix: (Units=1/GPa)
#
#
# Indices 1 2 3 4 5 6 
#
# 1 0.008285 -0.006583 -0.004023 0.000000 0.000000 0.000000
# 2 -0.006583 0.081753 -0.011877 0.000000 0.000000 0.000000
# 3 -0.004023 -0.011877 0.020633 0.000000 0.000000 0.000000
# 4 0.000000 0.000000 0.000000 0.047637 0.000000 0.000000
# 5 0.000000 0.000000 0.000000 0.000000 0.034168 0.000000
# 6 0.000000 0.000000 0.000000 0.000000 0.000000 0.069287
#
#
# Mechanical properties :
#
#
# Convention : Reuss Voigt Hill
#
# Bulk Modulus (GPa) = 15.21944 42.00713 28.61329
# Shear Modulus (GPa) = 15.21466 23.77466 19.49466
#
# Velocity S-wave (km/s) = 2.74405 3.43019 3.10613
# Velocity P-wave (km/s) = 4.19189 6.03969 5.19855
#
# Compressibility (1/GPa) = 0.06570544
#
# Stress axis : x y z
#
# Youngs Moduli (GPa) = 120.70527 12.23192 48.46568
#
# Poissons Ratio (x) = 0.08052 0.19496
# Poissons Ratio (y) = 0.79458 0.57565
# Poissons Ratio (z) = 0.48555 0.14528
#
# Static dielectric constant tensor:
#      x y z
#    x 1.742190 0.000000 0.000000 
#    y 0.000000 1.697400 0.000000 
#    z 0.000000 0.000000 1.701910 
# 
# From -- ./inp_files/42580.got.cif
#   From: 2010.05.17/outbox.cif.g08.bks.cpg/sg67_22_cif.got.tgz:42580.got - 2010.06.03 18:28:57.
