data_PCOD9503255
_publ_section_title
;
Structure prediction by ZEFSAII (Michael W. Deem and Ramdas Pophale) SiO2 
 PCOD9503255
Probable space group: C M M A
;
_chemical_formula_sum "Si O2"
_cell_formula_units_Z 96
_cell_length_a 14.672507
_cell_length_b 24.737446
_cell_length_c 14.112393
_cell_angle_alpha 90.000000
_cell_angle_beta 90.000000
_cell_angle_gamma 90.000000
_cell_volume 5122.239097
_symmetry_space_group_name_H-M "C M M A"
_symmetry_group_IT_number 67
_symmetry_cell_setting 'orthorhombic'
loop_
_space_group_symop_operation_xyz
x,y,z
-x,1/2-y,z
x,-y,-z
-x,1/2+y,-z
-x,-y,-z
x,1/2+y,-z
-x,y,z
x,1/2-y,z
1/2+x,1/2+y,z
1/2-x,-y,z
1/2+x,1/2-y,-z
1/2-x,y,-z
1/2-x,1/2-y,-z
1/2+x,y,-z
1/2-x,1/2+y,z
1/2+x,-y,z
loop_
_atom_site_type_symbol
_atom_site_label
_atom_site_fract_x
_atom_site_fract_y
_atom_site_fract_z
Si Si1 0.307301 0.187988 0.279916
Si Si2 0.500000 0.313338 0.531843
Si Si3 0.000000 0.188617 0.693958
Si Si4 0.107286 0.434739 0.231079
Si Si5 0.317761 0.381796 0.585833
Si Si6 0.106434 0.965974 0.096678
Si Si7 0.752144 0.630104 0.892260
O O1 0.317122 0.250000 0.307526
O O2 0.406788 0.161139 0.277600
O O3 0.244275 0.159537 0.355386
O O4 0.268454 0.179565 0.176414
O O5 0.500000 0.250000 0.568631
O O6 0.500000 0.308211 0.418838
O O7 0.409193 0.348192 0.557123
O O8 0.000000 0.250000 0.734627
O O9 0.151704 0.425755 0.334778
O O10 0.116268 0.494132 0.186274
O O11 0.157701 0.396702 0.153798
O O12 0.000000 0.421613 0.236965
O O13 0.250000 0.400005 0.500000
O O14 0.175405 0.916907 0.109778
O O15 0.000000 0.949528 0.088668
O O16 0.127688 0.000000 0.000000
O O17 0.750000 0.647767 0.000000
#
# Coordination Sequence:
#
# PCOD9503255 Si02
#       7
#    16   8   8  16  16  16  16
#     4  10  22  37  55  83 118 154 194 240 292 345
#     4  11  20  32  58  84 115 154 198 250 288 343
#     4   9  18  34  54  80 111 148 192 244 289 332
#     4  10  21  37  57  86 122 153 188 243 300 346
#     4  11  21  36  59  88 117 157 200 241 291 352
#     4  10  20  36  61  89 117 146 189 247 297 348
#     4  11  22  35  60  87 114 152 197 243 290 355
#
# _framework density 18.741803999999998
#
# number of rings (size 3 to 8) (size 9 to 14) (size 15 to 20)
#    0.000    1.667    4.167    1.000    1.167    1.000 
#    0.000    0.000    0.000    8.000    0.000   16.333 
#    0.000    0.000    0.000    0.000    0.000    0.000 
#
# Total GULP energy -267441.149953 kJ/mol
# GULP energy per Si atom -5571.690624 kJ/mol
# Density = 1.869915 g / cm^3
# Si number density = 18.741804 Si / 1000 Ang^3
#
#
#
# Elastic Constant Matrix: (Units=GPa)
#
#
# Indices 1 2 3 4 5 6 
#
# 1 100.4661 6.9020 22.9536 0.0000 0.0000 0.0000
# 2 6.9020 14.0135 1.4416 0.0000 0.0000 0.0000
# 3 22.9536 1.4416 103.7260 0.0000 0.0000 0.0000
# 4 0.0000 0.0000 0.0000 13.7185 0.0000 0.0000
# 5 0.0000 0.0000 0.0000 0.0000 26.3222 0.0000
# 6 0.0000 0.0000 0.0000 0.0000 0.0000 12.1856
#
#
#
# Elastic Compliance Matrix: (Units=1/GPa)
#
#
# Indices 1 2 3 4 5 6 
#
# 1 0.010835 -0.005097 -0.002327 0.000000 0.000000 0.000000
# 2 -0.005097 0.073860 0.000101 0.000000 0.000000 0.000000
# 3 -0.002327 0.000101 0.010154 0.000000 0.000000 0.000000
# 4 0.000000 0.000000 0.000000 0.072894 0.000000 0.000000
# 5 0.000000 0.000000 0.000000 0.000000 0.037991 0.000000
# 6 0.000000 0.000000 0.000000 0.000000 0.000000 0.082064
#
#
# Mechanical properties :
#
#
# Convention : Reuss Voigt Hill
#
# Bulk Modulus (GPa) = 12.46824 31.20001 21.83412
# Shear Modulus (GPa) = 15.18934 22.90583 19.04759
#
# Velocity S-wave (km/s) = 2.84993 3.49976 3.19143
# Velocity P-wave (km/s) = 4.18289 5.74583 5.02549
#
# Compressibility (1/GPa) = 0.08020379
#
# Stress axis : x y z
#
# Youngs Moduli (GPa) = 92.28980 13.53919 98.48038
#
# Poissons Ratio (x) = 0.06901 0.22916
# Poissons Ratio (y) = 0.47043 -0.00999
# Poissons Ratio (z) = 0.21475 -0.00137
#
# Static dielectric constant tensor:
#      x y z
#    x 1.702120 0.000000 0.000000 
#    y 0.000000 1.653850 0.000000 
#    z 0.000000 0.000000 1.660610 
# 
# From -- ./inp_files/18484.got.cif
#   From: 2010.05.17/outbox.cif.g08.bks.cpg/sg67_10_cif.got.tgz:18484.got - 2010.06.03 18:28:57.
