data_PCOD9503609
_publ_section_title
;
Structure prediction by ZEFSAII (Michael W. Deem and Ramdas Pophale) SiO2 
 PCOD9503609
Probable space group: C M M A
;
_chemical_formula_sum "Si O2"
_cell_formula_units_Z 112
_cell_length_a 14.351247
_cell_length_b 21.281005
_cell_length_c 17.935047
_cell_angle_alpha 90.000000
_cell_angle_beta 90.000000
_cell_angle_gamma 90.000000
_cell_volume 5477.524037
_symmetry_space_group_name_H-M "C M M A"
_symmetry_group_IT_number 67
_symmetry_cell_setting 'orthorhombic'
loop_
_space_group_symop_operation_xyz
x,y,z
-x,1/2-y,z
x,-y,-z
-x,1/2+y,-z
-x,-y,-z
x,1/2+y,-z
-x,y,z
x,1/2-y,z
1/2+x,1/2+y,z
1/2-x,-y,z
1/2+x,1/2-y,-z
1/2-x,y,-z
1/2-x,1/2-y,-z
1/2+x,y,-z
1/2-x,1/2+y,z
1/2+x,-y,z
loop_
_atom_site_type_symbol
_atom_site_label
_atom_site_fract_x
_atom_site_fract_y
_atom_site_fract_z
Si Si1 0.109780 0.442814 0.791791
Si Si2 0.639327 0.819582 0.012863
Si Si3 0.110983 0.006770 0.364466
Si Si4 0.789597 0.175729 0.730252
Si Si5 0.347975 0.944667 0.954959
Si Si6 0.898395 0.674137 0.814655
Si Si7 0.236806 0.104330 0.584488
O O1 0.130595 0.488130 0.721830
O O2 0.137329 0.372273 0.766815
O O3 0.160719 0.459574 0.868390
O O4 0.000000 0.446982 0.806235
O O5 0.600947 0.750000 0.999653
O O6 0.619715 0.838640 0.098255
O O7 0.750000 0.813679 0.000000
O O8 0.606570 0.876284 0.961718
O O9 0.154400 0.947837 0.410026
O O10 0.000000 0.012866 0.374801
O O11 0.170741 0.066994 0.388316
O O12 0.805291 0.250000 0.743964
O O13 0.690163 0.155977 0.766189
O O14 0.785017 0.159125 0.642972
O O15 0.250000 0.938470 0.000000
O O16 0.397184 0.000000 0.000000
O O17 0.902581 0.750000 0.808858
O O18 0.000000 0.648320 0.792482
O O19 0.250000 0.125173 0.500000
#
# Coordination Sequence:
#
# PCOD9503609 Si02
#       7
#    16  16  16  16  16  16  16
#     4  10  22  39  58  82 111 150 202 243 277 337
#     4   9  17  31  51  74 104 145 192 236 279 331
#     4   9  19  37  60  84 114 152 195 244 288 333
#     4  10  21  38  59  82 115 153 187 234 287 339
#     4  10  21  34  51  78 114 151 185 233 298 352
#     4   9  18  33  53  77 105 142 191 239 280 330
#     4  10  21  35  57  90 118 145 187 232 285 356
#
# _framework density 20.447194
#
# number of rings (size 3 to 8) (size 9 to 14) (size 15 to 20)
#    0.000    2.429    0.000    2.571    0.000   10.571 
#    0.000    1.429    0.000    0.000    0.000    4.000 
#    0.000    0.000    0.000    0.000    0.000    0.000 
#
# Total GULP energy -312472.816120 kJ/mol
# GULP energy per Si atom -5579.871716 kJ/mol
# Density = 2.040066 g / cm^3
# Si number density = 20.447194 Si / 1000 Ang^3
#
#
#
# Elastic Constant Matrix: (Units=GPa)
#
#
# Indices 1 2 3 4 5 6 
#
# 1 101.7419 7.1120 15.5427 0.0000 0.0000 0.0000
# 2 7.1120 73.0462 15.5868 0.0000 0.0000 0.0000
# 3 15.5427 15.5868 108.9365 0.0000 0.0000 0.0000
# 4 0.0000 0.0000 0.0000 14.7690 0.0000 0.0000
# 5 0.0000 0.0000 0.0000 0.0000 9.1765 0.0000
# 6 0.0000 0.0000 0.0000 0.0000 0.0000 5.9447
#
#
#
# Elastic Compliance Matrix: (Units=1/GPa)
#
#
# Indices 1 2 3 4 5 6 
#
# 1 0.010082 -0.000696 -0.001339 0.000000 0.000000 0.000000
# 2 -0.000696 0.014169 -0.001928 0.000000 0.000000 0.000000
# 3 -0.001339 -0.001928 0.009647 0.000000 0.000000 0.000000
# 4 0.000000 0.000000 0.000000 0.067709 0.000000 0.000000
# 5 0.000000 0.000000 0.000000 0.000000 0.108974 0.000000
# 6 0.000000 0.000000 0.000000 0.000000 0.000000 0.168218
#
#
# Mechanical properties :
#
#
# Convention : Reuss Voigt Hill
#
# Bulk Modulus (GPa) = 38.50308 40.02307 39.26307
# Shear Modulus (GPa) = 12.64599 22.34357 17.49478
#
# Velocity S-wave (km/s) = 2.48961 3.30926 2.92825
# Velocity P-wave (km/s) = 5.20918 5.84961 5.53866
#
# Compressibility (1/GPa) = 0.02597195
#
# Stress axis : x y z
#
# Youngs Moduli (GPa) = 99.18690 70.57595 103.66388
#
# Poissons Ratio (x) = 0.04911 0.13879
# Poissons Ratio (y) = 0.06903 0.19987
# Poissons Ratio (z) = 0.13280 0.13607
#
# Static dielectric constant tensor:
#      x y z
#    x 1.757210 0.000000 0.000000 
#    y 0.000000 1.777590 0.000000 
#    z 0.000000 0.000000 1.721890 
# 
# From -- ./inp_files/27522.got.cif
#   From: 2010.05.17/outbox.cif.g08.bks.cpg/sg67_14_cif.got.tgz:27522.got - 2010.06.03 18:28:57.
