data_PCOD9503220
_publ_section_title
;
Structure prediction by ZEFSAII (Michael W. Deem and Ramdas Pophale) SiO2 
 PCOD9503220
Probable space group: C M M A
;
_chemical_formula_sum "Si O2"
_cell_formula_units_Z 96
_cell_length_a 15.801126
_cell_length_b 20.101793
_cell_length_c 14.984330
_cell_angle_alpha 90.000000
_cell_angle_beta 90.000000
_cell_angle_gamma 90.000000
_cell_volume 4759.487183
_symmetry_space_group_name_H-M "C M M A"
_symmetry_group_IT_number 67
_symmetry_cell_setting 'orthorhombic'
loop_
_space_group_symop_operation_xyz
x,y,z
-x,1/2-y,z
x,-y,-z
-x,1/2+y,-z
-x,-y,-z
x,1/2+y,-z
-x,y,z
x,1/2-y,z
1/2+x,1/2+y,z
1/2-x,-y,z
1/2+x,1/2-y,-z
1/2-x,y,-z
1/2-x,1/2-y,-z
1/2+x,y,-z
1/2-x,1/2+y,z
1/2+x,-y,z
loop_
_atom_site_type_symbol
_atom_site_label
_atom_site_fract_x
_atom_site_fract_y
_atom_site_fract_z
Si Si1 0.840944 0.173120 0.953007
Si Si2 0.402516 0.176693 0.856586
Si Si3 0.652657 0.929055 0.469444
Si Si4 0.600515 0.824645 0.611544
Si Si5 0.603092 0.908443 0.783360
Si Si6 0.603294 0.058765 0.733088
O O1 0.849582 0.250000 0.922267
O O2 0.859251 0.123849 0.872463
O O3 0.750000 0.164992 0.000000
O O4 0.901436 0.163185 0.037972
O O5 0.500000 0.181421 0.828121
O O6 0.362323 0.250000 0.842837
O O7 0.366056 0.115727 0.801014
O O8 0.750000 0.929652 0.500000
O O9 0.613989 0.867425 0.522619
O O10 0.640424 0.926266 0.364054
O O11 0.614172 0.000000 0.500000
O O12 0.500000 0.819178 0.624208
O O13 0.636328 0.750000 0.606471
O O14 0.631881 0.866081 0.697067
O O15 0.500000 0.905197 0.789485
O O16 0.626743 0.985167 0.766716
O O17 0.500000 0.059322 0.726825
#
# Coordination Sequence:
#
# PCOD9503220 Si02
#       6
#    16  16  16  16  16  16
#     4  10  21  37  56  82 117 156 190 230 290 349
#     4   9  19  37  59  83 112 149 196 243 285 343
#     4  11  23  39  58  84 119 159 193 236 296 363
#     4  10  21  37  60  89 116 150 201 251 294 348
#     4  10  20  36  60  86 113 149 193 243 292 341
#     4  10  21  38  62  86 112 151 197 244 294 346
#
# _framework density 20.17024
#
# number of rings (size 3 to 8) (size 9 to 14) (size 15 to 20)
#    0.000    2.000    1.667    1.500    0.000    5.333 
#    0.000    6.667    0.000    0.000    0.000    0.000 
#    0.000    0.000    0.000    0.000    0.000    0.000 
#
# Total GULP energy -267934.527897 kJ/mol
# GULP energy per Si atom -5581.969331 kJ/mol
# Density = 2.012433 g / cm^3
# Si number density = 20.170240 Si / 1000 Ang^3
#
#
#
# Elastic Constant Matrix: (Units=GPa)
#
#
# Indices 1 2 3 4 5 6 
#
# 1 24.0804 24.2749 14.8709 0.0000 0.0000 0.0000
# 2 24.2749 207.3132 132.5557 0.0000 0.0000 0.0000
# 3 14.8709 132.5557 169.1185 0.0000 0.0000 0.0000
# 4 0.0000 0.0000 0.0000 102.6401 0.0000 0.0000
# 5 0.0000 0.0000 0.0000 0.0000 23.2212 0.0000
# 6 0.0000 0.0000 0.0000 0.0000 0.0000 12.5559
#
#
#
# Elastic Compliance Matrix: (Units=1/GPa)
#
#
# Indices 1 2 3 4 5 6 
#
# 1 0.047097 -0.005747 0.000363 0.000000 0.000000 0.000000
# 2 -0.005747 0.010371 -0.007623 0.000000 0.000000 0.000000
# 3 0.000363 -0.007623 0.011856 0.000000 0.000000 0.000000
# 4 0.000000 0.000000 0.000000 0.009743 0.000000 0.000000
# 5 0.000000 0.000000 0.000000 0.000000 0.043064 0.000000
# 6 0.000000 0.000000 0.000000 0.000000 0.000000 0.079644
#
#
# Mechanical properties :
#
#
# Convention : Reuss Voigt Hill
#
# Bulk Modulus (GPa) = 23.08956 82.65724 52.87340
# Shear Modulus (GPa) = 20.64190 42.93747 31.78968
#
# Velocity S-wave (km/s) = 3.20251 4.61885 3.97428
# Velocity P-wave (km/s) = 5.01467 8.33749 6.87971
#
# Compressibility (1/GPa) = 0.04330961
#
# Stress axis : x y z
#
# Youngs Moduli (GPa) = 21.23291 96.42290 84.34267
#
# Poissons Ratio (x) = 0.55413 -0.03063
# Poissons Ratio (y) = 0.12202 0.64298
# Poissons Ratio (z) = -0.00771 0.73508
#
# Static dielectric constant tensor:
#      x y z
#    x 1.800720 0.000000 0.000000 
#    y 0.000000 1.730990 0.000000 
#    z 0.000000 0.000000 1.668130 
# 
# From -- ./inp_files/20884.got.cif
#   From: 2010.05.17/outbox.cif.g08.bks.cpg/sg67_11_cif.got.tgz:20884.got - 2010.06.03 18:28:57.
