data_PCOD9503367
_publ_section_title
;
Structure prediction by ZEFSAII (Michael W. Deem and Ramdas Pophale) SiO2 
 PCOD9503367
Probable space group: C M M A
;
_chemical_formula_sum "Si O2"
_cell_formula_units_Z 72
_cell_length_a 8.308138
_cell_length_b 14.735267
_cell_length_c 27.324171
_cell_angle_alpha 90.000000
_cell_angle_beta 90.000000
_cell_angle_gamma 90.000000
_cell_volume 3345.096923
_symmetry_space_group_name_H-M "C M M A"
_symmetry_group_IT_number 67
_symmetry_cell_setting 'orthorhombic'
loop_
_space_group_symop_operation_xyz
x,y,z
-x,1/2-y,z
x,-y,-z
-x,1/2+y,-z
-x,-y,-z
x,1/2+y,-z
-x,y,z
x,1/2-y,z
1/2+x,1/2+y,z
1/2-x,-y,z
1/2+x,1/2-y,-z
1/2-x,y,-z
1/2-x,1/2-y,-z
1/2+x,y,-z
1/2-x,1/2+y,z
1/2+x,-y,z
loop_
_atom_site_type_symbol
_atom_site_label
_atom_site_fract_x
_atom_site_fract_y
_atom_site_fract_z
Si Si1 0.307225 0.103489 0.369093
Si Si2 0.307433 0.394921 0.051419
Si Si3 0.189833 0.250000 0.444613
Si Si4 0.694793 0.105020 0.262335
Si Si5 0.304914 0.605292 0.843010
O O1 0.500000 0.105269 0.368909
O O2 0.247920 0.163626 0.413630
O O3 0.251422 0.140024 0.315473
O O4 0.250000 0.000000 0.373626
O O5 0.500000 0.606962 0.949222
O O6 0.250000 0.500000 0.051411
O O7 0.251799 0.356749 0.104177
O O8 0.250000 0.354604 0.000000
O O9 0.250000 0.250000 0.500000
O O10 0.000000 0.250000 0.445673
O O11 0.500000 0.109563 0.262112
O O12 0.749659 0.143520 0.209696
O O13 0.750000 0.000000 0.262308
O O14 0.500000 0.609007 0.843052
O O15 0.250000 0.500000 0.842943
#
# Coordination Sequence:
#
# PCOD9503367 Si02
#       5
#    16  16   8  16  16
#     4  10  20  37  61  89 119 152 189 231 280 333
#     4   9  14  18  24  35  58  94 140 189 239 292
#     4  12  26  44  64  88 118 152 191 232 273 322
#     4   8  14  25  43  66  93 124 162 207 257 312
#     4   8  13  20  30  47  71 104 146 194 244 297
#
# _framework density 21.524041
#
# number of rings (size 3 to 8) (size 9 to 14) (size 15 to 20)
#    0.000    2.889    0.000    3.000    0.000    2.222 
#    0.000    2.222    0.000    0.000    0.000    0.000 
#    0.000    0.000    0.000    1.000    0.000   11.778 
#
# Total GULP energy -200572.518334 kJ/mol
# GULP energy per Si atom -5571.458843 kJ/mol
# Density = 2.147505 g / cm^3
# Si number density = 21.524041 Si / 1000 Ang^3
#
#
#
# Elastic Constant Matrix: (Units=GPa)
#
#
# Indices 1 2 3 4 5 6 
#
# 1 45.9824 10.1621 49.2365 0.0000 0.0000 0.0000
# 2 10.1621 87.2277 66.0089 0.0000 0.0000 0.0000
# 3 49.2365 66.0089 313.1221 0.0000 0.0000 0.0000
# 4 0.0000 0.0000 0.0000 528.8303 0.0000 0.0000
# 5 0.0000 0.0000 0.0000 0.0000 25.0310 0.0000
# 6 0.0000 0.0000 0.0000 0.0000 0.0000 5.0382
#
#
#
# Elastic Compliance Matrix: (Units=1/GPa)
#
#
# Indices 1 2 3 4 5 6 
#
# 1 0.026151 0.000078 -0.004128 0.000000 0.000000 0.000000
# 2 0.000078 0.013640 -0.002888 0.000000 0.000000 0.000000
# 3 -0.004128 -0.002888 0.004452 0.000000 0.000000 0.000000
# 4 0.000000 0.000000 0.000000 0.001891 0.000000 0.000000
# 5 0.000000 0.000000 0.000000 0.000000 0.039950 0.000000
# 6 0.000000 0.000000 0.000000 0.000000 0.000000 0.198483
#
#
# Mechanical properties :
#
#
# Convention : Reuss Voigt Hill
#
# Bulk Modulus (GPa) = 32.93185 77.46078 55.19632
# Shear Modulus (GPa) = 16.20398 133.17489 74.68944
#
# Velocity S-wave (km/s) = 2.74675 7.87445 5.89710
# Velocity P-wave (km/s) = 5.03913 10.89688 8.48925
#
# Compressibility (1/GPa) = 0.03036574
#
# Stress axis : x y z
#
# Youngs Moduli (GPa) = 38.23963 73.31124 224.64001
#
# Poissons Ratio (x) = -0.00568 0.92741
# Poissons Ratio (y) = -0.00297 0.64870
# Poissons Ratio (z) = 0.15787 0.21170
#
# Static dielectric constant tensor:
#      x y z
#    x 1.742960 0.000000 0.000000 
#    y 0.000000 1.413180 0.000000 
#    z 0.000000 0.000000 2.072500 
# 
# From -- ./inp_files/43105.got.cif
#   From: 2010.05.17/outbox.cif.g08.bks.cpg/sg67_22_cif.got.tgz:43105.got - 2010.06.03 18:28:57.
