data_PCOD9503566
_publ_section_title
;
Structure prediction by ZEFSAII (Michael W. Deem and Ramdas Pophale) SiO2 
 PCOD9503566
Probable space group: C M M A
;
_chemical_formula_sum "Si O2"
_cell_formula_units_Z 72
_cell_length_a 16.051860
_cell_length_b 14.678064
_cell_length_c 13.870702
_cell_angle_alpha 90.000000
_cell_angle_beta 90.000000
_cell_angle_gamma 90.000000
_cell_volume 3268.079266
_symmetry_space_group_name_H-M "C M M A"
_symmetry_group_IT_number 67
_symmetry_cell_setting 'orthorhombic'
loop_
_space_group_symop_operation_xyz
x,y,z
-x,1/2-y,z
x,-y,-z
-x,1/2+y,-z
-x,-y,-z
x,1/2+y,-z
-x,y,z
x,1/2-y,z
1/2+x,1/2+y,z
1/2-x,-y,z
1/2+x,1/2-y,-z
1/2-x,y,-z
1/2-x,1/2-y,-z
1/2+x,y,-z
1/2-x,1/2+y,z
1/2+x,-y,z
loop_
_atom_site_type_symbol
_atom_site_label
_atom_site_fract_x
_atom_site_fract_y
_atom_site_fract_z
Si Si1 0.597348 0.389467 0.991342
Si Si2 0.596675 0.412736 0.196553
Si Si3 0.307097 0.150909 0.357919
Si Si4 0.346830 0.618258 0.214346
Si Si5 0.250000 0.500000 0.500000
Si Si6 0.500000 0.250000 0.739394
O O1 0.500000 0.362842 0.972851
O O2 0.624568 0.362314 0.098551
O O3 0.599539 0.500000 0.000000
O O4 0.651407 0.359058 0.900340
O O5 0.500000 0.433109 0.180273
O O6 0.611684 0.356440 0.292111
O O7 0.641524 0.509179 0.213439
O O8 0.302155 0.250000 0.404671
O O9 0.232226 0.141695 0.279597
O O10 0.301756 0.068269 0.432430
O O11 0.426456 0.670675 0.256471
#
# Coordination Sequence:
#
# PCOD9503566 Si02
#       6
#    16  16  16  16   4   4
#     4   8  15  30  57  91 130 183 214 242 300 374
#     4  10  20  40  66  91 138 182 215 250 316 381
#     4  12  26  44  70 100 123 165 218 273 332 397
#     4  11  19  37  63  98 134 172 219 260 308 377
#     4  12  26  52  74  84 124 168 204 284 360 386
#     4  12  20  32  66 102 136 174 216 270 300 378
#
# _framework density 22.031289999999998
#
# number of rings (size 3 to 8) (size 9 to 14) (size 15 to 20)
#    0.000    1.556    5.556    1.667    0.000    1.333 
#    2.000    5.000    2.444    0.000    0.000    0.000 
#    0.000    0.000    0.000    0.000    0.000    0.000 
#
# Total GULP energy -200477.566026 kJ/mol
# GULP energy per Si atom -5568.821278 kJ/mol
# Density = 2.198115 g / cm^3
# Si number density = 22.031290 Si / 1000 Ang^3
#
#
#
# Elastic Constant Matrix: (Units=GPa)
#
#
# Indices 1 2 3 4 5 6 
#
# 1 39.7770 -0.7171 1.8120 0.0000 0.0000 0.0000
# 2 -0.7171 129.5988 30.3803 0.0000 0.0000 0.0000
# 3 1.8120 30.3803 99.5402 0.0000 0.0000 0.0000
# 4 0.0000 0.0000 0.0000 -30.9945 0.0000 0.0000
# 5 0.0000 0.0000 0.0000 0.0000 23.5478 0.0000
# 6 0.0000 0.0000 0.0000 0.0000 0.0000 351.1705
#
#
#
# Elastic Compliance Matrix: (Units=1/GPa)
#
#
# Indices 1 2 3 4 5 6 
#
# 1 0.025170 0.000266 -0.000539 0.000000 0.000000 0.000000
# 2 0.000266 0.008314 -0.002542 0.000000 0.000000 0.000000
# 3 -0.000539 -0.002542 0.010832 0.000000 0.000000 0.000000
# 4 0.000000 0.000000 0.000000 -0.032264 0.000000 0.000000
# 5 0.000000 0.000000 0.000000 0.000000 0.042467 0.000000
# 6 0.000000 0.000000 0.000000 0.000000 0.000000 0.002848
#
#
# Mechanical properties :
#
#
# Convention : Reuss Voigt Hill
#
# Bulk Modulus (GPa) = 25.85086 36.87405 31.36245
# Shear Modulus (GPa) = 65.88342 84.57414 75.22878
#
# Velocity S-wave (km/s) = 5.47443 6.20254 5.84983
# Velocity P-wave (km/s) = 7.19155 8.25038 7.73910
#
# Compressibility (1/GPa) = 0.03868343
#
# Stress axis : x y z
#
# Youngs Moduli (GPa) = 39.73057 120.28591 92.31989
#
# Poissons Ratio (x) = -0.03196 0.04979
# Poissons Ratio (y) = -0.01056 0.23469
# Poissons Ratio (z) = 0.02143 0.30579
#
# Static dielectric constant tensor:
#      x y z
#    x 1.797030 0.000000 0.000000 
#    y 0.000000 1.876490 0.000000 
#    z 0.000000 0.000000 1.855990 
# 
# From -- ./inp_files/26893.got.cif
#   From: 2010.05.17/outbox.cif.g08.bks.cpg/sg67_14_cif.got.tgz:26893.got - 2010.06.03 18:28:57.
