data_PCOD9503925
_publ_section_title
;
Structure prediction by ZEFSAII (Michael W. Deem and Ramdas Pophale) SiO2 
 PCOD9503925
Probable space group: C M M A
;
_chemical_formula_sum "Si O2"
_cell_formula_units_Z 80
_cell_length_a 26.439880
_cell_length_b 9.613180
_cell_length_c 17.165668
_cell_angle_alpha 90.000000
_cell_angle_beta 90.000000
_cell_angle_gamma 90.000000
_cell_volume 4363.020591
_symmetry_space_group_name_H-M "C M M A"
_symmetry_group_IT_number 67
_symmetry_cell_setting 'orthorhombic'
loop_
_space_group_symop_operation_xyz
x,y,z
-x,1/2-y,z
x,-y,-z
-x,1/2+y,-z
-x,-y,-z
x,1/2+y,-z
-x,y,z
x,1/2-y,z
1/2+x,1/2+y,z
1/2-x,-y,z
1/2+x,1/2-y,-z
1/2-x,y,-z
1/2-x,1/2-y,-z
1/2+x,y,-z
1/2-x,1/2+y,z
1/2+x,-y,z
loop_
_atom_site_type_symbol
_atom_site_label
_atom_site_fract_x
_atom_site_fract_y
_atom_site_fract_z
Si Si1 0.059789 0.250000 0.073383
Si Si2 0.202156 0.416534 0.270555
Si Si3 0.562134 0.750000 0.892788
Si Si4 0.403495 0.522103 0.192198
Si Si5 0.664044 0.583153 0.578070
Si Si6 0.943812 0.413494 0.651215
O O1 0.076696 0.376473 0.126377
O O2 0.000000 0.250000 0.068102
O O3 0.076682 0.250000 0.983938
O O4 0.210505 0.250000 0.282218
O O5 0.250000 0.500000 0.236928
O O6 0.153113 0.438268 0.216696
O O7 0.189627 0.500649 0.350371
O O8 0.500000 0.750000 0.885676
O O9 0.587202 0.622965 0.848670
O O10 0.433970 0.510759 0.273855
O O11 0.677456 0.500000 0.500000
O O12 0.675981 0.750000 0.576483
O O13 0.603528 0.570192 0.593658
O O14 0.942226 0.250000 0.676072
O O15 0.000000 0.439519 0.619181
#
# Coordination Sequence:
#
# PCOD9503925 Si02
#       6
#     8  16   8  16  16  16
#     4  11  22  36  57  93 130 161 197 243 295 349
#     4  11  24  42  66  90 114 152 204 254 307 357
#     4  11  22  36  61  91 126 169 201 233 291 361
#     4  11  21  37  59  88 124 159 203 251 295 351
#     4  10  21  37  59  87 124 157 195 246 297 354
#     4   9  17  31  54  81 113 161 206 237 281 344
#
# _framework density 18.335920999999999
#
# number of rings (size 3 to 8) (size 9 to 14) (size 15 to 20)
#    0.000    1.600    2.000    3.600    2.800    2.400 
#    0.000    2.000    0.000    3.600    0.000    0.000 
#    0.000    0.000    0.000    0.000    0.000    0.000 
#
# Total GULP energy -222978.549449 kJ/mol
# GULP energy per Si atom -5574.463736 kJ/mol
# Density = 1.829419 g / cm^3
# Si number density = 18.335921 Si / 1000 Ang^3
#
#
#
# Elastic Constant Matrix: (Units=GPa)
#
#
# Indices 1 2 3 4 5 6 
#
# 1 66.1151 18.2988 -6.1567 0.0000 0.0000 0.0000
# 2 18.2988 145.9259 26.6546 0.0000 0.0000 0.0000
# 3 -6.1567 26.6546 66.4091 0.0000 0.0000 0.0000
# 4 0.0000 0.0000 0.0000 100.3720 0.0000 0.0000
# 5 0.0000 0.0000 0.0000 0.0000 16.3301 0.0000
# 6 0.0000 0.0000 0.0000 0.0000 0.0000 20.5617
#
#
#
# Elastic Compliance Matrix: (Units=1/GPa)
#
#
# Indices 1 2 3 4 5 6 
#
# 1 0.016037 -0.002463 0.002475 0.000000 0.000000 0.000000
# 2 -0.002463 0.007773 -0.003348 0.000000 0.000000 0.000000
# 3 0.002475 -0.003348 0.016632 0.000000 0.000000 0.000000
# 4 0.000000 0.000000 0.000000 0.009963 0.000000 0.000000
# 5 0.000000 0.000000 0.000000 0.000000 0.061237 0.000000
# 6 0.000000 0.000000 0.000000 0.000000 0.000000 0.048634
#
#
# Mechanical properties :
#
#
# Convention : Reuss Voigt Hill
#
# Bulk Modulus (GPa) = 29.61195 39.56037 34.58616
# Shear Modulus (GPa) = 28.05762 43.42967 35.74364
#
# Velocity S-wave (km/s) = 3.91602 4.87206 4.41997
# Velocity P-wave (km/s) = 6.05241 7.29873 6.70460
#
# Compressibility (1/GPa) = 0.03377015
#
# Stress axis : x y z
#
# Youngs Moduli (GPa) = 62.35425 128.64591 60.12650
#
# Poissons Ratio (x) = 0.31688 -0.14884
# Poissons Ratio (y) = 0.15359 0.20132
# Poissons Ratio (z) = -0.15436 0.43075
#
# Static dielectric constant tensor:
#      x y z
#    x 1.645850 0.000000 0.000000 
#    y 0.000000 1.602260 0.000000 
#    z 0.000000 0.000000 1.610710 
# 
# From -- ./inp_files/32164.got.cif
#   From: 2010.05.17/outbox.cif.g08.bks.cpg/sg67_17_cif.got.tgz:32164.got - 2010.06.03 18:28:57.
