data_PCOD9503767
_publ_section_title
;
Structure prediction by ZEFSAII (Michael W. Deem and Ramdas Pophale) SiO2 
 PCOD9503767
Probable space group: C M M A
;
_chemical_formula_sum "Si O2"
_cell_formula_units_Z 104
_cell_length_a 8.615281
_cell_length_b 26.727135
_cell_length_c 22.906454
_cell_angle_alpha 90.000000
_cell_angle_beta 90.000000
_cell_angle_gamma 90.000000
_cell_volume 5274.480834
_symmetry_space_group_name_H-M "C M M A"
_symmetry_group_IT_number 67
_symmetry_cell_setting 'orthorhombic'
loop_
_space_group_symop_operation_xyz
x,y,z
-x,1/2-y,z
x,-y,-z
-x,1/2+y,-z
-x,-y,-z
x,1/2+y,-z
-x,y,z
x,1/2-y,z
1/2+x,1/2+y,z
1/2-x,-y,z
1/2+x,1/2-y,-z
1/2-x,y,-z
1/2-x,1/2-y,-z
1/2+x,y,-z
1/2-x,1/2+y,z
1/2+x,-y,z
loop_
_atom_site_type_symbol
_atom_site_label
_atom_site_fract_x
_atom_site_fract_y
_atom_site_fract_z
Si Si1 0.184942 0.194502 0.115462
Si Si2 0.313548 0.657186 0.765584
Si Si3 0.186798 0.944849 0.566072
Si Si4 0.185114 0.593872 0.062595
Si Si5 0.812813 0.346966 0.631105
Si Si6 0.685161 0.550868 0.817060
Si Si7 0.314208 0.250000 0.564958
O O1 0.229974 0.250000 0.095453
O O2 0.232119 0.188510 0.183508
O O3 0.265984 0.150301 0.079675
O O4 0.000000 0.188864 0.110063
O O5 0.500000 0.663946 0.772067
O O6 0.271659 0.664752 0.698541
O O7 0.274572 0.599727 0.780589
O O8 0.250000 0.936062 0.500000
O O9 0.244954 0.899334 0.606842
O O10 0.000000 0.945945 0.564930
O O11 0.250000 0.000000 0.583893
O O12 0.243278 0.560497 0.116835
O O13 0.000000 0.591305 0.061154
O O14 0.250000 0.579470 0.000000
O O15 0.749336 0.300259 0.594868
O O16 0.000000 0.349689 0.627194
O O17 0.500000 0.547820 0.819167
O O18 0.750000 0.500000 0.792296
O O19 0.500000 0.250000 0.566089
O O20 0.250000 0.250000 0.500000
#
# Coordination Sequence:
#
# PCOD9503767 Si02
#       7
#    16  16  16  16  16  16   8
#     4  10  21  36  56  82 111 145 185 232 284 339
#     4   9  21  39  58  82 114 150 190 232 282 341
#     4  11  22  39  62  89 120 157 198 247 300 357
#     4  10  21  37  56  80 111 146 189 236 284 343
#     4  11  23  41  63  90 122 160 203 249 302 362
#     4   9  19  36  56  81 111 148 188 230 281 337
#     4  12  26  44  64  90 124 162 205 252 305 366
#
# _framework density 19.717582
#
# number of rings (size 3 to 8) (size 9 to 14) (size 15 to 20)
#    0.000    1.846    0.000    5.308    1.077    6.769 
#    0.000    3.077    0.000    0.000    0.000    0.000 
#    0.000    0.000    0.000    0.000    0.000    0.000 
#
# Total GULP energy -290474.312988 kJ/mol
# GULP energy per Si atom -5586.044481 kJ/mol
# Density = 1.967270 g / cm^3
# Si number density = 19.717582 Si / 1000 Ang^3
#
#
#
# Elastic Constant Matrix: (Units=GPa)
#
#
# Indices 1 2 3 4 5 6 
#
# 1 63.6752 6.0572 10.7827 0.0000 0.0000 0.0000
# 2 6.0572 59.5506 -10.0774 0.0000 0.0000 0.0000
# 3 10.7827 -10.0774 68.2534 0.0000 0.0000 0.0000
# 4 0.0000 0.0000 0.0000 -6.7152 0.0000 0.0000
# 5 0.0000 0.0000 0.0000 0.0000 27.5177 0.0000
# 6 0.0000 0.0000 0.0000 0.0000 0.0000 31.9259
#
#
#
# Elastic Compliance Matrix: (Units=1/GPa)
#
#
# Indices 1 2 3 4 5 6 
#
# 1 0.016403 -0.002161 -0.002910 0.000000 0.000000 0.000000
# 2 -0.002161 0.017507 0.002926 0.000000 0.000000 0.000000
# 3 -0.002910 0.002926 0.015543 0.000000 0.000000 0.000000
# 4 0.000000 0.000000 0.000000 -0.148916 0.000000 0.000000
# 5 0.000000 0.000000 0.000000 0.000000 0.036340 0.000000
# 6 0.000000 0.000000 0.000000 0.000000 0.000000 0.031323
#
#
# Mechanical properties :
#
#
# Convention : Reuss Voigt Hill
#
# Bulk Modulus (GPa) = 22.14177 22.77826 22.46001
# Shear Modulus (GPa) = -401.45481 22.86011 -189.29735
#
# Velocity S-wave (km/s) = -14.28441 3.40866 -9.80881
# Velocity P-wave (km/s) = 16.14947 5.20281 10.81055
#
# Compressibility (1/GPa) = 0.04516351
#
# Stress axis : x y z
#
# Youngs Moduli (GPa) = 60.96399 57.11856 64.33705
#
# Poissons Ratio (x) = 0.12343 0.18725
# Poissons Ratio (y) = 0.13174 -0.18827
# Poissons Ratio (z) = 0.17743 -0.16715
#
# Static dielectric constant tensor:
#      x y z
#    x 1.668620 0.000000 0.000000 
#    y 0.000000 1.671690 0.000000 
#    z 0.000000 0.000000 1.683100 
# 
# From -- ./inp_files/37334.got.cif
#   From: 2010.05.17/outbox.cif.g08.bks.cpg/sg67_19_cif.got.tgz:37334.got - 2010.06.03 18:28:57.
