data_PCOD9503938
_publ_section_title
;
Structure prediction by ZEFSAII (Michael W. Deem and Ramdas Pophale) SiO2 
 PCOD9503938
Probable space group: C M M A
;
_chemical_formula_sum "Si O2"
_cell_formula_units_Z 112
_cell_length_a 16.193788
_cell_length_b 28.676890
_cell_length_c 11.697229
_cell_angle_alpha 90.000000
_cell_angle_beta 90.000000
_cell_angle_gamma 90.000000
_cell_volume 5432.046665
_symmetry_space_group_name_H-M "C M M A"
_symmetry_group_IT_number 67
_symmetry_cell_setting 'orthorhombic'
loop_
_space_group_symop_operation_xyz
x,y,z
-x,1/2-y,z
x,-y,-z
-x,1/2+y,-z
-x,-y,-z
x,1/2+y,-z
-x,y,z
x,1/2-y,z
1/2+x,1/2+y,z
1/2-x,-y,z
1/2+x,1/2-y,-z
1/2-x,y,-z
1/2-x,1/2-y,-z
1/2+x,y,-z
1/2-x,1/2+y,z
1/2+x,-y,z
loop_
_atom_site_type_symbol
_atom_site_label
_atom_site_fract_x
_atom_site_fract_y
_atom_site_fract_z
Si Si1 0.599929 0.611166 0.958173
Si Si2 0.659882 0.519240 0.831639
Si Si3 0.335363 0.890743 0.438179
Si Si4 0.595304 0.419482 0.798543
Si Si5 0.906074 0.961200 0.407182
Si Si6 0.600522 0.196401 0.202261
Si Si7 0.901224 0.695583 0.464993
O O1 0.500000 0.608499 0.949488
O O2 0.635221 0.563218 0.907208
O O3 0.627618 0.656274 0.885761
O O4 0.620112 0.611616 0.092669
O O5 0.750000 0.500000 0.858503
O O6 0.602579 0.473384 0.837055
O O7 0.652235 0.536627 0.701200
O O8 0.250000 0.902728 0.500000
O O9 0.348722 0.910579 0.312128
O O10 0.402192 0.913610 0.523320
O O11 0.352201 0.836063 0.446393
O O12 0.500000 0.409755 0.767432
O O13 0.000000 0.970416 0.368763
O O14 0.882486 0.000000 0.500000
O O15 0.500000 0.196926 0.199714
O O16 0.626860 0.250000 0.177779
O O17 0.623047 0.184196 0.333335
O O18 0.884895 0.750000 0.481847
O O19 0.000000 0.688730 0.476132
#
# Coordination Sequence:
#
# PCOD9503938 Si02
#       7
#    16  16  16  16  16  16  16
#     4  10  21  37  60  87 117 161 207 245 294 358
#     4  12  24  38  58  86 121 158 200 250 302 357
#     4  12  24  38  58  86 120 156 194 248 311 367
#     4  11  23  40  58  81 119 163 203 243 292 360
#     4  11  22  37  60  83 111 154 198 242 293 354
#     4   8  15  32  59  89 115 140 186 250 299 339
#     4   9  18  35  61  88 114 151 200 249 299 360
#
# _framework density 20.618380999999999
#
# number of rings (size 3 to 8) (size 9 to 14) (size 15 to 20)
#    0.000    1.571    1.429    5.571    0.000    3.714 
#    0.000    0.714    0.000    2.571    0.000    4.000 
#    0.000    0.000    0.000    0.000    0.000    0.286 
#
# Total GULP energy -312912.611269 kJ/mol
# GULP energy per Si atom -5587.725201 kJ/mol
# Density = 2.057145 g / cm^3
# Si number density = 20.618381 Si / 1000 Ang^3
#
#
#
# Elastic Constant Matrix: (Units=GPa)
#
#
# Indices 1 2 3 4 5 6 
#
# 1 39.3882 10.3420 39.6284 0.0000 0.0000 0.0000
# 2 10.3420 93.4558 55.7244 0.0000 0.0000 0.0000
# 3 39.6284 55.7244 92.3049 0.0000 0.0000 0.0000
# 4 0.0000 0.0000 0.0000 31.4766 0.0000 0.0000
# 5 0.0000 0.0000 0.0000 0.0000 9.6527 0.0000
# 6 0.0000 0.0000 0.0000 0.0000 0.0000 12.8149
#
#
#
# Elastic Compliance Matrix: (Units=1/GPa)
#
#
# Indices 1 2 3 4 5 6 
#
# 1 0.051838 0.011770 -0.029361 0.000000 0.000000 0.000000
# 2 0.011770 0.019391 -0.016759 0.000000 0.000000 0.000000
# 3 -0.029361 -0.016759 0.033557 0.000000 0.000000 0.000000
# 4 0.000000 0.000000 0.000000 0.031770 0.000000 0.000000
# 5 0.000000 0.000000 0.000000 0.000000 0.103598 0.000000
# 6 0.000000 0.000000 0.000000 0.000000 0.000000 0.078034
#
#
# Mechanical properties :
#
#
# Convention : Reuss Voigt Hill
#
# Bulk Modulus (GPa) = 27.71221 48.50431 38.10826
# Shear Modulus (GPa) = 12.53401 18.75245 15.64323
#
# Velocity S-wave (km/s) = 2.46825 3.01907 2.75744
# Velocity P-wave (km/s) = 4.64680 5.97736 5.35358
#
# Compressibility (1/GPa) = 0.03608518
#
# Stress axis : x y z
#
# Youngs Moduli (GPa) = 19.29101 51.57088 29.80047
#
# Poissons Ratio (x) = -0.60700 0.87496
# Poissons Ratio (y) = -0.22706 0.49944
# Poissons Ratio (z) = 0.56640 0.86430
#
# Static dielectric constant tensor:
#      x y z
#    x 1.768220 0.000000 0.000000 
#    y 0.000000 1.776860 0.000000 
#    z 0.000000 0.000000 1.731280 
# 
# From -- ./inp_files/18577.got.cif
#   From: 2010.05.17/outbox.cif.g08.bks.cpg/sg67_10_cif.got.tgz:18577.got - 2010.06.03 18:28:57.
