data_PCOD9503098
_publ_section_title
;
Structure prediction by ZEFSAII (Michael W. Deem and Ramdas Pophale) SiO2 
 PCOD9503098
Probable space group: C M M A
;
_chemical_formula_sum "Si O2"
_cell_formula_units_Z 80
_cell_length_a 18.382863
_cell_length_b 14.095997
_cell_length_c 16.146030
_cell_angle_alpha 90.000000
_cell_angle_beta 90.000000
_cell_angle_gamma 90.000000
_cell_volume 4183.836499
_symmetry_space_group_name_H-M "C M M A"
_symmetry_group_IT_number 67
_symmetry_cell_setting 'orthorhombic'
loop_
_space_group_symop_operation_xyz
x,y,z
-x,1/2-y,z
x,-y,-z
-x,1/2+y,-z
-x,-y,-z
x,1/2+y,-z
-x,y,z
x,1/2-y,z
1/2+x,1/2+y,z
1/2-x,-y,z
1/2+x,1/2-y,-z
1/2-x,y,-z
1/2-x,1/2-y,-z
1/2+x,y,-z
1/2-x,1/2+y,z
1/2+x,-y,z
loop_
_atom_site_type_symbol
_atom_site_label
_atom_site_fract_x
_atom_site_fract_y
_atom_site_fract_z
Si Si1 0.338180 0.642998 0.015687
Si Si2 0.784457 0.639907 0.589924
Si Si3 0.856717 0.860707 0.295880
Si Si4 0.662516 0.012237 0.136869
Si Si5 0.578295 0.490208 0.598321
O O1 0.363898 0.750000 0.013586
O O2 0.358823 0.591273 0.101618
O O3 0.250000 0.643655 0.000000
O O4 0.362283 0.581115 0.937647
O O5 0.806951 0.750000 0.581386
O O6 0.750000 0.612439 0.500000
O O7 0.722100 0.634186 0.659520
O O8 0.852002 0.575154 0.615824
O O9 0.869920 0.750000 0.274738
O O10 0.860650 0.934000 0.219605
O O11 0.910422 0.905882 0.363074
O O12 0.750000 0.000000 0.141710
O O13 0.577325 0.500000 0.500000
O O14 0.500000 0.451288 0.626250
#
# Coordination Sequence:
#
# PCOD9503098 Si02
#       5
#    16  16  16  16  16
#     4   8  14  25  43  69 106 145 180 220 277 338
#     4  10  20  36  57  79 105 141 182 228 276 326
#     4  11  22  35  55  81 110 146 191 235 278 332
#     4   9  16  27  45  73 108 146 181 227 278 331
#     4  11  23  37  56  79 108 146 182 227 280 331
#
# _framework density 19.121206999999998
#
# number of rings (size 3 to 8) (size 9 to 14) (size 15 to 20)
#    0.000    2.200    2.000    3.600    0.000    1.600 
#    0.000    3.000    0.000    0.000    0.000    2.800 
#    0.000    1.600    0.000    4.000    0.000    0.800 
#
# Total GULP energy -222723.664670 kJ/mol
# GULP energy per Si atom -5568.091617 kJ/mol
# Density = 1.907769 g / cm^3
# Si number density = 19.121207 Si / 1000 Ang^3
#
#
#
# Elastic Constant Matrix: (Units=GPa)
#
#
# Indices 1 2 3 4 5 6 
#
# 1 53.2481 23.1994 2.1480 0.0000 0.0000 0.0000
# 2 23.1994 124.6649 38.2725 0.0000 0.0000 0.0000
# 3 2.1480 38.2725 88.9438 0.0000 0.0000 0.0000
# 4 0.0000 0.0000 0.0000 25.0523 0.0000 0.0000
# 5 0.0000 0.0000 0.0000 0.0000 -19.4553 0.0000
# 6 0.0000 0.0000 0.0000 0.0000 0.0000 -1.7698
#
#
#
# Elastic Compliance Matrix: (Units=1/GPa)
#
#
# Indices 1 2 3 4 5 6 
#
# 1 0.020572 -0.004235 0.001326 0.000000 0.000000 0.000000
# 2 -0.004235 0.010114 -0.004250 0.000000 0.000000 0.000000
# 3 0.001326 -0.004250 0.013040 0.000000 0.000000 0.000000
# 4 0.000000 0.000000 0.000000 0.039917 0.000000 0.000000
# 5 0.000000 0.000000 0.000000 0.000000 -0.051400 0.000000
# 6 0.000000 0.000000 0.000000 0.000000 0.000000 -0.565029
#
#
# Mechanical properties :
#
#
# Convention : Reuss Voigt Hill
#
# Bulk Modulus (GPa) = 34.00573 43.78851 38.89712
# Shear Modulus (GPa) = -9.82965 14.31457 2.24246
#
# Velocity S-wave (km/s) = -2.26977 2.73907 1.08412
# Velocity P-wave (km/s) = 3.30965 5.74052 4.68547
#
# Compressibility (1/GPa) = 0.02940681
#
# Stress axis : x y z
#
# Youngs Moduli (GPa) = 48.61032 98.86891 76.68831
#
# Poissons Ratio (x) = 0.41873 -0.10166
# Poissons Ratio (y) = 0.20588 0.32592
# Poissons Ratio (z) = -0.06444 0.42019
#
# Static dielectric constant tensor:
#      x y z
#    x 1.679340 0.000000 0.000000 
#    y 0.000000 1.689880 0.000000 
#    z 0.000000 0.000000 1.696280 
# 
# From -- ./inp_files/26975.got.cif
#   From: 2010.05.17/outbox.cif.g08.bks.cpg/sg67_14_cif.got.tgz:26975.got - 2010.06.03 18:28:57.
