data_PCOD9503149
_publ_section_title
;
Structure prediction by ZEFSAII (Michael W. Deem and Ramdas Pophale) SiO2 
 PCOD9503149
Probable space group: C M M A
;
_chemical_formula_sum "Si O2"
_cell_formula_units_Z 88
_cell_length_a 8.605640
_cell_length_b 22.584556
_cell_length_c 24.346873
_cell_angle_alpha 90.000000
_cell_angle_beta 90.000000
_cell_angle_gamma 90.000000
_cell_volume 4731.925753
_symmetry_space_group_name_H-M "C M M A"
_symmetry_group_IT_number 67
_symmetry_cell_setting 'orthorhombic'
loop_
_space_group_symop_operation_xyz
x,y,z
-x,1/2-y,z
x,-y,-z
-x,1/2+y,-z
-x,-y,-z
x,1/2+y,-z
-x,y,z
x,1/2-y,z
1/2+x,1/2+y,z
1/2-x,-y,z
1/2+x,1/2-y,-z
1/2-x,y,-z
1/2-x,1/2-y,-z
1/2+x,y,-z
1/2-x,1/2+y,z
1/2+x,-y,z
loop_
_atom_site_type_symbol
_atom_site_label
_atom_site_fract_x
_atom_site_fract_y
_atom_site_fract_z
Si Si1 0.184227 0.648125 0.859348
Si Si2 0.685337 0.180971 0.623613
Si Si3 0.322078 0.320458 0.256416
Si Si4 0.815029 0.250000 0.938138
Si Si5 0.314054 0.565752 0.944298
Si Si6 0.686490 0.063950 0.437787
O O1 0.247744 0.652534 0.797903
O O2 0.258635 0.695639 0.900859
O O3 0.239373 0.589177 0.888747
O O4 0.000000 0.655551 0.858959
O O5 0.500000 0.179271 0.615583
O O6 0.736241 0.250000 0.610144
O O7 0.727761 0.171064 0.687540
O O8 0.759513 0.125097 0.591571
O O9 0.500000 0.340564 0.264062
O O10 0.324846 0.250000 0.246273
O O11 0.000000 0.250000 0.941721
O O12 0.750000 0.250000 0.000000
O O13 0.500000 0.569145 0.944131
O O14 0.250000 0.500000 0.947615
O O15 0.250000 0.596996 0.000000
O O16 0.500000 0.061401 0.437536
O O17 0.750000 0.067339 0.500000
O O18 0.750000 0.000000 0.415383
#
# Coordination Sequence:
#
# PCOD9503149 Si02
#       6
#    16  16  16   8  16  16
#     4  12  23  37  57  82 111 146 185 229 283 343
#     4  10  21  38  61  90 124 162 207 254 302 358
#     4  10  20  36  58  84 116 153 194 238 289 345
#     4  12  24  38  54  80 112 144 181 230 285 342
#     4  11  22  39  59  80 106 139 181 228 282 342
#     4  11  22  39  63  91 126 166 208 253 308 366
#
# _framework density 18.597079999999998
#
# number of rings (size 3 to 8) (size 9 to 14) (size 15 to 20)
#    0.000    1.091    0.909    8.455    0.000    2.182 
#    0.000    0.909    0.000    0.000    0.000    0.000 
#    0.000    0.000    0.000    0.000    0.000    0.000 
#
# Total GULP energy -245495.401241 kJ/mol
# GULP energy per Si atom -5579.440937 kJ/mol
# Density = 1.855475 g / cm^3
# Si number density = 18.597080 Si / 1000 Ang^3
#
#
#
# Elastic Constant Matrix: (Units=GPa)
#
#
# Indices 1 2 3 4 5 6 
#
# 1 131.4590 38.0507 29.7362 0.0000 0.0000 0.0000
# 2 38.0507 116.8878 63.4066 0.0000 0.0000 0.0000
# 3 29.7362 63.4066 95.8070 0.0000 0.0000 0.0000
# 4 0.0000 0.0000 0.0000 -3.3405 0.0000 0.0000
# 5 0.0000 0.0000 0.0000 0.0000 31.4967 0.0000
# 6 0.0000 0.0000 0.0000 0.0000 0.0000 71.9833
#
#
#
# Elastic Compliance Matrix: (Units=1/GPa)
#
#
# Indices 1 2 3 4 5 6 
#
# 1 0.008494 -0.002083 -0.001258 0.000000 0.000000 0.000000
# 2 -0.002083 0.013857 -0.008525 0.000000 0.000000 0.000000
# 3 -0.001258 -0.008525 0.016470 0.000000 0.000000 0.000000
# 4 0.000000 0.000000 0.000000 -0.299352 0.000000 0.000000
# 5 0.000000 0.000000 0.000000 0.000000 0.031749 0.000000
# 6 0.000000 0.000000 0.000000 0.000000 0.000000 0.013892
#
#
# Mechanical properties :
#
#
# Convention : Reuss Voigt Hill
#
# Bulk Modulus (GPa) = 66.26555 67.39339 66.82947
# Shear Modulus (GPa) = -26.86329 34.22524 3.68098
#
# Velocity S-wave (km/s) = -3.80477 4.29459 1.40841
# Velocity P-wave (km/s) = 4.05067 7.80440 6.21758
#
# Compressibility (1/GPa) = 0.01509080
#
# Stress axis : x y z
#
# Youngs Moduli (GPa) = 117.72526 72.16320 60.71688
#
# Poissons Ratio (x) = 0.15030 0.07638
# Poissons Ratio (y) = 0.24519 0.51759
# Poissons Ratio (z) = 0.14810 0.61517
#
# Static dielectric constant tensor:
#      x y z
#    x 1.629130 0.000000 0.000000 
#    y 0.000000 1.713540 0.000000 
#    z 0.000000 0.000000 1.608250 
# 
# From -- ./inp_files/36961.got.cif
#   From: 2010.05.17/outbox.cif.g08.bks.cpg/sg67_19_cif.got.tgz:36961.got - 2010.06.03 18:28:57.
