data_PCOD9503790
_publ_section_title
;
Structure prediction by ZEFSAII (Michael W. Deem and Ramdas Pophale) SiO2 
 PCOD9503790
Probable space group: C M M A
;
_chemical_formula_sum "Si O2"
_cell_formula_units_Z 112
_cell_length_a 23.449182
_cell_length_b 15.907376
_cell_length_c 14.380300
_cell_angle_alpha 90.000000
_cell_angle_beta 90.000000
_cell_angle_gamma 90.000000
_cell_volume 5364.066957
_symmetry_space_group_name_H-M "C M M A"
_symmetry_group_IT_number 67
_symmetry_cell_setting 'orthorhombic'
loop_
_space_group_symop_operation_xyz
x,y,z
-x,1/2-y,z
x,-y,-z
-x,1/2+y,-z
-x,-y,-z
x,1/2+y,-z
-x,y,z
x,1/2-y,z
1/2+x,1/2+y,z
1/2-x,-y,z
1/2+x,1/2-y,-z
1/2-x,y,-z
1/2-x,1/2-y,-z
1/2+x,y,-z
1/2-x,1/2+y,z
1/2+x,-y,z
loop_
_atom_site_type_symbol
_atom_site_label
_atom_site_fract_x
_atom_site_fract_y
_atom_site_fract_z
Si Si1 0.368724 0.155257 0.417828
Si Si2 0.566918 0.484733 0.297378
Si Si3 0.375323 0.154798 0.636328
Si Si4 0.245093 0.599940 0.343375
Si Si5 0.838666 0.844902 0.962950
Si Si6 0.227711 0.404760 0.868461
Si Si7 0.563672 0.040917 0.898368
O O1 0.381727 0.250000 0.385094
O O2 0.398740 0.083681 0.356591
O O3 0.385681 0.148807 0.525542
O O4 0.300759 0.140062 0.411819
O O5 0.500000 0.478567 0.319673
O O6 0.590241 0.578274 0.318558
O O7 0.574378 0.476638 0.186090
O O8 0.389620 0.250000 0.667096
O O9 0.308007 0.138510 0.653403
O O10 0.250000 0.500000 0.361099
O O11 0.219001 0.611401 0.239805
O O12 0.855157 0.750000 0.982473
O O13 0.779946 0.848671 0.905211
O O14 0.886518 0.891445 0.904048
O O15 0.823768 0.890178 0.060529
O O16 0.250000 0.500000 0.878003
O O17 0.500000 0.076352 0.881036
O O18 0.562918 0.000000 0.000000
#
# Coordination Sequence:
#
# PCOD9503790 Si02
#       7
#    16  16  16  16  16  16  16
#     4  11  25  42  65  98 133 171 215 268 328 389
#     4  11  25  45  69  95 126 171 223 271 324 389
#     4  11  24  42  66  98 135 171 212 269 329 384
#     4  11  22  37  64  95 130 174 214 258 318 391
#     4  11  22  35  57  88 124 159 203 259 312 372
#     4  10  21  36  57  87 123 167 208 248 306 374
#     4  10  23  43  65  87 119 163 209 259 317 375
#
# _framework density 20.879678999999999
#
# number of rings (size 3 to 8) (size 9 to 14) (size 15 to 20)
#    0.000    1.286    1.429    4.714    4.000    7.714 
#    0.000    2.857    0.000    2.571    0.000    0.000 
#    0.000    0.000    0.000    0.000    0.000    0.000 
#
# Total GULP energy -313125.027529 kJ/mol
# GULP energy per Si atom -5591.518349 kJ/mol
# Density = 2.083216 g / cm^3
# Si number density = 20.879679 Si / 1000 Ang^3
#
#
#
# Elastic Constant Matrix: (Units=GPa)
#
#
# Indices 1 2 3 4 5 6 
#
# 1 90.9574 19.9050 9.5626 0.0000 0.0000 0.0000
# 2 19.9050 95.9513 25.9213 0.0000 0.0000 0.0000
# 3 9.5626 25.9213 67.7978 0.0000 0.0000 0.0000
# 4 0.0000 0.0000 0.0000 -67.3986 0.0000 0.0000
# 5 0.0000 0.0000 0.0000 0.0000 25.7570 0.0000
# 6 0.0000 0.0000 0.0000 0.0000 0.0000 -10.4313
#
#
#
# Elastic Compliance Matrix: (Units=1/GPa)
#
#
# Indices 1 2 3 4 5 6 
#
# 1 0.011555 -0.002182 -0.000795 0.000000 0.000000 0.000000
# 2 -0.002182 0.012035 -0.004293 0.000000 0.000000 0.000000
# 3 -0.000795 -0.004293 0.016503 0.000000 0.000000 0.000000
# 4 0.000000 0.000000 0.000000 -0.014837 0.000000 0.000000
# 5 0.000000 0.000000 0.000000 0.000000 0.038824 0.000000
# 6 0.000000 0.000000 0.000000 0.000000 0.000000 -0.095865
#
#
# Mechanical properties :
#
#
# Convention : Reuss Voigt Hill
#
# Bulk Modulus (GPa) = 39.13731 40.60936 39.87333
# Shear Modulus (GPa) = -573.05892 2.87326 -285.09283
#
# Velocity S-wave (km/s) = -16.58474 1.17435 -11.69774
# Velocity P-wave (km/s) = 18.65350 4.61847 12.77934
#
# Compressibility (1/GPa) = 0.02555107
#
# Stress axis : x y z
#
# Youngs Moduli (GPa) = 86.54004 83.09435 60.59339
#
# Poissons Ratio (x) = 0.18133 0.04820
# Poissons Ratio (y) = 0.18885 0.26015
# Poissons Ratio (z) = 0.06884 0.35676
#
# Static dielectric constant tensor:
#      x y z
#    x 1.744100 0.000000 0.000000 
#    y 0.000000 1.750060 0.000000 
#    z 0.000000 0.000000 1.785720 
# 
# From -- ./inp_files/30164.got.cif
#   From: 2010.05.17/outbox.cif.g08.bks.cpg/sg67_16_cif.got.tgz:30164.got - 2010.06.03 18:28:57.
