data_PCOD9503550
_publ_section_title
;
Structure prediction by ZEFSAII (Michael W. Deem and Ramdas Pophale) SiO2 
 PCOD9503550
Probable space group: C M M A
;
_chemical_formula_sum "Si O2"
_cell_formula_units_Z 112
_cell_length_a 29.753655
_cell_length_b 14.720265
_cell_length_c 11.641961
_cell_angle_alpha 90.000000
_cell_angle_beta 90.000000
_cell_angle_gamma 90.000000
_cell_volume 5098.965711
_symmetry_space_group_name_H-M "C M M A"
_symmetry_group_IT_number 67
_symmetry_cell_setting 'orthorhombic'
loop_
_space_group_symop_operation_xyz
x,y,z
-x,1/2-y,z
x,-y,-z
-x,1/2+y,-z
-x,-y,-z
x,1/2+y,-z
-x,y,z
x,1/2-y,z
1/2+x,1/2+y,z
1/2-x,-y,z
1/2+x,1/2-y,-z
1/2-x,y,-z
1/2-x,1/2-y,-z
1/2+x,y,-z
1/2-x,1/2+y,z
1/2+x,-y,z
loop_
_atom_site_type_symbol
_atom_site_label
_atom_site_fract_x
_atom_site_fract_y
_atom_site_fract_z
Si Si1 0.314249 0.353543 0.018862
Si Si2 0.233463 0.597582 0.815476
Si Si3 0.381815 0.523779 0.379358
Si Si4 0.205762 0.147746 0.426718
Si Si5 0.946510 0.147022 0.224143
Si Si6 0.448577 0.893089 0.973511
Si Si7 0.383663 0.355940 0.214956
O O1 0.318375 0.250000 0.977982
O O2 0.271884 0.360041 0.105048
O O3 0.354414 0.376784 0.101676
O O4 0.306962 0.413714 0.906407
O O5 0.250000 0.500000 0.775614
O O6 0.221872 0.653114 0.704731
O O7 0.404949 0.500000 0.500000
O O8 0.336699 0.579705 0.416017
O O9 0.414329 0.582987 0.298627
O O10 0.372365 0.429568 0.311559
O O11 0.193059 0.250000 0.466956
O O12 0.250000 0.118661 0.500000
O O13 0.944155 0.250000 0.268489
O O14 0.000000 0.119496 0.225596
O O15 0.929221 0.148173 0.091812
O O16 0.500000 0.864419 0.975437
O O17 0.431441 0.869111 0.846536
O O18 0.445283 0.000000 0.000000
O O19 0.376419 0.250000 0.247898
#
# Coordination Sequence:
#
# PCOD9503550 Si02
#       7
#    16  16  16  16  16  16  16
#     4  10  21  37  58  89 126 163 210 269 335 408
#     4  11  22  37  62  90 123 163 214 271 338 411
#     4  12  28  46  69  99 139 183 242 298 349 422
#     4  11  27  47  70  95 129 181 238 297 354 416
#     4  10  22  44  75 108 142 182 230 289 356 426
#     4  10  20  39  70 107 146 186 227 278 350 431
#     4  11  25  42  66 101 143 185 228 285 355 429
#
# _framework density 21.965237999999999
#
# number of rings (size 3 to 8) (size 9 to 14) (size 15 to 20)
#    0.000    1.286    1.429    4.286    6.000    3.429 
#    0.000    0.000    0.000    0.429    0.000    0.000 
#    0.000    0.000    0.000    0.000    0.000    0.000 
#
# Total GULP energy -312647.360664 kJ/mol
# GULP energy per Si atom -5582.988583 kJ/mol
# Density = 2.191524 g / cm^3
# Si number density = 21.965238 Si / 1000 Ang^3
#
#
#
# Elastic Constant Matrix: (Units=GPa)
#
#
# Indices 1 2 3 4 5 6 
#
# 1 60.6758 32.9819 29.6788 0.0000 0.0000 0.0000
# 2 32.9819 130.4575 39.8771 0.0000 0.0000 0.0000
# 3 29.6788 39.8771 100.0924 0.0000 0.0000 0.0000
# 4 0.0000 0.0000 0.0000 52.5885 0.0000 0.0000
# 5 0.0000 0.0000 0.0000 0.0000 25.8947 0.0000
# 6 0.0000 0.0000 0.0000 0.0000 0.0000 2.9835
#
#
#
# Elastic Compliance Matrix: (Units=1/GPa)
#
#
# Indices 1 2 3 4 5 6 
#
# 1 0.020847 -0.003850 -0.004648 0.000000 0.000000 0.000000
# 2 -0.003850 0.009439 -0.002619 0.000000 0.000000 0.000000
# 3 -0.004648 -0.002619 0.012412 0.000000 0.000000 0.000000
# 4 0.000000 0.000000 0.000000 0.019016 0.000000 0.000000
# 5 0.000000 0.000000 0.000000 0.000000 0.038618 0.000000
# 6 0.000000 0.000000 0.000000 0.000000 0.000000 0.335174
#
#
# Mechanical properties :
#
#
# Convention : Reuss Voigt Hill
#
# Bulk Modulus (GPa) = 48.86289 55.14460 52.00374
# Shear Modulus (GPa) = 10.76284 28.87254 19.81769
#
# Velocity S-wave (km/s) = 2.21598 3.62949 3.00697
# Velocity P-wave (km/s) = 5.37041 6.53637 5.98187
#
# Compressibility (1/GPa) = 0.02046543
#
# Stress axis : x y z
#
# Youngs Moduli (GPa) = 47.96841 105.94106 80.56519
#
# Poissons Ratio (x) = 0.40786 0.37444
# Poissons Ratio (y) = 0.18467 0.21101
# Poissons Ratio (z) = 0.22294 0.27747
#
# Static dielectric constant tensor:
#      x y z
#    x 2.034890 0.000000 0.000000 
#    y 0.000000 1.975950 0.000000 
#    z 0.000000 0.000000 1.749000 
# 
# From -- ./inp_files/23854.got.cif
#   From: 2010.05.17/outbox.cif.g08.bks.cpg/sg67_12_cif.got.tgz:23854.got - 2010.06.03 18:28:57.
