data_PCOD9503401
_publ_section_title
;
Structure prediction by ZEFSAII (Michael W. Deem and Ramdas Pophale) SiO2 
 PCOD9503401
Probable space group: C M M A
;
_chemical_formula_sum "Si O2"
_cell_formula_units_Z 96
_cell_length_a 13.036985
_cell_length_b 21.879949
_cell_length_c 15.386650
_cell_angle_alpha 90.000000
_cell_angle_beta 90.000000
_cell_angle_gamma 90.000000
_cell_volume 4389.019862
_symmetry_space_group_name_H-M "C M M A"
_symmetry_group_IT_number 67
_symmetry_cell_setting 'orthorhombic'
loop_
_space_group_symop_operation_xyz
x,y,z
-x,1/2-y,z
x,-y,-z
-x,1/2+y,-z
-x,-y,-z
x,1/2+y,-z
-x,y,z
x,1/2-y,z
1/2+x,1/2+y,z
1/2-x,-y,z
1/2+x,1/2-y,-z
1/2-x,y,-z
1/2-x,1/2-y,-z
1/2+x,y,-z
1/2-x,1/2+y,z
1/2+x,-y,z
loop_
_atom_site_type_symbol
_atom_site_label
_atom_site_fract_x
_atom_site_fract_y
_atom_site_fract_z
Si Si1 0.879453 0.128921 0.450727
Si Si2 0.383668 0.250000 0.636988
Si Si3 0.121798 0.824091 0.351174
Si Si4 0.686642 0.618725 0.128096
Si Si5 0.387646 0.066369 0.041828
Si Si6 0.774113 0.571030 0.698149
Si Si7 0.619717 0.750000 0.156991
O O1 0.839155 0.187936 0.398196
O O2 0.868305 0.149412 0.550044
O O3 0.822112 0.075567 0.398917
O O4 0.000000 0.118989 0.435850
O O5 0.500000 0.250000 0.600383
O O6 0.388027 0.250000 0.738988
O O7 0.148469 0.750000 0.344778
O O8 0.184636 0.876374 0.298159
O O9 0.000000 0.826639 0.329888
O O10 0.795524 0.588106 0.102893
O O11 0.653373 0.591750 0.221366
O O12 0.684753 0.691024 0.133426
O O13 0.615496 0.605999 0.045630
O O14 0.500000 0.067875 0.083461
O O15 0.369396 0.000000 0.000000
O O16 0.750000 0.500000 0.713354
O O17 0.500000 0.750000 0.125501
#
# Coordination Sequence:
#
# PCOD9503401 Si02
#       7
#    16   8  16  16  16  16   8
#     4  10  20  37  63  90 119 161 216 268 310 363
#     4   9  16  32  57  90 117 150 207 259 304 353
#     4  10  23  42  64  88 123 172 223 267 314 379
#     4  11  23  41  65  93 126 162 208 261 316 379
#     4  10  22  43  69  93 123 167 211 251 305 380
#     4  12  26  39  60  94 130 166 207 262 326 381
#     4  11  22  37  63  99 130 159 204 266 326 378
#
# _framework density 21.872765000000001
#
# number of rings (size 3 to 8) (size 9 to 14) (size 15 to 20)
#    0.000    1.500    2.500    3.000    2.333    5.333 
#    0.000    2.917    0.000    0.000    0.000    0.000 
#    0.000    0.000    0.000    0.000    0.000    0.000 
#
# Total GULP energy -267549.719237 kJ/mol
# GULP energy per Si atom -5573.952484 kJ/mol
# Density = 2.182298 g / cm^3
# Si number density = 21.872765 Si / 1000 Ang^3
#
#
#
# Elastic Constant Matrix: (Units=GPa)
#
#
# Indices 1 2 3 4 5 6 
#
# 1 109.2804 17.8195 0.0577 0.0000 0.0000 0.0000
# 2 17.8195 134.2577 15.6067 0.0000 0.0000 0.0000
# 3 0.0577 15.6067 52.9386 0.0000 0.0000 0.0000
# 4 0.0000 0.0000 0.0000 91.1788 0.0000 0.0000
# 5 0.0000 0.0000 0.0000 0.0000 65.0611 0.0000
# 6 0.0000 0.0000 0.0000 0.0000 0.0000 20.1725
#
#
#
# Elastic Compliance Matrix: (Units=1/GPa)
#
#
# Indices 1 2 3 4 5 6 
#
# 1 0.009360 -0.001285 0.000369 0.000000 0.000000 0.000000
# 2 -0.001285 0.007889 -0.002324 0.000000 0.000000 0.000000
# 3 0.000369 -0.002324 0.019575 0.000000 0.000000 0.000000
# 4 0.000000 0.000000 0.000000 0.010967 0.000000 0.000000
# 5 0.000000 0.000000 0.000000 0.000000 0.015370 0.000000
# 6 0.000000 0.000000 0.000000 0.000000 0.000000 0.049572
#
#
# Mechanical properties :
#
#
# Convention : Reuss Voigt Hill
#
# Bulk Modulus (GPa) = 32.95744 40.38272 36.67008
# Shear Modulus (GPa) = 38.66083 52.81533 45.73808
#
# Velocity S-wave (km/s) = 4.20876 4.91925 4.57781
# Velocity P-wave (km/s) = 6.22244 7.12517 6.68905
#
# Compressibility (1/GPa) = 0.03034217
#
# Stress axis : x y z
#
# Youngs Moduli (GPa) = 106.83599 126.75656 51.08645
#
# Poissons Ratio (x) = 0.16291 -0.01883
# Poissons Ratio (y) = 0.13730 0.11874
# Poissons Ratio (z) = -0.03939 0.29463
#
# Static dielectric constant tensor:
#      x y z
#    x 1.897650 0.000000 0.000000 
#    y 0.000000 2.018620 0.000000 
#    z 0.000000 0.000000 1.814400 
# 
# From -- ./inp_files/27264.got.cif
#   From: 2010.05.17/outbox.cif.g08.bks.cpg/sg67_14_cif.got.tgz:27264.got - 2010.06.03 18:28:57.
