data_PCOD9503721
_publ_section_title
;
Structure prediction by ZEFSAII (Michael W. Deem and Ramdas Pophale) SiO2 
 PCOD9503721
Probable space group: C M M A
;
_chemical_formula_sum "Si O2"
_cell_formula_units_Z 96
_cell_length_a 8.999038
_cell_length_b 19.018805
_cell_length_c 31.297539
_cell_angle_alpha 90.000000
_cell_angle_beta 90.000000
_cell_angle_gamma 90.000000
_cell_volume 5356.603498
_symmetry_space_group_name_H-M "C M M A"
_symmetry_group_IT_number 67
_symmetry_cell_setting 'orthorhombic'
loop_
_space_group_symop_operation_xyz
x,y,z
-x,1/2-y,z
x,-y,-z
-x,1/2+y,-z
-x,-y,-z
x,1/2+y,-z
-x,y,z
x,1/2-y,z
1/2+x,1/2+y,z
1/2-x,-y,z
1/2+x,1/2-y,-z
1/2-x,y,-z
1/2-x,1/2-y,-z
1/2+x,y,-z
1/2-x,1/2+y,z
1/2+x,-y,z
loop_
_atom_site_type_symbol
_atom_site_label
_atom_site_fract_x
_atom_site_fract_y
_atom_site_fract_z
Si Si1 0.821157 0.668326 0.045339
Si Si2 0.677267 0.423793 0.716924
Si Si3 0.821061 0.831950 0.210161
Si Si4 0.826007 0.165590 0.544547
Si Si5 0.820653 0.423238 0.873031
Si Si6 0.822729 0.575992 0.617854
O O1 0.781645 0.750000 0.054529
O O2 0.775069 0.617834 0.083933
O O3 0.000000 0.665157 0.041866
O O4 0.750000 0.648898 0.000000
O O5 0.500000 0.429095 0.722240
O O6 0.750000 0.500000 0.725405
O O7 0.744485 0.367458 0.749207
O O8 0.708543 0.405199 0.667384
O O9 0.781630 0.750000 0.205578
O O10 0.780064 0.876153 0.167994
O O11 0.000000 0.836238 0.214863
O O12 0.813147 0.250000 0.547647
O O13 0.750000 0.143673 0.500000
O O14 0.746010 0.129992 0.584461
O O15 0.000000 0.147202 0.544035
O O16 0.750000 0.500000 0.870526
O O17 0.000000 0.429394 0.873474
O O18 0.750000 0.500000 0.610218
O O19 0.000000 0.571849 0.612675
#
# Coordination Sequence:
#
# PCOD9503721 Si02
#       6
#    16  16  16  16  16  16
#     4   9  18  34  55  77 103 136 174 216 262 313
#     4  10  21  37  57  81 110 143 178 220 269 319
#     4  10  21  37  57  80 107 141 180 221 267 320
#     4  10  21  37  57  81 110 144 182 224 270 320
#     4  10  21  36  54  77 106 140 177 218 265 316
#     4  10  21  37  57  81 110 143 180 222 268 319
#
# _framework density 17.921804999999999
#
# number of rings (size 3 to 8) (size 9 to 14) (size 15 to 20)
#    0.000    2.167    0.000    2.500    0.000    9.333 
#    0.000    6.667    0.000    3.000    0.000    0.000 
#    0.000    0.000    0.000    0.000    0.000    0.000 
#
# Total GULP energy -268040.440999 kJ/mol
# GULP energy per Si atom -5584.175854 kJ/mol
# Density = 1.788101 g / cm^3
# Si number density = 17.921805 Si / 1000 Ang^3
#
#
#
# Elastic Constant Matrix: (Units=GPa)
#
#
# Indices 1 2 3 4 5 6 
#
# 1 58.9705 58.2794 69.4034 0.0000 0.0000 0.0000
# 2 58.2794 120.1282 103.2499 0.0000 0.0000 0.0000
# 3 69.4034 103.2499 143.6223 0.0000 0.0000 0.0000
# 4 0.0000 0.0000 0.0000 40.8536 0.0000 0.0000
# 5 0.0000 0.0000 0.0000 0.0000 34.2140 0.0000
# 6 0.0000 0.0000 0.0000 0.0000 0.0000 33.5793
#
#
#
# Elastic Compliance Matrix: (Units=1/GPa)
#
#
# Indices 1 2 3 4 5 6 
#
# 1 0.041840 -0.007643 -0.014724 0.000000 0.000000 0.000000
# 2 -0.007643 0.023182 -0.012972 0.000000 0.000000 0.000000
# 3 -0.014724 -0.012972 0.023403 0.000000 0.000000 0.000000
# 4 0.000000 0.000000 0.000000 0.024478 0.000000 0.000000
# 5 0.000000 0.000000 0.000000 0.000000 0.029228 0.000000
# 6 0.000000 0.000000 0.000000 0.000000 0.000000 0.029780
#
#
# Mechanical properties :
#
#
# Convention : Reuss Voigt Hill
#
# Bulk Modulus (GPa) = 56.34712 87.17626 71.76169
# Shear Modulus (GPa) = 20.12032 27.84860 23.98446
#
# Velocity S-wave (km/s) = 3.35427 3.94622 3.66222
# Velocity P-wave (km/s) = 6.81984 8.33737 7.61650
#
# Compressibility (1/GPa) = 0.01774714
#
# Stress axis : x y z
#
# Youngs Moduli (GPa) = 23.90045 43.13711 42.72908
#
# Poissons Ratio (x) = 0.32971 0.62914
# Poissons Ratio (y) = 0.18268 0.55428
# Poissons Ratio (z) = 0.35191 0.55957
#
# Static dielectric constant tensor:
#      x y z
#    x 1.599990 0.000000 0.000000 
#    y 0.000000 1.584430 0.000000 
#    z 0.000000 0.000000 1.594070 
# 
# From -- ./inp_files/43472.got.cif
#   From: 2010.05.17/outbox.cif.g08.bks.cpg/sg67_22_cif.got.tgz:43472.got - 2010.06.03 18:28:57.
