data_PCOD9503731
_publ_section_title
;
Structure prediction by ZEFSAII (Michael W. Deem and Ramdas Pophale) SiO2 
 PCOD9503731
Probable space group: C M M A
;
_chemical_formula_sum "Si O2"
_cell_formula_units_Z 96
_cell_length_a 19.616952
_cell_length_b 8.789066
_cell_length_c 31.534652
_cell_angle_alpha 90.000000
_cell_angle_beta 90.000000
_cell_angle_gamma 90.000000
_cell_volume 5437.037118
_symmetry_space_group_name_H-M "C M M A"
_symmetry_group_IT_number 67
_symmetry_cell_setting 'orthorhombic'
loop_
_space_group_symop_operation_xyz
x,y,z
-x,1/2-y,z
x,-y,-z
-x,1/2+y,-z
-x,-y,-z
x,1/2+y,-z
-x,y,z
x,1/2-y,z
1/2+x,1/2+y,z
1/2-x,-y,z
1/2+x,1/2-y,-z
1/2-x,y,-z
1/2-x,1/2-y,-z
1/2+x,y,-z
1/2-x,1/2+y,z
1/2+x,-y,z
loop_
_atom_site_type_symbol
_atom_site_label
_atom_site_fract_x
_atom_site_fract_y
_atom_site_fract_z
Si Si1 0.420212 0.066223 0.117123
Si Si2 0.177246 0.567802 0.953058
Si Si3 0.417111 0.926507 0.456062
Si Si4 0.824614 0.433837 0.708743
Si Si5 0.324615 0.433128 0.194869
Si Si6 0.921182 0.066590 0.632514
O O1 0.500000 0.027716 0.118965
O O2 0.414753 0.250000 0.112407
O O3 0.380165 0.022225 0.160018
O O4 0.381663 0.986900 0.078325
O O5 0.181438 0.750000 0.955012
O O6 0.250000 0.500000 0.938058
O O7 0.165975 0.500000 0.000000
O O8 0.500000 0.938687 0.456431
O O9 0.399179 0.750000 0.455089
O O10 0.392740 0.000000 0.500000
O O11 0.394775 0.006341 0.412644
O O12 0.821758 0.250000 0.707669
O O13 0.750000 0.500000 0.700311
O O14 0.843610 0.478544 0.756968
O O15 0.876833 0.484457 0.672540
O O16 0.319359 0.250000 0.194041
O O17 0.250000 0.500000 0.185216
O O18 0.920332 0.250000 0.631210
O O19 0.000000 0.018145 0.637475
#
# Coordination Sequence:
#
# PCOD9503731 Si02
#       6
#    16  16  16  16  16  16
#     4  10  21  36  54  79 111 143 175 214 261 309
#     4  11  22  38  60  83 108 139 178 219 259 306
#     4   9  16  26  42  65  93 124 158 196 239 288
#     4   9  18  32  50  72  98 130 167 205 247 295
#     4   9  18  33  53  75  99 132 172 211 250 296
#     4   9  17  29  46  69  96 125 159 200 244 290
#
# _framework density 17.656676000000001
#
# number of rings (size 3 to 8) (size 9 to 14) (size 15 to 20)
#    0.000    2.500    0.000    3.000    0.000    6.000 
#    0.000    3.333    0.000    0.500    0.000   10.500 
#    0.000    0.000    0.000    0.000    0.000    0.000 
#
# Total GULP energy -267715.291592 kJ/mol
# GULP energy per Si atom -5577.401908 kJ/mol
# Density = 1.761649 g / cm^3
# Si number density = 17.656676 Si / 1000 Ang^3
#
#
#
# Elastic Constant Matrix: (Units=GPa)
#
#
# Indices 1 2 3 4 5 6 
#
# 1 106.2166 40.5834 100.3585 0.0000 0.0000 0.0000
# 2 40.5834 42.5472 49.0120 0.0000 0.0000 0.0000
# 3 100.3585 49.0120 146.4020 0.0000 0.0000 0.0000
# 4 0.0000 0.0000 0.0000 25.9820 0.0000 0.0000
# 5 0.0000 0.0000 0.0000 0.0000 39.8612 0.0000
# 6 0.0000 0.0000 0.0000 0.0000 0.0000 21.7766
#
#
#
# Elastic Compliance Matrix: (Units=1/GPa)
#
#
# Indices 1 2 3 4 5 6 
#
# 1 0.028126 -0.007517 -0.016764 0.000000 0.000000 0.000000
# 2 -0.007517 0.040266 -0.008327 0.000000 0.000000 0.000000
# 3 -0.016764 -0.008327 0.021110 0.000000 0.000000 0.000000
# 4 0.000000 0.000000 0.000000 0.038488 0.000000 0.000000
# 5 0.000000 0.000000 0.000000 0.000000 0.025087 0.000000
# 6 0.000000 0.000000 0.000000 0.000000 0.000000 0.045921
#
#
# Mechanical properties :
#
#
# Convention : Reuss Voigt Hill
#
# Bulk Modulus (GPa) = 41.17642 75.00818 58.09230
# Shear Modulus (GPa) = 18.36143 24.53807 21.44975
#
# Velocity S-wave (km/s) = 3.22827 3.73196 3.48921
# Velocity P-wave (km/s) = 6.10466 7.81944 7.01465
#
# Compressibility (1/GPa) = 0.02428574
#
# Stress axis : x y z
#
# Youngs Moduli (GPa) = 35.55387 24.83499 47.37072
#
# Poissons Ratio (x) = 0.18668 0.79413
# Poissons Ratio (y) = 0.26725 0.39447
# Poissons Ratio (z) = 0.59603 0.20681
#
# Static dielectric constant tensor:
#      x y z
#    x 1.577430 0.000000 0.000000 
#    y 0.000000 1.595960 0.000000 
#    z 0.000000 0.000000 1.608240 
# 
# From -- ./inp_files/44623.got.cif
#   From: 2010.05.17/outbox.cif.g08.bks.cpg/sg67_23_cif.got.tgz:44623.got - 2010.06.03 18:28:57.
