data_PCOD9503904
_publ_section_title
;
Structure prediction by ZEFSAII (Michael W. Deem and Ramdas Pophale) SiO2 
 PCOD9503904
Probable space group: C M M A
;
_chemical_formula_sum "Si O2"
_cell_formula_units_Z 92
_cell_length_a 9.193724
_cell_length_b 19.778087
_cell_length_c 27.265994
_cell_angle_alpha 90.000000
_cell_angle_beta 90.000000
_cell_angle_gamma 90.000000
_cell_volume 4957.892200
_symmetry_space_group_name_H-M "C M M A"
_symmetry_group_IT_number 67
_symmetry_cell_setting 'orthorhombic'
loop_
_space_group_symop_operation_xyz
x,y,z
-x,1/2-y,z
x,-y,-z
-x,1/2+y,-z
-x,-y,-z
x,1/2+y,-z
-x,y,z
x,1/2-y,z
1/2+x,1/2+y,z
1/2-x,-y,z
1/2+x,1/2-y,-z
1/2-x,y,-z
1/2-x,1/2-y,-z
1/2+x,y,-z
1/2-x,1/2+y,z
1/2+x,-y,z
loop_
_atom_site_type_symbol
_atom_site_label
_atom_site_fract_x
_atom_site_fract_y
_atom_site_fract_z
Si Si1 0.750000 0.103804 0.000000
Si Si2 0.667425 0.170269 0.101161
Si Si3 0.823385 0.070126 0.553479
Si Si4 0.327111 0.069692 0.828816
Si Si5 0.326076 0.669855 0.372080
Si Si6 0.673016 0.569465 0.285093
Si Si7 0.500000 0.000000 0.000000
O O1 0.695948 0.147988 0.045444
O O2 0.623834 0.054215 0.982732
O O3 0.500000 0.152575 0.112937
O O4 0.687186 0.250000 0.106345
O O5 0.770896 0.129141 0.137057
O O6 0.750000 0.079702 0.500000
O O7 0.769857 0.131246 0.587577
O O8 0.000000 0.064900 0.550890
O O9 0.750000 0.000000 0.572264
O O10 0.500000 0.062003 0.832183
O O11 0.287728 0.082607 0.771684
O O12 0.250000 0.000000 0.844003
O O13 0.500000 0.660777 0.382363
O O14 0.298015 0.750000 0.370091
O O15 0.294117 0.631710 0.320872
O O16 0.500000 0.558265 0.286985
O O17 0.750000 0.500000 0.300769
#
# Coordination Sequence:
#
# PCOD9503904 Si02
#       7
#     8  16  16  16  16  16   4
#     4  11  23  42  60  90 114 150 186 238 286 340
#     4  11  25  42  60  85 120 155 189 233 288 344
#     4  11  22  38  60  86 116 151 195 242 290 344
#     4  10  22  38  62  89 117 151 194 240 285 339
#     4  10  21  37  58  84 118 157 193 236 288 343
#     4   9  19  37  59  86 114 149 193 240 288 338
#     4  10  24  38  66  90 112 142 194 238 284 330
#
# _framework density 18.556273000000001
#
# number of rings (size 3 to 8) (size 9 to 14) (size 15 to 20)
#    0.000    1.739    0.870    3.391    3.652    4.522 
#    0.000    1.739    0.000    0.000    0.000    0.000 
#    0.000    0.000    0.000    0.000    0.000    0.000 
#
# Total GULP energy -256302.446171 kJ/mol
# GULP energy per Si atom -5571.792308 kJ/mol
# Density = 1.851404 g / cm^3
# Si number density = 18.556273 Si / 1000 Ang^3
#
#
#
# Elastic Constant Matrix: (Units=GPa)
#
#
# Indices 1 2 3 4 5 6 
#
# 1 103.9417 55.3293 30.9656 0.0000 0.0000 0.0000
# 2 55.3293 105.7619 48.0030 0.0000 0.0000 0.0000
# 3 30.9656 48.0030 66.3032 0.0000 0.0000 0.0000
# 4 0.0000 0.0000 0.0000 -86.2889 0.0000 0.0000
# 5 0.0000 0.0000 0.0000 0.0000 28.1455 0.0000
# 6 0.0000 0.0000 0.0000 0.0000 0.0000 29.3025
#
#
#
# Elastic Compliance Matrix: (Units=1/GPa)
#
#
# Indices 1 2 3 4 5 6 
#
# 1 0.013472 -0.006244 -0.001771 0.000000 0.000000 0.000000
# 2 -0.006244 0.016977 -0.009375 0.000000 0.000000 0.000000
# 3 -0.001771 -0.009375 0.022697 0.000000 0.000000 0.000000
# 4 0.000000 0.000000 0.000000 -0.011589 0.000000 0.000000
# 5 0.000000 0.000000 0.000000 0.000000 0.035530 0.000000
# 6 0.000000 0.000000 0.000000 0.000000 0.000000 0.034127
#
#
# Mechanical properties :
#
#
# Convention : Reuss Voigt Hill
#
# Bulk Modulus (GPa) = 54.45030 60.51141 57.48085
# Shear Modulus (GPa) = 32.86968 3.67908 18.27438
#
# Velocity S-wave (km/s) = 4.21331 1.40960 3.14157
# Velocity P-wave (km/s) = 7.28535 5.94388 6.64854
#
# Compressibility (1/GPa) = 0.01836537
#
# Stress axis : x y z
#
# Youngs Moduli (GPa) = 74.22668 58.90364 44.05888
#
# Poissons Ratio (x) = 0.36780 0.07804
# Poissons Ratio (y) = 0.46348 0.41305
# Poissons Ratio (z) = 0.13148 0.55222
#
# Static dielectric constant tensor:
#      x y z
#    x 1.626860 0.000000 0.000000 
#    y 0.000000 1.614380 0.000000 
#    z 0.000000 0.000000 1.664080 
# 
# From -- ./inp_files/43537.got.cif
#   From: 2010.05.17/outbox.cif.g08.bks.cpg/sg67_22_cif.got.tgz:43537.got - 2010.06.03 18:28:57.
