data_PCOD9503751
_publ_section_title
;
Structure prediction by ZEFSAII (Michael W. Deem and Ramdas Pophale) SiO2 
 PCOD9503751
Probable space group: C M M A
;
_chemical_formula_sum "Si O2"
_cell_formula_units_Z 80
_cell_length_a 10.393777
_cell_length_b 17.990231
_cell_length_c 24.481141
_cell_angle_alpha 90.000000
_cell_angle_beta 90.000000
_cell_angle_gamma 90.000000
_cell_volume 4577.641628
_symmetry_space_group_name_H-M "C M M A"
_symmetry_group_IT_number 67
_symmetry_cell_setting 'orthorhombic'
loop_
_space_group_symop_operation_xyz
x,y,z
-x,1/2-y,z
x,-y,-z
-x,1/2+y,-z
-x,-y,-z
x,1/2+y,-z
-x,y,z
x,1/2-y,z
1/2+x,1/2+y,z
1/2-x,-y,z
1/2+x,1/2-y,-z
1/2-x,y,-z
1/2-x,1/2-y,-z
1/2+x,y,-z
1/2-x,1/2+y,z
1/2+x,-y,z
loop_
_atom_site_type_symbol
_atom_site_label
_atom_site_fract_x
_atom_site_fract_y
_atom_site_fract_z
Si Si1 0.500000 0.405941 0.438301
Si Si2 0.248594 0.339088 0.381615
Si Si3 0.000000 0.417849 0.431251
Si Si4 0.849129 0.567097 0.155445
Si Si5 0.352672 0.661313 0.954464
Si Si6 0.652117 0.836649 0.736994
O O1 0.374169 0.366748 0.413959
O O2 0.500000 0.493296 0.423126
O O3 0.500000 0.402463 0.503893
O O4 0.235780 0.250000 0.387278
O O5 0.125466 0.381052 0.404916
O O6 0.270204 0.356004 0.317505
O O7 0.750000 0.500000 0.151448
O O8 0.834030 0.619456 0.102564
O O9 0.821934 0.613105 0.210631
O O10 0.000000 0.543703 0.157177
O O11 0.500000 0.647695 0.972847
O O12 0.338680 0.750000 0.945991
O O13 0.250000 0.637751 0.000000
O O14 0.500000 0.843310 0.723674
O O15 0.675806 0.750000 0.750322
#
# Coordination Sequence:
#
# PCOD9503751 Si02
#       6
#     8  16   8  16  16  16
#     4  11  23  41  59  83 115 159 190 225 282 361
#     4  11  22  39  62  87 112 147 195 241 286 338
#     4  11  25  39  57  85 123 149 184 235 296 341
#     4  10  21  36  55  82 113 146 185 228 276 329
#     4   9  18  34  57  82 109 146 190 232 275 324
#     4   9  18  37  61  81 105 142 188 231 274 332
#
# _framework density 17.476247999999998
#
# number of rings (size 3 to 8) (size 9 to 14) (size 15 to 20)
#    0.000    2.000    1.000    2.400    0.000    9.200 
#    1.800    2.000    0.000    1.200    0.000    0.000 
#    0.000    0.000    0.000    0.000    0.000    0.000 
#
# Total GULP energy -223345.672571 kJ/mol
# GULP energy per Si atom -5583.641814 kJ/mol
# Density = 1.743647 g / cm^3
# Si number density = 17.476248 Si / 1000 Ang^3
#
#
#
# Elastic Constant Matrix: (Units=GPa)
#
#
# Indices 1 2 3 4 5 6 
#
# 1 131.6398 70.7241 83.7653 0.0000 0.0000 0.0000
# 2 70.7241 77.7026 73.5117 0.0000 0.0000 0.0000
# 3 83.7653 73.5117 122.2395 0.0000 0.0000 0.0000
# 4 0.0000 0.0000 0.0000 -579.2869 0.0000 0.0000
# 5 0.0000 0.0000 0.0000 0.0000 25.1462 0.0000
# 6 0.0000 0.0000 0.0000 0.0000 0.0000 31.1472
#
#
#
# Elastic Compliance Matrix: (Units=1/GPa)
#
#
# Indices 1 2 3 4 5 6 
#
# 1 0.016161 -0.009819 -0.005170 0.000000 0.000000 0.000000
# 2 -0.009819 0.035821 -0.014813 0.000000 0.000000 0.000000
# 3 -0.005170 -0.014813 0.020632 0.000000 0.000000 0.000000
# 4 0.000000 0.000000 0.000000 -0.001726 0.000000 0.000000
# 5 0.000000 0.000000 0.000000 0.000000 0.039767 0.000000
# 6 0.000000 0.000000 0.000000 0.000000 0.000000 0.032106
#
#
# Mechanical properties :
#
#
# Convention : Reuss Voigt Hill
#
# Bulk Modulus (GPa) = 76.86467 87.50933 82.18700
# Shear Modulus (GPa) = 24.18936 -97.69331 -36.75197
#
# Velocity S-wave (km/s) = 3.72442 -7.48478 -4.59079
# Velocity P-wave (km/s) = 7.91031 4.95116 4.36228
#
# Compressibility (1/GPa) = 0.01300988
#
# Stress axis : x y z
#
# Youngs Moduli (GPa) = 61.87552 27.91644 48.46894
#
# Poissons Ratio (x) = 0.27411 0.25058
# Poissons Ratio (y) = 0.60755 0.71799
# Poissons Ratio (z) = 0.31989 0.41354
#
# Static dielectric constant tensor:
#      x y z
#    x 1.577860 0.000000 0.000000 
#    y 0.000000 1.575710 0.000000 
#    z 0.000000 0.000000 1.571590 
# 
# From -- ./inp_files/40608.got.cif
#   From: 2010.05.17/outbox.cif.g08.bks.cpg/sg67_21_cif.got.tgz:40608.got - 2010.06.03 18:28:57.
