data_PCOD9503836
_publ_section_title
;
Structure prediction by ZEFSAII (Michael W. Deem and Ramdas Pophale) SiO2 
 PCOD9503836
Probable space group: C M M A
;
_chemical_formula_sum "Si O2"
_cell_formula_units_Z 72
_cell_length_a 10.334180
_cell_length_b 14.314231
_cell_length_c 28.045398
_cell_angle_alpha 90.000000
_cell_angle_beta 90.000000
_cell_angle_gamma 90.000000
_cell_volume 4148.639049
_symmetry_space_group_name_H-M "C M M A"
_symmetry_group_IT_number 67
_symmetry_cell_setting 'orthorhombic'
loop_
_space_group_symop_operation_xyz
x,y,z
-x,1/2-y,z
x,-y,-z
-x,1/2+y,-z
-x,-y,-z
x,1/2+y,-z
-x,y,z
x,1/2-y,z
1/2+x,1/2+y,z
1/2-x,-y,z
1/2+x,1/2-y,-z
1/2-x,y,-z
1/2-x,1/2-y,-z
1/2+x,y,-z
1/2-x,1/2+y,z
1/2+x,-y,z
loop_
_atom_site_type_symbol
_atom_site_label
_atom_site_fract_x
_atom_site_fract_y
_atom_site_fract_z
Si Si1 0.855602 0.750000 0.783152
Si Si2 0.848711 0.750000 0.456470
Si Si3 0.651547 0.250000 0.301173
Si Si4 0.646692 0.362911 0.960797
Si Si5 0.146664 0.074155 0.147116
Si Si6 0.347466 0.412004 0.378623
O O1 0.746400 0.750000 0.743396
O O2 0.846563 0.662014 0.818207
O O3 0.000000 0.750000 0.761136
O O4 0.750000 0.750000 0.500000
O O5 0.829092 0.842326 0.423746
O O6 0.000000 0.750000 0.471425
O O7 0.500000 0.250000 0.287434
O O8 0.673280 0.157575 0.333615
O O9 0.500000 0.391051 0.973416
O O10 0.649186 0.250000 0.959166
O O11 0.675294 0.397364 0.907515
O O12 0.750000 0.393253 0.000000
O O13 0.000000 0.037345 0.148049
O O14 0.250000 0.000000 0.163419
O O15 0.500000 0.440812 0.378210
O O16 0.250000 0.500000 0.378875
#
# Coordination Sequence:
#
# PCOD9503836 Si02
#       6
#     8   8   8  16  16  16
#     4  10  21  39  58  76 104 139 172 212 264 318
#     4   9  19  35  53  78 114 153 188 225 268 314
#     4   9  20  38  57  78 106 138 174 221 271 318
#     4   9  17  32  53  74  99 132 167 204 248 300
#     4  10  21  37  55  76 104 136 169 208 256 310
#     4   9  19  36  56  79 110 145 182 225 271 316
#
# _framework density 17.355087999999999
#
# number of rings (size 3 to 8) (size 9 to 14) (size 15 to 20)
#    0.000    2.667    1.111    1.333    0.000    5.333 
#    0.000   11.111    0.000    0.000    0.000    0.000 
#    0.000    0.000    0.000    0.000    0.000    0.000 
#
# Total GULP energy -200751.894437 kJ/mol
# GULP energy per Si atom -5576.441512 kJ/mol
# Density = 1.731559 g / cm^3
# Si number density = 17.355088 Si / 1000 Ang^3
#
#
#
# Elastic Constant Matrix: (Units=GPa)
#
#
# Indices 1 2 3 4 5 6 
#
# 1 134.8252 82.0582 86.3211 0.0000 0.0000 0.0000
# 2 82.0582 104.9524 26.2988 0.0000 0.0000 0.0000
# 3 86.3211 26.2988 91.0647 0.0000 0.0000 0.0000
# 4 0.0000 0.0000 0.0000 14.1769 0.0000 0.0000
# 5 0.0000 0.0000 0.0000 0.0000 39.5898 0.0000
# 6 0.0000 0.0000 0.0000 0.0000 0.0000 32.6155
#
#
#
# Elastic Compliance Matrix: (Units=1/GPa)
#
#
# Indices 1 2 3 4 5 6 
#
# 1 0.051342 -0.030128 -0.039967 0.000000 0.000000 0.000000
# 2 -0.030128 0.027950 0.020486 0.000000 0.000000 0.000000
# 3 -0.039967 0.020486 0.042950 0.000000 0.000000 0.000000
# 4 0.000000 0.000000 0.000000 0.070537 0.000000 0.000000
# 5 0.000000 0.000000 0.000000 0.000000 0.025259 0.000000
# 6 0.000000 0.000000 0.000000 0.000000 0.000000 0.030660
#
#
# Mechanical properties :
#
#
# Convention : Reuss Voigt Hill
#
# Bulk Modulus (GPa) = 43.42923 80.02202 61.72563
# Shear Modulus (GPa) = 14.06107 26.35405 20.20756
#
# Velocity S-wave (km/s) = 2.84949 3.90105 3.41597
# Velocity P-wave (km/s) = 5.99202 8.15473 7.15556
#
# Compressibility (1/GPa) = 0.02302597
#
# Stress axis : x y z
#
# Youngs Moduli (GPa) = 19.47712 35.77778 23.28279
#
# Poissons Ratio (x) = 1.07790 0.93055
# Poissons Ratio (y) = 0.58680 -0.47698
# Poissons Ratio (z) = 0.77845 -0.73296
#
# Static dielectric constant tensor:
#      x y z
#    x 1.586390 0.000000 0.000000 
#    y 0.000000 1.581670 0.000000 
#    z 0.000000 0.000000 1.567070 
# 
# From -- ./inp_files/43157.got.cif
#   From: 2010.05.17/outbox.cif.g08.bks.cpg/sg67_22_cif.got.tgz:43157.got - 2010.06.03 18:28:57.
