data_PCOD9503507
_publ_section_title
;
Structure prediction by ZEFSAII (Michael W. Deem and Ramdas Pophale) SiO2 
 PCOD9503507
Probable space group: C M M A
;
_chemical_formula_sum "Si O2"
_cell_formula_units_Z 72
_cell_length_a 25.122116
_cell_length_b 8.064809
_cell_length_c 15.189289
_cell_angle_alpha 90.000000
_cell_angle_beta 90.000000
_cell_angle_gamma 90.000000
_cell_volume 3077.426919
_symmetry_space_group_name_H-M "C M M A"
_symmetry_group_IT_number 67
_symmetry_cell_setting 'orthorhombic'
loop_
_space_group_symop_operation_xyz
x,y,z
-x,1/2-y,z
x,-y,-z
-x,1/2+y,-z
-x,-y,-z
x,1/2+y,-z
-x,y,z
x,1/2-y,z
1/2+x,1/2+y,z
1/2-x,-y,z
1/2+x,1/2-y,-z
1/2-x,y,-z
1/2-x,1/2-y,-z
1/2+x,y,-z
1/2-x,1/2+y,z
1/2+x,-y,z
loop_
_atom_site_type_symbol
_atom_site_label
_atom_site_fract_x
_atom_site_fract_y
_atom_site_fract_z
Si Si1 0.000000 0.953228 0.251436
Si Si2 0.194367 0.052556 0.161363
Si Si3 0.077150 0.941628 0.597027
Si Si4 0.078448 0.551899 0.902656
Si Si5 0.191804 0.059256 0.638491
O O1 0.046389 0.957635 0.328205
O O2 0.045711 0.964380 0.174017
O O3 0.195222 0.250000 0.178197
O O4 0.140962 0.014148 0.108832
O O5 0.250000 0.000000 0.118224
O O6 0.191795 0.962172 0.255637
O O7 0.062631 0.750000 0.612242
O O8 0.062110 0.000000 0.500000
O O9 0.140757 0.959870 0.605397
O O10 0.070415 0.750000 0.890228
O O11 0.061826 0.500000 0.000000
O O12 0.184308 0.250000 0.614199
O O13 0.250000 0.000000 0.608226
#
# Coordination Sequence:
#
# PCOD9503507 Si02
#       5
#     8  16  16  16  16
#     4  12  25  48  73  92 135 186 225 278 341 398
#     4  10  20  38  66  97 135 176 221 272 338 403
#     4  12  25  45  71 101 136 177 225 277 335 401
#     4  11  24  43  68  99 132 178 226 276 335 396
#     4  11  22  40  68 102 137 176 222 272 334 402
#
# _framework density 23.396167999999999
#
# number of rings (size 3 to 8) (size 9 to 14) (size 15 to 20)
#    0.000    0.889    2.222    7.333    0.000    2.667 
#    0.000    8.333    0.000    0.000    0.000    0.000 
#    0.000    0.000    0.000    0.000    0.000    0.000 
#
# Total GULP energy -200588.206672 kJ/mol
# GULP energy per Si atom -5571.894630 kJ/mol
# Density = 2.334292 g / cm^3
# Si number density = 23.396168 Si / 1000 Ang^3
#
#
#
# Elastic Constant Matrix: (Units=GPa)
#
#
# Indices 1 2 3 4 5 6 
#
# 1 203.7532 18.6934 57.6528 0.0000 0.0000 0.0000
# 2 18.6934 68.5307 1.4452 0.0000 0.0000 0.0000
# 3 57.6528 1.4452 177.2761 0.0000 0.0000 0.0000
# 4 0.0000 0.0000 0.0000 1.1722 0.0000 0.0000
# 5 0.0000 0.0000 0.0000 0.0000 873.2260 0.0000
# 6 0.0000 0.0000 0.0000 0.0000 0.0000 555.5667
#
#
#
# Elastic Compliance Matrix: (Units=1/GPa)
#
#
# Indices 1 2 3 4 5 6 
#
# 1 0.005551 -0.001476 -0.001793 0.000000 0.000000 0.000000
# 2 -0.001476 0.014987 0.000358 0.000000 0.000000 0.000000
# 3 -0.001793 0.000358 0.006221 0.000000 0.000000 0.000000
# 4 0.000000 0.000000 0.000000 0.853097 0.000000 0.000000
# 5 0.000000 0.000000 0.000000 0.000000 0.001145 0.000000
# 6 0.000000 0.000000 0.000000 0.000000 0.000000 0.001800
#
#
# Mechanical properties :
#
#
# Convention : Reuss Voigt Hill
#
# Bulk Modulus (GPa) = 47.76452 67.23808 57.50130
# Shear Modulus (GPa) = 5.58283 310.77755 158.18019
#
# Velocity S-wave (km/s) = 1.54641 11.53781 8.23142
# Velocity P-wave (km/s) = 4.86296 14.36301 10.72251
#
# Compressibility (1/GPa) = 0.02093604
#
# Stress axis : x y z
#
# Youngs Moduli (GPa) = 180.15693 66.72384 160.74188
#
# Poissons Ratio (x) = 0.09850 0.28823
# Poissons Ratio (y) = 0.26596 -0.05753
# Poissons Ratio (z) = 0.32305 -0.02388
#
# Static dielectric constant tensor:
#      x y z
#    x 1.882660 0.000000 0.000000 
#    y 0.000000 1.925690 0.000000 
#    z 0.000000 0.000000 1.818760 
# 
# From -- ./inp_files/30545.got.cif
#   From: 2010.05.17/outbox.cif.g08.bks.cpg/sg67_16_cif.got.tgz:30545.got - 2010.06.03 18:28:57.
