data_PCOD9503382
_publ_section_title
;
Structure prediction by ZEFSAII (Michael W. Deem and Ramdas Pophale) SiO2 
 PCOD9503382
Probable space group: C M M A
;
_chemical_formula_sum "Si O2"
_cell_formula_units_Z 104
_cell_length_a 16.304009
_cell_length_b 18.817295
_cell_length_c 17.472168
_cell_angle_alpha 90.000000
_cell_angle_beta 90.000000
_cell_angle_gamma 90.000000
_cell_volume 5360.414789
_symmetry_space_group_name_H-M "C M M A"
_symmetry_group_IT_number 67
_symmetry_cell_setting 'orthorhombic'
loop_
_space_group_symop_operation_xyz
x,y,z
-x,1/2-y,z
x,-y,-z
-x,1/2+y,-z
-x,-y,-z
x,1/2+y,-z
-x,y,z
x,1/2-y,z
1/2+x,1/2+y,z
1/2-x,-y,z
1/2+x,1/2-y,-z
1/2-x,y,-z
1/2-x,1/2-y,-z
1/2+x,y,-z
1/2-x,1/2+y,z
1/2+x,-y,z
loop_
_atom_site_type_symbol
_atom_site_label
_atom_site_fract_x
_atom_site_fract_y
_atom_site_fract_z
Si Si1 0.327891 0.409151 0.695657
Si Si2 0.097733 0.969630 0.414003
Si Si3 0.346822 0.833089 0.012139
Si Si4 0.290365 0.668514 0.583956
Si Si5 0.594591 0.670032 0.174826
Si Si6 0.750000 0.500000 0.180103
Si Si7 0.092079 0.041832 0.919756
O O1 0.360537 0.474786 0.644877
O O2 0.281208 0.353617 0.642433
O O3 0.396969 0.372632 0.746997
O O4 0.266691 0.435754 0.761663
O O5 0.140526 0.892537 0.408756
O O6 0.000000 0.965718 0.400581
O O7 0.110963 0.000000 0.500000
O O8 0.369351 0.750000 0.009980
O O9 0.363936 0.859988 0.098302
O O10 0.250000 0.840440 0.000000
O O11 0.393521 0.877507 0.947840
O O12 0.318187 0.750000 0.596226
O O13 0.250000 0.664106 0.500000
O O14 0.500000 0.673912 0.153985
O O15 0.627382 0.750000 0.187142
O O16 0.831467 0.517773 0.131859
O O17 0.000000 0.031602 0.886741
O O18 0.095684 0.000000 0.000000
#
# Coordination Sequence:
#
# PCOD9503382 Si02
#       7
#    16  16  16  16  16   8  16
#     4  12  22  40  64  91 124 165 207 261 314 377
#     4  11  23  41  67  95 128 167 211 261 310 375
#     4  10  20  37  62  88 121 167 215 263 318 381
#     4  11  23  42  68  94 126 167 211 258 312 378
#     4  10  21  36  57  89 125 159 203 261 323 379
#     4  12  25  38  61  90 120 164 210 264 313 386
#     4  11  23  39  60  88 123 161 210 268 320 376
#
# _framework density 19.401482999999999
#
# number of rings (size 3 to 8) (size 9 to 14) (size 15 to 20)
#    0.000    1.077    3.077    4.385    0.000    3.692 
#    0.000    0.769    0.000    0.000    0.000    0.000 
#    0.000    0.000    0.000    0.000    0.000    0.000 
#
# Total GULP energy -290355.153211 kJ/mol
# GULP energy per Si atom -5583.752946 kJ/mol
# Density = 1.935732 g / cm^3
# Si number density = 19.401483 Si / 1000 Ang^3
#
#
#
# Elastic Constant Matrix: (Units=GPa)
#
#
# Indices 1 2 3 4 5 6 
#
# 1 109.7036 42.6809 62.3617 0.0000 0.0000 0.0000
# 2 42.6809 120.1601 48.7188 0.0000 0.0000 0.0000
# 3 62.3617 48.7188 118.8434 0.0000 0.0000 0.0000
# 4 0.0000 0.0000 0.0000 24.9308 0.0000 0.0000
# 5 0.0000 0.0000 0.0000 0.0000 19.5530 0.0000
# 6 0.0000 0.0000 0.0000 0.0000 0.0000 12.0451
#
#
#
# Elastic Compliance Matrix: (Units=1/GPa)
#
#
# Indices 1 2 3 4 5 6 
#
# 1 0.013503 -0.002307 -0.006140 0.000000 0.000000 0.000000
# 2 -0.002307 0.010375 -0.003043 0.000000 0.000000 0.000000
# 3 -0.006140 -0.003043 0.012884 0.000000 0.000000 0.000000
# 4 0.000000 0.000000 0.000000 0.040111 0.000000 0.000000
# 5 0.000000 0.000000 0.000000 0.000000 0.051143 0.000000
# 6 0.000000 0.000000 0.000000 0.000000 0.000000 0.083022
#
#
# Mechanical properties :
#
#
# Convention : Reuss Voigt Hill
#
# Bulk Modulus (GPa) = 72.55326 72.91444 72.73385
# Shear Modulus (GPa) = 20.95454 24.30214 22.62834
#
# Velocity S-wave (km/s) = 3.28997 3.54304 3.41885
# Velocity P-wave (km/s) = 7.20478 7.37570 7.29074
#
# Compressibility (1/GPa) = 0.01378298
#
# Stress axis : x y z
#
# Youngs Moduli (GPa) = 74.05581 96.38253 77.61759
#
# Poissons Ratio (x) = 0.22235 0.47657
# Poissons Ratio (y) = 0.17084 0.23617
# Poissons Ratio (z) = 0.45470 0.29327
#
# Static dielectric constant tensor:
#      x y z
#    x 1.688880 0.000000 0.000000 
#    y 0.000000 1.745750 0.000000 
#    z 0.000000 0.000000 1.655280 
# 
# From -- ./inp_files/34284.got.cif
#   From: 2010.05.17/outbox.cif.g08.bks.cpg/sg67_18_cif.got.tgz:34284.got - 2010.06.03 18:28:57.
