data_PCOD9503366
_publ_section_title
;
Structure prediction by ZEFSAII (Michael W. Deem and Ramdas Pophale) SiO2 
 PCOD9503366
Probable space group: C M M A
;
_chemical_formula_sum "Si O2"
_cell_formula_units_Z 88
_cell_length_a 16.812555
_cell_length_b 8.691228
_cell_length_c 30.530096
_cell_angle_alpha 90.000000
_cell_angle_beta 90.000000
_cell_angle_gamma 90.000000
_cell_volume 4461.111018
_symmetry_space_group_name_H-M "C M M A"
_symmetry_group_IT_number 67
_symmetry_cell_setting 'orthorhombic'
loop_
_space_group_symop_operation_xyz
x,y,z
-x,1/2-y,z
x,-y,-z
-x,1/2+y,-z
-x,-y,-z
x,1/2+y,-z
-x,y,z
x,1/2-y,z
1/2+x,1/2+y,z
1/2-x,-y,z
1/2+x,1/2-y,-z
1/2-x,y,-z
1/2-x,1/2-y,-z
1/2+x,y,-z
1/2-x,1/2+y,z
1/2+x,-y,z
loop_
_atom_site_type_symbol
_atom_site_label
_atom_site_fract_x
_atom_site_fract_y
_atom_site_fract_z
Si Si1 0.000000 0.436108 0.451086
Si Si2 0.405454 0.925344 0.867212
Si Si3 0.164739 0.935899 0.597680
Si Si4 0.589722 0.062850 0.686577
Si Si5 0.839133 0.932840 0.954981
Si Si6 0.662263 0.065258 0.778221
O O1 0.000000 0.500000 0.500000
O O2 0.916489 0.482562 0.427784
O O3 0.000000 0.250000 0.450844
O O4 0.500000 0.921713 0.863190
O O5 0.374838 0.750000 0.870533
O O6 0.382984 0.014466 0.911250
O O7 0.371204 0.003271 0.823847
O O8 0.168634 0.750000 0.595985
O O9 0.149073 0.985957 0.648114
O O10 0.250000 0.000000 0.582176
O O11 0.500000 0.013759 0.675926
O O12 0.590162 0.250000 0.686237
O O13 0.612811 0.014723 0.735460
O O14 0.835976 0.750000 0.958039
O O15 0.750000 0.000000 0.951970
O O16 0.875021 0.000000 0.000000
O O17 0.662947 0.250000 0.779462
O O18 0.750000 0.000000 0.772567
#
# Coordination Sequence:
#
# PCOD9503366 Si02
#       6
#     8  16  16  16  16  16
#     4  10  22  40  62  86 120 162 204 252 307 366
#     4  11  24  41  59  81 113 150 189 236 288 342
#     4  10  20  37  61  88 119 158 203 251 305 364
#     4   9  17  33  58  85 115 153 197 242 293 353
#     4  11  22  39  63  88 115 146 186 232 282 342
#     4  11  22  36  57  84 115 151 193 238 287 347
#
# _framework density 19.726026999999998
#
# number of rings (size 3 to 8) (size 9 to 14) (size 15 to 20)
#    0.000    1.636    0.909    4.909    0.000    3.636 
#    0.000    2.727    0.000    2.182    0.000    0.000 
#    0.000    0.000    0.000    0.000    0.000    0.000 
#
# Total GULP energy -245741.774550 kJ/mol
# GULP energy per Si atom -5585.040331 kJ/mol
# Density = 1.968113 g / cm^3
# Si number density = 19.726027 Si / 1000 Ang^3
#
#
#
# Elastic Constant Matrix: (Units=GPa)
#
#
# Indices 1 2 3 4 5 6 
#
# 1 116.9316 24.4859 50.8559 0.0000 0.0000 0.0000
# 2 24.4859 82.5561 32.7096 0.0000 0.0000 0.0000
# 3 50.8559 32.7096 124.8244 0.0000 0.0000 0.0000
# 4 0.0000 0.0000 0.0000 27.3760 0.0000 0.0000
# 5 0.0000 0.0000 0.0000 0.0000 56.4244 0.0000
# 6 0.0000 0.0000 0.0000 0.0000 0.0000 18.4286
#
#
#
# Elastic Compliance Matrix: (Units=1/GPa)
#
#
# Indices 1 2 3 4 5 6 
#
# 1 0.010579 -0.001596 -0.003892 0.000000 0.000000 0.000000
# 2 -0.001596 0.013757 -0.002955 0.000000 0.000000 0.000000
# 3 -0.003892 -0.002955 0.010371 0.000000 0.000000 0.000000
# 4 0.000000 0.000000 0.000000 0.036528 0.000000 0.000000
# 5 0.000000 0.000000 0.000000 0.000000 0.017723 0.000000
# 6 0.000000 0.000000 0.000000 0.000000 0.000000 0.054264
#
#
# Mechanical properties :
#
#
# Convention : Reuss Voigt Hill
#
# Bulk Modulus (GPa) = 56.10971 60.04610 58.07790
# Shear Modulus (GPa) = 30.11192 34.86318 32.48755
#
# Velocity S-wave (km/s) = 3.91129 4.20857 4.06265
# Velocity P-wave (km/s) = 6.99313 7.35678 7.17726
#
# Compressibility (1/GPa) = 0.01782223
#
# Stress axis : x y z
#
# Youngs Moduli (GPa) = 94.52877 72.69032 96.42099
#
# Poissons Ratio (x) = 0.11599 0.37526
# Poissons Ratio (y) = 0.15083 0.28491
# Poissons Ratio (z) = 0.36789 0.21479
#
# Static dielectric constant tensor:
#      x y z
#    x 1.687470 0.000000 0.000000 
#    y 0.000000 1.668470 0.000000 
#    z 0.000000 0.000000 1.695920 
# 
# From -- ./inp_files/45806.got.cif
#   From: 2010.05.17/outbox.cif.g08.bks.cpg/sg67_23_cif.got.tgz:45806.got - 2010.06.03 18:28:57.
