data_PCOD9503241
_publ_section_title
;
Structure prediction by ZEFSAII (Michael W. Deem and Ramdas Pophale) SiO2 
 PCOD9503241
Probable space group: C M M A
;
_chemical_formula_sum "Si O2"
_cell_formula_units_Z 68
_cell_length_a 14.496725
_cell_length_b 9.173459
_cell_length_c 22.640670
_cell_angle_alpha 90.000000
_cell_angle_beta 90.000000
_cell_angle_gamma 90.000000
_cell_volume 3010.872045
_symmetry_space_group_name_H-M "C M M A"
_symmetry_group_IT_number 67
_symmetry_cell_setting 'orthorhombic'
loop_
_space_group_symop_operation_xyz
x,y,z
-x,1/2-y,z
x,-y,-z
-x,1/2+y,-z
-x,-y,-z
x,1/2+y,-z
-x,y,z
x,1/2-y,z
1/2+x,1/2+y,z
1/2-x,-y,z
1/2+x,1/2-y,-z
1/2-x,y,-z
1/2-x,1/2-y,-z
1/2+x,y,-z
1/2-x,1/2+y,z
1/2+x,-y,z
loop_
_atom_site_type_symbol
_atom_site_label
_atom_site_fract_x
_atom_site_fract_y
_atom_site_fract_z
Si Si1 0.250000 0.500000 0.500000
Si Si2 0.392778 0.912608 0.403299
Si Si3 0.112667 0.085406 0.712206
Si Si4 0.107984 0.911368 0.824696
Si Si5 0.850333 0.574765 0.057652
O O1 0.321004 0.417721 0.543219
O O2 0.500000 0.942556 0.421399
O O3 0.392413 0.750000 0.377180
O O4 0.364577 0.024384 0.352281
O O5 0.145537 0.250000 0.720289
O O6 0.000000 0.087451 0.714218
O O7 0.145925 0.982816 0.765182
O O8 0.147764 0.750000 0.838535
O O9 0.000000 0.892192 0.813486
O O10 0.112231 0.021393 0.879675
O O11 0.848959 0.750000 0.052073
O O12 0.750000 0.500000 0.058759
O O13 0.895971 0.500000 0.000000
#
# Coordination Sequence:
#
# PCOD9503241 Si02
#       5
#     4  16  16  16  16
#     4  12  24  40  64  96 126 160 212 258 306 374
#     4  10  22  41  64  90 124 165 206 255 314 373
#     4   9  18  35  60  88 118 154 196 243 299 361
#     4  10  20  36  60  89 120 154 196 247 303 361
#     4  11  22  38  58  81 115 157 202 248 301 362
#
# _framework density 22.584817999999999
#
# number of rings (size 3 to 8) (size 9 to 14) (size 15 to 20)
#    0.000    1.882    0.000    4.941    0.000    6.588 
#    2.118    2.353    0.000    0.000    0.000    0.000 
#    0.000    0.000    0.000    0.000    0.000    0.000 
#
# Total GULP energy -189811.758626 kJ/mol
# GULP energy per Si atom -5582.698783 kJ/mol
# Density = 2.253341 g / cm^3
# Si number density = 22.584818 Si / 1000 Ang^3
#
#
#
# Elastic Constant Matrix: (Units=GPa)
#
#
# Indices 1 2 3 4 5 6 
#
# 1 88.0769 22.1608 25.9607 0.0000 0.0000 0.0000
# 2 22.1608 193.4315 72.6133 0.0000 0.0000 0.0000
# 3 25.9607 72.6133 135.9043 0.0000 0.0000 0.0000
# 4 0.0000 0.0000 0.0000 28.5926 0.0000 0.0000
# 5 0.0000 0.0000 0.0000 0.0000 21.8893 0.0000
# 6 0.0000 0.0000 0.0000 0.0000 0.0000 3.0457
#
#
#
# Elastic Compliance Matrix: (Units=1/GPa)
#
#
# Indices 1 2 3 4 5 6 
#
# 1 0.012096 -0.000648 -0.001964 0.000000 0.000000 0.000000
# 2 -0.000648 0.006502 -0.003350 0.000000 0.000000 0.000000
# 3 -0.001964 -0.003350 0.009523 0.000000 0.000000 0.000000
# 4 0.000000 0.000000 0.000000 0.034974 0.000000 0.000000
# 5 0.000000 0.000000 0.000000 0.000000 0.045684 0.000000
# 6 0.000000 0.000000 0.000000 0.000000 0.000000 0.328330
#
#
# Mechanical properties :
#
#
# Convention : Reuss Voigt Hill
#
# Bulk Modulus (GPa) = 61.74514 73.20916 67.47715
# Shear Modulus (GPa) = 11.00274 30.48406 20.74340
#
# Velocity S-wave (km/s) = 2.20960 3.67789 3.03391
# Velocity P-wave (km/s) = 5.82309 7.10784 6.49730
#
# Compressibility (1/GPa) = 0.01619561
#
# Stress axis : x y z
#
# Youngs Moduli (GPa) = 82.67342 153.80759 105.00709
#
# Poissons Ratio (x) = 0.09974 0.20624
# Poissons Ratio (y) = 0.05361 0.35177
# Poissons Ratio (z) = 0.16238 0.51525
#
# Static dielectric constant tensor:
#      x y z
#    x 2.048940 0.000000 0.000000 
#    y 0.000000 1.868880 0.000000 
#    z 0.000000 0.000000 1.840100 
# 
# From -- ./inp_files/42097.got.cif
#   From: 2010.05.17/outbox.cif.g08.bks.cpg/sg67_22_cif.got.tgz:42097.got - 2010.06.03 18:28:57.
