data_PCOD9503979
_publ_section_title
;
Structure prediction by ZEFSAII (Michael W. Deem and Ramdas Pophale) SiO2 
 PCOD9503979
Probable space group: C M M A
;
_chemical_formula_sum "Si O2"
_cell_formula_units_Z 96
_cell_length_a 8.571671
_cell_length_b 19.158974
_cell_length_c 32.887091
_cell_angle_alpha 90.000000
_cell_angle_beta 90.000000
_cell_angle_gamma 90.000000
_cell_volume 5400.863505
_symmetry_space_group_name_H-M "C M M A"
_symmetry_group_IT_number 67
_symmetry_cell_setting 'orthorhombic'
loop_
_space_group_symop_operation_xyz
x,y,z
-x,1/2-y,z
x,-y,-z
-x,1/2+y,-z
-x,-y,-z
x,1/2+y,-z
-x,y,z
x,1/2-y,z
1/2+x,1/2+y,z
1/2-x,-y,z
1/2+x,1/2-y,-z
1/2-x,y,-z
1/2-x,1/2-y,-z
1/2+x,y,-z
1/2-x,1/2+y,z
1/2+x,-y,z
loop_
_atom_site_type_symbol
_atom_site_label
_atom_site_fract_x
_atom_site_fract_y
_atom_site_fract_z
Si Si1 0.311672 0.830903 0.043421
Si Si2 0.814528 0.078964 0.618488
Si Si3 0.187545 0.420274 0.296761
Si Si4 0.311845 0.920618 0.208886
Si Si5 0.811071 0.421033 0.120182
Si Si6 0.686738 0.331721 0.543998
O O1 0.500000 0.832583 0.042602
O O2 0.262817 0.750000 0.047693
O O3 0.257449 0.875499 0.082000
O O4 0.250000 0.857056 0.000000
O O5 0.754672 0.109996 0.661530
O O6 0.755989 0.123610 0.580564
O O7 0.000000 0.075917 0.619276
O O8 0.750000 0.000000 0.615046
O O9 0.250000 0.500000 0.295986
O O10 0.234847 0.389017 0.252692
O O11 0.000000 0.421041 0.299465
O O12 0.500000 0.922397 0.209229
O O13 0.263631 0.891475 0.164793
O O14 0.250000 0.000000 0.208753
O O15 0.750000 0.500000 0.116840
O O16 0.000000 0.422685 0.119365
O O17 0.500000 0.337203 0.544263
O O18 0.729579 0.250000 0.548893
O O19 0.750000 0.354779 0.500000
#
# Coordination Sequence:
#
# PCOD9503979 Si02
#       6
#    16  16  16  16  16  16
#     4   9  18  32  48  64  85 116 152 187 225 273
#     4  11  21  33  51  76 105 134 167 205 245 286
#     4   9  15  25  42  65  94 125 157 193 234 279
#     4   8  14  24  40  62  89 119 150 186 227 275
#     4   9  17  29  45  67  92 117 148 188 232 274
#     4  10  21  38  58  78 101 130 165 203 245 295
#
# _framework density 17.774934999999999
#
# number of rings (size 3 to 8) (size 9 to 14) (size 15 to 20)
#    0.000    2.667    0.000    3.500    0.000    3.000 
#    0.000    3.333    0.000    1.000    0.000    4.667 
#    0.000    0.000    0.000    0.000    0.000    0.000 
#
# Total GULP energy -267309.171276 kJ/mol
# GULP energy per Si atom -5568.941068 kJ/mol
# Density = 1.773448 g / cm^3
# Si number density = 17.774935 Si / 1000 Ang^3
#
#
#
# Elastic Constant Matrix: (Units=GPa)
#
#
# Indices 1 2 3 4 5 6 
#
# 1 42.9815 16.6936 46.8187 0.0000 0.0000 0.0000
# 2 16.6936 31.8919 64.5385 0.0000 0.0000 0.0000
# 3 46.8187 64.5385 242.5729 0.0000 0.0000 0.0000
# 4 0.0000 0.0000 0.0000 -13.8719 0.0000 0.0000
# 5 0.0000 0.0000 0.0000 0.0000 28.2737 0.0000
# 6 0.0000 0.0000 0.0000 0.0000 0.0000 16.0958
#
#
#
# Elastic Compliance Matrix: (Units=1/GPa)
#
#
# Indices 1 2 3 4 5 6 
#
# 1 0.030557 -0.008795 -0.003558 0.000000 0.000000 0.000000
# 2 -0.008795 0.070462 -0.017049 0.000000 0.000000 0.000000
# 3 -0.003558 -0.017049 0.009345 0.000000 0.000000 0.000000
# 4 0.000000 0.000000 0.000000 -0.072088 0.000000 0.000000
# 5 0.000000 0.000000 0.000000 0.000000 0.035369 0.000000
# 6 0.000000 0.000000 0.000000 0.000000 0.000000 0.062128
#
#
# Mechanical properties :
#
#
# Convention : Reuss Voigt Hill
#
# Bulk Modulus (GPa) = 19.39501 63.72756 41.56129
# Shear Modulus (GPa) = 23.61112 18.72587 21.16850
#
# Velocity S-wave (km/s) = 3.64859 3.24929 3.45471
# Velocity P-wave (km/s) = 5.35581 7.07160 6.27265
#
# Compressibility (1/GPa) = 0.05155964
#
# Stress axis : x y z
#
# Youngs Moduli (GPa) = 32.72547 14.19204 107.00565
#
# Poissons Ratio (x) = 0.12482 0.38070
# Poissons Ratio (y) = 0.28783 1.82439
# Poissons Ratio (z) = 0.11643 0.24197
#
# Static dielectric constant tensor:
#      x y z
#    x 1.626250 0.000000 0.000000 
#    y 0.000000 1.578110 0.000000 
#    z 0.000000 0.000000 1.667300 
# 
# From -- ./inp_files/43507.got.cif
#   From: 2010.05.17/outbox.cif.g08.bks.cpg/sg67_22_cif.got.tgz:43507.got - 2010.06.03 18:28:57.
