data_PCOD9503635
_publ_section_title
;
Structure prediction by ZEFSAII (Michael W. Deem and Ramdas Pophale) SiO2 
 PCOD9503635
Probable space group: C M M A
;
_chemical_formula_sum "Si O2"
_cell_formula_units_Z 96
_cell_length_a 19.192170
_cell_length_b 8.563381
_cell_length_c 31.694267
_cell_angle_alpha 90.000000
_cell_angle_beta 90.000000
_cell_angle_gamma 90.000000
_cell_volume 5208.948469
_symmetry_space_group_name_H-M "C M M A"
_symmetry_group_IT_number 67
_symmetry_cell_setting 'orthorhombic'
loop_
_space_group_symop_operation_xyz
x,y,z
-x,1/2-y,z
x,-y,-z
-x,1/2+y,-z
-x,-y,-z
x,1/2+y,-z
-x,y,z
x,1/2-y,z
1/2+x,1/2+y,z
1/2-x,-y,z
1/2+x,1/2-y,-z
1/2-x,y,-z
1/2-x,1/2-y,-z
1/2+x,y,-z
1/2-x,1/2+y,z
1/2+x,-y,z
loop_
_atom_site_type_symbol
_atom_site_label
_atom_site_fract_x
_atom_site_fract_y
_atom_site_fract_z
Si Si1 0.419501 0.938426 0.454175
Si Si2 0.171722 0.439152 0.374389
Si Si3 0.919219 0.062849 0.046390
Si Si4 0.919512 0.938430 0.705383
Si Si5 0.419627 0.061663 0.202915
Si Si6 0.171744 0.062525 0.876773
O O1 0.500000 0.987398 0.446957
O O2 0.418658 0.750000 0.455059
O O3 0.370256 0.990576 0.416103
O O4 0.397682 0.000000 0.500000
O O5 0.172437 0.250000 0.374390
O O6 0.250000 0.500000 0.374413
O O7 0.129818 0.490564 0.332648
O O8 0.915317 0.250000 0.046274
O O9 0.000000 0.016970 0.054603
O O10 0.869744 0.995598 0.082289
O O11 0.900656 0.000000 0.000000
O O12 0.918619 0.750000 0.706311
O O13 0.000000 0.987254 0.698067
O O14 0.897894 0.000134 0.751226
O O15 0.500000 0.011490 0.195590
O O16 0.418933 0.250000 0.203880
O O17 0.370161 0.009254 0.164988
O O18 0.172784 0.250000 0.876932
O O19 0.250000 0.000000 0.876559
#
# Coordination Sequence:
#
# PCOD9503635 Si02
#       6
#    16  16  16  16  16  16
#     4   9  18  34  55  76  99 130 170 214 257 303
#     4  10  21  35  51  74 105 138 170 208 257 310
#     4  10  21  38  61  87 113 143 182 226 271 321
#     4   9  18  34  56  78 100 132 175 218 258 305
#     4   9  19  36  57  80 106 138 176 220 269 317
#     4  11  23  38  56  80 113 149 184 223 270 322
#
# _framework density 18.429824
#
# number of rings (size 3 to 8) (size 9 to 14) (size 15 to 20)
#    0.000    2.333    0.000    2.000    0.000    7.667 
#    0.000    8.333    0.000    5.000    0.000    0.000 
#    0.000    0.000    0.000    0.000    0.000    0.000 
#
# Total GULP energy -267989.230156 kJ/mol
# GULP energy per Si atom -5583.108962 kJ/mol
# Density = 1.838788 g / cm^3
# Si number density = 18.429824 Si / 1000 Ang^3
#
#
#
# Elastic Constant Matrix: (Units=GPa)
#
#
# Indices 1 2 3 4 5 6 
#
# 1 135.0505 30.9007 141.3918 0.0000 0.0000 0.0000
# 2 30.9007 20.0361 37.4719 0.0000 0.0000 0.0000
# 3 141.3918 37.4719 213.8909 0.0000 0.0000 0.0000
# 4 0.0000 0.0000 0.0000 32.9151 0.0000 0.0000
# 5 0.0000 0.0000 0.0000 0.0000 7.4435 0.0000
# 6 0.0000 0.0000 0.0000 0.0000 0.0000 23.5305
#
#
#
# Elastic Compliance Matrix: (Units=1/GPa)
#
#
# Indices 1 2 3 4 5 6 
#
# 1 0.025777 -0.011730 -0.014985 0.000000 0.000000 0.000000
# 2 -0.011730 0.079569 -0.006186 0.000000 0.000000 0.000000
# 3 -0.014985 -0.006186 0.015665 0.000000 0.000000 0.000000
# 4 0.000000 0.000000 0.000000 0.030381 0.000000 0.000000
# 5 0.000000 0.000000 0.000000 0.000000 0.134346 0.000000
# 6 0.000000 0.000000 0.000000 0.000000 0.000000 0.042498
#
#
# Mechanical properties :
#
#
# Convention : Reuss Voigt Hill
#
# Bulk Modulus (GPa) = 18.11275 87.61184 52.86229
# Shear Modulus (GPa) = 12.12298 23.39201 17.75750
#
# Velocity S-wave (km/s) = 2.56753 3.56652 3.10743
# Velocity P-wave (km/s) = 4.31728 8.03749 6.45136
#
# Compressibility (1/GPa) = 0.05520974
#
# Stress axis : x y z
#
# Youngs Moduli (GPa) = 38.79447 12.56771 63.83794
#
# Poissons Ratio (x) = 0.14741 0.95660
# Poissons Ratio (y) = 0.45504 0.39491
# Poissons Ratio (z) = 0.58133 0.07774
#
# Static dielectric constant tensor:
#      x y z
#    x 1.612650 0.000000 0.000000 
#    y 0.000000 1.631180 0.000000 
#    z 0.000000 0.000000 1.611060 
# 
# From -- ./inp_files/44622.got.cif
#   From: 2010.05.17/outbox.cif.g08.bks.cpg/sg67_23_cif.got.tgz:44622.got - 2010.06.03 18:28:57.
