data_PCOD9503714
_publ_section_title
;
Structure prediction by ZEFSAII (Michael W. Deem and Ramdas Pophale) SiO2 
 PCOD9503714
Probable space group: C M M A
;
_chemical_formula_sum "Si O2"
_cell_formula_units_Z 96
_cell_length_a 19.407782
_cell_length_b 9.235599
_cell_length_c 31.536368
_cell_angle_alpha 90.000000
_cell_angle_beta 90.000000
_cell_angle_gamma 90.000000
_cell_volume 5652.657190
_symmetry_space_group_name_H-M "C M M A"
_symmetry_group_IT_number 67
_symmetry_cell_setting 'orthorhombic'
loop_
_space_group_symop_operation_xyz
x,y,z
-x,1/2-y,z
x,-y,-z
-x,1/2+y,-z
-x,-y,-z
x,1/2+y,-z
-x,y,z
x,1/2-y,z
1/2+x,1/2+y,z
1/2-x,-y,z
1/2+x,1/2-y,-z
1/2-x,y,-z
1/2-x,1/2-y,-z
1/2+x,y,-z
1/2-x,1/2+y,z
1/2+x,-y,z
loop_
_atom_site_type_symbol
_atom_site_label
_atom_site_fract_x
_atom_site_fract_y
_atom_site_fract_z
Si Si1 0.676318 0.077529 0.387461
Si Si2 0.083862 0.082684 0.125958
Si Si3 0.082494 0.579306 0.544217
Si Si4 0.918148 0.423496 0.220979
Si Si5 0.584110 0.416214 0.042232
Si Si6 0.676946 0.421388 0.288521
O O1 0.681318 0.250000 0.395647
O O2 0.657104 0.057973 0.337931
O O3 0.750000 0.000000 0.393739
O O4 0.622057 0.001414 0.418221
O O5 0.104175 0.250000 0.120219
O O6 0.104591 0.034197 0.173152
O O7 0.000000 0.080285 0.126115
O O8 0.107330 0.989595 0.086005
O O9 0.099747 0.500000 0.500000
O O10 0.100189 0.750000 0.542558
O O11 0.000000 0.567995 0.550093
O O12 0.907711 0.250000 0.224911
O O13 0.877306 0.508371 0.256695
O O14 0.000000 0.449862 0.224547
O O15 0.500000 0.420292 0.042517
O O16 0.605180 0.250000 0.040245
O O17 0.606362 0.500000 0.000000
O O18 0.683847 0.250000 0.281101
O O19 0.750000 0.500000 0.282335
#
# Coordination Sequence:
#
# PCOD9503714 Si02
#       6
#    16  16  16  16  16  16
#     4  10  21  37  56  78 104 134 170 211 253 297
#     4   8  14  25  39  56  82 116 152 191 236 285
#     4  10  21  37  57  81 109 140 172 207 248 294
#     4   9  18  32  50  72  99 131 165 203 249 300
#     4   9  15  21  31  49  75 110 150 190 233 283
#     4  10  21  36  54  75 101 133 168 209 253 297
#
# _framework density 16.983163999999999
#
# number of rings (size 3 to 8) (size 9 to 14) (size 15 to 20)
#    0.000    2.667    0.000    3.000    0.000    7.000 
#    0.000    6.667    0.000    0.000    0.000    0.000 
#    0.000    0.667    0.000    7.000    0.000    9.667 
#
# Total GULP energy -267606.795142 kJ/mol
# GULP energy per Si atom -5575.141565 kJ/mol
# Density = 1.694451 g / cm^3
# Si number density = 16.983164 Si / 1000 Ang^3
#
#
#
# Elastic Constant Matrix: (Units=GPa)
#
#
# Indices 1 2 3 4 5 6 
#
# 1 33.8493 51.9268 66.4496 0.0000 0.0000 0.0000
# 2 51.9268 137.3090 115.2016 0.0000 0.0000 0.0000
# 3 66.4496 115.2016 161.1609 0.0000 0.0000 0.0000
# 4 0.0000 0.0000 0.0000 37.6082 0.0000 0.0000
# 5 0.0000 0.0000 0.0000 0.0000 -21.9808 0.0000
# 6 0.0000 0.0000 0.0000 0.0000 0.0000 24.7023
#
#
#
# Elastic Compliance Matrix: (Units=1/GPa)
#
#
# Indices 1 2 3 4 5 6 
#
# 1 0.164086 -0.013217 -0.058208 0.000000 0.000000 0.000000
# 2 -0.013217 0.019260 -0.008318 0.000000 0.000000 0.000000
# 3 -0.058208 -0.008318 0.036151 0.000000 0.000000 0.000000
# 4 0.000000 0.000000 0.000000 0.026590 0.000000 0.000000
# 5 0.000000 0.000000 0.000000 0.000000 -0.045494 0.000000
# 6 0.000000 0.000000 0.000000 0.000000 0.000000 0.040482
#
#
# Mechanical properties :
#
#
# Convention : Reuss Voigt Hill
#
# Bulk Modulus (GPa) = 16.66347 88.83057 52.74702
# Shear Modulus (GPa) = 11.88881 14.64870 13.26875
#
# Velocity S-wave (km/s) = 2.64869 2.94009 2.79819
# Velocity P-wave (km/s) = 4.38031 7.99651 6.44714
#
# Compressibility (1/GPa) = 0.06001153
#
# Stress axis : x y z
#
# Youngs Moduli (GPa) = 6.09435 51.92204 27.66198
#
# Poissons Ratio (x) = 0.68627 1.61014
# Poissons Ratio (y) = 0.08055 0.23008
# Poissons Ratio (z) = 0.35474 0.43186
#
# Static dielectric constant tensor:
#      x y z
#    x 1.547080 0.000000 0.000000 
#    y 0.000000 1.564390 0.000000 
#    z 0.000000 0.000000 1.570610 
# 
# From -- ./inp_files/43479.got.cif
#   From: 2010.05.17/outbox.cif.g08.bks.cpg/sg67_22_cif.got.tgz:43479.got - 2010.06.03 18:28:57.
