data_PCOD9503348
_publ_section_title
;
Structure prediction by ZEFSAII (Michael W. Deem and Ramdas Pophale) SiO2 
 PCOD9503348
Probable space group: C M M A
;
_chemical_formula_sum "Si O2"
_cell_formula_units_Z 96
_cell_length_a 25.324741
_cell_length_b 22.073357
_cell_length_c 7.257866
_cell_angle_alpha 90.000000
_cell_angle_beta 90.000000
_cell_angle_gamma 90.000000
_cell_volume 4057.161966
_symmetry_space_group_name_H-M "C M M A"
_symmetry_group_IT_number 67
_symmetry_cell_setting 'orthorhombic'
loop_
_space_group_symop_operation_xyz
x,y,z
-x,1/2-y,z
x,-y,-z
-x,1/2+y,-z
-x,-y,-z
x,1/2+y,-z
-x,y,z
x,1/2-y,z
1/2+x,1/2+y,z
1/2-x,-y,z
1/2+x,1/2-y,-z
1/2-x,y,-z
1/2-x,1/2-y,-z
1/2+x,y,-z
1/2-x,1/2+y,z
1/2+x,-y,z
loop_
_atom_site_type_symbol
_atom_site_label
_atom_site_fract_x
_atom_site_fract_y
_atom_site_fract_z
Si Si1 0.296371 0.406740 0.378341
Si Si2 0.826301 0.181902 0.907145
Si Si3 0.901883 0.978269 0.300590
Si Si4 0.941338 0.101422 0.230504
Si Si5 0.646860 0.321001 0.660284
Si Si6 0.442576 0.352026 0.172001
O O1 0.250000 0.434952 0.500000
O O2 0.289981 0.368420 0.189780
O O3 0.342259 0.454455 0.327196
O O4 0.314818 0.354706 0.521888
O O5 0.805689 0.250000 0.882190
O O6 0.884725 0.178327 0.807951
O O7 0.835716 0.171046 0.125270
O O8 0.935529 0.921285 0.236777
O O9 0.920482 0.000000 0.500000
O O10 0.909346 0.039850 0.185570
O O11 0.907903 0.142620 0.367711
O O12 0.000000 0.085727 0.292338
O O13 0.946034 0.141807 0.048640
O O14 0.642126 0.250000 0.626588
O O15 0.500000 0.327774 0.237280
#
# Coordination Sequence:
#
# PCOD9503348 Si02
#       6
#    16  16  16  16  16  16
#     4  11  24  42  62  85 115 152 201 255 308 355
#     4   9  20  38  61  88 120 157 197 242 293 352
#     4  11  21  37  56  84 115 152 193 246 294 349
#     4  10  20  37  60  87 121 161 198 233 286 353
#     4  10  21  40  62  89 124 156 194 244 294 349
#     4   9  19  34  57  87 120 159 197 236 287 351
#
# _framework density 23.661861999999999
#
# number of rings (size 3 to 8) (size 9 to 14) (size 15 to 20)
#    0.000    2.000    1.667    1.500    0.000    5.667 
#    0.000    5.000    0.000    2.000    0.000    0.000 
#    0.000    0.000    0.000    0.000    0.000    0.000 
#
# Total GULP energy -267893.666823 kJ/mol
# GULP energy per Si atom -5581.118059 kJ/mol
# Density = 2.360801 g / cm^3
# Si number density = 23.661862 Si / 1000 Ang^3
#
#
#
# Elastic Constant Matrix: (Units=GPa)
#
#
# Indices 1 2 3 4 5 6 
#
# 1 115.8987 41.4049 10.9473 0.0000 0.0000 0.0000
# 2 41.4049 113.5759 8.9222 0.0000 0.0000 0.0000
# 3 10.9473 8.9222 49.8413 0.0000 0.0000 0.0000
# 4 0.0000 0.0000 0.0000 16.8067 0.0000 0.0000
# 5 0.0000 0.0000 0.0000 0.0000 27.9325 0.0000
# 6 0.0000 0.0000 0.0000 0.0000 0.0000 -0.8887
#
#
#
# Elastic Compliance Matrix: (Units=1/GPa)
#
#
# Indices 1 2 3 4 5 6 
#
# 1 0.010040 -0.003537 -0.001572 0.000000 0.000000 0.000000
# 2 -0.003537 0.010176 -0.001045 0.000000 0.000000 0.000000
# 3 -0.001572 -0.001045 0.020596 0.000000 0.000000 0.000000
# 4 0.000000 0.000000 0.000000 0.059500 0.000000 0.000000
# 5 0.000000 0.000000 0.000000 0.000000 0.035801 0.000000
# 6 0.000000 0.000000 0.000000 0.000000 0.000000 -1.125212
#
#
# Mechanical properties :
#
#
# Convention : Reuss Voigt Hill
#
# Bulk Modulus (GPa) = 35.08163 44.65163 39.86663
# Shear Modulus (GPa) = -5.16908 23.30621 9.06856
#
# Velocity S-wave (km/s) = -1.47963 3.14183 1.95982
# Velocity P-wave (km/s) = 3.45534 5.66331 4.69108
#
# Compressibility (1/GPa) = 0.02850495
#
# Stress axis : x y z
#
# Youngs Moduli (GPa) = 99.59947 98.26949 48.55303
#
# Poissons Ratio (x) = 0.34755 0.07633
# Poissons Ratio (y) = 0.35226 0.05073
# Poissons Ratio (z) = 0.15658 0.10268
#
# Static dielectric constant tensor:
#      x y z
#    x 2.037120 0.000000 0.000000 
#    y 0.000000 1.892930 0.000000 
#    z 0.000000 0.000000 1.976290 
# 
# From -- ./inp_files/12600.got.cif
#   From: 2010.05.17/outbox.cif.g08.bks.cpg/sg67_7_cif.got.tgz:12600.got - 2010.06.03 18:28:57.
