data_PCOD9503771
_publ_section_title
;
Structure prediction by ZEFSAII (Michael W. Deem and Ramdas Pophale) SiO2 
 PCOD9503771
Probable space group: C M M A
;
_chemical_formula_sum "Si O2"
_cell_formula_units_Z 84
_cell_length_a 14.676251
_cell_length_b 18.075031
_cell_length_c 15.241493
_cell_angle_alpha 90.000000
_cell_angle_beta 90.000000
_cell_angle_gamma 90.000000
_cell_volume 4043.167116
_symmetry_space_group_name_H-M "C M M A"
_symmetry_group_IT_number 67
_symmetry_cell_setting 'orthorhombic'
loop_
_space_group_symop_operation_xyz
x,y,z
-x,1/2-y,z
x,-y,-z
-x,1/2+y,-z
-x,-y,-z
x,1/2+y,-z
-x,y,z
x,1/2-y,z
1/2+x,1/2+y,z
1/2-x,-y,z
1/2+x,1/2-y,-z
1/2-x,y,-z
1/2-x,1/2-y,-z
1/2+x,y,-z
1/2-x,1/2+y,z
1/2+x,-y,z
loop_
_atom_site_type_symbol
_atom_site_label
_atom_site_fract_x
_atom_site_fract_y
_atom_site_fract_z
Si Si1 0.604653 0.401710 0.268007
Si Si2 0.783319 0.337282 0.201054
Si Si3 0.595312 0.337785 0.639752
Si Si4 0.250000 0.500000 0.000000
Si Si5 0.144152 0.580657 0.472826
Si Si6 0.607754 0.526924 0.135231
O O1 0.500000 0.378061 0.255731
O O2 0.676594 0.352971 0.213548
O O3 0.626653 0.403250 0.371444
O O4 0.613145 0.484355 0.228040
O O5 0.799703 0.250000 0.182560
O O6 0.822924 0.358606 0.297226
O O7 0.840252 0.393658 0.139133
O O8 0.500000 0.366698 0.678471
O O9 0.593883 0.250000 0.642383
O O10 0.601891 0.361826 0.540128
O O11 0.328867 0.476863 0.071007
O O12 0.108551 0.500000 0.500000
O O13 0.250000 0.581439 0.500000
O O14 0.500000 0.532475 0.111800
#
# Coordination Sequence:
#
# PCOD9503771 Si02
#       6
#    16  16  16   4  16  16
#     4  11  23  40  62  89 126 171 217 265 324 384
#     4  11  22  40  64  91 130 169 209 261 314 374
#     4  10  21  36  56  83 117 162 212 257 304 359
#     4  12  22  44  78 102 130 152 200 256 332 386
#     4  11  22  34  56  83 118 161 213 275 318 359
#     4  11  24  43  71 101 128 162 208 257 314 390
#
# _framework density 20.775791999999999
#
# number of rings (size 3 to 8) (size 9 to 14) (size 15 to 20)
#    0.000    1.143    3.810    2.571    2.667    5.714 
#    0.000    0.476    0.000    0.000    0.000    0.000 
#    0.000    0.000    0.000    0.000    0.000    0.000 
#
# Total GULP energy -233829.601004 kJ/mol
# GULP energy per Si atom -5567.371452 kJ/mol
# Density = 2.072851 g / cm^3
# Si number density = 20.775792 Si / 1000 Ang^3
#
#
#
# Elastic Constant Matrix: (Units=GPa)
#
#
# Indices 1 2 3 4 5 6 
#
# 1 169.9621 26.7752 24.0136 0.0000 0.0000 0.0000
# 2 26.7752 37.9908 1.7312 0.0000 0.0000 0.0000
# 3 24.0136 1.7312 56.1887 0.0000 0.0000 0.0000
# 4 0.0000 0.0000 0.0000 -9.7077 0.0000 0.0000
# 5 0.0000 0.0000 0.0000 0.0000 36.9370 0.0000
# 6 0.0000 0.0000 0.0000 0.0000 0.0000 17.3979
#
#
#
# Elastic Compliance Matrix: (Units=1/GPa)
#
#
# Indices 1 2 3 4 5 6 
#
# 1 0.007051 -0.004839 -0.002864 0.000000 0.000000 0.000000
# 2 -0.004839 0.029680 0.001153 0.000000 0.000000 0.000000
# 3 -0.002864 0.001153 0.018986 0.000000 0.000000 0.000000
# 4 0.000000 0.000000 0.000000 -0.103011 0.000000 0.000000
# 5 0.000000 0.000000 0.000000 0.000000 0.027073 0.000000
# 6 0.000000 0.000000 0.000000 0.000000 0.000000 0.057478
#
#
# Mechanical properties :
#
#
# Convention : Reuss Voigt Hill
#
# Bulk Modulus (GPa) = 23.46460 41.02019 32.24239
# Shear Modulus (GPa) = 77.44580 23.03353 50.23966
#
# Velocity S-wave (km/s) = 6.11211 3.33328 4.92284
# Velocity P-wave (km/s) = 7.81852 5.88230 6.91848
#
# Compressibility (1/GPa) = 0.04261739
#
# Stress axis : x y z
#
# Youngs Moduli (GPa) = 141.83201 33.69302 52.67121
#
# Poissons Ratio (x) = 0.16303 0.15086
# Poissons Ratio (y) = 0.68627 -0.06075
# Poissons Ratio (z) = 0.40623 -0.03886
#
# Static dielectric constant tensor:
#      x y z
#    x 1.845660 0.000000 0.000000 
#    y 0.000000 1.808150 0.000000 
#    z 0.000000 0.000000 1.750470 
# 
# From -- ./inp_files/27082.got.cif
#   From: 2010.05.17/outbox.cif.g08.bks.cpg/sg67_14_cif.got.tgz:27082.got - 2010.06.03 18:28:57.
