data_PCOD9503528
_publ_section_title
;
Structure prediction by ZEFSAII (Michael W. Deem and Ramdas Pophale) SiO2 
 PCOD9503528
Probable space group: C M M A
;
_chemical_formula_sum "Si O2"
_cell_formula_units_Z 64
_cell_length_a 27.160879
_cell_length_b 17.233882
_cell_length_c 7.388608
_cell_angle_alpha 90.000000
_cell_angle_beta 90.000000
_cell_angle_gamma 90.000000
_cell_volume 3458.514188
_symmetry_space_group_name_H-M "C M M A"
_symmetry_group_IT_number 67
_symmetry_cell_setting 'orthorhombic'
loop_
_space_group_symop_operation_xyz
x,y,z
-x,1/2-y,z
x,-y,-z
-x,1/2+y,-z
-x,-y,-z
x,1/2+y,-z
-x,y,z
x,1/2-y,z
1/2+x,1/2+y,z
1/2-x,-y,z
1/2+x,1/2-y,-z
1/2-x,y,-z
1/2-x,1/2-y,-z
1/2+x,y,-z
1/2-x,1/2+y,z
1/2+x,-y,z
loop_
_atom_site_type_symbol
_atom_site_label
_atom_site_fract_x
_atom_site_fract_y
_atom_site_fract_z
Si Si1 0.398961 0.072384 0.884537
Si Si2 0.694258 0.486120 0.285053
Si Si3 0.056783 0.658363 0.546989
Si Si4 0.632814 0.660580 0.777709
O O1 0.429334 0.103840 0.715197
O O2 0.346436 0.040564 0.810028
O O3 0.390451 0.140614 0.028302
O O4 0.420470 0.000000 0.000000
O O5 0.691763 0.500000 0.500000
O O6 0.750000 0.500000 0.224525
O O7 0.677614 0.398400 0.247444
O O8 0.062744 0.750000 0.595124
O O9 0.093107 0.642699 0.379474
O O10 0.000000 0.646569 0.494888
O O11 0.646804 0.750000 0.764240
#
# Coordination Sequence:
#
# PCOD9503528 Si02
#       4
#    16  16  16  16
#     4  10  21  36  59  86 116 151 191 236 285 338
#     4  10  20  39  62  84 115 154 189 233 288 342
#     4  10  21  38  58  82 117 155 191 238 290 336
#     4  10  21  38  60  87 116 151 194 236 280 342
#
# _framework density 18.505057000000001
#
# number of rings (size 3 to 8) (size 9 to 14) (size 15 to 20)
#    0.000    2.000    2.500    0.750    0.000    6.000 
#    0.000   17.500    0.000    0.000    0.000    0.000 
#    0.000    0.000    0.000    0.000    0.000    0.000 
#
# Total GULP energy -178605.663174 kJ/mol
# GULP energy per Si atom -5581.426974 kJ/mol
# Density = 1.846294 g / cm^3
# Si number density = 18.505057 Si / 1000 Ang^3
#
#
#
# Elastic Constant Matrix: (Units=GPa)
#
#
# Indices 1 2 3 4 5 6 
#
# 1 98.8993 64.2614 28.5925 0.0000 0.0000 0.0000
# 2 64.2614 88.3214 40.0679 0.0000 0.0000 0.0000
# 3 28.5925 40.0679 96.0841 0.0000 0.0000 0.0000
# 4 0.0000 0.0000 0.0000 29.8831 0.0000 0.0000
# 5 0.0000 0.0000 0.0000 0.0000 1.3948 0.0000
# 6 0.0000 0.0000 0.0000 0.0000 0.0000 26.5036
#
#
#
# Elastic Compliance Matrix: (Units=1/GPa)
#
#
# Indices 1 2 3 4 5 6 
#
# 1 0.019179 -0.014017 0.000138 0.000000 0.000000 0.000000
# 2 -0.014017 0.024208 -0.005924 0.000000 0.000000 0.000000
# 3 0.000138 -0.005924 0.012837 0.000000 0.000000 0.000000
# 4 0.000000 0.000000 0.000000 0.033464 0.000000 0.000000
# 5 0.000000 0.000000 0.000000 0.000000 0.716968 0.000000
# 6 0.000000 0.000000 0.000000 0.000000 0.000000 0.037731
#
#
# Mechanical properties :
#
#
# Convention : Reuss Voigt Hill
#
# Bulk Modulus (GPa) = 60.17478 61.01649 60.59563
# Shear Modulus (GPa) = 5.62093 21.58182 13.60138
#
# Velocity S-wave (km/s) = 1.74474 3.41877 2.71405
# Velocity P-wave (km/s) = 6.05371 6.97341 6.52977
#
# Compressibility (1/GPa) = 0.01661826
#
# Stress axis : x y z
#
# Youngs Moduli (GPa) = 52.13966 41.30803 77.90093
#
# Poissons Ratio (x) = 0.57902 -0.01075
# Poissons Ratio (y) = 0.73085 0.46148
# Poissons Ratio (z) = -0.00719 0.24470
#
# Static dielectric constant tensor:
#      x y z
#    x 1.616470 0.000000 0.000000 
#    y 0.000000 1.632990 0.000000 
#    z 0.000000 0.000000 1.643130 
# 
# From -- ./inp_files/7984.got.cif
#   From: 2010.05.17/outbox.cif.g08.bks.cpg/sg67_4_cif.got.tgz:7984.got - 2010.06.03 18:28:57.
