data_PCOD9503626
_publ_section_title
;
Structure prediction by ZEFSAII (Michael W. Deem and Ramdas Pophale) SiO2 
 PCOD9503626
Probable space group: C M M A
;
_chemical_formula_sum "Si O2"
_cell_formula_units_Z 96
_cell_length_a 14.580814
_cell_length_b 14.903890
_cell_length_c 23.133972
_cell_angle_alpha 90.000000
_cell_angle_beta 90.000000
_cell_angle_gamma 90.000000
_cell_volume 5027.263072
_symmetry_space_group_name_H-M "C M M A"
_symmetry_group_IT_number 67
_symmetry_cell_setting 'orthorhombic'
loop_
_space_group_symop_operation_xyz
x,y,z
-x,1/2-y,z
x,-y,-z
-x,1/2+y,-z
-x,-y,-z
x,1/2+y,-z
-x,y,z
x,1/2-y,z
1/2+x,1/2+y,z
1/2-x,-y,z
1/2+x,1/2-y,-z
1/2-x,y,-z
1/2-x,1/2-y,-z
1/2+x,y,-z
1/2-x,1/2+y,z
1/2+x,-y,z
loop_
_atom_site_type_symbol
_atom_site_label
_atom_site_fract_x
_atom_site_fract_y
_atom_site_fract_z
Si Si1 0.107019 0.250000 0.569508
Si Si2 0.897685 0.643432 0.839054
Si Si3 0.250000 0.859630 0.252900
Si Si4 0.250000 0.603939 0.387179
Si Si5 0.892981 0.250000 0.430492
Si Si6 0.750000 0.893454 0.064931
Si Si7 0.102315 0.643432 0.160946
O O1 0.162415 0.337513 0.591746
O O2 0.110999 0.250000 0.500000
O O3 0.000000 0.250000 0.587369
O O4 0.904476 0.750000 0.830755
O O5 0.837525 0.610580 0.784982
O O6 0.838492 0.631096 0.896997
O O7 0.000000 0.606251 0.842657
O O8 0.250000 0.750000 0.255586
O O9 0.250000 0.894031 0.317648
O O10 0.162475 0.889420 0.215018
O O11 0.250000 0.500000 0.406929
O O12 0.337585 0.662487 0.408254
O O13 0.000000 0.250000 0.412631
O O14 0.838492 0.868904 0.103003
O O15 0.750000 0.000000 0.060812
O O16 0.750000 0.856150 0.000000
O O17 0.095524 0.750000 0.169245
O O18 0.000000 0.606251 0.157343
#
# Coordination Sequence:
#
# PCOD9503626 Si02
#       7
#     8  16  16  16   8  16  16
#     4  10  23  43  64  89 125 166 203 247 302 352
#     4   9  19  35  56  79 103 138 181 226 278 333
#     4   9  17  34  54  83 115 149 180 229 286 346
#     4  11  22  38  63  94 123 159 207 252 297 354
#     4  10  23  43  64  89 125 166 203 247 302 352
#     4  10  21  35  50  71 103 141 179 224 279 337
#     4   9  19  35  56  79 103 138 181 226 278 333
#
# _framework density 19.095877000000002
#
# number of rings (size 3 to 8) (size 9 to 14) (size 15 to 20)
#    0.000    2.333    1.667    2.500    0.000    8.667 
#    0.000    5.000    0.000    0.000    0.000    0.000 
#    0.000    0.000    0.000    0.000    0.000    0.000 
#
# Total GULP energy -267743.482142 kJ/mol
# GULP energy per Si atom -5577.989211 kJ/mol
# Density = 1.905241 g / cm^3
# Si number density = 19.095877 Si / 1000 Ang^3
#
#
#
# Elastic Constant Matrix: (Units=GPa)
#
#
# Indices 1 2 3 4 5 6 
#
# 1 200.2176 49.8443 72.8476 0.0000 0.0000 0.0000
# 2 49.8443 121.0194 22.4812 0.0000 0.0000 0.0000
# 3 72.8476 22.4812 128.3907 0.0000 0.0000 0.0000
# 4 0.0000 0.0000 0.0000 55.4783 0.0000 0.0000
# 5 0.0000 0.0000 0.0000 0.0000 -32.4115 0.0000
# 6 0.0000 0.0000 0.0000 0.0000 0.0000 -48.8560
#
#
#
# Elastic Compliance Matrix: (Units=1/GPa)
#
#
# Indices 1 2 3 4 5 6 
#
# 1 0.006796 -0.002153 -0.003479 0.000000 0.000000 0.000000
# 2 -0.002153 0.009223 -0.000393 0.000000 0.000000 0.000000
# 3 -0.003479 -0.000393 0.009832 0.000000 0.000000 0.000000
# 4 0.000000 0.000000 0.000000 0.018025 0.000000 0.000000
# 5 0.000000 0.000000 0.000000 0.000000 -0.030853 0.000000
# 6 0.000000 0.000000 0.000000 0.000000 0.000000 -0.020468
#
#
# Mechanical properties :
#
#
# Convention : Reuss Voigt Hill
#
# Bulk Modulus (GPa) = 72.46404 82.21932 77.34168
# Shear Modulus (GPa) = 543.14359 15.13914 279.14137
#
# Velocity S-wave (km/s) = 16.88334 2.81872 12.10356
# Velocity P-wave (km/s) = 20.44732 7.33097 15.35962
#
# Compressibility (1/GPa) = 0.01379995
#
# Stress axis : x y z
#
# Youngs Moduli (GPa) = 147.13581 108.42523 101.71176
#
# Poissons Ratio (x) = 0.23343 0.35388
# Poissons Ratio (y) = 0.31677 0.04001
# Poissons Ratio (z) = 0.51192 0.04265
#
# Static dielectric constant tensor:
#      x y z
#    x 1.669000 0.000000 0.000000 
#    y 0.000000 1.698720 0.000000 
#    z 0.000000 0.000000 1.647400 
# 
# From -- ./inp_files/38522.got.cif
#   From: 2010.05.17/outbox.cif.g08.bks.cpg/sg67_20_cif.got.tgz:38522.got - 2010.06.03 18:28:57.
