data_PCOD9503477
_publ_section_title
;
Structure prediction by ZEFSAII (Michael W. Deem and Ramdas Pophale) SiO2 
 PCOD9503477
Probable space group: C M M A
;
_chemical_formula_sum "Si O2"
_cell_formula_units_Z 104
_cell_length_a 8.679888
_cell_length_b 26.649377
_cell_length_c 22.682363
_cell_angle_alpha 90.000000
_cell_angle_beta 90.000000
_cell_angle_gamma 90.000000
_cell_volume 5246.739215
_symmetry_space_group_name_H-M "C M M A"
_symmetry_group_IT_number 67
_symmetry_cell_setting 'orthorhombic'
loop_
_space_group_symop_operation_xyz
x,y,z
-x,1/2-y,z
x,-y,-z
-x,1/2+y,-z
-x,-y,-z
x,1/2+y,-z
-x,y,z
x,1/2-y,z
1/2+x,1/2+y,z
1/2-x,-y,z
1/2+x,1/2-y,-z
1/2-x,y,-z
1/2-x,1/2-y,-z
1/2+x,y,-z
1/2-x,1/2+y,z
1/2+x,-y,z
loop_
_atom_site_type_symbol
_atom_site_label
_atom_site_fract_x
_atom_site_fract_y
_atom_site_fract_z
Si Si1 0.815457 0.693882 0.813405
Si Si2 0.184206 0.552694 0.100679
Si Si3 0.816941 0.946294 0.648049
Si Si4 0.814507 0.140784 0.566502
Si Si5 0.814662 0.337131 0.938353
Si Si6 0.315270 0.409230 0.229525
Si Si7 0.814859 0.250000 0.566319
O O1 0.777438 0.750000 0.791938
O O2 0.756620 0.688580 0.880744
O O3 0.737132 0.648477 0.778127
O O4 0.000000 0.687646 0.812099
O O5 0.250000 0.500000 0.079284
O O6 0.229532 0.603730 0.067437
O O7 0.230020 0.562732 0.168877
O O8 0.000000 0.549790 0.098576
O O9 0.752900 0.902985 0.606031
O O10 0.761501 0.934066 0.714140
O O11 0.000000 0.947516 0.645828
O O12 0.750000 0.000000 0.630054
O O13 0.750000 0.137313 0.500000
O O14 0.769075 0.195988 0.591843
O O15 0.000000 0.137580 0.565010
O O16 0.000000 0.333171 0.936090
O O17 0.750000 0.317534 0.000000
O O18 0.500000 0.411246 0.234843
O O19 0.750000 0.250000 0.500000
O O20 0.000000 0.250000 0.563434
#
# Coordination Sequence:
#
# PCOD9503477 Si02
#       7
#    16  16  16  16  16  16   8
#     4  10  21  38  60  85 113 146 186 234 289 348
#     4   9  19  33  52  77 104 138 180 224 276 334
#     4  12  25  41  61  88 121 160 202 250 299 355
#     4  10  20  38  62  91 124 161 203 248 299 357
#     4  10  21  36  53  77 109 145 187 232 282 342
#     4  10  21  39  60  84 113 148 190 236 288 348
#     4   8  16  32  58  86 116 152 192 236 285 340
#
# _framework density 19.821835
#
# number of rings (size 3 to 8) (size 9 to 14) (size 15 to 20)
#    0.000    2.000    0.000    4.615    0.000    7.692 
#    1.385    3.077    0.000    0.000    0.000    0.000 
#    0.000    0.000    0.000    0.000    0.000    0.000 
#
# Total GULP energy -290473.361213 kJ/mol
# GULP energy per Si atom -5586.026177 kJ/mol
# Density = 1.977672 g / cm^3
# Si number density = 19.821835 Si / 1000 Ang^3
#
#
#
# Elastic Constant Matrix: (Units=GPa)
#
#
# Indices 1 2 3 4 5 6 
#
# 1 72.8179 36.0074 19.7525 0.0000 0.0000 0.0000
# 2 36.0074 137.5536 25.8159 0.0000 0.0000 0.0000
# 3 19.7525 25.8159 52.2757 0.0000 0.0000 0.0000
# 4 0.0000 0.0000 0.0000 -9.0228 0.0000 0.0000
# 5 0.0000 0.0000 0.0000 0.0000 27.5408 0.0000
# 6 0.0000 0.0000 0.0000 0.0000 0.0000 28.0461
#
#
#
# Elastic Compliance Matrix: (Units=1/GPa)
#
#
# Indices 1 2 3 4 5 6 
#
# 1 0.016713 -0.003516 -0.004579 0.000000 0.000000 0.000000
# 2 -0.003516 0.008752 -0.002994 0.000000 0.000000 0.000000
# 3 -0.004579 -0.002994 0.022338 0.000000 0.000000 0.000000
# 4 0.000000 0.000000 0.000000 -0.110830 0.000000 0.000000
# 5 0.000000 0.000000 0.000000 0.000000 0.036310 0.000000
# 6 0.000000 0.000000 0.000000 0.000000 0.000000 0.035656
#
#
# Mechanical properties :
#
#
# Convention : Reuss Voigt Hill
#
# Bulk Modulus (GPa) = 39.02191 47.31095 43.16643
# Shear Modulus (GPa) = 126.07928 21.38424 73.73176
#
# Velocity S-wave (km/s) = 7.98401 3.28811 6.10557
# Velocity P-wave (km/s) = 10.23335 6.19156 8.45745
#
# Compressibility (1/GPa) = 0.02562663
#
# Stress axis : x y z
#
# Youngs Moduli (GPa) = 59.83204 114.25893 44.76684
#
# Poissons Ratio (x) = 0.40170 0.20499
# Poissons Ratio (y) = 0.21035 0.13402
# Poissons Ratio (z) = 0.27397 0.34206
#
# Static dielectric constant tensor:
#      x y z
#    x 1.660220 0.000000 0.000000 
#    y 0.000000 1.721500 0.000000 
#    z 0.000000 0.000000 1.674370 
# 
# From -- ./inp_files/37299.got.cif
#   From: 2010.05.17/outbox.cif.g08.bks.cpg/sg67_19_cif.got.tgz:37299.got - 2010.06.03 18:28:57.
