data_PCOD9503152
_publ_section_title
;
Structure prediction by ZEFSAII (Michael W. Deem and Ramdas Pophale) SiO2 
 PCOD9503152
Probable space group: C M M A
;
_chemical_formula_sum "Si O2"
_cell_formula_units_Z 60
_cell_length_a 14.822838
_cell_length_b 15.989246
_cell_length_c 13.566186
_cell_angle_alpha 90.000000
_cell_angle_beta 90.000000
_cell_angle_gamma 90.000000
_cell_volume 3215.267523
_symmetry_space_group_name_H-M "C M M A"
_symmetry_group_IT_number 67
_symmetry_cell_setting 'orthorhombic'
loop_
_space_group_symop_operation_xyz
x,y,z
-x,1/2-y,z
x,-y,-z
-x,1/2+y,-z
-x,-y,-z
x,1/2+y,-z
-x,y,z
x,1/2-y,z
1/2+x,1/2+y,z
1/2-x,-y,z
1/2+x,1/2-y,-z
1/2-x,y,-z
1/2-x,1/2-y,-z
1/2+x,y,-z
1/2-x,1/2+y,z
1/2+x,-y,z
loop_
_atom_site_type_symbol
_atom_site_label
_atom_site_fract_x
_atom_site_fract_y
_atom_site_fract_z
Si Si1 0.192537 0.750000 0.902347
Si Si2 0.500000 0.401239 0.719340
Si Si3 0.000000 0.599761 0.491400
Si Si4 0.500000 0.250000 0.872402
Si Si5 0.701424 0.921175 0.224530
Si Si6 0.189418 0.153418 0.597571
O O1 0.088816 0.750000 0.935458
O O2 0.203807 0.664943 0.838368
O O3 0.250000 0.750000 0.000000
O O4 0.500000 0.370389 0.605721
O O5 0.500000 0.326809 0.797509
O O6 0.401854 0.442298 0.741595
O O7 0.000000 0.500000 0.500000
O O8 0.911027 0.628083 0.433813
O O9 0.762428 0.901869 0.320197
O O10 0.750000 0.000000 0.173289
O O11 0.189591 0.250000 0.630628
O O12 0.250000 0.147410 0.500000
#
# Coordination Sequence:
#
# PCOD9503152 Si02
#       6
#     8   8   8   4  16  16
#     4  10  22  44  66  93 117 148 204 259 317 373
#     4  10  20  36  58  85 117 160 215 246 276 356
#     4  12  23  33  53  83 122 169 206 245 283 351
#     4   8  20  36  66  88 106 150 200 250 298 358
#     4  11  22  40  64  88 124 163 203 254 309 369
#     4  11  23  36  55  84 122 161 202 248 299 343
#
# _framework density 18.660966999999999
#
# number of rings (size 3 to 8) (size 9 to 14) (size 15 to 20)
#    0.000    1.333    4.000    2.000    1.867    0.533 
#    0.000    2.667    0.000    4.800    0.000    0.000 
#    0.000    0.000    0.000    0.000    0.000    0.000 
#
# Total GULP energy -167317.365719 kJ/mol
# GULP energy per Si atom -5577.245524 kJ/mol
# Density = 1.861849 g / cm^3
# Si number density = 18.660967 Si / 1000 Ang^3
#
#
#
# Elastic Constant Matrix: (Units=GPa)
#
#
# Indices 1 2 3 4 5 6 
#
# 1 196.2645 48.8276 51.3894 0.0000 0.0000 0.0000
# 2 48.8276 95.5745 16.0927 0.0000 0.0000 0.0000
# 3 51.3894 16.0927 59.9710 0.0000 0.0000 0.0000
# 4 0.0000 0.0000 0.0000 2.3741 0.0000 0.0000
# 5 0.0000 0.0000 0.0000 0.0000 34.5091 0.0000
# 6 0.0000 0.0000 0.0000 0.0000 0.0000 20.1737
#
#
#
# Elastic Compliance Matrix: (Units=1/GPa)
#
#
# Indices 1 2 3 4 5 6 
#
# 1 0.007206 -0.002767 -0.005432 0.000000 0.000000 0.000000
# 2 -0.002767 0.012020 -0.000855 0.000000 0.000000 0.000000
# 3 -0.005432 -0.000855 0.021559 0.000000 0.000000 0.000000
# 4 0.000000 0.000000 0.000000 0.421216 0.000000 0.000000
# 5 0.000000 0.000000 0.000000 0.000000 0.028978 0.000000
# 6 0.000000 0.000000 0.000000 0.000000 0.000000 0.049569
#
#
# Mechanical properties :
#
#
# Convention : Reuss Voigt Hill
#
# Bulk Modulus (GPa) = 44.09605 64.93659 54.51632
# Shear Modulus (GPa) = 8.83056 27.11139 17.97098
#
# Velocity S-wave (km/s) = 2.17770 3.81575 3.10663
# Velocity P-wave (km/s) = 5.47764 7.36796 6.49197
#
# Compressibility (1/GPa) = 0.02267777
#
# Stress axis : x y z
#
# Youngs Moduli (GPa) = 138.77604 83.19169 46.38421
#
# Poissons Ratio (x) = 0.23016 0.25197
# Poissons Ratio (y) = 0.38395 0.03965
# Poissons Ratio (z) = 0.75387 0.07111
#
# Static dielectric constant tensor:
#      x y z
#    x 1.662030 0.000000 0.000000 
#    y 0.000000 1.696510 0.000000 
#    z 0.000000 0.000000 1.613970 
# 
# From -- ./inp_files/17461.got.cif
#   From: 2010.05.17/outbox.cif.g08.bks.cpg/sg67_9_cif.got.tgz:17461.got - 2010.06.03 18:28:57.
