data_PCOD9503828
_publ_section_title
;
Structure prediction by ZEFSAII (Michael W. Deem and Ramdas Pophale) SiO2 
 PCOD9503828
Probable space group: C M M A
;
_chemical_formula_sum "Si O2"
_cell_formula_units_Z 88
_cell_length_a 31.266210
_cell_length_b 8.681423
_cell_length_c 17.943984
_cell_angle_alpha 90.000000
_cell_angle_beta 90.000000
_cell_angle_gamma 90.000000
_cell_volume 4870.628789
_symmetry_space_group_name_H-M "C M M A"
_symmetry_group_IT_number 67
_symmetry_cell_setting 'orthorhombic'
loop_
_space_group_symop_operation_xyz
x,y,z
-x,1/2-y,z
x,-y,-z
-x,1/2+y,-z
-x,-y,-z
x,1/2+y,-z
-x,y,z
x,1/2-y,z
1/2+x,1/2+y,z
1/2-x,-y,z
1/2+x,1/2-y,-z
1/2-x,y,-z
1/2-x,1/2-y,-z
1/2+x,y,-z
1/2-x,1/2+y,z
1/2+x,-y,z
loop_
_atom_site_type_symbol
_atom_site_label
_atom_site_fract_x
_atom_site_fract_y
_atom_site_fract_z
Si Si1 0.000000 0.434146 0.917483
Si Si2 0.586576 0.065375 0.852210
Si Si3 0.295708 0.064574 0.755461
Si Si4 0.118218 0.566640 0.303419
Si Si5 0.175914 0.933442 0.921098
Si Si6 0.548460 0.435054 0.583630
O O1 0.957832 0.499866 0.879397
O O2 0.000000 0.250000 0.917100
O O3 0.000000 0.500000 0.000000
O O4 0.585098 0.250000 0.842140
O O5 0.625468 0.032361 0.909108
O O6 0.597831 0.985635 0.774726
O O7 0.296709 0.250000 0.754840
O O8 0.303500 0.013772 0.842345
O O9 0.250000 0.000000 0.731915
O O10 0.334019 0.002792 0.703656
O O11 0.120627 0.750000 0.309339
O O12 0.086735 0.501436 0.366618
O O13 0.181389 0.750000 0.924377
O O14 0.191096 0.000000 0.000000
O O15 0.551861 0.500000 0.500000
O O16 0.500000 0.475803 0.611087
O O17 0.551226 0.250000 0.582641
#
# Coordination Sequence:
#
# PCOD9503828 Si02
#       6
#     8  16  16  16  16  16
#     4  12  24  36  50  72 101 140 187 236 286 340
#     4  10  21  37  53  73 103 142 187 236 285 335
#     4  10  21  38  57  81 111 146 191 239 292 345
#     4  11  22  37  59  86 116 151 190 232 282 341
#     4   9  19  33  51  73 101 137 179 230 286 342
#     4  10  21  38  61  90 124 159 192 230 277 328
#
# _framework density 18.067482999999999
#
# number of rings (size 3 to 8) (size 9 to 14) (size 15 to 20)
#    0.000    1.818    0.000    5.727    1.273    7.273 
#    0.000    1.818    0.000    0.545    0.000    3.818 
#    0.000    0.000    0.000    0.000    0.000    0.000 
#
# Total GULP energy -245640.090815 kJ/mol
# GULP energy per Si atom -5582.729337 kJ/mol
# Density = 1.802636 g / cm^3
# Si number density = 18.067483 Si / 1000 Ang^3
#
#
#
# Elastic Constant Matrix: (Units=GPa)
#
#
# Indices 1 2 3 4 5 6 
#
# 1 162.3696 58.5319 58.5439 0.0000 0.0000 0.0000
# 2 58.5319 95.2865 35.6977 0.0000 0.0000 0.0000
# 3 58.5439 35.6977 75.8069 0.0000 0.0000 0.0000
# 4 0.0000 0.0000 0.0000 31.3721 0.0000 0.0000
# 5 0.0000 0.0000 0.0000 0.0000 9.9030 0.0000
# 6 0.0000 0.0000 0.0000 0.0000 0.0000 26.4628
#
#
#
# Elastic Compliance Matrix: (Units=1/GPa)
#
#
# Indices 1 2 3 4 5 6 
#
# 1 0.009529 -0.003760 -0.005589 0.000000 0.000000 0.000000
# 2 -0.003760 0.014226 -0.003796 0.000000 0.000000 0.000000
# 3 -0.005589 -0.003796 0.019295 0.000000 0.000000 0.000000
# 4 0.000000 0.000000 0.000000 0.031875 0.000000 0.000000
# 5 0.000000 0.000000 0.000000 0.000000 0.100980 0.000000
# 6 0.000000 0.000000 0.000000 0.000000 0.000000 0.037789
#
#
# Mechanical properties :
#
#
# Convention : Reuss Voigt Hill
#
# Bulk Modulus (GPa) = 59.65850 71.00111 65.32980
# Shear Modulus (GPa) = 20.36083 25.59354 22.97718
#
# Velocity S-wave (km/s) = 3.36062 3.76779 3.57002
# Velocity P-wave (km/s) = 6.93901 7.63619 7.29593
#
# Compressibility (1/GPa) = 0.01676207
#
# Stress axis : x y z
#
# Youngs Moduli (GPa) = 104.94072 70.29299 51.82766
#
# Poissons Ratio (x) = 0.26429 0.28965
# Poissons Ratio (y) = 0.39456 0.19671
# Poissons Ratio (z) = 0.58648 0.26680
#
# Static dielectric constant tensor:
#      x y z
#    x 1.618550 0.000000 0.000000 
#    y 0.000000 1.601830 0.000000 
#    z 0.000000 0.000000 1.591560 
# 
# From -- ./inp_files/36173.got.cif
#   From: 2010.05.17/outbox.cif.g08.bks.cpg/sg67_19_cif.got.tgz:36173.got - 2010.06.03 18:28:57.
