data_PCOD9503646
_publ_section_title
;
Structure prediction by ZEFSAII (Michael W. Deem and Ramdas Pophale) SiO2 
 PCOD9503646
Probable space group: C M M A
;
_chemical_formula_sum "Si O2"
_cell_formula_units_Z 96
_cell_length_a 19.172256
_cell_length_b 22.351710
_cell_length_c 10.367304
_cell_angle_alpha 90.000000
_cell_angle_beta 90.000000
_cell_angle_gamma 90.000000
_cell_volume 4442.728839
_symmetry_space_group_name_H-M "C M M A"
_symmetry_group_IT_number 67
_symmetry_cell_setting 'orthorhombic'
loop_
_space_group_symop_operation_xyz
x,y,z
-x,1/2-y,z
x,-y,-z
-x,1/2+y,-z
-x,-y,-z
x,1/2+y,-z
-x,y,z
x,1/2-y,z
1/2+x,1/2+y,z
1/2-x,-y,z
1/2+x,1/2-y,-z
1/2-x,y,-z
1/2-x,1/2-y,-z
1/2+x,y,-z
1/2-x,1/2+y,z
1/2+x,-y,z
loop_
_atom_site_type_symbol
_atom_site_label
_atom_site_fract_x
_atom_site_fract_y
_atom_site_fract_z
Si Si1 0.920304 0.599681 0.775920
Si Si2 0.282391 0.441024 0.359221
Si Si3 0.079498 0.456097 0.739489
Si Si4 0.210111 0.185678 0.637400
Si Si5 0.668779 0.072324 0.013436
Si Si6 0.918705 0.181294 0.464551
O O1 0.922594 0.527886 0.756940
O O2 0.897156 0.635095 0.647707
O O3 0.000000 0.619447 0.801402
O O4 0.872012 0.606066 0.899872
O O5 0.250000 0.500000 0.291257
O O6 0.250000 0.439247 0.500000
O O7 0.365069 0.448347 0.374342
O O8 0.267658 0.376356 0.297693
O O9 0.120590 0.423750 0.857305
O O10 0.000000 0.435779 0.723912
O O11 0.220569 0.250000 0.702759
O O12 0.250000 0.188415 0.500000
O O13 0.130101 0.179042 0.590185
O O14 0.750000 0.089515 0.000000
O O15 0.668272 0.000000 0.000000
O O16 0.911905 0.250000 0.415589
O O17 0.000000 0.170591 0.494239
#
# Coordination Sequence:
#
# PCOD9503646 Si02
#       6
#    16  16  16  16  16  16
#     4   9  18  31  51  76 105 137 172 218 270 327
#     4  10  23  35  53  79 108 143 183 233 281 329
#     4  10  21  35  52  77 112 147 180 220 279 340
#     4   9  19  35  53  73 102 142 184 226 271 328
#     4   9  18  30  52  79 104 139 177 218 266 333
#     4   9  18  32  52  77 102 136 181 222 264 319
#
# _framework density 21.608340999999999
#
# number of rings (size 3 to 8) (size 9 to 14) (size 15 to 20)
#    0.000    2.667    0.000    0.500   11.667    2.667 
#    0.000    1.667    0.000    1.500    0.000    0.000 
#    0.000    0.000    0.000    0.000    0.000    0.000 
#
# Total GULP energy -267493.816247 kJ/mol
# GULP energy per Si atom -5572.787838 kJ/mol
# Density = 2.155916 g / cm^3
# Si number density = 21.608341 Si / 1000 Ang^3
#
#
#
# Elastic Constant Matrix: (Units=GPa)
#
#
# Indices 1 2 3 4 5 6 
#
# 1 164.0266 15.9436 37.9999 0.0000 0.0000 0.0000
# 2 15.9436 140.4421 16.2682 0.0000 0.0000 0.0000
# 3 37.9999 16.2682 64.1411 0.0000 0.0000 0.0000
# 4 0.0000 0.0000 0.0000 10.6457 0.0000 0.0000
# 5 0.0000 0.0000 0.0000 0.0000 29.4731 0.0000
# 6 0.0000 0.0000 0.0000 0.0000 0.0000 28.7195
#
#
#
# Elastic Compliance Matrix: (Units=1/GPa)
#
#
# Indices 1 2 3 4 5 6 
#
# 1 0.007081 -0.000328 -0.004112 0.000000 0.000000 0.000000
# 2 -0.000328 0.007351 -0.001670 0.000000 0.000000 0.000000
# 3 -0.004112 -0.001670 0.018450 0.000000 0.000000 0.000000
# 4 0.000000 0.000000 0.000000 0.093935 0.000000 0.000000
# 5 0.000000 0.000000 0.000000 0.000000 0.033929 0.000000
# 6 0.000000 0.000000 0.000000 0.000000 0.000000 0.034820
#
#
# Mechanical properties :
#
#
# Convention : Reuss Voigt Hill
#
# Bulk Modulus (GPa) = 48.39673 56.55924 52.47798
# Shear Modulus (GPa) = 23.29119 33.66087 28.47603
#
# Velocity S-wave (km/s) = 3.28667 3.95114 3.63413
# Velocity P-wave (km/s) = 6.07032 6.85908 6.47672
#
# Compressibility (1/GPa) = 0.02066255
#
# Stress axis : x y z
#
# Youngs Moduli (GPa) = 141.22213 136.03502 54.19926
#
# Poissons Ratio (x) = 0.04456 0.22287
# Poissons Ratio (y) = 0.04626 0.09053
# Poissons Ratio (z) = 0.58071 0.22723
#
# Static dielectric constant tensor:
#      x y z
#    x 1.876010 0.000000 0.000000 
#    y 0.000000 1.857290 0.000000 
#    z 0.000000 0.000000 1.817200 
# 
# From -- ./inp_files/19786.got.cif
#   From: 2010.05.17/outbox.cif.g08.bks.cpg/sg67_10_cif.got.tgz:19786.got - 2010.06.03 18:28:57.
