data_PCOD9503018
_publ_section_title
;
Structure prediction by ZEFSAII (Michael W. Deem and Ramdas Pophale) SiO2 
 PCOD9503018
Probable space group: C M M A
;
_chemical_formula_sum "Si O2"
_cell_formula_units_Z 96
_cell_length_a 14.896223
_cell_length_b 22.806025
_cell_length_c 11.543121
_cell_angle_alpha 90.000000
_cell_angle_beta 90.000000
_cell_angle_gamma 90.000000
_cell_volume 3921.471015
_symmetry_space_group_name_H-M "C M M A"
_symmetry_group_IT_number 67
_symmetry_cell_setting 'orthorhombic'
loop_
_space_group_symop_operation_xyz
x,y,z
-x,1/2-y,z
x,-y,-z
-x,1/2+y,-z
-x,-y,-z
x,1/2+y,-z
-x,y,z
x,1/2-y,z
1/2+x,1/2+y,z
1/2-x,-y,z
1/2+x,1/2-y,-z
1/2-x,y,-z
1/2-x,1/2-y,-z
1/2+x,y,-z
1/2-x,1/2+y,z
1/2+x,-y,z
loop_
_atom_site_type_symbol
_atom_site_label
_atom_site_fract_x
_atom_site_fract_y
_atom_site_fract_z
Si Si1 0.392040 0.313268 0.962302
Si Si2 0.851000 0.984680 0.694401
Si Si3 0.226745 0.815909 0.731850
Si Si4 0.108367 0.940753 0.938033
Si Si5 0.902365 0.378226 0.442535
Si Si6 0.097542 0.115956 0.718357
O O1 0.500000 0.312571 0.949883
O O2 0.366939 0.250000 0.020093
O O3 0.342531 0.312645 0.838413
O O4 0.369757 0.379824 0.002161
O O5 0.896519 0.045702 0.729450
O O6 0.750000 0.000000 0.660525
O O7 0.852687 0.944088 0.808731
O O8 0.895165 0.946314 0.594351
O O9 0.253190 0.750000 0.700203
O O10 0.176705 0.845775 0.623929
O O11 0.315686 0.851352 0.764643
O O12 0.000000 0.943573 0.927488
O O13 0.139225 0.000000 0.000000
O O14 0.898554 0.372783 0.579933
O O15 0.000000 0.356054 0.402160
O O16 0.000000 0.136077 0.763552
#
# Coordination Sequence:
#
# PCOD9503018 Si02
#       6
#    16  16  16  16  16  16
#     4   9  17  33  59  90 124 162 203 251 310 370
#     4  12  22  37  60  85 116 154 197 251 307 366
#     4  11  22  37  58  84 118 159 204 250 296 350
#     4  10  20  35  58  90 123 154 194 251 311 367
#     4  11  22  37  58  85 117 153 199 252 306 356
#     4  11  24  38  55  81 118 164 204 246 298 358
#
# _framework density 24.480609999999999
#
# number of rings (size 3 to 8) (size 9 to 14) (size 15 to 20)
#    0.000    1.333    3.333    3.000    0.000    5.000 
#    0.000    1.667    0.000    1.000    0.000    5.833 
#    0.000    0.000    0.000    0.000    0.000    0.000 
#
# Total GULP energy -268661.976662 kJ/mol
# GULP energy per Si atom -5597.124514 kJ/mol
# Density = 2.442489 g / cm^3
# Si number density = 24.480610 Si / 1000 Ang^3
#
#
#
# Elastic Constant Matrix: (Units=GPa)
#
#
# Indices 1 2 3 4 5 6 
#
# 1 124.6413 28.6135 26.2438 0.0000 0.0000 0.0000
# 2 28.6135 175.4710 14.5161 0.0000 0.0000 0.0000
# 3 26.2438 14.5161 64.5182 0.0000 0.0000 0.0000
# 4 0.0000 0.0000 0.0000 23.9874 0.0000 0.0000
# 5 0.0000 0.0000 0.0000 0.0000 7.8296 0.0000
# 6 0.0000 0.0000 0.0000 0.0000 0.0000 7.6741
#
#
#
# Elastic Compliance Matrix: (Units=1/GPa)
#
#
# Indices 1 2 3 4 5 6 
#
# 1 0.009011 -0.001188 -0.003398 0.000000 0.000000 0.000000
# 2 -0.001188 0.005964 -0.000858 0.000000 0.000000 0.000000
# 3 -0.003398 -0.000858 0.017075 0.000000 0.000000 0.000000
# 4 0.000000 0.000000 0.000000 0.041689 0.000000 0.000000
# 5 0.000000 0.000000 0.000000 0.000000 0.127720 0.000000
# 6 0.000000 0.000000 0.000000 0.000000 0.000000 0.130308
#
#
# Mechanical properties :
#
#
# Convention : Reuss Voigt Hill
#
# Bulk Modulus (GPa) = 47.25858 55.93079 51.59469
# Shear Modulus (GPa) = 14.29757 27.58204 20.93981
#
# Velocity S-wave (km/s) = 2.41931 3.36026 2.92783
# Velocity P-wave (km/s) = 5.21061 6.16050 5.70536
#
# Compressibility (1/GPa) = 0.02116018
#
# Stress axis : x y z
#
# Youngs Moduli (GPa) = 110.97162 167.68009 58.56557
#
# Poissons Ratio (x) = 0.19926 0.19901
# Poissons Ratio (y) = 0.13187 0.05027
# Poissons Ratio (z) = 0.37710 0.14394
#
# Static dielectric constant tensor:
#      x y z
#    x 1.897830 0.000000 0.000000 
#    y 0.000000 1.975290 0.000000 
#    z 0.000000 0.000000 1.947590 
# 
# From -- ./inp_files/27221.got.cif
#   From: 2010.05.17/outbox.cif.g08.bks.cpg/sg67_14_cif.got.tgz:27221.got - 2010.06.03 18:28:57.
