data_PCOD9503452
_publ_section_title
;
Structure prediction by ZEFSAII (Michael W. Deem and Ramdas Pophale) SiO2 
 PCOD9503452
Probable space group: C M M A
;
_chemical_formula_sum "Si O2"
_cell_formula_units_Z 84
_cell_length_a 15.020765
_cell_length_b 20.362581
_cell_length_c 12.603460
_cell_angle_alpha 90.000000
_cell_angle_beta 90.000000
_cell_angle_gamma 90.000000
_cell_volume 3854.913735
_symmetry_space_group_name_H-M "C M M A"
_symmetry_group_IT_number 67
_symmetry_cell_setting 'orthorhombic'
loop_
_space_group_symop_operation_xyz
x,y,z
-x,1/2-y,z
x,-y,-z
-x,1/2+y,-z
-x,-y,-z
x,1/2+y,-z
-x,y,z
x,1/2-y,z
1/2+x,1/2+y,z
1/2-x,-y,z
1/2+x,1/2-y,-z
1/2-x,y,-z
1/2-x,1/2-y,-z
1/2+x,y,-z
1/2-x,1/2+y,z
1/2+x,-y,z
loop_
_atom_site_type_symbol
_atom_site_label
_atom_site_fract_x
_atom_site_fract_y
_atom_site_fract_z
Si Si1 0.856334 0.068225 0.815239
Si Si2 0.645442 0.139729 0.982341
Si Si3 0.500000 0.250000 0.026528
Si Si4 0.607285 0.425563 0.525318
Si Si5 0.104298 0.824228 0.351121
Si Si6 0.147089 0.074336 0.234971
O O1 0.891975 0.132330 0.755139
O O2 0.752538 0.068307 0.784137
O O3 0.893596 0.998660 0.777518
O O4 0.865420 0.077060 0.940579
O O5 0.578026 0.193784 0.021792
O O6 0.621049 0.121871 0.861269
O O7 0.750000 0.158581 0.000000
O O8 0.639672 0.500000 0.500000
O O9 0.500000 0.427810 0.513913
O O10 0.643150 0.371909 0.442040
O O11 0.628431 0.404974 0.645301
O O12 0.141757 0.750000 0.341913
O O13 0.000000 0.816567 0.376060
#
# Coordination Sequence:
#
# PCOD9503452 Si02
#       6
#    16  16   4  16  16  16
#     4  10  21  39  66  93 125 168 210 273 332 388
#     4  10  24  44  65  97 135 170 221 276 328 395
#     4  12  26  44  66  98 128 194 216 260 340 414
#     4  10  20  38  61  89 127 169 215 273 328 386
#     4  10  22  39  60  90 126 166 212 271 330 392
#     4  10  21  41  64  93 127 168 214 272 330 391
#
# _framework density 21.790371
#
# number of rings (size 3 to 8) (size 9 to 14) (size 15 to 20)
#    0.000    1.905    1.905    0.857    4.000    3.048 
#    3.429    1.905    0.000    0.000    0.000    0.000 
#    0.000    0.000    0.000    0.000    0.000    0.000 
#
# Total GULP energy -233889.271437 kJ/mol
# GULP energy per Si atom -5568.792177 kJ/mol
# Density = 2.174078 g / cm^3
# Si number density = 21.790371 Si / 1000 Ang^3
#
#
#
# Elastic Constant Matrix: (Units=GPa)
#
#
# Indices 1 2 3 4 5 6 
#
# 1 53.4737 34.8279 11.8978 0.0000 0.0000 0.0000
# 2 34.8279 115.8165 35.2027 0.0000 0.0000 0.0000
# 3 11.8978 35.2027 128.6967 0.0000 0.0000 0.0000
# 4 0.0000 0.0000 0.0000 -82.4683 0.0000 0.0000
# 5 0.0000 0.0000 0.0000 0.0000 30.7124 0.0000
# 6 0.0000 0.0000 0.0000 0.0000 0.0000 10.3760
#
#
#
# Elastic Compliance Matrix: (Units=1/GPa)
#
#
# Indices 1 2 3 4 5 6 
#
# 1 0.023264 -0.006917 -0.000259 0.000000 0.000000 0.000000
# 2 -0.006917 0.011474 -0.002499 0.000000 0.000000 0.000000
# 3 -0.000259 -0.002499 0.008478 0.000000 0.000000 0.000000
# 4 0.000000 0.000000 0.000000 -0.012126 0.000000 0.000000
# 5 0.000000 0.000000 0.000000 0.000000 0.032560 0.000000
# 6 0.000000 0.000000 0.000000 0.000000 0.000000 0.096377
#
#
# Mechanical properties :
#
#
# Convention : Reuss Voigt Hill
#
# Bulk Modulus (GPa) = 41.90117 51.31597 46.60857
# Shear Modulus (GPa) = 26.69074 6.12791 16.40933
#
# Velocity S-wave (km/s) = 3.50364 1.67878 2.74716
# Velocity P-wave (km/s) = 5.96978 5.23056 5.61235
#
# Compressibility (1/GPa) = 0.02386568
#
# Stress axis : x y z
#
# Youngs Moduli (GPa) = 42.98576 87.15343 117.95680
#
# Poissons Ratio (x) = 0.60285 0.03051
# Poissons Ratio (y) = 0.29734 0.29478
# Poissons Ratio (z) = 0.01112 0.21780
#
# Static dielectric constant tensor:
#      x y z
#    x 1.831870 0.000000 0.000000 
#    y 0.000000 1.809840 0.000000 
#    z 0.000000 0.000000 1.801020 
# 
# From -- ./inp_files/18133.got.cif
#   From: 2010.05.17/outbox.cif.g08.bks.cpg/sg67_10_cif.got.tgz:18133.got - 2010.06.03 18:28:57.
