data_PCOD9503315
_publ_section_title
;
Structure prediction by ZEFSAII (Michael W. Deem and Ramdas Pophale) SiO2 
 PCOD9503315
Probable space group: C M M A
;
_chemical_formula_sum "Si O2"
_cell_formula_units_Z 80
_cell_length_a 28.259712
_cell_length_b 14.204035
_cell_length_c 9.181730
_cell_angle_alpha 90.000000
_cell_angle_beta 90.000000
_cell_angle_gamma 90.000000
_cell_volume 3685.564219
_symmetry_space_group_name_H-M "C M M A"
_symmetry_group_IT_number 67
_symmetry_cell_setting 'orthorhombic'
loop_
_space_group_symop_operation_xyz
x,y,z
-x,1/2-y,z
x,-y,-z
-x,1/2+y,-z
-x,-y,-z
x,1/2+y,-z
-x,y,z
x,1/2-y,z
1/2+x,1/2+y,z
1/2-x,-y,z
1/2+x,1/2-y,-z
1/2-x,y,-z
1/2-x,1/2-y,-z
1/2+x,y,-z
1/2-x,1/2+y,z
1/2+x,-y,z
loop_
_atom_site_type_symbol
_atom_site_label
_atom_site_fract_x
_atom_site_fract_y
_atom_site_fract_z
Si Si1 0.414560 0.525877 0.346326
Si Si2 0.318098 0.862756 0.397867
Si Si3 0.449019 0.895079 0.064787
Si Si4 0.222473 0.862402 0.275557
Si Si5 0.626554 0.643143 0.839018
O O1 0.437265 0.500000 0.500000
O O2 0.365785 0.580805 0.376063
O O3 0.443446 0.591265 0.236495
O O4 0.401333 0.429130 0.263562
O O5 0.324786 0.750000 0.378828
O O6 0.276100 0.898862 0.290719
O O7 0.300203 0.876877 0.563819
O O8 0.500000 0.851553 0.027961
O O9 0.401786 0.854776 0.990881
O O10 0.450574 0.000000 0.000000
O O11 0.229000 0.750000 0.256884
O O12 0.181547 0.889066 0.160982
O O13 0.626029 0.750000 0.779772
#
# Coordination Sequence:
#
# PCOD9503315 Si02
#       5
#    16  16  16  16  16
#     4  11  21  34  59  93 120 154 197 249 311 369
#     4   9  17  31  52  84 123 158 195 244 298 353
#     4   9  21  41  60  78 107 149 197 249 307 368
#     4   8  15  30  53  81 116 160 202 240 292 353
#     4  10  20  37  58  83 118 160 205 248 298 368
#
# _framework density 21.706310999999999
#
# number of rings (size 3 to 8) (size 9 to 14) (size 15 to 20)
#    0.000    2.600    2.000    1.200    0.000    2.400 
#    0.000    1.000    0.000    7.200    0.000    0.000 
#    0.000    0.000    0.000    0.000    0.000    0.000 
#
# Total GULP energy -222997.216567 kJ/mol
# GULP energy per Si atom -5574.930414 kJ/mol
# Density = 2.165691 g / cm^3
# Si number density = 21.706311 Si / 1000 Ang^3
#
#
#
# Elastic Constant Matrix: (Units=GPa)
#
#
# Indices 1 2 3 4 5 6 
#
# 1 106.6041 9.2256 37.3284 0.0000 0.0000 0.0000
# 2 9.2256 72.2758 3.9341 0.0000 0.0000 0.0000
# 3 37.3284 3.9341 84.6044 0.0000 0.0000 0.0000
# 4 0.0000 0.0000 0.0000 17.5880 0.0000 0.0000
# 5 0.0000 0.0000 0.0000 0.0000 12.1518 0.0000
# 6 0.0000 0.0000 0.0000 0.0000 0.0000 598.5837
#
#
#
# Elastic Compliance Matrix: (Units=1/GPa)
#
#
# Indices 1 2 3 4 5 6 
#
# 1 0.011191 -0.001163 -0.004884 0.000000 0.000000 0.000000
# 2 -0.001163 0.013992 -0.000138 0.000000 0.000000 0.000000
# 3 -0.004884 -0.000138 0.013981 0.000000 0.000000 0.000000
# 4 0.000000 0.000000 0.000000 0.056857 0.000000 0.000000
# 5 0.000000 0.000000 0.000000 0.000000 0.082293 0.000000
# 6 0.000000 0.000000 0.000000 0.000000 0.000000 0.001671
#
#
# Mechanical properties :
#
#
# Convention : Reuss Voigt Hill
#
# Bulk Modulus (GPa) = 37.31909 40.49564 38.90737
# Shear Modulus (GPa) = 24.84058 139.86445 82.35252
#
# Velocity S-wave (km/s) = 3.38656 8.03585 6.16618
# Velocity P-wave (km/s) = 5.70279 10.23701 8.28608
#
# Compressibility (1/GPa) = 0.02679594
#
# Stress axis : x y z
#
# Youngs Moduli (GPa) = 89.35623 71.47052 71.52661
#
# Poissons Ratio (x) = 0.08310 0.34931
# Poissons Ratio (y) = 0.10389 0.00984
# Poissons Ratio (z) = 0.43638 0.00984
#
# Static dielectric constant tensor:
#      x y z
#    x 1.826090 0.000000 0.000000 
#    y 0.000000 1.822170 0.000000 
#    z 0.000000 0.000000 1.816680 
# 
# From -- ./inp_files/13526.got.cif
#   From: 2010.05.17/outbox.cif.g08.bks.cpg/sg67_7_cif.got.tgz:13526.got - 2010.06.03 18:28:57.
