data_PCOD9503525
_publ_section_title
;
Structure prediction by ZEFSAII (Michael W. Deem and Ramdas Pophale) SiO2 
 PCOD9503525
Probable space group: C M M A
;
_chemical_formula_sum "Si O2"
_cell_formula_units_Z 92
_cell_length_a 20.041806
_cell_length_b 16.834803
_cell_length_c 13.841702
_cell_angle_alpha 90.000000
_cell_angle_beta 90.000000
_cell_angle_gamma 90.000000
_cell_volume 4670.188258
_symmetry_space_group_name_H-M "C M M A"
_symmetry_group_IT_number 67
_symmetry_cell_setting 'orthorhombic'
loop_
_space_group_symop_operation_xyz
x,y,z
-x,1/2-y,z
x,-y,-z
-x,1/2+y,-z
-x,-y,-z
x,1/2+y,-z
-x,y,z
x,1/2-y,z
1/2+x,1/2+y,z
1/2-x,-y,z
1/2+x,1/2-y,-z
1/2-x,y,-z
1/2-x,1/2-y,-z
1/2+x,y,-z
1/2-x,1/2+y,z
1/2+x,-y,z
loop_
_atom_site_type_symbol
_atom_site_label
_atom_site_fract_x
_atom_site_fract_y
_atom_site_fract_z
Si Si1 0.171414 0.158684 0.505584
Si Si2 0.500000 0.339823 0.212581
Si Si3 0.593466 0.250000 0.836600
Si Si4 0.113134 0.436192 0.678421
Si Si5 0.750657 0.250000 0.113045
Si Si6 0.258635 0.416570 0.193743
Si Si7 0.500000 0.250000 0.019310
Si Si8 0.118603 0.614684 0.700779
O O1 0.171622 0.250000 0.541872
O O2 0.250000 0.133561 0.500000
O O3 0.126894 0.103728 0.574988
O O4 0.139547 0.155319 0.399434
O O5 0.500000 0.250000 0.252894
O O6 0.436443 0.385875 0.254428
O O7 0.500000 0.323671 0.096118
O O8 0.673074 0.250000 0.851135
O O9 0.577892 0.172690 0.771395
O O10 0.560674 0.250000 0.942596
O O11 0.186001 0.433673 0.726527
O O12 0.089901 0.527668 0.677290
O O13 0.719801 0.166108 0.145258
O O14 0.750000 0.250000 0.000000
O O15 0.250000 0.500000 0.135872
O O16 0.187952 0.400100 0.242950
#
# Coordination Sequence:
#
# PCOD9503525 Si02
#       8
#    16   8   8  16   8  16   4  16
#     4  11  21  33  63 102 136 176 211 250 317 394
#     4  10  26  45  64  91 122 167 223 267 323 382
#     4  10  22  44  59  88 119 160 214 270 316 387
#     4  11  22  38  64  90 135 171 212 267 311 377
#     4  10  22  32  61  84 116 152 200 266 348 382
#     4   9  20  35  57  90 126 163 201 263 322 384
#     4  10  26  48  74  80 118 170 222 274 320 400
#     4  10  20  39  61  96 130 163 214 259 321 378
#
# _framework density 19.699418999999999
#
# number of rings (size 3 to 8) (size 9 to 14) (size 15 to 20)
#    0.261    1.565    2.609    1.043    4.870    1.739 
#    0.000    4.348    0.000    0.000    0.000    0.000 
#    0.000    0.000    0.000    0.000    0.000    0.000 
#
# Total GULP energy -256220.975983 kJ/mol
# GULP energy per Si atom -5570.021217 kJ/mol
# Density = 1.965458 g / cm^3
# Si number density = 19.699419 Si / 1000 Ang^3
#
#
#
# Elastic Constant Matrix: (Units=GPa)
#
#
# Indices 1 2 3 4 5 6 
#
# 1 60.5621 21.9732 14.8412 0.0000 0.0000 0.0000
# 2 21.9732 159.2543 60.4480 0.0000 0.0000 0.0000
# 3 14.8412 60.4480 108.6036 0.0000 0.0000 0.0000
# 4 0.0000 0.0000 0.0000 79.8481 0.0000 0.0000
# 5 0.0000 0.0000 0.0000 0.0000 27.9480 0.0000
# 6 0.0000 0.0000 0.0000 0.0000 0.0000 16.6542
#
#
#
# Elastic Compliance Matrix: (Units=1/GPa)
#
#
# Indices 1 2 3 4 5 6 
#
# 1 0.017532 -0.001914 -0.001331 0.000000 0.000000 0.000000
# 2 -0.001914 0.008170 -0.004286 0.000000 0.000000 0.000000
# 3 -0.001331 -0.004286 0.011775 0.000000 0.000000 0.000000
# 4 0.000000 0.000000 0.000000 0.012524 0.000000 0.000000
# 5 0.000000 0.000000 0.000000 0.000000 0.035781 0.000000
# 6 0.000000 0.000000 0.000000 0.000000 0.000000 0.060045
#
#
# Mechanical properties :
#
#
# Convention : Reuss Voigt Hill
#
# Bulk Modulus (GPa) = 44.60937 58.10497 51.35717
# Shear Modulus (GPa) = 29.69816 40.30055 34.99936
#
# Velocity S-wave (km/s) = 3.88695 4.52793 4.21963
# Velocity P-wave (km/s) = 6.54513 7.54294 7.06168
#
# Compressibility (1/GPa) = 0.02241681
#
# Stress axis : x y z
#
# Youngs Moduli (GPa) = 57.03697 122.39687 84.92479
#
# Poissons Ratio (x) = 0.23427 0.11300
# Poissons Ratio (y) = 0.10917 0.36398
# Poissons Ratio (z) = 0.07589 0.52458
#
# Static dielectric constant tensor:
#      x y z
#    x 1.642310 0.000000 0.000000 
#    y 0.000000 1.694650 0.000000 
#    z 0.000000 0.000000 1.655630 
# 
# From -- ./inp_files/29381.got.cif
#   From: 2010.05.17/outbox.cif.g08.bks.cpg/sg67_15_cif.got.tgz:29381.got - 2010.06.03 18:28:57.
