data_PCOD9503878
_publ_section_title
;
Structure prediction by ZEFSAII (Michael W. Deem and Ramdas Pophale) SiO2 
 PCOD9503878
Probable space group: C M M A
;
_chemical_formula_sum "Si O2"
_cell_formula_units_Z 96
_cell_length_a 19.840430
_cell_length_b 15.438641
_cell_length_c 16.327251
_cell_angle_alpha 90.000000
_cell_angle_beta 90.000000
_cell_angle_gamma 90.000000
_cell_volume 5001.188434
_symmetry_space_group_name_H-M "C M M A"
_symmetry_group_IT_number 67
_symmetry_cell_setting 'orthorhombic'
loop_
_space_group_symop_operation_xyz
x,y,z
-x,1/2-y,z
x,-y,-z
-x,1/2+y,-z
-x,-y,-z
x,1/2+y,-z
-x,y,z
x,1/2-y,z
1/2+x,1/2+y,z
1/2-x,-y,z
1/2+x,1/2-y,-z
1/2-x,y,-z
1/2-x,1/2-y,-z
1/2+x,y,-z
1/2-x,1/2+y,z
1/2+x,-y,z
loop_
_atom_site_type_symbol
_atom_site_label
_atom_site_fract_x
_atom_site_fract_y
_atom_site_fract_z
Si Si1 0.295623 0.651220 0.295092
Si Si2 0.573235 0.155821 0.815533
Si Si3 0.848152 0.644170 0.223876
Si Si4 0.679522 0.401053 0.526328
Si Si5 0.424844 0.352538 0.390807
Si Si6 0.078322 0.475440 0.909462
O O1 0.278986 0.750000 0.320976
O O2 0.361795 0.653439 0.240548
O O3 0.229800 0.621479 0.244956
O O4 0.317434 0.601725 0.376332
O O5 0.500000 0.154235 0.771834
O O6 0.575504 0.250000 0.859896
O O7 0.575932 0.069409 0.867566
O O8 0.852979 0.750000 0.212030
O O9 0.887944 0.617754 0.307337
O O10 0.879096 0.591222 0.147029
O O11 0.680715 0.500000 0.500000
O O12 0.750000 0.358176 0.500000
O O13 0.618153 0.364322 0.473467
O O14 0.500000 0.390528 0.397594
O O15 0.430612 0.250000 0.379419
O O16 0.000000 0.443807 0.916122
O O17 0.104438 0.500000 0.000000
#
# Coordination Sequence:
#
# PCOD9503878 Si02
#       6
#    16  16  16  16  16  16
#     4  10  21  38  61  84 114 159 202 244 301 358
#     4   9  20  39  61  85 115 153 198 246 296 358
#     4  10  21  38  61  88 120 158 200 248 301 357
#     4  11  23  35  53  84 117 153 196 244 291 351
#     4  10  21  37  57  81 113 156 202 247 296 349
#     4  10  22  39  62  91 121 156 195 241 302 364
#
# _framework density 19.195436999999998
#
# number of rings (size 3 to 8) (size 9 to 14) (size 15 to 20)
#    0.000    2.000    1.667    1.000    2.333    4.000 
#    0.000    5.000    0.000    3.000    0.000    0.000 
#    0.000    0.000    0.000    0.000    0.000    0.000 
#
# Total GULP energy -267265.111459 kJ/mol
# GULP energy per Si atom -5568.023155 kJ/mol
# Density = 1.915175 g / cm^3
# Si number density = 19.195437 Si / 1000 Ang^3
#
#
#
# Elastic Constant Matrix: (Units=GPa)
#
#
# Indices 1 2 3 4 5 6 
#
# 1 154.7894 35.2357 70.6625 0.0000 0.0000 0.0000
# 2 35.2357 70.8140 46.3739 0.0000 0.0000 0.0000
# 3 70.6625 46.3739 113.4667 0.0000 0.0000 0.0000
# 4 0.0000 0.0000 0.0000 13.3842 0.0000 0.0000
# 5 0.0000 0.0000 0.0000 0.0000 46.7311 0.0000
# 6 0.0000 0.0000 0.0000 0.0000 0.0000 21.0543
#
#
#
# Elastic Compliance Matrix: (Units=1/GPa)
#
#
# Indices 1 2 3 4 5 6 
#
# 1 0.009091 -0.001114 -0.005206 0.000000 0.000000 0.000000
# 2 -0.001114 0.019419 -0.007243 0.000000 0.000000 0.000000
# 3 -0.005206 -0.007243 0.015015 0.000000 0.000000 0.000000
# 4 0.000000 0.000000 0.000000 0.074715 0.000000 0.000000
# 5 0.000000 0.000000 0.000000 0.000000 0.021399 0.000000
# 6 0.000000 0.000000 0.000000 0.000000 0.000000 0.047496
#
#
# Mechanical properties :
#
#
# Convention : Reuss Voigt Hill
#
# Bulk Modulus (GPa) = 60.97815 71.51272 66.24544
# Shear Modulus (GPa) = 22.75554 28.68711 25.72132
#
# Velocity S-wave (km/s) = 3.44680 3.87004 3.66453
# Velocity P-wave (km/s) = 6.90482 7.57004 7.24507
#
# Compressibility (1/GPa) = 0.01639932
#
# Stress axis : x y z
#
# Youngs Moduli (GPa) = 110.00468 51.49627 66.59891
#
# Poissons Ratio (x) = 0.05737 0.34671
# Poissons Ratio (y) = 0.12256 0.48236
# Poissons Ratio (z) = 0.57267 0.37297
#
# Static dielectric constant tensor:
#      x y z
#    x 1.732480 0.000000 0.000000 
#    y 0.000000 1.711450 0.000000 
#    z 0.000000 0.000000 1.489430 
# 
# From -- ./inp_files/27150.got.cif
#   From: 2010.05.17/outbox.cif.g08.bks.cpg/sg67_14_cif.got.tgz:27150.got - 2010.06.03 18:28:57.
