data_PCOD9503777
_publ_section_title
;
Structure prediction by ZEFSAII (Michael W. Deem and Ramdas Pophale) SiO2 
 PCOD9503777
Probable space group: C M M A
;
_chemical_formula_sum "Si O2"
_cell_formula_units_Z 100
_cell_length_a 20.448529
_cell_length_b 15.722786
_cell_length_c 16.189013
_cell_angle_alpha 90.000000
_cell_angle_beta 90.000000
_cell_angle_gamma 90.000000
_cell_volume 5204.894690
_symmetry_space_group_name_H-M "C M M A"
_symmetry_group_IT_number 67
_symmetry_cell_setting 'orthorhombic'
loop_
_space_group_symop_operation_xyz
x,y,z
-x,1/2-y,z
x,-y,-z
-x,1/2+y,-z
-x,-y,-z
x,1/2+y,-z
-x,y,z
x,1/2-y,z
1/2+x,1/2+y,z
1/2-x,-y,z
1/2+x,1/2-y,-z
1/2-x,y,-z
1/2-x,1/2-y,-z
1/2+x,y,-z
1/2-x,1/2+y,z
1/2+x,-y,z
loop_
_atom_site_type_symbol
_atom_site_label
_atom_site_fract_x
_atom_site_fract_y
_atom_site_fract_z
Si Si1 0.709838 0.349270 0.736884
Si Si2 0.072854 0.444278 0.583936
Si Si3 0.710172 0.647247 0.581143
Si Si4 0.250000 0.000000 0.000000
Si Si5 0.574110 0.556424 0.918218
Si Si6 0.926824 0.555889 0.751777
Si Si7 0.304948 0.153547 0.106290
O O1 0.697818 0.250000 0.720963
O O2 0.747676 0.386081 0.658205
O O3 0.639238 0.389231 0.753140
O O4 0.761637 0.354451 0.811553
O O5 0.076075 0.500000 0.500000
O O6 0.136048 0.384695 0.582784
O O7 0.076478 0.500189 0.667785
O O8 0.000000 0.403357 0.584217
O O9 0.708758 0.750000 0.584449
O O10 0.750000 0.621362 0.500000
O O11 0.213845 0.931554 0.056805
O O12 0.500000 0.583724 0.934076
O O13 0.575835 0.498144 0.836250
O O14 0.617806 0.637572 0.893899
O O15 0.592226 0.500000 0.000000
O O16 0.000000 0.597431 0.750493
O O17 0.292706 0.250000 0.075152
#
# Coordination Sequence:
#
# PCOD9503777 Si02
#       7
#    16  16  16   4  16  16  16
#     4  10  22  38  57  87 120 150 197 249 291 352
#     4  10  21  36  56  85 116 148 193 242 287 349
#     4  10  21  37  57  83 117 155 193 236 289 345
#     4  12  22  40  58  82 118 152 186 250 296 354
#     4  10  21  39  60  85 118 156 198 244 296 357
#     4  10  21  38  59  83 115 158 197 239 301 358
#     4  11  23  38  61  89 117 154 198 245 304 357
#
# _framework density 19.212685
#
# number of rings (size 3 to 8) (size 9 to 14) (size 15 to 20)
#    0.000    1.760    0.800    3.120    0.000    4.480 
#    0.000    0.000    0.000   14.400    0.000    0.000 
#    0.000    0.000    0.000    0.000    0.000    0.000 
#
# Total GULP energy -278400.634718 kJ/mol
# GULP energy per Si atom -5568.012694 kJ/mol
# Density = 1.916896 g / cm^3
# Si number density = 19.212685 Si / 1000 Ang^3
#
#
#
# Elastic Constant Matrix: (Units=GPa)
#
#
# Indices 1 2 3 4 5 6 
#
# 1 156.7969 61.9669 60.2315 0.0000 0.0000 0.0000
# 2 61.9669 74.0450 40.2645 0.0000 0.0000 0.0000
# 3 60.2315 40.2645 109.8294 0.0000 0.0000 0.0000
# 4 0.0000 0.0000 0.0000 18.9646 0.0000 0.0000
# 5 0.0000 0.0000 0.0000 0.0000 39.5875 0.0000
# 6 0.0000 0.0000 0.0000 0.0000 0.0000 -15.8092
#
#
#
# Elastic Compliance Matrix: (Units=1/GPa)
#
#
# Indices 1 2 3 4 5 6 
#
# 1 0.010317 -0.006941 -0.003113 0.000000 0.000000 0.000000
# 2 -0.006941 0.021538 -0.004090 0.000000 0.000000 0.000000
# 3 -0.003113 -0.004090 0.012312 0.000000 0.000000 0.000000
# 4 0.000000 0.000000 0.000000 0.052730 0.000000 0.000000
# 5 0.000000 0.000000 0.000000 0.000000 0.025260 0.000000
# 6 0.000000 0.000000 0.000000 0.000000 0.000000 -0.063255
#
#
# Mechanical properties :
#
#
# Convention : Reuss Voigt Hill
#
# Bulk Modulus (GPa) = 62.97665 73.95522 68.46593
# Shear Modulus (GPa) = 54.06470 20.42917 37.24694
#
# Velocity S-wave (km/s) = 5.31048 3.26439 4.40780
# Velocity P-wave (km/s) = 8.39354 7.26532 7.84972
#
# Compressibility (1/GPa) = 0.01587890
#
# Stress axis : x y z
#
# Youngs Moduli (GPa) = 96.93094 46.42993 81.22454
#
# Poissons Ratio (x) = 0.32227 0.25286
# Poissons Ratio (y) = 0.67279 0.33217
# Poissons Ratio (z) = 0.30176 0.18988
#
# Static dielectric constant tensor:
#      x y z
#    x 1.833230 0.000000 0.000000 
#    y 0.000000 1.667410 0.000000 
#    z 0.000000 0.000000 1.668570 
# 
# From -- ./inp_files/29507.got.cif
#   From: 2010.05.17/outbox.cif.g08.bks.cpg/sg67_15_cif.got.tgz:29507.got - 2010.06.03 18:28:57.
