data_PCOD9503238
_publ_section_title
;
Structure prediction by ZEFSAII (Michael W. Deem and Ramdas Pophale) SiO2 
 PCOD9503238
Probable space group: C M M A
;
_chemical_formula_sum "Si O2"
_cell_formula_units_Z 112
_cell_length_a 25.227454
_cell_length_b 19.337825
_cell_length_c 12.195292
_cell_angle_alpha 90.000000
_cell_angle_beta 90.000000
_cell_angle_gamma 90.000000
_cell_volume 5949.401136
_symmetry_space_group_name_H-M "C M M A"
_symmetry_group_IT_number 67
_symmetry_cell_setting 'orthorhombic'
loop_
_space_group_symop_operation_xyz
x,y,z
-x,1/2-y,z
x,-y,-z
-x,1/2+y,-z
-x,-y,-z
x,1/2+y,-z
-x,y,z
x,1/2-y,z
1/2+x,1/2+y,z
1/2-x,-y,z
1/2+x,1/2-y,-z
1/2-x,y,-z
1/2-x,1/2-y,-z
1/2+x,y,-z
1/2-x,1/2+y,z
1/2+x,-y,z
loop_
_atom_site_type_symbol
_atom_site_label
_atom_site_fract_x
_atom_site_fract_y
_atom_site_fract_z
Si Si1 0.058626 0.880492 0.696069
Si Si2 0.641970 0.329096 0.860916
Si Si3 0.300527 0.829880 0.576025
Si Si4 0.097010 0.079825 0.534940
Si Si5 0.440723 0.540976 0.768748
Si Si6 0.350819 0.926896 0.947022
Si Si7 0.733387 0.669800 0.829235
O O1 0.105985 0.840192 0.754307
O O2 0.066017 0.885235 0.565422
O O3 0.000000 0.853244 0.722702
O O4 0.061940 0.959329 0.740864
O O5 0.637854 0.250000 0.897315
O O6 0.703922 0.343850 0.837484
O O7 0.624393 0.380766 0.956214
O O8 0.316773 0.750000 0.556447
O O9 0.250000 0.844000 0.500000
O O10 0.347617 0.881460 0.549074
O O11 0.283945 0.836065 0.702825
O O12 0.068119 0.078844 0.652195
O O13 0.105117 0.000000 0.500000
O O14 0.500000 0.555987 0.810983
O O15 0.394337 0.560095 0.852802
O O16 0.301661 0.883249 0.898950
O O17 0.334571 0.000000 0.000000
O O18 0.724251 0.750000 0.864289
#
# Coordination Sequence:
#
# PCOD9503238 Si02
#       7
#    16  16  16  16  16  16  16
#     4  10  21  39  62  89 122 160 201 250 306 363
#     4  11  24  41  61  89 124 163 206 247 303 366
#     4  10  20  36  60  88 122 163 201 243 303 370
#     4  10  20  37  62  91 120 155 203 250 307 367
#     4  10  21  40  63  89 121 157 202 255 310 361
#     4  12  23  40  63  94 119 161 206 257 303 363
#     4  10  22  41  63  87 123 164 201 248 306 366
#
# _framework density 18.825424000000002
#
# number of rings (size 3 to 8) (size 9 to 14) (size 15 to 20)
#    0.000    1.571    2.857    2.143    0.000    7.143 
#    0.000    1.429    0.000    4.286    0.000    0.000 
#    0.000    0.000    0.000    0.000    0.000    0.000 
#
# Total GULP energy -312822.037548 kJ/mol
# GULP energy per Si atom -5586.107813 kJ/mol
# Density = 1.878258 g / cm^3
# Si number density = 18.825424 Si / 1000 Ang^3
#
#
#
# Elastic Constant Matrix: (Units=GPa)
#
#
# Indices 1 2 3 4 5 6 
#
# 1 110.9408 44.7599 50.5601 0.0000 0.0000 0.0000
# 2 44.7599 60.0847 39.4484 0.0000 0.0000 0.0000
# 3 50.5601 39.4484 89.7742 0.0000 0.0000 0.0000
# 4 0.0000 0.0000 0.0000 21.9033 0.0000 0.0000
# 5 0.0000 0.0000 0.0000 0.0000 17.9080 0.0000
# 6 0.0000 0.0000 0.0000 0.0000 0.0000 30.2253
#
#
#
# Elastic Compliance Matrix: (Units=1/GPa)
#
#
# Indices 1 2 3 4 5 6 
#
# 1 0.014169 -0.007471 -0.004697 0.000000 0.000000 0.000000
# 2 -0.007471 0.027331 -0.007802 0.000000 0.000000 0.000000
# 3 -0.004697 -0.007802 0.017213 0.000000 0.000000 0.000000
# 4 0.000000 0.000000 0.000000 0.045655 0.000000 0.000000
# 5 0.000000 0.000000 0.000000 0.000000 0.055841 0.000000
# 6 0.000000 0.000000 0.000000 0.000000 0.000000 0.033085
#
#
# Mechanical properties :
#
#
# Convention : Reuss Voigt Hill
#
# Bulk Modulus (GPa) = 53.26961 58.92628 56.09794
# Shear Modulus (GPa) = 20.87761 22.40941 21.64351
#
# Velocity S-wave (km/s) = 3.33379 3.45393 3.39439
# Velocity P-wave (km/s) = 6.57092 6.87572 6.72505
#
# Compressibility (1/GPa) = 0.01877243
#
# Stress axis : x y z
#
# Youngs Moduli (GPa) = 70.57858 36.58802 58.09721
#
# Poissons Ratio (x) = 0.27336 0.27286
# Poissons Ratio (y) = 0.52732 0.45328
# Poissons Ratio (z) = 0.33148 0.28546
#
# Static dielectric constant tensor:
#      x y z
#    x 1.625720 0.000000 0.000000 
#    y 0.000000 1.640100 0.000000 
#    z 0.000000 0.000000 1.658660 
# 
# From -- ./inp_files/22140.got.cif
#   From: 2010.05.17/outbox.cif.g08.bks.cpg/sg67_12_cif.got.tgz:22140.got - 2010.06.03 18:28:57.
