data_PCOD9503105
_publ_section_title
;
Structure prediction by ZEFSAII (Michael W. Deem and Ramdas Pophale) SiO2 
 PCOD9503105
Probable space group: C M M A
;
_chemical_formula_sum "Si O2"
_cell_formula_units_Z 100
_cell_length_a 19.164582
_cell_length_b 15.959779
_cell_length_c 17.866490
_cell_angle_alpha 90.000000
_cell_angle_beta 90.000000
_cell_angle_gamma 90.000000
_cell_volume 5464.689179
_symmetry_space_group_name_H-M "C M M A"
_symmetry_group_IT_number 67
_symmetry_cell_setting 'orthorhombic'
loop_
_space_group_symop_operation_xyz
x,y,z
-x,1/2-y,z
x,-y,-z
-x,1/2+y,-z
-x,-y,-z
x,1/2+y,-z
-x,y,z
x,1/2-y,z
1/2+x,1/2+y,z
1/2-x,-y,z
1/2+x,1/2-y,-z
1/2-x,y,-z
1/2-x,1/2-y,-z
1/2+x,y,-z
1/2-x,1/2+y,z
1/2+x,-y,z
loop_
_atom_site_type_symbol
_atom_site_label
_atom_site_fract_x
_atom_site_fract_y
_atom_site_fract_z
Si Si1 0.584076 0.250000 0.557793
Si Si2 0.920693 0.651326 0.287149
Si Si3 0.915983 0.250000 0.270480
Si Si4 0.329611 0.653944 0.992581
Si Si5 0.918986 0.628448 0.860343
Si Si6 0.750000 0.000000 0.500000
Si Si7 0.835157 0.845304 0.438598
Si Si8 0.418810 0.070407 0.135443
O O1 0.500000 0.250000 0.554608
O O2 0.609109 0.250000 0.643945
O O3 0.614858 0.171827 0.510375
O O4 0.923870 0.750000 0.271466
O O5 0.878279 0.642011 0.363046
O O6 0.891526 0.608239 0.213144
O O7 0.000000 0.619998 0.298226
O O8 0.897440 0.328984 0.218004
O O9 0.000000 0.250000 0.277153
O O10 0.327158 0.750000 0.964786
O O11 0.373798 0.599720 0.934565
O O12 0.250000 0.623942 0.000000
O O13 0.368853 0.653731 0.072045
O O14 0.917697 0.528893 0.856690
O O15 0.000000 0.653114 0.875531
O O16 0.793026 0.930875 0.451938
O O17 0.800245 0.750000 0.431433
O O18 0.500000 0.097497 0.125378
#
# Coordination Sequence:
#
# PCOD9503105 Si02
#       8
#     8  16   8  16  16   4  16  16
#     4   9  18  37  63  91 117 150 196 252 311 356
#     4   9  17  35  61  88 118 147 184 246 310 351
#     4   9  18  34  58  83 111 147 186 232 291 351
#     4  11  23  38  56  79 113 154 196 237 287 348
#     4  10  20  36  57  81 112 150 192 239 292 346
#     4  12  22  40  58  86 120 172 216 230 292 370
#     4   9  21  37  62  85 120 160 198 249 294 359
#     4  10  21  35  58  89 116 146 193 243 295 359
#
# _framework density 18.299302000000001
#
# number of rings (size 3 to 8) (size 9 to 14) (size 15 to 20)
#    0.480    1.760    0.800    2.160    0.000    5.440 
#    0.000    6.400    0.000    0.000    0.000    0.000 
#    0.000    0.000    0.000    0.000    0.000    0.000 
#
# Total GULP energy -278445.701972 kJ/mol
# GULP energy per Si atom -5568.914039 kJ/mol
# Density = 1.825765 g / cm^3
# Si number density = 18.299302 Si / 1000 Ang^3
#
#
#
# Elastic Constant Matrix: (Units=GPa)
#
#
# Indices 1 2 3 4 5 6 
#
# 1 62.4223 36.0463 53.1218 0.0000 0.0000 0.0000
# 2 36.0463 90.4520 50.6288 0.0000 0.0000 0.0000
# 3 53.1218 50.6288 152.4089 0.0000 0.0000 0.0000
# 4 0.0000 0.0000 0.0000 -16.1513 0.0000 0.0000
# 5 0.0000 0.0000 0.0000 0.0000 -2.3691 0.0000
# 6 0.0000 0.0000 0.0000 0.0000 0.0000 4.4853
#
#
#
# Elastic Compliance Matrix: (Units=1/GPa)
#
#
# Indices 1 2 3 4 5 6 
#
# 1 0.025439 -0.006357 -0.006755 0.000000 0.000000 0.000000
# 2 -0.006357 0.015169 -0.002823 0.000000 0.000000 0.000000
# 3 -0.006755 -0.002823 0.009854 0.000000 0.000000 0.000000
# 4 0.000000 0.000000 0.000000 -0.061915 0.000000 0.000000
# 5 0.000000 0.000000 0.000000 0.000000 -0.422100 0.000000
# 6 0.000000 0.000000 0.000000 0.000000 0.000000 0.222952
#
#
# Mechanical properties :
#
#
# Convention : Reuss Voigt Hill
#
# Bulk Modulus (GPa) = 53.78804 64.98635 59.38719
# Shear Modulus (GPa) = -28.98012 8.22539 -10.37737
#
# Velocity S-wave (km/s) = -3.98386 2.12242 -2.38395
# Velocity P-wave (km/s) = 2.88025 6.44952 4.99461
#
# Compressibility (1/GPa) = 0.01859150
#
# Stress axis : x y z
#
# Youngs Moduli (GPa) = 39.30899 65.92290 101.48464
#
# Poissons Ratio (x) = 0.41906 0.68555
# Poissons Ratio (y) = 0.24988 0.28653
# Poissons Ratio (z) = 0.26554 0.18613
#
# Static dielectric constant tensor:
#      x y z
#    x 1.654220 0.000000 0.000000 
#    y 0.000000 1.646140 0.000000 
#    z 0.000000 0.000000 1.607370 
# 
# From -- ./inp_files/35032.got.cif
#   From: 2010.05.17/outbox.cif.g08.bks.cpg/sg67_18_cif.got.tgz:35032.got - 2010.06.03 18:28:57.
