data_PCOD9503188
_publ_section_title
;
Structure prediction by ZEFSAII (Michael W. Deem and Ramdas Pophale) SiO2 
 PCOD9503188
Probable space group: C M M A
;
_chemical_formula_sum "Si O2"
_cell_formula_units_Z 72
_cell_length_a 22.430125
_cell_length_b 9.703959
_cell_length_c 17.302173
_cell_angle_alpha 90.000000
_cell_angle_beta 90.000000
_cell_angle_gamma 90.000000
_cell_volume 3766.008509
_symmetry_space_group_name_H-M "C M M A"
_symmetry_group_IT_number 67
_symmetry_cell_setting 'orthorhombic'
loop_
_space_group_symop_operation_xyz
x,y,z
-x,1/2-y,z
x,-y,-z
-x,1/2+y,-z
-x,-y,-z
x,1/2+y,-z
-x,y,z
x,1/2-y,z
1/2+x,1/2+y,z
1/2-x,-y,z
1/2+x,1/2-y,-z
1/2-x,y,-z
1/2-x,1/2-y,-z
1/2+x,y,-z
1/2-x,1/2+y,z
1/2+x,-y,z
loop_
_atom_site_type_symbol
_atom_site_label
_atom_site_fract_x
_atom_site_fract_y
_atom_site_fract_z
Si Si1 0.430456 0.586477 0.920980
Si Si2 0.169366 0.906127 0.429374
Si Si3 0.430040 0.093976 0.637944
Si Si4 0.135384 0.095201 0.201027
Si Si5 0.250000 0.000000 0.707058
O O1 0.500000 0.570555 0.895383
O O2 0.419967 0.750000 0.931901
O O3 0.385354 0.519103 0.859693
O O4 0.424626 0.500000 0.000000
O O5 0.163013 0.750000 0.454617
O O6 0.190358 0.000000 0.500000
O O7 0.107777 0.977700 0.404162
O O8 0.211882 0.910115 0.354005
O O9 0.500000 0.074736 0.628805
O O10 0.414258 0.250000 0.611590
O O11 0.410587 0.088509 0.727420
O O12 0.132580 0.250000 0.167606
O O13 0.200462 0.071406 0.239097
#
# Coordination Sequence:
#
# PCOD9503188 Si02
#       5
#    16  16  16  16   8
#     4  10  21  37  59  88 120 152 186 225 271 325
#     4  11  23  38  58  82 109 144 187 235 284 335
#     4   9  19  36  57  82 113 148 185 227 280 340
#     4  10  20  36  59  85 114 148 186 231 280 329
#     4  10  23  40  59  82 110 146 190 232 277 334
#
# _framework density 19.118385
#
# number of rings (size 3 to 8) (size 9 to 14) (size 15 to 20)
#    0.000    2.000    0.000    3.000    0.000   11.111 
#    0.000    0.556    0.000    2.667    0.000    0.000 
#    0.000    0.000    0.000    0.000    0.000    0.000 
#
# Total GULP energy -200844.064039 kJ/mol
# GULP energy per Si atom -5579.001779 kJ/mol
# Density = 1.907487 g / cm^3
# Si number density = 19.118385 Si / 1000 Ang^3
#
#
#
# Elastic Constant Matrix: (Units=GPa)
#
#
# Indices 1 2 3 4 5 6 
#
# 1 104.5592 68.3474 50.5549 0.0000 0.0000 0.0000
# 2 68.3474 179.6889 59.5394 0.0000 0.0000 0.0000
# 3 50.5549 59.5394 74.0419 0.0000 0.0000 0.0000
# 4 0.0000 0.0000 0.0000 29.6682 0.0000 0.0000
# 5 0.0000 0.0000 0.0000 0.0000 13.8391 0.0000
# 6 0.0000 0.0000 0.0000 0.0000 0.0000 -12.2411
#
#
#
# Elastic Compliance Matrix: (Units=1/GPa)
#
#
# Indices 1 2 3 4 5 6 
#
# 1 0.015571 -0.003272 -0.008001 0.000000 0.000000 0.000000
# 2 -0.003272 0.008274 -0.004420 0.000000 0.000000 0.000000
# 3 -0.008001 -0.004420 0.022523 0.000000 0.000000 0.000000
# 4 0.000000 0.000000 0.000000 0.033706 0.000000 0.000000
# 5 0.000000 0.000000 0.000000 0.000000 0.072259 0.000000
# 6 0.000000 0.000000 0.000000 0.000000 0.000000 -0.081692
#
#
# Mechanical properties :
#
#
# Convention : Reuss Voigt Hill
#
# Bulk Modulus (GPa) = 66.73980 79.46371 73.10175
# Shear Modulus (GPa) = 46.72049 18.24312 32.48181
#
# Velocity S-wave (km/s) = 4.94879 3.09239 4.12634
# Velocity P-wave (km/s) = 8.22426 7.37596 7.81164
#
# Compressibility (1/GPa) = 0.01498356
#
# Stress axis : x y z
#
# Youngs Moduli (GPa) = 64.22209 120.86077 44.39963
#
# Poissons Ratio (x) = 0.39541 0.35524
# Poissons Ratio (y) = 0.21011 0.19623
# Poissons Ratio (z) = 0.51383 0.53415
#
# Static dielectric constant tensor:
#      x y z
#    x 1.668600 0.000000 0.000000 
#    y 0.000000 1.659690 0.000000 
#    z 0.000000 0.000000 1.667930 
# 
# From -- ./inp_files/35363.got.cif
#   From: 2010.05.17/outbox.cif.g08.bks.cpg/sg67_18_cif.got.tgz:35363.got - 2010.06.03 18:28:57.
