data_PCOD9503805
_publ_section_title
;
Structure prediction by ZEFSAII (Michael W. Deem and Ramdas Pophale) SiO2 
 PCOD9503805
Probable space group: C M M A
;
_chemical_formula_sum "Si O2"
_cell_formula_units_Z 64
_cell_length_a 17.528776
_cell_length_b 16.610017
_cell_length_c 9.686430
_cell_angle_alpha 90.000000
_cell_angle_beta 90.000000
_cell_angle_gamma 90.000000
_cell_volume 2820.235743
_symmetry_space_group_name_H-M "C M M A"
_symmetry_group_IT_number 67
_symmetry_cell_setting 'orthorhombic'
loop_
_space_group_symop_operation_xyz
x,y,z
-x,1/2-y,z
x,-y,-z
-x,1/2+y,-z
-x,-y,-z
x,1/2+y,-z
-x,y,z
x,1/2-y,z
1/2+x,1/2+y,z
1/2-x,-y,z
1/2+x,1/2-y,-z
1/2-x,y,-z
1/2-x,1/2-y,-z
1/2+x,y,-z
1/2-x,1/2+y,z
1/2+x,-y,z
loop_
_atom_site_type_symbol
_atom_site_label
_atom_site_fract_x
_atom_site_fract_y
_atom_site_fract_z
Si Si1 0.917567 0.164615 0.473113
Si Si2 0.814049 0.843546 0.885473
Si Si3 0.207582 0.400007 0.643606
Si Si4 0.911713 0.030471 0.238120
O O1 0.912560 0.250000 0.395502
O O2 0.854552 0.161302 0.588085
O O3 0.000000 0.160829 0.541782
O O4 0.914561 0.089245 0.371669
O O5 0.837724 0.750000 0.899349
O O6 0.768576 0.859500 0.743138
O O7 0.881301 0.909888 0.882619
O O8 0.750000 0.860162 0.000000
O O9 0.250000 0.422619 0.500000
O O10 0.155763 0.467041 0.722946
O O11 0.000000 0.002319 0.216419
#
# Coordination Sequence:
#
# PCOD9503805 Si02
#       4
#    16  16  16  16
#     4  10  21  36  58  93 131 168 212 265 324 383
#     4  11  26  46  67  94 128 170 222 274 325 388
#     4  12  24  39  64 101 132 172 217 270 333 386
#     4  11  24  41  66  98 134 174 217 267 328 397
#
# _framework density 22.693137
#
# number of rings (size 3 to 8) (size 9 to 14) (size 15 to 20)
#    0.000    1.000    2.500    3.750    3.500    6.500 
#    0.000    3.750    0.000    3.000    0.000    0.000 
#    0.000    0.000    0.000    0.000    0.000    0.000 
#
# Total GULP energy -178508.352297 kJ/mol
# GULP energy per Si atom -5578.386009 kJ/mol
# Density = 2.264149 g / cm^3
# Si number density = 22.693137 Si / 1000 Ang^3
#
#
#
# Elastic Constant Matrix: (Units=GPa)
#
#
# Indices 1 2 3 4 5 6 
#
# 1 141.6079 22.5329 8.6552 0.0000 0.0000 0.0000
# 2 22.5329 89.6114 -8.7193 0.0000 0.0000 0.0000
# 3 8.6552 -8.7193 55.8014 0.0000 0.0000 0.0000
# 4 0.0000 0.0000 0.0000 19.5616 0.0000 0.0000
# 5 0.0000 0.0000 0.0000 0.0000 29.5693 0.0000
# 6 0.0000 0.0000 0.0000 0.0000 0.0000 41.1105
#
#
#
# Elastic Compliance Matrix: (Units=1/GPa)
#
#
# Indices 1 2 3 4 5 6 
#
# 1 0.007474 -0.002023 -0.001475 0.000000 0.000000 0.000000
# 2 -0.002023 0.011879 0.002170 0.000000 0.000000 0.000000
# 3 -0.001475 0.002170 0.018489 0.000000 0.000000 0.000000
# 4 0.000000 0.000000 0.000000 0.051120 0.000000 0.000000
# 5 0.000000 0.000000 0.000000 0.000000 0.033819 0.000000
# 6 0.000000 0.000000 0.000000 0.000000 0.000000 0.024325
#
#
# Mechanical properties :
#
#
# Convention : Reuss Voigt Hill
#
# Bulk Modulus (GPa) = 28.42121 36.88425 32.65273
# Shear Modulus (GPa) = 30.96161 35.68508 33.32334
#
# Velocity S-wave (km/s) = 3.69773 3.96978 3.83617
# Velocity P-wave (km/s) = 5.54818 6.10746 5.83452
#
# Compressibility (1/GPa) = 0.03518499
#
# Stress axis : x y z
#
# Youngs Moduli (GPa) = 133.80061 84.18159 54.08743
#
# Poissons Ratio (x) = 0.17029 0.07980
# Poissons Ratio (y) = 0.27066 -0.11737
# Poissons Ratio (z) = 0.19740 -0.18267
#
# Static dielectric constant tensor:
#      x y z
#    x 1.872220 0.000000 0.000000 
#    y 0.000000 1.903890 0.000000 
#    z 0.000000 0.000000 1.853920 
# 
# From -- ./inp_files/18979.got.cif
#   From: 2010.05.17/outbox.cif.g08.bks.cpg/sg67_10_cif.got.tgz:18979.got - 2010.06.03 18:28:57.
