data_PCOD9503088
_publ_section_title
;
Structure prediction by ZEFSAII (Michael W. Deem and Ramdas Pophale) SiO2 
 PCOD9503088
Probable space group: C M M A
;
_chemical_formula_sum "Si O2"
_cell_formula_units_Z 104
_cell_length_a 7.898455
_cell_length_b 28.602812
_cell_length_c 21.216210
_cell_angle_alpha 90.000000
_cell_angle_beta 90.000000
_cell_angle_gamma 90.000000
_cell_volume 4793.124228
_symmetry_space_group_name_H-M "C M M A"
_symmetry_group_IT_number 67
_symmetry_cell_setting 'orthorhombic'
loop_
_space_group_symop_operation_xyz
x,y,z
-x,1/2-y,z
x,-y,-z
-x,1/2+y,-z
-x,-y,-z
x,1/2+y,-z
-x,y,z
x,1/2-y,z
1/2+x,1/2+y,z
1/2-x,-y,z
1/2+x,1/2-y,-z
1/2-x,y,-z
1/2-x,1/2-y,-z
1/2+x,y,-z
1/2-x,1/2+y,z
1/2+x,-y,z
loop_
_atom_site_type_symbol
_atom_site_label
_atom_site_fract_x
_atom_site_fract_y
_atom_site_fract_z
Si Si1 0.802697 0.303705 0.770229
Si Si2 0.295937 0.250000 0.426925
Si Si3 0.200637 0.601448 0.934936
Si Si4 0.706643 0.154108 0.359374
Si Si5 0.795680 0.946977 0.337539
Si Si6 0.196941 0.800267 0.910891
Si Si7 0.700460 0.447580 0.193580
O O1 0.795873 0.250000 0.747113
O O2 0.745887 0.335976 0.713363
O O3 0.703672 0.305910 0.835123
O O4 0.000000 0.314249 0.784261
O O5 0.500000 0.250000 0.418872
O O6 0.250000 0.250000 0.500000
O O7 0.234484 0.299705 0.397370
O O8 0.281363 0.653311 0.936822
O O9 0.243911 0.582075 0.866289
O O10 0.000000 0.605001 0.936158
O O11 0.250000 0.575927 0.000000
O O12 0.500000 0.154969 0.362303
O O13 0.759901 0.100507 0.374201
O O14 0.732301 0.941101 0.264938
O O15 0.000000 0.945871 0.336864
O O16 0.750000 0.000000 0.358447
O O17 0.276799 0.750000 0.925877
O O18 0.000000 0.798534 0.929434
O O19 0.500000 0.442057 0.198528
O O20 0.750000 0.500000 0.176458
#
# Coordination Sequence:
#
# PCOD9503088 Si02
#       7
#    16   8  16  16  16  16  16
#     4   9  15  26  48  76  99 124 165 210 258 319
#     4  10  20  36  56  80 114 152 189 224 261 302
#     4  11  23  37  52  70  95 130 174 218 263 315
#     4   9  16  30  53  78 107 144 180 218 261 311
#     4   9  18  32  53  81 110 139 173 214 266 321
#     4   9  19  34  49  69 100 133 162 206 267 320
#     4  10  20  36  57  80 106 131 163 207 260 319
#
# _framework density 21.697748000000001
#
# number of rings (size 3 to 8) (size 9 to 14) (size 15 to 20)
#    0.000    2.462    0.769    1.846    0.000    3.692 
#    0.000    3.846    0.000    0.462    0.000    3.231 
#    0.000    0.000    0.000    0.000    0.000    0.000 
#
# Total GULP energy -289755.560144 kJ/mol
# GULP energy per Si atom -5572.222310 kJ/mol
# Density = 2.164836 g / cm^3
# Si number density = 21.697748 Si / 1000 Ang^3
#
#
#
# Elastic Constant Matrix: (Units=GPa)
#
#
# Indices 1 2 3 4 5 6 
#
# 1 32.9152 7.1515 -3.6789 0.0000 0.0000 0.0000
# 2 7.1515 178.2401 49.6224 0.0000 0.0000 0.0000
# 3 -3.6789 49.6224 48.3307 0.0000 0.0000 0.0000
# 4 0.0000 0.0000 0.0000 -8.0624 0.0000 0.0000
# 5 0.0000 0.0000 0.0000 0.0000 12.9388 0.0000
# 6 0.0000 0.0000 0.0000 0.0000 0.0000 11.4619
#
#
#
# Elastic Compliance Matrix: (Units=1/GPa)
#
#
# Indices 1 2 3 4 5 6 
#
# 1 0.031549 -0.002709 0.005183 0.000000 0.000000 0.000000
# 2 -0.002709 0.008089 -0.008511 0.000000 0.000000 0.000000
# 3 0.005183 -0.008511 0.029824 0.000000 0.000000 0.000000
# 4 0.000000 0.000000 0.000000 -0.124032 0.000000 0.000000
# 5 0.000000 0.000000 0.000000 0.000000 0.077287 0.000000
# 6 0.000000 0.000000 0.000000 0.000000 0.000000 0.087245
#
#
# Mechanical properties :
#
#
# Convention : Reuss Voigt Hill
#
# Bulk Modulus (GPa) = 17.42554 40.63068 29.02811
# Shear Modulus (GPa) = 35.41982 17.02706 26.22344
#
# Velocity S-wave (km/s) = 4.04470 2.80436 3.48023
# Velocity P-wave (km/s) = 5.46455 5.40854 5.43662
#
# Compressibility (1/GPa) = 0.05738703
#
# Stress axis : x y z
#
# Youngs Moduli (GPa) = 31.69687 123.63159 33.53041
#
# Poissons Ratio (x) = 0.33488 -0.17377
# Poissons Ratio (y) = 0.08586 0.28537
# Poissons Ratio (z) = -0.16427 1.05222
#
# Static dielectric constant tensor:
#      x y z
#    x 1.778060 0.000000 0.000000 
#    y 0.000000 1.878170 0.000000 
#    z 0.000000 0.000000 1.778880 
# 
# From -- ./inp_files/37341.got.cif
#   From: 2010.05.17/outbox.cif.g08.bks.cpg/sg67_19_cif.got.tgz:37341.got - 2010.06.03 18:28:57.
