data_PCOD9503421
_publ_section_title
;
Structure prediction by ZEFSAII (Michael W. Deem and Ramdas Pophale) SiO2 
 PCOD9503421
Probable space group: C M M A
;
_chemical_formula_sum "Si O2"
_cell_formula_units_Z 68
_cell_length_a 20.404856
_cell_length_b 13.573444
_cell_length_c 12.353663
_cell_angle_alpha 90.000000
_cell_angle_beta 90.000000
_cell_angle_gamma 90.000000
_cell_volume 3421.522022
_symmetry_space_group_name_H-M "C M M A"
_symmetry_group_IT_number 67
_symmetry_cell_setting 'orthorhombic'
loop_
_space_group_symop_operation_xyz
x,y,z
-x,1/2-y,z
x,-y,-z
-x,1/2+y,-z
-x,-y,-z
x,1/2+y,-z
-x,y,z
x,1/2-y,z
1/2+x,1/2+y,z
1/2-x,-y,z
1/2+x,1/2-y,-z
1/2-x,y,-z
1/2-x,1/2-y,-z
1/2+x,y,-z
1/2-x,1/2+y,z
1/2+x,-y,z
loop_
_atom_site_type_symbol
_atom_site_label
_atom_site_fract_x
_atom_site_fract_y
_atom_site_fract_z
Si Si1 0.500000 0.130712 0.322275
Si Si2 0.500000 0.398946 0.065405
Si Si3 0.643950 0.365528 0.374566
Si Si4 0.320086 0.955482 0.845855
Si Si5 0.750000 0.500000 0.500000
Si Si6 0.133044 0.357684 0.049312
O O1 0.500000 0.250000 0.313654
O O2 0.500000 0.095596 0.195925
O O3 0.432760 0.103343 0.384581
O O4 0.500000 0.500000 0.000000
O O5 0.434222 0.351721 0.018095
O O6 0.650170 0.250000 0.402336
O O7 0.656303 0.384159 0.247619
O O8 0.699348 0.430217 0.433926
O O9 0.366327 0.051388 0.866510
O O10 0.250000 0.000000 0.818073
O O11 0.317613 0.894397 0.956543
O O12 0.148475 0.250000 0.095050
#
# Coordination Sequence:
#
# PCOD9503421 Si02
#       6
#     8   8  16  16   4  16
#     4  10  20  37  65  92 117 162 208 246 302 367
#     4  12  18  32  55  83 124 165 206 247 285 350
#     4  11  23  43  68  93 122 157 204 260 316 375
#     4  11  22  37  55  85 123 164 204 244 298 364
#     4  12  26  46  68  96 120 150 202 268 332 386
#     4  11  21  33  54  86 124 164 205 246 289 348
#
# _framework density 19.874195
#
# number of rings (size 3 to 8) (size 9 to 14) (size 15 to 20)
#    0.000    0.941    5.882    3.529    0.000    3.294 
#    0.000    0.000    0.000    0.000    0.000    4.941 
#    0.000    0.000    0.000    0.000    0.000    0.000 
#
# Total GULP energy -189481.210740 kJ/mol
# GULP energy per Si atom -5572.976786 kJ/mol
# Density = 1.982896 g / cm^3
# Si number density = 19.874195 Si / 1000 Ang^3
#
#
#
# Elastic Constant Matrix: (Units=GPa)
#
#
# Indices 1 2 3 4 5 6 
#
# 1 159.4271 35.3971 31.5753 0.0000 0.0000 0.0000
# 2 35.3971 113.0235 27.4676 0.0000 0.0000 0.0000
# 3 31.5753 27.4676 48.6395 0.0000 0.0000 0.0000
# 4 0.0000 0.0000 0.0000 17.7865 0.0000 0.0000
# 5 0.0000 0.0000 0.0000 0.0000 17.6313 0.0000
# 6 0.0000 0.0000 0.0000 0.0000 0.0000 2.6710
#
#
#
# Elastic Compliance Matrix: (Units=1/GPa)
#
#
# Indices 1 2 3 4 5 6 
#
# 1 0.007366 -0.001327 -0.004032 0.000000 0.000000 0.000000
# 2 -0.001327 0.010494 -0.005065 0.000000 0.000000 0.000000
# 3 -0.004032 -0.005065 0.026037 0.000000 0.000000 0.000000
# 4 0.000000 0.000000 0.000000 0.056222 0.000000 0.000000
# 5 0.000000 0.000000 0.000000 0.000000 0.056717 0.000000
# 6 0.000000 0.000000 0.000000 0.000000 0.000000 0.374386
#
#
# Mechanical properties :
#
#
# Convention : Reuss Voigt Hill
#
# Bulk Modulus (GPa) = 43.38568 56.66334 50.02451
# Shear Modulus (GPa) = 8.93251 22.72779 15.83015
#
# Velocity S-wave (km/s) = 2.12233 3.38536 2.82533
# Velocity P-wave (km/s) = 5.28046 6.62222 5.98903
#
# Compressibility (1/GPa) = 0.02304908
#
# Stress axis : x y z
#
# Youngs Moduli (GPa) = 135.76503 95.29105 38.40650
#
# Poissons Ratio (x) = 0.12644 0.15487
# Poissons Ratio (y) = 0.18014 0.19452
# Poissons Ratio (z) = 0.54744 0.48264
#
# Static dielectric constant tensor:
#      x y z
#    x 1.797590 0.000000 0.000000 
#    y 0.000000 1.740570 0.000000 
#    z 0.000000 0.000000 1.670100 
# 
# From -- ./inp_files/20451.got.cif
#   From: 2010.05.17/outbox.cif.g08.bks.cpg/sg67_11_cif.got.tgz:20451.got - 2010.06.03 18:28:57.
