data_PCOD9503275
_publ_section_title
;
Structure prediction by ZEFSAII (Michael W. Deem and Ramdas Pophale) SiO2 
 PCOD9503275
Probable space group: C M M A
;
_chemical_formula_sum "Si O2"
_cell_formula_units_Z 112
_cell_length_a 14.245449
_cell_length_b 16.948511
_cell_length_c 23.423003
_cell_angle_alpha 90.000000
_cell_angle_beta 90.000000
_cell_angle_gamma 90.000000
_cell_volume 5655.229913
_symmetry_space_group_name_H-M "C M M A"
_symmetry_group_IT_number 67
_symmetry_cell_setting 'orthorhombic'
loop_
_space_group_symop_operation_xyz
x,y,z
-x,1/2-y,z
x,-y,-z
-x,1/2+y,-z
-x,-y,-z
x,1/2+y,-z
-x,y,z
x,1/2-y,z
1/2+x,1/2+y,z
1/2-x,-y,z
1/2+x,1/2-y,-z
1/2-x,y,-z
1/2-x,1/2-y,-z
1/2+x,y,-z
1/2-x,1/2+y,z
1/2+x,-y,z
loop_
_atom_site_type_symbol
_atom_site_label
_atom_site_fract_x
_atom_site_fract_y
_atom_site_fract_z
Si Si1 0.892888 0.845083 0.310347
Si Si2 0.773886 0.908282 0.413519
Si Si3 0.196646 0.154168 0.809697
Si Si4 0.112619 0.398619 0.046793
Si Si5 0.386699 0.421311 0.076795
Si Si6 0.108305 0.843513 0.518392
Si Si7 0.395794 0.159025 0.831618
O O1 0.887994 0.750000 0.315847
O O2 0.820798 0.882036 0.354815
O O3 0.865030 0.864881 0.245485
O O4 0.000000 0.869275 0.322596
O O5 0.847452 0.887801 0.464020
O O6 0.678053 0.862670 0.429559
O O7 0.750000 0.000000 0.414021
O O8 0.196832 0.250000 0.816272
O O9 0.157492 0.115145 0.867016
O O10 0.304299 0.125869 0.800721
O O11 0.139098 0.486941 0.066701
O O12 0.130143 0.344068 0.100972
O O13 0.000000 0.400793 0.040522
O O14 0.145411 0.380530 0.982683
O O15 0.500000 0.416409 0.082067
O O16 0.112158 0.750000 0.506499
O O17 0.000000 0.865515 0.528298
O O18 0.500000 0.122242 0.824648
O O19 0.403528 0.250000 0.814424
#
# Coordination Sequence:
#
# PCOD9503275 Si02
#       7
#    16  16  16  16  16  16  16
#     4  10  21  40  63  83 111 153 199 246 294 348
#     4  11  22  36  57  89 126 160 197 241 293 342
#     4  10  21  35  54  79 103 137 188 239 286 335
#     4   8  16  31  50  73 101 136 170 208 276 351
#     4   9  17  31  50  75 106 133 168 220 277 344
#     4  10  20  36  62  93 124 163 205 242 284 336
#     4   9  18  34  52  70  96 132 175 221 272 336
#
# _framework density 19.804677000000002
#
# number of rings (size 3 to 8) (size 9 to 14) (size 15 to 20)
#    0.000    2.429    0.000    4.286    0.000    5.429 
#    2.571    5.000    0.000    2.571    0.000    0.000 
#    0.000    0.000    0.000    0.000    0.000    0.000 
#
# Total GULP energy -312387.665982 kJ/mol
# GULP energy per Si atom -5578.351178 kJ/mol
# Density = 1.975960 g / cm^3
# Si number density = 19.804677 Si / 1000 Ang^3
#
#
#
# Elastic Constant Matrix: (Units=GPa)
#
#
# Indices 1 2 3 4 5 6 
#
# 1 146.1731 31.3277 53.4450 0.0000 0.0000 0.0000
# 2 31.3277 36.7879 29.4294 0.0000 0.0000 0.0000
# 3 53.4450 29.4294 92.6472 0.0000 0.0000 0.0000
# 4 0.0000 0.0000 0.0000 54.3570 0.0000 0.0000
# 5 0.0000 0.0000 0.0000 0.0000 22.9828 0.0000
# 6 0.0000 0.0000 0.0000 0.0000 0.0000 2.2493
#
#
#
# Elastic Compliance Matrix: (Units=1/GPa)
#
#
# Indices 1 2 3 4 5 6 
#
# 1 0.009273 -0.004850 -0.003809 0.000000 0.000000 0.000000
# 2 -0.004850 0.038980 -0.009584 0.000000 0.000000 0.000000
# 3 -0.003809 -0.009584 0.016035 0.000000 0.000000 0.000000
# 4 0.000000 0.000000 0.000000 0.018397 0.000000 0.000000
# 5 0.000000 0.000000 0.000000 0.000000 0.043511 0.000000
# 6 0.000000 0.000000 0.000000 0.000000 0.000000 0.444588
#
#
# Mechanical properties :
#
#
# Convention : Reuss Voigt Hill
#
# Bulk Modulus (GPa) = 35.96795 56.00139 45.98467
# Shear Modulus (GPa) = 8.10980 26.67824 17.39402
#
# Velocity S-wave (km/s) = 2.02578 3.67422 2.96679
# Velocity P-wave (km/s) = 4.86544 6.80721 5.91653
#
# Compressibility (1/GPa) = 0.02780253
#
# Stress axis : x y z
#
# Youngs Moduli (GPa) = 107.83709 25.65414 62.36242
#
# Poissons Ratio (x) = 0.12442 0.23753
# Poissons Ratio (y) = 0.52300 0.59770
# Poissons Ratio (z) = 0.41074 0.24588
#
# Static dielectric constant tensor:
#      x y z
#    x 1.748650 0.000000 0.000000 
#    y 0.000000 1.697370 0.000000 
#    z 0.000000 0.000000 1.685730 
# 
# From -- ./inp_files/41906.got.cif
#   From: 2010.05.17/outbox.cif.g08.bks.cpg/sg67_21_cif.got.tgz:41906.got - 2010.06.03 18:28:57.
