data_PCOD9503122
_publ_section_title
;
Structure prediction by ZEFSAII (Michael W. Deem and Ramdas Pophale) SiO2 
 PCOD9503122
Probable space group: C M M A
;
_chemical_formula_sum "Si O2"
_cell_formula_units_Z 64
_cell_length_a 10.991935
_cell_length_b 14.565721
_cell_length_c 19.752041
_cell_angle_alpha 90.000000
_cell_angle_beta 90.000000
_cell_angle_gamma 90.000000
_cell_volume 3162.409580
_symmetry_space_group_name_H-M "C M M A"
_symmetry_group_IT_number 67
_symmetry_cell_setting 'orthorhombic'
loop_
_space_group_symop_operation_xyz
x,y,z
-x,1/2-y,z
x,-y,-z
-x,1/2+y,-z
-x,-y,-z
x,1/2+y,-z
-x,y,z
x,1/2-y,z
1/2+x,1/2+y,z
1/2-x,-y,z
1/2+x,1/2-y,-z
1/2-x,y,-z
1/2-x,1/2-y,-z
1/2+x,y,-z
1/2-x,1/2+y,z
1/2+x,-y,z
loop_
_atom_site_type_symbol
_atom_site_label
_atom_site_fract_x
_atom_site_fract_y
_atom_site_fract_z
Si Si1 0.638456 0.566554 0.800732
Si Si2 0.864030 0.639138 0.046476
Si Si3 0.626719 0.461495 0.423148
Si Si4 0.184550 0.750000 0.427887
Si Si5 0.358582 0.250000 0.287105
O O1 0.500000 0.531294 0.788711
O O2 0.750000 0.500000 0.784913
O O3 0.645554 0.594097 0.879863
O O4 0.652846 0.659413 0.757457
O O5 0.858565 0.750000 0.054798
O O6 0.000000 0.618006 0.018465
O O7 0.750000 0.612160 0.000000
O O8 0.625608 0.500000 0.500000
O O9 0.500000 0.490838 0.389728
O O10 0.750000 0.500000 0.391048
O O11 0.627939 0.351863 0.428095
O O12 0.250000 0.750000 0.500000
O O13 0.233322 0.750000 0.350550
O O14 0.500000 0.250000 0.313506
#
# Coordination Sequence:
#
# PCOD9503122 Si02
#       5
#    16  16  16   8   8
#     4  10  21  40  64  90 124 165 210 256 303 365
#     4   9  17  32  57  89 124 164 210 254 300 355
#     4  10  20  36  57  85 117 147 180 229 290 354
#     4  12  22  40  62  92 118 155 197 251 307 372
#     4  10  22  42  66  85 115 167 211 242 303 386
#
# _framework density 20.237732000000001
#
# number of rings (size 3 to 8) (size 9 to 14) (size 15 to 20)
#    0.000    2.000    3.750    1.125    0.000    2.500 
#    0.000    3.750    0.000    4.500    0.000    0.000 
#    0.000    0.000    0.000    0.000    0.000    0.000 
#
# Total GULP energy -178240.335225 kJ/mol
# GULP energy per Si atom -5570.010476 kJ/mol
# Density = 2.019167 g / cm^3
# Si number density = 20.237732 Si / 1000 Ang^3
#
#
#
# Elastic Constant Matrix: (Units=GPa)
#
#
# Indices 1 2 3 4 5 6 
#
# 1 201.8748 71.0447 53.4002 0.0000 0.0000 0.0000
# 2 71.0447 122.4116 21.2898 0.0000 0.0000 0.0000
# 3 53.4002 21.2898 94.6182 0.0000 0.0000 0.0000
# 4 0.0000 0.0000 0.0000 -7.7865 0.0000 0.0000
# 5 0.0000 0.0000 0.0000 0.0000 95.0852 0.0000
# 6 0.0000 0.0000 0.0000 0.0000 0.0000 24.3320
#
#
#
# Elastic Compliance Matrix: (Units=1/GPa)
#
#
# Indices 1 2 3 4 5 6 
#
# 1 0.007037 -0.003531 -0.003177 0.000000 0.000000 0.000000
# 2 -0.003531 0.010274 -0.000319 0.000000 0.000000 0.000000
# 3 -0.003177 -0.000319 0.012433 0.000000 0.000000 0.000000
# 4 0.000000 0.000000 0.000000 -0.128427 0.000000 0.000000
# 5 0.000000 0.000000 0.000000 0.000000 0.010517 0.000000
# 6 0.000000 0.000000 0.000000 0.000000 0.000000 0.041098
#
#
# Mechanical properties :
#
#
# Convention : Reuss Voigt Hill
#
# Bulk Modulus (GPa) = 63.73298 78.93045 71.33172
# Shear Modulus (GPa) = -179.95997 40.53746 -69.71125
#
# Velocity S-wave (km/s) = -9.44013 4.48042 -5.87545
# Velocity P-wave (km/s) = 9.34135 8.11491 3.27178
#
# Compressibility (1/GPa) = 0.01569046
#
# Stress axis : x y z
#
# Youngs Moduli (GPa) = 142.11272 97.33185 80.42867
#
# Poissons Ratio (x) = 0.34372 0.25550
# Poissons Ratio (y) = 0.50186 0.02563
# Poissons Ratio (z) = 0.45145 0.03102
#
# Static dielectric constant tensor:
#      x y z
#    x 1.787130 0.000000 0.000000 
#    y 0.000000 1.706380 0.000000 
#    z 0.000000 0.000000 1.735410 
# 
# From -- ./inp_files/32659.got.cif
#   From: 2010.05.17/outbox.cif.g08.bks.cpg/sg67_17_cif.got.tgz:32659.got - 2010.06.03 18:28:57.
