data_PCOD9503898
_publ_section_title
;
Structure prediction by ZEFSAII (Michael W. Deem and Ramdas Pophale) SiO2 
 PCOD9503898
Probable space group: C M M A
;
_chemical_formula_sum "Si O2"
_cell_formula_units_Z 88
_cell_length_a 27.459135
_cell_length_b 8.707882
_cell_length_c 19.332705
_cell_angle_alpha 90.000000
_cell_angle_beta 90.000000
_cell_angle_gamma 90.000000
_cell_volume 4622.660635
_symmetry_space_group_name_H-M "C M M A"
_symmetry_group_IT_number 67
_symmetry_cell_setting 'orthorhombic'
loop_
_space_group_symop_operation_xyz
x,y,z
-x,1/2-y,z
x,-y,-z
-x,1/2+y,-z
-x,-y,-z
x,1/2+y,-z
-x,y,z
x,1/2-y,z
1/2+x,1/2+y,z
1/2-x,-y,z
1/2+x,1/2-y,-z
1/2-x,y,-z
1/2-x,1/2-y,-z
1/2+x,y,-z
1/2-x,1/2+y,z
1/2+x,-y,z
loop_
_atom_site_type_symbol
_atom_site_label
_atom_site_fract_x
_atom_site_fract_y
_atom_site_fract_z
Si Si1 0.401502 0.569609 0.156268
Si Si2 0.442890 0.073872 0.287534
Si Si3 0.500000 0.563803 0.077076
Si Si4 0.698106 0.932994 0.814357
Si Si5 0.890368 0.068095 0.574363
Si Si6 0.801255 0.433401 0.341087
O O1 0.395186 0.750000 0.143665
O O2 0.415380 0.538951 0.236202
O O3 0.449614 0.514623 0.114682
O O4 0.350007 0.486206 0.144363
O O5 0.500000 0.062962 0.274524
O O6 0.426747 0.250000 0.272367
O O7 0.431553 0.044451 0.367490
O O8 0.500000 0.750000 0.077839
O O9 0.500000 0.500000 0.000000
O O10 0.700881 0.750000 0.812332
O O11 0.750000 0.000000 0.839554
O O12 0.692019 0.995927 0.735736
O O13 0.881618 0.250000 0.568173
O O14 0.902308 0.000000 0.500000
O O15 0.843355 0.987683 0.607743
O O16 0.799742 0.250000 0.335475
O O17 0.750000 0.500000 0.366727
#
# Coordination Sequence:
#
# PCOD9503898 Si02
#       6
#    16  16   8  16  16  16
#     4  11  21  37  61  92 125 161 203 248 295 352
#     4  10  21  37  58  83 111 148 196 245 296 358
#     4  10  24  42  64  98 135 168 203 242 291 351
#     4  11  21  35  57  89 122 159 201 250 302 356
#     4  11  23  38  54  76 108 147 196 246 302 362
#     4  11  21  35  55  79 109 145 188 242 299 355
#
# _framework density 19.036657000000002
#
# number of rings (size 3 to 8) (size 9 to 14) (size 15 to 20)
#    0.000    1.273    2.727    5.455    0.000    2.909 
#    0.000    1.818    0.000    0.545    0.000    3.818 
#    0.000    0.000    0.000    0.000    0.000    0.000 
#
# Total GULP energy -245753.259024 kJ/mol
# GULP energy per Si atom -5585.301341 kJ/mol
# Density = 1.899333 g / cm^3
# Si number density = 19.036657 Si / 1000 Ang^3
#
#
#
# Elastic Constant Matrix: (Units=GPa)
#
#
# Indices 1 2 3 4 5 6 
#
# 1 113.7358 51.6029 43.2227 0.0000 0.0000 0.0000
# 2 51.6029 113.8970 25.1859 0.0000 0.0000 0.0000
# 3 43.2227 25.1859 55.1673 0.0000 0.0000 0.0000
# 4 0.0000 0.0000 0.0000 25.8193 0.0000 0.0000
# 5 0.0000 0.0000 0.0000 0.0000 12.9921 0.0000
# 6 0.0000 0.0000 0.0000 0.0000 0.0000 27.9542
#
#
#
# Elastic Compliance Matrix: (Units=1/GPa)
#
#
# Indices 1 2 3 4 5 6 
#
# 1 0.014295 -0.004449 -0.009169 0.000000 0.000000 0.000000
# 2 -0.004449 0.011151 -0.001605 0.000000 0.000000 0.000000
# 3 -0.009169 -0.001605 0.026043 0.000000 0.000000 0.000000
# 4 0.000000 0.000000 0.000000 0.038731 0.000000 0.000000
# 5 0.000000 0.000000 0.000000 0.000000 0.076970 0.000000
# 6 0.000000 0.000000 0.000000 0.000000 0.000000 0.035773
#
#
# Mechanical properties :
#
#
# Convention : Reuss Voigt Hill
#
# Bulk Modulus (GPa) = 47.52153 58.09146 52.80649
# Shear Modulus (GPa) = 20.79671 24.20569 22.50120
#
# Velocity S-wave (km/s) = 3.30882 3.56972 3.44174
# Velocity P-wave (km/s) = 6.29405 6.89727 6.60255
#
# Compressibility (1/GPa) = 0.02104309
#
# Stress axis : x y z
#
# Youngs Moduli (GPa) = 69.95243 89.68195 38.39796
#
# Poissons Ratio (x) = 0.39902 0.35207
# Poissons Ratio (y) = 0.31124 0.06162
# Poissons Ratio (z) = 0.64139 0.14391
#
# Static dielectric constant tensor:
#      x y z
#    x 1.695710 0.000000 0.000000 
#    y 0.000000 1.658030 0.000000 
#    z 0.000000 0.000000 1.632630 
# 
# From -- ./inp_files/36195.got.cif
#   From: 2010.05.17/outbox.cif.g08.bks.cpg/sg67_19_cif.got.tgz:36195.got - 2010.06.03 18:28:57.
