data_PCOD9503071
_publ_section_title
;
Structure prediction by ZEFSAII (Michael W. Deem and Ramdas Pophale) SiO2 
 PCOD9503071
Probable space group: C M M A
;
_chemical_formula_sum "Si O2"
_cell_formula_units_Z 64
_cell_length_a 8.599773
_cell_length_b 39.922428
_cell_length_c 10.501091
_cell_angle_alpha 90.000000
_cell_angle_beta 90.000000
_cell_angle_gamma 90.000000
_cell_volume 3605.274660
_symmetry_space_group_name_H-M "C M M A"
_symmetry_group_IT_number 67
_symmetry_cell_setting 'orthorhombic'
loop_
_space_group_symop_operation_xyz
x,y,z
-x,1/2-y,z
x,-y,-z
-x,1/2+y,-z
-x,-y,-z
x,1/2+y,-z
-x,y,z
x,1/2-y,z
1/2+x,1/2+y,z
1/2-x,-y,z
1/2+x,1/2-y,-z
1/2-x,y,-z
1/2-x,1/2-y,-z
1/2+x,y,-z
1/2-x,1/2+y,z
1/2+x,-y,z
loop_
_atom_site_type_symbol
_atom_site_label
_atom_site_fract_x
_atom_site_fract_y
_atom_site_fract_z
Si Si1 0.187350 0.337862 0.138109
Si Si2 0.312215 0.288597 0.638814
Si Si3 0.314150 0.962451 0.637783
Si Si4 0.686922 0.415632 0.860496
O O1 0.241604 0.313491 0.250423
O O2 0.232150 0.376643 0.160280
O O3 0.000000 0.336693 0.134465
O O4 0.250000 0.327669 0.000000
O O5 0.500000 0.289454 0.635573
O O6 0.264646 0.250000 0.663140
O O7 0.250000 0.298315 0.500000
O O8 0.500000 0.963406 0.633689
O O9 0.250000 0.951177 0.500000
O O10 0.256070 0.938590 0.750123
O O11 0.250000 0.000000 0.658519
O O12 0.500000 0.417937 0.859827
O O13 0.750000 0.425368 0.000000
#
# Coordination Sequence:
#
# PCOD9503071 Si02
#       4
#    16  16  16  16
#     4   9  19  34  52  75 104 136 171 213 258 306
#     4   9  18  33  51  73 102 135 172 214 258 305
#     4  11  22  38  58  81 108 139 174 214 260 309
#     4  10  20  36  55  78 107 139 176 217 262 311
#
# _framework density 17.751767999999998
#
# number of rings (size 3 to 8) (size 9 to 14) (size 15 to 20)
#    0.000    2.250    0.000    3.750    0.000    4.000 
#    0.000    5.000    0.000    0.000    0.000    0.000 
#    0.000    0.000    0.000    0.000    0.000    0.000 
#
# Total GULP energy -178623.949747 kJ/mol
# GULP energy per Si atom -5581.998430 kJ/mol
# Density = 1.771136 g / cm^3
# Si number density = 17.751768 Si / 1000 Ang^3
#
#
#
# Elastic Constant Matrix: (Units=GPa)
#
#
# Indices 1 2 3 4 5 6 
#
# 1 69.6543 37.8318 56.0247 0.0000 0.0000 0.0000
# 2 37.8318 89.5005 123.2200 0.0000 0.0000 0.0000
# 3 56.0247 123.2200 211.4648 0.0000 0.0000 0.0000
# 4 0.0000 0.0000 0.0000 44.6225 0.0000 0.0000
# 5 0.0000 0.0000 0.0000 0.0000 35.7288 0.0000
# 6 0.0000 0.0000 0.0000 0.0000 0.0000 17.9747
#
#
#
# Elastic Compliance Matrix: (Units=1/GPa)
#
#
# Indices 1 2 3 4 5 6 
#
# 1 0.018765 -0.005498 -0.001768 0.000000 0.000000 0.000000
# 2 -0.005498 0.058106 -0.032402 0.000000 0.000000 0.000000
# 3 -0.001768 -0.032402 0.024078 0.000000 0.000000 0.000000
# 4 0.000000 0.000000 0.000000 0.022410 0.000000 0.000000
# 5 0.000000 0.000000 0.000000 0.000000 0.027989 0.000000
# 6 0.000000 0.000000 0.000000 0.000000 0.000000 0.055634
#
#
# Mechanical properties :
#
#
# Convention : Reuss Voigt Hill
#
# Bulk Modulus (GPa) = 46.26744 89.41918 67.84331
# Shear Modulus (GPa) = 17.03457 29.90141 23.46799
#
# Velocity S-wave (km/s) = 3.10110 4.10862 3.63989
# Velocity P-wave (km/s) = 6.24040 8.54336 7.48103
#
# Compressibility (1/GPa) = 0.02161347
#
# Stress axis : x y z
#
# Youngs Moduli (GPa) = 53.29171 17.20983 41.53228
#
# Poissons Ratio (x) = 0.09462 0.07342
# Poissons Ratio (y) = 0.29301 1.34572
# Poissons Ratio (z) = 0.09420 0.55763
#
# Static dielectric constant tensor:
#      x y z
#    x 1.603050 0.000000 0.000000 
#    y 0.000000 1.599520 0.000000 
#    z 0.000000 0.000000 1.573880 
# 
# From -- ./inp_files/15793.got.cif
#   From: 2010.05.17/outbox.cif.g08.bks.cpg/sg67_8_cif.got.tgz:15793.got - 2010.06.03 18:28:57.
