data_PCOD9503006
_publ_section_title
;
Structure prediction by ZEFSAII (Michael W. Deem and Ramdas Pophale) SiO2 
 PCOD9503006
Probable space group: C M M A
;
_chemical_formula_sum "Si O2"
_cell_formula_units_Z 96
_cell_length_a 12.028368
_cell_length_b 15.266549
_cell_length_c 25.621113
_cell_angle_alpha 90.000000
_cell_angle_beta 90.000000
_cell_angle_gamma 90.000000
_cell_volume 4704.847754
_symmetry_space_group_name_H-M "C M M A"
_symmetry_group_IT_number 67
_symmetry_cell_setting 'orthorhombic'
loop_
_space_group_symop_operation_xyz
x,y,z
-x,1/2-y,z
x,-y,-z
-x,1/2+y,-z
-x,-y,-z
x,1/2+y,-z
-x,y,z
x,1/2-y,z
1/2+x,1/2+y,z
1/2-x,-y,z
1/2+x,1/2-y,-z
1/2-x,y,-z
1/2-x,1/2-y,-z
1/2+x,y,-z
1/2-x,1/2+y,z
1/2+x,-y,z
loop_
_atom_site_type_symbol
_atom_site_label
_atom_site_fract_x
_atom_site_fract_y
_atom_site_fract_z
Si Si1 0.870513 0.098942 0.521267
Si Si2 0.267071 0.603132 0.057873
Si Si3 0.627932 0.354187 0.360268
Si Si4 0.500000 0.142793 0.772376
Si Si5 0.624325 0.145831 0.158528
Si Si6 0.760309 0.142461 0.259569
Si Si7 0.000000 0.145692 0.108168
O O1 0.750000 0.136720 0.500000
O O2 0.858449 0.101223 0.583803
O O3 0.000000 0.865170 0.489219
O O4 0.873769 0.000000 0.500000
O O5 0.250000 0.500000 0.054321
O O6 0.184863 0.634618 0.103309
O O7 0.390660 0.619052 0.077753
O O8 0.250000 0.641417 0.000000
O O9 0.500000 0.363457 0.343326
O O10 0.648104 0.250000 0.368505
O O11 0.704379 0.385897 0.313241
O O12 0.500000 0.250000 0.772865
O O13 0.612540 0.114471 0.744913
O O14 0.500000 0.112899 0.832424
O O15 0.500000 0.108742 0.157468
O O16 0.616244 0.250000 0.166940
O O17 0.695495 0.112103 0.207584
O O18 0.757506 0.250000 0.259279
O O19 0.000000 0.250000 0.111995
#
# Coordination Sequence:
#
# PCOD9503006 Si02
#       7
#    16  16  16   8  16  16   8
#     4   9  18  34  55  76 104 145 185 222 269 325
#     4  11  26  41  59  83 120 159 200 247 308 366
#     4   9  17  30  52  82 113 145 185 231 283 343
#     4   9  16  30  53  81 114 147 184 233 292 350
#     4  10  20  35  58  86 114 147 193 245 294 354
#     4   9  16  30  52  82 115 145 181 232 293 346
#     4  11  22  41  67  89 116 158 206 253 310 373
#
# _framework density 20.404485999999999
#
# number of rings (size 3 to 8) (size 9 to 14) (size 15 to 20)
#    0.000    2.333    1.667    1.000    2.333    4.333 
#    1.500    0.000    3.667    0.000    0.000    0.000 
#    0.000    0.000    0.000    0.000    0.000    0.000 
#
# Total GULP energy -267696.638230 kJ/mol
# GULP energy per Si atom -5577.013296 kJ/mol
# Density = 2.035804 g / cm^3
# Si number density = 20.404486 Si / 1000 Ang^3
#
#
#
# Elastic Constant Matrix: (Units=GPa)
#
#
# Indices 1 2 3 4 5 6 
#
# 1 201.0265 17.7566 110.4978 0.0000 0.0000 0.0000
# 2 17.7566 36.3516 21.1860 0.0000 0.0000 0.0000
# 3 110.4978 21.1860 179.3637 0.0000 0.0000 0.0000
# 4 0.0000 0.0000 0.0000 39.8313 0.0000 0.0000
# 5 0.0000 0.0000 0.0000 0.0000 43.6005 0.0000
# 6 0.0000 0.0000 0.0000 0.0000 0.0000 1.0395
#
#
#
# Elastic Compliance Matrix: (Units=1/GPa)
#
#
# Indices 1 2 3 4 5 6 
#
# 1 0.007559 -0.001051 -0.004532 0.000000 0.000000 0.000000
# 2 -0.001051 0.029689 -0.002860 0.000000 0.000000 0.000000
# 3 -0.004532 -0.002860 0.008705 0.000000 0.000000 0.000000
# 4 0.000000 0.000000 0.000000 0.025106 0.000000 0.000000
# 5 0.000000 0.000000 0.000000 0.000000 0.022936 0.000000
# 6 0.000000 0.000000 0.000000 0.000000 0.000000 0.962028
#
#
# Mechanical properties :
#
#
# Convention : Reuss Voigt Hill
#
# Bulk Modulus (GPa) = 34.40260 79.51362 56.95811
# Shear Modulus (GPa) = 4.61853 34.71434 19.66644
#
# Velocity S-wave (km/s) = 1.50612 4.12917 3.10793
# Velocity P-wave (km/s) = 4.46334 7.86045 6.39172
#
# Compressibility (1/GPa) = 0.02906757
#
# Stress axis : x y z
#
# Youngs Moduli (GPa) = 132.29993 33.68264 114.87343
#
# Poissons Ratio (x) = 0.03539 0.52065
# Poissons Ratio (y) = 0.13900 0.32849
# Poissons Ratio (z) = 0.59964 0.09632
#
# Static dielectric constant tensor:
#      x y z
#    x 1.742420 0.000000 0.000000 
#    y 0.000000 1.745900 0.000000 
#    z 0.000000 0.000000 1.699080 
# 
# From -- ./inp_files/37950.got.cif
#   From: 2010.05.17/outbox.cif.g08.bks.cpg/sg67_19_cif.got.tgz:37950.got - 2010.06.03 18:28:57.
