data_PCOD9503066
_publ_section_title
;
Structure prediction by ZEFSAII (Michael W. Deem and Ramdas Pophale) SiO2 
 PCOD9503066
Probable space group: C M M A
;
_chemical_formula_sum "Si O2"
_cell_formula_units_Z 128
_cell_length_a 16.863502
_cell_length_b 24.296035
_cell_length_c 16.526972
_cell_angle_alpha 90.000000
_cell_angle_beta 90.000000
_cell_angle_gamma 90.000000
_cell_volume 6771.368741
_symmetry_space_group_name_H-M "C M M A"
_symmetry_group_IT_number 67
_symmetry_cell_setting 'orthorhombic'
loop_
_space_group_symop_operation_xyz
x,y,z
-x,1/2-y,z
x,-y,-z
-x,1/2+y,-z
-x,-y,-z
x,1/2+y,-z
-x,y,z
x,1/2-y,z
1/2+x,1/2+y,z
1/2-x,-y,z
1/2+x,1/2-y,-z
1/2-x,y,-z
1/2-x,1/2-y,-z
1/2+x,y,-z
1/2-x,1/2+y,z
1/2+x,-y,z
loop_
_atom_site_type_symbol
_atom_site_label
_atom_site_fract_x
_atom_site_fract_y
_atom_site_fract_z
Si Si1 0.410558 0.990389 0.909889
Si Si2 0.197091 0.587734 0.198574
Si Si3 0.586180 0.965874 0.583701
Si Si4 0.910680 0.417848 0.342516
Si Si5 0.257021 0.936537 0.620678
Si Si6 0.624918 0.393670 0.840880
Si Si7 0.407457 0.814387 0.840276
Si Si8 0.157592 0.815256 0.981475
O O1 0.500000 0.967239 0.915732
O O2 0.355779 0.952778 0.854665
O O3 0.413545 0.050506 0.871682
O O4 0.378352 0.000000 0.000000
O O5 0.222803 0.563766 0.284500
O O6 0.280408 0.598760 0.156701
O O7 0.148081 0.643997 0.208323
O O8 0.500000 0.939665 0.593348
O O9 0.657889 0.922648 0.582646
O O10 0.586607 0.000000 0.500000
O O11 0.591840 0.014513 0.652595
O O12 0.826906 0.405761 0.388301
O O13 0.901199 0.391215 0.253308
O O14 0.000000 0.404129 0.373154
O O15 0.250000 0.000000 0.592971
O O16 0.615052 0.345479 0.906433
O O17 0.500000 0.823455 0.823791
O O18 0.388669 0.750000 0.825948
O O19 0.389098 0.825559 0.935028
O O20 0.158545 0.750000 0.965347
O O21 0.250000 0.831165 0.000000
#
# Coordination Sequence:
#
# PCOD9503066 Si02
#       8
#    16  16  16  16  16  16  16  16
#     4  11  23  32  41  61  90 124 162 201 248 307
#     4  11  20  33  48  66  93 127 163 205 254 310
#     4   9  17  30  49  73 104 141 176 213 256 308
#     4   9  18  31  45  65  96 130 165 205 253 308
#     4   9  18  30  46  71  96 130 171 206 250 306
#     4  11  21  32  50  70  93 128 164 211 262 311
#     4  10  21  35  51  71  94 122 163 216 269 317
#     4  10  20  36  55  74  93 125 171 219 270 318
#
# _framework density 18.903120999999999
#
# number of rings (size 3 to 8) (size 9 to 14) (size 15 to 20)
#    0.000    2.000    1.250    4.125    0.000    6.750 
#    0.000    0.000    0.000    0.000    0.000    0.000 
#    0.000    1.000    0.000   13.250    0.000   16.250 
#
# Total GULP energy -356414.936129 kJ/mol
# GULP energy per Si atom -5568.983377 kJ/mol
# Density = 1.886010 g / cm^3
# Si number density = 18.903121 Si / 1000 Ang^3
#
#
#
# Elastic Constant Matrix: (Units=GPa)
#
#
# Indices 1 2 3 4 5 6 
#
# 1 142.6923 18.7844 6.3929 0.0000 0.0000 0.0000
# 2 18.7844 43.2090 13.1326 0.0000 0.0000 0.0000
# 3 6.3929 13.1326 52.3611 0.0000 0.0000 0.0000
# 4 0.0000 0.0000 0.0000 10.1264 0.0000 0.0000
# 5 0.0000 0.0000 0.0000 0.0000 15.0182 0.0000
# 6 0.0000 0.0000 0.0000 0.0000 0.0000 -171.5274
#
#
#
# Elastic Compliance Matrix: (Units=1/GPa)
#
#
# Indices 1 2 3 4 5 6 
#
# 1 0.007434 -0.003200 -0.000105 0.000000 0.000000 0.000000
# 2 -0.003200 0.026430 -0.006238 0.000000 0.000000 0.000000
# 3 -0.000105 -0.006238 0.020676 0.000000 0.000000 0.000000
# 4 0.000000 0.000000 0.000000 0.098752 0.000000 0.000000
# 5 0.000000 0.000000 0.000000 0.000000 0.066586 0.000000
# 6 0.000000 0.000000 0.000000 0.000000 0.000000 -0.005830
#
#
# Mechanical properties :
#
#
# Convention : Reuss Voigt Hill
#
# Bulk Modulus (GPa) = 28.20591 34.98690 31.59641
# Shear Modulus (GPa) = 20.41210 -15.94642 2.23284
#
# Velocity S-wave (km/s) = 3.28964 -2.90761 1.08801
# Velocity P-wave (km/s) = 5.42058 2.69749 4.28130
#
# Compressibility (1/GPa) = 0.03545356
#
# Stress axis : x y z
#
# Youngs Moduli (GPa) = 134.51641 37.83511 48.36615
#
# Poissons Ratio (x) = 0.12107 0.00508
# Poissons Ratio (y) = 0.43044 0.30172
# Poissons Ratio (z) = 0.01414 0.23603
#
# Static dielectric constant tensor:
#      x y z
#    x 1.780960 0.000000 0.000000 
#    y 0.000000 1.636980 0.000000 
#    z 0.000000 0.000000 1.723480 
# 
# From -- ./inp_files/34548.got.cif
#   From: 2010.05.17/outbox.cif.g08.bks.cpg/sg67_18_cif.got.tgz:34548.got - 2010.06.03 18:28:57.
