data_PCOD9503551
_publ_section_title
;
Structure prediction by ZEFSAII (Michael W. Deem and Ramdas Pophale) SiO2 
 PCOD9503551
Probable space group: C M M A
;
_chemical_formula_sum "Si O2"
_cell_formula_units_Z 52
_cell_length_a 14.124849
_cell_length_b 15.292359
_cell_length_c 12.892530
_cell_angle_alpha 90.000000
_cell_angle_beta 90.000000
_cell_angle_gamma 90.000000
_cell_volume 2784.815639
_symmetry_space_group_name_H-M "C M M A"
_symmetry_group_IT_number 67
_symmetry_cell_setting 'orthorhombic'
loop_
_space_group_symop_operation_xyz
x,y,z
-x,1/2-y,z
x,-y,-z
-x,1/2+y,-z
-x,-y,-z
x,1/2+y,-z
-x,y,z
x,1/2-y,z
1/2+x,1/2+y,z
1/2-x,-y,z
1/2+x,1/2-y,-z
1/2-x,y,-z
1/2-x,1/2-y,-z
1/2+x,y,-z
1/2-x,1/2+y,z
1/2+x,-y,z
loop_
_atom_site_type_symbol
_atom_site_label
_atom_site_fract_x
_atom_site_fract_y
_atom_site_fract_z
Si Si1 0.657330 0.848315 0.953204
Si Si2 0.500000 0.906585 0.565698
Si Si3 0.136077 0.250000 0.495693
Si Si4 0.500000 0.625599 0.120893
Si Si5 0.500000 0.571210 0.811733
Si Si6 0.000000 0.250000 0.308289
O O1 0.684568 0.750000 0.921426
O O2 0.594649 0.885202 0.859446
O O3 0.750000 0.894215 0.000000
O O4 0.588215 0.846663 0.051680
O O5 0.588688 0.839631 0.542670
O O6 0.500000 0.928685 0.687743
O O7 0.500000 0.000000 0.500000
O O8 0.250000 0.250000 0.500000
O O9 0.092488 0.250000 0.380029
O O10 0.500000 0.523440 0.137589
O O11 0.500000 0.668325 0.232604
#
# Coordination Sequence:
#
# PCOD9503551 Si02
#       6
#    16   8   8   8   8   4
#     4  10  21  36  56  87 126 158 198 246 295 367
#     4  10  23  45  65  94 127 164 216 274 320 380
#     4  10  24  42  65  90 120 160 211 270 323 380
#     4  11  20  37  56  85 115 161 193 243 298 368
#     4  11  22  35  64  84 122 163 201 246 315 359
#     4  10  20  40  60  80 120 156 202 250 326 362
#
# _framework density 18.672689999999999
#
# number of rings (size 3 to 8) (size 9 to 14) (size 15 to 20)
#    0.000    1.846    1.538    5.077    4.308    5.538 
#    0.000    3.077    0.000    0.000    0.000    0.000 
#    0.000    0.000    0.000    0.000    0.000    0.000 
#
# Total GULP energy -144739.253601 kJ/mol
# GULP energy per Si atom -5566.894369 kJ/mol
# Density = 1.863019 g / cm^3
# Si number density = 18.672690 Si / 1000 Ang^3
#
#
#
# Elastic Constant Matrix: (Units=GPa)
#
#
# Indices 1 2 3 4 5 6 
#
# 1 159.4289 21.9230 43.4289 0.0000 0.0000 0.0000
# 2 21.9230 114.8740 24.5990 0.0000 0.0000 0.0000
# 3 43.4289 24.5990 138.8160 0.0000 0.0000 0.0000
# 4 0.0000 0.0000 0.0000 15.4459 0.0000 0.0000
# 5 0.0000 0.0000 0.0000 0.0000 0.8067 0.0000
# 6 0.0000 0.0000 0.0000 0.0000 0.0000 113.7907
#
#
#
# Elastic Compliance Matrix: (Units=1/GPa)
#
#
# Indices 1 2 3 4 5 6 
#
# 1 0.006944 -0.000894 -0.002014 0.000000 0.000000 0.000000
# 2 -0.000894 0.009164 -0.001344 0.000000 0.000000 0.000000
# 3 -0.002014 -0.001344 0.008072 0.000000 0.000000 0.000000
# 4 0.000000 0.000000 0.000000 0.064742 0.000000 0.000000
# 5 0.000000 0.000000 0.000000 0.000000 1.239687 0.000000
# 6 0.000000 0.000000 0.000000 0.000000 0.000000 0.008788
#
#
# Mechanical properties :
#
#
# Convention : Reuss Voigt Hill
#
# Bulk Modulus (GPa) = 63.79432 65.89121 64.84277
# Shear Modulus (GPa) = 3.70062 47.55319 25.62690
#
# Velocity S-wave (km/s) = 1.40930 5.05193 3.70865
# Velocity P-wave (km/s) = 6.07345 8.33027 7.28973
#
# Compressibility (1/GPa) = 0.01567538
#
# Stress axis : x y z
#
# Youngs Moduli (GPa) = 144.01057 109.12707 123.88404
#
# Poissons Ratio (x) = 0.09755 0.24950
# Poissons Ratio (y) = 0.12874 0.16652
# Poissons Ratio (z) = 0.29004 0.14669
#
# Static dielectric constant tensor:
#      x y z
#    x 1.792160 0.000000 0.000000 
#    y 0.000000 1.339830 0.000000 
#    z 0.000000 0.000000 1.616550 
# 
# From -- ./inp_files/17298.got.cif
#   From: 2010.05.17/outbox.cif.g08.bks.cpg/sg67_9_cif.got.tgz:17298.got - 2010.06.03 18:28:57.
