data_PCOD9503804
_publ_section_title
;
Structure prediction by ZEFSAII (Michael W. Deem and Ramdas Pophale) SiO2 
 PCOD9503804
Probable space group: C M M A
;
_chemical_formula_sum "Si O2"
_cell_formula_units_Z 96
_cell_length_a 13.852004
_cell_length_b 22.127705
_cell_length_c 15.167966
_cell_angle_alpha 90.000000
_cell_angle_beta 90.000000
_cell_angle_gamma 90.000000
_cell_volume 4649.179645
_symmetry_space_group_name_H-M "C M M A"
_symmetry_group_IT_number 67
_symmetry_cell_setting 'orthorhombic'
loop_
_space_group_symop_operation_xyz
x,y,z
-x,1/2-y,z
x,-y,-z
-x,1/2+y,-z
-x,-y,-z
x,1/2+y,-z
-x,y,z
x,1/2-y,z
1/2+x,1/2+y,z
1/2-x,-y,z
1/2+x,1/2-y,-z
1/2-x,y,-z
1/2-x,1/2-y,-z
1/2+x,y,-z
1/2-x,1/2+y,z
1/2+x,-y,z
loop_
_atom_site_type_symbol
_atom_site_label
_atom_site_fract_x
_atom_site_fract_y
_atom_site_fract_z
Si Si1 0.250000 0.145597 0.500000
Si Si2 0.115393 0.750000 0.433383
Si Si3 0.385913 0.105305 0.172068
Si Si4 0.612535 0.626469 0.021934
Si Si5 0.767469 0.250000 0.279619
Si Si6 0.316151 0.750000 0.085151
Si Si7 0.885594 0.538508 0.829630
Si Si8 0.778617 0.880324 0.691835
O O1 0.159863 0.190985 0.518165
O O2 0.235492 0.107736 0.411124
O O3 0.170900 0.750000 0.338997
O O4 0.000000 0.750000 0.428031
O O5 0.500000 0.118448 0.184907
O O6 0.321891 0.125627 0.254277
O O7 0.372338 0.032949 0.165395
O O8 0.350154 0.132026 0.078180
O O9 0.500000 0.612562 0.007798
O O10 0.623474 0.688435 0.075549
O O11 0.651204 0.572344 0.082431
O O12 0.756572 0.250000 0.174937
O O13 0.821763 0.187587 0.302422
O O14 0.250000 0.750000 0.000000
O O15 0.837085 0.569729 0.745429
O O16 0.000000 0.549636 0.824222
#
# Coordination Sequence:
#
# PCOD9503804 Si02
#       8
#     8   8  16  16   8   8  16  16
#     4   9  22  38  61  92 126 152 205 259 302 372
#     4   9  19  40  66  91 121 162 203 248 304 366
#     4  10  22  39  60  87 117 159 213 259 301 360
#     4  10  21  37  58  84 119 160 204 252 307 363
#     4  10  21  36  58  88 123 152 196 237 294 370
#     4  12  21  34  52  85 127 160 189 244 300 368
#     4  10  21  38  60  86 118 158 210 259 301 361
#     4  11  21  40  60  88 119 160 195 252 316 368
#
# _framework density 20.648803999999998
#
# number of rings (size 3 to 8) (size 9 to 14) (size 15 to 20)
#    0.000    1.833    1.667    2.750    0.000    5.333 
#    0.000    5.417    0.000    2.000    0.000    0.000 
#    0.000    0.000    0.000    0.000    0.000    0.000 
#
# Total GULP energy -268013.683798 kJ/mol
# GULP energy per Si atom -5583.618412 kJ/mol
# Density = 2.060181 g / cm^3
# Si number density = 20.648804 Si / 1000 Ang^3
#
#
#
# Elastic Constant Matrix: (Units=GPa)
#
#
# Indices 1 2 3 4 5 6 
#
# 1 65.3084 4.3536 29.9028 0.0000 0.0000 0.0000
# 2 4.3536 52.5198 21.0521 0.0000 0.0000 0.0000
# 3 29.9028 21.0521 189.4226 0.0000 0.0000 0.0000
# 4 0.0000 0.0000 0.0000 23.0402 0.0000 0.0000
# 5 0.0000 0.0000 0.0000 0.0000 21.0714 0.0000
# 6 0.0000 0.0000 0.0000 0.0000 0.0000 20.1884
#
#
#
# Elastic Compliance Matrix: (Units=1/GPa)
#
#
# Indices 1 2 3 4 5 6 
#
# 1 0.016511 -0.000339 -0.002569 0.000000 0.000000 0.000000
# 2 -0.000339 0.019935 -0.002162 0.000000 0.000000 0.000000
# 3 -0.002569 -0.002162 0.005925 0.000000 0.000000 0.000000
# 4 0.000000 0.000000 0.000000 0.043402 0.000000 0.000000
# 5 0.000000 0.000000 0.000000 0.000000 0.047458 0.000000
# 6 0.000000 0.000000 0.000000 0.000000 0.000000 0.049533
#
#
# Mechanical properties :
#
#
# Convention : Reuss Voigt Hill
#
# Bulk Modulus (GPa) = 31.02573 46.42976 38.72774
# Shear Modulus (GPa) = 24.55218 29.65614 27.10416
#
# Velocity S-wave (km/s) = 3.45198 3.79386 3.62695
# Velocity P-wave (km/s) = 5.56294 6.45952 6.02792
#
# Compressibility (1/GPa) = 0.03223131
#
# Stress axis : x y z
#
# Youngs Moduli (GPa) = 60.56669 50.16260 168.77646
#
# Poissons Ratio (x) = 0.01700 0.43355
# Poissons Ratio (y) = 0.02053 0.36490
# Poissons Ratio (z) = 0.15558 0.10845
#
# Static dielectric constant tensor:
#      x y z
#    x 1.766870 0.000000 0.000000 
#    y 0.000000 1.765650 0.000000 
#    z 0.000000 0.000000 1.748940 
# 
# From -- ./inp_files/27455.got.cif
#   From: 2010.05.17/outbox.cif.g08.bks.cpg/sg67_14_cif.got.tgz:27455.got - 2010.06.03 18:28:57.
