data_PCOD9503749
_publ_section_title
;
Structure prediction by ZEFSAII (Michael W. Deem and Ramdas Pophale) SiO2 
 PCOD9503749
Probable space group: C M M A
;
_chemical_formula_sum "Si O2"
_cell_formula_units_Z 88
_cell_length_a 8.926973
_cell_length_b 16.095110
_cell_length_c 30.633262
_cell_angle_alpha 90.000000
_cell_angle_beta 90.000000
_cell_angle_gamma 90.000000
_cell_volume 4401.405844
_symmetry_space_group_name_H-M "C M M A"
_symmetry_group_IT_number 67
_symmetry_cell_setting 'orthorhombic'
loop_
_space_group_symop_operation_xyz
x,y,z
-x,1/2-y,z
x,-y,-z
-x,1/2+y,-z
-x,-y,-z
x,1/2+y,-z
-x,y,z
x,1/2-y,z
1/2+x,1/2+y,z
1/2-x,-y,z
1/2+x,1/2-y,-z
1/2-x,y,-z
1/2-x,1/2-y,-z
1/2+x,y,-z
1/2-x,1/2+y,z
1/2+x,-y,z
loop_
_atom_site_type_symbol
_atom_site_label
_atom_site_fract_x
_atom_site_fract_y
_atom_site_fract_z
Si Si1 0.167662 0.150934 0.043019
Si Si2 0.321784 0.408650 0.225373
Si Si3 0.320860 0.091560 0.129708
Si Si4 0.673589 0.154056 0.688928
Si Si5 0.318337 0.750000 0.548443
Si Si6 0.318544 0.912075 0.404315
O O1 0.156035 0.250000 0.037191
O O2 0.256518 0.136377 0.087503
O O3 0.000000 0.115987 0.046700
O O4 0.250000 0.116984 0.000000
O O5 0.500000 0.416546 0.226703
O O6 0.250000 0.500000 0.227945
O O7 0.281743 0.371872 0.177608
O O8 0.266624 0.359784 0.267462
O O9 0.500000 0.087237 0.126685
O O10 0.250000 0.000000 0.129215
O O11 0.500000 0.136093 0.699333
O O12 0.684331 0.250000 0.675009
O O13 0.716895 0.099421 0.647271
O O14 0.500000 0.750000 0.548344
O O15 0.250000 0.750000 0.500000
O O16 0.255462 0.833174 0.571791
O O17 0.500000 0.910126 0.409276
O O18 0.250000 0.000000 0.419289
#
# Coordination Sequence:
#
# PCOD9503749 Si02
#       6
#    16  16  16  16   8  16
#     4  10  21  37  57  80 106 138 178 225 281 345
#     4  10  21  36  55  81 113 152 195 242 294 355
#     4  10  21  37  56  79 110 145 186 236 289 345
#     4  10  21  38  60  88 124 164 206 257 309 363
#     4  12  26  46  72 102 136 178 222 276 333 388
#     4  11  23  43  68  99 136 176 223 274 329 390
#
# _framework density 19.993611000000001
#
# number of rings (size 3 to 8) (size 9 to 14) (size 15 to 20)
#    0.000    1.636    0.909    3.545    0.000    8.000 
#    0.000    7.273    0.000    0.000    0.000    0.000 
#    0.000    0.000    0.000    0.000    0.000    0.000 
#
# Total GULP energy -245712.146427 kJ/mol
# GULP energy per Si atom -5584.366964 kJ/mol
# Density = 1.994810 g / cm^3
# Si number density = 19.993611 Si / 1000 Ang^3
#
#
#
# Elastic Constant Matrix: (Units=GPa)
#
#
# Indices 1 2 3 4 5 6 
#
# 1 112.5569 41.7178 76.0323 0.0000 0.0000 0.0000
# 2 41.7178 78.4383 46.7753 0.0000 0.0000 0.0000
# 3 76.0323 46.7753 139.1049 0.0000 0.0000 0.0000
# 4 0.0000 0.0000 0.0000 556.9720 0.0000 0.0000
# 5 0.0000 0.0000 0.0000 0.0000 36.6847 0.0000
# 6 0.0000 0.0000 0.0000 0.0000 0.0000 31.0416
#
#
#
# Elastic Compliance Matrix: (Units=1/GPa)
#
#
# Indices 1 2 3 4 5 6 
#
# 1 0.014961 -0.003853 -0.006882 0.000000 0.000000 0.000000
# 2 -0.003853 0.016939 -0.003590 0.000000 0.000000 0.000000
# 3 -0.006882 -0.003590 0.012157 0.000000 0.000000 0.000000
# 4 0.000000 0.000000 0.000000 0.001795 0.000000 0.000000
# 5 0.000000 0.000000 0.000000 0.000000 0.027259 0.000000
# 6 0.000000 0.000000 0.000000 0.000000 0.000000 0.032215
#
#
# Mechanical properties :
#
#
# Convention : Reuss Voigt Hill
#
# Bulk Modulus (GPa) = 64.90213 73.23897 69.07055
# Shear Modulus (GPa) = 35.94200 135.97797 85.95998
#
# Velocity S-wave (km/s) = 4.24450 8.25581 6.56407
# Velocity P-wave (km/s) = 7.52017 11.29551 9.59535
#
# Compressibility (1/GPa) = 0.01540782
#
# Stress axis : x y z
#
# Youngs Moduli (GPa) = 66.83910 59.03548 82.25444
#
# Poissons Ratio (x) = 0.22749 0.56606
# Poissons Ratio (y) = 0.25756 0.29527
# Poissons Ratio (z) = 0.45998 0.21192
#
# Static dielectric constant tensor:
#      x y z
#    x 1.687410 0.000000 0.000000 
#    y 0.000000 1.707850 0.000000 
#    z 0.000000 0.000000 1.718460 
# 
# From -- ./inp_files/45239.got.cif
#   From: 2010.05.17/outbox.cif.g08.bks.cpg/sg67_23_cif.got.tgz:45239.got - 2010.06.03 18:28:57.
