data_PCOD9503758
_publ_section_title
;
Structure prediction by ZEFSAII (Michael W. Deem and Ramdas Pophale) SiO2 
 PCOD9503758
Probable space group: C M M A
;
_chemical_formula_sum "Si O2"
_cell_formula_units_Z 68
_cell_length_a 24.782262
_cell_length_b 9.381510
_cell_length_c 13.807323
_cell_angle_alpha 90.000000
_cell_angle_beta 90.000000
_cell_angle_gamma 90.000000
_cell_volume 3210.134096
_symmetry_space_group_name_H-M "C M M A"
_symmetry_group_IT_number 67
_symmetry_cell_setting 'orthorhombic'
loop_
_space_group_symop_operation_xyz
x,y,z
-x,1/2-y,z
x,-y,-z
-x,1/2+y,-z
-x,-y,-z
x,1/2+y,-z
-x,y,z
x,1/2-y,z
1/2+x,1/2+y,z
1/2-x,-y,z
1/2+x,1/2-y,-z
1/2-x,y,-z
1/2-x,1/2-y,-z
1/2+x,y,-z
1/2-x,1/2+y,z
1/2+x,-y,z
loop_
_atom_site_type_symbol
_atom_site_label
_atom_site_fract_x
_atom_site_fract_y
_atom_site_fract_z
Si Si1 0.799178 0.087189 0.643397
Si Si2 0.078470 0.583358 0.405053
Si Si3 0.160774 0.913724 0.147741
Si Si4 0.250000 0.500000 0.000000
Si Si5 0.561125 0.919451 0.201828
O O1 0.781534 0.250000 0.650829
O O2 0.856317 0.082863 0.590951
O O3 0.812676 0.034481 0.751919
O O4 0.750000 0.000000 0.602755
O O5 0.059021 0.500000 0.500000
O O6 0.062131 0.750000 0.401940
O O7 0.063943 0.500899 0.305811
O O8 0.142800 0.750000 0.162219
O O9 0.207710 0.917817 0.068370
O O10 0.107953 0.011666 0.135394
O O11 0.500000 0.937906 0.164232
O O12 0.570682 0.750000 0.215045
#
# Coordination Sequence:
#
# PCOD9503758 Si02
#       5
#    16  16  16   4  16
#     4   9  18  33  51  76 112 155 196 238 291 351
#     4  10  21  36  55  84 118 156 204 253 301 353
#     4  10  22  38  60  92 124 158 198 243 300 359
#     4  12  22  40  66  98 128 156 192 244 294 360
#     4  10  22  41  64  88 118 160 205 250 303 358
#
# _framework density 21.182915000000001
#
# number of rings (size 3 to 8) (size 9 to 14) (size 15 to 20)
#    0.000    2.118    1.176    3.176    0.000    9.412 
#    0.000    2.941    0.000    0.000    0.000    0.000 
#    0.000    0.000    0.000    0.000    0.000    0.000 
#
# Total GULP energy -189705.857432 kJ/mol
# GULP energy per Si atom -5579.584042 kJ/mol
# Density = 2.113470 g / cm^3
# Si number density = 21.182915 Si / 1000 Ang^3
#
#
#
# Elastic Constant Matrix: (Units=GPa)
#
#
# Indices 1 2 3 4 5 6 
#
# 1 171.8007 75.3039 25.1975 0.0000 0.0000 0.0000
# 2 75.3039 101.1145 19.4920 0.0000 0.0000 0.0000
# 3 25.1975 19.4920 67.3653 0.0000 0.0000 0.0000
# 4 0.0000 0.0000 0.0000 -1.4849 0.0000 0.0000
# 5 0.0000 0.0000 0.0000 0.0000 76.2219 0.0000
# 6 0.0000 0.0000 0.0000 0.0000 0.0000 14.8853
#
#
#
# Elastic Compliance Matrix: (Units=1/GPa)
#
#
# Indices 1 2 3 4 5 6 
#
# 1 0.008778 -0.006253 -0.001474 0.000000 0.000000 0.000000
# 2 -0.006253 0.014928 -0.001981 0.000000 0.000000 0.000000
# 3 -0.001474 -0.001981 0.015969 0.000000 0.000000 0.000000
# 4 0.000000 0.000000 0.000000 -0.673433 0.000000 0.000000
# 5 0.000000 0.000000 0.000000 0.000000 0.013120 0.000000
# 6 0.000000 0.000000 0.000000 0.000000 0.000000 0.067180
#
#
# Mechanical properties :
#
#
# Convention : Reuss Voigt Hill
#
# Bulk Modulus (GPa) = 49.35865 64.47415 56.91640
# Shear Modulus (GPa) = -9.48246 32.61026 11.56390
#
# Velocity S-wave (km/s) = -2.11806 3.92785 2.33900
# Velocity P-wave (km/s) = 4.16775 7.14658 5.84995
#
# Compressibility (1/GPa) = 0.02025987
#
# Stress axis : x y z
#
# Youngs Moduli (GPa) = 113.92549 66.98651 62.62192
#
# Poissons Ratio (x) = 0.41886 0.09230
# Poissons Ratio (y) = 0.71237 0.12403
# Poissons Ratio (z) = 0.16792 0.13268
#
# Static dielectric constant tensor:
#      x y z
#    x 1.778910 0.000000 0.000000 
#    y 0.000000 1.739820 0.000000 
#    z 0.000000 0.000000 1.784820 
# 
# From -- ./inp_files/30476.got.cif
#   From: 2010.05.17/outbox.cif.g08.bks.cpg/sg67_16_cif.got.tgz:30476.got - 2010.06.03 18:28:57.
