data_PCOD9503104
_publ_section_title
;
Structure prediction by ZEFSAII (Michael W. Deem and Ramdas Pophale) SiO2 
 PCOD9503104
Probable space group: C M M A
;
_chemical_formula_sum "Si O2"
_cell_formula_units_Z 96
_cell_length_a 8.755407
_cell_length_b 18.836994
_cell_length_c 31.635865
_cell_angle_alpha 90.000000
_cell_angle_beta 90.000000
_cell_angle_gamma 90.000000
_cell_volume 5217.562407
_symmetry_space_group_name_H-M "C M M A"
_symmetry_group_IT_number 67
_symmetry_cell_setting 'orthorhombic'
loop_
_space_group_symop_operation_xyz
x,y,z
-x,1/2-y,z
x,-y,-z
-x,1/2+y,-z
-x,-y,-z
x,1/2+y,-z
-x,y,z
x,1/2-y,z
1/2+x,1/2+y,z
1/2-x,-y,z
1/2+x,1/2-y,-z
1/2-x,y,-z
1/2-x,1/2-y,-z
1/2+x,y,-z
1/2-x,1/2+y,z
1/2+x,-y,z
loop_
_atom_site_type_symbol
_atom_site_label
_atom_site_fract_x
_atom_site_fract_y
_atom_site_fract_z
Si Si1 0.816017 0.332196 0.045347
Si Si2 0.682180 0.921188 0.377718
Si Si3 0.183422 0.921219 0.288135
Si Si4 0.683401 0.078831 0.872801
Si Si5 0.320086 0.835076 0.545148
Si Si6 0.184071 0.332530 0.795088
O O1 0.769621 0.250000 0.053070
O O2 0.767433 0.381950 0.083923
O O3 0.000000 0.333726 0.043164
O O4 0.750000 0.354052 0.000000
O O5 0.500000 0.924780 0.375582
O O6 0.748424 0.895594 0.332700
O O7 0.736373 0.872799 0.416235
O O8 0.750000 0.000000 0.383908
O O9 0.222847 0.870216 0.249230
O O10 0.000000 0.925867 0.291617
O O11 0.250000 0.000000 0.280363
O O12 0.500000 0.075608 0.872229
O O13 0.740459 0.124923 0.833329
O O14 0.750000 0.000000 0.870509
O O15 0.500000 0.851731 0.546211
O O16 0.302420 0.750000 0.548735
O O17 0.250000 0.856786 0.500000
O O18 0.229170 0.250000 0.795416
O O19 0.000000 0.336179 0.799628
#
# Coordination Sequence:
#
# PCOD9503104 Si02
#       6
#    16  16  16  16  16  16
#     4   9  19  36  57  81 109 143 183 227 276 329
#     4  11  22  37  58  84 114 148 188 230 276 330
#     4  10  20  36  57  81 111 146 184 227 276 328
#     4  11  23  38  57  82 113 148 187 231 278 329
#     4  10  21  38  59  83 113 148 186 230 280 332
#     4  10  22  39  59  84 113 146 185 228 276 331
#
# _framework density 18.399397
#
# number of rings (size 3 to 8) (size 9 to 14) (size 15 to 20)
#    0.000    1.833    0.000    5.000    0.000    7.333 
#    0.000    6.667    0.000    0.000    0.000    0.000 
#    0.000    0.000    0.000    0.000    0.000    0.000 
#
# Total GULP energy -268206.449613 kJ/mol
# GULP energy per Si atom -5587.634367 kJ/mol
# Density = 1.835752 g / cm^3
# Si number density = 18.399397 Si / 1000 Ang^3
#
#
#
# Elastic Constant Matrix: (Units=GPa)
#
#
# Indices 1 2 3 4 5 6 
#
# 1 83.2279 53.5683 77.8511 0.0000 0.0000 0.0000
# 2 53.5683 105.8611 109.1051 0.0000 0.0000 0.0000
# 3 77.8511 109.1051 199.6468 0.0000 0.0000 0.0000
# 4 0.0000 0.0000 0.0000 37.1391 0.0000 0.0000
# 5 0.0000 0.0000 0.0000 0.0000 34.8786 0.0000
# 6 0.0000 0.0000 0.0000 0.0000 0.0000 22.0112
#
#
#
# Elastic Compliance Matrix: (Units=1/GPa)
#
#
# Indices 1 2 3 4 5 6 
#
# 1 0.019904 -0.004745 -0.005168 0.000000 0.000000 0.000000
# 2 -0.004745 0.022759 -0.010587 0.000000 0.000000 0.000000
# 3 -0.005168 -0.010587 0.012810 0.000000 0.000000 0.000000
# 4 0.000000 0.000000 0.000000 0.026926 0.000000 0.000000
# 5 0.000000 0.000000 0.000000 0.000000 0.028671 0.000000
# 6 0.000000 0.000000 0.000000 0.000000 0.000000 0.045431
#
#
# Mechanical properties :
#
#
# Convention : Reuss Voigt Hill
#
# Bulk Modulus (GPa) = 69.10109 96.64275 82.87192
# Shear Modulus (GPa) = 24.71253 28.68653 26.69953
#
# Velocity S-wave (km/s) = 3.66883 3.95283 3.81348
# Velocity P-wave (km/s) = 7.45552 8.57159 8.03296
#
# Compressibility (1/GPa) = 0.01447155
#
# Stress axis : x y z
#
# Youngs Moduli (GPa) = 50.24214 43.93786 78.06396
#
# Poissons Ratio (x) = 0.20850 0.40344
# Poissons Ratio (y) = 0.23841 0.82649
# Poissons Ratio (z) = 0.25965 0.46519
#
# Static dielectric constant tensor:
#      x y z
#    x 1.618850 0.000000 0.000000 
#    y 0.000000 1.610550 0.000000 
#    z 0.000000 0.000000 1.610670 
# 
# From -- ./inp_files/43465.got.cif
#   From: 2010.05.17/outbox.cif.g08.bks.cpg/sg67_22_cif.got.tgz:43465.got - 2010.06.03 18:28:57.
