data_PCOD9503536
_publ_section_title
;
Structure prediction by ZEFSAII (Michael W. Deem and Ramdas Pophale) SiO2 
 PCOD9503536
Probable space group: C M M A
;
_chemical_formula_sum "Si O2"
_cell_formula_units_Z 80
_cell_length_a 7.503310
_cell_length_b 27.885895
_cell_length_c 16.808534
_cell_angle_alpha 90.000000
_cell_angle_beta 90.000000
_cell_angle_gamma 90.000000
_cell_volume 3516.959073
_symmetry_space_group_name_H-M "C M M A"
_symmetry_group_IT_number 67
_symmetry_cell_setting 'orthorhombic'
loop_
_space_group_symop_operation_xyz
x,y,z
-x,1/2-y,z
x,-y,-z
-x,1/2+y,-z
-x,-y,-z
x,1/2+y,-z
-x,y,z
x,1/2-y,z
1/2+x,1/2+y,z
1/2-x,-y,z
1/2+x,1/2-y,-z
1/2-x,y,-z
1/2-x,1/2-y,-z
1/2+x,y,-z
1/2-x,1/2+y,z
1/2+x,-y,z
loop_
_atom_site_type_symbol
_atom_site_label
_atom_site_fract_x
_atom_site_fract_y
_atom_site_fract_z
Si Si1 0.712867 0.447019 0.300565
Si Si2 0.214089 0.446214 0.883516
Si Si3 0.713414 0.656160 0.683134
Si Si4 0.750000 0.366723 0.000000
Si Si5 0.212820 0.194318 0.142041
Si Si6 0.713755 0.750000 0.593106
O O1 0.500000 0.443768 0.297742
O O2 0.750000 0.500000 0.334267
O O3 0.773753 0.445770 0.208433
O O4 0.779744 0.397303 0.338522
O O5 0.250000 0.500000 0.911598
O O6 0.000000 0.436159 0.887949
O O7 0.313125 0.406821 0.935904
O O8 0.500000 0.655752 0.672094
O O9 0.748653 0.666836 0.776020
O O10 0.784635 0.701451 0.633969
O O11 0.688347 0.329059 0.067265
O O12 0.260130 0.250000 0.153094
O O13 0.000000 0.191502 0.125035
O O14 0.500000 0.750000 0.605190
O O15 0.750000 0.750000 0.500000
#
# Coordination Sequence:
#
# PCOD9503536 Si02
#       6
#    16  16  16   8  16   8
#     4   9  18  34  55  82 111 149 197 240 285 341
#     4  10  21  35  51  72 102 143 192 247 294 335
#     4  10  20  39  64  87 117 157 193 229 287 355
#     4  12  22  36  52  72 106 154 202 242 294 344
#     4  11  24  38  54  80 110 147 196 250 297 341
#     4  10  22  40  68  99 124 151 182 227 282 347
#
# _framework density 22.746922999999999
#
# number of rings (size 3 to 8) (size 9 to 14) (size 15 to 20)
#    0.000    1.800    3.000    1.200    0.000    4.800 
#    0.000    0.000    0.000    0.600    0.000    4.200 
#    0.000    0.000    0.000    0.000    0.000    0.000 
#
# Total GULP energy -222920.572249 kJ/mol
# GULP energy per Si atom -5573.014306 kJ/mol
# Density = 2.269515 g / cm^3
# Si number density = 22.746923 Si / 1000 Ang^3
#
#
#
# Elastic Constant Matrix: (Units=GPa)
#
#
# Indices 1 2 3 4 5 6 
#
# 1 79.8765 10.0303 -7.9743 0.0000 0.0000 0.0000
# 2 10.0303 249.2949 47.3299 0.0000 0.0000 0.0000
# 3 -7.9743 47.3299 75.4042 0.0000 0.0000 0.0000
# 4 0.0000 0.0000 0.0000 7.2775 0.0000 0.0000
# 5 0.0000 0.0000 0.0000 0.0000 -8.9805 0.0000
# 6 0.0000 0.0000 0.0000 0.0000 0.0000 3.0277
#
#
#
# Elastic Compliance Matrix: (Units=1/GPa)
#
#
# Indices 1 2 3 4 5 6 
#
# 1 0.012820 -0.000878 0.001907 0.000000 0.000000 0.000000
# 2 -0.000878 0.004614 -0.002989 0.000000 0.000000 0.000000
# 3 0.001907 -0.002989 0.015340 0.000000 0.000000 0.000000
# 4 0.000000 0.000000 0.000000 0.137410 0.000000 0.000000
# 5 0.000000 0.000000 0.000000 0.000000 -0.111352 0.000000
# 6 0.000000 0.000000 0.000000 0.000000 0.000000 0.330287
#
#
# Mechanical properties :
#
#
# Convention : Reuss Voigt Hill
#
# Bulk Modulus (GPa) = 34.65784 55.92749 45.29267
# Shear Modulus (GPa) = 12.41755 23.94424 18.18090
#
# Velocity S-wave (km/s) = 2.33899 3.24796 2.83020
# Velocity P-wave (km/s) = 4.75014 6.22140 5.53487
#
# Compressibility (1/GPa) = 0.02885350
#
# Stress axis : x y z
#
# Youngs Moduli (GPa) = 78.00368 216.72621 65.19043
#
# Poissons Ratio (x) = 0.19024 -0.12430
# Poissons Ratio (y) = 0.06847 0.19486
# Poissons Ratio (z) = -0.14873 0.64780
#
# Static dielectric constant tensor:
#      x y z
#    x 1.936700 0.000000 0.000000 
#    y 0.000000 1.902130 0.000000 
#    z 0.000000 0.000000 1.774180 
# 
# From -- ./inp_files/32171.got.cif
#   From: 2010.05.17/outbox.cif.g08.bks.cpg/sg67_17_cif.got.tgz:32171.got - 2010.06.03 18:28:57.
