data_PCOD9503283
_publ_section_title
;
Structure prediction by ZEFSAII (Michael W. Deem and Ramdas Pophale) SiO2 
 PCOD9503283
Probable space group: C M M A
;
_chemical_formula_sum "Si O2"
_cell_formula_units_Z 120
_cell_length_a 19.808725
_cell_length_b 23.779102
_cell_length_c 12.044078
_cell_angle_alpha 90.000000
_cell_angle_beta 90.000000
_cell_angle_gamma 90.000000
_cell_volume 5673.166530
_symmetry_space_group_name_H-M "C M M A"
_symmetry_group_IT_number 67
_symmetry_cell_setting 'orthorhombic'
loop_
_space_group_symop_operation_xyz
x,y,z
-x,1/2-y,z
x,-y,-z
-x,1/2+y,-z
-x,-y,-z
x,1/2+y,-z
-x,y,z
x,1/2-y,z
1/2+x,1/2+y,z
1/2-x,-y,z
1/2+x,1/2-y,-z
1/2-x,y,-z
1/2-x,1/2-y,-z
1/2+x,y,-z
1/2-x,1/2+y,z
1/2+x,-y,z
loop_
_atom_site_type_symbol
_atom_site_label
_atom_site_fract_x
_atom_site_fract_y
_atom_site_fract_z
Si Si1 0.817315 0.900690 0.283959
Si Si2 0.831807 0.998393 0.869410
Si Si3 0.869062 0.314900 0.390892
Si Si4 0.076518 0.312105 0.628533
Si Si5 0.575012 0.686306 0.982065
Si Si6 0.217868 0.814428 0.120107
Si Si7 0.921062 0.893248 0.806103
Si Si8 0.250000 0.387803 0.500000
O O1 0.875181 0.859703 0.327393
O O2 0.766736 0.861184 0.211426
O O3 0.781382 0.921993 0.396575
O O4 0.848454 0.946870 0.202995
O O5 0.870103 0.945527 0.816310
O O6 0.750000 0.000000 0.864077
O O7 0.850174 0.000000 0.000000
O O8 0.854379 0.250000 0.359718
O O9 0.920056 0.313493 0.495033
O O10 0.899320 0.351097 0.291340
O O11 0.804512 0.346633 0.442743
O O12 0.101793 0.250000 0.662639
O O13 0.000000 0.318439 0.665338
O O14 0.500000 0.679695 0.933169
O O15 0.578664 0.750000 0.028966
O O16 0.583394 0.641701 0.079491
O O17 0.637383 0.682119 0.899365
O O18 0.236579 0.750000 0.148144
O O19 0.250000 0.827505 0.000000
O O20 0.000000 0.910321 0.792003
#
# Coordination Sequence:
#
# PCOD9503283 Si02
#       8
#    16  16  16  16  16  16  16   8
#     4  11  23  41  64  89 123 166 215 261 320 380
#     4  11  26  45  67  90 121 171 226 279 329 391
#     4  10  20  36  62  95 132 172 211 259 325 398
#     4   9  19  37  61  92 128 164 204 250 307 383
#     4   9  19  36  58  90 132 172 208 257 329 400
#     4  10  22  36  59  95 130 166 210 264 322 386
#     4  11  23  40  63  95 129 165 217 278 338 399
#     4  10  23  40  63  96 136 170 214 270 318 392
#
# _framework density 21.152208000000002
#
# number of rings (size 3 to 8) (size 9 to 14) (size 15 to 20)
#    0.000    1.867    0.000    3.000    5.600    4.267 
#    0.000    7.667    0.000    4.000    0.000    0.000 
#    0.000    0.000    0.000    0.000    0.000    0.000 
#
# Total GULP energy -335256.384204 kJ/mol
# GULP energy per Si atom -5587.606403 kJ/mol
# Density = 2.110406 g / cm^3
# Si number density = 21.152208 Si / 1000 Ang^3
#
#
#
# Elastic Constant Matrix: (Units=GPa)
#
#
# Indices 1 2 3 4 5 6 
#
# 1 71.8015 23.0685 25.8343 0.0000 0.0000 0.0000
# 2 23.0685 94.0667 56.6802 0.0000 0.0000 0.0000
# 3 25.8343 56.6802 125.6748 0.0000 0.0000 0.0000
# 4 0.0000 0.0000 0.0000 32.4366 0.0000 0.0000
# 5 0.0000 0.0000 0.0000 0.0000 22.5784 0.0000
# 6 0.0000 0.0000 0.0000 0.0000 0.0000 12.5209
#
#
#
# Elastic Compliance Matrix: (Units=1/GPa)
#
#
# Indices 1 2 3 4 5 6 
#
# 1 0.015483 -0.002580 -0.002019 0.000000 0.000000 0.000000
# 2 -0.002580 0.015028 -0.006247 0.000000 0.000000 0.000000
# 3 -0.002019 -0.006247 0.011190 0.000000 0.000000 0.000000
# 4 0.000000 0.000000 0.000000 0.030829 0.000000 0.000000
# 5 0.000000 0.000000 0.000000 0.000000 0.044290 0.000000
# 6 0.000000 0.000000 0.000000 0.000000 0.000000 0.079866
#
#
# Mechanical properties :
#
#
# Convention : Reuss Voigt Hill
#
# Bulk Modulus (GPa) = 49.98229 55.85655 52.91942
# Shear Modulus (GPa) = 22.21748 25.90452 24.06100
#
# Velocity S-wave (km/s) = 3.24445 3.50333 3.37637
# Velocity P-wave (km/s) = 6.14136 6.54436 6.34606
#
# Compressibility (1/GPa) = 0.02000708
#
# Stress axis : x y z
#
# Youngs Moduli (GPa) = 64.58811 66.54313 89.36866
#
# Poissons Ratio (x) = 0.17171 0.18043
# Poissons Ratio (y) = 0.16666 0.55831
# Poissons Ratio (z) = 0.13040 0.41571
#
# Static dielectric constant tensor:
#      x y z
#    x 1.792830 0.000000 0.000000 
#    y 0.000000 1.760090 0.000000 
#    z 0.000000 0.000000 1.794440 
# 
# From -- ./inp_files/21155.got.cif
#   From: 2010.05.17/outbox.cif.g08.bks.cpg/sg67_11_cif.got.tgz:21155.got - 2010.06.03 18:28:57.
