data_PCOD9503696
_publ_section_title
;
Structure prediction by ZEFSAII (Michael W. Deem and Ramdas Pophale) SiO2 
 PCOD9503696
Probable space group: C M M A
;
_chemical_formula_sum "Si O2"
_cell_formula_units_Z 72
_cell_length_a 8.552951
_cell_length_b 31.947146
_cell_length_c 14.719408
_cell_angle_alpha 90.000000
_cell_angle_beta 90.000000
_cell_angle_gamma 90.000000
_cell_volume 4021.965991
_symmetry_space_group_name_H-M "C M M A"
_symmetry_group_IT_number 67
_symmetry_cell_setting 'orthorhombic'
loop_
_space_group_symop_operation_xyz
x,y,z
-x,1/2-y,z
x,-y,-z
-x,1/2+y,-z
-x,-y,-z
x,1/2+y,-z
-x,y,z
x,1/2-y,z
1/2+x,1/2+y,z
1/2-x,-y,z
1/2+x,1/2-y,-z
1/2-x,y,-z
1/2-x,1/2-y,-z
1/2+x,y,-z
1/2-x,1/2+y,z
1/2+x,-y,z
loop_
_atom_site_type_symbol
_atom_site_label
_atom_site_fract_x
_atom_site_fract_y
_atom_site_fract_z
Si Si1 0.811866 0.202692 0.396744
Si Si2 0.687740 0.876942 0.713441
Si Si3 0.814039 0.954831 0.601727
Si Si4 0.311360 0.158250 0.101886
Si Si5 0.188351 0.750000 0.102870
O O1 0.768522 0.250000 0.365214
O O2 0.750000 0.198601 0.500000
O O3 0.741595 0.165246 0.337783
O O4 0.000000 0.199666 0.396859
O O5 0.500000 0.879005 0.708978
O O6 0.758732 0.917114 0.664713
O O7 0.736012 0.873465 0.819191
O O8 0.750000 0.947585 0.500000
O O9 0.000000 0.956451 0.597861
O O10 0.750000 0.000000 0.632215
O O11 0.500000 0.158477 0.096619
O O12 0.259571 0.204621 0.137033
O O13 0.250000 0.151246 0.000000
O O14 0.000000 0.750000 0.105543
O O15 0.250000 0.750000 0.000000
#
# Coordination Sequence:
#
# PCOD9503696 Si02
#       5
#    16  16  16  16   8
#     4  10  21  36  52  74 106 145 186 227 271 322
#     4  11  22  35  55  82 111 146 184 225 274 330
#     4  11  22  39  62  87 115 143 177 223 274 330
#     4   9  19  33  52  75 106 143 185 230 275 322
#     4   8  14  28  46  68  95 132 177 222 267 308
#
# _framework density 17.901693999999999
#
# number of rings (size 3 to 8) (size 9 to 14) (size 15 to 20)
#    0.000    2.000    0.000    4.667    1.556    3.111 
#    0.000    0.000    0.000    0.667    0.000    4.667 
#    0.000    0.000    0.000    0.000    0.000    0.000 
#
# Total GULP energy -200879.547285 kJ/mol
# GULP energy per Si atom -5579.987425 kJ/mol
# Density = 1.786095 g / cm^3
# Si number density = 17.901694 Si / 1000 Ang^3
#
#
#
# Elastic Constant Matrix: (Units=GPa)
#
#
# Indices 1 2 3 4 5 6 
#
# 1 84.7412 53.9130 37.5242 0.0000 0.0000 0.0000
# 2 53.9130 145.8261 94.4855 0.0000 0.0000 0.0000
# 3 37.5242 94.4855 106.3475 0.0000 0.0000 0.0000
# 4 0.0000 0.0000 0.0000 23.9580 0.0000 0.0000
# 5 0.0000 0.0000 0.0000 0.0000 21.2201 0.0000
# 6 0.0000 0.0000 0.0000 0.0000 0.0000 26.5386
#
#
#
# Elastic Compliance Matrix: (Units=1/GPa)
#
#
# Indices 1 2 3 4 5 6 
#
# 1 0.015465 -0.005142 -0.000888 0.000000 0.000000 0.000000
# 2 -0.005142 0.017870 -0.014063 0.000000 0.000000 0.000000
# 3 -0.000888 -0.014063 0.022211 0.000000 0.000000 0.000000
# 4 0.000000 0.000000 0.000000 0.041740 0.000000 0.000000
# 5 0.000000 0.000000 0.000000 0.000000 0.047125 0.000000
# 6 0.000000 0.000000 0.000000 0.000000 0.000000 0.037681
#
#
# Mechanical properties :
#
#
# Convention : Reuss Voigt Hill
#
# Bulk Modulus (GPa) = 65.10337 78.75114 71.92726
# Shear Modulus (GPa) = 21.98787 24.40947 23.19867
#
# Velocity S-wave (km/s) = 3.50845 3.69660 3.60376
# Velocity P-wave (km/s) = 7.27038 7.89343 7.58830
#
# Compressibility (1/GPa) = 0.01536019
#
# Stress axis : x y z
#
# Youngs Moduli (GPa) = 64.66022 55.95924 45.02357
#
# Poissons Ratio (x) = 0.28775 0.04000
# Poissons Ratio (y) = 0.33249 0.63315
# Poissons Ratio (z) = 0.05744 0.78693
#
# Static dielectric constant tensor:
#      x y z
#    x 1.606950 0.000000 0.000000 
#    y 0.000000 1.617010 0.000000 
#    z 0.000000 0.000000 1.605640 
# 
# From -- ./inp_files/25077.got.cif
#   From: 2010.05.17/outbox.cif.g08.bks.cpg/sg67_13_cif.got.tgz:25077.got - 2010.06.03 18:28:57.
