data_PCOD9503681
_publ_section_title
;
Structure prediction by ZEFSAII (Michael W. Deem and Ramdas Pophale) SiO2 
 PCOD9503681
Probable space group: C M M A
;
_chemical_formula_sum "Si O2"
_cell_formula_units_Z 96
_cell_length_a 28.336235
_cell_length_b 19.925027
_cell_length_c 8.153145
_cell_angle_alpha 90.000000
_cell_angle_beta 90.000000
_cell_angle_gamma 90.000000
_cell_volume 4603.267685
_symmetry_space_group_name_H-M "C M M A"
_symmetry_group_IT_number 67
_symmetry_cell_setting 'orthorhombic'
loop_
_space_group_symop_operation_xyz
x,y,z
-x,1/2-y,z
x,-y,-z
-x,1/2+y,-z
-x,-y,-z
x,1/2+y,-z
-x,y,z
x,1/2-y,z
1/2+x,1/2+y,z
1/2-x,-y,z
1/2+x,1/2-y,-z
1/2-x,y,-z
1/2-x,1/2-y,-z
1/2+x,y,-z
1/2-x,1/2+y,z
1/2+x,-y,z
loop_
_atom_site_type_symbol
_atom_site_label
_atom_site_fract_x
_atom_site_fract_y
_atom_site_fract_z
Si Si1 0.346373 0.436319 0.896269
Si Si2 0.445932 0.398567 0.961363
Si Si3 0.555093 0.823881 0.377810
Si Si4 0.406403 0.329480 0.290162
Si Si5 0.265320 0.076266 0.684499
Si Si6 0.807301 0.328585 0.859138
O O1 0.402562 0.444333 0.899413
O O2 0.320955 0.427308 0.722772
O O3 0.327402 0.500000 0.000000
O O4 0.330902 0.368840 0.990889
O O5 0.500000 0.423461 0.970441
O O6 0.444293 0.347023 0.809262
O O7 0.430879 0.367243 0.136566
O O8 0.500000 0.821548 0.423205
O O9 0.576788 0.750000 0.377052
O O10 0.579022 0.859216 0.533532
O O11 0.419971 0.250000 0.278173
O O12 0.349920 0.332589 0.272216
O O13 0.250000 0.091316 0.500000
O O14 0.237816 0.129689 0.797823
O O15 0.250000 0.000000 0.721120
O O16 0.797751 0.250000 0.890921
#
# Coordination Sequence:
#
# PCOD9503681 Si02
#       6
#    16  16  16  16  16  16
#     4  11  23  42  66  90 123 173 217 258 316 385
#     4  10  21  35  56  88 123 162 214 266 313 371
#     4   9  17  30  52  82 119 165 212 260 314 373
#     4   9  18  33  55  84 123 167 208 256 318 382
#     4  11  24  41  66  95 123 166 212 257 316 391
#     4  10  22  40  64  96 128 161 208 265 320 377
#
# _framework density 20.854749999999999
#
# number of rings (size 3 to 8) (size 9 to 14) (size 15 to 20)
#    0.000    2.000    1.667    1.500    2.333    4.333 
#    0.000    0.000    0.000    0.000    0.000    8.167 
#    0.000    0.000    0.000    0.000    0.000    0.000 
#
# Total GULP energy -267210.380186 kJ/mol
# GULP energy per Si atom -5566.882921 kJ/mol
# Density = 2.080728 g / cm^3
# Si number density = 20.854750 Si / 1000 Ang^3
#
#
#
# Elastic Constant Matrix: (Units=GPa)
#
#
# Indices 1 2 3 4 5 6 
#
# 1 118.8989 15.3549 32.0693 0.0000 0.0000 0.0000
# 2 15.3549 59.9871 14.0104 0.0000 0.0000 0.0000
# 3 32.0693 14.0104 74.2779 0.0000 0.0000 0.0000
# 4 0.0000 0.0000 0.0000 3.1721 0.0000 0.0000
# 5 0.0000 0.0000 0.0000 0.0000 29.8791 0.0000
# 6 0.0000 0.0000 0.0000 0.0000 0.0000 -2.9668
#
#
#
# Elastic Compliance Matrix: (Units=1/GPa)
#
#
# Indices 1 2 3 4 5 6 
#
# 1 0.009658 -0.001567 -0.003874 0.000000 0.000000 0.000000
# 2 -0.001567 0.017693 -0.002661 0.000000 0.000000 0.000000
# 3 -0.003874 -0.002661 0.015637 0.000000 0.000000 0.000000
# 4 0.000000 0.000000 0.000000 0.315251 0.000000 0.000000
# 5 0.000000 0.000000 0.000000 0.000000 0.033468 0.000000
# 6 0.000000 0.000000 0.000000 0.000000 0.000000 -0.337069
#
#
# Mechanical properties :
#
#
# Convention : Reuss Voigt Hill
#
# Bulk Modulus (GPa) = 37.33553 41.78145 39.55849
# Shear Modulus (GPa) = 62.67957 18.79885 40.73921
#
# Velocity S-wave (km/s) = 5.48822 3.00562 4.42461
# Velocity P-wave (km/s) = 7.62248 5.66771 6.71659
#
# Compressibility (1/GPa) = 0.02678414
#
# Stress axis : x y z
#
# Youngs Moduli (GPa) = 103.54288 56.52011 63.94907
#
# Poissons Ratio (x) = 0.08858 0.24775
# Poissons Ratio (y) = 0.16228 0.17014
# Poissons Ratio (z) = 0.40114 0.15038
#
# Static dielectric constant tensor:
#      x y z
#    x 1.794150 0.000000 0.000000 
#    y 0.000000 1.782910 0.000000 
#    z 0.000000 0.000000 1.793740 
# 
# From -- ./inp_files/13712.got.cif
#   From: 2010.05.17/outbox.cif.g08.bks.cpg/sg67_7_cif.got.tgz:13712.got - 2010.06.03 18:28:57.
