data_PCOD9503057
_publ_section_title
;
Structure prediction by ZEFSAII (Michael W. Deem and Ramdas Pophale) SiO2 
 PCOD9503057
Probable space group: C M M A
;
_chemical_formula_sum "Si O2"
_cell_formula_units_Z 120
_cell_length_a 20.847540
_cell_length_b 28.447707
_cell_length_c 11.274457
_cell_angle_alpha 90.000000
_cell_angle_beta 90.000000
_cell_angle_gamma 90.000000
_cell_volume 6686.482566
_symmetry_space_group_name_H-M "C M M A"
_symmetry_group_IT_number 67
_symmetry_cell_setting 'orthorhombic'
loop_
_space_group_symop_operation_xyz
x,y,z
-x,1/2-y,z
x,-y,-z
-x,1/2+y,-z
-x,-y,-z
x,1/2+y,-z
-x,y,z
x,1/2-y,z
1/2+x,1/2+y,z
1/2-x,-y,z
1/2+x,1/2-y,-z
1/2-x,y,-z
1/2-x,1/2-y,-z
1/2+x,y,-z
1/2-x,1/2+y,z
1/2+x,-y,z
loop_
_atom_site_type_symbol
_atom_site_label
_atom_site_fract_x
_atom_site_fract_y
_atom_site_fract_z
Si Si1 0.576614 0.303726 0.178254
Si Si2 0.355082 0.893022 0.744081
Si Si3 0.612003 0.064376 0.747578
Si Si4 0.674142 0.556596 0.502465
Si Si5 0.222624 0.384824 0.130088
Si Si6 0.621251 0.804530 0.092853
Si Si7 0.000000 0.139527 0.189033
Si Si8 0.924568 0.526306 0.123197
O O1 0.500000 0.309523 0.166502
O O2 0.588882 0.250000 0.217961
O O3 0.605590 0.344610 0.258888
O O4 0.607765 0.309761 0.048172
O O5 0.355068 0.920728 0.620508
O O6 0.282396 0.882434 0.781601
O O7 0.385826 0.926894 0.844887
O O8 0.635874 0.072668 0.614009
O O9 0.673996 0.074820 0.828551
O O10 0.555932 0.099605 0.784112
O O11 0.588600 0.011767 0.774212
O O12 0.670501 0.500000 0.500000
O O13 0.750000 0.568820 0.500000
O O14 0.181024 0.337200 0.127028
O O15 0.250000 0.393802 0.000000
O O16 0.633490 0.750000 0.117894
O O17 0.557054 0.822548 0.156140
O O18 0.000000 0.538198 0.116270
O O19 0.907815 0.500000 0.000000
#
# Coordination Sequence:
#
# PCOD9503057 Si02
#       8
#    16  16  16  16  16  16   8  16
#     4  10  21  38  62  92 125 164 204 252 318 382
#     4  12  23  40  62  89 122 168 212 261 316 372
#     4  11  22  41  59  89 125 167 211 259 306 369
#     4  11  23  43  63  84 121 168 218 259 303 366
#     4  11  22  35  58  92 131 159 200 253 322 387
#     4  10  20  35  62  94 128 164 204 255 319 392
#     4  10  21  36  62  88 124 162 205 257 314 366
#     4  11  24  38  59  91 130 168 201 248 321 383
#
# _framework density 17.946656000000001
#
# number of rings (size 3 to 8) (size 9 to 14) (size 15 to 20)
#    0.000    1.200    5.333    1.400    1.867    1.333 
#    2.400    2.333    0.000    4.400    0.000    0.000 
#    0.000    0.000    0.000    0.000    0.000    0.000 
#
# Total GULP energy -334007.349542 kJ/mol
# GULP energy per Si atom -5566.789159 kJ/mol
# Density = 1.790581 g / cm^3
# Si number density = 17.946656 Si / 1000 Ang^3
#
#
#
# Elastic Constant Matrix: (Units=GPa)
#
#
# Indices 1 2 3 4 5 6 
#
# 1 99.8943 43.5502 40.1754 0.0000 0.0000 0.0000
# 2 43.5502 96.7629 32.0507 0.0000 0.0000 0.0000
# 3 40.1754 32.0507 62.6368 0.0000 0.0000 0.0000
# 4 0.0000 0.0000 0.0000 19.2457 0.0000 0.0000
# 5 0.0000 0.0000 0.0000 0.0000 13.0492 0.0000
# 6 0.0000 0.0000 0.0000 0.0000 0.0000 19.3294
#
#
#
# Elastic Compliance Matrix: (Units=1/GPa)
#
#
# Indices 1 2 3 4 5 6 
#
# 1 0.014804 -0.004236 -0.007328 0.000000 0.000000 0.000000
# 2 -0.004236 0.013655 -0.004271 0.000000 0.000000 0.000000
# 3 -0.007328 -0.004271 0.022851 0.000000 0.000000 0.000000
# 4 0.000000 0.000000 0.000000 0.051960 0.000000 0.000000
# 5 0.000000 0.000000 0.000000 0.000000 0.076633 0.000000
# 6 0.000000 0.000000 0.000000 0.000000 0.000000 0.051735
#
#
# Mechanical properties :
#
#
# Convention : Reuss Voigt Hill
#
# Bulk Modulus (GPa) = 50.91267 54.53849 52.72558
# Shear Modulus (GPa) = 18.52853 19.89271 19.21062
#
# Velocity S-wave (km/s) = 3.21662 3.33293 3.27529
# Velocity P-wave (km/s) = 6.49815 6.72803 6.61409
#
# Compressibility (1/GPa) = 0.01964148
#
# Stress axis : x y z
#
# Youngs Moduli (GPa) = 67.54717 73.23081 43.76250
#
# Poissons Ratio (x) = 0.31019 0.32070
# Poissons Ratio (y) = 0.28611 0.18689
# Poissons Ratio (z) = 0.49500 0.31274
#
# Static dielectric constant tensor:
#      x y z
#    x 1.606240 0.000000 0.000000 
#    y 0.000000 1.608340 0.000000 
#    z 0.000000 0.000000 1.630410 
# 
# From -- ./inp_files/21156.got.cif
#   From: 2010.05.17/outbox.cif.g08.bks.cpg/sg67_11_cif.got.tgz:21156.got - 2010.06.03 18:28:57.
