data_PCOD9503080
_publ_section_title
;
Structure prediction by ZEFSAII (Michael W. Deem and Ramdas Pophale) SiO2 
 PCOD9503080
Probable space group: C M M A
;
_chemical_formula_sum "Si O2"
_cell_formula_units_Z 112
_cell_length_a 21.378915
_cell_length_b 14.808466
_cell_length_c 17.141136
_cell_angle_alpha 90.000000
_cell_angle_beta 90.000000
_cell_angle_gamma 90.000000
_cell_volume 5426.694006
_symmetry_space_group_name_H-M "C M M A"
_symmetry_group_IT_number 67
_symmetry_cell_setting 'orthorhombic'
loop_
_space_group_symop_operation_xyz
x,y,z
-x,1/2-y,z
x,-y,-z
-x,1/2+y,-z
-x,-y,-z
x,1/2+y,-z
-x,y,z
x,1/2-y,z
1/2+x,1/2+y,z
1/2-x,-y,z
1/2+x,1/2-y,-z
1/2-x,y,-z
1/2-x,1/2-y,-z
1/2+x,y,-z
1/2-x,1/2+y,z
1/2+x,-y,z
loop_
_atom_site_type_symbol
_atom_site_label
_atom_site_fract_x
_atom_site_fract_y
_atom_site_fract_z
Si Si1 0.769001 0.146319 0.618193
Si Si2 0.074815 0.652863 0.665107
Si Si3 0.348580 0.902318 0.474696
Si Si4 0.074705 0.017710 0.203508
Si Si5 0.926669 0.358906 0.051513
Si Si6 0.666448 0.141872 0.220414
Si Si7 0.692194 0.141088 0.049766
O O1 0.746174 0.250000 0.624148
O O2 0.711853 0.090348 0.582270
O O3 0.823244 0.144284 0.552758
O O4 0.795579 0.118464 0.701562
O O5 0.093859 0.750000 0.698430
O O6 0.100269 0.644856 0.578043
O O7 0.097737 0.574268 0.721444
O O8 0.000000 0.649016 0.664594
O O9 0.371260 0.000000 0.500000
O O10 0.105745 0.920131 0.210193
O O11 0.000000 0.009082 0.206753
O O12 0.087630 0.079248 0.127058
O O13 0.920948 0.250000 0.068108
O O14 0.875803 0.383969 0.985337
O O15 0.000000 0.373867 0.029495
O O16 0.653344 0.250000 0.223426
O O17 0.702452 0.120884 0.140350
O O18 0.692736 0.250000 0.044006
O O19 0.750000 0.105591 0.000000
#
# Coordination Sequence:
#
# PCOD9503080 Si02
#       7
#    16  16  16  16  16  16  16
#     4  10  20  36  56  79 110 147 189 231 273 331
#     4  10  21  38  60  86 117 152 190 234 286 340
#     4  11  21  35  58  85 112 143 183 231 282 335
#     4  10  21  37  58  85 116 150 192 242 290 340
#     4   9  18  35  60  86 113 151 198 243 288 345
#     4  10  22  39  58  82 114 152 192 236 290 350
#     4   9  19  37  59  85 119 154 189 238 298 353
#
# _framework density 20.638718000000001
#
# number of rings (size 3 to 8) (size 9 to 14) (size 15 to 20)
#    0.000    2.143    0.000    3.857    0.000    4.571 
#    0.000    9.286    0.000    0.857    0.000    0.000 
#    0.000    0.000    0.000    0.000    0.000    0.000 
#
# Total GULP energy -312529.433183 kJ/mol
# GULP energy per Si atom -5580.882735 kJ/mol
# Density = 2.059174 g / cm^3
# Si number density = 20.638718 Si / 1000 Ang^3
#
#
#
# Elastic Constant Matrix: (Units=GPa)
#
#
# Indices 1 2 3 4 5 6 
#
# 1 43.4020 12.9500 51.1726 0.0000 0.0000 0.0000
# 2 12.9500 66.6398 27.2875 0.0000 0.0000 0.0000
# 3 51.1726 27.2875 155.2416 0.0000 0.0000 0.0000
# 4 0.0000 0.0000 0.0000 4.8784 0.0000 0.0000
# 5 0.0000 0.0000 0.0000 0.0000 29.8175 0.0000
# 6 0.0000 0.0000 0.0000 0.0000 0.0000 -0.3615
#
#
#
# Elastic Compliance Matrix: (Units=1/GPa)
#
#
# Indices 1 2 3 4 5 6 
#
# 1 0.038050 -0.002434 -0.012115 0.000000 0.000000 0.000000
# 2 -0.002434 0.016326 -0.002067 0.000000 0.000000 0.000000
# 3 -0.012115 -0.002067 0.010798 0.000000 0.000000 0.000000
# 4 0.000000 0.000000 0.000000 0.204987 0.000000 0.000000
# 5 0.000000 0.000000 0.000000 0.000000 0.033537 0.000000
# 6 0.000000 0.000000 0.000000 0.000000 0.000000 -2.766528
#
#
# Mechanical properties :
#
#
# Convention : Reuss Voigt Hill
#
# Bulk Modulus (GPa) = 31.30606 49.78929 40.54767
# Shear Modulus (GPa) = -2.06701 18.45842 8.19571
#
# Velocity S-wave (km/s) = -1.00185 2.99383 1.99491
# Velocity P-wave (km/s) = 3.72334 6.01060 4.99953
#
# Compressibility (1/GPa) = 0.03194270
#
# Stress axis : x y z
#
# Youngs Moduli (GPa) = 26.28090 61.25377 92.60607
#
# Poissons Ratio (x) = 0.14906 1.12191
# Poissons Ratio (y) = 0.06396 0.19146
# Poissons Ratio (z) = 0.31839 0.12664
#
# Static dielectric constant tensor:
#      x y z
#    x 1.718740 0.000000 0.000000 
#    y 0.000000 1.754880 0.000000 
#    z 0.000000 0.000000 1.728970 
# 
# From -- ./inp_files/30149.got.cif
#   From: 2010.05.17/outbox.cif.g08.bks.cpg/sg67_16_cif.got.tgz:30149.got - 2010.06.03 18:28:57.
