data_PCOD9503986
_publ_section_title
;
Structure prediction by ZEFSAII (Michael W. Deem and Ramdas Pophale) SiO2 
 PCOD9503986
Probable space group: C M M A
;
_chemical_formula_sum "Si O2"
_cell_formula_units_Z 96
_cell_length_a 16.544583
_cell_length_b 15.325979
_cell_length_c 18.399604
_cell_angle_alpha 90.000000
_cell_angle_beta 90.000000
_cell_angle_gamma 90.000000
_cell_volume 4665.439131
_symmetry_space_group_name_H-M "C M M A"
_symmetry_group_IT_number 67
_symmetry_cell_setting 'orthorhombic'
loop_
_space_group_symop_operation_xyz
x,y,z
-x,1/2-y,z
x,-y,-z
-x,1/2+y,-z
-x,-y,-z
x,1/2+y,-z
-x,y,z
x,1/2-y,z
1/2+x,1/2+y,z
1/2-x,-y,z
1/2+x,1/2-y,-z
1/2-x,y,-z
1/2-x,1/2-y,-z
1/2+x,y,-z
1/2-x,1/2+y,z
1/2+x,-y,z
loop_
_atom_site_type_symbol
_atom_site_label
_atom_site_fract_x
_atom_site_fract_y
_atom_site_fract_z
Si Si1 0.665953 0.648044 0.037764
Si Si2 0.135627 0.651139 0.563519
Si Si3 0.673748 0.651147 0.601300
Si Si4 0.905851 0.154893 0.884978
Si Si5 0.097846 0.468975 0.165078
Si Si6 0.591798 0.006633 0.674985
O O1 0.672850 0.750000 0.058015
O O2 0.640415 0.591437 0.106093
O O3 0.750000 0.620767 0.000000
O O4 0.602552 0.641473 0.971591
O O5 0.107286 0.750000 0.578541
O O6 0.230768 0.647411 0.584528
O O7 0.130920 0.636395 0.476978
O O8 0.094862 0.576991 0.610827
O O9 0.654687 0.750000 0.625762
O O10 0.647275 0.575165 0.654855
O O11 0.868376 0.250000 0.868366
O O12 0.000000 0.159141 0.865833
O O13 0.873341 0.068698 0.847070
O O14 0.114845 0.448153 0.248979
O O15 0.000000 0.464260 0.153347
O O16 0.500000 0.974038 0.684034
#
# Coordination Sequence:
#
# PCOD9503986 Si02
#       6
#    16  16  16  16  16  16
#     4  10  21  38  58  82 110 140 184 240 285 329
#     4   9  19  38  61  83 112 156 207 250 293 347
#     4   9  19  38  62  84 112 157 206 248 293 348
#     4   9  18  35  58  79 102 140 187 229 274 334
#     4  10  22  38  56  81 116 156 188 223 287 358
#     4  11  23  36  54  87 125 157 193 240 296 355
#
# _framework density 20.576841999999999
#
# number of rings (size 3 to 8) (size 9 to 14) (size 15 to 20)
#    0.000    2.333    0.000    3.000    0.000    8.333 
#    6.000    5.000    0.000    0.000    0.000    0.000 
#    0.000    0.000    0.000    0.000    0.000    0.000 
#
# Total GULP energy -267961.304126 kJ/mol
# GULP energy per Si atom -5582.527169 kJ/mol
# Density = 2.053001 g / cm^3
# Si number density = 20.576842 Si / 1000 Ang^3
#
#
#
# Elastic Constant Matrix: (Units=GPa)
#
#
# Indices 1 2 3 4 5 6 
#
# 1 33.3954 22.8967 19.1281 0.0000 0.0000 0.0000
# 2 22.8967 74.8595 35.0831 0.0000 0.0000 0.0000
# 3 19.1281 35.0831 55.8046 0.0000 0.0000 0.0000
# 4 0.0000 0.0000 0.0000 -9.6087 0.0000 0.0000
# 5 0.0000 0.0000 0.0000 0.0000 26.2125 0.0000
# 6 0.0000 0.0000 0.0000 0.0000 0.0000 1.5065
#
#
#
# Elastic Compliance Matrix: (Units=1/GPa)
#
#
# Indices 1 2 3 4 5 6 
#
# 1 0.040649 -0.008369 -0.008672 0.000000 0.000000 0.000000
# 2 -0.008369 0.020661 -0.010121 0.000000 0.000000 0.000000
# 3 -0.008672 -0.010121 0.027255 0.000000 0.000000 0.000000
# 4 0.000000 0.000000 0.000000 -0.104073 0.000000 0.000000
# 5 0.000000 0.000000 0.000000 0.000000 0.038150 0.000000
# 6 0.000000 0.000000 0.000000 0.000000 0.000000 0.663784
#
#
# Mechanical properties :
#
#
# Convention : Reuss Voigt Hill
#
# Bulk Modulus (GPa) = 29.20371 35.36390 32.28381
# Shear Modulus (GPa) = 6.64750 9.41884 8.03317
#
# Velocity S-wave (km/s) = 1.79933 2.14181 1.97799
# Velocity P-wave (km/s) = 4.30582 4.83115 4.57603
#
# Compressibility (1/GPa) = 0.03424222
#
# Stress axis : x y z
#
# Youngs Moduli (GPa) = 24.60065 48.39998 36.69092
#
# Poissons Ratio (x) = 0.40506 0.31818
# Poissons Ratio (y) = 0.20588 0.37133
# Poissons Ratio (z) = 0.21333 0.48984
#
# Static dielectric constant tensor:
#      x y z
#    x 1.765990 0.000000 0.000000 
#    y 0.000000 1.735910 0.000000 
#    z 0.000000 0.000000 1.709140 
# 
# From -- ./inp_files/29296.got.cif
#   From: 2010.05.17/outbox.cif.g08.bks.cpg/sg67_15_cif.got.tgz:29296.got - 2010.06.03 18:28:57.
