data_PCOD9503019
_publ_section_title
;
Structure prediction by ZEFSAII (Michael W. Deem and Ramdas Pophale) SiO2 
 PCOD9503019
Probable space group: C M M A
;
_chemical_formula_sum "Si O2"
_cell_formula_units_Z 80
_cell_length_a 8.743096
_cell_length_b 29.100211
_cell_length_c 15.804051
_cell_angle_alpha 90.000000
_cell_angle_beta 90.000000
_cell_angle_gamma 90.000000
_cell_volume 4020.960506
_symmetry_space_group_name_H-M "C M M A"
_symmetry_group_IT_number 67
_symmetry_cell_setting 'orthorhombic'
loop_
_space_group_symop_operation_xyz
x,y,z
-x,1/2-y,z
x,-y,-z
-x,1/2+y,-z
-x,-y,-z
x,1/2+y,-z
-x,y,z
x,1/2-y,z
1/2+x,1/2+y,z
1/2-x,-y,z
1/2+x,1/2-y,-z
1/2-x,y,-z
1/2-x,1/2-y,-z
1/2+x,y,-z
1/2-x,1/2+y,z
1/2+x,-y,z
loop_
_atom_site_type_symbol
_atom_site_label
_atom_site_fract_x
_atom_site_fract_y
_atom_site_fract_z
Si Si1 0.818107 0.142727 0.913010
Si Si2 0.820159 0.804796 0.754210
Si Si3 0.317116 0.547299 0.660604
Si Si4 0.817112 0.951497 0.850126
Si Si5 0.182361 0.353147 0.590151
O O1 0.767616 0.172486 0.832524
O O2 0.748217 0.092047 0.899303
O O3 0.000000 0.139873 0.917631
O O4 0.750000 0.162150 0.000000
O O5 0.802547 0.750000 0.755089
O O6 0.756222 0.825349 0.667138
O O7 0.000000 0.816121 0.761797
O O8 0.500000 0.542994 0.671909
O O9 0.250000 0.500000 0.624061
O O10 0.240219 0.553306 0.752860
O O11 0.285466 0.592813 0.607004
O O12 0.000000 0.952183 0.852665
O O13 0.750000 0.000000 0.881310
O O14 0.250000 0.339326 0.500000
O O15 0.000000 0.346921 0.591337
#
# Coordination Sequence:
#
# PCOD9503019 Si02
#       5
#    16  16  16  16  16
#     4  12  25  43  67  97 131 169 214 261 317 379
#     4  11  25  46  71  97 126 163 209 264 327 387
#     4  10  20  35  58  90 126 170 215 260 311 372
#     4  11  21  36  61  92 129 172 215 261 312 372
#     4  11  24  41  65  95 130 170 216 264 319 380
#
# _framework density 19.895744000000001
#
# number of rings (size 3 to 8) (size 9 to 14) (size 15 to 20)
#    0.000    1.000    2.000    6.600    0.000    5.600 
#    0.000    4.000    0.000    0.000    0.000    0.000 
#    0.000    0.000    0.000    0.000    0.000    0.000 
#
# Total GULP energy -223860.719214 kJ/mol
# GULP energy per Si atom -5596.517980 kJ/mol
# Density = 1.985046 g / cm^3
# Si number density = 19.895744 Si / 1000 Ang^3
#
#
#
# Elastic Constant Matrix: (Units=GPa)
#
#
# Indices 1 2 3 4 5 6 
#
# 1 155.1331 58.7955 60.8166 0.0000 0.0000 0.0000
# 2 58.7955 61.8923 40.0602 0.0000 0.0000 0.0000
# 3 60.8166 40.0602 132.7558 0.0000 0.0000 0.0000
# 4 0.0000 0.0000 0.0000 -9.3246 0.0000 0.0000
# 5 0.0000 0.0000 0.0000 0.0000 32.2160 0.0000
# 6 0.0000 0.0000 0.0000 0.0000 0.0000 38.2328
#
#
#
# Elastic Compliance Matrix: (Units=1/GPa)
#
#
# Indices 1 2 3 4 5 6 
#
# 1 0.010590 -0.008600 -0.002256 0.000000 0.000000 0.000000
# 2 -0.008600 0.027062 -0.004227 0.000000 0.000000 0.000000
# 3 -0.002256 -0.004227 0.009842 0.000000 0.000000 0.000000
# 4 0.000000 0.000000 0.000000 -0.107243 0.000000 0.000000
# 5 0.000000 0.000000 0.000000 0.000000 0.031041 0.000000
# 6 0.000000 0.000000 0.000000 0.000000 0.000000 0.026156
#
#
# Mechanical properties :
#
#
# Convention : Reuss Voigt Hill
#
# Bulk Modulus (GPa) = 57.70825 74.34730 66.02777
# Shear Modulus (GPa) = 149.75380 24.89875 87.32628
#
# Velocity S-wave (km/s) = 8.68520 3.54144 6.63229
# Velocity P-wave (km/s) = 11.38618 7.36016 9.58690
#
# Compressibility (1/GPa) = 0.01732855
#
# Stress axis : x y z
#
# Youngs Moduli (GPa) = 94.42996 36.95201 101.60844
#
# Poissons Ratio (x) = 0.31777 0.22926
# Poissons Ratio (y) = 0.81206 0.42947
# Poissons Ratio (z) = 0.21306 0.15618
#
# Static dielectric constant tensor:
#      x y z
#    x 1.662420 0.000000 0.000000 
#    y 0.000000 1.697320 0.000000 
#    z 0.000000 0.000000 1.694820 
# 
# From -- ./inp_files/32287.got.cif
#   From: 2010.05.17/outbox.cif.g08.bks.cpg/sg67_17_cif.got.tgz:32287.got - 2010.06.03 18:28:57.
