data_PCOD9503944
_publ_section_title
;
Structure prediction by ZEFSAII (Michael W. Deem and Ramdas Pophale) SiO2 
 PCOD9503944
Probable space group: C M M A
;
_chemical_formula_sum "Si O2"
_cell_formula_units_Z 80
_cell_length_a 20.854713
_cell_length_b 32.079660
_cell_length_c 5.077347
_cell_angle_alpha 90.000000
_cell_angle_beta 90.000000
_cell_angle_gamma 90.000000
_cell_volume 3396.806591
_symmetry_space_group_name_H-M "C M M A"
_symmetry_group_IT_number 67
_symmetry_cell_setting 'orthorhombic'
loop_
_space_group_symop_operation_xyz
x,y,z
-x,1/2-y,z
x,-y,-z
-x,1/2+y,-z
-x,-y,-z
x,1/2+y,-z
-x,y,z
x,1/2-y,z
1/2+x,1/2+y,z
1/2-x,-y,z
1/2+x,1/2-y,-z
1/2-x,y,-z
1/2-x,1/2-y,-z
1/2+x,y,-z
1/2-x,1/2+y,z
1/2+x,-y,z
loop_
_atom_site_type_symbol
_atom_site_label
_atom_site_fract_x
_atom_site_fract_y
_atom_site_fract_z
Si Si1 0.686439 0.178243 0.325066
Si Si2 0.615401 0.296213 0.840061
Si Si3 0.069876 0.961641 0.200526
Si Si4 0.177067 0.414017 0.556560
Si Si5 0.931744 0.617020 0.827584
O O1 0.750000 0.185434 0.500000
O O2 0.633589 0.194432 0.535674
O O3 0.684002 0.128272 0.267937
O O4 0.674749 0.200343 0.046580
O O5 0.588180 0.250000 0.860822
O O6 0.573285 0.335749 0.924520
O O7 0.134598 0.953716 0.360394
O O8 0.000000 0.966207 0.334489
O O9 0.065879 0.917904 0.048608
O O10 0.076114 0.000000 0.000000
O O11 0.250000 0.426301 0.500000
O O12 0.132598 0.394604 0.327806
O O13 0.000000 0.613534 0.676170
#
# Coordination Sequence:
#
# PCOD9503944 Si02
#       5
#    16  16  16  16  16
#     4  10  21  37  60  90 131 177 221 269 336 407
#     4  11  22  37  59  92 129 171 225 279 334 402
#     4  10  21  40  67  96 125 167 223 277 338 415
#     4  10  21  39  64  94 131 173 220 277 345 414
#     4  10  22  41  63  88 127 174 220 278 345 415
#
# _framework density 23.551531000000001
#
# number of rings (size 3 to 8) (size 9 to 14) (size 15 to 20)
#    0.000    1.800    2.000    1.800    0.000    4.400 
#    0.000    6.000    0.000    2.400    0.000    0.000 
#    0.000    0.000    0.000    0.000    0.000    0.000 
#
# Total GULP energy -222908.825743 kJ/mol
# GULP energy per Si atom -5572.720644 kJ/mol
# Density = 2.349793 g / cm^3
# Si number density = 23.551531 Si / 1000 Ang^3
#
#
#
# Elastic Constant Matrix: (Units=GPa)
#
#
# Indices 1 2 3 4 5 6 
#
# 1 185.5507 55.3626 29.0669 0.0000 0.0000 0.0000
# 2 55.3626 187.3670 36.6926 0.0000 0.0000 0.0000
# 3 29.0669 36.6926 60.5274 0.0000 0.0000 0.0000
# 4 0.0000 0.0000 0.0000 36.4949 0.0000 0.0000
# 5 0.0000 0.0000 0.0000 0.0000 30.7937 0.0000
# 6 0.0000 0.0000 0.0000 0.0000 0.0000 93.0153
#
#
#
# Elastic Compliance Matrix: (Units=1/GPa)
#
#
# Indices 1 2 3 4 5 6 
#
# 1 0.006136 -0.001403 -0.002097 0.000000 0.000000 0.000000
# 2 -0.001403 0.006377 -0.003192 0.000000 0.000000 0.000000
# 3 -0.002097 -0.003192 0.019463 0.000000 0.000000 0.000000
# 4 0.000000 0.000000 0.000000 0.027401 0.000000 0.000000
# 5 0.000000 0.000000 0.000000 0.000000 0.032474 0.000000
# 6 0.000000 0.000000 0.000000 0.000000 0.000000 0.010751
#
#
# Mechanical properties :
#
#
# Convention : Reuss Voigt Hill
#
# Bulk Modulus (GPa) = 53.78108 75.07659 64.42883
# Shear Modulus (GPa) = 40.92231 52.88231 46.90231
#
# Velocity S-wave (km/s) = 4.17293 4.74369 4.46744
# Velocity P-wave (km/s) = 6.78991 7.87085 7.35028
#
# Compressibility (1/GPa) = 0.01859390
#
# Stress axis : x y z
#
# Youngs Moduli (GPa) = 162.96542 156.82207 51.37867
#
# Poissons Ratio (x) = 0.21995 0.10772
# Poissons Ratio (y) = 0.22857 0.16400
# Poissons Ratio (z) = 0.34167 0.50059
#
# Static dielectric constant tensor:
#      x y z
#    x 2.009750 0.000000 0.000000 
#    y 0.000000 1.905390 0.000000 
#    z 0.000000 0.000000 1.949910 
# 
# From -- ./inp_files/3555.got.cif
#   From: 2010.05.17/outbox.cif.g08.bks.cpg/sg67_2_cif.got.tgz:3555.got - 2010.06.03 18:28:57.
