data_PCOD9503053
_publ_section_title
;
Structure prediction by ZEFSAII (Michael W. Deem and Ramdas Pophale) SiO2 
 PCOD9503053
Probable space group: C M M A
;
_chemical_formula_sum "Si O2"
_cell_formula_units_Z 48
_cell_length_a 9.366949
_cell_length_b 24.753429
_cell_length_c 7.182153
_cell_angle_alpha 90.000000
_cell_angle_beta 90.000000
_cell_angle_gamma 90.000000
_cell_volume 1665.283492
_symmetry_space_group_name_H-M "C M M A"
_symmetry_group_IT_number 67
_symmetry_cell_setting 'orthorhombic'
loop_
_space_group_symop_operation_xyz
x,y,z
-x,1/2-y,z
x,-y,-z
-x,1/2+y,-z
-x,-y,-z
x,1/2+y,-z
-x,y,z
x,1/2-y,z
1/2+x,1/2+y,z
1/2-x,-y,z
1/2+x,1/2-y,-z
1/2-x,y,-z
1/2-x,1/2-y,-z
1/2+x,y,-z
1/2-x,1/2+y,z
1/2+x,-y,z
loop_
_atom_site_type_symbol
_atom_site_label
_atom_site_fract_x
_atom_site_fract_y
_atom_site_fract_z
Si Si1 0.748363 0.115070 0.231596
Si Si2 0.500000 0.539786 0.123923
Si Si3 0.500000 0.542302 0.621575
Si Si4 0.500000 0.688976 0.835358
Si Si5 0.500000 0.311362 0.610432
O O1 0.641700 0.078792 0.359906
O O2 0.637614 0.153447 0.120167
O O3 0.859572 0.156732 0.325593
O O4 0.852992 0.071735 0.136980
O O5 0.500000 0.526086 0.379807
O O6 0.500000 0.527165 0.876510
O O7 0.500000 0.750000 0.906459
O O8 0.500000 0.691848 0.611605
O O9 0.500000 0.250000 0.680312
#
# Coordination Sequence:
#
# PCOD9503053 Si02
#       5
#    16   8   8   8   8
#     4  10  23  38  61  96 134 187 224 282 336 421
#     4  11  26  46  65  91 131 186 243 281 337 404
#     4  11  26  40  63  99 135 180 221 289 341 404
#     4  10  20  35  61  99 143 182 220 280 357 419
#     4  10  20  35  61  97 143 186 220 272 349 425
#
# _framework density 28.823923000000001
#
# number of rings (size 3 to 8) (size 9 to 14) (size 15 to 20)
#    0.000    1.667    0.000    3.000   14.000    6.667 
#    0.000    3.333    0.000    0.000    0.000   81.667 
#    0.000    0.000    0.000    0.000    0.000    0.000 
#
# Total GULP energy -134539.329366 kJ/mol
# GULP energy per Si atom -5605.805390 kJ/mol
# Density = 2.875832 g / cm^3
# Si number density = 28.823923 Si / 1000 Ang^3
#
#
#
# Elastic Constant Matrix: (Units=GPa)
#
#
# Indices 1 2 3 4 5 6 
#
# 1 344.3989 175.0772 90.7373 0.0000 0.0000 0.0000
# 2 175.0772 301.1898 99.8127 0.0000 0.0000 0.0000
# 3 90.7373 99.8127 175.3904 0.0000 0.0000 0.0000
# 4 0.0000 0.0000 0.0000 40.9074 0.0000 0.0000
# 5 0.0000 0.0000 0.0000 0.0000 75.0216 0.0000
# 6 0.0000 0.0000 0.0000 0.0000 0.0000 -40.7854
#
#
#
# Elastic Compliance Matrix: (Units=1/GPa)
#
#
# Indices 1 2 3 4 5 6 
#
# 1 0.004253 -0.002148 -0.000978 0.000000 0.000000 0.000000
# 2 -0.002148 0.005177 -0.001835 0.000000 0.000000 0.000000
# 3 -0.000978 -0.001835 0.007252 0.000000 0.000000 0.000000
# 4 0.000000 0.000000 0.000000 0.024445 0.000000 0.000000
# 5 0.000000 0.000000 0.000000 0.000000 0.013329 0.000000
# 6 0.000000 0.000000 0.000000 0.000000 0.000000 -0.024519
#
#
# Mechanical properties :
#
#
# Convention : Reuss Voigt Hill
#
# Bulk Modulus (GPa) = 147.92764 172.47038 160.19901
# Shear Modulus (GPa) = 118.72662 45.38552 82.05607
#
# Velocity S-wave (km/s) = 6.42493 3.97240 5.34133
# Velocity P-wave (km/s) = 10.31854 9.00032 9.68189
#
# Compressibility (1/GPa) = 0.00676006
#
# Stress axis : x y z
#
# Youngs Moduli (GPa) = 235.10739 193.16215 137.90120
#
# Poissons Ratio (x) = 0.41498 0.13485
# Poissons Ratio (y) = 0.50510 0.25301
# Poissons Ratio (z) = 0.22990 0.35440
#
# Static dielectric constant tensor:
#      x y z
#    x 1.979810 0.000000 0.000000 
#    y 0.000000 2.096120 0.000000 
#    z 0.000000 0.000000 3.510660 
# 
# From -- ./inp_files/63.got.cif
#   From: 2010.05.17/outbox.cif.g08.bks.cpg/sg67_1_cif.got.tgz:63.got - 2010.06.03 18:28:57.
