data_PCOD9503292
_publ_section_title
;
Structure prediction by ZEFSAII (Michael W. Deem and Ramdas Pophale) SiO2 
 PCOD9503292
Probable space group: C M M A
;
_chemical_formula_sum "Si O2"
_cell_formula_units_Z 96
_cell_length_a 14.992915
_cell_length_b 16.465587
_cell_length_c 18.999850
_cell_angle_alpha 90.000000
_cell_angle_beta 90.000000
_cell_angle_gamma 90.000000
_cell_volume 4690.438750
_symmetry_space_group_name_H-M "C M M A"
_symmetry_group_IT_number 67
_symmetry_cell_setting 'orthorhombic'
loop_
_space_group_symop_operation_xyz
x,y,z
-x,1/2-y,z
x,-y,-z
-x,1/2+y,-z
-x,-y,-z
x,1/2+y,-z
-x,y,z
x,1/2-y,z
1/2+x,1/2+y,z
1/2-x,-y,z
1/2+x,1/2-y,-z
1/2-x,y,-z
1/2-x,1/2-y,-z
1/2+x,y,-z
1/2-x,1/2+y,z
1/2+x,-y,z
loop_
_atom_site_type_symbol
_atom_site_label
_atom_site_fract_x
_atom_site_fract_y
_atom_site_fract_z
Si Si1 0.870054 0.656152 0.153223
Si Si2 0.500000 0.027038 0.081548
Si Si3 0.729394 0.841079 0.418435
Si Si4 0.500000 0.162440 0.878014
Si Si5 0.816867 0.661034 0.796036
Si Si6 0.599158 0.370276 0.320367
Si Si7 0.102669 0.936543 0.673847
O O1 0.889883 0.750000 0.130789
O O2 0.919395 0.585448 0.109369
O O3 0.764002 0.642193 0.152030
O O4 0.891322 0.651207 0.237259
O O5 0.500000 0.935362 0.109879
O O6 0.500000 0.000000 0.000000
O O7 0.692500 0.750000 0.411016
O O8 0.750000 0.855086 0.500000
O O9 0.818840 0.844551 0.370055
O O10 0.654346 0.903610 0.393559
O O11 0.500000 0.250000 0.922540
O O12 0.408757 0.168803 0.836106
O O13 0.795713 0.750000 0.763978
O O14 0.835011 0.595667 0.736704
O O15 0.500000 0.342704 0.343275
O O16 0.599947 0.467441 0.323652
O O17 0.000000 0.906420 0.680061
#
# Coordination Sequence:
#
# PCOD9503292 Si02
#       7
#    16   8  16   8  16  16  16
#     4  11  23  41  69 103 135 175 230 288 344 411
#     4  12  27  45  68  99 136 179 218 271 348 419
#     4  11  25  42  59  85 128 182 234 287 357 430
#     4  10  22  41  64  95 133 171 213 266 328 403
#     4  10  20  36  64  98 129 167 217 276 336 399
#     4  11  23  38  63  95 128 171 226 293 351 412
#     4  11  22  36  60  94 130 169 219 289 351 419
#
# _framework density 20.467169999999999
#
# number of rings (size 3 to 8) (size 9 to 14) (size 15 to 20)
#    0.000    1.167    3.333    2.750    0.000    6.667 
#    0.000    5.000    0.000    3.000    0.000    0.000 
#    0.000    0.000    0.000    0.000    0.000    0.000 
#
# Total GULP energy -267452.900224 kJ/mol
# GULP energy per Si atom -5571.935421 kJ/mol
# Density = 2.042059 g / cm^3
# Si number density = 20.467170 Si / 1000 Ang^3
#
#
#
# Elastic Constant Matrix: (Units=GPa)
#
#
# Indices 1 2 3 4 5 6 
#
# 1 123.8339 40.2510 36.2058 0.0000 0.0000 0.0000
# 2 40.2510 168.3633 48.8186 0.0000 0.0000 0.0000
# 3 36.2058 48.8186 82.6389 0.0000 0.0000 0.0000
# 4 0.0000 0.0000 0.0000 25.7962 0.0000 0.0000
# 5 0.0000 0.0000 0.0000 0.0000 12.7959 0.0000
# 6 0.0000 0.0000 0.0000 0.0000 0.0000 -10.4390
#
#
#
# Elastic Compliance Matrix: (Units=1/GPa)
#
#
# Indices 1 2 3 4 5 6 
#
# 1 0.009486 -0.001282 -0.003398 0.000000 0.000000 0.000000
# 2 -0.001282 0.007341 -0.003775 0.000000 0.000000 0.000000
# 3 -0.003398 -0.003775 0.015820 0.000000 0.000000 0.000000
# 4 0.000000 0.000000 0.000000 0.038765 0.000000 0.000000
# 5 0.000000 0.000000 0.000000 0.000000 0.078150 0.000000
# 6 0.000000 0.000000 0.000000 0.000000 0.000000 -0.095795
#
#
# Mechanical properties :
#
#
# Convention : Reuss Voigt Hill
#
# Bulk Modulus (GPa) = 63.55154 69.48742 66.51948
# Shear Modulus (GPa) = 65.85688 22.26800 44.06244
#
# Velocity S-wave (km/s) = 5.67862 3.30204 4.64490
# Velocity P-wave (km/s) = 8.60892 6.96867 7.83185
#
# Compressibility (1/GPa) = 0.01573526
#
# Stress axis : x y z
#
# Youngs Moduli (GPa) = 105.42128 136.22859 63.21303
#
# Poissons Ratio (x) = 0.17470 0.21482
# Poissons Ratio (y) = 0.13519 0.23860
# Poissons Ratio (z) = 0.35826 0.51421
#
# Static dielectric constant tensor:
#      x y z
#    x 1.762240 0.000000 0.000000 
#    y 0.000000 8.677680 0.000000 
#    z 0.000000 0.000000 1.833220 
# 
# From -- ./inp_files/38553.got.cif
#   From: 2010.05.17/outbox.cif.g08.bks.cpg/sg67_20_cif.got.tgz:38553.got - 2010.06.03 18:28:57.
