data_PCOD9503677
_publ_section_title
;
Structure prediction by ZEFSAII (Michael W. Deem and Ramdas Pophale) SiO2 
 PCOD9503677
Probable space group: C M M A
;
_chemical_formula_sum "Si O2"
_cell_formula_units_Z 64
_cell_length_a 25.217722
_cell_length_b 14.331285
_cell_length_c 9.971928
_cell_angle_alpha 90.000000
_cell_angle_beta 90.000000
_cell_angle_gamma 90.000000
_cell_volume 3603.878323
_symmetry_space_group_name_H-M "C M M A"
_symmetry_group_IT_number 67
_symmetry_cell_setting 'orthorhombic'
loop_
_space_group_symop_operation_xyz
x,y,z
-x,1/2-y,z
x,-y,-z
-x,1/2+y,-z
-x,-y,-z
x,1/2+y,-z
-x,y,z
x,1/2-y,z
1/2+x,1/2+y,z
1/2-x,-y,z
1/2+x,1/2-y,-z
1/2-x,y,-z
1/2-x,1/2-y,-z
1/2+x,y,-z
1/2-x,1/2+y,z
1/2+x,-y,z
loop_
_atom_site_type_symbol
_atom_site_label
_atom_site_fract_x
_atom_site_fract_y
_atom_site_fract_z
Si Si1 0.755882 0.389887 0.160487
Si Si2 0.000000 0.598500 0.428911
Si Si3 0.153676 0.250000 0.250325
Si Si4 0.169173 0.250000 0.769968
Si Si5 0.086557 0.750000 0.000896
Si Si6 0.500000 0.851952 0.858855
Si Si7 0.910389 0.250000 0.524183
O O1 0.750000 0.500000 0.181080
O O2 0.809159 0.339480 0.214234
O O3 0.707484 0.338593 0.233855
O O4 0.750000 0.371968 0.000000
O O5 0.000000 0.500000 0.500000
O O6 0.000000 0.581257 0.266685
O O7 0.948725 0.659740 0.470459
O O8 0.129719 0.250000 0.398736
O O9 0.103360 0.250000 0.151242
O O10 0.139115 0.250000 0.911367
O O11 0.125060 0.250000 0.657294
O O12 0.051171 0.839407 0.046867
O O13 0.500000 0.750000 0.784473
#
# Coordination Sequence:
#
# PCOD9503677 Si02
#       7
#    16   8   8   8   8   8   8
#     4  10  21  35  56  86 114 144 192 239 277 329
#     4  11  21  38  59  83 117 147 184 229 288 340
#     4  11  21  37  55  89 113 149 184 239 288 320
#     4  11  17  37  65  72 109 159 185 224 275 343
#     4   9  15  33  63  77 104 148 196 219 271 335
#     4   8  16  33  59  83 101 146 192 222 262 342
#     4  11  23  39  57  86 116 146 188 231 282 341
#
# _framework density 17.758645000000001
#
# number of rings (size 3 to 8) (size 9 to 14) (size 15 to 20)
#    0.750    1.000    6.250    0.750    0.000    6.000 
#    0.000    1.250    0.000    1.500    0.000    0.000 
#    0.000    0.000    0.000    0.000    0.000    0.000 
#
# Total GULP energy -178168.539779 kJ/mol
# GULP energy per Si atom -5567.766868 kJ/mol
# Density = 1.771823 g / cm^3
# Si number density = 17.758645 Si / 1000 Ang^3
#
#
#
# Elastic Constant Matrix: (Units=GPa)
#
#
# Indices 1 2 3 4 5 6 
#
# 1 93.5104 49.7322 13.4882 0.0000 0.0000 0.0000
# 2 49.7322 120.1247 27.1892 0.0000 0.0000 0.0000
# 3 13.4882 27.1892 42.7539 0.0000 0.0000 0.0000
# 4 0.0000 0.0000 0.0000 -1.9511 0.0000 0.0000
# 5 0.0000 0.0000 0.0000 0.0000 38.2042 0.0000
# 6 0.0000 0.0000 0.0000 0.0000 0.0000 4.7788
#
#
#
# Elastic Compliance Matrix: (Units=1/GPa)
#
#
# Indices 1 2 3 4 5 6 
#
# 1 0.013739 -0.005498 -0.000838 0.000000 0.000000 0.000000
# 2 -0.005498 0.011925 -0.005849 0.000000 0.000000 0.000000
# 3 -0.000838 -0.005849 0.027374 0.000000 0.000000 0.000000
# 4 0.000000 0.000000 0.000000 -0.512522 0.000000 0.000000
# 5 0.000000 0.000000 0.000000 0.000000 0.026175 0.000000
# 6 0.000000 0.000000 0.000000 0.000000 0.000000 0.209260
#
#
# Mechanical properties :
#
#
# Convention : Reuss Voigt Hill
#
# Bulk Modulus (GPa) = 34.88288 48.57868 41.73078
# Shear Modulus (GPa) = -26.29871 19.27166 -3.51353
#
# Velocity S-wave (km/s) = -3.85242 3.29781 -1.40811
# Velocity P-wave (km/s) = 0.32054 6.47418 4.57232
#
# Compressibility (1/GPa) = 0.02866736
#
# Stress axis : x y z
#
# Youngs Moduli (GPa) = 72.78500 83.85803 36.53151
#
# Poissons Ratio (x) = 0.46109 0.03060
# Poissons Ratio (y) = 0.40020 0.21367
# Poissons Ratio (z) = 0.06098 0.49048
#
# Static dielectric constant tensor:
#      x y z
#    x 1.620250 0.000000 0.000000 
#    y 0.000000 1.610810 0.000000 
#    z 0.000000 0.000000 1.596700 
# 
# From -- ./inp_files/12132.got.cif
#   From: 2010.05.17/outbox.cif.g08.bks.cpg/sg67_7_cif.got.tgz:12132.got - 2010.06.03 18:28:57.
