data_PCOD9503601
_publ_section_title
;
Structure prediction by ZEFSAII (Michael W. Deem and Ramdas Pophale) SiO2 
 PCOD9503601
Probable space group: C M M A
;
_chemical_formula_sum "Si O2"
_cell_formula_units_Z 96
_cell_length_a 17.956203
_cell_length_b 24.219305
_cell_length_c 11.137522
_cell_angle_alpha 90.000000
_cell_angle_beta 90.000000
_cell_angle_gamma 90.000000
_cell_volume 4843.560825
_symmetry_space_group_name_H-M "C M M A"
_symmetry_group_IT_number 67
_symmetry_cell_setting 'orthorhombic'
loop_
_space_group_symop_operation_xyz
x,y,z
-x,1/2-y,z
x,-y,-z
-x,1/2+y,-z
-x,-y,-z
x,1/2+y,-z
-x,y,z
x,1/2-y,z
1/2+x,1/2+y,z
1/2-x,-y,z
1/2+x,1/2-y,-z
1/2-x,y,-z
1/2-x,1/2-y,-z
1/2+x,y,-z
1/2-x,1/2+y,z
1/2+x,-y,z
loop_
_atom_site_type_symbol
_atom_site_label
_atom_site_fract_x
_atom_site_fract_y
_atom_site_fract_z
Si Si1 0.000000 0.049396 0.334660
Si Si2 0.412630 0.315911 0.755796
Si Si3 0.154682 0.466805 0.224359
Si Si4 0.280367 0.622770 0.368120
Si Si5 0.860738 0.902021 0.231863
Si Si6 0.166257 0.623057 0.970571
Si Si7 0.000000 0.080830 0.603032
O O1 0.928536 0.053731 0.251396
O O2 0.000000 0.084368 0.458294
O O3 0.000000 0.984931 0.373716
O O4 0.500000 0.331503 0.740509
O O5 0.409152 0.250000 0.750074
O O6 0.353158 0.341365 0.661497
O O7 0.379665 0.337769 0.881946
O O8 0.197334 0.440389 0.337723
O O9 0.157921 0.532360 0.222044
O O10 0.177376 0.434707 0.103303
O O11 0.250000 0.629855 0.500000
O O12 0.210986 0.631542 0.278424
O O13 0.927106 0.896570 0.328316
O O14 0.876630 0.884864 0.095597
O O15 0.250000 0.642983 0.000000
#
# Coordination Sequence:
#
# PCOD9503601 Si02
#       7
#     8  16  16  16  16  16   8
#     4   9  18  35  49  81 109 175 220 261 288 349
#     4  10  24  47  72  95 121 159 208 271 343 407
#     4  10  21  33  59  83 132 174 220 249 301 369
#     4  11  23  38  62  95 123 164 214 263 313 375
#     4  11  21  37  52  92 129 179 208 258 307 366
#     4  11  22  38  59  90 122 161 210 263 312 370
#     4   9  20  33  53  73 127 163 222 255 304 351
#
# _framework density 19.820129999999999
#
# number of rings (size 3 to 8) (size 9 to 14) (size 15 to 20)
#    0.000    1.667    3.333    2.000    5.833    4.000 
#    1.500    2.500    0.000    0.000    0.000    0.000 
#    0.000    0.000    0.000    0.000    0.000    0.000 
#
# Total GULP energy -267761.983994 kJ/mol
# GULP energy per Si atom -5578.374667 kJ/mol
# Density = 1.977502 g / cm^3
# Si number density = 19.820130 Si / 1000 Ang^3
#
#
#
# Elastic Constant Matrix: (Units=GPa)
#
#
# Indices 1 2 3 4 5 6 
#
# 1 143.8553 23.8857 54.7621 0.0000 0.0000 0.0000
# 2 23.8857 37.3224 22.2360 0.0000 0.0000 0.0000
# 3 54.7621 22.2360 137.8847 0.0000 0.0000 0.0000
# 4 0.0000 0.0000 0.0000 14.4971 0.0000 0.0000
# 5 0.0000 0.0000 0.0000 0.0000 33.2449 0.0000
# 6 0.0000 0.0000 0.0000 0.0000 0.0000 28.2346
#
#
#
# Elastic Compliance Matrix: (Units=1/GPa)
#
#
# Indices 1 2 3 4 5 6 
#
# 1 0.008666 -0.003867 -0.002818 0.000000 0.000000 0.000000
# 2 -0.003867 0.031367 -0.003523 0.000000 0.000000 0.000000
# 3 -0.002818 -0.003523 0.008940 0.000000 0.000000 0.000000
# 4 0.000000 0.000000 0.000000 0.068979 0.000000 0.000000
# 5 0.000000 0.000000 0.000000 0.000000 0.030080 0.000000
# 6 0.000000 0.000000 0.000000 0.000000 0.000000 0.035418
#
#
# Mechanical properties :
#
#
# Convention : Reuss Voigt Hill
#
# Bulk Modulus (GPa) = 35.01733 57.87000 46.44366
# Shear Modulus (GPa) = 23.43179 29.74056 26.58617
#
# Velocity S-wave (km/s) = 3.44208 3.87786 3.66645
# Velocity P-wave (km/s) = 5.78819 7.02221 6.43485
#
# Compressibility (1/GPa) = 0.02855729
#
# Stress axis : x y z
#
# Youngs Moduli (GPa) = 115.38820 31.88040 111.85925
#
# Poissons Ratio (x) = 0.12329 0.31525
# Poissons Ratio (y) = 0.44624 0.39403
# Poissons Ratio (z) = 0.32520 0.11230
#
# Static dielectric constant tensor:
#      x y z
#    x 1.764140 0.000000 0.000000 
#    y 0.000000 1.709750 0.000000 
#    z 0.000000 0.000000 1.705500 
# 
# From -- ./inp_files/19871.got.cif
#   From: 2010.05.17/outbox.cif.g08.bks.cpg/sg67_10_cif.got.tgz:19871.got - 2010.06.03 18:28:57.
