data_PCOD9503548
_publ_section_title
;
Structure prediction by ZEFSAII (Michael W. Deem and Ramdas Pophale) SiO2 
 PCOD9503548
Probable space group: C M M A
;
_chemical_formula_sum "Si O2"
_cell_formula_units_Z 60
_cell_length_a 23.001789
_cell_length_b 19.294750
_cell_length_c 6.473247
_cell_angle_alpha 90.000000
_cell_angle_beta 90.000000
_cell_angle_gamma 90.000000
_cell_volume 2872.916144
_symmetry_space_group_name_H-M "C M M A"
_symmetry_group_IT_number 67
_symmetry_cell_setting 'orthorhombic'
loop_
_space_group_symop_operation_xyz
x,y,z
-x,1/2-y,z
x,-y,-z
-x,1/2+y,-z
-x,-y,-z
x,1/2+y,-z
-x,y,z
x,1/2-y,z
1/2+x,1/2+y,z
1/2-x,-y,z
1/2+x,1/2-y,-z
1/2-x,y,-z
1/2-x,1/2-y,-z
1/2+x,y,-z
1/2-x,1/2+y,z
1/2+x,-y,z
loop_
_atom_site_type_symbol
_atom_site_label
_atom_site_fract_x
_atom_site_fract_y
_atom_site_fract_z
Si Si1 0.750000 0.000000 0.500000
Si Si2 0.187617 0.250000 0.379656
Si Si3 0.901766 0.000000 0.000000
Si Si4 0.161148 0.400467 0.285538
Si Si5 0.436525 0.902485 0.642911
Si Si6 0.566483 0.250000 0.356942
O O1 0.787822 0.949880 0.640043
O O2 0.250000 0.250000 0.500000
O O3 0.182733 0.322166 0.258223
O O4 0.126720 0.250000 0.511969
O O5 0.933169 0.035230 0.805625
O O6 0.864881 0.935882 0.914849
O O7 0.113268 0.404523 0.470112
O O8 0.500000 0.905722 0.540840
O O9 0.432207 0.825771 0.749055
O O10 0.500000 0.250000 0.456659
#
# Coordination Sequence:
#
# PCOD9503548 Si02
#       6
#     4   8   8  16  16   8
#     4  12  20  44  62  84 130 162 196 252 312 370
#     4  10  20  39  68  90 121 168 214 258 308 371
#     4  12  23  37  60  96 122 161 203 258 316 376
#     4  11  24  41  64  91 125 166 206 255 317 368
#     4  10  21  40  62  89 123 162 208 257 312 374
#     4   8  18  37  60  83 119 164 205 253 312 369
#
# _framework density 20.884702000000001
#
# number of rings (size 3 to 8) (size 9 to 14) (size 15 to 20)
#    0.000    1.600    4.000    0.400    0.000    4.800 
#    0.000    0.000    0.000    9.600    0.000    0.000 
#    0.000    0.000    0.000    0.000    0.000    0.000 
#
# Total GULP energy -167060.935290 kJ/mol
# GULP energy per Si atom -5568.697843 kJ/mol
# Density = 2.083717 g / cm^3
# Si number density = 20.884702 Si / 1000 Ang^3
#
#
#
# Elastic Constant Matrix: (Units=GPa)
#
#
# Indices 1 2 3 4 5 6 
#
# 1 119.1903 45.6429 16.7581 0.0000 0.0000 0.0000
# 2 45.6429 198.1201 27.1009 0.0000 0.0000 0.0000
# 3 16.7581 27.1009 29.5799 0.0000 0.0000 0.0000
# 4 0.0000 0.0000 0.0000 113.5185 0.0000 0.0000
# 5 0.0000 0.0000 0.0000 0.0000 46.4878 0.0000
# 6 0.0000 0.0000 0.0000 0.0000 0.0000 34.7875
#
#
#
# Elastic Compliance Matrix: (Units=1/GPa)
#
#
# Indices 1 2 3 4 5 6 
#
# 1 0.009578 -0.001674 -0.003893 0.000000 0.000000 0.000000
# 2 -0.001674 0.006063 -0.004607 0.000000 0.000000 0.000000
# 3 -0.003893 -0.004607 0.040233 0.000000 0.000000 0.000000
# 4 0.000000 0.000000 0.000000 0.008809 0.000000 0.000000
# 5 0.000000 0.000000 0.000000 0.000000 0.021511 0.000000
# 6 0.000000 0.000000 0.000000 0.000000 0.000000 0.028746
#
#
# Mechanical properties :
#
#
# Convention : Reuss Voigt Hill
#
# Bulk Modulus (GPa) = 28.14734 58.43268 43.29001
# Shear Modulus (GPa) = 33.98364 56.11798 45.05081
#
# Velocity S-wave (km/s) = 4.03824 5.18929 4.64952
# Velocity P-wave (km/s) = 5.93716 7.99652 7.04252
#
# Compressibility (1/GPa) = 0.03552734
#
# Stress axis : x y z
#
# Youngs Moduli (GPa) = 104.40204 164.92707 24.85550
#
# Poissons Ratio (x) = 0.27612 0.09675
# Poissons Ratio (y) = 0.17479 0.11450
# Poissons Ratio (z) = 0.40639 0.75976
#
# Static dielectric constant tensor:
#      x y z
#    x 1.811030 0.000000 0.000000 
#    y 0.000000 1.709800 0.000000 
#    z 0.000000 0.000000 1.404020 
# 
# From -- ./inp_files/12190.got.cif
#   From: 2010.05.17/outbox.cif.g08.bks.cpg/sg67_7_cif.got.tgz:12190.got - 2010.06.03 18:28:57.
