data_PCOD9503964
_publ_section_title
;
Structure prediction by ZEFSAII (Michael W. Deem and Ramdas Pophale) SiO2 
 PCOD9503964
Probable space group: C M M A
;
_chemical_formula_sum "Si O2"
_cell_formula_units_Z 112
_cell_length_a 21.853088
_cell_length_b 23.267685
_cell_length_c 10.474171
_cell_angle_alpha 90.000000
_cell_angle_beta 90.000000
_cell_angle_gamma 90.000000
_cell_volume 5325.809771
_symmetry_space_group_name_H-M "C M M A"
_symmetry_group_IT_number 67
_symmetry_cell_setting 'orthorhombic'
loop_
_space_group_symop_operation_xyz
x,y,z
-x,1/2-y,z
x,-y,-z
-x,1/2+y,-z
-x,-y,-z
x,1/2+y,-z
-x,y,z
x,1/2-y,z
1/2+x,1/2+y,z
1/2-x,-y,z
1/2+x,1/2-y,-z
1/2-x,y,-z
1/2-x,1/2-y,-z
1/2+x,y,-z
1/2-x,1/2+y,z
1/2+x,-y,z
loop_
_atom_site_type_symbol
_atom_site_label
_atom_site_fract_x
_atom_site_fract_y
_atom_site_fract_z
Si Si1 0.067540 0.550503 0.258254
Si Si2 0.568693 0.813721 0.471676
Si Si3 0.765437 0.437137 0.351370
Si Si4 0.068257 0.899077 0.988181
Si Si5 0.407457 0.924674 0.300698
Si Si6 0.180373 0.814606 0.035928
Si Si7 0.338597 0.849801 0.683354
O O1 0.073542 0.490131 0.330730
O O2 0.118232 0.594323 0.303569
O O3 0.000000 0.573010 0.285603
O O4 0.074482 0.554250 0.102935
O O5 0.500000 0.814787 0.532588
O O6 0.573132 0.750000 0.408851
O O7 0.570563 0.869329 0.379621
O O8 0.626503 0.818288 0.568124
O O9 0.750000 0.500000 0.290734
O O10 0.750000 0.443866 0.500000
O O11 0.834881 0.424905 0.317951
O O12 0.727166 0.379986 0.322955
O O13 0.070559 0.921594 0.844978
O O14 0.000000 0.872789 0.008381
O O15 0.126072 0.856363 0.991683
O O16 0.174407 0.750000 0.983486
O O17 0.167296 0.813825 0.187672
O O18 0.250000 0.834044 0.000000
#
# Coordination Sequence:
#
# PCOD9503964 Si02
#       7
#    16  16  16  16  16  16  16
#     4  10  21  37  62  94 125 161 208 262 325 390
#     4  11  25  42  61  90 127 170 217 263 316 384
#     4  11  22  39  60  92 128 162 203 256 314 387
#     4  10  22  39  62  95 132 169 217 276 334 393
#     4  12  22  40  64  90 129 172 208 263 329 388
#     4  10  22  41  65  91 124 170 224 274 323 391
#     4  11  21  41  63  90 125 162 208 264 324 379
#
# _framework density 21.029665999999999
#
# number of rings (size 3 to 8) (size 9 to 14) (size 15 to 20)
#    0.000    1.286    2.857    3.429    0.000    3.143 
#    0.000    3.571    0.000    0.000    0.000    0.000 
#    0.000    0.000    0.000    0.000    0.000    0.000 
#
# Total GULP energy -311770.645707 kJ/mol
# GULP energy per Si atom -5567.332959 kJ/mol
# Density = 2.098180 g / cm^3
# Si number density = 21.029666 Si / 1000 Ang^3
#
#
#
# Elastic Constant Matrix: (Units=GPa)
#
#
# Indices 1 2 3 4 5 6 
#
# 1 155.3328 41.8271 -0.0619 0.0000 0.0000 0.0000
# 2 41.8271 114.7103 26.1639 0.0000 0.0000 0.0000
# 3 -0.0619 26.1639 41.8111 0.0000 0.0000 0.0000
# 4 0.0000 0.0000 0.0000 5.0942 0.0000 0.0000
# 5 0.0000 0.0000 0.0000 0.0000 -10.9652 0.0000
# 6 0.0000 0.0000 0.0000 0.0000 0.0000 16.9643
#
#
#
# Elastic Compliance Matrix: (Units=1/GPa)
#
#
# Indices 1 2 3 4 5 6 
#
# 1 0.007272 -0.003096 0.001948 0.000000 0.000000 0.000000
# 2 -0.003096 0.011487 -0.007193 0.000000 0.000000 0.000000
# 3 0.001948 -0.007193 0.028421 0.000000 0.000000 0.000000
# 4 0.000000 0.000000 0.000000 0.196300 0.000000 0.000000
# 5 0.000000 0.000000 0.000000 0.000000 -0.091198 0.000000
# 6 0.000000 0.000000 0.000000 0.000000 0.000000 0.058947
#
#
# Mechanical properties :
#
#
# Convention : Reuss Voigt Hill
#
# Bulk Modulus (GPa) = 32.78802 49.74583 41.26692
# Shear Modulus (GPa) = 21.00155 18.48035 19.74095
#
# Velocity S-wave (km/s) = 3.16359 2.96763 3.06718
# Velocity P-wave (km/s) = 5.38234 5.95389 5.67532
#
# Compressibility (1/GPa) = 0.03049895
#
# Stress axis : x y z
#
# Youngs Moduli (GPa) = 137.50899 87.05410 35.18529
#
# Poissons Ratio (x) = 0.26952 -0.06855
# Poissons Ratio (y) = 0.42573 0.25308
# Poissons Ratio (z) = -0.26789 0.62616
#
# Static dielectric constant tensor:
#      x y z
#    x 1.655290 0.000000 0.000000 
#    y 0.000000 1.838410 0.000000 
#    z 0.000000 0.000000 1.779140 
# 
# From -- ./inp_files/21067.got.cif
#   From: 2010.05.17/outbox.cif.g08.bks.cpg/sg67_11_cif.got.tgz:21067.got - 2010.06.03 18:28:57.
