data_PCOD9503945
_publ_section_title
;
Structure prediction by ZEFSAII (Michael W. Deem and Ramdas Pophale) SiO2 
 PCOD9503945
Probable space group: C M M A
;
_chemical_formula_sum "Si O2"
_cell_formula_units_Z 116
_cell_length_a 15.795857
_cell_length_b 28.229087
_cell_length_c 12.255933
_cell_angle_alpha 90.000000
_cell_angle_beta 90.000000
_cell_angle_gamma 90.000000
_cell_volume 5464.952654
_symmetry_space_group_name_H-M "C M M A"
_symmetry_group_IT_number 67
_symmetry_cell_setting 'orthorhombic'
loop_
_space_group_symop_operation_xyz
x,y,z
-x,1/2-y,z
x,-y,-z
-x,1/2+y,-z
-x,-y,-z
x,1/2+y,-z
-x,y,z
x,1/2-y,z
1/2+x,1/2+y,z
1/2-x,-y,z
1/2+x,1/2-y,-z
1/2-x,y,-z
1/2-x,1/2-y,-z
1/2+x,y,-z
1/2-x,1/2+y,z
1/2+x,-y,z
loop_
_atom_site_type_symbol
_atom_site_label
_atom_site_fract_x
_atom_site_fract_y
_atom_site_fract_z
Si Si1 0.172553 0.918958 0.362242
Si Si2 0.899388 0.396939 0.874202
Si Si3 0.397450 0.931923 0.101363
Si Si4 0.696821 0.197410 0.111976
Si Si5 0.363689 0.168409 0.782098
Si Si6 0.404673 0.011378 0.696375
Si Si7 0.000000 0.250000 0.167550
Si Si8 0.633311 0.392679 0.588098
O O1 0.143388 0.908511 0.240178
O O2 0.269036 0.904945 0.382349
O O3 0.123039 0.891687 0.458406
O O4 0.153031 0.974844 0.369015
O O5 0.872946 0.342928 0.897453
O O6 0.000000 0.401207 0.866813
O O7 0.869627 0.429424 0.975811
O O8 0.500000 0.934498 0.102126
O O9 0.372430 0.881244 0.152973
O O10 0.370002 0.973413 0.184002
O O11 0.661680 0.250000 0.128030
O O12 0.766959 0.185343 0.203790
O O13 0.750000 0.196812 0.000000
O O14 0.425949 0.208269 0.827183
O O15 0.387422 0.153721 0.658147
O O16 0.500000 0.991159 0.707248
O O17 0.411951 0.060950 0.634007
#
# Coordination Sequence:
#
# PCOD9503945 Si02
#       8
#    16  16  16  16  16  16   4  16
#     4  11  22  40  61  88 118 171 218 255 313 385
#     4  11  23  39  61  88 129 172 215 261 320 392
#     4   9  19  36  57  88 129 165 197 258 321 370
#     4  11  22  38  62  92 125 161 208 264 324 397
#     4  11  20  39  62  92 124 155 206 265 326 385
#     4  10  21  37  60  91 124 160 209 266 313 374
#     4  12  24  36  70 102 118 154 212 272 330 404
#     4  10  23  39  63  86 124 162 209 270 325 375
#
# _framework density 21.226167
#
# number of rings (size 3 to 8) (size 9 to 14) (size 15 to 20)
#    0.000    1.517    4.138    1.241    0.966    3.586 
#    0.000    2.069    1.517    3.310    0.000    0.000 
#    0.000    0.000    0.000    0.000    0.000    0.000 
#
# Total GULP energy -323443.996443 kJ/mol
# GULP energy per Si atom -5576.620628 kJ/mol
# Density = 2.117786 g / cm^3
# Si number density = 21.226167 Si / 1000 Ang^3
#
#
#
# Elastic Constant Matrix: (Units=GPa)
#
#
# Indices 1 2 3 4 5 6 
#
# 1 40.4952 -8.1212 -0.3687 0.0000 0.0000 0.0000
# 2 -8.1212 37.4576 -3.2684 0.0000 0.0000 0.0000
# 3 -0.3687 -3.2684 124.8205 0.0000 0.0000 0.0000
# 4 0.0000 0.0000 0.0000 6.6603 0.0000 0.0000
# 5 0.0000 0.0000 0.0000 0.0000 9.8106 0.0000
# 6 0.0000 0.0000 0.0000 0.0000 0.0000 21.5893
#
#
#
# Elastic Compliance Matrix: (Units=1/GPa)
#
#
# Indices 1 2 3 4 5 6 
#
# 1 0.025823 0.005618 0.000223 0.000000 0.000000 0.000000
# 2 0.005618 0.027980 0.000749 0.000000 0.000000 0.000000
# 3 0.000223 0.000749 0.008032 0.000000 0.000000 0.000000
# 4 0.000000 0.000000 0.000000 0.150143 0.000000 0.000000
# 5 0.000000 0.000000 0.000000 0.000000 0.101930 0.000000
# 6 0.000000 0.000000 0.000000 0.000000 0.000000 0.046319
#
#
# Mechanical properties :
#
#
# Convention : Reuss Voigt Hill
#
# Bulk Modulus (GPa) = 13.33037 19.91743 16.62390
# Shear Modulus (GPa) = 13.43899 21.91417 17.67658
#
# Velocity S-wave (km/s) = 2.51894 3.21660 2.88891
# Velocity P-wave (km/s) = 3.84108 4.81655 4.35621
#
# Compressibility (1/GPa) = 0.07501670
#
# Stress axis : x y z
#
# Youngs Moduli (GPa) = 38.72516 35.73945 124.50538
#
# Poissons Ratio (x) = -0.20079 -0.02781
# Poissons Ratio (y) = -0.21756 -0.09329
# Poissons Ratio (z) = -0.00865 -0.02678
#
# Static dielectric constant tensor:
#      x y z
#    x 1.801550 0.000000 0.000000 
#    y 0.000000 1.770290 0.000000 
#    z 0.000000 0.000000 1.845620 
# 
# From -- ./inp_files/19960.got.cif
#   From: 2010.05.17/outbox.cif.g08.bks.cpg/sg67_10_cif.got.tgz:19960.got - 2010.06.03 18:28:57.
