data_PCOD9503563
_publ_section_title
;
Structure prediction by ZEFSAII (Michael W. Deem and Ramdas Pophale) SiO2 
 PCOD9503563
Probable space group: C M M A
;
_chemical_formula_sum "Si O2"
_cell_formula_units_Z 116
_cell_length_a 15.069137
_cell_length_b 26.564371
_cell_length_c 12.745684
_cell_angle_alpha 90.000000
_cell_angle_beta 90.000000
_cell_angle_gamma 90.000000
_cell_volume 5102.124656
_symmetry_space_group_name_H-M "C M M A"
_symmetry_group_IT_number 67
_symmetry_cell_setting 'orthorhombic'
loop_
_space_group_symop_operation_xyz
x,y,z
-x,1/2-y,z
x,-y,-z
-x,1/2+y,-z
-x,-y,-z
x,1/2+y,-z
-x,y,z
x,1/2-y,z
1/2+x,1/2+y,z
1/2-x,-y,z
1/2+x,1/2-y,-z
1/2-x,y,-z
1/2-x,1/2-y,-z
1/2+x,y,-z
1/2-x,1/2+y,z
1/2+x,-y,z
loop_
_atom_site_type_symbol
_atom_site_label
_atom_site_fract_x
_atom_site_fract_y
_atom_site_fract_z
Si Si1 0.149784 0.307723 0.798723
Si Si2 0.603331 0.490624 0.324240
Si Si3 0.000000 0.750000 0.695584
Si Si4 0.147603 0.641651 0.988734
Si Si5 0.652415 0.026841 0.903454
Si Si6 0.106121 0.618477 0.383449
Si Si7 0.856656 0.825835 0.773067
Si Si8 0.108292 0.405656 0.389508
O O1 0.119203 0.250000 0.810844
O O2 0.114844 0.342906 0.895568
O O3 0.124373 0.334847 0.691015
O O4 0.256987 0.307124 0.790093
O O5 0.500000 0.485953 0.352342
O O6 0.609729 0.512960 0.206900
O O7 0.641475 0.434554 0.335400
O O8 0.638670 0.536321 0.394532
O O9 0.078084 0.706994 0.703759
O O10 0.250000 0.657502 0.000000
O O11 0.152789 0.584471 0.944085
O O12 0.104835 0.670726 0.891179
O O13 0.750000 0.000000 0.895238
O O14 0.604638 0.000000 0.000000
O O15 0.136165 0.621815 0.503789
O O16 0.000000 0.614876 0.388555
O O17 0.852778 0.878911 0.712836
O O18 0.000000 0.405113 0.380408
#
# Coordination Sequence:
#
# PCOD9503563 Si02
#       8
#    16  16   4  16  16  16  16  16
#     4  11  25  45  66  91 130 175 222 273 329 395
#     4  10  21  37  63  93 130 171 215 267 326 392
#     4  12  24  44  66 102 132 156 224 274 336 386
#     4  10  21  39  63  91 126 165 210 262 322 390
#     4  11  20  33  58  92 126 170 208 250 320 392
#     4  10  23  43  64  92 131 179 225 268 327 392
#     4  11  23  41  67  99 126 164 213 276 332 384
#     4  10  20  40  65  95 131 170 217 272 335 390
#
# _framework density 22.735627000000001
#
# number of rings (size 3 to 8) (size 9 to 14) (size 15 to 20)
#    0.000    1.517    4.138    1.241    2.897    3.586 
#    2.483    0.690    0.000    2.483    0.000    0.000 
#    0.000    0.000    0.000    0.000    0.000    0.000 
#
# Total GULP energy -322895.973154 kJ/mol
# GULP energy per Si atom -5567.171951 kJ/mol
# Density = 2.268388 g / cm^3
# Si number density = 22.735627 Si / 1000 Ang^3
#
#
#
# Elastic Constant Matrix: (Units=GPa)
#
#
# Indices 1 2 3 4 5 6 
#
# 1 48.7701 15.2835 -1.4389 0.0000 0.0000 0.0000
# 2 15.2835 103.4749 35.1094 0.0000 0.0000 0.0000
# 3 -1.4389 35.1094 130.6648 0.0000 0.0000 0.0000
# 4 0.0000 0.0000 0.0000 288.5024 0.0000 0.0000
# 5 0.0000 0.0000 0.0000 0.0000 14.5424 0.0000
# 6 0.0000 0.0000 0.0000 0.0000 0.0000 27.2258
#
#
#
# Elastic Compliance Matrix: (Units=1/GPa)
#
#
# Indices 1 2 3 4 5 6 
#
# 1 0.021672 -0.003611 0.001209 0.000000 0.000000 0.000000
# 2 -0.003611 0.011235 -0.003059 0.000000 0.000000 0.000000
# 3 0.001209 -0.003059 0.008488 0.000000 0.000000 0.000000
# 4 0.000000 0.000000 0.000000 0.003466 0.000000 0.000000
# 5 0.000000 0.000000 0.000000 0.000000 0.068764 0.000000
# 6 0.000000 0.000000 0.000000 0.000000 0.000000 0.036730
#
#
# Mechanical properties :
#
#
# Convention : Reuss Voigt Hill
#
# Bulk Modulus (GPa) = 32.81525 42.31311 37.56418
# Shear Modulus (GPa) = 29.16547 81.65117 55.40832
#
# Velocity S-wave (km/s) = 3.58552 5.99927 4.94202
# Velocity P-wave (km/s) = 5.62192 8.16331 7.00877
#
# Compressibility (1/GPa) = 0.03047363
#
# Stress axis : x y z
#
# Youngs Moduli (GPa) = 46.14309 89.00449 117.80853
#
# Poissons Ratio (x) = 0.32141 -0.14243
# Poissons Ratio (y) = 0.16663 0.36034
# Poissons Ratio (z) = -0.05579 0.27224
#
# Static dielectric constant tensor:
#      x y z
#    x 1.888760 0.000000 0.000000 
#    y 0.000000 2.021130 0.000000 
#    z 0.000000 0.000000 1.873550 
# 
# From -- ./inp_files/20006.got.cif
#   From: 2010.05.17/outbox.cif.g08.bks.cpg/sg67_11_cif.got.tgz:20006.got - 2010.06.03 18:28:57.
