data_PCOD9503001
_publ_section_title
;
Structure prediction by ZEFSAII (Michael W. Deem and Ramdas Pophale) SiO2 
 PCOD9503001
Probable space group: C M M A
;
_chemical_formula_sum "Si O2"
_cell_formula_units_Z 72
_cell_length_a 8.947295
_cell_length_b 14.853813
_cell_length_c 29.236102
_cell_angle_alpha 90.000000
_cell_angle_beta 90.000000
_cell_angle_gamma 90.000000
_cell_volume 3885.520254
_symmetry_space_group_name_H-M "C M M A"
_symmetry_group_IT_number 67
_symmetry_cell_setting 'orthorhombic'
loop_
_space_group_symop_operation_xyz
x,y,z
-x,1/2-y,z
x,-y,-z
-x,1/2+y,-z
-x,-y,-z
x,1/2+y,-z
-x,y,z
x,1/2-y,z
1/2+x,1/2+y,z
1/2-x,-y,z
1/2+x,1/2-y,-z
1/2-x,y,-z
1/2-x,1/2-y,-z
1/2+x,y,-z
1/2-x,1/2+y,z
1/2+x,-y,z
loop_
_atom_site_type_symbol
_atom_site_label
_atom_site_fract_x
_atom_site_fract_y
_atom_site_fract_z
Si Si1 0.669833 0.358884 0.046378
Si Si2 0.677066 0.408265 0.858253
Si Si3 0.321592 0.750000 0.450334
Si Si4 0.679012 0.750000 0.688941
Si Si5 0.319039 0.600279 0.375784
Si Si6 0.822348 0.750000 0.787394
O O1 0.500000 0.392491 0.048114
O O2 0.666168 0.250000 0.044937
O O3 0.755244 0.385049 0.092287
O O4 0.750000 0.389530 0.000000
O O5 0.500000 0.415842 0.863247
O O6 0.750000 0.500000 0.842495
O O7 0.709094 0.333985 0.820241
O O8 0.500000 0.750000 0.454949
O O9 0.250000 0.750000 0.500000
O O10 0.282441 0.660847 0.420748
O O11 0.500000 0.750000 0.683171
O O12 0.750524 0.838323 0.664772
O O13 0.726416 0.750000 0.741735
O O14 0.500000 0.595683 0.371560
O O15 0.250000 0.500000 0.377142
O O16 0.000000 0.750000 0.775791
#
# Coordination Sequence:
#
# PCOD9503001 Si02
#       6
#    16  16   8   8  16   8
#     4  10  20  35  58  85 114 148 186 229 277 335
#     4  11  23  40  61  86 115 149 188 231 283 340
#     4   9  20  36  56  85 124 167 208 253 299 352
#     4  11  23  39  63  90 117 154 196 245 302 360
#     4  10  21  39  61  88 122 160 205 254 303 354
#     4  10  23  43  63  83 117 155 188 238 294 350
#
# _framework density 18.530336999999999
#
# number of rings (size 3 to 8) (size 9 to 14) (size 15 to 20)
#    0.000    1.778    1.111    3.667    0.000    7.111 
#    0.000    6.667    0.000    0.000    0.000    0.000 
#    0.000    0.000    0.000    0.000    0.000    0.000 
#
# Total GULP energy -201093.128891 kJ/mol
# GULP energy per Si atom -5585.920247 kJ/mol
# Density = 1.848816 g / cm^3
# Si number density = 18.530337 Si / 1000 Ang^3
#
#
#
# Elastic Constant Matrix: (Units=GPa)
#
#
# Indices 1 2 3 4 5 6 
#
# 1 121.5526 82.5813 97.0270 0.0000 0.0000 0.0000
# 2 82.5813 156.5220 75.6799 0.0000 0.0000 0.0000
# 3 97.0270 75.6799 143.6913 0.0000 0.0000 0.0000
# 4 0.0000 0.0000 0.0000 22.0336 0.0000 0.0000
# 5 0.0000 0.0000 0.0000 0.0000 37.6602 0.0000
# 6 0.0000 0.0000 0.0000 0.0000 0.0000 30.4117
#
#
#
# Elastic Compliance Matrix: (Units=1/GPa)
#
#
# Indices 1 2 3 4 5 6 
#
# 1 0.021034 -0.005676 -0.011214 0.000000 0.000000 0.000000
# 2 -0.005676 0.010103 -0.001489 0.000000 0.000000 0.000000
# 3 -0.011214 -0.001489 0.015316 0.000000 0.000000 0.000000
# 4 0.000000 0.000000 0.000000 0.045385 0.000000 0.000000
# 5 0.000000 0.000000 0.000000 0.000000 0.026553 0.000000
# 6 0.000000 0.000000 0.000000 0.000000 0.000000 0.032882
#
#
# Mechanical properties :
#
#
# Convention : Reuss Voigt Hill
#
# Bulk Modulus (GPa) = 103.13190 103.59359 103.36274
# Shear Modulus (GPa) = 26.14208 29.11959 27.63084
#
# Velocity S-wave (km/s) = 3.76010 3.96846 3.86568
# Velocity P-wave (km/s) = 8.63873 8.77636 8.70782
#
# Compressibility (1/GPa) = 0.00969632
#
# Stress axis : x y z
#
# Youngs Moduli (GPa) = 47.54168 98.97903 65.29256
#
# Poissons Ratio (x) = 0.56176 0.73219
# Poissons Ratio (y) = 0.26983 0.09720
# Poissons Ratio (z) = 0.53313 0.14736
#
# Static dielectric constant tensor:
#      x y z
#    x 1.629330 0.000000 0.000000 
#    y 0.000000 1.643890 0.000000 
#    z 0.000000 0.000000 1.607250 
# 
# From -- ./inp_files/43156.got.cif
#   From: 2010.05.17/outbox.cif.g08.bks.cpg/sg67_22_cif.got.tgz:43156.got - 2010.06.03 18:28:57.
