data_PCOD9503475
_publ_section_title
;
Structure prediction by ZEFSAII (Michael W. Deem and Ramdas Pophale) SiO2 
 PCOD9503475
Probable space group: C M M A
;
_chemical_formula_sum "Si O2"
_cell_formula_units_Z 104
_cell_length_a 18.282566
_cell_length_b 19.208215
_cell_length_c 15.303264
_cell_angle_alpha 90.000000
_cell_angle_beta 90.000000
_cell_angle_gamma 90.000000
_cell_volume 5374.130751
_symmetry_space_group_name_H-M "C M M A"
_symmetry_group_IT_number 67
_symmetry_cell_setting 'orthorhombic'
loop_
_space_group_symop_operation_xyz
x,y,z
-x,1/2-y,z
x,-y,-z
-x,1/2+y,-z
-x,-y,-z
x,1/2+y,-z
-x,y,z
x,1/2-y,z
1/2+x,1/2+y,z
1/2-x,-y,z
1/2+x,1/2-y,-z
1/2-x,y,-z
1/2-x,1/2-y,-z
1/2+x,y,-z
1/2-x,1/2+y,z
1/2+x,-y,z
loop_
_atom_site_type_symbol
_atom_site_label
_atom_site_fract_x
_atom_site_fract_y
_atom_site_fract_z
Si Si1 0.261337 0.145448 0.600332
Si Si2 0.341805 0.671996 0.759435
Si Si3 0.000000 0.530149 0.096752
Si Si4 0.376176 0.442581 0.811616
Si Si5 0.920650 0.671734 0.676370
Si Si6 0.500000 0.665873 0.807254
Si Si7 0.724572 0.833085 0.099888
Si Si8 0.250000 0.500000 0.312688
O O1 0.250000 0.163099 0.500000
O O2 0.203103 0.175796 0.669568
O O3 0.345090 0.163989 0.623646
O O4 0.247334 0.065089 0.622826
O O5 0.350544 0.750000 0.793154
O O6 0.425190 0.646577 0.755520
O O7 0.288028 0.641346 0.832813
O O8 0.929488 0.497010 0.143657
O O9 0.000000 0.613880 0.109511
O O10 0.000000 0.500000 0.000000
O O11 0.416978 0.388996 0.747179
O O12 0.338420 0.389112 0.880018
O O13 0.317937 0.484055 0.751457
O O14 0.918159 0.750000 0.714782
O O15 0.000000 0.666287 0.629678
O O16 0.500000 0.750000 0.824323
O O17 0.707246 0.750000 0.118013
O O18 0.750000 0.836654 0.000000
#
# Coordination Sequence:
#
# PCOD9503475 Si02
#       8
#    16  16   8  16  16   8  16   8
#     4  11  22  38  63  91 125 161 208 266 326 384
#     4  10  20  39  64  90 121 164 211 257 311 377
#     4  12  28  40  58  95 131 159 213 269 320 383
#     4  11  22  39  62  88 123 165 207 265 322 369
#     4  10  20  38  62  90 125 163 203 251 316 385
#     4  10  24  46  66  83 123 177 219 261 315 378
#     4  10  21  37  63  95 126 165 217 261 313 388
#     4  10  21  38  65  82 114 166 215 254 313 388
#
# _framework density 19.351966999999998
#
# number of rings (size 3 to 8) (size 9 to 14) (size 15 to 20)
#    0.000    1.538    3.846    2.077    2.154    1.231 
#    1.385    0.769    0.000    1.846    0.000    0.000 
#    0.000    0.000    0.000    0.000    0.000    0.000 
#
# Total GULP energy -289490.271371 kJ/mol
# GULP energy per Si atom -5567.120603 kJ/mol
# Density = 1.930792 g / cm^3
# Si number density = 19.351967 Si / 1000 Ang^3
#
#
#
# Elastic Constant Matrix: (Units=GPa)
#
#
# Indices 1 2 3 4 5 6 
#
# 1 134.4399 43.3040 52.7400 0.0000 0.0000 0.0000
# 2 43.3040 102.0460 17.7838 0.0000 0.0000 0.0000
# 3 52.7400 17.7838 113.1916 0.0000 0.0000 0.0000
# 4 0.0000 0.0000 0.0000 23.6065 0.0000 0.0000
# 5 0.0000 0.0000 0.0000 0.0000 11.6925 0.0000
# 6 0.0000 0.0000 0.0000 0.0000 0.0000 -5.2058
#
#
#
# Elastic Compliance Matrix: (Units=1/GPa)
#
#
# Indices 1 2 3 4 5 6 
#
# 1 0.010255 -0.003618 -0.004210 0.000000 0.000000 0.000000
# 2 -0.003618 0.011352 -0.000098 0.000000 0.000000 0.000000
# 3 -0.004210 -0.000098 0.010811 0.000000 0.000000 0.000000
# 4 0.000000 0.000000 0.000000 0.042361 0.000000 0.000000
# 5 0.000000 0.000000 0.000000 0.000000 0.085525 0.000000
# 6 0.000000 0.000000 0.000000 0.000000 0.000000 -0.192093
#
#
# Mechanical properties :
#
#
# Convention : Reuss Voigt Hill
#
# Bulk Modulus (GPa) = 60.36028 64.14812 62.25420
# Shear Modulus (GPa) = -480.08601 21.74195 -229.17203
#
# Velocity S-wave (km/s) = -15.76768 3.35550 -10.89404
# Velocity P-wave (km/s) = 17.32728 6.94497 11.22502
#
# Compressibility (1/GPa) = 0.01656719
#
# Stress axis : x y z
#
# Youngs Moduli (GPa) = 97.51155 88.09062 92.49485
#
# Poissons Ratio (x) = 0.31873 0.38938
# Poissons Ratio (y) = 0.35282 0.00903
# Poissons Ratio (z) = 0.41050 0.00860
#
# Static dielectric constant tensor:
#      x y z
#    x 1.690930 0.000000 0.000000 
#    y 0.000000 1.784170 0.000000 
#    z 0.000000 0.000000 1.634510 
# 
# From -- ./inp_files/28679.got.cif
#   From: 2010.05.17/outbox.cif.g08.bks.cpg/sg67_15_cif.got.tgz:28679.got - 2010.06.03 18:28:57.
