data_PCOD9503809
_publ_section_title
;
Structure prediction by ZEFSAII (Michael W. Deem and Ramdas Pophale) SiO2 
 PCOD9503809
Probable space group: C M M A
;
_chemical_formula_sum "Si O2"
_cell_formula_units_Z 96
_cell_length_a 14.172697
_cell_length_b 13.309696
_cell_length_c 22.070746
_cell_angle_alpha 90.000000
_cell_angle_beta 90.000000
_cell_angle_gamma 90.000000
_cell_volume 4163.299470
_symmetry_space_group_name_H-M "C M M A"
_symmetry_group_IT_number 67
_symmetry_cell_setting 'orthorhombic'
loop_
_space_group_symop_operation_xyz
x,y,z
-x,1/2-y,z
x,-y,-z
-x,1/2+y,-z
-x,-y,-z
x,1/2+y,-z
-x,y,z
x,1/2-y,z
1/2+x,1/2+y,z
1/2-x,-y,z
1/2+x,1/2-y,-z
1/2-x,y,-z
1/2-x,1/2-y,-z
1/2+x,y,-z
1/2-x,1/2+y,z
1/2+x,-y,z
loop_
_atom_site_type_symbol
_atom_site_label
_atom_site_fract_x
_atom_site_fract_y
_atom_site_fract_z
Si Si1 0.190541 0.867253 0.728316
Si Si2 0.104661 0.372362 0.535002
Si Si3 0.104596 0.434664 0.770870
Si Si4 0.801382 0.371828 0.409821
Si Si5 0.652341 0.542174 0.900011
Si Si6 0.892872 0.359470 0.016523
O O1 0.168135 0.750000 0.738155
O O2 0.302806 0.883188 0.741514
O O3 0.171924 0.896909 0.658339
O O4 0.128188 0.946104 0.765812
O O5 0.103892 0.250000 0.537243
O O6 0.130757 0.399873 0.465567
O O7 0.194106 0.404476 0.575145
O O8 0.000000 0.405992 0.552388
O O9 0.103163 0.410402 0.842495
O O10 0.000000 0.412532 0.745312
O O11 0.799533 0.250000 0.411295
O O12 0.750000 0.500000 0.875363
O O13 0.668097 0.615054 0.957165
O O14 0.608777 0.445269 0.933113
O O15 0.871416 0.250000 0.041603
O O16 0.000000 0.359174 0.991986
#
# Coordination Sequence:
#
# PCOD9503809 Si02
#       6
#    16  16  16  16  16  16
#     4  10  22  41  62  88 120 159 208 256 304 358
#     4   8  13  23  44  77 113 147 184 233 297 360
#     4  11  24  43  63  87 121 163 208 255 304 356
#     4   8  15  28  48  77 114 149 188 242 296 353
#     4  11  21  39  60  82 119 158 194 242 296 352
#     4  10  21  36  59  91 120 150 191 239 294 356
#
# _framework density 23.058634000000001
#
# number of rings (size 3 to 8) (size 9 to 14) (size 15 to 20)
#    0.000    2.333    1.667    4.000    0.000    4.667 
#    0.000    3.333    0.000    8.000    0.000    9.333 
#    0.000    0.000    0.000    0.000    0.000    0.000 
#
# Total GULP energy -268032.001434 kJ/mol
# GULP energy per Si atom -5584.000030 kJ/mol
# Density = 2.300615 g / cm^3
# Si number density = 23.058634 Si / 1000 Ang^3
#
#
#
# Elastic Constant Matrix: (Units=GPa)
#
#
# Indices 1 2 3 4 5 6 
#
# 1 81.4756 -28.7123 -9.5509 0.0000 0.0000 0.0000
# 2 -28.7123 72.5829 -7.1289 0.0000 0.0000 0.0000
# 3 -9.5509 -7.1289 81.7252 0.0000 0.0000 0.0000
# 4 0.0000 0.0000 0.0000 5.7046 0.0000 0.0000
# 5 0.0000 0.0000 0.0000 0.0000 15.1928 0.0000
# 6 0.0000 0.0000 0.0000 0.0000 0.0000 25.0802
#
#
#
# Elastic Compliance Matrix: (Units=1/GPa)
#
#
# Indices 1 2 3 4 5 6 
#
# 1 0.014657 0.006018 0.002238 0.000000 0.000000 0.000000
# 2 0.006018 0.016367 0.002131 0.000000 0.000000 0.000000
# 3 0.002238 0.002131 0.012684 0.000000 0.000000 0.000000
# 4 0.000000 0.000000 0.000000 0.175299 0.000000 0.000000
# 5 0.000000 0.000000 0.000000 0.000000 0.065821 0.000000
# 6 0.000000 0.000000 0.000000 0.000000 0.000000 0.039872
#
#
# Mechanical properties :
#
#
# Convention : Reuss Voigt Hill
#
# Bulk Modulus (GPa) = 15.50872 16.11106 15.80989
# Shear Modulus (GPa) = 15.36480 27.94057 21.65268
#
# Velocity S-wave (km/s) = 2.58415 3.48475 3.06768
# Velocity P-wave (km/s) = 3.95527 4.81596 4.40668
#
# Compressibility (1/GPa) = 0.06447987
#
# Stress axis : x y z
#
# Youngs Moduli (GPa) = 68.22885 61.09823 78.84242
#
# Poissons Ratio (x) = -0.36767 -0.17643
# Poissons Ratio (y) = -0.41057 -0.16801
# Poissons Ratio (z) = -0.15268 -0.13020
#
# Static dielectric constant tensor:
#      x y z
#    x 1.924750 0.000000 0.000000 
#    y 0.000000 1.903970 0.000000 
#    z 0.000000 0.000000 1.810970 
# 
# From -- ./inp_files/38371.got.cif
#   From: 2010.05.17/outbox.cif.g08.bks.cpg/sg67_20_cif.got.tgz:38371.got - 2010.06.03 18:28:57.
