data_PCOD9503995
_publ_section_title
;
Structure prediction by ZEFSAII (Michael W. Deem and Ramdas Pophale) SiO2 
 PCOD9503995
Probable space group: C M M A
;
_chemical_formula_sum "Si O2"
_cell_formula_units_Z 80
_cell_length_a 13.466141
_cell_length_b 21.781865
_cell_length_c 12.751288
_cell_angle_alpha 90.000000
_cell_angle_beta 90.000000
_cell_angle_gamma 90.000000
_cell_volume 3740.178026
_symmetry_space_group_name_H-M "C M M A"
_symmetry_group_IT_number 67
_symmetry_cell_setting 'orthorhombic'
loop_
_space_group_symop_operation_xyz
x,y,z
-x,1/2-y,z
x,-y,-z
-x,1/2+y,-z
-x,-y,-z
x,1/2+y,-z
-x,y,z
x,1/2-y,z
1/2+x,1/2+y,z
1/2-x,-y,z
1/2+x,1/2-y,-z
1/2-x,y,-z
1/2-x,1/2-y,-z
1/2+x,y,-z
1/2-x,1/2+y,z
1/2+x,-y,z
loop_
_atom_site_type_symbol
_atom_site_label
_atom_site_fract_x
_atom_site_fract_y
_atom_site_fract_z
Si Si1 0.116266 0.570655 0.541301
Si Si2 0.120158 0.470988 0.237755
Si Si3 0.186797 0.680670 0.135278
Si Si4 0.120547 0.395737 0.680739
Si Si5 0.615971 0.373551 0.928360
O O1 0.122965 0.500000 0.500000
O O2 0.152456 0.569636 0.660985
O O3 0.155644 0.606245 0.439943
O O4 0.000000 0.586470 0.549061
O O5 0.152180 0.540598 0.261064
O O6 0.142762 0.438078 0.127992
O O7 0.000000 0.473070 0.242516
O O8 0.155969 0.750000 0.110742
O O9 0.155814 0.660387 0.249977
O O10 0.304920 0.673440 0.120824
O O11 0.136626 0.633906 0.051908
O O12 0.000000 0.397013 0.678588
O O13 0.500000 0.361386 0.907987
#
# Coordination Sequence:
#
# PCOD9503995 Si02
#       5
#    16  16  16  16  16
#     4   7  11  24  49  80 112 142 170 205 256 317
#     4   8  15  30  55  86 112 138 175 216 270 330
#     4  11  24  38  54  78 104 140 189 223 258 322
#     4   9  17  31  54  84 118 147 172 216 268 313
#     4  10  21  38  59  78 101 135 176 228 278 318
#
# _framework density 21.389354000000001
#
# number of rings (size 3 to 8) (size 9 to 14) (size 15 to 20)
#    0.000    3.000    0.000    4.200    0.000    4.400 
#    0.000    6.000    0.000    7.200    0.000   11.200 
#    0.000    0.000    0.000    0.000    0.000    0.000 
#
# Total GULP energy -223064.824869 kJ/mol
# GULP energy per Si atom -5576.620622 kJ/mol
# Density = 2.134067 g / cm^3
# Si number density = 21.389354 Si / 1000 Ang^3
#
#
#
# Elastic Constant Matrix: (Units=GPa)
#
#
# Indices 1 2 3 4 5 6 
#
# 1 85.6951 20.5355 42.8084 0.0000 0.0000 0.0000
# 2 20.5355 40.6802 37.1124 0.0000 0.0000 0.0000
# 3 42.8084 37.1124 109.5265 0.0000 0.0000 0.0000
# 4 0.0000 0.0000 0.0000 21.6316 0.0000 0.0000
# 5 0.0000 0.0000 0.0000 0.0000 30.5257 0.0000
# 6 0.0000 0.0000 0.0000 0.0000 0.0000 9.5428
#
#
#
# Elastic Compliance Matrix: (Units=1/GPa)
#
#
# Indices 1 2 3 4 5 6 
#
# 1 0.014778 -0.003171 -0.004701 0.000000 0.000000 0.000000
# 2 -0.003171 0.036261 -0.011048 0.000000 0.000000 0.000000
# 3 -0.004701 -0.011048 0.014711 0.000000 0.000000 0.000000
# 4 0.000000 0.000000 0.000000 0.046229 0.000000 0.000000
# 5 0.000000 0.000000 0.000000 0.000000 0.032759 0.000000
# 6 0.000000 0.000000 0.000000 0.000000 0.000000 0.104792
#
#
# Mechanical properties :
#
#
# Convention : Reuss Voigt Hill
#
# Bulk Modulus (GPa) = 35.82875 48.53492 42.18184
# Shear Modulus (GPa) = 16.85358 21.36970 19.11164
#
# Velocity S-wave (km/s) = 2.81008 3.16425 2.99241
# Velocity P-wave (km/s) = 5.22645 6.00753 5.63055
#
# Compressibility (1/GPa) = 0.02791054
#
# Stress axis : x y z
#
# Youngs Moduli (GPa) = 67.66959 27.57763 67.97537
#
# Poissons Ratio (x) = 0.08744 0.31959
# Poissons Ratio (y) = 0.21456 0.75097
# Poissons Ratio (z) = 0.31815 0.30467
#
# Static dielectric constant tensor:
#      x y z
#    x 1.868390 0.000000 0.000000 
#    y 0.000000 1.739290 0.000000 
#    z 0.000000 0.000000 1.790020 
# 
# From -- ./inp_files/17947.got.cif
#   From: 2010.05.17/outbox.cif.g08.bks.cpg/sg67_9_cif.got.tgz:17947.got - 2010.06.03 18:28:57.
