data_PCOD9503464
_publ_section_title
;
Structure prediction by ZEFSAII (Michael W. Deem and Ramdas Pophale) SiO2 
 PCOD9503464
Probable space group: C M M A
;
_chemical_formula_sum "Si O2"
_cell_formula_units_Z 64
_cell_length_a 19.800859
_cell_length_b 17.113666
_cell_length_c 9.210691
_cell_angle_alpha 90.000000
_cell_angle_beta 90.000000
_cell_angle_gamma 90.000000
_cell_volume 3121.183453
_symmetry_space_group_name_H-M "C M M A"
_symmetry_group_IT_number 67
_symmetry_cell_setting 'orthorhombic'
loop_
_space_group_symop_operation_xyz
x,y,z
-x,1/2-y,z
x,-y,-z
-x,1/2+y,-z
-x,-y,-z
x,1/2+y,-z
-x,y,z
x,1/2-y,z
1/2+x,1/2+y,z
1/2-x,-y,z
1/2+x,1/2-y,-z
1/2-x,y,-z
1/2-x,1/2-y,-z
1/2+x,y,-z
1/2-x,1/2+y,z
1/2+x,-y,z
loop_
_atom_site_type_symbol
_atom_site_label
_atom_site_fract_x
_atom_site_fract_y
_atom_site_fract_z
Si Si1 0.000000 0.556092 0.282430
Si Si2 0.202475 0.161745 0.684413
Si Si3 0.000000 0.379168 0.407616
Si Si4 0.650342 0.618941 0.375763
Si Si5 0.357772 0.529809 0.838248
O O1 0.000000 0.468792 0.350980
O O2 0.000000 0.615252 0.417624
O O3 0.933317 0.561133 0.187946
O O4 0.175727 0.250000 0.691618
O O5 0.283163 0.166090 0.668422
O O6 0.166138 0.116247 0.549151
O O7 0.189352 0.104189 0.815905
O O8 0.926153 0.348535 0.359256
O O9 0.653722 0.538576 0.282619
O O10 0.350252 0.500000 0.000000
#
# Coordination Sequence:
#
# PCOD9503464 Si02
#       5
#     8  16   8  16  16
#     4   9  17  34  58  93 121 148 202 264 301 351
#     4  11  23  40  59  89 126 160 202 258 313 360
#     4   9  16  32  62  91 113 150 205 262 307 343
#     4  10  20  38  62  87 120 157 207 255 300 364
#     4  11  22  38  63  92 122 164 205 248 308 373
#
# _framework density 20.505042
#
# number of rings (size 3 to 8) (size 9 to 14) (size 15 to 20)
#    0.000    1.750    2.500    3.375    0.000    4.000 
#    0.000    8.125    0.000    0.000    0.000   10.500 
#    0.000    0.000    0.000    0.000    0.000    0.000 
#
# Total GULP energy -178226.315467 kJ/mol
# GULP energy per Si atom -5569.572358 kJ/mol
# Density = 2.045837 g / cm^3
# Si number density = 20.505042 Si / 1000 Ang^3
#
#
#
# Elastic Constant Matrix: (Units=GPa)
#
#
# Indices 1 2 3 4 5 6 
#
# 1 135.8708 24.2357 32.6142 0.0000 0.0000 0.0000
# 2 24.2357 86.4887 58.0806 0.0000 0.0000 0.0000
# 3 32.6142 58.0806 95.3290 0.0000 0.0000 0.0000
# 4 0.0000 0.0000 0.0000 -5.6806 0.0000 0.0000
# 5 0.0000 0.0000 0.0000 0.0000 3.6910 0.0000
# 6 0.0000 0.0000 0.0000 0.0000 0.0000 -47.0222
#
#
#
# Elastic Compliance Matrix: (Units=1/GPa)
#
#
# Indices 1 2 3 4 5 6 
#
# 1 0.008042 -0.000687 -0.002333 0.000000 0.000000 0.000000
# 2 -0.000687 0.019627 -0.011723 0.000000 0.000000 0.000000
# 3 -0.002333 -0.011723 0.018431 0.000000 0.000000 0.000000
# 4 0.000000 0.000000 0.000000 -0.176039 0.000000 0.000000
# 5 0.000000 0.000000 0.000000 0.000000 0.270932 0.000000
# 6 0.000000 0.000000 0.000000 0.000000 0.000000 -0.021267
#
#
# Mechanical properties :
#
#
# Convention : Reuss Voigt Hill
#
# Bulk Modulus (GPa) = 60.18953 60.83885 60.51419
# Shear Modulus (GPa) = 32.30981 3.71484 18.01232
#
# Velocity S-wave (km/s) = 3.97382 1.34744 2.96705
# Velocity P-wave (km/s) = 7.10438 5.67057 6.42758
#
# Compressibility (1/GPa) = 0.01661419
#
# Stress axis : x y z
#
# Youngs Moduli (GPa) = 124.33992 50.94946 54.25738
#
# Poissons Ratio (x) = 0.03500 0.12658
# Poissons Ratio (y) = 0.08542 0.63607
# Poissons Ratio (z) = 0.29008 0.59729
#
# Static dielectric constant tensor:
#      x y z
#    x 1.793750 0.000000 0.000000 
#    y 0.000000 1.719320 0.000000 
#    z 0.000000 0.000000 1.753860 
# 
# From -- ./inp_files/10712.got.cif
#   From: 2010.05.17/outbox.cif.g08.bks.cpg/sg67_6_cif.got.tgz:10712.got - 2010.06.03 18:28:57.
