data_PCOD9503889
_publ_section_title
;
Structure prediction by ZEFSAII (Michael W. Deem and Ramdas Pophale) SiO2 
 PCOD9503889
Probable space group: C M M A
;
_chemical_formula_sum "Si O2"
_cell_formula_units_Z 96
_cell_length_a 23.664388
_cell_length_b 16.318533
_cell_length_c 13.397308
_cell_angle_alpha 90.000000
_cell_angle_beta 90.000000
_cell_angle_gamma 90.000000
_cell_volume 5173.612929
_symmetry_space_group_name_H-M "C M M A"
_symmetry_group_IT_number 67
_symmetry_cell_setting 'orthorhombic'
loop_
_space_group_symop_operation_xyz
x,y,z
-x,1/2-y,z
x,-y,-z
-x,1/2+y,-z
-x,-y,-z
x,1/2+y,-z
-x,y,z
x,1/2-y,z
1/2+x,1/2+y,z
1/2-x,-y,z
1/2+x,1/2-y,-z
1/2-x,y,-z
1/2-x,1/2-y,-z
1/2+x,y,-z
1/2-x,1/2+y,z
1/2+x,-y,z
loop_
_atom_site_type_symbol
_atom_site_label
_atom_site_fract_x
_atom_site_fract_y
_atom_site_fract_z
Si Si1 0.613120 0.930608 0.223096
Si Si2 0.184319 0.520755 0.389347
Si Si3 0.805898 0.155038 0.097065
Si Si4 0.000000 0.655546 0.006238
Si Si5 0.879694 0.410101 0.918012
Si Si6 0.799991 0.343016 0.765324
Si Si7 0.000000 0.154506 0.234376
O O1 0.642888 0.852442 0.173954
O O2 0.554018 0.899120 0.262903
O O3 0.651076 0.965642 0.310886
O O4 0.613023 0.002078 0.137617
O O5 0.162362 0.500000 0.500000
O O6 0.250000 0.500000 0.390721
O O7 0.186465 0.609789 0.336884
O O8 0.797540 0.250000 0.067264
O O9 0.751381 0.124601 0.161645
O O10 0.830466 0.103335 0.002851
O O11 0.941387 0.614441 0.041801
O O12 0.000000 0.750000 0.039835
O O13 0.000000 0.654595 0.886559
O O14 0.856236 0.350989 0.831657
O O15 0.784376 0.250000 0.744986
O O16 0.000000 0.250000 0.266871
#
# Coordination Sequence:
#
# PCOD9503889 Si02
#       7
#    16  16  16   8  16  16   8
#     4  11  22  37  58  85 112 155 197 239 286 345
#     4  10  21  41  62  85 115 146 190 250 305 352
#     4  11  20  33  52  82 118 155 190 230 280 338
#     4  11  21  33  51  77 111 155 190 224 273 326
#     4  11  22  33  54  80 119 158 194 232 277 338
#     4  10  21  37  57  84 118 153 194 235 290 353
#     4  11  23  39  58  83 122 159 197 246 286 336
#
# _framework density 18.555698
#
# number of rings (size 3 to 8) (size 9 to 14) (size 15 to 20)
#    0.000    1.333    3.333    3.500    0.000    2.000 
#    0.000    5.417    0.000    0.000    0.000    4.667 
#    0.000    0.000    0.000    0.000    0.000    0.000 
#
# Total GULP energy -267249.581137 kJ/mol
# GULP energy per Si atom -5567.699607 kJ/mol
# Density = 1.851346 g / cm^3
# Si number density = 18.555698 Si / 1000 Ang^3
#
#
#
# Elastic Constant Matrix: (Units=GPa)
#
#
# Indices 1 2 3 4 5 6 
#
# 1 85.7366 23.7868 30.0848 0.0000 0.0000 0.0000
# 2 23.7868 82.2636 50.0322 0.0000 0.0000 0.0000
# 3 30.0848 50.0322 94.4270 0.0000 0.0000 0.0000
# 4 0.0000 0.0000 0.0000 4.2635 0.0000 0.0000
# 5 0.0000 0.0000 0.0000 0.0000 22.0179 0.0000
# 6 0.0000 0.0000 0.0000 0.0000 0.0000 13.2234
#
#
#
# Elastic Compliance Matrix: (Units=1/GPa)
#
#
# Indices 1 2 3 4 5 6 
#
# 1 0.013325 -0.001875 -0.003252 0.000000 0.000000 0.000000
# 2 -0.001875 0.018200 -0.009046 0.000000 0.000000 0.000000
# 3 -0.003252 -0.009046 0.016419 0.000000 0.000000 0.000000
# 4 0.000000 0.000000 0.000000 0.234548 0.000000 0.000000
# 5 0.000000 0.000000 0.000000 0.000000 0.045418 0.000000
# 6 0.000000 0.000000 0.000000 0.000000 0.000000 0.075623
#
#
# Mechanical properties :
#
#
# Convention : Reuss Voigt Hill
#
# Bulk Modulus (GPa) = 51.02464 52.24830 51.63647
# Shear Modulus (GPa) = 11.40481 18.46920 14.93700
#
# Velocity S-wave (km/s) = 2.48185 3.15832 2.84030
# Velocity P-wave (km/s) = 5.98085 6.44350 6.21648
#
# Compressibility (1/GPa) = 0.01959838
#
# Stress axis : x y z
#
# Youngs Moduli (GPa) = 75.04722 54.94556 60.90466
#
# Poissons Ratio (x) = 0.10304 0.19805
# Poissons Ratio (y) = 0.14073 0.55093
# Poissons Ratio (z) = 0.24404 0.49702
#
# Static dielectric constant tensor:
#      x y z
#    x 1.619900 0.000000 0.000000 
#    y 0.000000 1.673640 0.000000 
#    z 0.000000 0.000000 1.656880 
# 
# From -- ./inp_files/22003.got.cif
#   From: 2010.05.17/outbox.cif.g08.bks.cpg/sg67_12_cif.got.tgz:22003.got - 2010.06.03 18:28:57.
