data_PCOD9503586
_publ_section_title
;
Structure prediction by ZEFSAII (Michael W. Deem and Ramdas Pophale) SiO2 
 PCOD9503586
Probable space group: C M M A
;
_chemical_formula_sum "Si O2"
_cell_formula_units_Z 64
_cell_length_a 16.548416
_cell_length_b 19.669116
_cell_length_c 8.644734
_cell_angle_alpha 90.000000
_cell_angle_beta 90.000000
_cell_angle_gamma 90.000000
_cell_volume 2813.797931
_symmetry_space_group_name_H-M "C M M A"
_symmetry_group_IT_number 67
_symmetry_cell_setting 'orthorhombic'
loop_
_space_group_symop_operation_xyz
x,y,z
-x,1/2-y,z
x,-y,-z
-x,1/2+y,-z
-x,-y,-z
x,1/2+y,-z
-x,y,z
x,1/2-y,z
1/2+x,1/2+y,z
1/2-x,-y,z
1/2+x,1/2-y,-z
1/2-x,y,-z
1/2-x,1/2-y,-z
1/2+x,y,-z
1/2-x,1/2+y,z
1/2+x,-y,z
loop_
_atom_site_type_symbol
_atom_site_label
_atom_site_fract_x
_atom_site_fract_y
_atom_site_fract_z
Si Si1 0.306317 0.624131 0.871280
Si Si2 0.904913 0.250000 0.879771
Si Si3 0.848327 0.750000 0.476112
Si Si4 0.906296 0.499382 0.810611
Si Si5 0.184258 0.880574 0.627370
O O1 0.362692 0.681984 0.942259
O O2 0.359999 0.570623 0.779166
O O3 0.241677 0.655108 0.754633
O O4 0.250000 0.589471 0.000000
O O5 0.883875 0.250000 0.696425
O O6 0.000000 0.250000 0.905581
O O7 0.750000 0.750000 0.500000
O O8 0.871375 0.678244 0.554960
O O9 0.862490 0.559731 0.717307
O O10 0.000000 0.497672 0.766645
O O11 0.903632 0.500000 0.000000
O O12 0.250000 0.905830 0.500000
#
# Coordination Sequence:
#
# PCOD9503586 Si02
#       5
#    16   8   8  16  16
#     4  12  23  43  72 101 134 186 238 285 344 426
#     4  12  25  44  70 104 145 182 225 300 362 410
#     4  10  20  44  67 100 138 180 243 292 340 420
#     4  11  25  44  66 104 148 183 231 301 363 414
#     4  11  22  44  74 100 135 183 245 285 346 426
#
# _framework density 22.745059000000001
#
# number of rings (size 3 to 8) (size 9 to 14) (size 15 to 20)
#    0.000    0.750    7.500    1.875    0.000    3.000 
#    0.000    1.250    0.000    0.000    0.000    0.000 
#    0.000    0.000    0.000    0.000    0.000    0.000 
#
# Total GULP energy -178618.616652 kJ/mol
# GULP energy per Si atom -5581.831770 kJ/mol
# Density = 2.269329 g / cm^3
# Si number density = 22.745059 Si / 1000 Ang^3
#
#
#
# Elastic Constant Matrix: (Units=GPa)
#
#
# Indices 1 2 3 4 5 6 
#
# 1 142.1161 66.1172 36.5064 0.0000 0.0000 0.0000
# 2 66.1172 154.9225 22.2818 0.0000 0.0000 0.0000
# 3 36.5064 22.2818 73.7601 0.0000 0.0000 0.0000
# 4 0.0000 0.0000 0.0000 33.0086 0.0000 0.0000
# 5 0.0000 0.0000 0.0000 0.0000 32.2514 0.0000
# 6 0.0000 0.0000 0.0000 0.0000 0.0000 -0.3230
#
#
#
# Elastic Compliance Matrix: (Units=1/GPa)
#
#
# Indices 1 2 3 4 5 6 
#
# 1 0.009655 -0.003589 -0.003695 0.000000 0.000000 0.000000
# 2 -0.003589 0.008082 -0.000665 0.000000 0.000000 0.000000
# 3 -0.003695 -0.000665 0.015587 0.000000 0.000000 0.000000
# 4 0.000000 0.000000 0.000000 0.030295 0.000000 0.000000
# 5 0.000000 0.000000 0.000000 0.000000 0.031006 0.000000
# 6 0.000000 0.000000 0.000000 0.000000 0.000000 -3.096072
#
#
# Mechanical properties :
#
#
# Convention : Reuss Voigt Hill
#
# Bulk Modulus (GPa) = 57.38276 68.95661 63.16968
# Shear Modulus (GPa) = -1.67800 29.38029 13.85115
#
# Velocity S-wave (km/s) = -0.85985 3.59795 2.47042
# Velocity P-wave (km/s) = 4.92926 6.90242 5.99754
#
# Compressibility (1/GPa) = 0.01742684
#
# Stress axis : x y z
#
# Youngs Moduli (GPa) = 103.56878 123.72655 64.15639
#
# Poissons Ratio (x) = 0.44410 0.23703
# Poissons Ratio (y) = 0.37174 0.04267
# Poissons Ratio (z) = 0.38264 0.08229
#
# Static dielectric constant tensor:
#      x y z
#    x 1.795770 0.000000 0.000000 
#    y 0.000000 1.890170 0.000000 
#    z 0.000000 0.000000 1.981140 
# 
# From -- ./inp_files/10925.got.cif
#   From: 2010.05.17/outbox.cif.g08.bks.cpg/sg67_6_cif.got.tgz:10925.got - 2010.06.03 18:28:57.
