data_PCOD9503900
_publ_section_title
;
Structure prediction by ZEFSAII (Michael W. Deem and Ramdas Pophale) SiO2 
 PCOD9503900
Probable space group: C M M A
;
_chemical_formula_sum "Si O2"
_cell_formula_units_Z 96
_cell_length_a 14.955593
_cell_length_b 24.062400
_cell_length_c 11.135624
_cell_angle_alpha 90.000000
_cell_angle_beta 90.000000
_cell_angle_gamma 90.000000
_cell_volume 4007.348736
_symmetry_space_group_name_H-M "C M M A"
_symmetry_group_IT_number 67
_symmetry_cell_setting 'orthorhombic'
loop_
_space_group_symop_operation_xyz
x,y,z
-x,1/2-y,z
x,-y,-z
-x,1/2+y,-z
-x,-y,-z
x,1/2+y,-z
-x,y,z
x,1/2-y,z
1/2+x,1/2+y,z
1/2-x,-y,z
1/2+x,1/2-y,-z
1/2-x,y,-z
1/2-x,1/2-y,-z
1/2+x,y,-z
1/2-x,1/2+y,z
1/2+x,-y,z
loop_
_atom_site_type_symbol
_atom_site_label
_atom_site_fract_x
_atom_site_fract_y
_atom_site_fract_z
Si Si1 0.104071 0.086069 0.320976
Si Si2 0.650602 0.623119 0.951165
Si Si3 0.107088 0.312999 0.712903
Si Si4 0.604266 0.188149 0.815552
Si Si5 0.892891 0.922346 0.418118
Si Si6 0.848748 0.983465 0.178654
O O1 0.146318 0.143490 0.275737
O O2 0.139477 0.064237 0.448140
O O3 0.000000 0.096308 0.347953
O O4 0.106408 0.041408 0.214023
O O5 0.650490 0.660739 0.831812
O O6 0.612637 0.562680 0.911878
O O7 0.750000 0.613880 0.000000
O O8 0.604950 0.658516 0.055218
O O9 0.135495 0.250000 0.689187
O O10 0.118814 0.356555 0.604895
O O11 0.000000 0.312661 0.737236
O O12 0.500000 0.193616 0.782398
O O13 0.643866 0.250000 0.818761
O O14 0.845196 0.952108 0.307343
O O15 0.000000 0.936238 0.404654
O O16 0.750000 0.000000 0.139811
#
# Coordination Sequence:
#
# PCOD9503900 Si02
#       6
#    16  16  16  16  16  16
#     4  10  21  37  58  84 114 147 182 223 273 330
#     4  11  23  38  56  79 110 146 186 233 280 325
#     4   9  18  34  58  86 113 144 184 227 270 321
#     4  10  22  39  58  82 113 148 184 224 274 330
#     4   9  19  36  58  85 115 146 181 223 273 327
#     4  11  23  38  57  81 110 144 185 233 280 326
#
# _framework density 23.955988000000001
#
# number of rings (size 3 to 8) (size 9 to 14) (size 15 to 20)
#    0.000    2.000    0.000    3.000    0.000   10.333 
#    0.000    5.000    0.000    0.000    0.000    7.000 
#    0.000    0.000    0.000    0.000    0.000    0.000 
#
# Total GULP energy -268197.582089 kJ/mol
# GULP energy per Si atom -5587.449627 kJ/mol
# Density = 2.390146 g / cm^3
# Si number density = 23.955988 Si / 1000 Ang^3
#
#
#
# Elastic Constant Matrix: (Units=GPa)
#
#
# Indices 1 2 3 4 5 6 
#
# 1 37.5062 5.2374 4.7886 0.0000 0.0000 0.0000
# 2 5.2374 173.0292 38.3557 0.0000 0.0000 0.0000
# 3 4.7886 38.3557 84.5114 0.0000 0.0000 0.0000
# 4 0.0000 0.0000 0.0000 26.8685 0.0000 0.0000
# 5 0.0000 0.0000 0.0000 0.0000 -3.2111 0.0000
# 6 0.0000 0.0000 0.0000 0.0000 0.0000 24.8970
#
#
#
# Elastic Compliance Matrix: (Units=1/GPa)
#
#
# Indices 1 2 3 4 5 6 
#
# 1 0.026900 -0.000530 -0.001284 0.000000 0.000000 0.000000
# 2 -0.000530 0.006436 -0.002891 0.000000 0.000000 0.000000
# 3 -0.001284 -0.002891 0.013218 0.000000 0.000000 0.000000
# 4 0.000000 0.000000 0.000000 0.037218 0.000000 0.000000
# 5 0.000000 0.000000 0.000000 0.000000 -0.311421 0.000000
# 6 0.000000 0.000000 0.000000 0.000000 0.000000 0.040165
#
#
# Mechanical properties :
#
#
# Convention : Reuss Voigt Hill
#
# Bulk Modulus (GPa) = 26.92166 43.53447 35.22806
# Shear Modulus (GPa) = -30.17633 26.15523 -2.01055
#
# Velocity S-wave (km/s) = -3.55302 3.30783 -0.91711
# Velocity P-wave (km/s) = 2.35998 5.72723 3.68996
#
# Compressibility (1/GPa) = 0.03714482
#
# Stress axis : x y z
#
# Youngs Moduli (GPa) = 37.17455 155.36929 75.65663
#
# Poissons Ratio (x) = 0.08229 0.09713
# Poissons Ratio (y) = 0.01969 0.21873
# Poissons Ratio (z) = 0.04773 0.44919
#
# Static dielectric constant tensor:
#      x y z
#    x 1.947560 0.000000 0.000000 
#    y 0.000000 1.952280 0.000000 
#    z 0.000000 0.000000 1.901740 
# 
# From -- ./inp_files/19632.got.cif
#   From: 2010.05.17/outbox.cif.g08.bks.cpg/sg67_10_cif.got.tgz:19632.got - 2010.06.03 18:28:57.
