data_PCOD9503245
_publ_section_title
;
Structure prediction by ZEFSAII (Michael W. Deem and Ramdas Pophale) SiO2 
 PCOD9503245
Probable space group: C M M A
;
_chemical_formula_sum "Si O2"
_cell_formula_units_Z 96
_cell_length_a 14.012409
_cell_length_b 19.424215
_cell_length_c 14.846531
_cell_angle_alpha 90.000000
_cell_angle_beta 90.000000
_cell_angle_gamma 90.000000
_cell_volume 4040.929477
_symmetry_space_group_name_H-M "C M M A"
_symmetry_group_IT_number 67
_symmetry_cell_setting 'orthorhombic'
loop_
_space_group_symop_operation_xyz
x,y,z
-x,1/2-y,z
x,-y,-z
-x,1/2+y,-z
-x,-y,-z
x,1/2+y,-z
-x,y,z
x,1/2-y,z
1/2+x,1/2+y,z
1/2-x,-y,z
1/2+x,1/2-y,-z
1/2-x,y,-z
1/2-x,1/2-y,-z
1/2+x,y,-z
1/2-x,1/2+y,z
1/2+x,-y,z
loop_
_atom_site_type_symbol
_atom_site_label
_atom_site_fract_x
_atom_site_fract_y
_atom_site_fract_z
Si Si1 0.607622 0.997694 0.334021
Si Si2 0.609685 0.590066 0.825574
Si Si3 0.819317 0.642150 0.620323
Si Si4 0.393505 0.853105 0.573328
Si Si5 0.611371 0.331137 0.990818
Si Si6 0.292189 0.828657 0.193616
O O1 0.500000 0.969074 0.342215
O O2 0.679851 0.940721 0.368776
O O3 0.621396 0.017971 0.227815
O O4 0.607551 0.067308 0.393002
O O5 0.500000 0.610469 0.804955
O O6 0.694174 0.633785 0.783704
O O7 0.622291 0.611932 0.930275
O O8 0.712172 0.671307 0.604866
O O9 0.883241 0.656360 0.533809
O O10 0.856131 0.665717 0.717708
O O11 0.500000 0.827590 0.601325
O O12 0.500000 0.328676 0.969712
O O13 0.636373 0.250000 0.014982
O O14 0.665047 0.353444 0.900612
O O15 0.270323 0.750000 0.178343
#
# Coordination Sequence:
#
# PCOD9503245 Si02
#       6
#    16  16  16  16  16  16
#     4  10  20  36  61  91 118 148 191 243 299 355
#     4  10  20  36  60  90 121 149 191 247 296 346
#     4  11  22  37  61  87 121 156 193 247 299 346
#     4  10  21  38  60  88 115 152 200 241 290 355
#     4   9  19  37  60  85 116 159 206 246 286 342
#     4  11  23  38  60  88 119 158 202 244 292 350
#
# _framework density 23.756910000000001
#
# number of rings (size 3 to 8) (size 9 to 14) (size 15 to 20)
#    0.000    1.833    1.667    2.500    0.000    6.333 
#    0.000    2.500    0.000    6.000    0.000    0.000 
#    0.000    1.333    0.000    0.000    0.000    0.000 
#
# Total GULP energy -267382.830865 kJ/mol
# GULP energy per Si atom -5570.475643 kJ/mol
# Density = 2.370284 g / cm^3
# Si number density = 23.756910 Si / 1000 Ang^3
#
#
#
# Elastic Constant Matrix: (Units=GPa)
#
#
# Indices 1 2 3 4 5 6 
#
# 1 103.9779 23.8236 28.1104 0.0000 0.0000 0.0000
# 2 23.8236 50.6442 5.5695 0.0000 0.0000 0.0000
# 3 28.1104 5.5695 128.5449 0.0000 0.0000 0.0000
# 4 0.0000 0.0000 0.0000 53.7573 0.0000 0.0000
# 5 0.0000 0.0000 0.0000 0.0000 15.1687 0.0000
# 6 0.0000 0.0000 0.0000 0.0000 0.0000 23.5450
#
#
#
# Elastic Compliance Matrix: (Units=1/GPa)
#
#
# Indices 1 2 3 4 5 6 
#
# 1 0.011404 -0.005114 -0.002272 0.000000 0.000000 0.000000
# 2 -0.005114 0.022134 0.000159 0.000000 0.000000 0.000000
# 3 -0.002272 0.000159 0.008269 0.000000 0.000000 0.000000
# 4 0.000000 0.000000 0.000000 0.018602 0.000000 0.000000
# 5 0.000000 0.000000 0.000000 0.000000 0.065925 0.000000
# 6 0.000000 0.000000 0.000000 0.000000 0.000000 0.042472
#
#
# Mechanical properties :
#
#
# Convention : Reuss Voigt Hill
#
# Bulk Modulus (GPa) = 36.55976 44.24155 40.40066
# Shear Modulus (GPa) = 25.99054 33.53846 29.76450
#
# Velocity S-wave (km/s) = 3.31119 3.76138 3.54344
# Velocity P-wave (km/s) = 5.48098 6.12593 5.81241
#
# Compressibility (1/GPa) = 0.02735247
#
# Stress axis : x y z
#
# Youngs Moduli (GPa) = 87.69204 45.17944 120.92847
#
# Poissons Ratio (x) = 0.23107 0.27477
# Poissons Ratio (y) = 0.44850 -0.01928
# Poissons Ratio (z) = 0.19925 -0.00720
#
# Static dielectric constant tensor:
#      x y z
#    x 1.929380 0.000000 0.000000 
#    y 0.000000 1.914240 0.000000 
#    z 0.000000 0.000000 2.012420 
# 
# From -- ./inp_files/27197.got.cif
#   From: 2010.05.17/outbox.cif.g08.bks.cpg/sg67_14_cif.got.tgz:27197.got - 2010.06.03 18:28:57.
