data_PCOD9503561
_publ_section_title
;
Structure prediction by ZEFSAII (Michael W. Deem and Ramdas Pophale) SiO2 
 PCOD9503561
Probable space group: C M M A
;
_chemical_formula_sum "Si O2"
_cell_formula_units_Z 64
_cell_length_a 14.186230
_cell_length_b 11.261392
_cell_length_c 18.936156
_cell_angle_alpha 90.000000
_cell_angle_beta 90.000000
_cell_angle_gamma 90.000000
_cell_volume 3025.177737
_symmetry_space_group_name_H-M "C M M A"
_symmetry_group_IT_number 67
_symmetry_cell_setting 'orthorhombic'
loop_
_space_group_symop_operation_xyz
x,y,z
-x,1/2-y,z
x,-y,-z
-x,1/2+y,-z
-x,-y,-z
x,1/2+y,-z
-x,y,z
x,1/2-y,z
1/2+x,1/2+y,z
1/2-x,-y,z
1/2+x,1/2-y,-z
1/2-x,y,-z
1/2-x,1/2-y,-z
1/2+x,y,-z
1/2-x,1/2+y,z
1/2+x,-y,z
loop_
_atom_site_type_symbol
_atom_site_label
_atom_site_fract_x
_atom_site_fract_y
_atom_site_fract_z
Si Si1 0.786060 0.875319 0.081322
Si Si2 0.000000 0.882763 0.795444
Si Si3 0.855659 0.619826 0.532001
Si Si4 0.500000 0.438164 0.075887
Si Si5 0.316404 0.385900 0.698242
O O1 0.751680 0.750000 0.113449
O O2 0.899080 0.875091 0.081089
O O3 0.750000 0.000000 0.112905
O O4 0.750000 0.875781 0.000000
O O5 0.092141 0.897022 0.747254
O O6 0.000000 0.750000 0.824765
O O7 0.000000 0.970184 0.860363
O O8 0.898548 0.500000 0.500000
O O9 0.896900 0.750000 0.515553
O O10 0.750000 0.623478 0.500000
O O11 0.847919 0.608239 0.616270
O O12 0.500000 0.500000 0.000000
O O13 0.276785 0.250000 0.707886
O O14 0.250000 0.500000 0.710882
#
# Coordination Sequence:
#
# PCOD9503561 Si02
#       5
#    16   8  16   8  16
#     4  10  21  39  63  95 126 155 195 251 321 388
#     4  10  26  45  65  94 129 175 222 264 330 404
#     4   9  15  26  54  90 123 164 214 260 311 365
#     4  12  23  43  66  93 124 164 209 278 331 385
#     4  10  20  40  65  91 131 176 219 267 320 387
#
# _framework density 21.155781000000001
#
# number of rings (size 3 to 8) (size 9 to 14) (size 15 to 20)
#    0.000    2.000    5.000    0.375    0.000    3.000 
#    0.000    6.250    0.000    0.000    0.000    0.000 
#    0.000    0.000    0.000    0.000    0.000    0.000 
#
# Total GULP energy -178506.582327 kJ/mol
# GULP energy per Si atom -5578.330698 kJ/mol
# Density = 2.110763 g / cm^3
# Si number density = 21.155781 Si / 1000 Ang^3
#
#
#
# Elastic Constant Matrix: (Units=GPa)
#
#
# Indices 1 2 3 4 5 6 
#
# 1 113.6865 71.8534 18.7233 0.0000 0.0000 0.0000
# 2 71.8534 265.8333 46.5910 0.0000 0.0000 0.0000
# 3 18.7233 46.5910 110.9393 0.0000 0.0000 0.0000
# 4 0.0000 0.0000 0.0000 -9.1896 0.0000 0.0000
# 5 0.0000 0.0000 0.0000 0.0000 25.2931 0.0000
# 6 0.0000 0.0000 0.0000 0.0000 0.0000 2.0367
#
#
#
# Elastic Compliance Matrix: (Units=1/GPa)
#
#
# Indices 1 2 3 4 5 6 
#
# 1 0.010650 -0.002767 -0.000635 0.000000 0.000000 0.000000
# 2 -0.002767 0.004780 -0.001540 0.000000 0.000000 0.000000
# 3 -0.000635 -0.001540 0.009768 0.000000 0.000000 0.000000
# 4 0.000000 0.000000 0.000000 -0.108819 0.000000 0.000000
# 5 0.000000 0.000000 0.000000 0.000000 0.039536 0.000000
# 6 0.000000 0.000000 0.000000 0.000000 0.000000 0.490982
#
#
# Mechanical properties :
#
#
# Convention : Reuss Voigt Hill
#
# Bulk Modulus (GPa) = 65.30846 84.97718 75.14282
# Shear Modulus (GPa) = 10.82516 27.18081 19.00299
#
# Velocity S-wave (km/s) = 2.26451 3.58829 3.00032
# Velocity P-wave (km/s) = 6.14610 7.57775 6.89916
#
# Compressibility (1/GPa) = 0.01531195
#
# Stress axis : x y z
#
# Youngs Moduli (GPa) = 93.89925 209.21889 102.37491
#
# Poissons Ratio (x) = 0.57896 0.06503
# Poissons Ratio (y) = 0.25984 0.15769
# Poissons Ratio (z) = 0.05965 0.32226
#
# Static dielectric constant tensor:
#      x y z
#    x 1.740930 0.000000 0.000000 
#    y 0.000000 1.798890 0.000000 
#    z 0.000000 0.000000 1.696030 
# 
# From -- ./inp_files/33407.got.cif
#   From: 2010.05.17/outbox.cif.g08.bks.cpg/sg67_17_cif.got.tgz:33407.got - 2010.06.03 18:28:57.
