data_PCOD9503893
_publ_section_title
;
Structure prediction by ZEFSAII (Michael W. Deem and Ramdas Pophale) SiO2 
 PCOD9503893
Probable space group: C M M A
;
_chemical_formula_sum "Si O2"
_cell_formula_units_Z 64
_cell_length_a 18.190226
_cell_length_b 21.998058
_cell_length_c 8.260754
_cell_angle_alpha 90.000000
_cell_angle_beta 90.000000
_cell_angle_gamma 90.000000
_cell_volume 3305.537794
_symmetry_space_group_name_H-M "C M M A"
_symmetry_group_IT_number 67
_symmetry_cell_setting 'orthorhombic'
loop_
_space_group_symop_operation_xyz
x,y,z
-x,1/2-y,z
x,-y,-z
-x,1/2+y,-z
-x,-y,-z
x,1/2+y,-z
-x,y,z
x,1/2-y,z
1/2+x,1/2+y,z
1/2-x,-y,z
1/2+x,1/2-y,-z
1/2-x,y,-z
1/2-x,1/2-y,-z
1/2+x,y,-z
1/2-x,1/2+y,z
1/2+x,-y,z
loop_
_atom_site_type_symbol
_atom_site_label
_atom_site_fract_x
_atom_site_fract_y
_atom_site_fract_z
Si Si1 0.000000 0.403097 0.888793
Si Si2 0.114737 0.678061 0.287073
Si Si3 0.000000 0.033377 0.244517
Si Si4 0.225489 0.822347 0.824973
Si Si5 0.580470 0.135822 0.646716
O O1 0.929692 0.361446 0.844823
O O2 0.000000 0.461906 0.771866
O O3 0.000000 0.434068 0.066080
O O4 0.101814 0.750000 0.259401
O O5 0.202178 0.667652 0.282442
O O6 0.088741 0.658914 0.464762
O O7 0.931413 0.063244 0.338210
O O8 0.214646 0.750000 0.841010
O O9 0.150479 0.846803 0.751494
O O10 0.250000 0.846704 0.000000
O O11 0.500000 0.160275 0.704793
#
# Coordination Sequence:
#
# PCOD9503893 Si02
#       5
#     8  16   8  16  16
#     4  11  20  40  61  85 118 159 200 251 290 356
#     4  11  22  36  60  90 121 156 197 244 299 354
#     4   9  23  38  59  85 117 159 202 245 296 342
#     4  10  21  37  57  86 123 159 196 244 296 350
#     4  10  21  38  59  85 122 153 198 242 293 356
#
# _framework density 19.361447999999999
#
# number of rings (size 3 to 8) (size 9 to 14) (size 15 to 20)
#    0.750    1.000    1.250    3.375    0.000    5.500 
#    0.000    5.000    0.000    7.500    0.000    0.000 
#    0.000    0.000    0.000    0.000    0.000    0.000 
#
# Total GULP energy -178325.158180 kJ/mol
# GULP energy per Si atom -5572.661193 kJ/mol
# Density = 1.931738 g / cm^3
# Si number density = 19.361448 Si / 1000 Ang^3
#
#
#
# Elastic Constant Matrix: (Units=GPa)
#
#
# Indices 1 2 3 4 5 6 
#
# 1 108.5455 46.7897 39.5725 0.0000 0.0000 0.0000
# 2 46.7897 97.7201 21.9982 0.0000 0.0000 0.0000
# 3 39.5725 21.9982 53.6907 0.0000 0.0000 0.0000
# 4 0.0000 0.0000 0.0000 27.7891 0.0000 0.0000
# 5 0.0000 0.0000 0.0000 0.0000 16.1132 0.0000
# 6 0.0000 0.0000 0.0000 0.0000 0.0000 119.5460
#
#
#
# Elastic Compliance Matrix: (Units=1/GPa)
#
#
# Indices 1 2 3 4 5 6 
#
# 1 0.014527 -0.005007 -0.008655 0.000000 0.000000 0.000000
# 2 -0.005007 0.012999 -0.001636 0.000000 0.000000 0.000000
# 3 -0.008655 -0.001636 0.025675 0.000000 0.000000 0.000000
# 4 0.000000 0.000000 0.000000 0.035985 0.000000 0.000000
# 5 0.000000 0.000000 0.000000 0.000000 0.062061 0.000000
# 6 0.000000 0.000000 0.000000 0.000000 0.000000 0.008365
#
#
# Mechanical properties :
#
#
# Convention : Reuss Voigt Hill
#
# Bulk Modulus (GPa) = 44.23902 52.96411 48.60157
# Shear Modulus (GPa) = 25.28554 42.79607 34.04080
#
# Velocity S-wave (km/s) = 3.61775 4.70656 4.19761
# Velocity P-wave (km/s) = 6.35212 7.54655 6.97495
#
# Compressibility (1/GPa) = 0.02260448
#
# Stress axis : x y z
#
# Youngs Moduli (GPa) = 68.83966 76.92932 38.94906
#
# Poissons Ratio (x) = 0.38519 0.33711
# Poissons Ratio (y) = 0.34469 0.06370
# Poissons Ratio (z) = 0.59582 0.12582
#
# Static dielectric constant tensor:
#      x y z
#    x 1.690190 0.000000 0.000000 
#    y 0.000000 1.674600 0.000000 
#    z 0.000000 0.000000 1.742830 
# 
# From -- ./inp_files/9647.got.cif
#   From: 2010.05.17/outbox.cif.g08.bks.cpg/sg67_5_cif.got.tgz:9647.got - 2010.06.03 18:28:57.
