data_PCOD9503171
_publ_section_title
;
Structure prediction by ZEFSAII (Michael W. Deem and Ramdas Pophale) SiO2 
 PCOD9503171
Probable space group: C M M A
;
_chemical_formula_sum "Si O2"
_cell_formula_units_Z 112
_cell_length_a 30.754348
_cell_length_b 13.456345
_cell_length_c 11.168649
_cell_angle_alpha 90.000000
_cell_angle_beta 90.000000
_cell_angle_gamma 90.000000
_cell_volume 4622.046177
_symmetry_space_group_name_H-M "C M M A"
_symmetry_group_IT_number 67
_symmetry_cell_setting 'orthorhombic'
loop_
_space_group_symop_operation_xyz
x,y,z
-x,1/2-y,z
x,-y,-z
-x,1/2+y,-z
-x,-y,-z
x,1/2+y,-z
-x,y,z
x,1/2-y,z
1/2+x,1/2+y,z
1/2-x,-y,z
1/2+x,1/2-y,-z
1/2-x,y,-z
1/2-x,1/2-y,-z
1/2+x,y,-z
1/2-x,1/2+y,z
1/2+x,-y,z
loop_
_atom_site_type_symbol
_atom_site_label
_atom_site_fract_x
_atom_site_fract_y
_atom_site_fract_z
Si Si1 0.550763 0.056316 0.829453
Si Si2 0.183558 0.135808 0.306776
Si Si3 0.816628 0.039242 0.875817
Si Si4 0.450134 0.870055 0.439334
Si Si5 0.220908 0.366930 0.662435
Si Si6 0.909588 0.634870 0.070425
Si Si7 0.866719 0.637672 0.451203
O O1 0.500000 0.076369 0.854100
O O2 0.559159 0.089604 0.693991
O O3 0.561039 0.940570 0.852571
O O4 0.578621 0.113015 0.931312
O O5 0.189118 0.250000 0.263659
O O6 0.229810 0.104227 0.368347
O O7 0.148194 0.139195 0.410774
O O8 0.173390 0.058658 0.203294
O O9 0.783420 0.107196 0.802091
O O10 0.860467 0.100816 0.901213
O O11 0.799285 0.000000 0.000000
O O12 0.500000 0.893116 0.470398
O O13 0.446402 0.750000 0.432076
O O14 0.415410 0.902014 0.540751
O O15 0.218983 0.250000 0.633643
O O16 0.175143 0.409897 0.612663
O O17 0.915924 0.750000 0.097437
O O18 0.869841 0.750000 0.402687
#
# Coordination Sequence:
#
# PCOD9503171 Si02
#       7
#    16  16  16  16  16  16  16
#     4  10  20  36  58  92 131 170 223 281 330 392
#     4  10  22  40  65  93 125 166 222 279 336 399
#     4  12  25  42  60  89 127 172 217 265 326 397
#     4   9  17  31  58  97 138 176 214 263 325 395
#     4  10  22  41  64  93 127 169 214 274 341 398
#     4  11  22  37  57  86 125 173 226 277 328 386
#     4   9  18  35  62  94 130 168 215 274 333 394
#
# _framework density 24.231691999999999
#
# number of rings (size 3 to 8) (size 9 to 14) (size 15 to 20)
#    0.000    1.857    1.429    3.429    0.000    6.286 
#    0.000    2.857    0.000    1.714    0.000    7.000 
#    0.000    0.000    0.000    0.000    0.000    0.000 
#
# Total GULP energy -313198.030665 kJ/mol
# GULP energy per Si atom -5592.821976 kJ/mol
# Density = 2.417654 g / cm^3
# Si number density = 24.231692 Si / 1000 Ang^3
#
#
#
# Elastic Constant Matrix: (Units=GPa)
#
#
# Indices 1 2 3 4 5 6 
#
# 1 143.6574 6.5815 35.4076 0.0000 0.0000 0.0000
# 2 6.5815 128.7757 19.1547 0.0000 0.0000 0.0000
# 3 35.4076 19.1547 60.2951 0.0000 0.0000 0.0000
# 4 0.0000 0.0000 0.0000 21.0172 0.0000 0.0000
# 5 0.0000 0.0000 0.0000 0.0000 29.3676 0.0000
# 6 0.0000 0.0000 0.0000 0.0000 0.0000 23.0214
#
#
#
# Elastic Compliance Matrix: (Units=1/GPa)
#
#
# Indices 1 2 3 4 5 6 
#
# 1 0.008151 0.000310 -0.004885 0.000000 0.000000 0.000000
# 2 0.000310 0.008162 -0.002775 0.000000 0.000000 0.000000
# 3 -0.004885 -0.002775 0.020335 0.000000 0.000000 0.000000
# 4 0.000000 0.000000 0.000000 0.047580 0.000000 0.000000
# 5 0.000000 0.000000 0.000000 0.000000 0.034051 0.000000
# 6 0.000000 0.000000 0.000000 0.000000 0.000000 0.043438
#
#
# Mechanical properties :
#
#
# Convention : Reuss Voigt Hill
#
# Bulk Modulus (GPa) = 45.56128 50.55729 48.05928
# Shear Modulus (GPa) = 27.21329 32.78687 30.00008
#
# Velocity S-wave (km/s) = 3.35482 3.68238 3.52241
# Velocity P-wave (km/s) = 5.81804 6.24414 6.03486
#
# Compressibility (1/GPa) = 0.02194846
#
# Stress axis : x y z
#
# Youngs Moduli (GPa) = 122.68719 122.51336 49.17553
#
# Poissons Ratio (x) = -0.03798 0.24022
# Poissons Ratio (y) = -0.03804 0.13647
# Poissons Ratio (z) = 0.59932 0.33999
#
# Static dielectric constant tensor:
#      x y z
#    x 1.959230 0.000000 0.000000 
#    y 0.000000 1.944470 0.000000 
#    z 0.000000 0.000000 1.929550 
# 
# From -- ./inp_files/23859.got.cif
#   From: 2010.05.17/outbox.cif.g08.bks.cpg/sg67_12_cif.got.tgz:23859.got - 2010.06.03 18:28:57.
