data_PCOD9503299
_publ_section_title
;
Structure prediction by ZEFSAII (Michael W. Deem and Ramdas Pophale) SiO2 
 PCOD9503299
Probable space group: C M M A
;
_chemical_formula_sum "Si O2"
_cell_formula_units_Z 96
_cell_length_a 24.227869
_cell_length_b 8.695138
_cell_length_c 26.728870
_cell_angle_alpha 90.000000
_cell_angle_beta 90.000000
_cell_angle_gamma 90.000000
_cell_volume 5630.828428
_symmetry_space_group_name_H-M "C M M A"
_symmetry_group_IT_number 67
_symmetry_cell_setting 'orthorhombic'
loop_
_space_group_symop_operation_xyz
x,y,z
-x,1/2-y,z
x,-y,-z
-x,1/2+y,-z
-x,-y,-z
x,1/2+y,-z
-x,y,z
x,1/2-y,z
1/2+x,1/2+y,z
1/2-x,-y,z
1/2+x,1/2-y,-z
1/2-x,y,-z
1/2-x,1/2-y,-z
1/2+x,y,-z
1/2-x,1/2+y,z
1/2+x,-y,z
loop_
_atom_site_type_symbol
_atom_site_label
_atom_site_fract_x
_atom_site_fract_y
_atom_site_fract_z
Si Si1 0.000000 0.433902 0.712802
Si Si2 0.188693 0.935250 0.647970
Si Si3 0.114433 0.434783 0.446030
Si Si4 0.687694 0.433943 0.949424
Si Si5 0.688027 0.435449 0.838775
Si Si6 0.000000 0.065168 0.595156
Si Si7 0.383734 0.063914 0.743922
O O1 0.000000 0.479027 0.653909
O O2 0.944768 0.498160 0.737969
O O3 0.000000 0.250000 0.714961
O O4 0.191343 0.750000 0.648780
O O5 0.157302 0.981738 0.597271
O O6 0.152355 0.984020 0.695722
O O7 0.250000 0.000000 0.650639
O O8 0.130112 0.500000 0.500000
O O9 0.112102 0.250000 0.447751
O O10 0.054574 0.498769 0.430620
O O11 0.689743 0.250000 0.953471
O O12 0.750000 0.500000 0.948524
O O13 0.665693 0.476155 0.894314
O O14 0.660880 0.500000 0.000000
O O15 0.692159 0.250000 0.836958
O O16 0.750000 0.500000 0.832669
O O17 0.648204 0.485616 0.794052
O O18 0.000000 0.250000 0.591409
O O19 0.386849 0.250000 0.743930
#
# Coordination Sequence:
#
# PCOD9503299 Si02
#       7
#     8  16  16  16  16   8  16
#     4  11  23  36  56  83 104 129 166 211 257 302
#     4  10  22  37  56  78 103 136 171 204 248 301
#     4  11  23  39  58  81 106 136 170 208 253 304
#     4   9  15  24  39  64  97 135 174 210 248 293
#     4   9  18  30  48  74 105 139 175 211 252 301
#     4  11  22  38  59  83 106 131 165 211 258 302
#     4  10  20  37  56  76 103 136 170 208 255 308
#
# _framework density 17.049001000000001
#
# number of rings (size 3 to 8) (size 9 to 14) (size 15 to 20)
#    0.000    2.000    1.667    2.750    0.000    4.333 
#    0.000    1.667    0.000    0.000    0.000    0.583 
#    0.000    0.000    0.000    0.000    0.000    0.000 
#
# Total GULP energy -267833.435263 kJ/mol
# GULP energy per Si atom -5579.863235 kJ/mol
# Density = 1.701020 g / cm^3
# Si number density = 17.049001 Si / 1000 Ang^3
#
#
#
# Elastic Constant Matrix: (Units=GPa)
#
#
# Indices 1 2 3 4 5 6 
#
# 1 121.0091 24.5207 80.6752 0.0000 0.0000 0.0000
# 2 24.5207 28.9896 41.2742 0.0000 0.0000 0.0000
# 3 80.6752 41.2742 192.1371 0.0000 0.0000 0.0000
# 4 0.0000 0.0000 0.0000 13.1083 0.0000 0.0000
# 5 0.0000 0.0000 0.0000 0.0000 -3.2359 0.0000
# 6 0.0000 0.0000 0.0000 0.0000 0.0000 27.3569
#
#
#
# Elastic Compliance Matrix: (Units=1/GPa)
#
#
# Indices 1 2 3 4 5 6 
#
# 1 0.011825 -0.004225 -0.004058 0.000000 0.000000 0.000000
# 2 -0.004225 0.051204 -0.009225 0.000000 0.000000 0.000000
# 3 -0.004058 -0.009225 0.008890 0.000000 0.000000 0.000000
# 4 0.000000 0.000000 0.000000 0.076288 0.000000 0.000000
# 5 0.000000 0.000000 0.000000 0.000000 -0.309031 0.000000
# 6 0.000000 0.000000 0.000000 0.000000 0.000000 0.036554
#
#
# Mechanical properties :
#
#
# Convention : Reuss Voigt Hill
#
# Bulk Modulus (GPa) = 27.09835 70.56400 48.83118
# Shear Modulus (GPa) = -64.97407 20.49024 -22.24191
#
# Velocity S-wave (km/s) = -6.18004 3.47052 -3.61583
# Velocity P-wave (km/s) = 5.91566 7.58539 3.35732
#
# Compressibility (1/GPa) = 0.03690261
#
# Stress axis : x y z
#
# Youngs Moduli (GPa) = 84.56578 19.52991 112.48548
#
# Poissons Ratio (x) = 0.08252 0.45641
# Poissons Ratio (y) = 0.35731 1.03771
# Poissons Ratio (z) = 0.34313 0.18017
#
# Static dielectric constant tensor:
#      x y z
#    x 1.527740 0.000000 0.000000 
#    y 0.000000 1.576070 0.000000 
#    z 0.000000 0.000000 1.618410 
# 
# From -- ./inp_files/42572.got.cif
#   From: 2010.05.17/outbox.cif.g08.bks.cpg/sg67_22_cif.got.tgz:42572.got - 2010.06.03 18:28:57.
