data_PCOD9503916
_publ_section_title
;
Structure prediction by ZEFSAII (Michael W. Deem and Ramdas Pophale) SiO2 
 PCOD9503916
Probable space group: C M M A
;
_chemical_formula_sum "Si O2"
_cell_formula_units_Z 80
_cell_length_a 17.304898
_cell_length_b 26.892265
_cell_length_c 9.020402
_cell_angle_alpha 90.000000
_cell_angle_beta 90.000000
_cell_angle_gamma 90.000000
_cell_volume 4197.805561
_symmetry_space_group_name_H-M "C M M A"
_symmetry_group_IT_number 67
_symmetry_cell_setting 'orthorhombic'
loop_
_space_group_symop_operation_xyz
x,y,z
-x,1/2-y,z
x,-y,-z
-x,1/2+y,-z
-x,-y,-z
x,1/2+y,-z
-x,y,z
x,1/2-y,z
1/2+x,1/2+y,z
1/2-x,-y,z
1/2+x,1/2-y,-z
1/2-x,y,-z
1/2-x,1/2-y,-z
1/2+x,y,-z
1/2-x,1/2+y,z
1/2+x,-y,z
loop_
_atom_site_type_symbol
_atom_site_label
_atom_site_fract_x
_atom_site_fract_y
_atom_site_fract_z
Si Si1 0.407778 0.155661 0.578061
Si Si2 0.092675 0.545823 0.888871
Si Si3 0.832282 0.250000 0.923405
Si Si4 0.591937 0.157211 0.920648
Si Si5 0.662929 0.050181 0.567449
Si Si6 0.833701 0.250000 0.573308
O O1 0.500000 0.154593 0.577368
O O2 0.381830 0.163353 0.749346
O O3 0.376754 0.102203 0.527012
O O4 0.377584 0.200921 0.481559
O O5 0.108001 0.599803 0.962443
O O6 0.147445 0.543996 0.744013
O O7 0.000000 0.545907 0.845909
O O8 0.104968 0.500000 0.000000
O O9 0.826613 0.250000 0.748334
O O10 0.750000 0.250000 0.000000
O O11 0.873549 0.199883 0.978579
O O12 0.500000 0.163405 0.921643
O O13 0.750000 0.052628 0.500000
O O14 0.627204 0.000000 0.500000
O O15 0.750000 0.250000 0.500000
#
# Coordination Sequence:
#
# PCOD9503916 Si02
#       6
#    16  16   8  16  16   8
#     4  10  21  39  63  88 116 154 196 239 291 351
#     4   9  19  38  64  90 116 152 199 248 297 352
#     4  12  25  38  57  83 111 151 195 236 285 342
#     4   9  19  38  62  86 115 148 186 236 290 343
#     4  10  21  37  58  88 123 159 196 239 297 357
#     4  12  25  40  59  85 121 155 191 242 297 354
#
# _framework density 19.057576000000001
#
# number of rings (size 3 to 8) (size 9 to 14) (size 15 to 20)
#    0.000    2.000    0.000    4.800    0.000    8.000 
#    0.000    8.000    0.000    0.000    0.000    0.000 
#    0.000    0.000    0.000    0.000    0.000    0.000 
#
# Total GULP energy -223169.371727 kJ/mol
# GULP energy per Si atom -5579.234293 kJ/mol
# Density = 1.901420 g / cm^3
# Si number density = 19.057576 Si / 1000 Ang^3
#
#
#
# Elastic Constant Matrix: (Units=GPa)
#
#
# Indices 1 2 3 4 5 6 
#
# 1 66.2446 60.2759 55.3046 0.0000 0.0000 0.0000
# 2 60.2759 202.0444 105.6607 0.0000 0.0000 0.0000
# 3 55.3046 105.6607 115.2570 0.0000 0.0000 0.0000
# 4 0.0000 0.0000 0.0000 36.1214 0.0000 0.0000
# 5 0.0000 0.0000 0.0000 0.0000 31.4123 0.0000
# 6 0.0000 0.0000 0.0000 0.0000 0.0000 -0.8556
#
#
#
# Elastic Compliance Matrix: (Units=1/GPa)
#
#
# Indices 1 2 3 4 5 6 
#
# 1 0.025750 -0.002344 -0.010206 0.000000 0.000000 0.000000
# 2 -0.002344 0.009721 -0.007787 0.000000 0.000000 0.000000
# 3 -0.010206 -0.007787 0.020712 0.000000 0.000000 0.000000
# 4 0.000000 0.000000 0.000000 0.027684 0.000000 0.000000
# 5 0.000000 0.000000 0.000000 0.000000 0.031835 0.000000
# 6 0.000000 0.000000 0.000000 0.000000 0.000000 -1.168709
#
#
# Mechanical properties :
#
#
# Convention : Reuss Voigt Hill
#
# Bulk Modulus (GPa) = 64.48430 91.78094 78.13262
# Shear Modulus (GPa) = -4.96444 24.15592 9.59574
#
# Velocity S-wave (km/s) = -1.61574 3.56409 2.24634
# Velocity P-wave (km/s) = 5.51627 8.07474 6.91486
#
# Compressibility (1/GPa) = 0.01550765
#
# Stress axis : x y z
#
# Youngs Moduli (GPa) = 38.83555 102.87154 48.28121
#
# Poissons Ratio (x) = 0.24117 0.49278
# Poissons Ratio (y) = 0.09104 0.37595
# Poissons Ratio (z) = 0.39637 0.80102
#
# Static dielectric constant tensor:
#      x y z
#    x 1.666410 0.000000 0.000000 
#    y 0.000000 1.668070 0.000000 
#    z 0.000000 0.000000 1.659180 
# 
# From -- ./inp_files/10018.got.cif
#   From: 2010.05.17/outbox.cif.g08.bks.cpg/sg67_6_cif.got.tgz:10018.got - 2010.06.03 18:28:57.
