data_PCOD9503612
_publ_section_title
;
Structure prediction by ZEFSAII (Michael W. Deem and Ramdas Pophale) SiO2 
 PCOD9503612
Probable space group: C M M A
;
_chemical_formula_sum "Si O2"
_cell_formula_units_Z 80
_cell_length_a 33.980128
_cell_length_b 21.741176
_cell_length_c 5.170385
_cell_angle_alpha 90.000000
_cell_angle_beta 90.000000
_cell_angle_gamma 90.000000
_cell_volume 3819.714693
_symmetry_space_group_name_H-M "C M M A"
_symmetry_group_IT_number 67
_symmetry_cell_setting 'orthorhombic'
loop_
_space_group_symop_operation_xyz
x,y,z
-x,1/2-y,z
x,-y,-z
-x,1/2+y,-z
-x,-y,-z
x,1/2+y,-z
-x,y,z
x,1/2-y,z
1/2+x,1/2+y,z
1/2-x,-y,z
1/2+x,1/2-y,-z
1/2-x,y,-z
1/2-x,1/2-y,-z
1/2+x,y,-z
1/2-x,1/2+y,z
1/2+x,-y,z
loop_
_atom_site_type_symbol
_atom_site_label
_atom_site_fract_x
_atom_site_fract_y
_atom_site_fract_z
Si Si1 0.647081 0.104471 0.377171
Si Si2 0.457141 0.362711 0.862678
Si Si3 0.267790 0.568944 0.745196
Si Si4 0.869581 0.319586 0.114336
Si Si5 0.559774 0.437157 0.360319
O O1 0.685820 0.066945 0.299573
O O2 0.645532 0.133537 0.663955
O O3 0.607252 0.065328 0.345621
O O4 0.645081 0.158596 0.165046
O O5 0.500000 0.333199 0.900036
O O6 0.417268 0.324626 0.901862
O O7 0.453795 0.386372 0.568308
O O8 0.454494 0.418418 0.074340
O O9 0.250000 0.500000 0.747461
O O10 0.250000 0.602949 0.500000
O O11 0.250000 0.598792 0.000000
O O12 0.858386 0.250000 0.175427
O O13 0.547521 0.500000 0.500000
#
# Coordination Sequence:
#
# PCOD9503612 Si02
#       5
#    16  16  16  16  16
#     4  10  21  38  58  85 120 145 190 240 276 343
#     4  10  21  36  53  82 115 146 196 247 283 331
#     4  10  21  36  57  89 118 151 176 227 288 343
#     4  10  21  39  62  83 108 155 199 237 290 330
#     4  10  21  34  53  81 113 160 189 224 285 353
#
# _framework density 20.94397
#
# number of rings (size 3 to 8) (size 9 to 14) (size 15 to 20)
#    0.000    2.000    0.000    3.000    2.800    2.800 
#    7.200    0.000    0.000   19.200    0.000    0.000 
#    0.000    0.000    0.000    0.000    0.000    0.000 
#
# Total GULP energy -223039.153356 kJ/mol
# GULP energy per Si atom -5575.978834 kJ/mol
# Density = 2.089630 g / cm^3
# Si number density = 20.943970 Si / 1000 Ang^3
#
#
#
# Elastic Constant Matrix: (Units=GPa)
#
#
# Indices 1 2 3 4 5 6 
#
# 1 139.2899 13.8915 23.9313 0.0000 0.0000 0.0000
# 2 13.8915 39.6858 -11.6816 0.0000 0.0000 0.0000
# 3 23.9313 -11.6816 130.9215 0.0000 0.0000 0.0000
# 4 0.0000 0.0000 0.0000 7.1270 0.0000 0.0000
# 5 0.0000 0.0000 0.0000 0.0000 6.8542 0.0000
# 6 0.0000 0.0000 0.0000 0.0000 0.0000 -271.3190
#
#
#
# Elastic Compliance Matrix: (Units=1/GPa)
#
#
# Indices 1 2 3 4 5 6 
#
# 1 0.007796 -0.003233 -0.001714 0.000000 0.000000 0.000000
# 2 -0.003233 0.027219 0.003020 0.000000 0.000000 0.000000
# 3 -0.001714 0.003020 0.008221 0.000000 0.000000 0.000000
# 4 0.000000 0.000000 0.000000 0.140312 0.000000 0.000000
# 5 0.000000 0.000000 0.000000 0.000000 0.145895 0.000000
# 6 0.000000 0.000000 0.000000 0.000000 0.000000 -0.003686
#
#
# Mechanical properties :
#
#
# Convention : Reuss Voigt Hill
#
# Bulk Modulus (GPa) = 25.39298 40.24219 32.81759
# Shear Modulus (GPa) = 14.58838 -32.55049 -8.98106
#
# Velocity S-wave (km/s) = 2.64207 -3.94657 -2.07303
# Velocity P-wave (km/s) = 4.63227 1.22936 3.15806
#
# Compressibility (1/GPa) = 0.03938096
#
# Stress axis : x y z
#
# Youngs Moduli (GPa) = 128.26853 36.73964 121.64241
#
# Poissons Ratio (x) = 0.11879 0.20844
# Poissons Ratio (y) = 0.41474 -0.36731
# Poissons Ratio (z) = 0.21980 -0.11094
#
# Static dielectric constant tensor:
#      x y z
#    x 1.806400 0.000000 0.000000 
#    y 0.000000 1.718760 0.000000 
#    z 0.000000 0.000000 1.736120 
# 
# From -- ./inp_files/3542.got.cif
#   From: 2010.05.17/outbox.cif.g08.bks.cpg/sg67_2_cif.got.tgz:3542.got - 2010.06.03 18:28:57.
