data_PCOD9503833
_publ_section_title
;
Structure prediction by ZEFSAII (Michael W. Deem and Ramdas Pophale) SiO2 
 PCOD9503833
Probable space group: C M M A
;
_chemical_formula_sum "Si O2"
_cell_formula_units_Z 64
_cell_length_a 19.556232
_cell_length_b 21.677048
_cell_length_c 7.192578
_cell_angle_alpha 90.000000
_cell_angle_beta 90.000000
_cell_angle_gamma 90.000000
_cell_volume 3049.087590
_symmetry_space_group_name_H-M "C M M A"
_symmetry_group_IT_number 67
_symmetry_cell_setting 'orthorhombic'
loop_
_space_group_symop_operation_xyz
x,y,z
-x,1/2-y,z
x,-y,-z
-x,1/2+y,-z
-x,-y,-z
x,1/2+y,-z
-x,y,z
x,1/2-y,z
1/2+x,1/2+y,z
1/2-x,-y,z
1/2+x,1/2-y,-z
1/2-x,y,-z
1/2-x,1/2-y,-z
1/2+x,y,-z
1/2-x,1/2+y,z
1/2+x,-y,z
loop_
_atom_site_type_symbol
_atom_site_label
_atom_site_fract_x
_atom_site_fract_y
_atom_site_fract_z
Si Si1 0.217798 0.939262 0.293730
Si Si2 0.577052 0.059776 0.134277
Si Si3 0.277910 0.816808 0.289657
Si Si4 0.577393 0.820785 0.129955
O O1 0.250000 0.937683 0.500000
O O2 0.136576 0.943223 0.285550
O O3 0.241233 0.875543 0.203137
O O4 0.250000 0.000000 0.204771
O O5 0.500000 0.058358 0.209959
O O6 0.584714 0.123446 0.017043
O O7 0.584679 0.000000 0.000000
O O8 0.261875 0.750000 0.206374
O O9 0.250000 0.814018 0.500000
O O10 0.359629 0.826081 0.273301
O O11 0.500000 0.826683 0.208429
O O12 0.581808 0.750000 0.053148
#
# Coordination Sequence:
#
# PCOD9503833 Si02
#       4
#    16  16  16  16
#     4  10  21  37  54  78 110 143 180 219 264 320
#     4  10  21  37  57  81 109 141 178 221 269 320
#     4   9  18  33  52  77 110 145 182 221 265 321
#     4   9  18  33  54  80 109 142 180 223 272 323
#
# _framework density 20.989885000000001
#
# number of rings (size 3 to 8) (size 9 to 14) (size 15 to 20)
#    0.000    2.500    0.000    1.500    0.000    4.500 
#    0.000   10.000    0.000    1.500    0.000    0.000 
#    0.000    0.000    0.000    0.000    0.000    0.000 
#
# Total GULP energy -178267.704932 kJ/mol
# GULP energy per Si atom -5570.865779 kJ/mol
# Density = 2.094211 g / cm^3
# Si number density = 20.989885 Si / 1000 Ang^3
#
#
#
# Elastic Constant Matrix: (Units=GPa)
#
#
# Indices 1 2 3 4 5 6 
#
# 1 208.0142 57.8936 60.0798 0.0000 0.0000 0.0000
# 2 57.8936 174.6253 10.5582 0.0000 0.0000 0.0000
# 3 60.0798 10.5582 81.9712 0.0000 0.0000 0.0000
# 4 0.0000 0.0000 0.0000 -12.1243 0.0000 0.0000
# 5 0.0000 0.0000 0.0000 0.0000 50.2781 0.0000
# 6 0.0000 0.0000 0.0000 0.0000 0.0000 32.4767
#
#
#
# Elastic Compliance Matrix: (Units=1/GPa)
#
#
# Indices 1 2 3 4 5 6 
#
# 1 0.006691 -0.001937 -0.004654 0.000000 0.000000 0.000000
# 2 -0.001937 0.006332 0.000604 0.000000 0.000000 0.000000
# 3 -0.004654 0.000604 0.015533 0.000000 0.000000 0.000000
# 4 0.000000 0.000000 0.000000 -0.082479 0.000000 0.000000
# 5 0.000000 0.000000 0.000000 0.000000 0.019889 0.000000
# 6 0.000000 0.000000 0.000000 0.000000 0.000000 0.030791
#
#
# Mechanical properties :
#
#
# Convention : Reuss Voigt Hill
#
# Bulk Modulus (GPa) = 60.30874 80.18601 70.24737
# Shear Modulus (GPa) = 350.65553 36.53139 193.59346
#
# Velocity S-wave (km/s) = 12.93916 4.17637 9.61416
# Velocity P-wave (km/s) = 15.87526 7.84482 12.52129
#
# Compressibility (1/GPa) = 0.01658135
#
# Stress axis : x y z
#
# Youngs Moduli (GPa) = 149.46107 157.92483 64.37904
#
# Poissons Ratio (x) = 0.30586 0.29965
# Poissons Ratio (y) = 0.28947 -0.03888
# Poissons Ratio (z) = 0.69565 -0.09537
#
# Static dielectric constant tensor:
#      x y z
#    x 1.752080 0.000000 0.000000 
#    y 0.000000 2.015360 0.000000 
#    z 0.000000 0.000000 1.672690 
# 
# From -- ./inp_files/7958.got.cif
#   From: 2010.05.17/outbox.cif.g08.bks.cpg/sg67_4_cif.got.tgz:7958.got - 2010.06.03 18:28:57.
