data_PCOD9503638
_publ_section_title
;
Structure prediction by ZEFSAII (Michael W. Deem and Ramdas Pophale) SiO2 
 PCOD9503638
Probable space group: C M M A
;
_chemical_formula_sum "Si O2"
_cell_formula_units_Z 80
_cell_length_a 16.040355
_cell_length_b 27.447259
_cell_length_c 8.501650
_cell_angle_alpha 90.000000
_cell_angle_beta 90.000000
_cell_angle_gamma 90.000000
_cell_volume 3742.968549
_symmetry_space_group_name_H-M "C M M A"
_symmetry_group_IT_number 67
_symmetry_cell_setting 'orthorhombic'
loop_
_space_group_symop_operation_xyz
x,y,z
-x,1/2-y,z
x,-y,-z
-x,1/2+y,-z
-x,-y,-z
x,1/2+y,-z
-x,y,z
x,1/2-y,z
1/2+x,1/2+y,z
1/2-x,-y,z
1/2+x,1/2-y,-z
1/2-x,y,-z
1/2-x,1/2-y,-z
1/2+x,y,-z
1/2-x,1/2+y,z
1/2+x,-y,z
loop_
_atom_site_type_symbol
_atom_site_label
_atom_site_fract_x
_atom_site_fract_y
_atom_site_fract_z
Si Si1 0.338928 0.617058 0.087920
Si Si2 0.906774 0.066943 0.576930
Si Si3 0.265513 0.304506 0.683922
Si Si4 0.092757 0.837941 0.212536
Si Si5 0.840506 0.476808 0.271939
O O1 0.320727 0.654422 0.231074
O O2 0.363879 0.563657 0.145724
O O3 0.250000 0.611841 0.000000
O O4 0.400777 0.640217 0.962172
O O5 0.893499 0.117257 0.665998
O O6 0.844237 0.052708 0.437673
O O7 0.000000 0.067172 0.508453
O O8 0.899270 0.023111 0.701907
O O9 0.301604 0.250000 0.700298
O O10 0.250000 0.314280 0.500000
O O11 0.173829 0.305123 0.763260
O O12 0.000000 0.817585 0.239981
O O13 0.750000 0.500000 0.242060
#
# Coordination Sequence:
#
# PCOD9503638 Si02
#       5
#    16  16  16  16  16
#     4  10  22  36  54  82 111 143 183 226 279 335
#     4  10  21  35  51  76 110 148 186 225 274 323
#     4  10  21  40  64  85 108 143 186 232 284 340
#     4  10  22  38  57  84 117 150 185 230 283 338
#     4  11  20  32  53  78 106 145 193 235 267 316
#
# _framework density 21.373411000000001
#
# number of rings (size 3 to 8) (size 9 to 14) (size 15 to 20)
#    0.000    1.800    0.000    6.000    0.000   10.000 
#    0.000    3.000    0.000    1.200    0.000    0.000 
#    0.000    0.000    0.000    0.000    0.000    0.000 
#
# Total GULP energy -223371.036503 kJ/mol
# GULP energy per Si atom -5584.275913 kJ/mol
# Density = 2.132476 g / cm^3
# Si number density = 21.373411 Si / 1000 Ang^3
#
#
#
# Elastic Constant Matrix: (Units=GPa)
#
#
# Indices 1 2 3 4 5 6 
#
# 1 41.4669 -10.7038 -10.8158 0.0000 0.0000 0.0000
# 2 -10.7038 61.8602 6.5650 0.0000 0.0000 0.0000
# 3 -10.8158 6.5650 50.1964 0.0000 0.0000 0.0000
# 4 0.0000 0.0000 0.0000 9.0839 0.0000 0.0000
# 5 0.0000 0.0000 0.0000 0.0000 15.6779 0.0000
# 6 0.0000 0.0000 0.0000 0.0000 0.0000 13.6436
#
#
#
# Elastic Compliance Matrix: (Units=1/GPa)
#
#
# Indices 1 2 3 4 5 6 
#
# 1 0.026510 0.004037 0.005184 0.000000 0.000000 0.000000
# 2 0.004037 0.017008 -0.001355 0.000000 0.000000 0.000000
# 3 0.005184 -0.001355 0.021216 0.000000 0.000000 0.000000
# 4 0.000000 0.000000 0.000000 0.110085 0.000000 0.000000
# 5 0.000000 0.000000 0.000000 0.000000 0.063784 0.000000
# 6 0.000000 0.000000 0.000000 0.000000 0.000000 0.073294
#
#
# Mechanical properties :
#
#
# Convention : Reuss Voigt Hill
#
# Bulk Modulus (GPa) = 12.42755 13.73491 13.08123
# Shear Modulus (GPa) = 15.48053 18.91296 17.19675
#
# Velocity S-wave (km/s) = 2.69418 2.97792 2.83960
# Velocity P-wave (km/s) = 3.93767 4.27366 4.10910
#
# Compressibility (1/GPa) = 0.08046641
#
# Stress axis : x y z
#
# Youngs Moduli (GPa) = 37.72183 58.79674 47.13439
#
# Poissons Ratio (x) = -0.23736 -0.24435
# Poissons Ratio (y) = -0.15228 0.06385
# Poissons Ratio (z) = -0.19555 0.07964
#
# Static dielectric constant tensor:
#      x y z
#    x 1.778000 0.000000 0.000000 
#    y 0.000000 1.762390 0.000000 
#    z 0.000000 0.000000 1.806850 
# 
# From -- ./inp_files/10138.got.cif
#   From: 2010.05.17/outbox.cif.g08.bks.cpg/sg67_6_cif.got.tgz:10138.got - 2010.06.03 18:28:57.
