data_PCOD9503250
_publ_section_title
;
Structure prediction by ZEFSAII (Michael W. Deem and Ramdas Pophale) SiO2 
 PCOD9503250
Probable space group: C M M A
;
_chemical_formula_sum "Si O2"
_cell_formula_units_Z 112
_cell_length_a 13.474510
_cell_length_b 15.045728
_cell_length_c 25.585753
_cell_angle_alpha 90.000000
_cell_angle_beta 90.000000
_cell_angle_gamma 90.000000
_cell_volume 5187.097249
_symmetry_space_group_name_H-M "C M M A"
_symmetry_group_IT_number 67
_symmetry_cell_setting 'orthorhombic'
loop_
_space_group_symop_operation_xyz
x,y,z
-x,1/2-y,z
x,-y,-z
-x,1/2+y,-z
-x,-y,-z
x,1/2+y,-z
-x,y,z
x,1/2-y,z
1/2+x,1/2+y,z
1/2-x,-y,z
1/2+x,1/2-y,-z
1/2-x,y,-z
1/2-x,1/2-y,-z
1/2+x,y,-z
1/2-x,1/2+y,z
1/2+x,-y,z
loop_
_atom_site_type_symbol
_atom_site_label
_atom_site_fract_x
_atom_site_fract_y
_atom_site_fract_z
Si Si1 0.880240 0.654235 0.409565
Si Si2 0.614198 0.987241 0.061354
Si Si3 0.882556 0.647678 0.219131
Si Si4 0.880633 0.900315 0.520200
Si Si5 0.721312 0.144527 0.109376
Si Si6 0.879774 0.528454 0.317084
Si Si7 0.879299 0.650464 0.637352
O O1 0.859510 0.750000 0.385805
O O2 0.846242 0.652759 0.469421
O O3 0.847920 0.578018 0.370258
O O4 0.000000 0.644956 0.413026
O O5 0.500000 0.961571 0.067449
O O6 0.683461 0.913279 0.089820
O O7 0.633888 0.085684 0.083948
O O8 0.636859 0.000000 0.000000
O O9 0.878933 0.750000 0.237918
O O10 0.807470 0.639775 0.170540
O O11 0.853892 0.580419 0.264884
O O12 0.000000 0.631878 0.204435
O O13 0.846742 0.874029 0.578047
O O14 0.000000 0.890977 0.523806
O O15 0.861274 0.000000 0.500000
O O16 0.726561 0.250000 0.095423
O O17 0.849039 0.426392 0.322699
O O18 0.000000 0.530529 0.318083
O O19 0.848721 0.750000 0.650850
O O20 0.000000 0.649873 0.636463
#
# Coordination Sequence:
#
# PCOD9503250 Si02
#       7
#    16  16  16  16  16  16  16
#     4   9  14  18  26  40  61  94 140 204 285 362
#     4  10  22  39  61  95 137 176 216 262 309 363
#     4   9  17  29  47  72 101 139 194 258 319 375
#     4   9  13  18  25  36  59  93 139 204 286 367
#     4  10  20  36  60  90 127 172 219 265 315 371
#     4   9  15  23  34  50  76 112 163 233 304 364
#     4   9  15  21  29  42  64 101 156 223 294 371
#
# _framework density 21.592039
#
# number of rings (size 3 to 8) (size 9 to 14) (size 15 to 20)
#    0.000    2.714    1.429    2.143    0.000    5.714 
#    0.000    1.429    0.000    3.429    0.000    4.000 
#    0.000    0.000    0.000    0.000    0.000   11.429 
#
# Total GULP energy -312515.380878 kJ/mol
# GULP energy per Si atom -5580.631801 kJ/mol
# Density = 2.154289 g / cm^3
# Si number density = 21.592039 Si / 1000 Ang^3
#
#
#
# Elastic Constant Matrix: (Units=GPa)
#
#
# Indices 1 2 3 4 5 6 
#
# 1 119.4898 21.9896 37.8929 0.0000 0.0000 0.0000
# 2 21.9896 187.9401 100.3517 0.0000 0.0000 0.0000
# 3 37.8929 100.3517 118.3097 0.0000 0.0000 0.0000
# 4 0.0000 0.0000 0.0000 18.4886 0.0000 0.0000
# 5 0.0000 0.0000 0.0000 0.0000 29.8275 0.0000
# 6 0.0000 0.0000 0.0000 0.0000 0.0000 -14.0218
#
#
#
# Elastic Compliance Matrix: (Units=1/GPa)
#
#
# Indices 1 2 3 4 5 6 
#
# 1 0.009403 0.000928 -0.003799 0.000000 0.000000 0.000000
# 2 0.000928 0.009817 -0.008625 0.000000 0.000000 0.000000
# 3 -0.003799 -0.008625 0.016985 0.000000 0.000000 0.000000
# 4 0.000000 0.000000 0.000000 0.054087 0.000000 0.000000
# 5 0.000000 0.000000 0.000000 0.000000 0.033526 0.000000
# 6 0.000000 0.000000 0.000000 0.000000 0.000000 -0.071318
#
#
# Mechanical properties :
#
#
# Convention : Reuss Voigt Hill
#
# Bulk Modulus (GPa) = 75.67528 82.91201 79.29364
# Shear Modulus (GPa) = 62.58139 24.55921 43.57030
#
# Velocity S-wave (km/s) = 5.38948 3.37622 4.49696
# Velocity P-wave (km/s) = 8.59375 7.32675 7.98541
#
# Compressibility (1/GPa) = 0.01321435
#
# Stress axis : x y z
#
# Youngs Moduli (GPa) = 106.35102 101.86057 58.87687
#
# Poissons Ratio (x) = -0.09456 0.22368
# Poissons Ratio (y) = -0.09873 0.50779
# Poissons Ratio (z) = 0.40403 0.87850
#
# Static dielectric constant tensor:
#      x y z
#    x 1.875890 0.000000 0.000000 
#    y 0.000000 1.875460 0.000000 
#    z 0.000000 0.000000 1.754290 
# 
# From -- ./inp_files/42014.got.cif
#   From: 2010.05.17/outbox.cif.g08.bks.cpg/sg67_22_cif.got.tgz:42014.got - 2010.06.03 18:28:57.
