data_PCOD9503999
_publ_section_title
;
Structure prediction by ZEFSAII (Michael W. Deem and Ramdas Pophale) SiO2 
 PCOD9503999
Probable space group: C M M A
;
_chemical_formula_sum "Si O2"
_cell_formula_units_Z 72
_cell_length_a 8.680814
_cell_length_b 16.396583
_cell_length_c 25.279358
_cell_angle_alpha 90.000000
_cell_angle_beta 90.000000
_cell_angle_gamma 90.000000
_cell_volume 3598.154794
_symmetry_space_group_name_H-M "C M M A"
_symmetry_group_IT_number 67
_symmetry_cell_setting 'orthorhombic'
loop_
_space_group_symop_operation_xyz
x,y,z
-x,1/2-y,z
x,-y,-z
-x,1/2+y,-z
-x,-y,-z
x,1/2+y,-z
-x,y,z
x,1/2-y,z
1/2+x,1/2+y,z
1/2-x,-y,z
1/2+x,1/2-y,-z
1/2-x,y,-z
1/2-x,1/2-y,-z
1/2+x,y,-z
1/2-x,1/2+y,z
1/2+x,-y,z
loop_
_atom_site_type_symbol
_atom_site_label
_atom_site_fract_x
_atom_site_fract_y
_atom_site_fract_z
Si Si1 0.684017 0.909756 0.161634
Si Si2 0.687176 0.158140 0.726093
Si Si3 0.826391 0.151995 0.945820
Si Si4 0.314099 0.412687 0.616339
Si Si5 0.314419 0.750000 0.559419
O O1 0.500000 0.911034 0.163098
O O2 0.740066 0.866225 0.215396
O O3 0.736198 0.868668 0.107297
O O4 0.750000 0.000000 0.162091
O O5 0.500000 0.158308 0.727140
O O6 0.737967 0.250000 0.713623
O O7 0.732041 0.099518 0.678131
O O8 0.832678 0.250000 0.949869
O O9 0.000000 0.119972 0.941394
O O10 0.750000 0.121058 0.000000
O O11 0.500000 0.411984 0.612279
O O12 0.250000 0.500000 0.597400
O O13 0.248249 0.332799 0.586973
O O14 0.500000 0.750000 0.560292
O O15 0.250000 0.750000 0.500000
#
# Coordination Sequence:
#
# PCOD9503999 Si02
#       5
#    16  16  16  16   8
#     4  11  22  36  56  83 118 156 198 245 301 364
#     4   9  18  35  61  90 123 164 206 252 310 372
#     4  10  21  38  59  82 109 143 189 243 301 366
#     4  11  22  41  68  99 137 177 220 271 325 385
#     4  12  26  46  70 100 134 176 225 272 327 384
#
# _framework density 20.010255999999998
#
# number of rings (size 3 to 8) (size 9 to 14) (size 15 to 20)
#    0.000    1.556    1.111    4.333    0.000    3.111 
#    0.000    7.778    0.000    0.000    0.000    0.000 
#    0.000    0.000    0.000    0.000    0.000    0.000 
#
# Total GULP energy -201075.581818 kJ/mol
# GULP energy per Si atom -5585.432828 kJ/mol
# Density = 1.996471 g / cm^3
# Si number density = 20.010256 Si / 1000 Ang^3
#
#
#
# Elastic Constant Matrix: (Units=GPa)
#
#
# Indices 1 2 3 4 5 6 
#
# 1 98.3728 42.2394 44.1928 0.0000 0.0000 0.0000
# 2 42.2394 118.0854 54.5896 0.0000 0.0000 0.0000
# 3 44.1928 54.5896 141.2012 0.0000 0.0000 0.0000
# 4 0.0000 0.0000 0.0000 14.2596 0.0000 0.0000
# 5 0.0000 0.0000 0.0000 0.0000 24.3160 0.0000
# 6 0.0000 0.0000 0.0000 0.0000 0.0000 25.3005
#
#
#
# Elastic Compliance Matrix: (Units=1/GPa)
#
#
# Indices 1 2 3 4 5 6 
#
# 1 0.012818 -0.003325 -0.002726 0.000000 0.000000 0.000000
# 2 -0.003325 0.011174 -0.003279 0.000000 0.000000 0.000000
# 3 -0.002726 -0.003279 0.009203 0.000000 0.000000 0.000000
# 4 0.000000 0.000000 0.000000 0.070128 0.000000 0.000000
# 5 0.000000 0.000000 0.000000 0.000000 0.041125 0.000000
# 6 0.000000 0.000000 0.000000 0.000000 0.000000 0.039525
#
#
# Mechanical properties :
#
#
# Convention : Reuss Voigt Hill
#
# Bulk Modulus (GPa) = 68.80375 71.07809 69.94092
# Shear Modulus (GPa) = 24.09896 27.21772 25.65834
#
# Velocity S-wave (km/s) = 3.47411 3.69207 3.58475
# Velocity P-wave (km/s) = 7.10996 7.33302 7.22235
#
# Compressibility (1/GPa) = 0.01453409
#
# Stress axis : x y z
#
# Youngs Moduli (GPa) = 78.01718 89.49640 108.65800
#
# Poissons Ratio (x) = 0.29754 0.29624
# Poissons Ratio (y) = 0.25937 0.35632
# Poissons Ratio (z) = 0.21270 0.29349
#
# Static dielectric constant tensor:
#      x y z
#    x 1.700980 0.000000 0.000000 
#    y 0.000000 1.705610 0.000000 
#    z 0.000000 0.000000 1.729750 
# 
# From -- ./inp_files/43109.got.cif
#   From: 2010.05.17/outbox.cif.g08.bks.cpg/sg67_22_cif.got.tgz:43109.got - 2010.06.03 18:28:57.
