data_PCOD9503772
_publ_section_title
;
Structure prediction by ZEFSAII (Michael W. Deem and Ramdas Pophale) SiO2 
 PCOD9503772
Probable space group: C M M A
;
_chemical_formula_sum "Si O2"
_cell_formula_units_Z 96
_cell_length_a 8.848121
_cell_length_b 31.019541
_cell_length_c 19.450792
_cell_angle_alpha 90.000000
_cell_angle_beta 90.000000
_cell_angle_gamma 90.000000
_cell_volume 5338.554860
_symmetry_space_group_name_H-M "C M M A"
_symmetry_group_IT_number 67
_symmetry_cell_setting 'orthorhombic'
loop_
_space_group_symop_operation_xyz
x,y,z
-x,1/2-y,z
x,-y,-z
-x,1/2+y,-z
-x,-y,-z
x,1/2+y,-z
-x,y,z
x,1/2-y,z
1/2+x,1/2+y,z
1/2-x,-y,z
1/2+x,1/2-y,-z
1/2-x,y,-z
1/2-x,1/2-y,-z
1/2+x,y,-z
1/2-x,1/2+y,z
1/2+x,-y,z
loop_
_atom_site_type_symbol
_atom_site_label
_atom_site_fract_x
_atom_site_fract_y
_atom_site_fract_z
Si Si1 0.676435 0.885194 0.791006
Si Si2 0.681577 0.797064 0.577236
Si Si3 0.680026 0.047226 0.692985
Si Si4 0.181219 0.385461 0.424024
Si Si5 0.821847 0.839957 0.074027
Si Si6 0.319534 0.297581 0.802401
O O1 0.500000 0.888073 0.774404
O O2 0.763293 0.924287 0.756926
O O3 0.693278 0.880748 0.873855
O O4 0.740937 0.838610 0.767150
O O5 0.500000 0.801241 0.574177
O O6 0.717568 0.750000 0.608711
O O7 0.750000 0.795648 0.500000
O O8 0.754056 0.840570 0.606013
O O9 0.500000 0.043895 0.694951
O O10 0.722192 0.075112 0.625567
O O11 0.750000 0.000000 0.692206
O O12 0.250000 0.391333 0.500000
O O13 0.000000 0.382239 0.428755
O O14 0.734709 0.803618 0.118345
O O15 0.000000 0.829990 0.069243
O O16 0.750000 0.846234 0.000000
O O17 0.500000 0.301752 0.797972
O O18 0.274870 0.250000 0.778266
#
# Coordination Sequence:
#
# PCOD9503772 Si02
#       6
#    16  16  16  16  16  16
#     4   9  20  36  55  79 108 143 184 226 270 323
#     4   9  16  27  47  75 106 141 176 209 249 301
#     4  11  24  41  62  83 105 137 179 224 279 338
#     4  10  21  36  56  84 113 143 177 220 271 324
#     4   9  18  30  50  79 112 151 190 229 274 321
#     4   9  17  30  50  77 112 152 190 229 272 320
#
# _framework density 17.982395
#
# number of rings (size 3 to 8) (size 9 to 14) (size 15 to 20)
#    1.000    1.500    0.000    3.500    0.000    5.667 
#    0.000    2.500    0.000    1.500    0.000    3.500 
#    0.000    0.000    0.000    0.000    0.000    0.000 
#
# Total GULP energy -267302.950050 kJ/mol
# GULP energy per Si atom -5568.811459 kJ/mol
# Density = 1.794147 g / cm^3
# Si number density = 17.982395 Si / 1000 Ang^3
#
#
#
# Elastic Constant Matrix: (Units=GPa)
#
#
# Indices 1 2 3 4 5 6 
#
# 1 50.4737 44.9864 18.1212 0.0000 0.0000 0.0000
# 2 44.9864 161.6497 37.8802 0.0000 0.0000 0.0000
# 3 18.1212 37.8802 66.6658 0.0000 0.0000 0.0000
# 4 0.0000 0.0000 0.0000 19.0862 0.0000 0.0000
# 5 0.0000 0.0000 0.0000 0.0000 16.8862 0.0000
# 6 0.0000 0.0000 0.0000 0.0000 0.0000 -6.8396
#
#
#
# Elastic Compliance Matrix: (Units=1/GPa)
#
#
# Indices 1 2 3 4 5 6 
#
# 1 0.027056 -0.006698 -0.003549 0.000000 0.000000 0.000000
# 2 -0.006698 0.008795 -0.003177 0.000000 0.000000 0.000000
# 3 -0.003549 -0.003177 0.017770 0.000000 0.000000 0.000000
# 4 0.000000 0.000000 0.000000 0.052394 0.000000 0.000000
# 5 0.000000 0.000000 0.000000 0.000000 0.059220 0.000000
# 6 0.000000 0.000000 0.000000 0.000000 0.000000 -0.146208
#
#
# Mechanical properties :
#
#
# Convention : Reuss Voigt Hill
#
# Bulk Modulus (GPa) = 37.34932 53.41829 45.38380
# Shear Modulus (GPa) = 91.24587 17.68000 54.46294
#
# Velocity S-wave (km/s) = 7.13105 3.13898 5.50932
# Velocity P-wave (km/s) = 9.41369 6.55042 8.10943
#
# Compressibility (1/GPa) = 0.02677425
#
# Stress axis : x y z
#
# Youngs Moduli (GPa) = 36.96018 113.70579 56.27559
#
# Poissons Ratio (x) = 0.76161 0.19970
# Poissons Ratio (y) = 0.24756 0.17876
# Poissons Ratio (z) = 0.13115 0.36119
#
# Static dielectric constant tensor:
#      x y z
#    x 1.597460 0.000000 0.000000 
#    y 0.000000 1.620840 0.000000 
#    z 0.000000 0.000000 1.646980 
# 
# From -- ./inp_files/40890.got.cif
#   From: 2010.05.17/outbox.cif.g08.bks.cpg/sg67_21_cif.got.tgz:40890.got - 2010.06.03 18:28:57.
