data_PCOD9503069
_publ_section_title
;
Structure prediction by ZEFSAII (Michael W. Deem and Ramdas Pophale) SiO2 
 PCOD9503069
Probable space group: C M M A
;
_chemical_formula_sum "Si O2"
_cell_formula_units_Z 72
_cell_length_a 15.196524
_cell_length_b 8.320893
_cell_length_c 29.780402
_cell_angle_alpha 90.000000
_cell_angle_beta 90.000000
_cell_angle_gamma 90.000000
_cell_volume 3765.691635
_symmetry_space_group_name_H-M "C M M A"
_symmetry_group_IT_number 67
_symmetry_cell_setting 'orthorhombic'
loop_
_space_group_symop_operation_xyz
x,y,z
-x,1/2-y,z
x,-y,-z
-x,1/2+y,-z
-x,-y,-z
x,1/2+y,-z
-x,y,z
x,1/2-y,z
1/2+x,1/2+y,z
1/2-x,-y,z
1/2+x,1/2-y,-z
1/2-x,y,-z
1/2-x,1/2-y,-z
1/2+x,y,-z
1/2-x,1/2+y,z
1/2+x,-y,z
loop_
_atom_site_type_symbol
_atom_site_label
_atom_site_fract_x
_atom_site_fract_y
_atom_site_fract_z
Si Si1 0.156845 0.943565 0.645158
Si Si2 0.897173 0.556969 0.547500
Si Si3 0.500000 0.556759 0.188149
Si Si4 0.851530 0.557333 0.120541
Si Si5 0.000000 0.056289 0.949028
Si Si6 0.500000 0.553468 0.291156
O O1 0.152171 0.750000 0.643149
O O2 0.143807 0.003519 0.593964
O O3 0.082954 0.999124 0.679494
O O4 0.250000 0.000000 0.662005
O O5 0.859292 0.500000 0.500000
O O6 0.893773 0.750000 0.547623
O O7 0.000000 0.508392 0.548771
O O8 0.500000 0.750000 0.187095
O O9 0.587848 0.497888 0.162426
O O10 0.500000 0.500724 0.239750
O O11 0.849540 0.750000 0.120345
O O12 0.750000 0.500000 0.120594
O O13 0.911967 0.502960 0.077981
O O14 0.000000 0.250000 0.948058
O O15 0.000000 0.000000 0.000000
O O16 0.500000 0.750000 0.290405
#
# Coordination Sequence:
#
# PCOD9503069 Si02
#       6
#    16  16   8  16   8   8
#     4  10  20  36  55  76 103 136 171 210 259 316
#     4   9  17  31  52  73  97 132 168 205 251 305
#     4  10  20  36  60  85 108 144 186 232 288 340
#     4  10  21  38  58  84 117 153 193 238 283 332
#     4   9  20  36  55  82 118 157 196 237 280 327
#     4   9  19  38  59  77 105 141 175 213 269 331
#
# _framework density 19.119994999999999
#
# number of rings (size 3 to 8) (size 9 to 14) (size 15 to 20)
#    0.000    2.444    1.111    1.667    0.000    5.333 
#    0.000    9.444    0.000    0.000    0.000    0.000 
#    0.000    0.000    0.000    0.000    0.000    0.000 
#
# Total GULP energy -200748.944497 kJ/mol
# GULP energy per Si atom -5576.359569 kJ/mol
# Density = 1.907648 g / cm^3
# Si number density = 19.119995 Si / 1000 Ang^3
#
#
#
# Elastic Constant Matrix: (Units=GPa)
#
#
# Indices 1 2 3 4 5 6 
#
# 1 192.8279 26.5365 105.1613 0.0000 0.0000 0.0000
# 2 26.5365 20.8080 22.9027 0.0000 0.0000 0.0000
# 3 105.1613 22.9027 188.5074 0.0000 0.0000 0.0000
# 4 0.0000 0.0000 0.0000 22.3125 0.0000 0.0000
# 5 0.0000 0.0000 0.0000 0.0000 29.9494 0.0000
# 6 0.0000 0.0000 0.0000 0.0000 0.0000 25.7867
#
#
#
# Elastic Compliance Matrix: (Units=1/GPa)
#
#
# Indices 1 2 3 4 5 6 
#
# 1 0.008087 -0.006173 -0.003761 0.000000 0.000000 0.000000
# 2 -0.006173 0.060189 -0.003869 0.000000 0.000000 0.000000
# 3 -0.003761 -0.003869 0.007873 0.000000 0.000000 0.000000
# 4 0.000000 0.000000 0.000000 0.044818 0.000000 0.000000
# 5 0.000000 0.000000 0.000000 0.000000 0.033390 0.000000
# 6 0.000000 0.000000 0.000000 0.000000 0.000000 0.038780
#
#
# Mechanical properties :
#
#
# Convention : Reuss Voigt Hill
#
# Bulk Modulus (GPa) = 20.60047 79.03825 49.81936
# Shear Modulus (GPa) = 21.10379 32.11258 26.60818
#
# Velocity S-wave (km/s) = 3.32588 4.10265 3.73452
# Velocity P-wave (km/s) = 5.05434 7.99188 6.68642
#
# Compressibility (1/GPa) = 0.04854259
#
# Stress axis : x y z
#
# Youngs Moduli (GPa) = 123.65843 16.61422 127.01351
#
# Poissons Ratio (x) = 0.10256 0.47774
# Poissons Ratio (y) = 0.76336 0.49140
# Poissons Ratio (z) = 0.46512 0.06428
#
# Static dielectric constant tensor:
#      x y z
#    x 1.660900 0.000000 0.000000 
#    y 0.000000 1.674410 0.000000 
#    z 0.000000 0.000000 1.668620 
# 
# From -- ./inp_files/45169.got.cif
#   From: 2010.05.17/outbox.cif.g08.bks.cpg/sg67_23_cif.got.tgz:45169.got - 2010.06.03 18:28:57.
