data_PCOD9503503
_publ_section_title
;
Structure prediction by ZEFSAII (Michael W. Deem and Ramdas Pophale) SiO2 
 PCOD9503503
Probable space group: C M M A
;
_chemical_formula_sum "Si O2"
_cell_formula_units_Z 88
_cell_length_a 21.015131
_cell_length_b 9.253954
_cell_length_c 21.825648
_cell_angle_alpha 90.000000
_cell_angle_beta 90.000000
_cell_angle_gamma 90.000000
_cell_volume 4244.500457
_symmetry_space_group_name_H-M "C M M A"
_symmetry_group_IT_number 67
_symmetry_cell_setting 'orthorhombic'
loop_
_space_group_symop_operation_xyz
x,y,z
-x,1/2-y,z
x,-y,-z
-x,1/2+y,-z
-x,-y,-z
x,1/2+y,-z
-x,y,z
x,1/2-y,z
1/2+x,1/2+y,z
1/2-x,-y,z
1/2+x,1/2-y,-z
1/2-x,y,-z
1/2-x,1/2-y,-z
1/2+x,y,-z
1/2-x,1/2+y,z
1/2+x,-y,z
loop_
_atom_site_type_symbol
_atom_site_label
_atom_site_fract_x
_atom_site_fract_y
_atom_site_fract_z
Si Si1 0.296592 0.750000 0.058109
Si Si2 0.000000 0.403905 0.726601
Si Si3 0.619664 0.490198 0.793328
Si Si4 0.871020 0.425113 0.561360
Si Si5 0.925467 0.250000 0.110517
Si Si6 0.500000 0.924922 0.396531
Si Si7 0.250000 0.000000 0.145697
Si Si8 0.810448 0.585559 0.675146
O O1 0.373894 0.750000 0.054770
O O2 0.277978 0.881892 0.100837
O O3 0.250000 0.750000 0.000000
O O4 0.937769 0.412434 0.769019
O O5 0.000000 0.528573 0.675176
O O6 0.000000 0.250000 0.692440
O O7 0.590839 0.386037 0.845429
O O8 0.686920 0.553522 0.817894
O O9 0.640483 0.408481 0.731175
O O10 0.844370 0.500000 0.500000
O O11 0.873057 0.250000 0.557983
O O12 0.939494 0.499575 0.572461
O O13 0.833266 0.484333 0.619959
O O14 0.000000 0.250000 0.093608
O O15 0.500000 0.750000 0.402910
O O16 0.797629 0.750000 0.654883
O O17 0.750000 0.500000 0.699804
#
# Coordination Sequence:
#
# PCOD9503503 Si02
#       8
#     8   8  16  16   8   8   8  16
#     4  10  22  42  70  98 134 181 231 280 320 387
#     4  12  26  37  61  96 139 178 214 276 348 409
#     4  11  22  38  65  95 138 169 223 272 340 408
#     4  12  26  46  67  91 122 166 223 281 345 420
#     4  10  20  38  66 102 134 178 226 277 337 410
#     4  12  25  41  64  94 125 171 217 274 343 416
#     4  10  23  40  68 100 129 180 224 272 328 390
#     4  12  25  41  65  95 130 171 215 279 347 410
#
# _framework density 20.732710999999998
#
# number of rings (size 3 to 8) (size 9 to 14) (size 15 to 20)
#    0.000    0.727    4.545    3.545    2.545    1.091 
#    0.000    1.818    2.000    2.182    0.000    0.000 
#    0.000    0.000    0.000    0.000    0.000    0.000 
#
# Total GULP energy -245366.996419 kJ/mol
# GULP energy per Si atom -5576.522646 kJ/mol
# Density = 2.068552 g / cm^3
# Si number density = 20.732711 Si / 1000 Ang^3
#
#
#
# Elastic Constant Matrix: (Units=GPa)
#
#
# Indices 1 2 3 4 5 6 
#
# 1 146.1572 36.2063 44.2716 0.0000 0.0000 0.0000
# 2 36.2063 155.5734 20.5131 0.0000 0.0000 0.0000
# 3 44.2716 20.5131 92.8992 0.0000 0.0000 0.0000
# 4 0.0000 0.0000 0.0000 12.6930 0.0000 0.0000
# 5 0.0000 0.0000 0.0000 0.0000 102.9974 0.0000
# 6 0.0000 0.0000 0.0000 0.0000 0.0000 22.9465
#
#
#
# Elastic Compliance Matrix: (Units=1/GPa)
#
#
# Indices 1 2 3 4 5 6 
#
# 1 0.008303 -0.001453 -0.003636 0.000000 0.000000 0.000000
# 2 -0.001453 0.006875 -0.000826 0.000000 0.000000 0.000000
# 3 -0.003636 -0.000826 0.012679 0.000000 0.000000 0.000000
# 4 0.000000 0.000000 0.000000 0.078783 0.000000 0.000000
# 5 0.000000 0.000000 0.000000 0.000000 0.009709 0.000000
# 6 0.000000 0.000000 0.000000 0.000000 0.000000 0.043580
#
#
# Mechanical properties :
#
#
# Convention : Reuss Voigt Hill
#
# Bulk Modulus (GPa) = 62.39022 66.29021 64.34021
# Shear Modulus (GPa) = 28.23234 47.30330 37.76782
#
# Velocity S-wave (km/s) = 3.69417 4.78177 4.27271
# Velocity P-wave (km/s) = 6.95369 7.90761 7.44594
#
# Compressibility (1/GPa) = 0.01602815
#
# Stress axis : x y z
#
# Youngs Moduli (GPa) = 120.43439 145.45793 78.86763
#
# Poissons Ratio (x) = 0.21135 0.28677
# Poissons Ratio (y) = 0.17499 0.06511
# Poissons Ratio (z) = 0.43792 0.12009
#
# Static dielectric constant tensor:
#      x y z
#    x 1.882490 0.000000 0.000000 
#    y 0.000000 1.724600 0.000000 
#    z 0.000000 0.000000 1.758030 
# 
# From -- ./inp_files/42440.got.cif
#   From: 2010.05.17/outbox.cif.g08.bks.cpg/sg67_22_cif.got.tgz:42440.got - 2010.06.03 18:28:57.
