data_PCOD9503798
_publ_section_title
;
Structure prediction by ZEFSAII (Michael W. Deem and Ramdas Pophale) SiO2 
 PCOD9503798
Probable space group: C M M A
;
_chemical_formula_sum "Si O2"
_cell_formula_units_Z 104
_cell_length_a 24.825602
_cell_length_b 8.209828
_cell_length_c 25.405148
_cell_angle_alpha 90.000000
_cell_angle_beta 90.000000
_cell_angle_gamma 90.000000
_cell_volume 5177.922863
_symmetry_space_group_name_H-M "C M M A"
_symmetry_group_IT_number 67
_symmetry_cell_setting 'orthorhombic'
loop_
_space_group_symop_operation_xyz
x,y,z
-x,1/2-y,z
x,-y,-z
-x,1/2+y,-z
-x,-y,-z
x,1/2+y,-z
-x,y,z
x,1/2-y,z
1/2+x,1/2+y,z
1/2-x,-y,z
1/2+x,1/2-y,-z
1/2-x,y,-z
1/2-x,1/2-y,-z
1/2+x,y,-z
1/2-x,1/2+y,z
1/2+x,-y,z
loop_
_atom_site_type_symbol
_atom_site_label
_atom_site_fract_x
_atom_site_fract_y
_atom_site_fract_z
Si Si1 0.500000 0.561624 0.201406
Si Si2 0.599334 0.056904 0.367171
Si Si3 0.500000 0.438986 0.924462
Si Si4 0.000000 0.552333 0.438951
Si Si5 0.811886 0.554859 0.157445
Si Si6 0.880554 0.054565 0.056298
Si Si7 0.110564 0.556024 0.249051
Si Si8 0.188392 0.443805 0.443105
O O1 0.500000 0.750000 0.218932
O O2 0.500000 0.560620 0.138552
O O3 0.446532 0.475579 0.221776
O O4 0.588978 0.250000 0.361709
O O5 0.551688 0.994123 0.405120
O O6 0.605263 0.988180 0.308264
O O7 0.654251 0.026354 0.397791
O O8 0.500000 0.250000 0.942714
O O9 0.442324 0.511874 0.940656
O O10 0.000000 0.500000 0.500000
O O11 0.000000 0.750000 0.439707
O O12 0.812887 0.750000 0.158915
O O13 0.750000 0.500000 0.155383
O O14 0.845437 0.501686 0.105924
O O15 0.843076 0.491676 0.209816
O O16 0.883062 0.250000 0.058635
O O17 0.857631 0.000000 0.000000
O O18 0.119686 0.750000 0.253637
O O19 0.166887 0.500000 0.500000
O O20 0.185244 0.250000 0.439512
O O21 0.250000 0.500000 0.440221
#
# Coordination Sequence:
#
# PCOD9503798 Si02
#       8
#     8  16   8   8  16  16  16  16
#     4  11  20  35  61  90 119 154 196 240 290 345
#     4  10  21  39  60  86 120 158 199 247 299 355
#     4   9  19  35  59  90 124 156 189 238 293 344
#     4  10  21  36  58  84 120 163 200 241 294 351
#     4  11  24  42  63  88 117 158 204 250 304 365
#     4  11  22  40  63  92 127 160 199 247 301 359
#     4  10  22  40  62  88 120 157 200 248 302 360
#     4  11  22  38  60  86 115 151 195 244 298 354
#
# _framework density 20.085274999999999
#
# number of rings (size 3 to 8) (size 9 to 14) (size 15 to 20)
#    0.000    1.538    1.538    4.154    0.000    5.231 
#    0.000    5.000    0.000    0.000    0.000    0.000 
#    0.000    0.000    0.000    0.000    0.000    0.000 
#
# Total GULP energy -290390.097364 kJ/mol
# GULP energy per Si atom -5584.424949 kJ/mol
# Density = 2.003956 g / cm^3
# Si number density = 20.085275 Si / 1000 Ang^3
#
#
#
# Elastic Constant Matrix: (Units=GPa)
#
#
# Indices 1 2 3 4 5 6 
#
# 1 123.4785 3.7758 80.0205 0.0000 0.0000 0.0000
# 2 3.7758 18.0974 17.5123 0.0000 0.0000 0.0000
# 3 80.0205 17.5123 174.8621 0.0000 0.0000 0.0000
# 4 0.0000 0.0000 0.0000 20.6680 0.0000 0.0000
# 5 0.0000 0.0000 0.0000 0.0000 19.7408 0.0000
# 6 0.0000 0.0000 0.0000 0.0000 0.0000 -72.5443
#
#
#
# Elastic Compliance Matrix: (Units=1/GPa)
#
#
# Indices 1 2 3 4 5 6 
#
# 1 0.011660 0.003024 -0.005639 0.000000 0.000000 0.000000
# 2 0.003024 0.061970 -0.007590 0.000000 0.000000 0.000000
# 3 -0.005639 -0.007590 0.009059 0.000000 0.000000 0.000000
# 4 0.000000 0.000000 0.000000 0.048384 0.000000 0.000000
# 5 0.000000 0.000000 0.000000 0.000000 0.050657 0.000000
# 6 0.000000 0.000000 0.000000 0.000000 0.000000 -0.013785
#
#
# Mechanical properties :
#
#
# Convention : Reuss Voigt Hill
#
# Bulk Modulus (GPa) = 16.05654 57.67281 36.86467
# Shear Modulus (GPa) = 23.91016 7.91486 15.91251
#
# Velocity S-wave (km/s) = 3.45401 1.98726 2.81774
# Velocity P-wave (km/s) = 4.89065 5.83454 5.38332
#
# Compressibility (1/GPa) = 0.06227991
#
# Stress axis : x y z
#
# Youngs Moduli (GPa) = 85.76044 16.13674 110.38274
#
# Poissons Ratio (x) = -0.04879 0.62243
# Poissons Ratio (y) = -0.25932 0.83781
# Poissons Ratio (z) = 0.48359 0.12248
#
# Static dielectric constant tensor:
#      x y z
#    x 1.701040 0.000000 0.000000 
#    y 0.000000 1.713350 0.000000 
#    z 0.000000 0.000000 1.713860 
# 
# From -- ./inp_files/44733.got.cif
#   From: 2010.05.17/outbox.cif.g08.bks.cpg/sg67_23_cif.got.tgz:44733.got - 2010.06.03 18:28:57.
