data_PCOD9503301
_publ_section_title
;
Structure prediction by ZEFSAII (Michael W. Deem and Ramdas Pophale) SiO2 
 PCOD9503301
Probable space group: C M M A
;
_chemical_formula_sum "Si O2"
_cell_formula_units_Z 96
_cell_length_a 22.864420
_cell_length_b 10.063931
_cell_length_c 23.914134
_cell_angle_alpha 90.000000
_cell_angle_beta 90.000000
_cell_angle_gamma 90.000000
_cell_volume 5502.784409
_symmetry_space_group_name_H-M "C M M A"
_symmetry_group_IT_number 67
_symmetry_cell_setting 'orthorhombic'
loop_
_space_group_symop_operation_xyz
x,y,z
-x,1/2-y,z
x,-y,-z
-x,1/2+y,-z
-x,-y,-z
x,1/2+y,-z
-x,y,z
x,1/2-y,z
1/2+x,1/2+y,z
1/2-x,-y,z
1/2+x,1/2-y,-z
1/2-x,y,-z
1/2-x,1/2-y,-z
1/2+x,y,-z
1/2-x,1/2+y,z
1/2+x,-y,z
loop_
_atom_site_type_symbol
_atom_site_label
_atom_site_fract_x
_atom_site_fract_y
_atom_site_fract_z
Si Si1 0.627489 0.991198 0.377313
Si Si2 0.898941 0.904972 0.825208
Si Si3 0.804891 0.096749 0.267895
Si Si4 0.671525 0.250000 0.553280
Si Si5 0.000000 0.595992 0.354892
Si Si6 0.807589 0.750000 0.421216
Si Si7 0.500000 0.594525 0.779697
Si Si8 0.069451 0.595886 0.949448
O O1 0.559553 0.028145 0.374874
O O2 0.665692 0.120595 0.392132
O O3 0.649941 0.936405 0.317764
O O4 0.640099 0.880023 0.423413
O O5 0.918897 0.750000 0.817136
O O6 0.839411 0.918964 0.790458
O O7 0.896188 0.925842 0.891767
O O8 0.944458 0.011802 0.801416
O O9 0.786321 0.250000 0.273656
O O10 0.750000 0.000000 0.271749
O O11 0.737341 0.250000 0.578418
O O12 0.675036 0.250000 0.486572
O O13 0.000000 0.593034 0.287461
O O14 0.000000 0.750000 0.372721
O O15 0.500000 0.750000 0.797520
O O16 0.075874 0.750000 0.965911
O O17 0.000000 0.574129 0.937169
O O18 0.086124 0.500000 0.000000
#
# Coordination Sequence:
#
# PCOD9503301 Si02
#       8
#    16  16  16   8   8   8   8  16
#     4  12  23  41  64  90 121 159 199 242 301 360
#     4  10  20  37  56  82 116 156 196 237 292 349
#     4  11  24  39  61  90 119 151 195 247 300 353
#     4  11  24  43  63 101 111 154 206 249 296 342
#     4  11  24  42  59  87 127 167 193 239 306 359
#     4  11  24  43  69  83 129 154 194 253 296 356
#     4  11  21  33  52  83 119 157 195 234 287 350
#     4   9  17  30  51  77 113 152 191 239 287 339
#
# _framework density 17.445713000000001
#
# number of rings (size 3 to 8) (size 9 to 14) (size 15 to 20)
#    0.000    1.333    4.167    2.250    1.167    3.000 
#    1.500    2.500    0.000    0.500    0.000    3.500 
#    0.000    0.000    0.000    0.000    0.000    0.000 
#
# Total GULP energy -268110.662131 kJ/mol
# GULP energy per Si atom -5585.638794 kJ/mol
# Density = 1.740601 g / cm^3
# Si number density = 17.445713 Si / 1000 Ang^3
#
#
#
# Elastic Constant Matrix: (Units=GPa)
#
#
# Indices 1 2 3 4 5 6 
#
# 1 100.5355 60.2002 34.1705 0.0000 0.0000 0.0000
# 2 60.2002 124.9697 38.0964 0.0000 0.0000 0.0000
# 3 34.1705 38.0964 82.1347 0.0000 0.0000 0.0000
# 4 0.0000 0.0000 0.0000 33.1169 0.0000 0.0000
# 5 0.0000 0.0000 0.0000 0.0000 21.7633 0.0000
# 6 0.0000 0.0000 0.0000 0.0000 0.0000 18.0866
#
#
#
# Elastic Compliance Matrix: (Units=1/GPa)
#
#
# Indices 1 2 3 4 5 6 
#
# 1 0.014709 -0.006080 -0.003299 0.000000 0.000000 0.000000
# 2 -0.006080 0.011833 -0.002959 0.000000 0.000000 0.000000
# 3 -0.003299 -0.002959 0.014920 0.000000 0.000000 0.000000
# 4 0.000000 0.000000 0.000000 0.030196 0.000000 0.000000
# 5 0.000000 0.000000 0.000000 0.000000 0.045949 0.000000
# 6 0.000000 0.000000 0.000000 0.000000 0.000000 0.055289
#
#
# Mechanical properties :
#
#
# Convention : Reuss Voigt Hill
#
# Bulk Modulus (GPa) = 59.57506 63.61934 61.59720
# Shear Modulus (GPa) = 24.61032 26.27156 25.44094
#
# Velocity S-wave (km/s) = 3.75998 3.88481 3.82290
# Velocity P-wave (km/s) = 7.28511 7.52785 7.40747
#
# Compressibility (1/GPa) = 0.01678555
#
# Stress axis : x y z
#
# Youngs Moduli (GPa) = 67.98760 84.51202 67.02320
#
# Poissons Ratio (x) = 0.51380 0.22113
# Poissons Ratio (y) = 0.41334 0.19832
# Poissons Ratio (z) = 0.22431 0.25007
#
# Static dielectric constant tensor:
#      x y z
#    x 1.567770 0.000000 0.000000 
#    y 0.000000 1.575470 0.000000 
#    z 0.000000 0.000000 1.583250 
# 
# From -- ./inp_files/42625.got.cif
#   From: 2010.05.17/outbox.cif.g08.bks.cpg/sg67_22_cif.got.tgz:42625.got - 2010.06.03 18:28:57.
