data_PCOD9503463
_publ_section_title
;
Structure prediction by ZEFSAII (Michael W. Deem and Ramdas Pophale) SiO2 
 PCOD9503463
Probable space group: C M M A
;
_chemical_formula_sum "Si O2"
_cell_formula_units_Z 64
_cell_length_a 14.825457
_cell_length_b 15.731124
_cell_length_c 13.713477
_cell_angle_alpha 90.000000
_cell_angle_beta 90.000000
_cell_angle_gamma 90.000000
_cell_volume 3198.272224
_symmetry_space_group_name_H-M "C M M A"
_symmetry_group_IT_number 67
_symmetry_cell_setting 'orthorhombic'
loop_
_space_group_symop_operation_xyz
x,y,z
-x,1/2-y,z
x,-y,-z
-x,1/2+y,-z
-x,-y,-z
x,1/2+y,-z
-x,y,z
x,1/2-y,z
1/2+x,1/2+y,z
1/2-x,-y,z
1/2+x,1/2-y,-z
1/2-x,y,-z
1/2-x,1/2-y,-z
1/2+x,y,-z
1/2-x,1/2+y,z
1/2+x,-y,z
loop_
_atom_site_type_symbol
_atom_site_label
_atom_site_fract_x
_atom_site_fract_y
_atom_site_fract_z
Si Si1 0.099547 0.750000 0.634303
Si Si2 0.107618 0.917517 0.740838
Si Si3 0.753280 0.649105 0.885568
Si Si4 0.161266 0.250000 0.568708
Si Si5 0.108084 0.610308 0.276035
O O1 0.138792 0.839060 0.672250
O O2 0.091530 0.750000 0.519204
O O3 0.000000 0.750000 0.678678
O O4 0.166231 0.903985 0.837111
O O5 0.000000 0.913439 0.758750
O O6 0.124014 0.011301 0.699449
O O7 0.772356 0.750000 0.874176
O O8 0.662721 0.630095 0.823507
O O9 0.750000 0.630599 0.000000
O O10 0.250000 0.250000 0.500000
O O11 0.146917 0.329967 0.639132
O O12 0.000000 0.624849 0.265992
#
# Coordination Sequence:
#
# PCOD9503463 Si02
#       5
#     8  16  16   8  16
#     4  10  20  38  62  87 119 159 206 256 310 372
#     4  10  22  41  66  94 128 169 215 269 324 384
#     4  11  23  40  65  94 127 170 219 268 324 391
#     4  12  24  40  64  91 125 169 212 258 318 382
#     4  11  24  43  66  95 133 172 214 268 328 386
#
# _framework density 20.010805000000001
#
# number of rings (size 3 to 8) (size 9 to 14) (size 15 to 20)
#    0.000    1.250    2.500    3.375    0.000    4.000 
#    0.000   10.000    0.000    0.000    0.000    0.000 
#    0.000    0.000    0.000    0.000    0.000    0.000 
#
# Total GULP energy -178522.759365 kJ/mol
# GULP energy per Si atom -5578.836230 kJ/mol
# Density = 1.996526 g / cm^3
# Si number density = 20.010805 Si / 1000 Ang^3
#
#
#
# Elastic Constant Matrix: (Units=GPa)
#
#
# Indices 1 2 3 4 5 6 
#
# 1 117.6945 64.8209 59.9952 0.0000 0.0000 0.0000
# 2 64.8209 177.3896 91.0659 0.0000 0.0000 0.0000
# 3 59.9952 91.0659 156.3431 0.0000 0.0000 0.0000
# 4 0.0000 0.0000 0.0000 -22.8418 0.0000 0.0000
# 5 0.0000 0.0000 0.0000 0.0000 16.3945 0.0000
# 6 0.0000 0.0000 0.0000 0.0000 0.0000 120.0602
#
#
#
# Elastic Compliance Matrix: (Units=1/GPa)
#
#
# Indices 1 2 3 4 5 6 
#
# 1 0.011429 -0.002746 -0.002786 0.000000 0.000000 0.000000
# 2 -0.002746 0.008702 -0.004015 0.000000 0.000000 0.000000
# 3 -0.002786 -0.004015 0.009804 0.000000 0.000000 0.000000
# 4 0.000000 0.000000 0.000000 -0.043779 0.000000 0.000000
# 5 0.000000 0.000000 0.000000 0.000000 0.060996 0.000000
# 6 0.000000 0.000000 0.000000 0.000000 0.000000 0.008329
#
#
# Mechanical properties :
#
#
# Convention : Reuss Voigt Hill
#
# Bulk Modulus (GPa) = 92.24559 98.13235 95.18897
# Shear Modulus (GPa) = 63.94754 38.42559 51.18656
#
# Velocity S-wave (km/s) = 5.65914 4.38681 5.06310
# Velocity P-wave (km/s) = 9.42863 8.64899 9.04721
#
# Compressibility (1/GPa) = 0.01084063
#
# Stress axis : x y z
#
# Youngs Moduli (GPa) = 87.49412 114.91847 101.99921
#
# Poissons Ratio (x) = 0.31557 0.28421
# Poissons Ratio (y) = 0.24026 0.40951
# Poissons Ratio (z) = 0.24380 0.46138
#
# Static dielectric constant tensor:
#      x y z
#    x 2.076820 0.000000 0.000000 
#    y 0.000000 1.745500 0.000000 
#    z 0.000000 0.000000 1.658000 
# 
# From -- ./inp_files/19014.got.cif
#   From: 2010.05.17/outbox.cif.g08.bks.cpg/sg67_10_cif.got.tgz:19014.got - 2010.06.03 18:28:57.
