data_PCOD9503285
_publ_section_title
;
Structure prediction by ZEFSAII (Michael W. Deem and Ramdas Pophale) SiO2 
 PCOD9503285
Probable space group: C M M A
;
_chemical_formula_sum "Si O2"
_cell_formula_units_Z 112
_cell_length_a 15.017012
_cell_length_b 15.562358
_cell_length_c 22.022238
_cell_angle_alpha 90.000000
_cell_angle_beta 90.000000
_cell_angle_gamma 90.000000
_cell_volume 5146.599594
_symmetry_space_group_name_H-M "C M M A"
_symmetry_group_IT_number 67
_symmetry_cell_setting 'orthorhombic'
loop_
_space_group_symop_operation_xyz
x,y,z
-x,1/2-y,z
x,-y,-z
-x,1/2+y,-z
-x,-y,-z
x,1/2+y,-z
-x,y,z
x,1/2-y,z
1/2+x,1/2+y,z
1/2-x,-y,z
1/2+x,1/2-y,-z
1/2-x,y,-z
1/2-x,1/2-y,-z
1/2+x,y,-z
1/2-x,1/2+y,z
1/2+x,-y,z
loop_
_atom_site_type_symbol
_atom_site_label
_atom_site_fract_x
_atom_site_fract_y
_atom_site_fract_z
Si Si1 0.897165 0.655061 0.380732
Si Si2 0.604468 0.851402 0.016331
Si Si3 0.097575 0.653809 0.193670
Si Si4 0.855333 0.903019 0.509401
Si Si5 0.730723 0.098251 0.093116
Si Si6 0.845650 0.518667 0.290212
Si Si7 0.894939 0.656017 0.645648
O O1 0.867365 0.750000 0.362367
O O2 0.893858 0.649761 0.453319
O O3 0.840656 0.578998 0.350436
O O4 0.000000 0.642377 0.361907
O O5 0.500000 0.878106 0.024616
O O6 0.603006 0.750000 0.001398
O O7 0.673947 0.862991 0.072310
O O8 0.658842 0.897816 0.962270
O O9 0.101768 0.750000 0.220830
O O10 0.179132 0.643723 0.147689
O O11 0.102544 0.578178 0.242969
O O12 0.000000 0.647515 0.162565
O O13 0.750000 0.903901 0.500000
O O14 0.871805 0.867770 0.576270
O O15 0.889633 0.000000 0.500000
O O16 0.750000 0.000000 0.108228
O O17 0.750000 0.500000 0.262799
O O18 0.876764 0.425283 0.311438
O O19 0.855225 0.750000 0.661775
O O20 0.000000 0.664650 0.647068
#
# Coordination Sequence:
#
# PCOD9503285 Si02
#       7
#    16  16  16  16  16  16  16
#     4  11  23  39  62  89 117 154 202 256 313 376
#     4  10  20  36  62  96 137 183 226 270 320 377
#     4  11  24  44  70  95 123 165 218 278 337 390
#     4  11  22  36  57  89 123 158 194 244 313 384
#     4  11  22  37  60  96 137 177 219 268 325 390
#     4  12  25  42  63  90 120 156 205 261 322 382
#     4  11  24  41  62  88 120 160 202 248 312 387
#
# _framework density 21.761942000000001
#
# number of rings (size 3 to 8) (size 9 to 14) (size 15 to 20)
#    0.000    1.000    1.429    6.857    0.000    9.143 
#    0.000    0.000    0.000    0.000    0.000    4.000 
#    0.000    0.000    0.000    0.000    0.000    0.000 
#
# Total GULP energy -312754.070553 kJ/mol
# GULP energy per Si atom -5584.894117 kJ/mol
# Density = 2.171241 g / cm^3
# Si number density = 21.761942 Si / 1000 Ang^3
#
#
#
# Elastic Constant Matrix: (Units=GPa)
#
#
# Indices 1 2 3 4 5 6 
#
# 1 139.5731 42.2376 33.7026 0.0000 0.0000 0.0000
# 2 42.2376 164.7684 37.6797 0.0000 0.0000 0.0000
# 3 33.7026 37.6797 79.5664 0.0000 0.0000 0.0000
# 4 0.0000 0.0000 0.0000 14.8673 0.0000 0.0000
# 5 0.0000 0.0000 0.0000 0.0000 25.3398 0.0000
# 6 0.0000 0.0000 0.0000 0.0000 0.0000 -496.8161
#
#
#
# Elastic Compliance Matrix: (Units=1/GPa)
#
#
# Indices 1 2 3 4 5 6 
#
# 1 0.008292 -0.001483 -0.002810 0.000000 0.000000 0.000000
# 2 -0.001483 0.007071 -0.002721 0.000000 0.000000 0.000000
# 3 -0.002810 -0.002721 0.015047 0.000000 0.000000 0.000000
# 4 0.000000 0.000000 0.000000 0.067262 0.000000 0.000000
# 5 0.000000 0.000000 0.000000 0.000000 0.039464 0.000000
# 6 0.000000 0.000000 0.000000 0.000000 0.000000 -0.002013
#
#
# Mechanical properties :
#
#
# Convention : Reuss Voigt Hill
#
# Bulk Modulus (GPa) = 61.03909 67.90532 64.47220
# Shear Modulus (GPa) = 32.33926 -73.30259 -20.48166
#
# Velocity S-wave (km/s) = 3.85911 -5.81007 -3.07118
# Velocity P-wave (km/s) = 6.92578 3.70646 4.13694
#
# Compressibility (1/GPa) = 0.01638295
#
# Stress axis : x y z
#
# Youngs Moduli (GPa) = 120.59779 141.41387 66.45952
#
# Poissons Ratio (x) = 0.20972 0.18675
# Poissons Ratio (y) = 0.17885 0.18081
# Poissons Ratio (z) = 0.33888 0.38473
#
# Static dielectric constant tensor:
#      x y z
#    x 1.815000 0.000000 0.000000 
#    y 0.000000 1.526590 0.000000 
#    z 0.000000 0.000000 1.919530 
# 
# From -- ./inp_files/42017.got.cif
#   From: 2010.05.17/outbox.cif.g08.bks.cpg/sg67_22_cif.got.tgz:42017.got - 2010.06.03 18:28:57.
