data_PCOD9503233
_publ_section_title
;
Structure prediction by ZEFSAII (Michael W. Deem and Ramdas Pophale) SiO2 
 PCOD9503233
Probable space group: C M M A
;
_chemical_formula_sum "Si O2"
_cell_formula_units_Z 72
_cell_length_a 14.870722
_cell_length_b 8.809148
_cell_length_c 29.111645
_cell_angle_alpha 90.000000
_cell_angle_beta 90.000000
_cell_angle_gamma 90.000000
_cell_volume 3813.578653
_symmetry_space_group_name_H-M "C M M A"
_symmetry_group_IT_number 67
_symmetry_cell_setting 'orthorhombic'
loop_
_space_group_symop_operation_xyz
x,y,z
-x,1/2-y,z
x,-y,-z
-x,1/2+y,-z
-x,-y,-z
x,1/2+y,-z
-x,y,z
x,1/2-y,z
1/2+x,1/2+y,z
1/2-x,-y,z
1/2+x,1/2-y,-z
1/2-x,y,-z
1/2-x,1/2-y,-z
1/2+x,y,-z
1/2-x,1/2+y,z
1/2+x,-y,z
loop_
_atom_site_type_symbol
_atom_site_label
_atom_site_fract_x
_atom_site_fract_y
_atom_site_fract_z
Si Si1 0.844601 0.430370 0.144292
Si Si2 0.608850 0.923403 0.952549
Si Si3 0.500000 0.432728 0.448984
Si Si4 0.649252 0.067376 0.618063
Si Si5 0.500000 0.569813 0.305586
Si Si6 0.500000 0.930212 0.794270
O O1 0.845619 0.250000 0.146424
O O2 0.750000 0.500000 0.157616
O O3 0.864048 0.483446 0.092221
O O4 0.916308 0.499788 0.178800
O O5 0.500000 0.919488 0.953397
O O6 0.641577 0.750000 0.948950
O O7 0.638790 0.000000 0.000000
O O8 0.500000 0.750000 0.550742
O O9 0.500000 0.500000 0.500000
O O10 0.411638 0.494165 0.422188
O O11 0.653458 0.250000 0.611965
O O12 0.588636 0.037689 0.663594
O O13 0.750000 0.000000 0.620224
O O14 0.500000 0.750000 0.295485
O O15 0.500000 0.478094 0.258668
O O16 0.500000 0.750000 0.799087
#
# Coordination Sequence:
#
# PCOD9503233 Si02
#       6
#    16  16   8  16   8   8
#     4  12  25  42  64  89 120 156 197 243 297 355
#     4  10  20  36  60  88 120 154 194 237 287 348
#     4  11  22  38  60  89 128 171 216 261 311 364
#     4  10  21  39  63  92 126 163 208 258 309 363
#     4   9  21  41  63  88 121 160 202 251 305 362
#     4  12  25  43  65  91 123 157 197 246 303 364
#
# _framework density 18.879904
#
# number of rings (size 3 to 8) (size 9 to 14) (size 15 to 20)
#    0.000    1.333    1.111    6.000    0.000    5.333 
#    0.000    6.667    0.000    0.000    0.000    0.000 
#    0.000    0.000    0.000    0.000    0.000    0.000 
#
# Total GULP energy -201283.199240 kJ/mol
# GULP energy per Si atom -5591.199979 kJ/mol
# Density = 1.883693 g / cm^3
# Si number density = 18.879904 Si / 1000 Ang^3
#
#
#
# Elastic Constant Matrix: (Units=GPa)
#
#
# Indices 1 2 3 4 5 6 
#
# 1 166.4807 91.8101 83.3764 0.0000 0.0000 0.0000
# 2 91.8101 206.2580 109.4350 0.0000 0.0000 0.0000
# 3 83.3764 109.4350 148.5241 0.0000 0.0000 0.0000
# 4 0.0000 0.0000 0.0000 37.0153 0.0000 0.0000
# 5 0.0000 0.0000 0.0000 0.0000 22.5377 0.0000
# 6 0.0000 0.0000 0.0000 0.0000 0.0000 33.0564
#
#
#
# Elastic Compliance Matrix: (Units=1/GPa)
#
#
# Indices 1 2 3 4 5 6 
#
# 1 0.008902 -0.002153 -0.003411 0.000000 0.000000 0.000000
# 2 -0.002153 0.008481 -0.005040 0.000000 0.000000 0.000000
# 3 -0.003411 -0.005040 0.012362 0.000000 0.000000 0.000000
# 4 0.000000 0.000000 0.000000 0.027016 0.000000 0.000000
# 5 0.000000 0.000000 0.000000 0.000000 0.044370 0.000000
# 6 0.000000 0.000000 0.000000 0.000000 0.000000 0.030251
#
#
# Mechanical properties :
#
#
# Convention : Reuss Voigt Hill
#
# Bulk Modulus (GPa) = 117.14910 121.16729 119.15820
# Shear Modulus (GPa) = 32.16759 34.29798 33.23278
#
# Velocity S-wave (km/s) = 4.13219 4.26683 4.20005
# Velocity P-wave (km/s) = 9.21689 9.41232 9.31511
#
# Compressibility (1/GPa) = 0.00853613
#
# Stress axis : x y z
#
# Youngs Moduli (GPa) = 112.33062 117.91404 80.89481
#
# Poissons Ratio (x) = 0.25383 0.27596
# Poissons Ratio (y) = 0.24181 0.40774
# Poissons Ratio (z) = 0.38320 0.59433
#
# Static dielectric constant tensor:
#      x y z
#    x 1.649120 0.000000 0.000000 
#    y 0.000000 1.633770 0.000000 
#    z 0.000000 0.000000 1.624750 
# 
# From -- ./inp_files/44262.got.cif
#   From: 2010.05.17/outbox.cif.g08.bks.cpg/sg67_23_cif.got.tgz:44262.got - 2010.06.03 18:28:57.
