data_PCOD9503539
_publ_section_title
;
Structure prediction by ZEFSAII (Michael W. Deem and Ramdas Pophale) SiO2 
 PCOD9503539
Probable space group: C M M A
;
_chemical_formula_sum "Si O2"
_cell_formula_units_Z 52
_cell_length_a 21.929981
_cell_length_b 21.231867
_cell_length_c 4.957991
_cell_angle_alpha 90.000000
_cell_angle_beta 90.000000
_cell_angle_gamma 90.000000
_cell_volume 2308.512203
_symmetry_space_group_name_H-M "C M M A"
_symmetry_group_IT_number 67
_symmetry_cell_setting 'orthorhombic'
loop_
_space_group_symop_operation_xyz
x,y,z
-x,1/2-y,z
x,-y,-z
-x,1/2+y,-z
-x,-y,-z
x,1/2+y,-z
-x,y,z
x,1/2-y,z
1/2+x,1/2+y,z
1/2-x,-y,z
1/2+x,1/2-y,-z
1/2-x,y,-z
1/2-x,1/2-y,-z
1/2+x,y,-z
1/2-x,1/2+y,z
1/2+x,-y,z
loop_
_atom_site_type_symbol
_atom_site_label
_atom_site_fract_x
_atom_site_fract_y
_atom_site_fract_z
Si Si1 0.000000 0.750000 0.988769
Si Si2 0.682922 0.366228 0.402678
Si Si3 0.500000 0.452338 0.756296
Si Si4 0.405880 0.750000 0.509319
Si Si5 0.133224 0.430110 0.123076
O O1 0.052903 0.750000 0.753996
O O2 0.052448 0.750000 0.226509
O O3 0.750000 0.346850 0.500000
O O4 0.636964 0.311028 0.480536
O O5 0.667476 0.425280 0.594954
O O6 0.667136 0.386227 0.096330
O O7 0.500000 0.500000 0.500000
O O8 0.437592 0.413814 0.799992
O O9 0.500000 0.500000 0.000000
O O10 0.132898 0.500000 0.000000
#
# Coordination Sequence:
#
# PCOD9503539 Si02
#       5
#     4  16   8   8  16
#     4  10  24  44  74 102 126 162 210 284 344 376
#     4  12  26  43  67  94 133 182 219 268 324 391
#     4  10  20  39  64  93 130 171 213 270 335 388
#     4  11  25  48  68 100 131 165 222 268 332 401
#     4  11  24  42  66  99 133 173 223 274 332 391
#
# _framework density 22.525331000000001
#
# number of rings (size 3 to 8) (size 9 to 14) (size 15 to 20)
#    0.000    0.923    0.000    7.846    0.000   11.077 
#    0.000    4.615    0.000    0.000    0.000    0.000 
#    0.000    0.000    0.000    0.000    0.000    0.000 
#
# Total GULP energy -144760.201750 kJ/mol
# GULP energy per Si atom -5567.700067 kJ/mol
# Density = 2.247406 g / cm^3
# Si number density = 22.525331 Si / 1000 Ang^3
#
#
#
# Elastic Constant Matrix: (Units=GPa)
#
#
# Indices 1 2 3 4 5 6 
#
# 1 190.5940 35.0998 67.9685 0.0000 0.0000 0.0000
# 2 35.0998 74.8534 16.7657 0.0000 0.0000 0.0000
# 3 67.9685 16.7657 198.3867 0.0000 0.0000 0.0000
# 4 0.0000 0.0000 0.0000 0.4491 0.0000 0.0000
# 5 0.0000 0.0000 0.0000 0.0000 35.1110 0.0000
# 6 0.0000 0.0000 0.0000 0.0000 0.0000 44.3579
#
#
#
# Elastic Compliance Matrix: (Units=1/GPa)
#
#
# Indices 1 2 3 4 5 6 
#
# 1 0.006428 -0.002569 -0.001985 0.000000 0.000000 0.000000
# 2 -0.002569 0.014644 -0.000357 0.000000 0.000000 0.000000
# 3 -0.001985 -0.000357 0.005751 0.000000 0.000000 0.000000
# 4 0.000000 0.000000 0.000000 2.226675 0.000000 0.000000
# 5 0.000000 0.000000 0.000000 0.000000 0.028481 0.000000
# 6 0.000000 0.000000 0.000000 0.000000 0.000000 0.022544
#
#
# Mechanical properties :
#
#
# Convention : Reuss Voigt Hill
#
# Bulk Modulus (GPa) = 58.82537 78.16689 68.49613
# Shear Modulus (GPa) = 2.15516 38.91694 20.53605
#
# Velocity S-wave (km/s) = 0.97921 4.16107 3.02269
# Velocity P-wave (km/s) = 5.23931 7.60678 6.53121
#
# Compressibility (1/GPa) = 0.01699947
#
# Stress axis : x y z
#
# Youngs Moduli (GPa) = 155.57287 68.28579 173.88421
#
# Poissons Ratio (x) = 0.17546 0.34517
# Poissons Ratio (y) = 0.39974 0.06212
# Poissons Ratio (z) = 0.30882 0.02440
#
# Static dielectric constant tensor:
#      x y z
#    x 1.956060 0.000000 0.000000 
#    y 0.000000 1.852060 0.000000 
#    z 0.000000 0.000000 1.801980 
# 
# From -- ./inp_files/2617.got.cif
#   From: 2010.05.17/outbox.cif.g08.bks.cpg/sg67_2_cif.got.tgz:2617.got - 2010.06.03 18:28:57.
