data_PCOD9503264
_publ_section_title
;
Structure prediction by ZEFSAII (Michael W. Deem and Ramdas Pophale) SiO2 
 PCOD9503264
Probable space group: C M M A
;
_chemical_formula_sum "Si O2"
_cell_formula_units_Z 72
_cell_length_a 16.522124
_cell_length_b 11.232073
_cell_length_c 17.354099
_cell_angle_alpha 90.000000
_cell_angle_beta 90.000000
_cell_angle_gamma 90.000000
_cell_volume 3220.533828
_symmetry_space_group_name_H-M "C M M A"
_symmetry_group_IT_number 67
_symmetry_cell_setting 'orthorhombic'
loop_
_space_group_symop_operation_xyz
x,y,z
-x,1/2-y,z
x,-y,-z
-x,1/2+y,-z
-x,-y,-z
x,1/2+y,-z
-x,y,z
x,1/2-y,z
1/2+x,1/2+y,z
1/2-x,-y,z
1/2+x,1/2-y,-z
1/2-x,y,-z
1/2-x,1/2-y,-z
1/2+x,y,-z
1/2-x,1/2+y,z
1/2+x,-y,z
loop_
_atom_site_type_symbol
_atom_site_label
_atom_site_fract_x
_atom_site_fract_y
_atom_site_fract_z
Si Si1 0.184621 0.750000 0.069599
Si Si2 0.846757 0.988694 0.587962
Si Si3 0.844044 0.007083 0.881537
Si Si4 0.407336 0.388872 0.268349
Si Si5 0.596868 0.250000 0.673168
Si Si6 0.651058 0.750000 0.149244
O O1 0.131829 0.629210 0.075147
O O2 0.250590 0.750000 0.140208
O O3 0.250000 0.750000 0.000000
O O4 0.872647 0.865341 0.627220
O O5 0.875239 0.000000 0.500000
O O6 0.750000 0.000000 0.588279
O O7 0.882263 0.088487 0.644308
O O8 0.854061 0.036960 0.791311
O O9 0.750000 0.000000 0.903399
O O10 0.878483 0.873767 0.889379
O O11 0.500000 0.428253 0.257143
O O12 0.402002 0.250000 0.249978
O O13 0.500000 0.250000 0.675811
O O14 0.628626 0.250000 0.760972
#
# Coordination Sequence:
#
# PCOD9503264 Si02
#       6
#     8  16  16  16   8   8
#     4  10  22  40  64  97 132 172 220 275 326 400
#     4  11  27  43  65  93 133 177 229 292 351 407
#     4  10  20  36  61  92 128 168 213 270 324 396
#     4  11  23  38  62  93 127 171 225 277 332 408
#     4  12  26  43  68  98 136 182 233 287 352 424
#     4  10  22  34  61  95 126 173 208 276 333 401
#
# _framework density 22.356542000000001
#
# number of rings (size 3 to 8) (size 9 to 14) (size 15 to 20)
#    0.000    1.333    3.333    1.333    6.222    6.667 
#    0.000    0.000    0.000    1.333    0.000    7.778 
#    0.000    0.000    0.000    0.000    0.000    0.000 
#
# Total GULP energy -201050.948995 kJ/mol
# GULP energy per Si atom -5584.748583 kJ/mol
# Density = 2.230566 g / cm^3
# Si number density = 22.356542 Si / 1000 Ang^3
#
#
#
# Elastic Constant Matrix: (Units=GPa)
#
#
# Indices 1 2 3 4 5 6 
#
# 1 51.2423 14.0905 27.9984 0.0000 0.0000 0.0000
# 2 14.0905 190.0767 46.6158 0.0000 0.0000 0.0000
# 3 27.9984 46.6158 141.2560 0.0000 0.0000 0.0000
# 4 0.0000 0.0000 0.0000 12.0506 0.0000 0.0000
# 5 0.0000 0.0000 0.0000 0.0000 -29.4151 0.0000
# 6 0.0000 0.0000 0.0000 0.0000 0.0000 14.3972
#
#
#
# Elastic Compliance Matrix: (Units=1/GPa)
#
#
# Indices 1 2 3 4 5 6 
#
# 1 0.021950 -0.000610 -0.004150 0.000000 0.000000 0.000000
# 2 -0.000610 0.005741 -0.001774 0.000000 0.000000 0.000000
# 3 -0.004150 -0.001774 0.008487 0.000000 0.000000 0.000000
# 4 0.000000 0.000000 0.000000 0.082984 0.000000 0.000000
# 5 0.000000 0.000000 0.000000 0.000000 -0.033996 0.000000
# 6 0.000000 0.000000 0.000000 0.000000 0.000000 0.069458
#
#
# Mechanical properties :
#
#
# Convention : Reuss Voigt Hill
#
# Bulk Modulus (GPa) = 43.26636 62.22048 52.74342
# Shear Modulus (GPa) = 28.50722 18.99788 23.75255
#
# Velocity S-wave (km/s) = 3.57475 2.91824 3.26305
# Velocity P-wave (km/s) = 6.03601 6.26468 6.15141
#
# Compressibility (1/GPa) = 0.02311264
#
# Stress axis : x y z
#
# Youngs Moduli (GPa) = 45.55799 174.17807 117.82420
#
# Poissons Ratio (x) = 0.10616 0.48892
# Poissons Ratio (y) = 0.02777 0.20900
# Poissons Ratio (z) = 0.18905 0.30897
#
# Static dielectric constant tensor:
#      x y z
#    x 1.610050 0.000000 0.000000 
#    y 0.000000 1.912200 0.000000 
#    z 0.000000 0.000000 1.817120 
# 
# From -- ./inp_files/34025.got.cif
#   From: 2010.05.17/outbox.cif.g08.bks.cpg/sg67_18_cif.got.tgz:34025.got - 2010.06.03 18:28:57.
