data_PCOD9503834
_publ_section_title
;
Structure prediction by ZEFSAII (Michael W. Deem and Ramdas Pophale) SiO2 
 PCOD9503834
Probable space group: C M M A
;
_chemical_formula_sum "Si O2"
_cell_formula_units_Z 120
_cell_length_a 20.923573
_cell_length_b 20.923351
_cell_length_c 16.459958
_cell_angle_alpha 90.000000
_cell_angle_beta 90.000000
_cell_angle_gamma 90.000000
_cell_volume 7206.025786
_symmetry_space_group_name_H-M "C M M A"
_symmetry_group_IT_number 67
_symmetry_cell_setting 'orthorhombic'
loop_
_space_group_symop_operation_xyz
x,y,z
-x,1/2-y,z
x,-y,-z
-x,1/2+y,-z
-x,-y,-z
x,1/2+y,-z
-x,y,z
x,1/2-y,z
1/2+x,1/2+y,z
1/2-x,-y,z
1/2+x,1/2-y,-z
1/2-x,y,-z
1/2-x,1/2-y,-z
1/2+x,y,-z
1/2-x,1/2+y,z
1/2+x,-y,z
loop_
_atom_site_type_symbol
_atom_site_label
_atom_site_fract_x
_atom_site_fract_y
_atom_site_fract_z
Si Si1 0.750000 0.500000 0.100991
Si Si2 0.348887 0.098882 0.879456
Si Si3 0.247765 0.606633 0.410697
Si Si4 0.923264 0.826737 0.016742
Si Si5 0.143369 0.497765 0.589303
Si Si6 0.074633 0.006597 0.242465
Si Si7 0.352969 0.897026 0.834677
Si Si8 0.256606 0.175367 0.757536
O O1 0.698182 0.551816 0.067111
O O2 0.701637 0.451635 0.147592
O O3 0.392800 0.142796 0.935593
O O4 0.304557 0.140747 0.820114
O O5 0.390753 0.054548 0.820118
O O6 0.250000 0.637957 0.500000
O O7 0.180471 0.569530 0.398611
O O8 0.300931 0.550932 0.413723
O O9 0.263310 0.649847 0.333926
O O10 0.912479 0.750000 0.020590
O O11 0.000000 0.837524 0.020594
O O12 0.885898 0.864099 0.088126
O O13 0.112045 0.500000 0.500000
O O14 0.100155 0.513308 0.666074
O O15 0.093684 0.935442 0.214257
O O16 0.000000 0.017141 0.238391
O O17 0.314549 0.843677 0.785750
O O18 0.267157 0.250000 0.761613
#
# Coordination Sequence:
#
# PCOD9503834 Si02
#       8
#     8  16  16  16  16  16  16  16
#     4   8  20  33  56  76 101 132 146 216 289 312
#     4  10  21  37  54  79 108 131 180 221 267 323
#     4   9  17  31  54  80 109 141 172 214 268 320
#     4  11  24  41  56  70 102 149 186 219 256 306
#     4   9  17  31  54  80 109 141 172 214 268 320
#     4  11  20  32  56  81 107 140 173 220 269 311
#     4  10  21  37  54  79 108 131 180 221 267 323
#     4  11  20  32  56  81 107 140 173 220 269 311
#
# _framework density 16.652729999999998
#
# number of rings (size 3 to 8) (size 9 to 14) (size 15 to 20)
#    0.000    2.000    2.667    2.400    0.000    5.333 
#    0.000    6.667    0.000    0.000    0.000    0.000 
#    0.000    4.267    0.000    0.000    0.000    0.000 
#
# Total GULP energy -334168.292626 kJ/mol
# GULP energy per Si atom -5569.471544 kJ/mol
# Density = 1.661483 g / cm^3
# Si number density = 16.652730 Si / 1000 Ang^3
#
#
#
# Elastic Constant Matrix: (Units=GPa)
#
#
# Indices 1 2 3 4 5 6 
#
# 1 34.0094 91.0958 49.4354 0.0000 0.0000 0.0000
# 2 91.0958 33.8522 49.3370 0.0000 0.0000 0.0000
# 3 49.4354 49.3370 128.6839 0.0000 0.0000 0.0000
# 4 0.0000 0.0000 0.0000 0.1412 0.0000 0.0000
# 5 0.0000 0.0000 0.0000 0.0000 0.1434 0.0000
# 6 0.0000 0.0000 0.0000 0.0000 0.0000 20.8632
#
#
#
# Elastic Compliance Matrix: (Units=1/GPa)
#
#
# Indices 1 2 3 4 5 6 
#
# 1 -0.002999 0.014486 -0.004402 0.000000 0.000000 0.000000
# 2 0.014486 -0.003016 -0.004409 0.000000 0.000000 0.000000
# 3 -0.004402 -0.004409 0.011152 0.000000 0.000000 0.000000
# 4 0.000000 0.000000 0.000000 7.080805 0.000000 0.000000
# 5 0.000000 0.000000 0.000000 0.000000 6.974931 0.000000
# 6 0.000000 0.000000 0.000000 0.000000 0.000000 0.047931
#
#
# Mechanical properties :
#
#
# Convention : Reuss Voigt Hill
#
# Bulk Modulus (GPa) = 60.64892 64.03132 62.34012
# Shear Modulus (GPa) = 0.35454 4.67471 2.51462
#
# Velocity S-wave (km/s) = 0.46191 1.67728 1.23017
# Velocity P-wave (km/s) = 6.06493 6.50273 6.28764
#
# Compressibility (1/GPa) = 0.01648834
#
# Stress axis : x y z
#
# Youngs Moduli (GPa) = -333.42377 -331.60991 89.66821
#
# Poissons Ratio (x) = 4.80365 0.39469
# Poissons Ratio (y) = 4.82992 0.39532
# Poissons Ratio (z) = -1.46762 -1.46198
#
# Static dielectric constant tensor:
#      x y z
#    x 1.552540 0.000000 0.000000 
#    y 0.000000 1.552540 0.000000 
#    z 0.000000 0.000000 1.603730 
# 
# From -- ./inp_files/29629.got.cif
#   From: 2010.05.17/outbox.cif.g08.bks.cpg/sg67_15_cif.got.tgz:29629.got - 2010.06.03 18:28:57.
