data_PCOD9503498
_publ_section_title
;
Structure prediction by ZEFSAII (Michael W. Deem and Ramdas Pophale) SiO2 
 PCOD9503498
Probable space group: C M M A
;
_chemical_formula_sum "Si O2"
_cell_formula_units_Z 80
_cell_length_a 18.989986
_cell_length_b 14.078534
_cell_length_c 14.425339
_cell_angle_alpha 90.000000
_cell_angle_beta 90.000000
_cell_angle_gamma 90.000000
_cell_volume 3856.631166
_symmetry_space_group_name_H-M "C M M A"
_symmetry_group_IT_number 67
_symmetry_cell_setting 'orthorhombic'
loop_
_space_group_symop_operation_xyz
x,y,z
-x,1/2-y,z
x,-y,-z
-x,1/2+y,-z
-x,-y,-z
x,1/2+y,-z
-x,y,z
x,1/2-y,z
1/2+x,1/2+y,z
1/2-x,-y,z
1/2+x,1/2-y,-z
1/2-x,y,-z
1/2-x,1/2-y,-z
1/2+x,y,-z
1/2-x,1/2+y,z
1/2+x,-y,z
loop_
_atom_site_type_symbol
_atom_site_label
_atom_site_fract_x
_atom_site_fract_y
_atom_site_fract_z
Si Si1 0.313515 0.865423 0.568306
Si Si2 0.802951 0.864372 0.218695
Si Si3 0.420938 0.134598 0.580164
Si Si4 0.141745 0.362894 0.223712
Si Si5 0.580082 0.521364 0.892312
O O1 0.309760 0.750000 0.572214
O O2 0.250000 0.894001 0.500000
O O3 0.311290 0.896932 0.674287
O O4 0.384504 0.893514 0.515567
O O5 0.810244 0.750000 0.215885
O O6 0.721731 0.886371 0.194676
O O7 0.861297 0.911054 0.153493
O O8 0.500000 0.098352 0.592048
O O9 0.424060 0.250000 0.578301
O O10 0.372573 0.112619 0.668727
O O11 0.132003 0.250000 0.214091
O O12 0.088577 0.422564 0.162349
O O13 0.500000 0.557845 0.882155
O O14 0.593480 0.500000 0.000000
#
# Coordination Sequence:
#
# PCOD9503498 Si02
#       5
#    16  16  16  16  16
#     4   9  15  29  54  86 123 160 198 241 298 366
#     4  10  21  38  65  95 124 161 205 255 310 373
#     4   9  16  27  50  85 120 155 195 240 294 359
#     4  10  20  38  65  92 117 154 205 258 310 369
#     4  11  26  45  62  85 122 164 207 263 323 374
#
# _framework density 20.743492
#
# number of rings (size 3 to 8) (size 9 to 14) (size 15 to 20)
#    0.000    2.200    2.000    1.200    0.000    4.800 
#    0.000    7.000    0.000    2.400    0.000    0.000 
#    0.000    0.000    0.000    0.000    0.000    0.000 
#
# Total GULP energy -223491.910435 kJ/mol
# GULP energy per Si atom -5587.297761 kJ/mol
# Density = 2.069628 g / cm^3
# Si number density = 20.743492 Si / 1000 Ang^3
#
#
#
# Elastic Constant Matrix: (Units=GPa)
#
#
# Indices 1 2 3 4 5 6 
#
# 1 138.3529 17.8026 43.4533 0.0000 0.0000 0.0000
# 2 17.8026 56.2180 0.7649 0.0000 0.0000 0.0000
# 3 43.4533 0.7649 90.6777 0.0000 0.0000 0.0000
# 4 0.0000 0.0000 0.0000 23.1291 0.0000 0.0000
# 5 0.0000 0.0000 0.0000 0.0000 15.3808 0.0000
# 6 0.0000 0.0000 0.0000 0.0000 0.0000 25.5848
#
#
#
# Elastic Compliance Matrix: (Units=1/GPa)
#
#
# Indices 1 2 3 4 5 6 
#
# 1 0.008919 -0.002767 -0.004251 0.000000 0.000000 0.000000
# 2 -0.002767 0.018648 0.001168 0.000000 0.000000 0.000000
# 3 -0.004251 0.001168 0.013055 0.000000 0.000000 0.000000
# 4 0.000000 0.000000 0.000000 0.043236 0.000000 0.000000
# 5 0.000000 0.000000 0.000000 0.000000 0.065016 0.000000
# 6 0.000000 0.000000 0.000000 0.000000 0.000000 0.039086
#
#
# Mechanical properties :
#
#
# Convention : Reuss Voigt Hill
#
# Bulk Modulus (GPa) = 34.57260 45.47671 40.02465
# Shear Modulus (GPa) = 23.88929 27.70078 25.79503
#
# Velocity S-wave (km/s) = 3.39728 3.65827 3.53019
# Velocity P-wave (km/s) = 5.66494 6.30990 5.99610
#
# Compressibility (1/GPa) = 0.02892464
#
# Stress axis : x y z
#
# Youngs Moduli (GPa) = 112.12130 53.62478 76.59807
#
# Poissons Ratio (x) = 0.14835 0.32559
# Poissons Ratio (y) = 0.31019 -0.08950
# Poissons Ratio (z) = 0.47659 -0.06266
#
# Static dielectric constant tensor:
#      x y z
#    x 1.743860 0.000000 0.000000 
#    y 0.000000 1.796910 0.000000 
#    z 0.000000 0.000000 1.711640 
# 
# From -- ./inp_files/28404.got.cif
#   From: 2010.05.17/outbox.cif.g08.bks.cpg/sg67_15_cif.got.tgz:28404.got - 2010.06.03 18:28:57.
