data_PCOD9503423
_publ_section_title
;
Structure prediction by ZEFSAII (Michael W. Deem and Ramdas Pophale) SiO2 
 PCOD9503423
Probable space group: C M M A
;
_chemical_formula_sum "Si O2"
_cell_formula_units_Z 88
_cell_length_a 23.891816
_cell_length_b 20.072641
_cell_length_c 9.140496
_cell_angle_alpha 90.000000
_cell_angle_beta 90.000000
_cell_angle_gamma 90.000000
_cell_volume 4383.524535
_symmetry_space_group_name_H-M "C M M A"
_symmetry_group_IT_number 67
_symmetry_cell_setting 'orthorhombic'
loop_
_space_group_symop_operation_xyz
x,y,z
-x,1/2-y,z
x,-y,-z
-x,1/2+y,-z
-x,-y,-z
x,1/2+y,-z
-x,y,z
x,1/2-y,z
1/2+x,1/2+y,z
1/2-x,-y,z
1/2+x,1/2-y,-z
1/2-x,y,-z
1/2-x,1/2-y,-z
1/2+x,y,-z
1/2-x,1/2+y,z
1/2+x,-y,z
loop_
_atom_site_type_symbol
_atom_site_label
_atom_site_fract_x
_atom_site_fract_y
_atom_site_fract_z
Si Si1 0.804178 0.750000 0.191741
Si Si2 0.663214 0.526089 0.644938
Si Si3 0.316215 0.750000 0.299409
Si Si4 0.631317 0.390533 0.799923
Si Si5 0.693524 0.606221 0.922537
Si Si6 0.395778 0.250000 0.424741
Si Si7 0.563126 0.608145 0.485871
O O1 0.750579 0.750000 0.298524
O O2 0.800229 0.684539 0.096895
O O3 0.863573 0.750000 0.272454
O O4 0.693129 0.500000 0.500000
O O5 0.656758 0.458473 0.736273
O O6 0.688922 0.576956 0.760020
O O7 0.607767 0.562665 0.575528
O O8 0.337025 0.820002 0.227795
O O9 0.345935 0.750000 0.455909
O O10 0.578200 0.386682 0.688486
O O11 0.638737 0.403119 0.974124
O O12 0.750000 0.580453 0.000000
O O13 0.429888 0.182707 0.451402
O O14 0.500000 0.584199 0.504851
#
# Coordination Sequence:
#
# PCOD9503423 Si02
#       7
#     8  16   8  16  16   8  16
#     4  12  21  39  67  94 127 179 215 261 323 395
#     4  10  23  42  62  93 129 171 218 268 318 385
#     4  10  20  39  59  92 126 170 220 258 320 388
#     4  10  22  38  62  91 129 163 213 268 323 387
#     4  12  23  41  65  95 134 176 214 262 329 393
#     4  10  20  37  65  97 131 163 214 284 322 382
#     4  10  21  42  69  94 123 169 222 276 332 386
#
# _framework density 20.075168999999999
#
# number of rings (size 3 to 8) (size 9 to 14) (size 15 to 20)
#    0.000    1.455    3.636    1.909    0.000    4.727 
#    0.000    7.273    0.000    5.455    0.000    0.000 
#    0.000    0.000    0.000    0.000    0.000    0.000 
#
# Total GULP energy -244950.143020 kJ/mol
# GULP energy per Si atom -5567.048705 kJ/mol
# Density = 2.002948 g / cm^3
# Si number density = 20.075169 Si / 1000 Ang^3
#
#
#
# Elastic Constant Matrix: (Units=GPa)
#
#
# Indices 1 2 3 4 5 6 
#
# 1 107.1997 17.1268 48.3763 0.0000 0.0000 0.0000
# 2 17.1268 132.6365 31.8701 0.0000 0.0000 0.0000
# 3 48.3763 31.8701 122.9132 0.0000 0.0000 0.0000
# 4 0.0000 0.0000 0.0000 -38.7055 0.0000 0.0000
# 5 0.0000 0.0000 0.0000 0.0000 13.6232 0.0000
# 6 0.0000 0.0000 0.0000 0.0000 0.0000 18.9679
#
#
#
# Elastic Compliance Matrix: (Units=1/GPa)
#
#
# Indices 1 2 3 4 5 6 
#
# 1 0.011365 -0.000419 -0.004364 0.000000 0.000000 0.000000
# 2 -0.000419 0.008056 -0.001924 0.000000 0.000000 0.000000
# 3 -0.004364 -0.001924 0.010352 0.000000 0.000000 0.000000
# 4 0.000000 0.000000 0.000000 -0.025836 0.000000 0.000000
# 5 0.000000 0.000000 0.000000 0.000000 0.073404 0.000000
# 6 0.000000 0.000000 0.000000 0.000000 0.000000 0.052721
#
#
# Mechanical properties :
#
#
# Convention : Reuss Voigt Hill
#
# Bulk Modulus (GPa) = 61.12941 61.94398 61.53670
# Shear Modulus (GPa) = 33.57311 16.46887 25.02099
#
# Velocity S-wave (km/s) = 4.09390 2.86730 3.53422
# Velocity P-wave (km/s) = 7.27070 6.47185 6.88287
#
# Compressibility (1/GPa) = 0.01635874
#
# Stress axis : x y z
#
# Youngs Moduli (GPa) = 87.99080 124.13457 96.59576
#
# Poissons Ratio (x) = 0.05199 0.42158
# Poissons Ratio (y) = 0.03685 0.18584
# Poissons Ratio (z) = 0.38403 0.23883
#
# Static dielectric constant tensor:
#      x y z
#    x 1.725900 0.000000 0.000000 
#    y 0.000000 1.716590 0.000000 
#    z 0.000000 0.000000 1.812690 
# 
# From -- ./inp_files/12497.got.cif
#   From: 2010.05.17/outbox.cif.g08.bks.cpg/sg67_7_cif.got.tgz:12497.got - 2010.06.03 18:28:57.
