data_PCOD9503795
_publ_section_title
;
Structure prediction by ZEFSAII (Michael W. Deem and Ramdas Pophale) SiO2 
 PCOD9503795
Probable space group: C M M A
;
_chemical_formula_sum "Si O2"
_cell_formula_units_Z 112
_cell_length_a 14.421870
_cell_length_b 14.836082
_cell_length_c 26.902033
_cell_angle_alpha 90.000000
_cell_angle_beta 90.000000
_cell_angle_gamma 90.000000
_cell_volume 5756.067824
_symmetry_space_group_name_H-M "C M M A"
_symmetry_group_IT_number 67
_symmetry_cell_setting 'orthorhombic'
loop_
_space_group_symop_operation_xyz
x,y,z
-x,1/2-y,z
x,-y,-z
-x,1/2+y,-z
-x,-y,-z
x,1/2+y,-z
-x,y,z
x,1/2-y,z
1/2+x,1/2+y,z
1/2-x,-y,z
1/2+x,1/2-y,-z
1/2-x,y,-z
1/2-x,1/2-y,-z
1/2+x,y,-z
1/2-x,1/2+y,z
1/2+x,-y,z
loop_
_atom_site_type_symbol
_atom_site_label
_atom_site_fract_x
_atom_site_fract_y
_atom_site_fract_z
Si Si1 0.263752 0.351489 0.253908
Si Si2 0.888843 0.854539 0.449759
Si Si3 0.249846 0.855159 0.940223
Si Si4 0.892157 0.988843 0.781331
Si Si5 0.892265 0.497833 0.099259
Si Si6 0.104157 0.141654 0.441157
Si Si7 0.260905 0.099254 0.362846
O O1 0.266412 0.250000 0.232753
O O2 0.170504 0.406123 0.238749
O O3 0.346698 0.417443 0.236964
O O4 0.270017 0.343541 0.313592
O O5 0.857629 0.750000 0.446595
O O6 0.862501 0.890312 0.504410
O O7 0.844746 0.900268 0.402115
O O8 0.000000 0.856593 0.448237
O O9 0.252054 0.750000 0.924804
O O10 0.335450 0.914571 0.919362
O O11 0.159404 0.909796 0.922115
O O12 0.250000 0.858195 0.000000
O O13 0.886315 0.991079 0.841092
O O14 0.000000 0.980875 0.766560
O O15 0.000000 0.502183 0.084745
O O16 0.098317 0.250000 0.446045
O O17 0.172811 0.121986 0.396762
O O18 0.000000 0.106686 0.432545
O O19 0.250000 0.000000 0.342108
#
# Coordination Sequence:
#
# PCOD9503795 Si02
#       7
#    16  16  16  16  16  16  16
#     4  11  23  42  64  87 117 155 194 243 307 369
#     4   9  19  36  56  78 105 139 181 225 270 331
#     4  10  21  36  57  90 131 170 208 250 295 347
#     4  10  23  43  63  91 121 151 201 259 305 355
#     4  10  21  38  62  87 120 163 207 255 305 353
#     4   9  19  36  56  78 105 139 181 225 270 331
#     4  12  23  36  54  80 112 144 179 230 284 340
#
# _framework density 19.457726999999998
#
# number of rings (size 3 to 8) (size 9 to 14) (size 15 to 20)
#    0.000    1.857    1.429    5.143    0.000    8.571 
#    0.000    5.714    0.000    0.000    0.000    0.000 
#    0.000    0.000    0.000    0.000    0.000    0.000 
#
# Total GULP energy -312585.888662 kJ/mol
# GULP energy per Si atom -5581.890869 kJ/mol
# Density = 1.941344 g / cm^3
# Si number density = 19.457727 Si / 1000 Ang^3
#
#
#
# Elastic Constant Matrix: (Units=GPa)
#
#
# Indices 1 2 3 4 5 6 
#
# 1 115.1632 29.6208 37.8479 0.0000 0.0000 0.0000
# 2 29.6208 129.6137 26.1240 0.0000 0.0000 0.0000
# 3 37.8479 26.1240 83.4691 0.0000 0.0000 0.0000
# 4 0.0000 0.0000 0.0000 24.8163 0.0000 0.0000
# 5 0.0000 0.0000 0.0000 0.0000 160.2726 0.0000
# 6 0.0000 0.0000 0.0000 0.0000 0.0000 16.2335
#
#
#
# Elastic Compliance Matrix: (Units=1/GPa)
#
#
# Indices 1 2 3 4 5 6 
#
# 1 0.010482 -0.001534 -0.004273 0.000000 0.000000 0.000000
# 2 -0.001534 0.008459 -0.001952 0.000000 0.000000 0.000000
# 3 -0.004273 -0.001952 0.014529 0.000000 0.000000 0.000000
# 4 0.000000 0.000000 0.000000 0.040296 0.000000 0.000000
# 5 0.000000 0.000000 0.000000 0.000000 0.006239 0.000000
# 6 0.000000 0.000000 0.000000 0.000000 0.000000 0.061601
#
#
# Mechanical properties :
#
#
# Convention : Reuss Voigt Hill
#
# Bulk Modulus (GPa) = 55.70303 57.27015 56.48659
# Shear Modulus (GPa) = 30.65435 55.90803 43.28119
#
# Velocity S-wave (km/s) = 3.97348 5.36614 4.72144
# Velocity P-wave (km/s) = 7.05275 8.23960 7.66917
#
# Compressibility (1/GPa) = 0.01795235
#
# Stress axis : x y z
#
# Youngs Moduli (GPa) = 95.39971 118.21341 68.82867
#
# Poissons Ratio (x) = 0.18138 0.29409
# Poissons Ratio (y) = 0.14637 0.13434
# Poissons Ratio (z) = 0.40763 0.23074
#
# Static dielectric constant tensor:
#      x y z
#    x 1.682330 0.000000 0.000000 
#    y 0.000000 1.739110 0.000000 
#    z 0.000000 0.000000 1.669380 
# 
# From -- ./inp_files/44368.got.cif
#   From: 2010.05.17/outbox.cif.g08.bks.cpg/sg67_23_cif.got.tgz:44368.got - 2010.06.03 18:28:57.
