data_PCOD9503261
_publ_section_title
;
Structure prediction by ZEFSAII (Michael W. Deem and Ramdas Pophale) SiO2 
 PCOD9503261
Probable space group: C M M A
;
_chemical_formula_sum "Si O2"
_cell_formula_units_Z 96
_cell_length_a 15.313015
_cell_length_b 14.609090
_cell_length_c 20.209789
_cell_angle_alpha 90.000000
_cell_angle_beta 90.000000
_cell_angle_gamma 90.000000
_cell_volume 4521.116018
_symmetry_space_group_name_H-M "C M M A"
_symmetry_group_IT_number 67
_symmetry_cell_setting 'orthorhombic'
loop_
_space_group_symop_operation_xyz
x,y,z
-x,1/2-y,z
x,-y,-z
-x,1/2+y,-z
-x,-y,-z
x,1/2+y,-z
-x,y,z
x,1/2-y,z
1/2+x,1/2+y,z
1/2-x,-y,z
1/2+x,1/2-y,-z
1/2-x,y,-z
1/2-x,1/2-y,-z
1/2+x,y,-z
1/2-x,1/2+y,z
1/2+x,-y,z
loop_
_atom_site_type_symbol
_atom_site_label
_atom_site_fract_x
_atom_site_fract_y
_atom_site_fract_z
Si Si1 0.237318 0.351653 0.334158
Si Si2 0.397583 0.856221 0.981308
Si Si3 0.097082 0.640248 0.772802
Si Si4 0.902296 0.911892 0.407457
Si Si5 0.652209 0.024684 0.896121
Si Si6 0.901271 0.124440 0.445756
O O1 0.264369 0.250000 0.313226
O O2 0.173702 0.388110 0.277157
O O3 0.325141 0.401763 0.355320
O O4 0.175094 0.343740 0.398223
O O5 0.500000 0.855444 0.000163
O O6 0.371597 0.750000 0.969157
O O7 0.388238 0.928523 0.921198
O O8 0.346995 0.905075 0.041590
O O9 0.106003 0.750000 0.787041
O O10 0.104555 0.578667 0.837852
O O11 0.000000 0.628308 0.742989
O O12 0.883554 0.859543 0.476586
O O13 0.000000 0.886484 0.384384
O O14 0.903842 0.016516 0.430476
O O15 0.750000 0.000000 0.875679
O O16 0.000000 0.156193 0.431289
#
# Coordination Sequence:
#
# PCOD9503261 Si02
#       6
#    16  16  16  16  16  16
#     4  11  22  34  53  83 114 145 186 238 295 354
#     4  10  20  36  61  92 125 158 194 240 288 339
#     4  10  22  41  61  80 110 155 206 257 302 352
#     4   9  19  35  55  79 108 147 191 236 290 351
#     4  11  22  35  58  90 121 157 197 238 293 357
#     4   9  18  34  55  78 107 145 191 240 289 346
#
# _framework density 21.233695999999998
#
# number of rings (size 3 to 8) (size 9 to 14) (size 15 to 20)
#    0.000    2.000    0.000    6.000    0.000    8.667 
#    0.000    1.667    0.000    2.000    0.000    0.000 
#    0.000    0.000    0.000    0.000    0.000    0.000 
#
# Total GULP energy -267873.639941 kJ/mol
# GULP energy per Si atom -5580.700832 kJ/mol
# Density = 2.118537 g / cm^3
# Si number density = 21.233696 Si / 1000 Ang^3
#
#
#
# Elastic Constant Matrix: (Units=GPa)
#
#
# Indices 1 2 3 4 5 6 
#
# 1 119.8160 34.9894 56.8224 0.0000 0.0000 0.0000
# 2 34.9894 121.3228 44.9185 0.0000 0.0000 0.0000
# 3 56.8224 44.9185 86.8813 0.0000 0.0000 0.0000
# 4 0.0000 0.0000 0.0000 38.9326 0.0000 0.0000
# 5 0.0000 0.0000 0.0000 0.0000 23.2598 0.0000
# 6 0.0000 0.0000 0.0000 0.0000 0.0000 10.6671
#
#
#
# Elastic Compliance Matrix: (Units=1/GPa)
#
#
# Indices 1 2 3 4 5 6 
#
# 1 0.012146 -0.000695 -0.007585 0.000000 0.000000 0.000000
# 2 -0.000695 0.010233 -0.004836 0.000000 0.000000 0.000000
# 3 -0.007585 -0.004836 0.018971 0.000000 0.000000 0.000000
# 4 0.000000 0.000000 0.000000 0.025685 0.000000 0.000000
# 5 0.000000 0.000000 0.000000 0.000000 0.042993 0.000000
# 6 0.000000 0.000000 0.000000 0.000000 0.000000 0.093746
#
#
# Mechanical properties :
#
#
# Convention : Reuss Voigt Hill
#
# Bulk Modulus (GPa) = 66.14245 66.83119 66.48682
# Shear Modulus (GPa) = 21.27245 27.32457 24.29851
#
# Velocity S-wave (km/s) = 3.16860 3.59116 3.38648
# Velocity P-wave (km/s) = 6.67863 6.98124 6.83161
#
# Compressibility (1/GPa) = 0.01511888
#
# Stress axis : x y z
#
# Youngs Moduli (GPa) = 82.33187 97.71852 52.71240
#
# Poissons Ratio (x) = 0.06789 0.39980
# Poissons Ratio (y) = 0.05720 0.25494
# Poissons Ratio (z) = 0.62445 0.47260
#
# Static dielectric constant tensor:
#      x y z
#    x 1.772120 0.000000 0.000000 
#    y 0.000000 1.836850 0.000000 
#    z 0.000000 0.000000 1.759280 
# 
# From -- ./inp_files/38482.got.cif
#   From: 2010.05.17/outbox.cif.g08.bks.cpg/sg67_20_cif.got.tgz:38482.got - 2010.06.03 18:28:57.
