data_PCOD9503955
_publ_section_title
;
Structure prediction by ZEFSAII (Michael W. Deem and Ramdas Pophale) SiO2 
 PCOD9503955
Probable space group: C M M A
;
_chemical_formula_sum "Si O2"
_cell_formula_units_Z 64
_cell_length_a 14.182340
_cell_length_b 25.307643
_cell_length_c 9.905533
_cell_angle_alpha 90.000000
_cell_angle_beta 90.000000
_cell_angle_gamma 90.000000
_cell_volume 3555.309730
_symmetry_space_group_name_H-M "C M M A"
_symmetry_group_IT_number 67
_symmetry_cell_setting 'orthorhombic'
loop_
_space_group_symop_operation_xyz
x,y,z
-x,1/2-y,z
x,-y,-z
-x,1/2+y,-z
-x,-y,-z
x,1/2+y,-z
-x,y,z
x,1/2-y,z
1/2+x,1/2+y,z
1/2-x,-y,z
1/2+x,1/2-y,-z
1/2-x,y,-z
1/2-x,1/2-y,-z
1/2+x,y,-z
1/2-x,1/2+y,z
1/2+x,-y,z
loop_
_atom_site_type_symbol
_atom_site_label
_atom_site_fract_x
_atom_site_fract_y
_atom_site_fract_z
Si Si1 0.657204 0.250000 0.405916
Si Si2 0.153488 0.250000 0.918003
Si Si3 0.000000 0.100301 0.261013
Si Si4 0.000000 0.338906 0.978512
Si Si5 0.639003 0.507789 0.340087
Si Si6 0.500000 0.577945 0.740197
Si Si7 0.000000 0.334447 0.520122
O O1 0.750000 0.250000 0.500000
O O2 0.672357 0.250000 0.243902
O O3 0.591551 0.199758 0.441519
O O4 0.250000 0.250000 0.000000
O O5 0.090201 0.300659 0.959003
O O6 0.000000 0.148510 0.365820
O O7 0.000000 0.127354 0.115352
O O8 0.090404 0.062243 0.290760
O O9 0.000000 0.380765 0.858877
O O10 0.617952 0.500000 0.500000
O O11 0.750000 0.500000 0.323073
O O12 0.588599 0.460773 0.260386
O O13 0.500000 0.611792 0.603945
#
# Coordination Sequence:
#
# PCOD9503955 Si02
#       7
#     8   8   8   8  16   8   8
#     4  11  25  40  65  97 117 158 212 260 300 360
#     4  11  25  44  61  89 129 162 200 256 316 364
#     4  11  23  39  61  95 117 165 210 243 302 372
#     4  11  25  43  63  84 130 170 198 243 320 375
#     4  10  21  37  61  93 124 152 201 264 307 348
#     4  11  19  41  63  82 119 169 193 244 307 371
#     4  11  21  41  65  87 128 158 208 253 299 363
#
# _framework density 18.001245999999998
#
# number of rings (size 3 to 8) (size 9 to 14) (size 15 to 20)
#    0.000    1.250    5.000    1.500    3.500    7.000 
#    0.000    1.250    0.000    0.000    0.000    0.000 
#    0.000    0.000    0.000    0.000    0.000    0.000 
#
# Total GULP energy -178639.683591 kJ/mol
# GULP energy per Si atom -5582.490112 kJ/mol
# Density = 1.796027 g / cm^3
# Si number density = 18.001246 Si / 1000 Ang^3
#
#
#
# Elastic Constant Matrix: (Units=GPa)
#
#
# Indices 1 2 3 4 5 6 
#
# 1 169.6119 64.1168 67.2955 0.0000 0.0000 0.0000
# 2 64.1168 102.9998 34.9424 0.0000 0.0000 0.0000
# 3 67.2955 34.9424 74.0924 0.0000 0.0000 0.0000
# 4 0.0000 0.0000 0.0000 22.2730 0.0000 0.0000
# 5 0.0000 0.0000 0.0000 0.0000 10.3744 0.0000
# 6 0.0000 0.0000 0.0000 0.0000 0.0000 -1.2744
#
#
#
# Elastic Compliance Matrix: (Units=1/GPa)
#
#
# Indices 1 2 3 4 5 6 
#
# 1 0.010376 -0.003883 -0.007593 0.000000 0.000000 0.000000
# 2 -0.003883 0.013011 -0.002609 0.000000 0.000000 0.000000
# 3 -0.007593 -0.002609 0.021624 0.000000 0.000000 0.000000
# 4 0.000000 0.000000 0.000000 0.044897 0.000000 0.000000
# 5 0.000000 0.000000 0.000000 0.000000 0.096391 0.000000
# 6 0.000000 0.000000 0.000000 0.000000 0.000000 -0.784663
#
#
# Mechanical properties :
#
#
# Convention : Reuss Voigt Hill
#
# Bulk Modulus (GPa) = 59.38151 75.49040 67.43596
# Shear Modulus (GPa) = -8.85617 18.29789 4.72086
#
# Velocity S-wave (km/s) = -2.22046 3.19169 1.62118
# Velocity P-wave (km/s) = 5.14637 7.45719 6.40683
#
# Compressibility (1/GPa) = 0.01684026
#
# Stress axis : x y z
#
# Youngs Moduli (GPa) = 96.37173 76.85672 46.24542
#
# Poissons Ratio (x) = 0.29846 0.35115
# Poissons Ratio (y) = 0.37424 0.12066
# Poissons Ratio (z) = 0.73177 0.20052
#
# Static dielectric constant tensor:
#      x y z
#    x 1.648530 0.000000 0.000000 
#    y 0.000000 1.603760 0.000000 
#    z 0.000000 0.000000 1.626480 
# 
# From -- ./inp_files/8103.got.cif
#   From: 2010.05.17/outbox.cif.g08.bks.cpg/sg67_5_cif.got.tgz:8103.got - 2010.06.03 18:28:57.
