data_PCOD9503991
_publ_section_title
;
Structure prediction by ZEFSAII (Michael W. Deem and Ramdas Pophale) SiO2 
 PCOD9503991
Probable space group: C M M A
;
_chemical_formula_sum "Si O2"
_cell_formula_units_Z 52
_cell_length_a 34.484489
_cell_length_b 10.707275
_cell_length_c 6.979399
_cell_angle_alpha 90.000000
_cell_angle_beta 90.000000
_cell_angle_gamma 90.000000
_cell_volume 2577.037740
_symmetry_space_group_name_H-M "C M M A"
_symmetry_group_IT_number 67
_symmetry_cell_setting 'orthorhombic'
loop_
_space_group_symop_operation_xyz
x,y,z
-x,1/2-y,z
x,-y,-z
-x,1/2+y,-z
-x,-y,-z
x,1/2+y,-z
-x,y,z
x,1/2-y,z
1/2+x,1/2+y,z
1/2-x,-y,z
1/2+x,1/2-y,-z
1/2-x,y,-z
1/2-x,1/2-y,-z
1/2+x,y,-z
1/2-x,1/2+y,z
1/2+x,-y,z
loop_
_atom_site_type_symbol
_atom_site_label
_atom_site_fract_x
_atom_site_fract_y
_atom_site_fract_z
Si Si1 0.543102 0.609020 0.655244
Si Si2 0.623724 0.387582 0.137099
Si Si3 0.701048 0.608547 0.652687
Si Si4 0.250000 0.500000 0.000000
O O1 0.546097 0.500000 0.500000
O O2 0.500000 0.598733 0.745089
O O3 0.545350 0.750000 0.570419
O O4 0.579606 0.598762 0.794142
O O5 0.628143 0.250000 0.046594
O O6 0.654919 0.393347 0.306878
O O7 0.633544 0.500000 0.000000
O O8 0.709405 0.500000 0.500000
O O9 0.710549 0.750000 0.589972
O O10 0.723138 0.579261 0.853243
#
# Coordination Sequence:
#
# PCOD9503991 Si02
#       4
#    16  16  16   4
#     4   9  18  33  54  81 114 151 194 242 292 349
#     4  10  21  38  58  84 118 156 198 245 297 354
#     4  11  25  43  66  94 124 162 204 251 306 365
#     4  12  24  44  68  92 124 160 202 254 302 374
#
# _framework density 20.178208000000001
#
# number of rings (size 3 to 8) (size 9 to 14) (size 15 to 20)
#    0.000    1.846    1.538    1.846    0.000    6.769 
#    0.000    0.000    0.000    0.000    0.000    0.000 
#    0.000    0.000    0.000    0.000    0.000    0.000 
#
# Total GULP energy -144985.416463 kJ/mol
# GULP energy per Si atom -5576.362172 kJ/mol
# Density = 2.013228 g / cm^3
# Si number density = 20.178208 Si / 1000 Ang^3
#
#
#
# Elastic Constant Matrix: (Units=GPa)
#
#
# Indices 1 2 3 4 5 6 
#
# 1 117.4044 42.3281 23.8938 0.0000 0.0000 0.0000
# 2 42.3281 181.3916 70.6249 0.0000 0.0000 0.0000
# 3 23.8938 70.6249 64.4513 0.0000 0.0000 0.0000
# 4 0.0000 0.0000 0.0000 30.3644 0.0000 0.0000
# 5 0.0000 0.0000 0.0000 0.0000 18.6166 0.0000
# 6 0.0000 0.0000 0.0000 0.0000 0.0000 20.1817
#
#
#
# Elastic Compliance Matrix: (Units=1/GPa)
#
#
# Indices 1 2 3 4 5 6 
#
# 1 0.009430 -0.001464 -0.001892 0.000000 0.000000 0.000000
# 2 -0.001464 0.009843 -0.010243 0.000000 0.000000 0.000000
# 3 -0.001892 -0.010243 0.027441 0.000000 0.000000 0.000000
# 4 0.000000 0.000000 0.000000 0.032933 0.000000 0.000000
# 5 0.000000 0.000000 0.000000 0.000000 0.053715 0.000000
# 6 0.000000 0.000000 0.000000 0.000000 0.000000 0.049550
#
#
# Mechanical properties :
#
#
# Convention : Reuss Voigt Hill
#
# Bulk Modulus (GPa) = 51.23816 70.77120 61.00468
# Shear Modulus (GPa) = 23.08246 28.92590 26.00418
#
# Velocity S-wave (km/s) = 3.38587 3.79030 3.59378
# Velocity P-wave (km/s) = 6.38228 7.36915 6.89340
#
# Compressibility (1/GPa) = 0.01951670
#
# Stress axis : x y z
#
# Youngs Moduli (GPa) = 106.03984 101.60005 36.44232
#
# Poissons Ratio (x) = 0.14874 0.06894
# Poissons Ratio (y) = 0.15524 0.37326
# Poissons Ratio (z) = 0.20061 1.04064
#
# Static dielectric constant tensor:
#      x y z
#    x 1.743160 0.000000 0.000000 
#    y 0.000000 1.709450 0.000000 
#    z 0.000000 0.000000 1.677780 
# 
# From -- ./inp_files/14288.got.cif
#   From: 2010.05.17/outbox.cif.g08.bks.cpg/sg67_8_cif.got.tgz:14288.got - 2010.06.03 18:28:57.
