data_PCOD9503141
_publ_section_title
;
Structure prediction by ZEFSAII (Michael W. Deem and Ramdas Pophale) SiO2 
 PCOD9503141
Probable space group: C M M A
;
_chemical_formula_sum "Si O2"
_cell_formula_units_Z 72
_cell_length_a 8.682844
_cell_length_b 15.953453
_cell_length_c 25.604017
_cell_angle_alpha 90.000000
_cell_angle_beta 90.000000
_cell_angle_gamma 90.000000
_cell_volume 3546.702838
_symmetry_space_group_name_H-M "C M M A"
_symmetry_group_IT_number 67
_symmetry_cell_setting 'orthorhombic'
loop_
_space_group_symop_operation_xyz
x,y,z
-x,1/2-y,z
x,-y,-z
-x,1/2+y,-z
-x,-y,-z
x,1/2+y,-z
-x,y,z
x,1/2-y,z
1/2+x,1/2+y,z
1/2-x,-y,z
1/2+x,1/2-y,-z
1/2-x,y,-z
1/2-x,1/2-y,-z
1/2+x,y,-z
1/2-x,1/2+y,z
1/2+x,-y,z
loop_
_atom_site_type_symbol
_atom_site_label
_atom_site_fract_x
_atom_site_fract_y
_atom_site_fract_z
Si Si1 0.316150 0.750000 0.558272
Si Si2 0.681803 0.411430 0.617109
Si Si3 0.815144 0.095437 0.946919
Si Si4 0.681763 0.152138 0.279845
Si Si5 0.185705 0.594037 0.166557
O O1 0.500000 0.750000 0.557747
O O2 0.250000 0.750000 0.500000
O O3 0.257507 0.833040 0.587690
O O4 0.500000 0.409764 0.609502
O O5 0.750000 0.500000 0.599088
O O6 0.722788 0.399767 0.678286
O O7 0.770356 0.131780 0.890086
O O8 0.000000 0.092793 0.950634
O O9 0.750000 0.000000 0.945704
O O10 0.750000 0.135093 0.000000
O O11 0.500000 0.129570 0.284172
O O12 0.695858 0.250000 0.292886
O O13 0.731861 0.139119 0.219947
O O14 0.250000 0.500000 0.169140
O O15 0.000000 0.591113 0.166421
#
# Coordination Sequence:
#
# PCOD9503141 Si02
#       5
#     8  16  16  16  16
#     4  12  26  48  74 104 140 178 219 266 315 368
#     4  12  25  43  68 100 135 175 220 266 318 376
#     4   9  15  24  39  61  91 126 171 225 288 355
#     4  10  20  36  58  83 116 157 201 251 311 373
#     4   9  18  30  46  72 102 137 182 236 295 364
#
# _framework density 20.300545
#
# number of rings (size 3 to 8) (size 9 to 14) (size 15 to 20)
#    0.000    1.778    1.111    5.000    0.000    4.000 
#    0.000    2.222    0.000    0.667    0.000    0.000 
#    0.000    0.000    0.000    0.000    0.000    6.000 
#
# Total GULP energy -201003.269949 kJ/mol
# GULP energy per Si atom -5583.424165 kJ/mol
# Density = 2.025434 g / cm^3
# Si number density = 20.300545 Si / 1000 Ang^3
#
#
#
# Elastic Constant Matrix: (Units=GPa)
#
#
# Indices 1 2 3 4 5 6 
#
# 1 111.5293 49.8187 53.9016 0.0000 0.0000 0.0000
# 2 49.8187 94.4386 53.4228 0.0000 0.0000 0.0000
# 3 53.9016 53.4228 144.9294 0.0000 0.0000 0.0000
# 4 0.0000 0.0000 0.0000 6.9801 0.0000 0.0000
# 5 0.0000 0.0000 0.0000 0.0000 85.6209 0.0000
# 6 0.0000 0.0000 0.0000 0.0000 0.0000 18.5359
#
#
#
# Elastic Compliance Matrix: (Units=1/GPa)
#
#
# Indices 1 2 3 4 5 6 
#
# 1 0.012581 -0.005041 -0.002821 0.000000 0.000000 0.000000
# 2 -0.005041 0.015399 -0.003801 0.000000 0.000000 0.000000
# 3 -0.002821 -0.003801 0.009350 0.000000 0.000000 0.000000
# 4 0.000000 0.000000 0.000000 0.143265 0.000000 0.000000
# 5 0.000000 0.000000 0.000000 0.000000 0.011679 0.000000
# 6 0.000000 0.000000 0.000000 0.000000 0.000000 0.053949
#
#
# Mechanical properties :
#
#
# Convention : Reuss Voigt Hill
#
# Bulk Modulus (GPa) = 71.41097 73.90929 72.66013
# Shear Modulus (GPa) = 18.23363 35.14432 26.68898
#
# Velocity S-wave (km/s) = 3.00022 4.16528 3.62980
# Velocity P-wave (km/s) = 6.87423 7.72136 7.31008
#
# Compressibility (1/GPa) = 0.01400345
#
# Stress axis : x y z
#
# Youngs Moduli (GPa) = 79.48188 64.94117 106.94908
#
# Poissons Ratio (x) = 0.32738 0.30170
# Poissons Ratio (y) = 0.40069 0.40653
# Poissons Ratio (z) = 0.22422 0.24685
#
# Static dielectric constant tensor:
#      x y z
#    x 1.684340 0.000000 0.000000 
#    y 0.000000 1.698370 0.000000 
#    z 0.000000 0.000000 1.782330 
# 
# From -- ./inp_files/43114.got.cif
#   From: 2010.05.17/outbox.cif.g08.bks.cpg/sg67_22_cif.got.tgz:43114.got - 2010.06.03 18:28:57.
