data_PCOD9503329
_publ_section_title
;
Structure prediction by ZEFSAII (Michael W. Deem and Ramdas Pophale) SiO2 
 PCOD9503329
Probable space group: C M M A
;
_chemical_formula_sum "Si O2"
_cell_formula_units_Z 88
_cell_length_a 8.757344
_cell_length_b 21.471746
_cell_length_c 25.691991
_cell_angle_alpha 90.000000
_cell_angle_beta 90.000000
_cell_angle_gamma 90.000000
_cell_volume 4831.005500
_symmetry_space_group_name_H-M "C M M A"
_symmetry_group_IT_number 67
_symmetry_cell_setting 'orthorhombic'
loop_
_space_group_symop_operation_xyz
x,y,z
-x,1/2-y,z
x,-y,-z
-x,1/2+y,-z
-x,-y,-z
x,1/2+y,-z
-x,y,z
x,1/2-y,z
1/2+x,1/2+y,z
1/2-x,-y,z
1/2+x,1/2-y,-z
1/2-x,y,-z
1/2-x,1/2-y,-z
1/2+x,y,-z
1/2-x,1/2+y,z
1/2+x,-y,z
loop_
_atom_site_type_symbol
_atom_site_label
_atom_site_fract_x
_atom_site_fract_y
_atom_site_fract_z
Si Si1 0.681066 0.677508 0.723416
Si Si2 0.318797 0.936637 0.340137
Si Si3 0.816200 0.112638 0.558267
Si Si4 0.175303 0.325321 0.166816
Si Si5 0.682525 0.250000 0.442430
Si Si6 0.683999 0.822821 0.053171
O O1 0.500000 0.674551 0.713719
O O2 0.729026 0.750000 0.713469
O O3 0.763377 0.625018 0.689766
O O4 0.719819 0.662579 0.783643
O O5 0.500000 0.939847 0.340405
O O6 0.255443 0.931478 0.398929
O O7 0.250000 0.000000 0.316513
O O8 0.750000 0.104837 0.500000
O O9 0.774036 0.182670 0.578681
O O10 0.000000 0.107116 0.556491
O O11 0.169164 0.250000 0.162141
O O12 0.227754 0.349021 0.110016
O O13 0.000000 0.345957 0.176684
O O14 0.500000 0.250000 0.444762
O O15 0.750000 0.250000 0.500000
O O16 0.500000 0.824010 0.051189
O O17 0.733257 0.750000 0.053425
O O18 0.750000 0.851014 0.000000
#
# Coordination Sequence:
#
# PCOD9503329 Si02
#       6
#    16  16  16  16   8  16
#     4  10  21  37  58  83 110 142 182 228 275 325
#     4  12  26  43  61  83 111 145 182 225 274 326
#     4  10  20  37  59  86 115 146 179 217 265 318
#     4   8  14  26  43  65  96 134 177 222 267 317
#     4   8  16  30  52  80 112 142 170 208 251 298
#     4   8  13  20  32  54  88 130 172 214 261 314
#
# _framework density 18.215671
#
# number of rings (size 3 to 8) (size 9 to 14) (size 15 to 20)
#    0.000    2.545    0.000    3.818    1.273    2.909 
#    0.000    5.455    0.000    0.000    0.000    0.000 
#    0.000    0.727    0.000    7.636    0.000   11.091 
#
# Total GULP energy -245091.630539 kJ/mol
# GULP energy per Si atom -5570.264330 kJ/mol
# Density = 1.817421 g / cm^3
# Si number density = 18.215671 Si / 1000 Ang^3
#
#
#
# Elastic Constant Matrix: (Units=GPa)
#
#
# Indices 1 2 3 4 5 6 
#
# 1 70.4646 39.4903 39.3840 0.0000 0.0000 0.0000
# 2 39.4903 82.6040 46.4170 0.0000 0.0000 0.0000
# 3 39.3840 46.4170 104.3902 0.0000 0.0000 0.0000
# 4 0.0000 0.0000 0.0000 3.1395 0.0000 0.0000
# 5 0.0000 0.0000 0.0000 0.0000 31.8486 0.0000
# 6 0.0000 0.0000 0.0000 0.0000 0.0000 16.2903
#
#
#
# Elastic Compliance Matrix: (Units=1/GPa)
#
#
# Indices 1 2 3 4 5 6 
#
# 1 0.020916 -0.007419 -0.004592 0.000000 0.000000 0.000000
# 2 -0.007419 0.018769 -0.005547 0.000000 0.000000 0.000000
# 3 -0.004592 -0.005547 0.013778 0.000000 0.000000 0.000000
# 4 0.000000 0.000000 0.000000 0.318520 0.000000 0.000000
# 5 0.000000 0.000000 0.000000 0.000000 0.031399 0.000000
# 6 0.000000 0.000000 0.000000 0.000000 0.000000 0.061386
#
#
# Mechanical properties :
#
#
# Convention : Reuss Voigt Hill
#
# Bulk Modulus (GPa) = 54.50211 56.44905 55.47558
# Shear Modulus (GPa) = 9.88142 19.06686 14.47414
#
# Velocity S-wave (km/s) = 2.33162 3.23883 2.82192
# Velocity P-wave (km/s) = 6.10197 6.71143 6.41394
#
# Compressibility (1/GPa) = 0.01834792
#
# Stress axis : x y z
#
# Youngs Moduli (GPa) = 47.81053 53.27792 72.57685
#
# Poissons Ratio (x) = 0.39525 0.33330
# Poissons Ratio (y) = 0.35469 0.40258
# Poissons Ratio (z) = 0.21957 0.29553
#
# Static dielectric constant tensor:
#      x y z
#    x 1.626680 0.000000 0.000000 
#    y 0.000000 1.649400 0.000000 
#    z 0.000000 0.000000 1.665550 
# 
# From -- ./inp_files/40695.got.cif
#   From: 2010.05.17/outbox.cif.g08.bks.cpg/sg67_21_cif.got.tgz:40695.got - 2010.06.03 18:28:57.
