data_PCOD9503631
_publ_section_title
;
Structure prediction by ZEFSAII (Michael W. Deem and Ramdas Pophale) SiO2 
 PCOD9503631
Probable space group: C M M A
;
_chemical_formula_sum "Si O2"
_cell_formula_units_Z 80
_cell_length_a 9.386405
_cell_length_b 18.257816
_cell_length_c 26.647261
_cell_angle_alpha 90.000000
_cell_angle_beta 90.000000
_cell_angle_gamma 90.000000
_cell_volume 4566.681159
_symmetry_space_group_name_H-M "C M M A"
_symmetry_group_IT_number 67
_symmetry_cell_setting 'orthorhombic'
loop_
_space_group_symop_operation_xyz
x,y,z
-x,1/2-y,z
x,-y,-z
-x,1/2+y,-z
-x,-y,-z
x,1/2+y,-z
-x,y,z
x,1/2-y,z
1/2+x,1/2+y,z
1/2-x,-y,z
1/2+x,1/2-y,-z
1/2-x,y,-z
1/2-x,1/2-y,-z
1/2+x,y,-z
1/2-x,1/2+y,z
1/2+x,-y,z
loop_
_atom_site_type_symbol
_atom_site_label
_atom_site_fract_x
_atom_site_fract_y
_atom_site_fract_z
Si Si1 0.335462 0.839422 0.549640
Si Si2 0.670026 0.163601 0.050097
Si Si3 0.664207 0.160653 0.648515
Si Si4 0.832078 0.162610 0.747704
Si Si5 0.671272 0.076835 0.150640
O O1 0.500000 0.862854 0.548789
O O2 0.335862 0.750000 0.549725
O O3 0.250000 0.862434 0.500000
O O4 0.254148 0.862986 0.600023
O O5 0.500000 0.156167 0.043201
O O6 0.701025 0.250000 0.056938
O O7 0.711257 0.120534 0.100199
O O8 0.750000 0.138125 0.000000
O O9 0.500000 0.137309 0.645609
O O10 0.665372 0.250000 0.648226
O O11 0.739004 0.137973 0.700290
O O12 0.813210 0.250000 0.754116
O O13 0.794276 0.122588 0.799293
O O14 0.000000 0.150297 0.737180
O O15 0.500000 0.067193 0.149811
O O16 0.750000 0.000000 0.151876
#
# Coordination Sequence:
#
# PCOD9503631 Si02
#       5
#    16  16  16  16  16
#     4   9  15  22  33  51  79 116 154 191 234 285
#     4   9  18  34  55  77 100 128 163 200 237 280
#     4   9  16  25  38  59  86 115 150 193 239 286
#     4   9  17  31  50  68  88 120 161 200 238 283
#     4  10  21  35  51  72  99 129 160 197 241 288
#
# _framework density 17.518193
#
# number of rings (size 3 to 8) (size 9 to 14) (size 15 to 20)
#    0.000    2.800    0.000    1.800    0.000    9.200 
#    0.000    2.000    0.000    6.000    0.000    0.000 
#    0.000    0.800    0.000    8.400    0.000   12.600 
#
# Total GULP energy -223035.869951 kJ/mol
# GULP energy per Si atom -5575.896749 kJ/mol
# Density = 1.747832 g / cm^3
# Si number density = 17.518193 Si / 1000 Ang^3
#
#
#
# Elastic Constant Matrix: (Units=GPa)
#
#
# Indices 1 2 3 4 5 6 
#
# 1 105.8454 37.1404 110.8258 0.0000 0.0000 0.0000
# 2 37.1404 27.1300 52.1421 0.0000 0.0000 0.0000
# 3 110.8258 52.1421 215.2891 0.0000 0.0000 0.0000
# 4 0.0000 0.0000 0.0000 -5.0597 0.0000 0.0000
# 5 0.0000 0.0000 0.0000 0.0000 36.3266 0.0000
# 6 0.0000 0.0000 0.0000 0.0000 0.0000 18.9490
#
#
#
# Elastic Compliance Matrix: (Units=1/GPa)
#
#
# Indices 1 2 3 4 5 6 
#
# 1 0.024108 -0.017121 -0.008263 0.000000 0.000000 0.000000
# 2 -0.017121 0.081118 -0.010833 0.000000 0.000000 0.000000
# 3 -0.008263 -0.010833 0.011522 0.000000 0.000000 0.000000
# 4 0.000000 0.000000 0.000000 -0.197639 0.000000 0.000000
# 5 0.000000 0.000000 0.000000 0.000000 0.027528 0.000000
# 6 0.000000 0.000000 0.000000 0.000000 0.000000 0.052773
#
#
# Mechanical properties :
#
#
# Convention : Reuss Voigt Hill
#
# Bulk Modulus (GPa) = 22.56661 83.16458 52.86559
# Shear Modulus (GPa) = 57.72578 19.92026 38.82302
#
# Velocity S-wave (km/s) = 5.74660 3.37578 4.71271
# Velocity P-wave (km/s) = 7.54593 7.92280 7.73666
#
# Compressibility (1/GPa) = 0.04431326
#
# Stress axis : x y z
#
# Youngs Moduli (GPa) = 41.48058 12.32770 86.78766
#
# Poissons Ratio (x) = 0.21107 0.71716
# Poissons Ratio (y) = 0.71020 0.94016
# Poissons Ratio (z) = 0.34277 0.13354
#
# Static dielectric constant tensor:
#      x y z
#    x 1.587130 0.000000 0.000000 
#    y 0.000000 1.564230 0.000000 
#    z 0.000000 0.000000 1.580260 
# 
# From -- ./inp_files/43234.got.cif
#   From: 2010.05.17/outbox.cif.g08.bks.cpg/sg67_22_cif.got.tgz:43234.got - 2010.06.03 18:28:57.
