data_PCOD9503433
_publ_section_title
;
Structure prediction by ZEFSAII (Michael W. Deem and Ramdas Pophale) SiO2 
 PCOD9503433
Probable space group: C M M A
;
_chemical_formula_sum "Si O2"
_cell_formula_units_Z 112
_cell_length_a 16.459533
_cell_length_b 29.508045
_cell_length_c 11.312516
_cell_angle_alpha 90.000000
_cell_angle_beta 90.000000
_cell_angle_gamma 90.000000
_cell_volume 5494.360516
_symmetry_space_group_name_H-M "C M M A"
_symmetry_group_IT_number 67
_symmetry_cell_setting 'orthorhombic'
loop_
_space_group_symop_operation_xyz
x,y,z
-x,1/2-y,z
x,-y,-z
-x,1/2+y,-z
-x,-y,-z
x,1/2+y,-z
-x,y,z
x,1/2-y,z
1/2+x,1/2+y,z
1/2-x,-y,z
1/2+x,1/2-y,-z
1/2-x,y,-z
1/2-x,1/2-y,-z
1/2+x,y,-z
1/2-x,1/2+y,z
1/2+x,-y,z
loop_
_atom_site_type_symbol
_atom_site_label
_atom_site_fract_x
_atom_site_fract_y
_atom_site_fract_z
Si Si1 0.338258 0.518848 0.338463
Si Si2 0.302172 0.698297 0.877809
Si Si3 0.704916 0.802530 0.370911
Si Si4 0.406165 0.459957 0.904624
Si Si5 0.901706 0.885514 0.565717
Si Si6 0.902255 0.388996 0.912353
Si Si7 0.404927 0.075371 0.331003
O O1 0.250000 0.500000 0.369362
O O2 0.348266 0.525313 0.199116
O O3 0.364490 0.567586 0.385956
O O4 0.394113 0.476145 0.371951
O O5 0.332108 0.750000 0.872124
O O6 0.255903 0.690312 0.751674
O O7 0.371848 0.661380 0.894263
O O8 0.250000 0.694606 0.000000
O O9 0.675758 0.750000 0.364527
O O10 0.750000 0.806001 0.500000
O O11 0.636084 0.841176 0.375626
O O12 0.500000 0.454261 0.860183
O O13 0.409538 0.500000 0.000000
O O14 0.376657 0.414414 0.968570
O O15 0.875618 0.888898 0.427722
O O16 0.000000 0.886448 0.575143
O O17 0.869774 0.416684 0.798595
O O18 0.000000 0.391560 0.915594
O O19 0.500000 0.083555 0.320292
#
# Coordination Sequence:
#
# PCOD9503433 Si02
#       7
#    16  16  16  16  16  16  16
#     4  12  26  37  57  89 125 168 210 258 304 378
#     4  10  23  42  63  91 129 166 204 265 334 385
#     4  10  23  44  70  95 127 170 215 270 330 390
#     4  10  20  38  59  81 118 162 205 252 307 367
#     4  11  25  41  65  94 126 166 212 264 321 385
#     4  10  21  37  64  91 119 164 211 258 313 382
#     4  10  21  41  60  85 125 164 202 253 313 368
#
# _framework density 20.384537000000002
#
# number of rings (size 3 to 8) (size 9 to 14) (size 15 to 20)
#    0.000    1.571    1.429    2.571    6.000    2.571 
#    0.000    0.000    0.000    7.714    0.000    0.000 
#    0.000    0.000    0.000    0.000    0.000    0.000 
#
# Total GULP energy -312331.735290 kJ/mol
# GULP energy per Si atom -5577.352416 kJ/mol
# Density = 2.033814 g / cm^3
# Si number density = 20.384537 Si / 1000 Ang^3
#
#
#
# Elastic Constant Matrix: (Units=GPa)
#
#
# Indices 1 2 3 4 5 6 
#
# 1 21.3586 32.4083 27.2859 0.0000 0.0000 0.0000
# 2 32.4083 125.7604 35.5930 0.0000 0.0000 0.0000
# 3 27.2859 35.5930 105.9882 0.0000 0.0000 0.0000
# 4 0.0000 0.0000 0.0000 31.7297 0.0000 0.0000
# 5 0.0000 0.0000 0.0000 0.0000 16.0065 0.0000
# 6 0.0000 0.0000 0.0000 0.0000 0.0000 37.3007
#
#
#
# Elastic Compliance Matrix: (Units=1/GPa)
#
#
# Indices 1 2 3 4 5 6 
#
# 1 0.104316 -0.021307 -0.019700 0.000000 0.000000 0.000000
# 2 -0.021307 0.013139 0.001073 0.000000 0.000000 0.000000
# 3 -0.019700 0.001073 0.014146 0.000000 0.000000 0.000000
# 4 0.000000 0.000000 0.000000 0.031516 0.000000 0.000000
# 5 0.000000 0.000000 0.000000 0.000000 0.062475 0.000000
# 6 0.000000 0.000000 0.000000 0.000000 0.000000 0.026809
#
#
# Mechanical properties :
#
#
# Convention : Reuss Voigt Hill
#
# Bulk Modulus (GPa) = 19.32978 49.29795 34.31386
# Shear Modulus (GPa) = 14.30559 27.52870 20.91715
#
# Velocity S-wave (km/s) = 2.65200 3.67886 3.20680
# Velocity P-wave (km/s) = 4.34518 6.50245 5.53003
#
# Compressibility (1/GPa) = 0.05173365
#
# Stress axis : x y z
#
# Youngs Moduli (GPa) = 9.58622 76.11142 70.68951
#
# Poissons Ratio (x) = 1.62168 1.39260
# Poissons Ratio (y) = 0.20425 -0.07585
# Poissons Ratio (z) = 0.18885 -0.08167
#
# Static dielectric constant tensor:
#      x y z
#    x 1.756180 0.000000 0.000000 
#    y 0.000000 1.686970 0.000000 
#    z 0.000000 0.000000 1.816390 
# 
# From -- ./inp_files/18560.got.cif
#   From: 2010.05.17/outbox.cif.g08.bks.cpg/sg67_10_cif.got.tgz:18560.got - 2010.06.03 18:28:57.
