data_PCOD9503755
_publ_section_title
;
Structure prediction by ZEFSAII (Michael W. Deem and Ramdas Pophale) SiO2 
 PCOD9503755
Probable space group: C M M A
;
_chemical_formula_sum "Si O2"
_cell_formula_units_Z 40
_cell_length_a 17.237586
_cell_length_b 20.024178
_cell_length_c 5.273253
_cell_angle_alpha 90.000000
_cell_angle_beta 90.000000
_cell_angle_gamma 90.000000
_cell_volume 1820.160777
_symmetry_space_group_name_H-M "C M M A"
_symmetry_group_IT_number 67
_symmetry_cell_setting 'orthorhombic'
loop_
_space_group_symop_operation_xyz
x,y,z
-x,1/2-y,z
x,-y,-z
-x,1/2+y,-z
-x,-y,-z
x,1/2+y,-z
-x,y,z
x,1/2-y,z
1/2+x,1/2+y,z
1/2-x,-y,z
1/2+x,1/2-y,-z
1/2-x,y,-z
1/2-x,1/2-y,-z
1/2+x,y,-z
1/2-x,1/2+y,z
1/2+x,-y,z
loop_
_atom_site_type_symbol
_atom_site_label
_atom_site_fract_x
_atom_site_fract_y
_atom_site_fract_z
Si Si1 0.094304 0.039272 0.256116
Si Si2 0.801920 0.750000 0.254720
Si Si3 0.589240 0.675579 0.038748
O O1 0.118063 0.115995 0.213370
O O2 0.000000 0.040045 0.275817
O O3 0.124429 0.000000 0.500000
O O4 0.114315 0.000000 0.000000
O O5 0.750000 0.750000 0.500000
O O6 0.750000 0.750000 0.000000
O O7 0.858528 0.686635 0.210270
O O8 0.500000 0.661766 0.965813
O O9 0.590139 0.750000 0.161104
#
# Coordination Sequence:
#
# PCOD9503755 Si02
#       3
#    16   8  16
#     4   9  17  30  50  79 114 151 196 251 304 355
#     4  10  21  36  55  82 118 160 210 260 313 370
#     4   8  17  36  57  85 121 166 214 258 306 371
#
# _framework density 21.97608
#
# number of rings (size 3 to 8) (size 9 to 14) (size 15 to 20)
#    1.200    2.000    0.000    0.000    0.000    3.200 
#    0.000    8.000    0.000    1.200    0.000    5.600 
#    0.000    0.000    0.000    0.000    0.000   28.400 
#
# Total GULP energy -111388.950257 kJ/mol
# GULP energy per Si atom -5569.447513 kJ/mol
# Density = 2.192606 g / cm^3
# Si number density = 21.976080 Si / 1000 Ang^3
#
#
#
# Elastic Constant Matrix: (Units=GPa)
#
#
# Indices 1 2 3 4 5 6 
#
# 1 65.4823 19.6658 40.5917 0.0000 0.0000 0.0000
# 2 19.6658 171.4542 99.1389 0.0000 0.0000 0.0000
# 3 40.5917 99.1389 172.0685 0.0000 0.0000 0.0000
# 4 0.0000 0.0000 0.0000 29.1320 0.0000 0.0000
# 5 0.0000 0.0000 0.0000 0.0000 24.7567 0.0000
# 6 0.0000 0.0000 0.0000 0.0000 0.0000 6.1937
#
#
#
# Elastic Compliance Matrix: (Units=1/GPa)
#
#
# Indices 1 2 3 4 5 6 
#
# 1 0.017926 0.000583 -0.004565 0.000000 0.000000 0.000000
# 2 0.000583 0.008765 -0.005188 0.000000 0.000000 0.000000
# 3 -0.004565 -0.005188 0.009878 0.000000 0.000000 0.000000
# 4 0.000000 0.000000 0.000000 0.034326 0.000000 0.000000
# 5 0.000000 0.000000 0.000000 0.000000 0.040393 0.000000
# 6 0.000000 0.000000 0.000000 0.000000 0.000000 0.161453
#
#
# Mechanical properties :
#
#
# Convention : Reuss Voigt Hill
#
# Bulk Modulus (GPa) = 54.85457 80.86641 67.86049
# Shear Modulus (GPa) = 16.82614 28.65707 22.74160
#
# Velocity S-wave (km/s) = 2.77005 3.61503 3.22037
# Velocity P-wave (km/s) = 5.93685 7.36898 6.69134
#
# Compressibility (1/GPa) = 0.01823002
#
# Stress axis : x y z
#
# Youngs Moduli (GPa) = 55.78538 114.08671 101.23976
#
# Poissons Ratio (x) = -0.06657 0.46215
# Poissons Ratio (y) = -0.03255 0.52521
# Poissons Ratio (z) = 0.25466 0.59186
#
# Static dielectric constant tensor:
#      x y z
#    x 1.871740 0.000000 0.000000 
#    y 0.000000 1.839950 0.000000 
#    z 0.000000 0.000000 1.837370 
# 
# From -- ./inp_files/1743.got.cif
#   From: 2010.05.17/outbox.cif.g08.bks.cpg/sg67_1_cif.got.tgz:1743.got - 2010.06.03 18:28:57.
