data_PCOD9503619
_publ_section_title
;
Structure prediction by ZEFSAII (Michael W. Deem and Ramdas Pophale) SiO2 
 PCOD9503619
Probable space group: C M M A
;
_chemical_formula_sum "Si O2"
_cell_formula_units_Z 112
_cell_length_a 13.538418
_cell_length_b 14.604958
_cell_length_c 25.078383
_cell_angle_alpha 90.000000
_cell_angle_beta 90.000000
_cell_angle_gamma 90.000000
_cell_volume 4958.699173
_symmetry_space_group_name_H-M "C M M A"
_symmetry_group_IT_number 67
_symmetry_cell_setting 'orthorhombic'
loop_
_space_group_symop_operation_xyz
x,y,z
-x,1/2-y,z
x,-y,-z
-x,1/2+y,-z
-x,-y,-z
x,1/2+y,-z
-x,y,z
x,1/2-y,z
1/2+x,1/2+y,z
1/2-x,-y,z
1/2+x,1/2-y,-z
1/2-x,y,-z
1/2-x,1/2-y,-z
1/2+x,y,-z
1/2-x,1/2+y,z
1/2+x,-y,z
loop_
_atom_site_type_symbol
_atom_site_label
_atom_site_fract_x
_atom_site_fract_y
_atom_site_fract_z
Si Si1 0.381145 0.857982 0.967581
Si Si2 0.879422 0.645838 0.912563
Si Si3 0.692506 0.359746 0.700731
Si Si4 0.214449 0.351877 0.416500
Si Si5 0.119684 0.963044 0.137945
Si Si6 0.383840 0.450852 0.258101
Si Si7 0.605852 0.398869 0.478321
O O1 0.500000 0.871192 0.968526
O O2 0.362270 0.750000 0.962890
O O3 0.346429 0.907928 0.914317
O O4 0.348556 0.883972 0.027406
O O5 0.846831 0.750000 0.902254
O O6 0.850789 0.568603 0.870704
O O7 0.000000 0.648296 0.913354
O O8 0.678231 0.250000 0.712927
O O9 0.664087 0.377250 0.638710
O O10 0.635251 0.439790 0.732928
O O11 0.807347 0.390661 0.707389
O O12 0.253241 0.250000 0.407121
O O13 0.311754 0.405824 0.433163
O O14 0.146783 0.349234 0.468962
O O15 0.144703 0.929351 0.196644
O O16 0.000000 0.960333 0.136611
O O17 0.500000 0.431976 0.266839
O O18 0.595365 0.500000 0.500000
O O19 0.500000 0.363040 0.460512
#
# Coordination Sequence:
#
# PCOD9503619 Si02
#       7
#    16  16  16  16  16  16  16
#     4   8  13  21  36  63 101 141 177 220 282 355
#     4   8  13  21  36  63 101 141 177 220 282 355
#     4  10  24  44  64  88 121 163 209 257 307 356
#     4  10  21  38  59  82 117 159 194 237 288 344
#     4   9  16  27  44  71 104 142 185 236 294 350
#     4  10  23  40  62  89 118 156 207 262 312 361
#     4  10  21  34  57  93 124 154 189 229 284 347
#
# _framework density 22.586568
#
# number of rings (size 3 to 8) (size 9 to 14) (size 15 to 20)
#    0.000    2.714    0.000    3.000    4.000    5.714 
#    0.000    5.714    0.000    0.000    0.000    8.000 
#    0.000   13.714    0.000    1.143    0.000    0.000 
#
# Total GULP energy -312399.736816 kJ/mol
# GULP energy per Si atom -5578.566729 kJ/mol
# Density = 2.253516 g / cm^3
# Si number density = 22.586568 Si / 1000 Ang^3
#
#
#
# Elastic Constant Matrix: (Units=GPa)
#
#
# Indices 1 2 3 4 5 6 
#
# 1 67.4585 -24.0663 -14.8946 0.0000 0.0000 0.0000
# 2 -24.0663 48.3158 13.5519 0.0000 0.0000 0.0000
# 3 -14.8946 13.5519 62.4536 0.0000 0.0000 0.0000
# 4 0.0000 0.0000 0.0000 20.4286 0.0000 0.0000
# 5 0.0000 0.0000 0.0000 0.0000 36.4756 0.0000
# 6 0.0000 0.0000 0.0000 0.0000 0.0000 -8.5833
#
#
#
# Elastic Compliance Matrix: (Units=1/GPa)
#
#
# Indices 1 2 3 4 5 6 
#
# 1 0.018403 0.008450 0.002555 0.000000 0.000000 0.000000
# 2 0.008450 0.025918 -0.003609 0.000000 0.000000 0.000000
# 3 0.002555 -0.003609 0.017404 0.000000 0.000000 0.000000
# 4 0.000000 0.000000 0.000000 0.048951 0.000000 0.000000
# 5 0.000000 0.000000 0.000000 0.000000 0.027416 0.000000
# 6 0.000000 0.000000 0.000000 0.000000 0.000000 -0.116505
#
#
# Mechanical properties :
#
#
# Convention : Reuss Voigt Hill
#
# Bulk Modulus (GPa) = 13.06890 14.15666 13.61278
# Shear Modulus (GPa) = 154.79910 23.23997 89.01954
#
# Velocity S-wave (km/s) = 8.28762 3.21117 6.28476
# Velocity P-wave (km/s) = 9.86804 4.47551 7.66187
#
# Compressibility (1/GPa) = 0.07651754
#
# Stress axis : x y z
#
# Youngs Moduli (GPa) = 54.34009 38.58294 57.45676
#
# Poissons Ratio (x) = -0.32601 -0.14682
# Poissons Ratio (y) = -0.45916 0.20735
# Poissons Ratio (z) = -0.13886 0.13924
#
# Static dielectric constant tensor:
#      x y z
#    x 1.955540 0.000000 0.000000 
#    y 0.000000 1.868850 0.000000 
#    z 0.000000 0.000000 1.858020 
# 
# From -- ./inp_files/42020.got.cif
#   From: 2010.05.17/outbox.cif.g08.bks.cpg/sg67_22_cif.got.tgz:42020.got - 2010.06.03 18:28:57.
