data_PCOD9503131
_publ_section_title
;
Structure prediction by ZEFSAII (Michael W. Deem and Ramdas Pophale) SiO2 
 PCOD9503131
Probable space group: C M M A
;
_chemical_formula_sum "Si O2"
_cell_formula_units_Z 100
_cell_length_a 10.213798
_cell_length_b 25.392238
_cell_length_c 22.353851
_cell_angle_alpha 90.000000
_cell_angle_beta 90.000000
_cell_angle_gamma 90.000000
_cell_volume 5797.497851
_symmetry_space_group_name_H-M "C M M A"
_symmetry_group_IT_number 67
_symmetry_cell_setting 'orthorhombic'
loop_
_space_group_symop_operation_xyz
x,y,z
-x,1/2-y,z
x,-y,-z
-x,1/2+y,-z
-x,-y,-z
x,1/2+y,-z
-x,y,z
x,1/2-y,z
1/2+x,1/2+y,z
1/2-x,-y,z
1/2+x,1/2-y,-z
1/2-x,y,-z
1/2-x,1/2-y,-z
1/2+x,y,-z
1/2-x,1/2+y,z
1/2+x,-y,z
loop_
_atom_site_type_symbol
_atom_site_label
_atom_site_fract_x
_atom_site_fract_y
_atom_site_fract_z
Si Si1 0.000000 0.750000 0.676195
Si Si2 0.000000 0.052137 0.917911
Si Si3 0.500000 0.071668 0.947065
Si Si4 0.273474 0.158536 0.677725
Si Si5 0.732729 0.591512 0.139186
Si Si6 0.847524 0.189879 0.799919
Si Si7 0.150519 0.546674 0.733186
Si Si8 0.848365 0.186556 0.554001
O O1 0.886087 0.703110 0.676078
O O2 0.130938 0.066002 0.881866
O O3 0.000000 0.990767 0.933968
O O4 0.000000 0.081179 0.982182
O O5 0.370760 0.092077 0.914167
O O6 0.175535 0.175317 0.730844
O O7 0.325148 0.100619 0.696202
O O8 0.200474 0.159408 0.614440
O O9 0.762932 0.650107 0.161419
O O10 0.676298 0.561110 0.196994
O O11 0.808412 0.250000 0.809323
O O12 0.000000 0.183571 0.814781
O O13 0.250000 0.500000 0.716476
O O14 0.000000 0.530021 0.726300
O O15 0.840286 0.250000 0.563039
O O16 0.750000 0.173514 0.500000
O O17 0.000000 0.174265 0.540069
#
# Coordination Sequence:
#
# PCOD9503131 Si02
#       8
#     4   8   8  16  16  16  16  16
#     4  12  20  34  60  86 120 152 194 252 296 350
#     4  11  22  38  57  83 106 152 180 229 280 334
#     4  11  22  37  59  80 115 139 187 228 279 344
#     4  11  22  36  59  86 121 154 196 247 296 345
#     4  11  22  37  57  84 112 146 185 235 286 339
#     4  10  20  36  58  81 110 147 189 233 284 345
#     4  11  24  38  58  86 120 158 195 237 295 351
#     4  10  21  34  55  85 121 160 199 244 299 356
#
# _framework density 17.248821
#
# number of rings (size 3 to 8) (size 9 to 14) (size 15 to 20)
#    0.000    1.280    4.000    2.400    2.240    3.840 
#    0.000    0.000    0.000    3.360    0.000    2.240 
#    0.000    0.000    0.000    0.000    0.000    0.000 
#
# Total GULP energy -278669.630361 kJ/mol
# GULP energy per Si atom -5573.392607 kJ/mol
# Density = 1.720956 g / cm^3
# Si number density = 17.248821 Si / 1000 Ang^3
#
#
#
# Elastic Constant Matrix: (Units=GPa)
#
#
# Indices 1 2 3 4 5 6 
#
# 1 125.8372 48.3613 45.2062 0.0000 0.0000 0.0000
# 2 48.3613 99.5526 26.1604 0.0000 0.0000 0.0000
# 3 45.2062 26.1604 91.4105 0.0000 0.0000 0.0000
# 4 0.0000 0.0000 0.0000 19.1815 0.0000 0.0000
# 5 0.0000 0.0000 0.0000 0.0000 12.8102 0.0000
# 6 0.0000 0.0000 0.0000 0.0000 0.0000 24.2878
#
#
#
# Elastic Compliance Matrix: (Units=1/GPa)
#
#
# Indices 1 2 3 4 5 6 
#
# 1 0.011130 -0.004282 -0.004278 0.000000 0.000000 0.000000
# 2 -0.004282 0.012509 -0.001462 0.000000 0.000000 0.000000
# 3 -0.004278 -0.001462 0.013474 0.000000 0.000000 0.000000
# 4 0.000000 0.000000 0.000000 0.052134 0.000000 0.000000
# 5 0.000000 0.000000 0.000000 0.000000 0.078063 0.000000
# 6 0.000000 0.000000 0.000000 0.000000 0.000000 0.041173
#
#
# Mechanical properties :
#
#
# Convention : Reuss Voigt Hill
#
# Bulk Modulus (GPa) = 58.59271 61.80623 60.19947
# Shear Modulus (GPa) = 21.34769 24.39407 22.87088
#
# Velocity S-wave (km/s) = 3.52182 3.76473 3.64529
# Velocity P-wave (km/s) = 7.11199 7.40321 7.25906
#
# Compressibility (1/GPa) = 0.01706697
#
# Stress axis : x y z
#
# Youngs Moduli (GPa) = 89.85101 79.93950 74.21685
#
# Poissons Ratio (x) = 0.34232 0.31754
# Poissons Ratio (y) = 0.38477 0.10853
# Poissons Ratio (z) = 0.38443 0.11689
#
# Static dielectric constant tensor:
#      x y z
#    x 1.583290 0.000000 0.000000 
#    y 0.000000 1.572330 0.000000 
#    z 0.000000 0.000000 1.576790 
# 
# From -- ./inp_files/37369.got.cif
#   From: 2010.05.17/outbox.cif.g08.bks.cpg/sg67_19_cif.got.tgz:37369.got - 2010.06.03 18:28:57.
