data_PCOD9503554
_publ_section_title
;
Structure prediction by ZEFSAII (Michael W. Deem and Ramdas Pophale) SiO2 
 PCOD9503554
Probable space group: C M M A
;
_chemical_formula_sum "Si O2"
_cell_formula_units_Z 88
_cell_length_a 21.091049
_cell_length_b 9.696584
_cell_length_c 24.111106
_cell_angle_alpha 90.000000
_cell_angle_beta 90.000000
_cell_angle_gamma 90.000000
_cell_volume 4930.989492
_symmetry_space_group_name_H-M "C M M A"
_symmetry_group_IT_number 67
_symmetry_cell_setting 'orthorhombic'
loop_
_space_group_symop_operation_xyz
x,y,z
-x,1/2-y,z
x,-y,-z
-x,1/2+y,-z
-x,-y,-z
x,1/2+y,-z
-x,y,z
x,1/2-y,z
1/2+x,1/2+y,z
1/2-x,-y,z
1/2+x,1/2-y,-z
1/2-x,y,-z
1/2-x,1/2-y,-z
1/2+x,y,-z
1/2-x,1/2+y,z
1/2+x,-y,z
loop_
_atom_site_type_symbol
_atom_site_label
_atom_site_fract_x
_atom_site_fract_y
_atom_site_fract_z
Si Si1 0.305277 0.250000 0.423674
Si Si2 0.342547 0.750000 0.450154
Si Si3 0.883612 0.014807 0.617092
Si Si4 0.574484 0.915822 0.734879
Si Si5 0.000000 0.107168 0.548086
Si Si6 0.683274 0.083898 0.050153
Si Si7 0.184705 0.412796 0.823620
O O1 0.342653 0.250000 0.482924
O O2 0.231752 0.250000 0.436448
O O3 0.323772 0.385084 0.389446
O O4 0.372412 0.618438 0.420374
O O5 0.903835 0.999719 0.680558
O O6 0.940770 0.093631 0.587861
O O7 0.500000 0.943215 0.748123
O O8 0.578517 0.750000 0.722526
O O9 0.626703 0.945006 0.782226
O O10 0.000000 0.250000 0.517176
O O11 0.000000 0.000000 0.500000
O O12 0.689207 0.250000 0.038734
O O13 0.659421 0.070020 0.113122
O O14 0.750000 0.000000 0.053921
O O15 0.649518 0.000000 0.000000
O O16 0.200730 0.250000 0.817201
O O17 0.250000 0.500000 0.815496
#
# Coordination Sequence:
#
# PCOD9503554 Si02
#       7
#     8   8  16  16   8  16  16
#     4  11  22  43  61  83 113 144 178 215 280 353
#     4  11  26  39  59  87 115 142 172 227 282 339
#     4  12  23  40  61  82 109 143 184 224 278 337
#     4  10  20  40  61  78 106 147 193 233 273 330
#     4  12  24  38  62  86 108 140 181 232 280 333
#     4   9  15  25  45  77 112 146 179 221 269 318
#     4   9  19  34  56  84 113 145 188 231 275 323
#
# _framework density 17.846316999999999
#
# number of rings (size 3 to 8) (size 9 to 14) (size 15 to 20)
#    0.000    1.636    2.727    3.273    1.273    3.636 
#    1.636    0.000    0.000    0.545    0.000    0.000 
#    0.000    0.000    0.000    0.000    0.000    4.909 
#
# Total GULP energy -245076.339065 kJ/mol
# GULP energy per Si atom -5569.916797 kJ/mol
# Density = 1.780570 g / cm^3
# Si number density = 17.846317 Si / 1000 Ang^3
#
#
#
# Elastic Constant Matrix: (Units=GPa)
#
#
# Indices 1 2 3 4 5 6 
#
# 1 88.2608 27.8304 52.1640 0.0000 0.0000 0.0000
# 2 27.8304 97.5170 36.0999 0.0000 0.0000 0.0000
# 3 52.1640 36.0999 129.1010 0.0000 0.0000 0.0000
# 4 0.0000 0.0000 0.0000 75.7292 0.0000 0.0000
# 5 0.0000 0.0000 0.0000 0.0000 16.3264 0.0000
# 6 0.0000 0.0000 0.0000 0.0000 0.0000 17.0921
#
#
#
# Elastic Compliance Matrix: (Units=1/GPa)
#
#
# Indices 1 2 3 4 5 6 
#
# 1 0.015343 -0.002324 -0.005549 0.000000 0.000000 0.000000
# 2 -0.002324 0.011791 -0.002358 0.000000 0.000000 0.000000
# 3 -0.005549 -0.002358 0.010647 0.000000 0.000000 0.000000
# 4 0.000000 0.000000 0.000000 0.013205 0.000000 0.000000
# 5 0.000000 0.000000 0.000000 0.000000 0.061250 0.000000
# 6 0.000000 0.000000 0.000000 0.000000 0.000000 0.058506
#
#
# Mechanical properties :
#
#
# Convention : Reuss Voigt Hill
#
# Bulk Modulus (GPa) = 57.74378 60.78526 59.26452
# Shear Modulus (GPa) = 25.38345 35.08185 30.23265
#
# Velocity S-wave (km/s) = 3.77548 4.43852 4.12036
# Velocity P-wave (km/s) = 7.17161 7.77185 7.47775
#
# Compressibility (1/GPa) = 0.01731788
#
# Stress axis : x y z
#
# Youngs Moduli (GPa) = 65.17719 84.81177 93.91920
#
# Poissons Ratio (x) = 0.19713 0.52119
# Poissons Ratio (y) = 0.15149 0.22145
# Poissons Ratio (z) = 0.36169 0.19997
#
# Static dielectric constant tensor:
#      x y z
#    x 1.609240 0.000000 0.000000 
#    y 0.000000 1.633070 0.000000 
#    z 0.000000 0.000000 1.645970 
# 
# From -- ./inp_files/39618.got.cif
#   From: 2010.05.17/outbox.cif.g08.bks.cpg/sg67_20_cif.got.tgz:39618.got - 2010.06.03 18:28:57.
