data_PCOD9503262
_publ_section_title
;
Structure prediction by ZEFSAII (Michael W. Deem and Ramdas Pophale) SiO2 
 PCOD9503262
Probable space group: C M M A
;
_chemical_formula_sum "Si O2"
_cell_formula_units_Z 64
_cell_length_a 8.637065
_cell_length_b 15.568338
_cell_length_c 24.207352
_cell_angle_alpha 90.000000
_cell_angle_beta 90.000000
_cell_angle_gamma 90.000000
_cell_volume 3255.035468
_symmetry_space_group_name_H-M "C M M A"
_symmetry_group_IT_number 67
_symmetry_cell_setting 'orthorhombic'
loop_
_space_group_symop_operation_xyz
x,y,z
-x,1/2-y,z
x,-y,-z
-x,1/2+y,-z
-x,-y,-z
x,1/2+y,-z
-x,y,z
x,1/2-y,z
1/2+x,1/2+y,z
1/2-x,-y,z
1/2+x,1/2-y,-z
1/2-x,y,-z
1/2-x,1/2-y,-z
1/2+x,y,-z
1/2-x,1/2+y,z
1/2+x,-y,z
loop_
_atom_site_type_symbol
_atom_site_label
_atom_site_fract_x
_atom_site_fract_y
_atom_site_fract_z
Si Si1 0.314238 0.405821 0.561440
Si Si2 0.815080 0.250000 0.633052
Si Si3 0.680972 0.354048 0.940840
Si Si4 0.684281 0.750000 0.243951
Si Si5 0.316322 0.408018 0.174471
O O1 0.500000 0.407410 0.560002
O O2 0.250000 0.500000 0.576645
O O3 0.250000 0.386745 0.500000
O O4 0.254003 0.333510 0.602786
O O5 0.765007 0.250000 0.696659
O O6 0.000000 0.250000 0.627957
O O7 0.500000 0.377273 0.936904
O O8 0.692000 0.250000 0.937138
O O9 0.773009 0.392855 0.889626
O O10 0.750000 0.379715 0.000000
O O11 0.500000 0.750000 0.250520
O O12 0.736908 0.832893 0.209382
O O13 0.500000 0.404538 0.181591
O O14 0.250000 0.500000 0.191601
#
# Coordination Sequence:
#
# PCOD9503262 Si02
#       5
#    16   8  16   8  16
#     4  11  22  40  65  98 135 174 214 262 316 374
#     4  12  25  43  66  95 128 170 217 264 315 374
#     4  10  20  36  61  92 127 163 203 254 313 377
#     4  12  26  47  68  93 126 164 212 266 318 374
#     4  12  25  43  67  94 125 165 210 259 316 378
#
# _framework density 19.661843999999999
#
# number of rings (size 3 to 8) (size 9 to 14) (size 15 to 20)
#    0.000    0.750    1.250    8.625    0.000    2.500 
#    0.000    7.500    0.000    0.000    0.000    0.000 
#    0.000    0.000    0.000    0.000    0.000    0.000 
#
# Total GULP energy -179198.386888 kJ/mol
# GULP energy per Si atom -5599.949590 kJ/mol
# Density = 1.961709 g / cm^3
# Si number density = 19.661844 Si / 1000 Ang^3
#
#
#
# Elastic Constant Matrix: (Units=GPa)
#
#
# Indices 1 2 3 4 5 6 
#
# 1 176.7591 42.2071 31.1466 0.0000 0.0000 0.0000
# 2 42.2071 116.7295 73.1196 0.0000 0.0000 0.0000
# 3 31.1466 73.1196 111.9614 0.0000 0.0000 0.0000
# 4 0.0000 0.0000 0.0000 -21.7498 0.0000 0.0000
# 5 0.0000 0.0000 0.0000 0.0000 39.2142 0.0000
# 6 0.0000 0.0000 0.0000 0.0000 0.0000 64.9154
#
#
#
# Elastic Compliance Matrix: (Units=1/GPa)
#
#
# Indices 1 2 3 4 5 6 
#
# 1 0.006205 -0.001967 -0.000442 0.000000 0.000000 0.000000
# 2 -0.001967 0.015121 -0.009328 0.000000 0.000000 0.000000
# 3 -0.000442 -0.009328 0.015146 0.000000 0.000000 0.000000
# 4 0.000000 0.000000 0.000000 -0.045977 0.000000 0.000000
# 5 0.000000 0.000000 0.000000 0.000000 0.025501 0.000000
# 6 0.000000 0.000000 0.000000 0.000000 0.000000 0.015405
#
#
# Mechanical properties :
#
#
# Convention : Reuss Voigt Hill
#
# Bulk Modulus (GPa) = 76.92746 77.59960 77.26353
# Shear Modulus (GPa) = 84.44926 33.74108 59.09517
#
# Velocity S-wave (km/s) = 6.56080 4.14704 5.48826
# Velocity P-wave (km/s) = 9.82865 7.90464 8.91868
#
# Compressibility (1/GPa) = 0.01299926
#
# Stress axis : x y z
#
# Youngs Moduli (GPa) = 161.16287 66.13235 66.02194
#
# Poissons Ratio (x) = 0.13008 0.02915
# Poissons Ratio (y) = 0.31700 0.61586
# Poissons Ratio (z) = 0.07116 0.61689
#
# Static dielectric constant tensor:
#      x y z
#    x 1.653190 0.000000 0.000000 
#    y 0.000000 1.671960 0.000000 
#    z 0.000000 0.000000 1.655640 
# 
# From -- ./inp_files/40429.got.cif
#   From: 2010.05.17/outbox.cif.g08.bks.cpg/sg67_21_cif.got.tgz:40429.got - 2010.06.03 18:28:57.
