data_PCOD9503890
_publ_section_title
;
Structure prediction by ZEFSAII (Michael W. Deem and Ramdas Pophale) SiO2 
 PCOD9503890
Probable space group: C M M A
;
_chemical_formula_sum "Si O2"
_cell_formula_units_Z 104
_cell_length_a 9.486346
_cell_length_b 26.722752
_cell_length_c 22.666246
_cell_angle_alpha 90.000000
_cell_angle_beta 90.000000
_cell_angle_gamma 90.000000
_cell_volume 5745.922182
_symmetry_space_group_name_H-M "C M M A"
_symmetry_group_IT_number 67
_symmetry_cell_setting 'orthorhombic'
loop_
_space_group_symop_operation_xyz
x,y,z
-x,1/2-y,z
x,-y,-z
-x,1/2+y,-z
-x,-y,-z
x,1/2+y,-z
-x,y,z
x,1/2-y,z
1/2+x,1/2+y,z
1/2-x,-y,z
1/2+x,1/2-y,-z
1/2-x,y,-z
1/2-x,1/2-y,-z
1/2+x,y,-z
1/2-x,1/2+y,z
1/2+x,-y,z
loop_
_atom_site_type_symbol
_atom_site_label
_atom_site_fract_x
_atom_site_fract_y
_atom_site_fract_z
Si Si1 0.000000 0.191116 0.414126
Si Si2 0.500000 0.811646 0.550865
Si Si3 0.723386 0.650495 0.641674
Si Si4 0.326915 0.750000 0.936760
Si Si5 0.666765 0.449895 0.842342
Si Si6 0.832072 0.160414 0.130488
Si Si7 0.829768 0.051387 0.298453
Si Si8 0.347691 0.809259 0.767119
O O1 0.000000 0.174034 0.482174
O O2 0.869559 0.173582 0.376724
O O3 0.000000 0.250000 0.418582
O O4 0.500000 0.750000 0.556558
O O5 0.371181 0.836863 0.585351
O O6 0.755166 0.594400 0.663269
O O7 0.661321 0.677945 0.698713
O O8 0.500000 0.750000 0.938282
O O9 0.264256 0.700234 0.904660
O O10 0.250000 0.750000 0.000000
O O11 0.500000 0.458898 0.848437
O O12 0.750000 0.500000 0.859518
O O13 0.699601 0.398676 0.877723
O O14 0.692870 0.440679 0.772144
O O15 0.786044 0.170162 0.198007
O O16 0.000000 0.168955 0.121302
O O17 0.000000 0.049959 0.308073
O O18 0.750000 0.000000 0.312759
O O19 0.500000 0.828768 0.790052
O O20 0.347601 0.750000 0.775165
#
# Coordination Sequence:
#
# PCOD9503890 Si02
#       8
#     8   8  16   8  16  16  16  16
#     4  11  24  40  61  83 111 153 202 250 308 374
#     4  11  24  42  59  83 113 155 202 248 304 380
#     4  12  22  38  59  84 116 153 198 254 310 378
#     4  12  26  46  68  96 134 182 225 254 301 362
#     4   9  19  35  55  85 124 163 204 251 311 373
#     4  11  22  38  61  92 129 169 207 263 307 360
#     4  10  21  37  57  85 116 154 199 248 311 378
#     4  11  22  34  52  85 126 159 198 246 311 370
#
# _framework density 18.099792000000001
#
# number of rings (size 3 to 8) (size 9 to 14) (size 15 to 20)
#    0.000    1.231    3.846    3.000    2.154    2.462 
#    0.000    0.000    0.000    3.231    0.000    3.231 
#    0.000    0.000    0.000    0.000    0.000    0.000 
#
# Total GULP energy -289873.866123 kJ/mol
# GULP energy per Si atom -5574.497425 kJ/mol
# Density = 1.805860 g / cm^3
# Si number density = 18.099792 Si / 1000 Ang^3
#
#
#
# Elastic Constant Matrix: (Units=GPa)
#
#
# Indices 1 2 3 4 5 6 
#
# 1 109.7818 57.1625 21.7458 0.0000 0.0000 0.0000
# 2 57.1625 125.8950 33.6182 0.0000 0.0000 0.0000
# 3 21.7458 33.6182 55.0927 0.0000 0.0000 0.0000
# 4 0.0000 0.0000 0.0000 10.2363 0.0000 0.0000
# 5 0.0000 0.0000 0.0000 0.0000 29.6637 0.0000
# 6 0.0000 0.0000 0.0000 0.0000 0.0000 30.8178
#
#
#
# Elastic Compliance Matrix: (Units=1/GPa)
#
#
# Indices 1 2 3 4 5 6 
#
# 1 0.012060 -0.005023 -0.001695 0.000000 0.000000 0.000000
# 2 -0.005023 0.011582 -0.005085 0.000000 0.000000 0.000000
# 3 -0.001695 -0.005085 0.021923 0.000000 0.000000 0.000000
# 4 0.000000 0.000000 0.000000 0.097691 0.000000 0.000000
# 5 0.000000 0.000000 0.000000 0.000000 0.033711 0.000000
# 6 0.000000 0.000000 0.000000 0.000000 0.000000 0.032449
#
#
# Mechanical properties :
#
#
# Convention : Reuss Voigt Hill
#
# Bulk Modulus (GPa) = 45.53917 57.31361 51.42639
# Shear Modulus (GPa) = 20.80371 26.02645 23.41508
#
# Velocity S-wave (km/s) = 3.39394 3.79613 3.60066
# Velocity P-wave (km/s) = 6.36970 7.13781 6.76467
#
# Compressibility (1/GPa) = 0.02195912
#
# Stress axis : x y z
#
# Youngs Moduli (GPa) = 82.91622 86.34296 45.61439
#
# Poissons Ratio (x) = 0.43373 0.07732
# Poissons Ratio (y) = 0.41652 0.23193
# Poissons Ratio (z) = 0.14055 0.43901
#
# Static dielectric constant tensor:
#      x y z
#    x 1.552270 0.000000 0.000000 
#    y 0.000000 1.640410 0.000000 
#    z 0.000000 0.000000 1.633150 
# 
# From -- ./inp_files/37364.got.cif
#   From: 2010.05.17/outbox.cif.g08.bks.cpg/sg67_19_cif.got.tgz:37364.got - 2010.06.03 18:28:57.
