data_PCOD9503724
_publ_section_title
;
Structure prediction by ZEFSAII (Michael W. Deem and Ramdas Pophale) SiO2 
 PCOD9503724
Probable space group: C M M A
;
_chemical_formula_sum "Si O2"
_cell_formula_units_Z 104
_cell_length_a 26.878798
_cell_length_b 8.497080
_cell_length_c 23.127899
_cell_angle_alpha 90.000000
_cell_angle_beta 90.000000
_cell_angle_gamma 90.000000
_cell_volume 5282.210847
_symmetry_space_group_name_H-M "C M M A"
_symmetry_group_IT_number 67
_symmetry_cell_setting 'orthorhombic'
loop_
_space_group_symop_operation_xyz
x,y,z
-x,1/2-y,z
x,-y,-z
-x,1/2+y,-z
-x,-y,-z
x,1/2+y,-z
-x,y,z
x,1/2-y,z
1/2+x,1/2+y,z
1/2-x,-y,z
1/2+x,1/2-y,-z
1/2-x,y,-z
1/2-x,1/2-y,-z
1/2+x,y,-z
1/2-x,1/2+y,z
1/2+x,-y,z
loop_
_atom_site_type_symbol
_atom_site_label
_atom_site_fract_x
_atom_site_fract_y
_atom_site_fract_z
Si Si1 0.197173 0.938580 0.816302
Si Si2 0.555127 0.940523 0.885645
Si Si3 0.597181 0.438287 0.236099
Si Si4 0.500000 0.439759 0.435382
Si Si5 0.844357 0.437204 0.061534
Si Si6 0.305003 0.938349 0.434410
Si Si7 0.401509 0.441350 0.366852
O O1 0.194212 0.750000 0.812975
O O2 0.187964 0.988112 0.883126
O O3 0.250000 0.000000 0.796342
O O4 0.153061 0.014834 0.780166
O O5 0.500000 0.989145 0.904156
O O6 0.557673 0.750000 0.886830
O O7 0.564828 0.993231 0.819015
O O8 0.599760 0.005077 0.924338
O O9 0.591604 0.250000 0.237161
O O10 0.588101 0.494747 0.300995
O O11 0.500000 0.250000 0.434367
O O12 0.500000 0.500000 0.500000
O O13 0.449196 0.491089 0.404247
O O14 0.844306 0.250000 0.059759
O O15 0.827130 0.500000 0.000000
O O16 0.303912 0.750000 0.435401
O O17 0.313866 0.000000 0.500000
O O18 0.250000 0.000000 0.416827
O O19 0.349938 0.995794 0.393523
O O20 0.398662 0.250000 0.367238
#
# Coordination Sequence:
#
# PCOD9503724 Si02
#       7
#    16  16  16   8  16  16  16
#     4  10  21  37  57  80 109 144 182 224 276 330
#     4   9  18  33  55  80 106 140 180 223 272 324
#     4   9  19  35  56  81 110 142 181 226 271 321
#     4  10  22  38  58  84 118 156 193 234 281 336
#     4  10  21  36  54  78 108 141 180 226 273 327
#     4  11  22  38  60  84 112 146 186 233 285 340
#     4  10  21  37  58  86 117 152 192 235 282 336
#
# _framework density 19.688725999999999
#
# number of rings (size 3 to 8) (size 9 to 14) (size 15 to 20)
#    0.000    2.154    0.000    3.231    1.077    5.846 
#    0.000    1.538    0.000    0.000    0.000    0.000 
#    0.000    0.000    0.000    0.000    0.000    0.000 
#
# Total GULP energy -290311.905352 kJ/mol
# GULP energy per Si atom -5582.921257 kJ/mol
# Density = 1.964391 g / cm^3
# Si number density = 19.688726 Si / 1000 Ang^3
#
#
#
# Elastic Constant Matrix: (Units=GPa)
#
#
# Indices 1 2 3 4 5 6 
#
# 1 51.0642 -6.2548 -6.4760 0.0000 0.0000 0.0000
# 2 -6.2548 21.9267 4.8675 0.0000 0.0000 0.0000
# 3 -6.4760 4.8675 81.3930 0.0000 0.0000 0.0000
# 4 0.0000 0.0000 0.0000 21.3661 0.0000 0.0000
# 5 0.0000 0.0000 0.0000 0.0000 -4.3677 0.0000
# 6 0.0000 0.0000 0.0000 0.0000 0.0000 21.3476
#
#
#
# Elastic Compliance Matrix: (Units=1/GPa)
#
#
# Indices 1 2 3 4 5 6 
#
# 1 0.020426 0.005539 0.001294 0.000000 0.000000 0.000000
# 2 0.005539 0.047722 -0.002413 0.000000 0.000000 0.000000
# 3 0.001294 -0.002413 0.012533 0.000000 0.000000 0.000000
# 4 0.000000 0.000000 0.000000 0.046803 0.000000 0.000000
# 5 0.000000 0.000000 0.000000 0.000000 -0.228953 0.000000
# 6 0.000000 0.000000 0.000000 0.000000 0.000000 0.046844
#
#
# Mechanical properties :
#
#
# Convention : Reuss Voigt Hill
#
# Bulk Modulus (GPa) = 11.17047 15.40636 13.28841
# Shear Modulus (GPa) = -148.70189 18.48568 -65.10811
#
# Velocity S-wave (km/s) = -8.70002 3.06747 -5.75678
# Velocity P-wave (km/s) = 9.75882 4.51528 6.11747
#
# Compressibility (1/GPa) = 0.08952175
#
# Stress axis : x y z
#
# Youngs Moduli (GPa) = 48.95767 20.95457 79.78725
#
# Poissons Ratio (x) = -0.11608 -0.10324
# Poissons Ratio (y) = -0.27120 0.19254
# Poissons Ratio (z) = -0.06335 0.05057
#
# Static dielectric constant tensor:
#      x y z
#    x 1.649800 0.000000 0.000000 
#    y 0.000000 1.672700 0.000000 
#    z 0.000000 0.000000 1.699050 
# 
# From -- ./inp_files/39995.got.cif
#   From: 2010.05.17/outbox.cif.g08.bks.cpg/sg67_20_cif.got.tgz:39995.got - 2010.06.03 18:28:57.
