data_PCOD9503520
_publ_section_title
;
Structure prediction by ZEFSAII (Michael W. Deem and Ramdas Pophale) SiO2 
 PCOD9503520
Probable space group: C M M A
;
_chemical_formula_sum "Si O2"
_cell_formula_units_Z 64
_cell_length_a 15.880930
_cell_length_b 14.459034
_cell_length_c 13.632567
_cell_angle_alpha 90.000000
_cell_angle_beta 90.000000
_cell_angle_gamma 90.000000
_cell_volume 3130.349662
_symmetry_space_group_name_H-M "C M M A"
_symmetry_group_IT_number 67
_symmetry_cell_setting 'orthorhombic'
loop_
_space_group_symop_operation_xyz
x,y,z
-x,1/2-y,z
x,-y,-z
-x,1/2+y,-z
-x,-y,-z
x,1/2+y,-z
-x,y,z
x,1/2-y,z
1/2+x,1/2+y,z
1/2-x,-y,z
1/2+x,1/2-y,-z
1/2-x,y,-z
1/2-x,1/2-y,-z
1/2+x,y,-z
1/2-x,1/2+y,z
1/2+x,-y,z
loop_
_atom_site_type_symbol
_atom_site_label
_atom_site_fract_x
_atom_site_fract_y
_atom_site_fract_z
Si Si1 0.500000 0.901666 0.438000
Si Si2 0.500000 0.636087 0.206728
Si Si3 0.351923 0.990368 0.116716
Si Si4 0.336362 0.106737 0.467505
Si Si5 0.402885 0.854845 0.739835
O O1 0.500000 0.902618 0.319835
O O2 0.416186 0.853723 0.476191
O O3 0.500000 0.000000 0.500000
O O4 0.500000 0.750000 0.205802
O O5 0.586358 0.593443 0.156378
O O6 0.250000 0.000000 0.138973
O O7 0.390904 0.079130 0.169326
O O8 0.360041 0.000000 0.000000
O O9 0.250000 0.150265 0.500000
O O10 0.348745 0.112314 0.352023
O O11 0.333115 0.000000 0.500000
O O12 0.500000 0.858025 0.707444
O O13 0.381098 0.750000 0.764610
#
# Coordination Sequence:
#
# PCOD9503520 Si02
#       5
#     8   8  16  16  16
#     4  10  20  39  60  93 137 183 224 276 338 408
#     4  12  27  45  73 111 145 181 238 306 358 416
#     4  11  26  49  75 101 137 184 234 292 364 433
#     4  10  21  36  62  94 133 182 223 274 339 409
#     4  11  24  42  68  99 134 179 235 285 342 420
#
# _framework density 20.445001000000001
#
# number of rings (size 3 to 8) (size 9 to 14) (size 15 to 20)
#    0.000    1.250    2.500    3.375    7.000    3.500 
#    0.000    2.500    0.000    0.000    0.000    0.000 
#    0.000    0.000    0.000    0.000    0.000    0.000 
#
# Total GULP energy -178365.553494 kJ/mol
# GULP energy per Si atom -5573.923547 kJ/mol
# Density = 2.039847 g / cm^3
# Si number density = 20.445001 Si / 1000 Ang^3
#
#
#
# Elastic Constant Matrix: (Units=GPa)
#
#
# Indices 1 2 3 4 5 6 
#
# 1 166.0164 37.6703 48.9195 0.0000 0.0000 0.0000
# 2 37.6703 173.6636 48.6506 0.0000 0.0000 0.0000
# 3 48.9195 48.6506 133.2494 0.0000 0.0000 0.0000
# 4 0.0000 0.0000 0.0000 -39.6740 0.0000 0.0000
# 5 0.0000 0.0000 0.0000 0.0000 32.6277 0.0000
# 6 0.0000 0.0000 0.0000 0.0000 0.0000 39.8269
#
#
#
# Elastic Compliance Matrix: (Units=1/GPa)
#
#
# Indices 1 2 3 4 5 6 
#
# 1 0.006871 -0.000873 -0.002204 0.000000 0.000000 0.000000
# 2 -0.000873 0.006525 -0.002062 0.000000 0.000000 0.000000
# 3 -0.002204 -0.002062 0.009067 0.000000 0.000000 0.000000
# 4 0.000000 0.000000 0.000000 -0.025205 0.000000 0.000000
# 5 0.000000 0.000000 0.000000 0.000000 0.030649 0.000000
# 6 0.000000 0.000000 0.000000 0.000000 0.000000 0.025109
#
#
# Mechanical properties :
#
#
# Convention : Reuss Voigt Hill
#
# Bulk Modulus (GPa) = 82.06548 82.60115 82.33331
# Shear Modulus (GPa) = 74.23444 29.06871 51.65158
#
# Velocity S-wave (km/s) = 6.03226 3.77477 5.03175
# Velocity P-wave (km/s) = 9.42042 7.71284 8.60907
#
# Compressibility (1/GPa) = 0.01218539
#
# Stress axis : x y z
#
# Youngs Moduli (GPa) = 145.53965 153.25042 110.29482
#
# Poissons Ratio (x) = 0.13380 0.24306
# Poissons Ratio (y) = 0.12706 0.22742
# Poissons Ratio (z) = 0.32074 0.31599
#
# Static dielectric constant tensor:
#      x y z
#    x 1.821670 0.000000 0.000000 
#    y 0.000000 1.725520 0.000000 
#    z 0.000000 0.000000 1.688900 
# 
# From -- ./inp_files/17529.got.cif
#   From: 2010.05.17/outbox.cif.g08.bks.cpg/sg67_9_cif.got.tgz:17529.got - 2010.06.03 18:28:57.
