data_PCOD9503812
_publ_section_title
;
Structure prediction by ZEFSAII (Michael W. Deem and Ramdas Pophale) SiO2 
 PCOD9503812
Probable space group: C M M A
;
_chemical_formula_sum "Si O2"
_cell_formula_units_Z 84
_cell_length_a 23.902483
_cell_length_b 14.715453
_cell_length_c 11.650448
_cell_angle_alpha 90.000000
_cell_angle_beta 90.000000
_cell_angle_gamma 90.000000
_cell_volume 4097.880407
_symmetry_space_group_name_H-M "C M M A"
_symmetry_group_IT_number 67
_symmetry_cell_setting 'orthorhombic'
loop_
_space_group_symop_operation_xyz
x,y,z
-x,1/2-y,z
x,-y,-z
-x,1/2+y,-z
-x,-y,-z
x,1/2+y,-z
-x,y,z
x,1/2-y,z
1/2+x,1/2+y,z
1/2-x,-y,z
1/2+x,1/2-y,-z
1/2-x,y,-z
1/2-x,1/2-y,-z
1/2+x,y,-z
1/2-x,1/2+y,z
1/2+x,-y,z
loop_
_atom_site_type_symbol
_atom_site_label
_atom_site_fract_x
_atom_site_fract_y
_atom_site_fract_z
Si Si1 0.834420 0.395779 0.516268
Si Si2 0.750000 0.250000 0.500000
Si Si3 0.660831 0.147030 0.748126
Si Si4 0.062811 0.357669 0.682187
Si Si5 0.775693 0.355626 0.872407
Si Si6 0.613257 0.022894 0.131307
O O1 0.817950 0.500000 0.500000
O O2 0.786881 0.329970 0.564396
O O3 0.843901 0.355451 0.388940
O O4 0.889502 0.389985 0.593967
O O5 0.649643 0.250000 0.788456
O O6 0.724056 0.125223 0.787791
O O7 0.621409 0.071993 0.802940
O O8 0.070074 0.250000 0.701287
O O9 0.071031 0.413543 0.799232
O O10 0.000000 0.372535 0.637022
O O11 0.793080 0.250000 0.858323
O O12 0.827684 0.422813 0.862139
O O13 0.750000 0.365284 0.000000
O O14 0.599770 0.000000 0.000000
#
# Coordination Sequence:
#
# PCOD9503812 Si02
#       6
#    16   4  16  16  16  16
#     4  12  25  44  69 104 138 185 228 286 355 424
#     4  12  26  40  66 110 150 172 214 282 358 424
#     4  11  23  39  60  95 139 180 225 277 347 422
#     4  11  26  49  76 100 133 185 243 298 352 418
#     4  10  21  36  59  95 139 185 224 275 345 427
#     4  12  24  39  67  98 136 179 235 285 345 414
#
# _framework density 20.498401999999999
#
# number of rings (size 3 to 8) (size 9 to 14) (size 15 to 20)
#    0.000    0.762    5.714    1.429    2.667    3.048 
#    0.000    0.000    0.000    0.571    0.000    0.000 
#    0.000    0.000    0.000    0.000    0.000    0.000 
#
# Total GULP energy -234434.060385 kJ/mol
# GULP energy per Si atom -5581.763342 kJ/mol
# Density = 2.045175 g / cm^3
# Si number density = 20.498402 Si / 1000 Ang^3
#
#
#
# Elastic Constant Matrix: (Units=GPa)
#
#
# Indices 1 2 3 4 5 6 
#
# 1 77.6467 46.3661 19.7813 0.0000 0.0000 0.0000
# 2 46.3661 138.6278 13.2322 0.0000 0.0000 0.0000
# 3 19.7813 13.2322 105.0208 0.0000 0.0000 0.0000
# 4 0.0000 0.0000 0.0000 26.7530 0.0000 0.0000
# 5 0.0000 0.0000 0.0000 0.0000 23.0980 0.0000
# 6 0.0000 0.0000 0.0000 0.0000 0.0000 12.3803
#
#
#
# Elastic Compliance Matrix: (Units=1/GPa)
#
#
# Indices 1 2 3 4 5 6 
#
# 1 0.016704 -0.005351 -0.002472 0.000000 0.000000 0.000000
# 2 -0.005351 0.009015 -0.000128 0.000000 0.000000 0.000000
# 3 -0.002472 -0.000128 0.010004 0.000000 0.000000 0.000000
# 4 0.000000 0.000000 0.000000 0.037379 0.000000 0.000000
# 5 0.000000 0.000000 0.000000 0.000000 0.043294 0.000000
# 6 0.000000 0.000000 0.000000 0.000000 0.000000 0.080774
#
#
# Mechanical properties :
#
#
# Convention : Reuss Voigt Hill
#
# Bulk Modulus (GPa) = 50.45153 53.33938 51.89546
# Shear Modulus (GPa) = 22.76054 28.57398 25.66726
#
# Velocity S-wave (km/s) = 3.33582 3.73763 3.54242
# Velocity P-wave (km/s) = 6.28512 6.68612 6.48872
#
# Compressibility (1/GPa) = 0.01982100
#
# Stress axis : x y z
#
# Youngs Moduli (GPa) = 59.86629 110.92045 99.96318
#
# Poissons Ratio (x) = 0.59352 0.24712
# Poissons Ratio (y) = 0.32034 0.01280
# Poissons Ratio (z) = 0.14799 0.01420
#
# Static dielectric constant tensor:
#      x y z
#    x 1.752190 0.000000 0.000000 
#    y 0.000000 1.744180 0.000000 
#    z 0.000000 0.000000 1.790590 
# 
# From -- ./inp_files/21733.got.cif
#   From: 2010.05.17/outbox.cif.g08.bks.cpg/sg67_11_cif.got.tgz:21733.got - 2010.06.03 18:28:57.
