data_PCOD9503162
_publ_section_title
;
Structure prediction by ZEFSAII (Michael W. Deem and Ramdas Pophale) SiO2 
 PCOD9503162
Probable space group: C M M A
;
_chemical_formula_sum "Si O2"
_cell_formula_units_Z 80
_cell_length_a 26.776696
_cell_length_b 25.807287
_cell_length_c 5.283015
_cell_angle_alpha 90.000000
_cell_angle_beta 90.000000
_cell_angle_gamma 90.000000
_cell_volume 3650.742346
_symmetry_space_group_name_H-M "C M M A"
_symmetry_group_IT_number 67
_symmetry_cell_setting 'orthorhombic'
loop_
_space_group_symop_operation_xyz
x,y,z
-x,1/2-y,z
x,-y,-z
-x,1/2+y,-z
-x,-y,-z
x,1/2+y,-z
-x,y,z
x,1/2-y,z
1/2+x,1/2+y,z
1/2-x,-y,z
1/2+x,1/2-y,-z
1/2-x,y,-z
1/2-x,1/2-y,-z
1/2+x,y,-z
1/2-x,1/2+y,z
1/2+x,-y,z
loop_
_atom_site_type_symbol
_atom_site_label
_atom_site_fract_x
_atom_site_fract_y
_atom_site_fract_z
Si Si1 0.281418 0.124987 0.240030
Si Si2 0.372713 0.394008 0.526635
Si Si3 0.654129 0.693312 0.082932
Si Si4 0.443826 0.844623 0.845496
Si Si5 0.945566 0.950136 0.824454
O O1 0.250000 0.128898 0.500000
O O2 0.331976 0.094105 0.312499
O O3 0.250000 0.104096 0.000000
O O4 0.305422 0.178522 0.132234
O O5 0.346453 0.354281 0.720767
O O6 0.419968 0.361943 0.419392
O O7 0.397728 0.443751 0.648878
O O8 0.664189 0.750000 0.191599
O O9 0.598430 0.691436 0.966615
O O10 0.500000 0.824213 0.828705
O O11 0.444988 0.897917 0.006701
O O12 0.000000 0.951371 0.691484
O O13 0.942487 0.000000 0.000000
#
# Coordination Sequence:
#
# PCOD9503162 Si02
#       5
#    16  16  16  16  16
#     4  11  22  41  62  89 119 158 205 265 321 367
#     4  10  20  36  58  86 126 162 208 254 316 377
#     4  10  22  38  57  86 122 160 208 258 307 371
#     4   9  19  35  55  83 123 165 204 247 300 369
#     4   9  18  34  59  93 129 162 201 253 315 378
#
# _framework density 21.913352
#
# number of rings (size 3 to 8) (size 9 to 14) (size 15 to 20)
#    0.000    2.200    2.000    0.600    0.000    6.000 
#    0.000    3.000    0.000    0.000    0.000   40.600 
#    0.000    0.000    0.000    0.000    0.000    0.000 
#
# Total GULP energy -223014.406443 kJ/mol
# GULP energy per Si atom -5575.360161 kJ/mol
# Density = 2.186348 g / cm^3
# Si number density = 21.913352 Si / 1000 Ang^3
#
#
#
# Elastic Constant Matrix: (Units=GPa)
#
#
# Indices 1 2 3 4 5 6 
#
# 1 130.6932 17.1678 52.8129 0.0000 0.0000 0.0000
# 2 17.1678 67.8394 18.2986 0.0000 0.0000 0.0000
# 3 52.8129 18.2986 95.4074 0.0000 0.0000 0.0000
# 4 0.0000 0.0000 0.0000 13.5448 0.0000 0.0000
# 5 0.0000 0.0000 0.0000 0.0000 48.8861 0.0000
# 6 0.0000 0.0000 0.0000 0.0000 0.0000 -2.2000
#
#
#
# Elastic Compliance Matrix: (Units=1/GPa)
#
#
# Indices 1 2 3 4 5 6 
#
# 1 0.009932 -0.001087 -0.005289 0.000000 0.000000 0.000000
# 2 -0.001087 0.015664 -0.002403 0.000000 0.000000 0.000000
# 3 -0.005289 -0.002403 0.013870 0.000000 0.000000 0.000000
# 4 0.000000 0.000000 0.000000 0.073829 0.000000 0.000000
# 5 0.000000 0.000000 0.000000 0.000000 0.020456 0.000000
# 6 0.000000 0.000000 0.000000 0.000000 0.000000 -0.454543
#
#
# Mechanical properties :
#
#
# Convention : Reuss Voigt Hill
#
# Bulk Modulus (GPa) = 45.64489 52.27760 48.96124
# Shear Modulus (GPa) = -16.89571 25.75688 4.43059
#
# Velocity S-wave (km/s) = -2.77974 3.43213 1.42347
# Velocity P-wave (km/s) = 3.25151 6.29399 5.00932
#
# Compressibility (1/GPa) = 0.02190826
#
# Stress axis : x y z
#
# Youngs Moduli (GPa) = 100.68841 63.84154 72.09772
#
# Poissons Ratio (x) = 0.06937 0.38134
# Poissons Ratio (y) = 0.10941 0.17323
# Poissons Ratio (z) = 0.53257 0.15339
#
# Static dielectric constant tensor:
#      x y z
#    x 1.855370 0.000000 0.000000 
#    y 0.000000 1.762100 0.000000 
#    z 0.000000 0.000000 1.901710 
# 
# From -- ./inp_files/3530.got.cif
#   From: 2010.05.17/outbox.cif.g08.bks.cpg/sg67_2_cif.got.tgz:3530.got - 2010.06.03 18:28:57.
