data_PCOD9503101
_publ_section_title
;
Structure prediction by ZEFSAII (Michael W. Deem and Ramdas Pophale) SiO2 
 PCOD9503101
Probable space group: C M M A
;
_chemical_formula_sum "Si O2"
_cell_formula_units_Z 72
_cell_length_a 8.633543
_cell_length_b 15.741986
_cell_length_c 28.823180
_cell_angle_alpha 90.000000
_cell_angle_beta 90.000000
_cell_angle_gamma 90.000000
_cell_volume 3917.332829
_symmetry_space_group_name_H-M "C M M A"
_symmetry_group_IT_number 67
_symmetry_cell_setting 'orthorhombic'
loop_
_space_group_symop_operation_xyz
x,y,z
-x,1/2-y,z
x,-y,-z
-x,1/2+y,-z
-x,-y,-z
x,1/2+y,-z
-x,y,z
x,1/2-y,z
1/2+x,1/2+y,z
1/2-x,-y,z
1/2+x,1/2-y,-z
1/2-x,y,-z
1/2-x,1/2-y,-z
1/2+x,y,-z
1/2-x,1/2+y,z
1/2+x,-y,z
loop_
_atom_site_type_symbol
_atom_site_label
_atom_site_fract_x
_atom_site_fract_y
_atom_site_fract_z
Si Si1 0.684943 0.750000 0.948033
Si Si2 0.313773 0.907472 0.551503
Si Si3 0.813563 0.407906 0.218365
Si Si4 0.186296 0.593222 0.889335
Si Si5 0.187494 0.250000 0.280568
Si Si6 0.186875 0.250000 0.615761
O O1 0.500000 0.750000 0.948920
O O2 0.745399 0.833091 0.921078
O O3 0.750000 0.750000 0.000000
O O4 0.500000 0.910781 0.549352
O O5 0.250000 0.888890 0.500000
O O6 0.266355 0.833655 0.586895
O O7 0.250000 0.000000 0.565163
O O8 0.750000 0.500000 0.231677
O O9 0.769582 0.391101 0.164688
O O10 0.760485 0.333274 0.252253
O O11 0.000000 0.410627 0.219652
O O12 0.250000 0.500000 0.901886
O O13 0.000000 0.593584 0.892479
O O14 0.246247 0.250000 0.332839
O O15 0.000000 0.250000 0.280702
O O16 0.000000 0.250000 0.618310
#
# Coordination Sequence:
#
# PCOD9503101 Si02
#       6
#     8  16  16  16   8   8
#     4  12  25  40  58  84 116 152 191 230 280 336
#     4  10  20  36  57  80 105 135 175 220 267 317
#     4   9  19  36  58  83 110 142 182 226 272 321
#     4  10  20  38  62  87 115 147 186 234 282 331
#     4  10  21  36  54  78 110 148 183 218 266 322
#     4  10  23  38  52  76 110 144 177 218 266 318
#
# _framework density 18.379850999999999
#
# number of rings (size 3 to 8) (size 9 to 14) (size 15 to 20)
#    0.000    2.000    0.000    4.000    0.000    6.667 
#    0.000    7.778    0.000    0.000    0.000    0.000 
#    0.000    0.000    0.000    0.000    0.000    0.000 
#
# Total GULP energy -201107.672139 kJ/mol
# GULP energy per Si atom -5586.324226 kJ/mol
# Density = 1.833802 g / cm^3
# Si number density = 18.379851 Si / 1000 Ang^3
#
#
#
# Elastic Constant Matrix: (Units=GPa)
#
#
# Indices 1 2 3 4 5 6 
#
# 1 58.4699 57.5507 46.6717 0.0000 0.0000 0.0000
# 2 57.5507 204.9630 148.3942 0.0000 0.0000 0.0000
# 3 46.6717 148.3942 144.4445 0.0000 0.0000 0.0000
# 4 0.0000 0.0000 0.0000 -14.3209 0.0000 0.0000
# 5 0.0000 0.0000 0.0000 0.0000 31.4090 0.0000
# 6 0.0000 0.0000 0.0000 0.0000 0.0000 34.1937
#
#
#
# Elastic Compliance Matrix: (Units=1/GPa)
#
#
# Indices 1 2 3 4 5 6 
#
# 1 0.024019 -0.004392 -0.003248 0.000000 0.000000 0.000000
# 2 -0.004392 0.019847 -0.018970 0.000000 0.000000 0.000000
# 3 -0.003248 -0.018970 0.027462 0.000000 0.000000 0.000000
# 4 0.000000 0.000000 0.000000 -0.069828 0.000000 0.000000
# 5 0.000000 0.000000 0.000000 0.000000 0.031838 0.000000
# 6 0.000000 0.000000 0.000000 0.000000 0.000000 0.029245
#
#
# Mechanical properties :
#
#
# Convention : Reuss Voigt Hill
#
# Bulk Modulus (GPa) = 55.23188 101.45674 78.34431
# Shear Modulus (GPa) = 41.03760 20.60709 30.82235
#
# Velocity S-wave (km/s) = 4.73032 3.35203 4.09952
# Velocity P-wave (km/s) = 7.74274 8.38459 8.07005
#
# Compressibility (1/GPa) = 0.01810548
#
# Stress axis : x y z
#
# Youngs Moduli (GPa) = 41.63368 50.38602 36.41450
#
# Poissons Ratio (x) = 0.22131 0.11829
# Poissons Ratio (y) = 0.18287 0.69079
# Poissons Ratio (z) = 0.13524 0.95583
#
# Static dielectric constant tensor:
#      x y z
#    x 1.623860 0.000000 0.000000 
#    y 0.000000 1.609880 0.000000 
#    z 0.000000 0.000000 1.603330 
# 
# From -- ./inp_files/43139.got.cif
#   From: 2010.05.17/outbox.cif.g08.bks.cpg/sg67_22_cif.got.tgz:43139.got - 2010.06.03 18:28:57.
