data_PCOD9503791
_publ_section_title
;
Structure prediction by ZEFSAII (Michael W. Deem and Ramdas Pophale) SiO2 
 PCOD9503791
Probable space group: C M M A
;
_chemical_formula_sum "Si O2"
_cell_formula_units_Z 112
_cell_length_a 14.015599
_cell_length_b 13.467268
_cell_length_c 27.797966
_cell_angle_alpha 90.000000
_cell_angle_beta 90.000000
_cell_angle_gamma 90.000000
_cell_volume 5246.916895
_symmetry_space_group_name_H-M "C M M A"
_symmetry_group_IT_number 67
_symmetry_cell_setting 'orthorhombic'
loop_
_space_group_symop_operation_xyz
x,y,z
-x,1/2-y,z
x,-y,-z
-x,1/2+y,-z
-x,-y,-z
x,1/2+y,-z
-x,y,z
x,1/2-y,z
1/2+x,1/2+y,z
1/2-x,-y,z
1/2+x,1/2-y,-z
1/2-x,y,-z
1/2-x,1/2-y,-z
1/2+x,y,-z
1/2-x,1/2+y,z
1/2+x,-y,z
loop_
_atom_site_type_symbol
_atom_site_label
_atom_site_fract_x
_atom_site_fract_y
_atom_site_fract_z
Si Si1 0.298941 0.367380 0.261971
Si Si2 0.885416 0.866806 0.469846
Si Si3 0.282611 0.861669 0.945306
Si Si4 0.892540 0.955611 0.783212
Si Si5 0.890249 0.452875 0.101523
Si Si6 0.107855 0.129010 0.423811
Si Si7 0.292451 0.129951 0.371282
O O1 0.311444 0.250000 0.258263
O O2 0.192552 0.395780 0.243194
O O3 0.372809 0.430669 0.231172
O O4 0.315404 0.400197 0.317333
O O5 0.858146 0.750000 0.469740
O O6 0.856559 0.903604 0.523063
O O7 0.849127 0.905878 0.418656
O O8 0.000000 0.873038 0.470334
O O9 0.321746 0.750000 0.942806
O O10 0.352154 0.944631 0.922700
O O11 0.183840 0.870937 0.916347
O O12 0.250000 0.882829 0.000000
O O13 0.000000 0.924031 0.769876
O O14 0.883282 0.952606 0.840761
O O15 0.000000 0.435950 0.087908
O O16 0.104321 0.250000 0.426211
O O17 0.182778 0.105381 0.382774
O O18 0.000000 0.094292 0.416002
O O19 0.302701 0.250000 0.370981
#
# Coordination Sequence:
#
# PCOD9503791 Si02
#       7
#    16  16  16  16  16  16  16
#     4  10  21  37  58  83 111 144 183 233 292 347
#     4   8  13  21  34  56  90 128 162 201 252 313
#     4  10  21  36  57  89 126 159 191 232 281 330
#     4  10  23  41  59  83 113 147 193 243 287 333
#     4  10  21  38  60  83 112 155 201 241 281 329
#     4   8  13  21  34  56  90 128 162 201 252 313
#     4   9  16  25  41  67  96 128 167 211 264 326
#
# _framework density 21.345867999999999
#
# number of rings (size 3 to 8) (size 9 to 14) (size 15 to 20)
#    0.000    2.714    0.000    3.857    0.000    7.429 
#    0.000    7.143    0.000    0.000    0.000    8.000 
#    0.000   13.714    0.000    1.143    0.000    0.000 
#
# Total GULP energy -312656.108158 kJ/mol
# GULP energy per Si atom -5583.144789 kJ/mol
# Density = 2.129728 g / cm^3
# Si number density = 21.345868 Si / 1000 Ang^3
#
#
#
# Elastic Constant Matrix: (Units=GPa)
#
#
# Indices 1 2 3 4 5 6 
#
# 1 55.2188 -36.0000 20.1825 0.0000 0.0000 0.0000
# 2 -36.0000 57.9205 -9.6594 0.0000 0.0000 0.0000
# 3 20.1825 -9.6594 92.1667 0.0000 0.0000 0.0000
# 4 0.0000 0.0000 0.0000 -24.8200 0.0000 0.0000
# 5 0.0000 0.0000 0.0000 0.0000 -20.4553 0.0000
# 6 0.0000 0.0000 0.0000 0.0000 0.0000 1.8226
#
#
#
# Elastic Compliance Matrix: (Units=1/GPa)
#
#
# Indices 1 2 3 4 5 6 
#
# 1 0.032655 0.019444 -0.005113 0.000000 0.000000 0.000000
# 2 0.019444 0.029150 -0.001203 0.000000 0.000000 0.000000
# 3 -0.005113 -0.001203 0.011843 0.000000 0.000000 0.000000
# 4 0.000000 0.000000 0.000000 -0.040290 0.000000 0.000000
# 5 0.000000 0.000000 0.000000 0.000000 -0.048887 0.000000
# 6 0.000000 0.000000 0.000000 0.000000 0.000000 0.548680
#
#
# Mechanical properties :
#
#
# Convention : Reuss Voigt Hill
#
# Bulk Modulus (GPa) = 10.00961 17.15025 13.57993
# Shear Modulus (GPa) = 9.25590 6.69497 7.97544
#
# Velocity S-wave (km/s) = 2.08460 1.77292 1.93505
# Velocity P-wave (km/s) = 3.23937 3.49898 3.37168
#
# Compressibility (1/GPa) = 0.09990403
#
# Stress axis : x y z
#
# Youngs Moduli (GPa) = 30.62324 34.30581 84.43473
#
# Poissons Ratio (x) = -0.66703 0.43171
# Poissons Ratio (y) = -0.59543 0.10156
# Poissons Ratio (z) = 0.15657 0.04126
#
# Static dielectric constant tensor:
#      x y z
#    x 1.628020 0.000000 0.000000 
#    y 0.000000 1.853300 0.000000 
#    z 0.000000 0.000000 1.754620 
# 
# From -- ./inp_files/44369.got.cif
#   From: 2010.05.17/outbox.cif.g08.bks.cpg/sg67_23_cif.got.tgz:44369.got - 2010.06.03 18:28:57.
