data_PCOD9503405
_publ_section_title
;
Structure prediction by ZEFSAII (Michael W. Deem and Ramdas Pophale) SiO2 
 PCOD9503405
Probable space group: C M M A
;
_chemical_formula_sum "Si O2"
_cell_formula_units_Z 96
_cell_length_a 22.481890
_cell_length_b 15.201985
_cell_length_c 14.144822
_cell_angle_alpha 90.000000
_cell_angle_beta 90.000000
_cell_angle_gamma 90.000000
_cell_volume 4834.266685
_symmetry_space_group_name_H-M "C M M A"
_symmetry_group_IT_number 67
_symmetry_cell_setting 'orthorhombic'
loop_
_space_group_symop_operation_xyz
x,y,z
-x,1/2-y,z
x,-y,-z
-x,1/2+y,-z
-x,-y,-z
x,1/2+y,-z
-x,y,z
x,1/2-y,z
1/2+x,1/2+y,z
1/2-x,-y,z
1/2+x,1/2-y,-z
1/2-x,y,-z
1/2-x,1/2-y,-z
1/2+x,y,-z
1/2-x,1/2+y,z
1/2+x,-y,z
loop_
_atom_site_type_symbol
_atom_site_label
_atom_site_fract_x
_atom_site_fract_y
_atom_site_fract_z
Si Si1 0.929140 0.940221 0.406330
Si Si2 0.744426 0.144352 0.112128
Si Si3 0.631270 0.931959 0.781116
Si Si4 0.066307 0.750000 0.977041
Si Si5 0.934579 0.750000 0.200765
Si Si6 0.571405 0.750000 0.511250
Si Si7 0.120837 0.611781 0.848025
Si Si8 0.928976 0.250000 0.297346
O O1 0.882342 0.967854 0.324840
O O2 0.913718 0.840273 0.436280
O O3 0.000000 0.945010 0.376370
O O4 0.924590 0.000000 0.500000
O O5 0.732525 0.250000 0.116517
O O6 0.694478 0.092772 0.171691
O O7 0.808329 0.123265 0.156675
O O8 0.750000 0.121205 0.000000
O O9 0.597401 0.839988 0.776237
O O10 0.605025 0.009630 0.846067
O O11 0.062292 0.750000 0.087846
O O12 0.000000 0.750000 0.935260
O O13 0.100079 0.664248 0.940447
O O14 0.000000 0.750000 0.244196
O O15 0.500000 0.750000 0.504033
O O16 0.594786 0.750000 0.403943
O O17 0.092176 0.665550 0.761777
O O18 0.000000 0.250000 0.300792
#
# Coordination Sequence:
#
# PCOD9503405 Si02
#       8
#    16  16  16   8   8   8  16   8
#     4  10  21  38  61  92 128 163 205 259 319 385
#     4  11  23  42  65  88 119 163 213 267 320 377
#     4  12  24  38  63  91 121 164 209 261 320 381
#     4  10  22  39  57  83 122 164 202 252 316 378
#     4  11  24  38  54  86 130 165 200 248 311 385
#     4   9  18  34  57  83 116 156 195 242 300 365
#     4  11  22  38  61  88 118 154 206 263 307 377
#     4  10  20  37  63  92 121 157 203 256 317 385
#
# _framework density 19.858235000000001
#
# number of rings (size 3 to 8) (size 9 to 14) (size 15 to 20)
#    0.000    1.333    2.500    4.500    0.000    8.000 
#    0.000    1.667    0.000    8.000    0.000    0.000 
#    0.000    0.000    0.000    0.000    0.000    0.000 
#
# Total GULP energy -267894.053691 kJ/mol
# GULP energy per Si atom -5581.126119 kJ/mol
# Density = 1.981304 g / cm^3
# Si number density = 19.858235 Si / 1000 Ang^3
#
#
#
# Elastic Constant Matrix: (Units=GPa)
#
#
# Indices 1 2 3 4 5 6 
#
# 1 96.8746 24.0142 33.4029 0.0000 0.0000 0.0000
# 2 24.0142 117.2253 14.2183 0.0000 0.0000 0.0000
# 3 33.4029 14.2183 103.6643 0.0000 0.0000 0.0000
# 4 0.0000 0.0000 0.0000 -21.6449 0.0000 0.0000
# 5 0.0000 0.0000 0.0000 0.0000 11.6808 0.0000
# 6 0.0000 0.0000 0.0000 0.0000 0.0000 1.8291
#
#
#
# Elastic Compliance Matrix: (Units=1/GPa)
#
#
# Indices 1 2 3 4 5 6 
#
# 1 0.012072 -0.002035 -0.003611 0.000000 0.000000 0.000000
# 2 -0.002035 0.009018 -0.000581 0.000000 0.000000 0.000000
# 3 -0.003611 -0.000581 0.010890 0.000000 0.000000 0.000000
# 4 0.000000 0.000000 0.000000 -0.046200 0.000000 0.000000
# 5 0.000000 0.000000 0.000000 0.000000 0.085610 0.000000
# 6 0.000000 0.000000 0.000000 0.000000 0.000000 0.546703
#
#
# Mechanical properties :
#
#
# Convention : Reuss Voigt Hill
#
# Bulk Modulus (GPa) = 51.21428 51.22612 51.22020
# Shear Modulus (GPa) = 7.84861 14.78159 11.31510
#
# Velocity S-wave (km/s) = 1.99020 2.73125 2.38963
# Velocity P-wave (km/s) = 5.57917 5.98316 5.78469
#
# Compressibility (1/GPa) = 0.01952580
#
# Stress axis : x y z
#
# Youngs Moduli (GPa) = 82.83552 110.88975 91.82992
#
# Poissons Ratio (x) = 0.22567 0.33158
# Poissons Ratio (y) = 0.16858 0.05336
# Poissons Ratio (z) = 0.29910 0.06444
#
# Static dielectric constant tensor:
#      x y z
#    x 1.697090 0.000000 0.000000 
#    y 0.000000 1.834910 0.000000 
#    z 0.000000 0.000000 1.738520 
# 
# From -- ./inp_files/29401.got.cif
#   From: 2010.05.17/outbox.cif.g08.bks.cpg/sg67_15_cif.got.tgz:29401.got - 2010.06.03 18:28:57.
