data_PCOD9503123
_publ_section_title
;
Structure prediction by ZEFSAII (Michael W. Deem and Ramdas Pophale) SiO2 
 PCOD9503123
Probable space group: C M M A
;
_chemical_formula_sum "Si O2"
_cell_formula_units_Z 100
_cell_length_a 21.860006
_cell_length_b 14.683324
_cell_length_c 12.028995
_cell_angle_alpha 90.000000
_cell_angle_beta 90.000000
_cell_angle_gamma 90.000000
_cell_volume 3861.037353
_symmetry_space_group_name_H-M "C M M A"
_symmetry_group_IT_number 67
_symmetry_cell_setting 'orthorhombic'
loop_
_space_group_symop_operation_xyz
x,y,z
-x,1/2-y,z
x,-y,-z
-x,1/2+y,-z
-x,-y,-z
x,1/2+y,-z
-x,y,z
x,1/2-y,z
1/2+x,1/2+y,z
1/2-x,-y,z
1/2+x,1/2-y,-z
1/2-x,y,-z
1/2-x,1/2-y,-z
1/2+x,y,-z
1/2-x,1/2+y,z
1/2+x,-y,z
loop_
_atom_site_type_symbol
_atom_site_label
_atom_site_fract_x
_atom_site_fract_y
_atom_site_fract_z
Si Si1 0.388904 0.390003 0.206053
Si Si2 0.000000 0.250000 0.742121
Si Si3 0.568450 0.598585 0.201393
Si Si4 0.564019 0.356083 0.539164
Si Si5 0.244912 0.641895 0.226131
Si Si6 0.331127 0.892509 0.028123
Si Si7 0.189741 0.638392 0.563360
O O1 0.444100 0.328100 0.250583
O O2 0.416198 0.491263 0.203316
O O3 0.321636 0.393242 0.262621
O O4 0.361838 0.355250 0.085977
O O5 0.500000 0.612187 0.156055
O O6 0.567689 0.638000 0.326412
O O7 0.618821 0.638169 0.119561
O O8 0.500000 0.397299 0.501455
O O9 0.561574 0.250000 0.505625
O O10 0.628396 0.395817 0.505649
O O11 0.240999 0.750000 0.237349
O O12 0.268619 0.622761 0.101270
O O13 0.296839 0.608441 0.310954
O O14 0.331578 0.000000 0.000000
O O15 0.185150 0.750000 0.562930
O O16 0.250000 0.612889 0.500000
#
# Coordination Sequence:
#
# PCOD9503123 Si02
#       7
#    16   4  16  16  16  16  16
#     4  11  24  38  59  78 121 165 209 257 300 369
#     4  12  24  44  52  84 116 176 220 256 298 370
#     4  10  20  36  57  85 120 162 202 248 308 363
#     4   9  17  33  58  91 125 161 204 257 310 372
#     4  11  22  39  60  89 119 159 206 262 311 367
#     4  10  23  37  57  87 120 159 205 250 314 373
#     4   9  18  35  62  91 124 155 198 252 318 377
#
# _framework density 25.899775999999999
#
# number of rings (size 3 to 8) (size 9 to 14) (size 15 to 20)
#    0.000    1.920    3.200    0.480    2.240    6.080 
#    0.000    0.000    1.760    1.920    0.000    2.240 
#    0.000    0.000    0.000    0.000    0.000    0.000 
#
# Total GULP energy -278656.154536 kJ/mol
# GULP energy per Si atom -5573.123091 kJ/mol
# Density = 2.584083 g / cm^3
# Si number density = 25.899776 Si / 1000 Ang^3
#
#
#
# Elastic Constant Matrix: (Units=GPa)
#
#
# Indices 1 2 3 4 5 6 
#
# 1 237.4989 -6.3336 28.5564 0.0000 0.0000 0.0000
# 2 -6.3336 89.4404 -7.6578 0.0000 0.0000 0.0000
# 3 28.5564 -7.6578 89.8428 0.0000 0.0000 0.0000
# 4 0.0000 0.0000 0.0000 22.9116 0.0000 0.0000
# 5 0.0000 0.0000 0.0000 0.0000 6.9647 0.0000
# 6 0.0000 0.0000 0.0000 0.0000 0.0000 23.5162
#
#
#
# Elastic Compliance Matrix: (Units=1/GPa)
#
#
# Indices 1 2 3 4 5 6 
#
# 1 0.004381 0.000192 -0.001376 0.000000 0.000000 0.000000
# 2 0.000192 0.011271 0.000900 0.000000 0.000000 0.000000
# 3 -0.001376 0.000900 0.011645 0.000000 0.000000 0.000000
# 4 0.000000 0.000000 0.000000 0.043646 0.000000 0.000000
# 5 0.000000 0.000000 0.000000 0.000000 0.143580 0.000000
# 6 0.000000 0.000000 0.000000 0.000000 0.000000 0.042524
#
#
# Mechanical properties :
#
#
# Convention : Reuss Voigt Hill
#
# Bulk Modulus (GPa) = 37.41295 49.54580 43.47938
# Shear Modulus (GPa) = 18.75995 37.49297 28.12646
#
# Velocity S-wave (km/s) = 2.69426 3.80888 3.29899
# Velocity P-wave (km/s) = 4.91481 6.20603 5.59777
#
# Compressibility (1/GPa) = 0.02672871
#
# Stress axis : x y z
#
# Youngs Moduli (GPa) = 228.25099 88.72108 85.87645
#
# Poissons Ratio (x) = -0.01707 0.11818
# Poissons Ratio (y) = -0.04392 -0.07725
# Poissons Ratio (z) = 0.31411 -0.07981
#
# Static dielectric constant tensor:
#      x y z
#    x 2.090320 0.000000 0.000000 
#    y 0.000000 1.987130 0.000000 
#    z 0.000000 0.000000 2.159710 
# 
# From -- ./inp_files/29488.got.cif
#   From: 2010.05.17/outbox.cif.g08.bks.cpg/sg67_15_cif.got.tgz:29488.got - 2010.06.03 18:28:57.
