data_PCOD9503598
_publ_section_title
;
Structure prediction by ZEFSAII (Michael W. Deem and Ramdas Pophale) SiO2 
 PCOD9503598
Probable space group: C M M A
;
_chemical_formula_sum "Si O2"
_cell_formula_units_Z 128
_cell_length_a 24.043011
_cell_length_b 24.579841
_cell_length_c 12.672261
_cell_angle_alpha 90.000000
_cell_angle_beta 90.000000
_cell_angle_gamma 90.000000
_cell_volume 7488.969011
_symmetry_space_group_name_H-M "C M M A"
_symmetry_group_IT_number 67
_symmetry_cell_setting 'orthorhombic'
loop_
_space_group_symop_operation_xyz
x,y,z
-x,1/2-y,z
x,-y,-z
-x,1/2+y,-z
-x,-y,-z
x,1/2+y,-z
-x,y,z
x,1/2-y,z
1/2+x,1/2+y,z
1/2-x,-y,z
1/2+x,1/2-y,-z
1/2-x,y,-z
1/2-x,1/2-y,-z
1/2+x,y,-z
1/2-x,1/2+y,z
1/2+x,-y,z
loop_
_atom_site_type_symbol
_atom_site_label
_atom_site_fract_x
_atom_site_fract_y
_atom_site_fract_z
Si Si1 0.127785 0.814265 0.561935
Si Si2 0.438354 0.685194 0.239525
Si Si3 0.762797 0.618934 0.617261
Si Si4 0.563515 0.503040 0.127991
Si Si5 0.151552 0.314781 0.673439
Si Si6 0.246549 0.063541 0.168159
Si Si7 0.868320 0.890799 0.899430
Si Si8 0.871167 0.605257 0.142732
O O1 0.141299 0.750000 0.570963
O O2 0.076162 0.825620 0.638163
O O3 0.179939 0.848284 0.605282
O O4 0.120168 0.824942 0.437749
O O5 0.500000 0.664413 0.211445
O O6 0.438049 0.750000 0.225107
O O7 0.390320 0.658804 0.169512
O O8 0.750000 0.597383 0.500000
O O9 0.713180 0.660244 0.651572
O O10 0.765261 0.573764 0.707744
O O11 0.500000 0.508093 0.164360
O O12 0.600244 0.556264 0.147765
O O13 0.592485 0.448189 0.169320
O O14 0.562927 0.500000 0.000000
O O15 0.154526 0.250000 0.692074
O O16 0.124511 0.347051 0.771155
O O17 0.196710 0.094792 0.109543
O O18 0.306624 0.087975 0.144004
O O19 0.250000 0.000000 0.141502
O O20 0.884473 0.880734 0.021266
#
# Coordination Sequence:
#
# PCOD9503598 Si02
#       8
#    16  16  16  16  16  16  16  16
#     4   9  16  31  54  76 101 136 177 220 261 309
#     4  10  21  36  56  82 108 138 182 229 269 314
#     4   9  17  30  50  76 104 140 178 215 262 320
#     4   9  18  33  53  73  95 132 182 226 258 305
#     4   9  18  32  52  78 108 138 172 213 264 324
#     4  11  20  32  51  78 111 142 176 221 273 320
#     4  11  20  34  54  76 108 144 178 219 269 324
#     4  10  21  33  51  79 108 140 177 217 266 322
#
# _framework density 17.091805000000001
#
# number of rings (size 3 to 8) (size 9 to 14) (size 15 to 20)
#    0.000    2.250    2.500    1.125    0.000    3.250 
#    0.000    0.625    0.000    4.125    0.000    1.750 
#    0.000    0.000    0.000    0.000    0.000    0.000 
#
# Total GULP energy -356605.997237 kJ/mol
# GULP energy per Si atom -5571.968707 kJ/mol
# Density = 1.705290 g / cm^3
# Si number density = 17.091805 Si / 1000 Ang^3
#
#
#
# Elastic Constant Matrix: (Units=GPa)
#
#
# Indices 1 2 3 4 5 6 
#
# 1 61.0045 13.1576 5.2403 0.0000 0.0000 0.0000
# 2 13.1576 51.8271 31.3211 0.0000 0.0000 0.0000
# 3 5.2403 31.3211 83.9745 0.0000 0.0000 0.0000
# 4 0.0000 0.0000 0.0000 19.0422 0.0000 0.0000
# 5 0.0000 0.0000 0.0000 0.0000 8.9456 0.0000
# 6 0.0000 0.0000 0.0000 0.0000 0.0000 19.6418
#
#
#
# Elastic Compliance Matrix: (Units=1/GPa)
#
#
# Indices 1 2 3 4 5 6 
#
# 1 0.017376 -0.004849 0.000724 0.000000 0.000000 0.000000
# 2 -0.004849 0.026263 -0.009493 0.000000 0.000000 0.000000
# 3 0.000724 -0.009493 0.015404 0.000000 0.000000 0.000000
# 4 0.000000 0.000000 0.000000 0.052515 0.000000 0.000000
# 5 0.000000 0.000000 0.000000 0.000000 0.111787 0.000000
# 6 0.000000 0.000000 0.000000 0.000000 0.000000 0.050912
#
#
# Mechanical properties :
#
#
# Convention : Reuss Voigt Hill
#
# Bulk Modulus (GPa) = 31.43943 32.91603 32.17773
# Shear Modulus (GPa) = 16.02080 19.33173 17.67626
#
# Velocity S-wave (km/s) = 3.06492 3.36676 3.21938
# Velocity P-wave (km/s) = 5.56411 5.86631 5.71721
#
# Compressibility (1/GPa) = 0.03180719
#
# Stress axis : x y z
#
# Youngs Moduli (GPa) = 57.55114 38.07647 64.91853
#
# Poissons Ratio (x) = 0.18463 -0.04702
# Poissons Ratio (y) = 0.27907 0.61627
# Poissons Ratio (z) = -0.04168 0.36146
#
# Static dielectric constant tensor:
#      x y z
#    x 1.576930 0.000000 0.000000 
#    y 0.000000 1.563650 0.000000 
#    z 0.000000 0.000000 1.597560 
# 
# From -- ./inp_files/22333.got.cif
#   From: 2010.05.17/outbox.cif.g08.bks.cpg/sg67_12_cif.got.tgz:22333.got - 2010.06.03 18:28:57.
