data_PCOD9503469
_publ_section_title
;
Structure prediction by ZEFSAII (Michael W. Deem and Ramdas Pophale) SiO2 
 PCOD9503469
Probable space group: C M M A
;
_chemical_formula_sum "Si O2"
_cell_formula_units_Z 80
_cell_length_a 24.316532
_cell_length_b 8.689629
_cell_length_c 20.745598
_cell_angle_alpha 90.000000
_cell_angle_beta 90.000000
_cell_angle_gamma 90.000000
_cell_volume 4383.578914
_symmetry_space_group_name_H-M "C M M A"
_symmetry_group_IT_number 67
_symmetry_cell_setting 'orthorhombic'
loop_
_space_group_symop_operation_xyz
x,y,z
-x,1/2-y,z
x,-y,-z
-x,1/2+y,-z
-x,-y,-z
x,1/2+y,-z
-x,y,z
x,1/2-y,z
1/2+x,1/2+y,z
1/2-x,-y,z
1/2+x,1/2-y,-z
1/2-x,y,-z
1/2-x,1/2-y,-z
1/2+x,y,-z
1/2-x,1/2+y,z
1/2+x,-y,z
loop_
_atom_site_type_symbol
_atom_site_label
_atom_site_fract_x
_atom_site_fract_y
_atom_site_fract_z
Si Si1 0.190672 0.566649 0.928715
Si Si2 0.500000 0.566529 0.381390
Si Si3 0.811138 0.435329 0.690408
Si Si4 0.000000 0.064681 0.762779
Si Si5 0.385154 0.934974 0.568976
Si Si6 0.381217 0.435383 0.183759
O O1 0.194287 0.750000 0.931959
O O2 0.250000 0.500000 0.907313
O O3 0.144588 0.513771 0.878630
O O4 0.180241 0.500000 0.000000
O O5 0.500000 0.750000 0.387175
O O6 0.500000 0.516124 0.306554
O O7 0.554506 0.498203 0.414026
O O8 0.808788 0.250000 0.690392
O O9 0.750000 0.500000 0.692003
O O10 0.844133 0.482935 0.626362
O O11 0.845569 0.481529 0.753615
O O12 0.944544 0.026502 0.801288
O O13 0.000000 0.250000 0.751099
O O14 0.387172 0.750000 0.567106
O O15 0.367612 0.000000 0.500000
O O16 0.377219 0.250000 0.176705
#
# Coordination Sequence:
#
# PCOD9503469 Si02
#       6
#    16   8  16   8  16  16
#     4  11  22  38  61  90 123 159 198 243 287 342
#     4  12  23  37  60  89 116 149 192 243 292 349
#     4  10  22  38  59  83 115 152 193 238 291 350
#     4  10  20  39  64  87 120 157 192 237 292 347
#     4  11  23  41  60  83 114 153 194 242 297 353
#     4  10  20  38  62  89 118 155 194 239 293 345
#
# _framework density 18.249929000000002
#
# number of rings (size 3 to 8) (size 9 to 14) (size 15 to 20)
#    0.000    1.400    2.000    4.800    0.000    5.200 
#    0.000    2.500    0.000    0.000    0.000    0.000 
#    0.000    0.000    0.000    0.000    0.000    0.000 
#
# Total GULP energy -223628.399359 kJ/mol
# GULP energy per Si atom -5590.709984 kJ/mol
# Density = 1.820839 g / cm^3
# Si number density = 18.249929 Si / 1000 Ang^3
#
#
#
# Elastic Constant Matrix: (Units=GPa)
#
#
# Indices 1 2 3 4 5 6 
#
# 1 143.6230 40.5951 65.2198 0.0000 0.0000 0.0000
# 2 40.5951 71.0726 42.9446 0.0000 0.0000 0.0000
# 3 65.2198 42.9446 103.8442 0.0000 0.0000 0.0000
# 4 0.0000 0.0000 0.0000 33.2863 0.0000 0.0000
# 5 0.0000 0.0000 0.0000 0.0000 45.9228 0.0000
# 6 0.0000 0.0000 0.0000 0.0000 0.0000 25.0475
#
#
#
# Elastic Compliance Matrix: (Units=1/GPa)
#
#
# Indices 1 2 3 4 5 6 
#
# 1 0.010083 -0.002577 -0.005267 0.000000 0.000000 0.000000
# 2 -0.002577 0.019416 -0.006411 0.000000 0.000000 0.000000
# 3 -0.005267 -0.006411 0.015589 0.000000 0.000000 0.000000
# 4 0.000000 0.000000 0.000000 0.030042 0.000000 0.000000
# 5 0.000000 0.000000 0.000000 0.000000 0.021776 0.000000
# 6 0.000000 0.000000 0.000000 0.000000 0.000000 0.039924
#
#
# Mechanical properties :
#
#
# Convention : Reuss Voigt Hill
#
# Bulk Modulus (GPa) = 60.32027 68.45097 64.38562
# Shear Modulus (GPa) = 29.26290 32.16999 30.71644
#
# Velocity S-wave (km/s) = 4.00866 4.20306 4.10701
# Velocity P-wave (km/s) = 7.38579 7.81942 7.60569
#
# Compressibility (1/GPa) = 0.01657818
#
# Stress axis : x y z
#
# Youngs Moduli (GPa) = 99.18011 51.50496 64.14762
#
# Poissons Ratio (x) = 0.13270 0.33786
# Poissons Ratio (y) = 0.25554 0.41126
# Poissons Ratio (z) = 0.52238 0.33020
#
# Static dielectric constant tensor:
#      x y z
#    x 1.600840 0.000000 0.000000 
#    y 0.000000 1.614680 0.000000 
#    z 0.000000 0.000000 1.609450 
# 
# From -- ./inp_files/39512.got.cif
#   From: 2010.05.17/outbox.cif.g08.bks.cpg/sg67_20_cif.got.tgz:39512.got - 2010.06.03 18:28:57.
