data_PCOD9503371
_publ_section_title
;
Structure prediction by ZEFSAII (Michael W. Deem and Ramdas Pophale) SiO2 
 PCOD9503371
Probable space group: C M M A
;
_chemical_formula_sum "Si O2"
_cell_formula_units_Z 72
_cell_length_a 18.507348
_cell_length_b 22.608518
_cell_length_c 8.357479
_cell_angle_alpha 90.000000
_cell_angle_beta 90.000000
_cell_angle_gamma 90.000000
_cell_volume 3496.967373
_symmetry_space_group_name_H-M "C M M A"
_symmetry_group_IT_number 67
_symmetry_cell_setting 'orthorhombic'
loop_
_space_group_symop_operation_xyz
x,y,z
-x,1/2-y,z
x,-y,-z
-x,1/2+y,-z
-x,-y,-z
x,1/2+y,-z
-x,y,z
x,1/2-y,z
1/2+x,1/2+y,z
1/2-x,-y,z
1/2+x,1/2-y,-z
1/2-x,y,-z
1/2-x,1/2-y,-z
1/2+x,y,-z
1/2-x,1/2+y,z
1/2+x,-y,z
loop_
_atom_site_type_symbol
_atom_site_label
_atom_site_fract_x
_atom_site_fract_y
_atom_site_fract_z
Si Si1 0.622084 0.587227 0.135491
Si Si2 0.000000 0.971141 0.672431
Si Si3 0.250000 0.088262 0.500000
Si Si4 0.640735 0.817787 0.359885
Si Si5 0.000000 0.815576 0.415670
Si Si6 0.000000 0.911327 0.130771
Si Si7 0.250000 0.000000 0.772645
O O1 0.570870 0.565452 0.281659
O O2 0.637075 0.655416 0.180898
O O3 0.689819 0.540934 0.136566
O O4 0.571748 0.589464 0.979651
O O5 0.000000 0.000000 0.500000
O O6 0.000000 0.024661 0.794063
O O7 0.309392 0.132842 0.562126
O O8 0.281244 0.047854 0.355563
O O9 0.666840 0.750000 0.360636
O O10 0.567983 0.818999 0.464814
O O11 0.000000 0.863780 0.274418
O O12 0.000000 0.750000 0.340767
#
# Coordination Sequence:
#
# PCOD9503371 Si02
#       7
#    16   8   8  16   8   8   8
#     4  10  21  37  58  90 120 157 194 247 304 358
#     4  11  23  37  61  84 115 152 193 243 305 363
#     4   9  19  34  58  88 121 157 202 248 302 351
#     4  10  20  37  61  90 118 156 204 249 296 354
#     4  10  22  37  60  88 119 160 206 251 291 350
#     4  11  23  40  59  88 123 160 199 238 309 359
#     4   9  20  34  57  88 123 155 202 248 304 356
#
# _framework density 20.589268000000001
#
# number of rings (size 3 to 8) (size 9 to 14) (size 15 to 20)
#    0.000    2.000    0.000    4.333    9.333    0.889 
#    0.000    2.222    0.000    0.000    0.000    7.778 
#    0.000    0.000    0.000    0.000    0.000    0.222 
#
# Total GULP energy -200608.282685 kJ/mol
# GULP energy per Si atom -5572.452297 kJ/mol
# Density = 2.054241 g / cm^3
# Si number density = 20.589268 Si / 1000 Ang^3
#
#
#
# Elastic Constant Matrix: (Units=GPa)
#
#
# Indices 1 2 3 4 5 6 
#
# 1 64.3469 27.0138 13.9106 0.0000 0.0000 0.0000
# 2 27.0138 162.5604 38.2826 0.0000 0.0000 0.0000
# 3 13.9106 38.2826 59.9637 0.0000 0.0000 0.0000
# 4 0.0000 0.0000 0.0000 36.0564 0.0000 0.0000
# 5 0.0000 0.0000 0.0000 0.0000 24.0547 0.0000
# 6 0.0000 0.0000 0.0000 0.0000 0.0000 21.5978
#
#
#
# Elastic Compliance Matrix: (Units=1/GPa)
#
#
# Indices 1 2 3 4 5 6 
#
# 1 0.017024 -0.002235 -0.002522 0.000000 0.000000 0.000000
# 2 -0.002235 0.007534 -0.004291 0.000000 0.000000 0.000000
# 3 -0.002522 -0.004291 0.020001 0.000000 0.000000 0.000000
# 4 0.000000 0.000000 0.000000 0.027734 0.000000 0.000000
# 5 0.000000 0.000000 0.000000 0.000000 0.041572 0.000000
# 6 0.000000 0.000000 0.000000 0.000000 0.000000 0.046301
#
#
# Mechanical properties :
#
#
# Convention : Reuss Voigt Hill
#
# Bulk Modulus (GPa) = 37.78986 49.47611 43.63298
# Shear Modulus (GPa) = 26.72589 30.18606 28.45597
#
# Velocity S-wave (km/s) = 3.60675 3.83313 3.72166
# Velocity P-wave (km/s) = 5.97820 6.60854 6.30126
#
# Compressibility (1/GPa) = 0.02646213
#
# Stress axis : x y z
#
# Youngs Moduli (GPa) = 58.73932 132.74012 49.99626
#
# Poissons Ratio (x) = 0.29668 0.12611
# Poissons Ratio (y) = 0.13128 0.21454
# Poissons Ratio (z) = 0.14817 0.56960
#
# Static dielectric constant tensor:
#      x y z
#    x 1.743090 0.000000 0.000000 
#    y 0.000000 1.803790 0.000000 
#    z 0.000000 0.000000 1.857330 
# 
# From -- ./inp_files/11022.got.cif
#   From: 2010.05.17/outbox.cif.g08.bks.cpg/sg67_6_cif.got.tgz:11022.got - 2010.06.03 18:28:57.
