data_PCOD9503399
_publ_section_title
;
Structure prediction by ZEFSAII (Michael W. Deem and Ramdas Pophale) SiO2 
 PCOD9503399
Probable space group: C M M A
;
_chemical_formula_sum "Si O2"
_cell_formula_units_Z 72
_cell_length_a 15.652852
_cell_length_b 27.926267
_cell_length_c 8.238590
_cell_angle_alpha 90.000000
_cell_angle_beta 90.000000
_cell_angle_gamma 90.000000
_cell_volume 3601.299621
_symmetry_space_group_name_H-M "C M M A"
_symmetry_group_IT_number 67
_symmetry_cell_setting 'orthorhombic'
loop_
_space_group_symop_operation_xyz
x,y,z
-x,1/2-y,z
x,-y,-z
-x,1/2+y,-z
-x,-y,-z
x,1/2+y,-z
-x,y,z
x,1/2-y,z
1/2+x,1/2+y,z
1/2-x,-y,z
1/2+x,1/2-y,-z
1/2-x,y,-z
1/2-x,1/2-y,-z
1/2+x,y,-z
1/2-x,1/2+y,z
1/2+x,-y,z
loop_
_atom_site_type_symbol
_atom_site_label
_atom_site_fract_x
_atom_site_fract_y
_atom_site_fract_z
Si Si1 0.362200 0.330165 0.195975
Si Si2 0.150487 0.930489 0.021137
Si Si3 0.500000 0.629532 0.569729
Si Si4 0.000000 0.029862 0.763031
Si Si5 0.410202 0.250000 0.939975
Si Si6 0.738949 0.250000 0.690559
Si Si7 0.500000 0.921685 0.240129
O O1 0.340508 0.380467 0.116064
O O2 0.420768 0.342039 0.351505
O O3 0.283834 0.298576 0.251262
O O4 0.403219 0.295946 0.058599
O O5 0.087152 0.963773 0.130322
O O6 0.250000 0.946728 0.000000
O O7 0.087328 0.919380 0.867761
O O8 0.500000 0.576128 0.648204
O O9 0.500000 0.618621 0.379059
O O10 0.000000 0.976479 0.692946
O O11 0.500000 0.250000 0.857320
O O12 0.345770 0.250000 0.793582
O O13 0.750000 0.250000 0.500000
#
# Coordination Sequence:
#
# PCOD9503399 Si02
#       7
#    16  16   8   8   8   8   8
#     4  10  21  41  61  87 126 163 208 253 301 373
#     4  10  20  37  63  89 121 165 215 256 305 385
#     4  10  21  39  63  91 126 161 202 270 314 362
#     4   9  21  39  58  88 129 162 204 258 318 386
#     4  11  21  39  67  88 123 169 208 238 304 370
#     4  11  25  42  61  95 130 160 200 261 308 356
#     4  11  23  37  61  95 121 159 212 265 326 366
#
# _framework density 19.992782999999999
#
# number of rings (size 3 to 8) (size 9 to 14) (size 15 to 20)
#    0.000    1.778    1.111    5.000    0.000    5.333 
#    2.000    3.333    0.000    5.333    0.000    0.000 
#    0.000    0.000    0.000    0.000    0.000    0.000 
#
# Total GULP energy -200559.003717 kJ/mol
# GULP energy per Si atom -5571.083437 kJ/mol
# Density = 1.994728 g / cm^3
# Si number density = 19.992783 Si / 1000 Ang^3
#
#
#
# Elastic Constant Matrix: (Units=GPa)
#
#
# Indices 1 2 3 4 5 6 
#
# 1 184.0536 39.8390 72.8692 0.0000 0.0000 0.0000
# 2 39.8390 106.3048 24.4275 0.0000 0.0000 0.0000
# 3 72.8692 24.4275 103.8099 0.0000 0.0000 0.0000
# 4 0.0000 0.0000 0.0000 36.9390 0.0000 0.0000
# 5 0.0000 0.0000 0.0000 0.0000 19.8611 0.0000
# 6 0.0000 0.0000 0.0000 0.0000 0.0000 33.7710
#
#
#
# Elastic Compliance Matrix: (Units=1/GPa)
#
#
# Indices 1 2 3 4 5 6 
#
# 1 0.007826 -0.001766 -0.005078 0.000000 0.000000 0.000000
# 2 -0.001766 0.010343 -0.001194 0.000000 0.000000 0.000000
# 3 -0.005078 -0.001194 0.013478 0.000000 0.000000 0.000000
# 4 0.000000 0.000000 0.000000 0.027072 0.000000 0.000000
# 5 0.000000 0.000000 0.000000 0.000000 0.050350 0.000000
# 6 0.000000 0.000000 0.000000 0.000000 0.000000 0.029611
#
#
# Mechanical properties :
#
#
# Convention : Reuss Voigt Hill
#
# Bulk Modulus (GPa) = 64.22048 74.27107 69.24578
# Shear Modulus (GPa) = 31.26050 35.24972 33.25511
#
# Velocity S-wave (km/s) = 3.95851 4.20351 4.08285
# Velocity P-wave (km/s) = 7.28592 7.79672 7.54565
#
# Compressibility (1/GPa) = 0.01557136
#
# Stress axis : x y z
#
# Youngs Moduli (GPa) = 127.78234 96.68230 74.19318
#
# Poissons Ratio (x) = 0.17074 0.37673
# Poissons Ratio (y) = 0.22566 0.08860
# Poissons Ratio (z) = 0.64885 0.11546
#
# Static dielectric constant tensor:
#      x y z
#    x 1.722770 0.000000 0.000000 
#    y 0.000000 1.693540 0.000000 
#    z 0.000000 0.000000 2.073600 
# 
# From -- ./inp_files/8381.got.cif
#   From: 2010.05.17/outbox.cif.g08.bks.cpg/sg67_5_cif.got.tgz:8381.got - 2010.06.03 18:28:57.
