data_PCOD9503035
_publ_section_title
;
Structure prediction by ZEFSAII (Michael W. Deem and Ramdas Pophale) SiO2 
 PCOD9503035
Probable space group: C M M A
;
_chemical_formula_sum "Si O2"
_cell_formula_units_Z 80
_cell_length_a 24.306888
_cell_length_b 8.702447
_cell_length_c 20.920364
_cell_angle_alpha 90.000000
_cell_angle_beta 90.000000
_cell_angle_gamma 90.000000
_cell_volume 4425.272140
_symmetry_space_group_name_H-M "C M M A"
_symmetry_group_IT_number 67
_symmetry_cell_setting 'orthorhombic'
loop_
_space_group_symop_operation_xyz
x,y,z
-x,1/2-y,z
x,-y,-z
-x,1/2+y,-z
-x,-y,-z
x,1/2+y,-z
-x,y,z
x,1/2-y,z
1/2+x,1/2+y,z
1/2-x,-y,z
1/2+x,1/2-y,-z
1/2-x,y,-z
1/2-x,1/2-y,-z
1/2+x,y,-z
1/2-x,1/2+y,z
1/2+x,-y,z
loop_
_atom_site_type_symbol
_atom_site_label
_atom_site_fract_x
_atom_site_fract_y
_atom_site_fract_z
Si Si1 0.688831 0.564800 0.689036
Si Si2 0.615472 0.435414 0.189600
Si Si3 0.385470 0.434580 0.431358
Si Si4 0.500000 0.066447 0.769659
Si Si5 0.500000 0.065266 0.619554
Si Si6 0.810451 0.934751 0.069676
O O1 0.691568 0.750000 0.690393
O O2 0.750000 0.500000 0.691441
O O3 0.652952 0.515040 0.750235
O O4 0.656733 0.519259 0.624622
O O5 0.611703 0.250000 0.191416
O O6 0.555039 0.503159 0.197941
O O7 0.646235 0.478863 0.124268
O O8 0.368897 0.500000 0.500000
O O9 0.387977 0.250000 0.433662
O O10 0.445407 0.499068 0.413005
O O11 0.500000 0.250000 0.772101
O O12 0.500000 0.020595 0.694574
O O13 0.500000 0.250000 0.614805
O O14 0.807148 0.750000 0.066623
O O15 0.750000 0.000000 0.085878
O O16 0.825186 0.000000 0.000000
#
# Coordination Sequence:
#
# PCOD9503035 Si02
#       6
#    16  16  16   8   8  16
#     4  10  22  38  58  82 110 147 188 231 282 335
#     4  10  21  39  60  84 115 152 191 231 281 339
#     4  11  23  39  59  82 112 149 187 233 285 339
#     4  11  23  36  59  90 115 145 185 238 287 332
#     4  11  22  38  59  86 113 143 186 234 286 338
#     4  10  20  35  59  88 120 156 192 233 279 330
#
# _framework density 18.077985000000002
#
# number of rings (size 3 to 8) (size 9 to 14) (size 15 to 20)
#    0.000    1.600    2.000    3.300    0.000    5.200 
#    0.000    2.500    0.000    0.000    0.000    0.000 
#    0.000    0.000    0.000    0.000    0.000    0.000 
#
# Total GULP energy -223550.140547 kJ/mol
# GULP energy per Si atom -5588.753514 kJ/mol
# Density = 1.803684 g / cm^3
# Si number density = 18.077985 Si / 1000 Ang^3
#
#
#
# Elastic Constant Matrix: (Units=GPa)
#
#
# Indices 1 2 3 4 5 6 
#
# 1 166.1047 36.3592 99.6540 0.0000 0.0000 0.0000
# 2 36.3592 36.6950 43.3580 0.0000 0.0000 0.0000
# 3 99.6540 43.3580 154.5926 0.0000 0.0000 0.0000
# 4 0.0000 0.0000 0.0000 28.8367 0.0000 0.0000
# 5 0.0000 0.0000 0.0000 0.0000 3.4473 0.0000
# 6 0.0000 0.0000 0.0000 0.0000 0.0000 34.8896
#
#
#
# Elastic Compliance Matrix: (Units=1/GPa)
#
#
# Indices 1 2 3 4 5 6 
#
# 1 0.010103 -0.003463 -0.005541 0.000000 0.000000 0.000000
# 2 -0.003463 0.041946 -0.009532 0.000000 0.000000 0.000000
# 3 -0.005541 -0.009532 0.012714 0.000000 0.000000 0.000000
# 4 0.000000 0.000000 0.000000 0.034678 0.000000 0.000000
# 5 0.000000 0.000000 0.000000 0.000000 0.290083 0.000000
# 6 0.000000 0.000000 0.000000 0.000000 0.000000 0.028662
#
#
# Mechanical properties :
#
#
# Convention : Reuss Voigt Hill
#
# Bulk Modulus (GPa) = 36.11400 79.57054 57.84227
# Shear Modulus (GPa) = 10.76453 25.30278 18.03365
#
# Velocity S-wave (km/s) = 2.44283 3.74524 3.16182
# Velocity P-wave (km/s) = 5.28930 7.92548 6.73758
#
# Compressibility (1/GPa) = 0.02769009
#
# Stress axis : x y z
#
# Youngs Moduli (GPa) = 98.98288 23.84031 78.65297
#
# Poissons Ratio (x) = 0.08256 0.43584
# Poissons Ratio (y) = 0.34276 0.74973
# Poissons Ratio (z) = 0.54849 0.22725
#
# Static dielectric constant tensor:
#      x y z
#    x 1.574140 0.000000 0.000000 
#    y 0.000000 1.611340 0.000000 
#    z 0.000000 0.000000 1.617340 
# 
# From -- ./inp_files/39510.got.cif
#   From: 2010.05.17/outbox.cif.g08.bks.cpg/sg67_20_cif.got.tgz:39510.got - 2010.06.03 18:28:57.
