data_PCOD9503277
_publ_section_title
;
Structure prediction by ZEFSAII (Michael W. Deem and Ramdas Pophale) SiO2 
 PCOD9503277
Probable space group: C M M A
;
_chemical_formula_sum "Si O2"
_cell_formula_units_Z 68
_cell_length_a 19.418288
_cell_length_b 15.614574
_cell_length_c 11.256820
_cell_angle_alpha 90.000000
_cell_angle_beta 90.000000
_cell_angle_gamma 90.000000
_cell_volume 3413.161199
_symmetry_space_group_name_H-M "C M M A"
_symmetry_group_IT_number 67
_symmetry_cell_setting 'orthorhombic'
loop_
_space_group_symop_operation_xyz
x,y,z
-x,1/2-y,z
x,-y,-z
-x,1/2+y,-z
-x,-y,-z
x,1/2+y,-z
-x,y,z
x,1/2-y,z
1/2+x,1/2+y,z
1/2-x,-y,z
1/2+x,1/2-y,-z
1/2-x,y,-z
1/2-x,1/2-y,-z
1/2+x,y,-z
1/2-x,1/2+y,z
1/2+x,-y,z
loop_
_atom_site_type_symbol
_atom_site_label
_atom_site_fract_x
_atom_site_fract_y
_atom_site_fract_z
Si Si1 0.750000 0.500000 0.000000
Si Si2 0.579218 0.847487 0.261226
Si Si3 0.171927 0.500000 0.641828
Si Si4 0.607295 0.904225 1.000000
Si Si5 0.579218 0.347487 0.261227
O O1 0.688563 0.573794 1.000000
O O2 0.500000 0.866534 0.294932
O O3 0.595028 0.750000 0.296939
O O4 0.630799 0.916859 0.315063
O O5 0.585941 0.856649 0.119245
O O6 0.175275 0.500000 0.500000
O O7 0.250000 0.500000 0.692286
O O8 0.130800 0.416858 0.684937
O O9 0.585941 0.856649 0.880754
O O10 0.575541 0.000000 0.000000
O O11 0.500000 0.366538 0.294932
O O12 0.595025 0.250000 0.296940
#
# Coordination Sequence:
#
# PCOD9503277 Si02
#       5
#     4  16  16  16  16
#     4   8  20  32  52  88 126 166 210 236 290 362
#     4  11  24  41  66  97 127 164 207 254 310 372
#     4  11  26  46  65  89 124 166 211 262 316 366
#     4  10  20  36  62  93 133 165 199 247 308 372
#     4  11  24  41  66  97 127 164 207 254 310 372
#
# _framework density 19.922878999999998
#
# number of rings (size 3 to 8) (size 9 to 14) (size 15 to 20)
#    0.706    0.706    2.353    2.118    6.588    6.588 
#    0.000    5.882    0.000    0.000    0.000    0.000 
#    0.000    0.000    0.000    0.000    0.000    0.000 
#
# Total GULP energy -189436.317948 kJ/mol
# GULP energy per Si atom -5571.656410 kJ/mol
# Density = 1.987753 g / cm^3
# Si number density = 19.922879 Si / 1000 Ang^3
#
#
#
# Elastic Constant Matrix: (Units=GPa)
#
#
# Indices 1 2 3 4 5 6 
#
# 1 190.5299 107.1687 24.3346 0.0000 0.0000 0.0000
# 2 107.1687 158.6916 28.0957 0.0000 0.0000 0.0000
# 3 24.3346 28.0957 52.1365 0.0000 0.0000 0.0000
# 4 0.0000 0.0000 0.0000 -81.3147 0.0000 0.0000
# 5 0.0000 0.0000 0.0000 0.0000 28.3142 0.0000
# 6 0.0000 0.0000 0.0000 0.0000 0.0000 80.4926
#
#
#
# Elastic Compliance Matrix: (Units=1/GPa)
#
#
# Indices 1 2 3 4 5 6 
#
# 1 0.008507 -0.005574 -0.000967 0.000000 0.000000 0.000000
# 2 -0.005574 0.010618 -0.003120 0.000000 0.000000 0.000000
# 3 -0.000967 -0.003120 0.021313 0.000000 0.000000 0.000000
# 4 0.000000 0.000000 0.000000 -0.012298 0.000000 0.000000
# 5 0.000000 0.000000 0.000000 0.000000 0.035318 0.000000
# 6 0.000000 0.000000 0.000000 0.000000 0.000000 0.012424
#
#
# Mechanical properties :
#
#
# Convention : Reuss Voigt Hill
#
# Bulk Modulus (GPa) = 47.35733 80.06178 63.70956
# Shear Modulus (GPa) = 48.90272 21.61568 35.25920
#
# Velocity S-wave (km/s) = 4.95977 3.29746 4.21144
# Velocity P-wave (km/s) = 7.52469 7.40073 7.46297
#
# Compressibility (1/GPa) = 0.02111606
#
# Stress axis : x y z
#
# Youngs Moduli (GPa) = 117.54661 94.17752 46.91908
#
# Poissons Ratio (x) = 0.52494 0.04537
# Poissons Ratio (y) = 0.65520 0.14641
# Poissons Ratio (z) = 0.11367 0.29387
#
# Static dielectric constant tensor:
#      x y z
#    x 1.701410 0.000000 0.000000 
#    y 0.000000 1.692280 0.000000 
#    z 0.000000 0.000000 1.730440 
# 
# From -- ./inp_files/20436.got.cif
#   From: 2010.05.17/outbox.cif.g08.bks.cpg/sg67_11_cif.got.tgz:20436.got - 2010.06.03 18:28:57.
