data_PCOD9503897
_publ_section_title
;
Structure prediction by ZEFSAII (Michael W. Deem and Ramdas Pophale) SiO2 
 PCOD9503897
Probable space group: C M M A
;
_chemical_formula_sum "Si O2"
_cell_formula_units_Z 96
_cell_length_a 15.200255
_cell_length_b 17.224106
_cell_length_c 19.225158
_cell_angle_alpha 90.000000
_cell_angle_beta 90.000000
_cell_angle_gamma 90.000000
_cell_volume 5033.354060
_symmetry_space_group_name_H-M "C M M A"
_symmetry_group_IT_number 67
_symmetry_cell_setting 'orthorhombic'
loop_
_space_group_symop_operation_xyz
x,y,z
-x,1/2-y,z
x,-y,-z
-x,1/2+y,-z
-x,-y,-z
x,1/2+y,-z
-x,y,z
x,1/2-y,z
1/2+x,1/2+y,z
1/2-x,-y,z
1/2+x,1/2-y,-z
1/2-x,y,-z
1/2-x,1/2-y,-z
1/2+x,y,-z
1/2-x,1/2+y,z
1/2+x,-y,z
loop_
_atom_site_type_symbol
_atom_site_label
_atom_site_fract_x
_atom_site_fract_y
_atom_site_fract_z
Si Si1 0.757341 0.593838 0.754903
Si Si2 0.758516 0.657533 0.602018
Si Si3 0.597562 0.927000 0.133991
Si Si4 0.895597 0.906871 0.490784
Si Si5 0.901976 0.888239 0.151977
Si Si6 0.644759 0.163887 0.999629
O O1 0.750000 0.500000 0.745995
O O2 0.774319 0.631622 0.680875
O O3 0.831545 0.607097 0.813204
O O4 0.669137 0.627835 0.789278
O O5 0.749499 0.750000 0.595692
O O6 0.841593 0.630153 0.555345
O O7 0.667978 0.618304 0.573259
O O8 0.500000 0.906916 0.158035
O O9 0.609975 0.897466 0.055730
O O10 0.606812 0.019878 0.135740
O O11 0.000000 0.884875 0.485749
O O12 0.892753 0.000000 0.500000
O O13 0.000000 0.871763 0.176644
O O14 0.886251 0.847707 0.078273
O O15 0.619345 0.250000 0.975553
O O16 0.750000 0.157799 0.000000
#
# Coordination Sequence:
#
# PCOD9503897 Si02
#       6
#    16  16  16  16  16  16
#     4  10  21  38  57  80 115 152 191 236 279 332
#     4  11  23  38  60  91 127 158 188 233 289 346
#     4  10  21  37  58  81 105 142 192 239 284 335
#     4  10  21  40  67  93 118 154 199 239 276 329
#     4  10  21  37  58  81 105 142 192 239 284 335
#     4  11  22  35  54  79 109 144 185 234 291 349
#
# _framework density 19.072769000000001
#
# number of rings (size 3 to 8) (size 9 to 14) (size 15 to 20)
#    0.000    1.667    1.667    4.000    0.000    7.333 
#    0.000    3.333    0.000    0.000    0.000    0.000 
#    0.000    0.000    0.000    0.000    0.000    0.000 
#
# Total GULP energy -267999.687829 kJ/mol
# GULP energy per Si atom -5583.326830 kJ/mol
# Density = 1.902936 g / cm^3
# Si number density = 19.072769 Si / 1000 Ang^3
#
#
#
# Elastic Constant Matrix: (Units=GPa)
#
#
# Indices 1 2 3 4 5 6 
#
# 1 96.0065 27.4818 2.9438 0.0000 0.0000 0.0000
# 2 27.4818 38.4451 6.4617 0.0000 0.0000 0.0000
# 3 2.9438 6.4617 65.7371 0.0000 0.0000 0.0000
# 4 0.0000 0.0000 0.0000 -27.6760 0.0000 0.0000
# 5 0.0000 0.0000 0.0000 0.0000 -405.7226 0.0000
# 6 0.0000 0.0000 0.0000 0.0000 0.0000 -34.1764
#
#
#
# Elastic Compliance Matrix: (Units=1/GPa)
#
#
# Indices 1 2 3 4 5 6 
#
# 1 0.013103 -0.009424 0.000340 0.000000 0.000000 0.000000
# 2 -0.009424 0.033225 -0.002844 0.000000 0.000000 0.000000
# 3 0.000340 -0.002844 0.015476 0.000000 0.000000 0.000000
# 4 0.000000 0.000000 0.000000 -0.036132 0.000000 0.000000
# 5 0.000000 0.000000 0.000000 0.000000 -0.002465 0.000000
# 6 0.000000 0.000000 0.000000 0.000000 0.000000 -0.029260
#
#
# Mechanical properties :
#
#
# Convention : Reuss Voigt Hill
#
# Bulk Modulus (GPa) = 26.35118 30.44037 28.39578
# Shear Modulus (GPa) = 164.18532 -82.62825 40.77853
#
# Velocity S-wave (km/s) = 9.28819 -6.58913 4.62892
# Velocity P-wave (km/s) = 11.35224 6.47257 6.59467
#
# Compressibility (1/GPa) = 0.03794897
#
# Stress axis : x y z
#
# Youngs Moduli (GPa) = 76.31813 30.09747 64.61425
#
# Poissons Ratio (x) = 0.28363 -0.02194
# Poissons Ratio (y) = 0.71919 0.18376
# Poissons Ratio (z) = -0.02591 0.08560
#
# Static dielectric constant tensor:
#      x y z
#    x 1.676860 0.000000 0.000000 
#    y 0.000000 1.674460 0.000000 
#    z 0.000000 0.000000 1.621430 
# 
# From -- ./inp_files/38391.got.cif
#   From: 2010.05.17/outbox.cif.g08.bks.cpg/sg67_20_cif.got.tgz:38391.got - 2010.06.03 18:28:57.
