data_PCOD9503610
_publ_section_title
;
Structure prediction by ZEFSAII (Michael W. Deem and Ramdas Pophale) SiO2 
 PCOD9503610
Probable space group: C M M A
;
_chemical_formula_sum "Si O2"
_cell_formula_units_Z 112
_cell_length_a 15.519759
_cell_length_b 15.864881
_cell_length_c 23.799668
_cell_angle_alpha 90.000000
_cell_angle_beta 90.000000
_cell_angle_gamma 90.000000
_cell_volume 5859.933542
_symmetry_space_group_name_H-M "C M M A"
_symmetry_group_IT_number 67
_symmetry_cell_setting 'orthorhombic'
loop_
_space_group_symop_operation_xyz
x,y,z
-x,1/2-y,z
x,-y,-z
-x,1/2+y,-z
-x,-y,-z
x,1/2+y,-z
-x,y,z
x,1/2-y,z
1/2+x,1/2+y,z
1/2-x,-y,z
1/2+x,1/2-y,-z
1/2-x,y,-z
1/2-x,1/2-y,-z
1/2+x,y,-z
1/2-x,1/2+y,z
1/2+x,-y,z
loop_
_atom_site_type_symbol
_atom_site_label
_atom_site_fract_x
_atom_site_fract_y
_atom_site_fract_z
Si Si1 0.739721 0.098650 0.856623
Si Si2 0.601751 0.346910 0.641447
Si Si3 0.895892 0.004734 0.563494
Si Si4 0.841930 0.847055 0.966797
Si Si5 0.102515 0.151938 0.649917
Si Si6 0.245160 0.602290 0.729828
Si Si7 0.090320 0.648839 0.078932
O O1 0.669456 0.114265 0.905431
O O2 0.729526 0.132224 0.793776
O O3 0.828570 0.130496 0.883085
O O4 0.750000 0.000000 0.850557
O O5 0.500000 0.357376 0.656013
O O6 0.613232 0.250000 0.622519
O O7 0.623401 0.417568 0.595280
O O8 0.665722 0.365556 0.692557
O O9 0.870025 0.085083 0.601586
O O10 0.000000 0.011125 0.560178
O O11 0.862203 0.000000 0.500000
O O12 0.865980 0.750000 0.957173
O O13 0.750000 0.847807 0.000000
O O14 0.900473 0.886147 0.015453
O O15 0.111618 0.250000 0.632571
O O16 0.165671 0.135485 0.702547
O O17 0.000000 0.137984 0.662292
O O18 0.250000 0.500000 0.727601
O O19 0.089286 0.750000 0.072555
O O20 0.000000 0.620463 0.104186
#
# Coordination Sequence:
#
# PCOD9503610 Si02
#       7
#    16  16  16  16  16  16  16
#     4  10  21  34  51  79 108 142 185 225 273 331
#     4  10  21  38  60  84 112 152 199 240 282 339
#     4   9  18  35  60  88 119 153 187 233 291 344
#     4   8  15  30  50  70  98 136 172 211 261 318
#     4  10  21  37  59  87 117 150 190 238 293 349
#     4  11  22  38  58  78 112 157 193 235 291 344
#     4   9  18  34  56  80 107 140 178 225 280 332
#
# _framework density 19.112845
#
# number of rings (size 3 to 8) (size 9 to 14) (size 15 to 20)
#    0.000    2.429    1.429    1.714    0.000    6.000 
#    0.000   10.000    0.000    3.429    0.000    0.000 
#    0.000    0.000    0.000    0.000    0.000    0.000 
#
# Total GULP energy -311925.931383 kJ/mol
# GULP energy per Si atom -5570.105918 kJ/mol
# Density = 1.906934 g / cm^3
# Si number density = 19.112845 Si / 1000 Ang^3
#
#
#
# Elastic Constant Matrix: (Units=GPa)
#
#
# Indices 1 2 3 4 5 6 
#
# 1 59.9709 21.7199 35.0774 0.0000 0.0000 0.0000
# 2 21.7199 93.0288 46.5884 0.0000 0.0000 0.0000
# 3 35.0774 46.5884 150.1483 0.0000 0.0000 0.0000
# 4 0.0000 0.0000 0.0000 -3.9794 0.0000 0.0000
# 5 0.0000 0.0000 0.0000 0.0000 15.4085 0.0000
# 6 0.0000 0.0000 0.0000 0.0000 0.0000 12.1925
#
#
#
# Elastic Compliance Matrix: (Units=1/GPa)
#
#
# Indices 1 2 3 4 5 6 
#
# 1 0.019888 -0.002743 -0.003795 0.000000 0.000000 0.000000
# 2 -0.002743 0.013105 -0.003426 0.000000 0.000000 0.000000
# 3 -0.003795 -0.003426 0.008610 0.000000 0.000000 0.000000
# 4 0.000000 0.000000 0.000000 -0.251294 0.000000 0.000000
# 5 0.000000 0.000000 0.000000 0.000000 0.064899 0.000000
# 6 0.000000 0.000000 0.000000 0.000000 0.000000 0.082018
#
#
# Mechanical properties :
#
#
# Convention : Reuss Voigt Hill
#
# Bulk Modulus (GPa) = 46.13435 56.65769 51.39602
# Shear Modulus (GPa) = -140.36352 18.04180 -61.16086
#
# Velocity S-wave (km/s) = -8.57897 3.07573 -5.66298
# Velocity P-wave (km/s) = 8.59892 6.50551 3.97617
#
# Compressibility (1/GPa) = 0.02167582
#
# Stress axis : x y z
#
# Youngs Moduli (GPa) = 50.28177 76.30542 116.14944
#
# Poissons Ratio (x) = 0.20929 0.44081
# Poissons Ratio (y) = 0.13791 0.39788
# Poissons Ratio (z) = 0.19083 0.26139
#
# Static dielectric constant tensor:
#      x y z
#    x 1.685010 0.000000 0.000000 
#    y 0.000000 1.652310 0.000000 
#    z 0.000000 0.000000 1.677690 
# 
# From -- ./inp_files/41987.got.cif
#   From: 2010.05.17/outbox.cif.g08.bks.cpg/sg67_21_cif.got.tgz:41987.got - 2010.06.03 18:28:57.
