data_PCOD9503859
_publ_section_title
;
Structure prediction by ZEFSAII (Michael W. Deem and Ramdas Pophale) SiO2 
 PCOD9503859
Probable space group: C M M A
;
_chemical_formula_sum "Si O2"
_cell_formula_units_Z 96
_cell_length_a 15.472854
_cell_length_b 14.755405
_cell_length_c 21.797719
_cell_angle_alpha 90.000000
_cell_angle_beta 90.000000
_cell_angle_gamma 90.000000
_cell_volume 4976.598584
_symmetry_space_group_name_H-M "C M M A"
_symmetry_group_IT_number 67
_symmetry_cell_setting 'orthorhombic'
loop_
_space_group_symop_operation_xyz
x,y,z
-x,1/2-y,z
x,-y,-z
-x,1/2+y,-z
-x,-y,-z
x,1/2+y,-z
-x,y,z
x,1/2-y,z
1/2+x,1/2+y,z
1/2-x,-y,z
1/2+x,1/2-y,-z
1/2-x,y,-z
1/2-x,1/2-y,-z
1/2+x,y,-z
1/2-x,1/2+y,z
1/2+x,-y,z
loop_
_atom_site_type_symbol
_atom_site_label
_atom_site_fract_x
_atom_site_fract_y
_atom_site_fract_z
Si Si1 0.105554 0.353411 0.500030
Si Si2 0.848407 0.357332 0.839066
Si Si3 0.151538 0.642667 0.839110
Si Si4 0.000000 0.360178 0.930088
Si Si5 0.394533 0.000046 0.598713
Si Si6 0.500000 0.860178 0.069831
Si Si7 0.604052 0.499994 0.738869
O O1 0.135580 0.250000 0.500047
O O2 0.131935 0.411883 0.440576
O O3 0.131931 0.411938 0.559459
O O4 0.000000 0.351929 0.500030
O O5 0.860779 0.250000 0.828173
O O6 0.749982 0.371985 0.859256
O O7 0.916257 0.386902 0.890835
O O8 0.865092 0.413399 0.777478
O O9 0.139157 0.750000 0.828225
O O10 0.134802 0.586611 0.777525
O O11 0.083738 0.613098 0.890912
O O12 0.000000 0.250000 0.932294
O O13 0.000000 0.392351 0.999959
O O14 0.500000 0.000051 0.599427
O O15 0.365195 0.000066 0.668764
O O16 0.500000 0.750000 0.067622
O O17 0.500000 0.500061 0.738781
#
# Coordination Sequence:
#
# PCOD9503859 Si02
#       7
#    16  16  16   8  16   8  16
#     4   8  13  25  42  65 103 140 174 222 272 321
#     4  10  21  37  56  80 112 148 187 231 279 333
#     4  10  21  37  56  80 112 148 187 231 279 333
#     4   9  18  35  59  85 112 143 183 231 282 335
#     4   8  16  26  41  70 102 139 182 220 269 326
#     4   9  18  35  59  85 112 143 183 231 282 335
#     4  11  20  33  54  78 111 150 188 232 278 330
#
# _framework density 19.290284
#
# number of rings (size 3 to 8) (size 9 to 14) (size 15 to 20)
#    0.000    2.667    1.667    1.500    0.000    2.000 
#    0.000    8.333    0.000    2.000    0.000    9.333 
#    0.000   16.000    0.000    0.000    0.000    0.000 
#
# Total GULP energy -267899.676808 kJ/mol
# GULP energy per Si atom -5581.243267 kJ/mol
# Density = 1.924638 g / cm^3
# Si number density = 19.290284 Si / 1000 Ang^3
#
#
#
# Elastic Constant Matrix: (Units=GPa)
#
#
# Indices 1 2 3 4 5 6 
#
# 1 97.5432 41.9516 65.9425 0.0000 0.0000 0.0000
# 2 41.9516 126.0472 82.4520 0.0000 0.0000 0.0000
# 3 65.9425 82.4520 215.8295 0.0000 0.0000 0.0000
# 4 0.0000 0.0000 0.0000 17.3675 0.0000 0.0000
# 5 0.0000 0.0000 0.0000 0.0000 -7.3957 0.0000
# 6 0.0000 0.0000 0.0000 0.0000 0.0000 11.8366
#
#
#
# Elastic Compliance Matrix: (Units=1/GPa)
#
#
# Indices 1 2 3 4 5 6 
#
# 1 0.013436 -0.002382 -0.003195 0.000000 0.000000 0.000000
# 2 -0.002382 0.010999 -0.003474 0.000000 0.000000 0.000000
# 3 -0.003195 -0.003474 0.006937 0.000000 0.000000 0.000000
# 4 0.000000 0.000000 0.000000 0.057579 0.000000 0.000000
# 5 0.000000 0.000000 0.000000 0.000000 -0.135214 0.000000
# 6 0.000000 0.000000 0.000000 0.000000 0.000000 0.084484
#
#
# Mechanical properties :
#
#
# Convention : Reuss Voigt Hill
#
# Bulk Modulus (GPa) = 75.36073 91.12357 83.24215
# Shear Modulus (GPa) = 82.30907 20.96659 51.63783
#
# Velocity S-wave (km/s) = 6.53921 3.30039 5.17947
# Velocity P-wave (km/s) = 9.80645 7.86537 8.88906
#
# Compressibility (1/GPa) = 0.01326951
#
# Stress axis : x y z
#
# Youngs Moduli (GPa) = 74.42482 90.91924 144.15996
#
# Poissons Ratio (x) = 0.21655 0.46064
# Poissons Ratio (y) = 0.17726 0.50082
# Poissons Ratio (z) = 0.23781 0.31586
#
# Static dielectric constant tensor:
#      x y z
#    x 1.695070 0.000000 0.000000 
#    y 0.000000 1.683780 0.000000 
#    z 0.000000 0.000000 1.630600 
# 
# From -- ./inp_files/38545.got.cif
#   From: 2010.05.17/outbox.cif.g08.bks.cpg/sg67_20_cif.got.tgz:38545.got - 2010.06.03 18:28:57.
