data_PCOD9503221
_publ_section_title
;
Structure prediction by ZEFSAII (Michael W. Deem and Ramdas Pophale) SiO2 
 PCOD9503221
Probable space group: C M M A
;
_chemical_formula_sum "Si O2"
_cell_formula_units_Z 104
_cell_length_a 31.183597
_cell_length_b 8.247439
_cell_length_c 20.821459
_cell_angle_alpha 90.000000
_cell_angle_beta 90.000000
_cell_angle_gamma 90.000000
_cell_volume 5354.963061
_symmetry_space_group_name_H-M "C M M A"
_symmetry_group_IT_number 67
_symmetry_cell_setting 'orthorhombic'
loop_
_space_group_symop_operation_xyz
x,y,z
-x,1/2-y,z
x,-y,-z
-x,1/2+y,-z
-x,-y,-z
x,1/2+y,-z
-x,y,z
x,1/2-y,z
1/2+x,1/2+y,z
1/2-x,-y,z
1/2+x,1/2-y,-z
1/2-x,y,-z
1/2-x,1/2-y,-z
1/2+x,y,-z
1/2-x,1/2+y,z
1/2+x,-y,z
loop_
_atom_site_type_symbol
_atom_site_label
_atom_site_fract_x
_atom_site_fract_y
_atom_site_fract_z
Si Si1 0.671552 0.942546 0.573459
Si Si2 0.500000 0.943614 0.428953
Si Si3 0.450352 0.555420 0.778002
Si Si4 0.703952 0.445833 0.291865
Si Si5 0.202233 0.442657 0.072916
Si Si6 0.861704 0.054910 0.817765
Si Si7 0.084667 0.054097 0.359062
O O1 0.676396 0.750000 0.571051
O O2 0.699779 0.005249 0.634034
O O3 0.678439 0.000000 0.500000
O O4 0.624717 0.986658 0.601319
O O5 0.500000 0.750000 0.423653
O O6 0.457133 0.002008 0.396808
O O7 0.500000 0.000000 0.500000
O O8 0.500000 0.492512 0.781965
O O9 0.453887 0.750000 0.782964
O O10 0.411390 0.498917 0.824514
O O11 0.427043 0.511510 0.711094
O O12 0.702223 0.250000 0.292730
O O13 0.750000 0.500000 0.265925
O O14 0.665050 0.503554 0.245739
O O15 0.201540 0.250000 0.074545
O O16 0.250000 0.500000 0.091601
O O17 0.167055 0.509495 0.121641
O O18 0.194700 0.500000 0.000000
O O19 0.863161 0.250000 0.812156
O O20 0.088093 0.250000 0.356685
#
# Coordination Sequence:
#
# PCOD9503221 Si02
#       7
#    16   8  16  16  16  16  16
#     4  11  23  40  56  76 103 141 187 239 296 354
#     4  10  22  34  46  70 100 132 173 226 287 348
#     4  10  20  36  60  86 115 154 194 237 290 343
#     4  10  22  38  57  80 111 146 188 239 289 347
#     4  11  22  38  62  95 130 167 200 237 284 337
#     4  10  20  38  60  88 123 157 195 241 287 343
#     4  11  21  35  53  76 105 140 183 235 291 350
#
# _framework density 19.421233999999998
#
# number of rings (size 3 to 8) (size 9 to 14) (size 15 to 20)
#    0.000    1.538    2.308    3.692    0.000    6.462 
#    0.000    1.538    0.000    0.462    0.000    0.000 
#    0.000    0.000    0.000    0.000    0.000    0.000 
#
# Total GULP energy -289862.705547 kJ/mol
# GULP energy per Si atom -5574.282799 kJ/mol
# Density = 1.937703 g / cm^3
# Si number density = 19.421234 Si / 1000 Ang^3
#
#
#
# Elastic Constant Matrix: (Units=GPa)
#
#
# Indices 1 2 3 4 5 6 
#
# 1 145.1794 7.6505 60.0492 0.0000 0.0000 0.0000
# 2 7.6505 10.6000 4.2239 0.0000 0.0000 0.0000
# 3 60.0492 4.2239 88.1222 0.0000 0.0000 0.0000
# 4 0.0000 0.0000 0.0000 19.1927 0.0000 0.0000
# 5 0.0000 0.0000 0.0000 0.0000 34.9775 0.0000
# 6 0.0000 0.0000 0.0000 0.0000 0.0000 13.6682
#
#
#
# Elastic Compliance Matrix: (Units=1/GPa)
#
#
# Indices 1 2 3 4 5 6 
#
# 1 0.009797 -0.004497 -0.006461 0.000000 0.000000 0.000000
# 2 -0.004497 0.098241 -0.001645 0.000000 0.000000 0.000000
# 3 -0.006461 -0.001645 0.015829 0.000000 0.000000 0.000000
# 4 0.000000 0.000000 0.000000 0.052103 0.000000 0.000000
# 5 0.000000 0.000000 0.000000 0.000000 0.028590 0.000000
# 6 0.000000 0.000000 0.000000 0.000000 0.000000 0.073163
#
#
# Mechanical properties :
#
#
# Convention : Reuss Voigt Hill
#
# Bulk Modulus (GPa) = 10.13549 43.08322 26.60935
# Shear Modulus (GPa) = 14.88916 25.03286 19.96101
#
# Velocity S-wave (km/s) = 2.77184 3.59408 3.20940
# Velocity P-wave (km/s) = 3.93373 6.28132 5.24066
#
# Compressibility (1/GPa) = 0.09866319
#
# Stress axis : x y z
#
# Youngs Moduli (GPa) = 102.06966 10.17906 63.17449
#
# Poissons Ratio (x) = 0.04577 0.40815
# Poissons Ratio (y) = 0.45898 0.10391
# Poissons Ratio (z) = 0.65943 0.01674
#
# Static dielectric constant tensor:
#      x y z
#    x 0.184930 0.000000 0.000000 
#    y 0.000000 1.668500 0.000000 
#    z 0.000000 0.000000 1.701630 
# 
# From -- ./inp_files/40198.got.cif
#   From: 2010.05.17/outbox.cif.g08.bks.cpg/sg67_21_cif.got.tgz:40198.got - 2010.06.03 18:28:57.
