data_PCOD9503051
_publ_section_title
;
Structure prediction by ZEFSAII (Michael W. Deem and Ramdas Pophale) SiO2 
 PCOD9503051
Probable space group: C M M A
;
_chemical_formula_sum "Si O2"
_cell_formula_units_Z 80
_cell_length_a 18.446885
_cell_length_b 18.476822
_cell_length_c 12.232024
_cell_angle_alpha 90.000000
_cell_angle_beta 90.000000
_cell_angle_gamma 90.000000
_cell_volume 4169.160743
_symmetry_space_group_name_H-M "C M M A"
_symmetry_group_IT_number 67
_symmetry_cell_setting 'orthorhombic'
loop_
_space_group_symop_operation_xyz
x,y,z
-x,1/2-y,z
x,-y,-z
-x,1/2+y,-z
-x,-y,-z
x,1/2+y,-z
-x,y,z
x,1/2-y,z
1/2+x,1/2+y,z
1/2-x,-y,z
1/2+x,1/2-y,-z
1/2-x,y,-z
1/2-x,1/2-y,-z
1/2+x,y,-z
1/2-x,1/2+y,z
1/2+x,-y,z
loop_
_atom_site_type_symbol
_atom_site_label
_atom_site_fract_x
_atom_site_fract_y
_atom_site_fract_z
Si Si1 0.500000 0.874375 0.229983
Si Si2 0.725096 0.750000 0.162434
Si Si3 0.500000 0.046457 0.245568
Si Si4 0.250000 0.378767 0.500000
Si Si5 0.345273 0.863138 0.313422
Si Si6 0.000000 0.637018 0.033617
Si Si7 0.126770 0.250000 0.944750
Si Si8 0.867223 0.974602 0.381483
O O1 0.427486 0.842484 0.283358
O O2 0.500000 0.959710 0.254383
O O3 0.500000 0.870588 0.098022
O O4 0.703414 0.676964 0.225108
O O5 0.810783 0.750000 0.144759
O O6 0.674651 0.750000 0.054943
O O7 0.500000 0.071036 0.119510
O O8 0.573085 0.067639 0.310700
O O9 0.310568 0.339244 0.571464
O O10 0.202171 0.427587 0.583270
O O11 0.345561 0.951002 0.319466
O O12 0.072569 0.682353 0.059166
O O13 0.898872 0.000000 0.500000
#
# Coordination Sequence:
#
# PCOD9503051 Si02
#       8
#     8   8   8   8  16   8   8  16
#     4  10  20  38  59  89 114 154 197 237 293 356
#     4  11  22  39  62  84 110 155 204 243 287 348
#     4  10  21  31  62  88 116 147 192 247 298 344
#     4  10  21  37  58  87 122 150 191 242 299 356
#     4  10  20  35  61  83 116 153 195 238 284 351
#     4  11  21  41  59  83 117 154 198 246 293 357
#     4  10  24  40  60  80 112 161 200 242 295 348
#     4   9  18  36  57  86 119 155 186 235 303 361
#
# _framework density 19.188514000000001
#
# number of rings (size 3 to 8) (size 9 to 14) (size 15 to 20)
#    0.000    2.000    2.000    3.300    2.800    3.200 
#    0.000    0.000    0.000    0.000    0.000    0.000 
#    0.000    0.000    0.000    0.000    0.000    0.000 
#
# Total GULP energy -222718.679210 kJ/mol
# GULP energy per Si atom -5567.966980 kJ/mol
# Density = 1.914484 g / cm^3
# Si number density = 19.188514 Si / 1000 Ang^3
#
#
#
# Elastic Constant Matrix: (Units=GPa)
#
#
# Indices 1 2 3 4 5 6 
#
# 1 170.0693 23.9234 69.6147 0.0000 0.0000 0.0000
# 2 23.9234 44.9997 17.9805 0.0000 0.0000 0.0000
# 3 69.6147 17.9805 88.8168 0.0000 0.0000 0.0000
# 4 0.0000 0.0000 0.0000 91.7436 0.0000 0.0000
# 5 0.0000 0.0000 0.0000 0.0000 40.6535 0.0000
# 6 0.0000 0.0000 0.0000 0.0000 0.0000 3.5310
#
#
#
# Elastic Compliance Matrix: (Units=1/GPa)
#
#
# Indices 1 2 3 4 5 6 
#
# 1 0.008836 -0.002100 -0.006501 0.000000 0.000000 0.000000
# 2 -0.002100 0.024677 -0.003350 0.000000 0.000000 0.000000
# 3 -0.006501 -0.003350 0.017033 0.000000 0.000000 0.000000
# 4 0.000000 0.000000 0.000000 0.010900 0.000000 0.000000
# 5 0.000000 0.000000 0.000000 0.000000 0.024598 0.000000
# 6 0.000000 0.000000 0.000000 0.000000 0.000000 0.283204
#
#
# Mechanical properties :
#
#
# Convention : Reuss Voigt Hill
#
# Bulk Modulus (GPa) = 37.53047 58.54699 48.03873
# Shear Modulus (GPa) = 12.43683 40.01011 26.22347
#
# Velocity S-wave (km/s) = 2.54862 4.57125 3.70080
# Velocity P-wave (km/s) = 5.31619 7.64457 6.58412
#
# Compressibility (1/GPa) = 0.02664502
#
# Stress axis : x y z
#
# Youngs Moduli (GPa) = 113.16880 40.52298 58.71110
#
# Poissons Ratio (x) = 0.08511 0.38167
# Poissons Ratio (y) = 0.23768 0.19666
# Poissons Ratio (z) = 0.73568 0.13574
#
# Static dielectric constant tensor:
#      x y z
#    x 1.702260 0.000000 0.000000 
#    y 0.000000 1.677660 0.000000 
#    z 0.000000 0.000000 1.707030 
# 
# From -- ./inp_files/19437.got.cif
#   From: 2010.05.17/outbox.cif.g08.bks.cpg/sg67_10_cif.got.tgz:19437.got - 2010.06.03 18:28:57.
