data_PCOD9503573
_publ_section_title
;
Structure prediction by ZEFSAII (Michael W. Deem and Ramdas Pophale) SiO2 
 PCOD9503573
Probable space group: C M M A
;
_chemical_formula_sum "Si O2"
_cell_formula_units_Z 112
_cell_length_a 30.447388
_cell_length_b 14.799004
_cell_length_c 11.359422
_cell_angle_alpha 90.000000
_cell_angle_beta 90.000000
_cell_angle_gamma 90.000000
_cell_volume 5118.453509
_symmetry_space_group_name_H-M "C M M A"
_symmetry_group_IT_number 67
_symmetry_cell_setting 'orthorhombic'
loop_
_space_group_symop_operation_xyz
x,y,z
-x,1/2-y,z
x,-y,-z
-x,1/2+y,-z
-x,-y,-z
x,1/2+y,-z
-x,y,z
x,1/2-y,z
1/2+x,1/2+y,z
1/2-x,-y,z
1/2+x,1/2-y,-z
1/2-x,y,-z
1/2-x,1/2-y,-z
1/2+x,y,-z
1/2-x,1/2+y,z
1/2+x,-y,z
loop_
_atom_site_type_symbol
_atom_site_label
_atom_site_fract_x
_atom_site_fract_y
_atom_site_fract_z
Si Si1 0.297870 0.896169 0.961334
Si Si2 0.670584 0.854208 0.198189
Si Si3 0.576878 0.643393 0.288465
Si Si4 0.627145 0.607891 0.508159
Si Si5 0.451899 0.478399 0.138905
Si Si6 0.720618 0.147844 0.601165
Si Si7 0.629590 0.145410 0.215919
O O1 0.322512 0.882967 0.837965
O O2 0.250000 0.858348 0.000000
O O3 0.329608 0.856081 0.059590
O O4 0.296300 0.000000 0.000000
O O5 0.672254 0.750000 0.233336
O O6 0.624721 0.889216 0.242602
O O7 0.712057 0.895342 0.269616
O O8 0.568702 0.750000 0.260026
O O9 0.584912 0.636257 0.429337
O O10 0.548332 0.569238 0.220499
O O11 0.630249 0.500000 0.500000
O O12 0.671573 0.648334 0.452163
O O13 0.627337 0.636005 0.643419
O O14 0.500000 0.434393 0.158662
O O15 0.410085 0.416209 0.168466
O O16 0.448820 0.500000 0.000000
O O17 0.739145 0.250000 0.616967
O O18 0.750000 0.103669 0.500000
O O19 0.623404 0.250000 0.183611
#
# Coordination Sequence:
#
# PCOD9503573 Si02
#       7
#    16  16  16  16  16  16  16
#     4  11  25  40  58  89 133 177 228 280 333 401
#     4   9  18  34  57  81 115 164 212 262 322 386
#     4  10  20  41  68  95 132 175 221 270 336 414
#     4  11  22  39  64  93 129 176 226 283 342 411
#     4  11  25  45  71 104 138 172 222 286 349 418
#     4   9  19  34  54  84 120 161 218 280 331 394
#     4  12  25  43  69  98 136 183 228 280 348 413
#
# _framework density 21.881610999999999
#
# number of rings (size 3 to 8) (size 9 to 14) (size 15 to 20)
#    0.000    1.571    1.429    4.714    4.000    3.714 
#    0.000    2.857    0.000    1.714    0.000    0.000 
#    0.000    0.000    0.000    0.000    0.000    0.000 
#
# Total GULP energy -311965.333409 kJ/mol
# GULP energy per Si atom -5570.809525 kJ/mol
# Density = 2.183181 g / cm^3
# Si number density = 21.881611 Si / 1000 Ang^3
#
#
#
# Elastic Constant Matrix: (Units=GPa)
#
#
# Indices 1 2 3 4 5 6 
#
# 1 88.6246 26.8995 30.2628 0.0000 0.0000 0.0000
# 2 26.8995 121.4886 11.7396 0.0000 0.0000 0.0000
# 3 30.2628 11.7396 122.2118 0.0000 0.0000 0.0000
# 4 0.0000 0.0000 0.0000 24.3190 0.0000 0.0000
# 5 0.0000 0.0000 0.0000 0.0000 -4.1956 0.0000
# 6 0.0000 0.0000 0.0000 0.0000 0.0000 11.1491
#
#
#
# Elastic Compliance Matrix: (Units=1/GPa)
#
#
# Indices 1 2 3 4 5 6 
#
# 1 0.013098 -0.002611 -0.002993 0.000000 0.000000 0.000000
# 2 -0.002611 0.008829 -0.000202 0.000000 0.000000 0.000000
# 3 -0.002993 -0.000202 0.008943 0.000000 0.000000 0.000000
# 4 0.000000 0.000000 0.000000 0.041120 0.000000 0.000000
# 5 0.000000 0.000000 0.000000 0.000000 -0.238347 0.000000
# 6 0.000000 0.000000 0.000000 0.000000 0.000000 0.089693
#
#
# Mechanical properties :
#
#
# Convention : Reuss Voigt Hill
#
# Bulk Modulus (GPa) = 51.92235 52.23652 52.07944
# Shear Modulus (GPa) = -85.27395 23.81607 -30.72894
#
# Velocity S-wave (km/s) = -6.24942 3.30268 -3.75150
# Velocity P-wave (km/s) = 5.31915 6.20224 2.25548
#
# Compressibility (1/GPa) = 0.01925953
#
# Stress axis : x y z
#
# Youngs Moduli (GPa) = 76.34813 113.26575 111.82029
#
# Poissons Ratio (x) = 0.29573 0.33463
# Poissons Ratio (y) = 0.19934 0.02254
# Poissons Ratio (z) = 0.22848 0.02283
#
# Static dielectric constant tensor:
#      x y z
#    x 1.842540 0.000000 0.000000 
#    y 0.000000 4.588710 0.000000 
#    z 0.000000 0.000000 1.906250 
# 
# From -- ./inp_files/23815.got.cif
#   From: 2010.05.17/outbox.cif.g08.bks.cpg/sg67_12_cif.got.tgz:23815.got - 2010.06.03 18:28:57.
