data_PCOD9503707
_publ_section_title
;
Structure prediction by ZEFSAII (Michael W. Deem and Ramdas Pophale) SiO2 
 PCOD9503707
Probable space group: C M M A
;
_chemical_formula_sum "Si O2"
_cell_formula_units_Z 80
_cell_length_a 10.828260
_cell_length_b 15.226696
_cell_length_c 24.627170
_cell_angle_alpha 90.000000
_cell_angle_beta 90.000000
_cell_angle_gamma 90.000000
_cell_volume 4060.493884
_symmetry_space_group_name_H-M "C M M A"
_symmetry_group_IT_number 67
_symmetry_cell_setting 'orthorhombic'
loop_
_space_group_symop_operation_xyz
x,y,z
-x,1/2-y,z
x,-y,-z
-x,1/2+y,-z
-x,-y,-z
x,1/2+y,-z
-x,y,z
x,1/2-y,z
1/2+x,1/2+y,z
1/2-x,-y,z
1/2+x,1/2-y,-z
1/2-x,y,-z
1/2-x,1/2-y,-z
1/2+x,y,-z
1/2-x,1/2+y,z
1/2+x,-y,z
loop_
_atom_site_type_symbol
_atom_site_label
_atom_site_fract_x
_atom_site_fract_y
_atom_site_fract_z
Si Si1 0.252827 0.857447 0.623253
Si Si2 0.357823 0.644710 0.734654
Si Si3 0.140888 0.932970 0.146380
Si Si4 0.500000 0.142538 0.566214
Si Si5 0.000000 0.357245 0.559374
Si Si6 0.633385 0.146345 0.031661
O O1 0.252580 0.750000 0.622804
O O2 0.270387 0.885374 0.685730
O O3 0.124998 0.886281 0.596265
O O4 0.374276 0.884726 0.589522
O O5 0.500000 0.624591 0.719214
O O6 0.348357 0.750000 0.738234
O O7 0.335582 0.607128 0.794249
O O8 0.144993 0.865685 0.096284
O O9 0.000000 0.969328 0.146943
O O10 0.250000 0.000000 0.135331
O O11 0.500000 0.250000 0.566694
O O12 0.500000 0.115461 0.503376
O O13 0.000000 0.250000 0.560391
O O14 0.500000 0.108660 0.015085
O O15 0.629914 0.250000 0.019835
O O16 0.750000 0.108147 0.000000
#
# Coordination Sequence:
#
# PCOD9503707 Si02
#       6
#    16  16  16   8   8  16
#     4   9  15  24  38  59  87 121 158 194 240 295
#     4   9  16  30  52  71  91 126 172 211 243 292
#     4  10  21  36  53  75 103 134 170 210 251 294
#     4   9  16  22  32  56  93 125 148 187 246 301
#     4   9  14  22  36  56  85 123 158 189 234 297
#     4   9  18  34  57  82 107 136 170 206 244 289
#
# _framework density 19.702036
#
# number of rings (size 3 to 8) (size 9 to 14) (size 15 to 20)
#    0.000    2.800    1.000    1.200    0.000    6.000 
#    1.800    2.000    0.000    1.200    0.000    0.000 
#    0.000    4.800    0.000    0.000    0.000    0.000 
#
# Total GULP energy -223045.604330 kJ/mol
# GULP energy per Si atom -5576.140108 kJ/mol
# Density = 1.965719 g / cm^3
# Si number density = 19.702036 Si / 1000 Ang^3
#
#
#
# Elastic Constant Matrix: (Units=GPa)
#
#
# Indices 1 2 3 4 5 6 
#
# 1 161.9551 15.5554 82.7011 0.0000 0.0000 0.0000
# 2 15.5554 22.8197 2.3430 0.0000 0.0000 0.0000
# 3 82.7011 2.3430 109.4494 0.0000 0.0000 0.0000
# 4 0.0000 0.0000 0.0000 -33.0915 0.0000 0.0000
# 5 0.0000 0.0000 0.0000 0.0000 31.1372 0.0000
# 6 0.0000 0.0000 0.0000 0.0000 0.0000 -3.0706
#
#
#
# Elastic Compliance Matrix: (Units=1/GPa)
#
#
# Indices 1 2 3 4 5 6 
#
# 1 0.010975 -0.006644 -0.008150 0.000000 0.000000 0.000000
# 2 -0.006644 0.047941 0.003994 0.000000 0.000000 0.000000
# 3 -0.008150 0.003994 0.015210 0.000000 0.000000 0.000000
# 4 0.000000 0.000000 0.000000 -0.030219 0.000000 0.000000
# 5 0.000000 0.000000 0.000000 0.000000 0.032116 0.000000
# 6 0.000000 0.000000 0.000000 0.000000 0.000000 -0.325673
#
#
# Mechanical properties :
#
#
# Convention : Reuss Voigt Hill
#
# Bulk Modulus (GPa) = 19.03878 55.04700 37.04289
# Shear Modulus (GPa) = -23.74812 11.90335 -5.92239
#
# Velocity S-wave (km/s) = -3.47560 2.46065 -1.73566
# Velocity P-wave (km/s) = 2.53418 6.00612 3.85042
#
# Compressibility (1/GPa) = 0.05252438
#
# Stress axis : x y z
#
# Youngs Moduli (GPa) = 91.11965 20.85904 65.74807
#
# Poissons Ratio (x) = 0.13859 0.53586
# Poissons Ratio (y) = 0.60541 -0.26261
# Poissons Ratio (z) = 0.74265 -0.08331
#
# Static dielectric constant tensor:
#      x y z
#    x 1.700890 0.000000 0.000000 
#    y 0.000000 1.693630 0.000000 
#    z 0.000000 0.000000 1.678660 
# 
# From -- ./inp_files/37770.got.cif
#   From: 2010.05.17/outbox.cif.g08.bks.cpg/sg67_19_cif.got.tgz:37770.got - 2010.06.03 18:28:57.
