data_PCOD9503402
_publ_section_title
;
Structure prediction by ZEFSAII (Michael W. Deem and Ramdas Pophale) SiO2 
 PCOD9503402
Probable space group: C M M A
;
_chemical_formula_sum "Si O2"
_cell_formula_units_Z 116
_cell_length_a 15.870051
_cell_length_b 27.632685
_cell_length_c 12.564126
_cell_angle_alpha 90.000000
_cell_angle_beta 90.000000
_cell_angle_gamma 90.000000
_cell_volume 5509.772813
_symmetry_space_group_name_H-M "C M M A"
_symmetry_group_IT_number 67
_symmetry_cell_setting 'orthorhombic'
loop_
_space_group_symop_operation_xyz
x,y,z
-x,1/2-y,z
x,-y,-z
-x,1/2+y,-z
-x,-y,-z
x,1/2+y,-z
-x,y,z
x,1/2-y,z
1/2+x,1/2+y,z
1/2-x,-y,z
1/2+x,1/2-y,-z
1/2-x,y,-z
1/2-x,1/2-y,-z
1/2+x,y,-z
1/2-x,1/2+y,z
1/2+x,-y,z
loop_
_atom_site_type_symbol
_atom_site_label
_atom_site_fract_x
_atom_site_fract_y
_atom_site_fract_z
Si Si1 0.500000 0.250000 0.089575
Si Si2 0.090833 0.328079 0.026100
Si Si3 0.175436 0.084897 0.924051
Si Si4 0.101759 0.414596 0.322807
Si Si5 0.311413 0.802273 0.602335
Si Si6 0.398786 0.096900 0.432313
Si Si7 0.101848 0.479275 0.746255
Si Si8 0.785850 0.837939 0.798321
O O1 0.573023 0.207299 0.073216
O O2 0.166139 0.313074 0.103370
O O3 0.000000 0.324346 0.083998
O O4 0.109412 0.382863 0.990984
O O5 0.134657 0.043216 0.855131
O O6 0.218077 0.125098 0.847593
O O7 0.250000 0.067197 0.000000
O O8 0.128008 0.413378 0.446672
O O9 0.128747 0.465797 0.273197
O O10 0.144934 0.370996 0.261117
O O11 0.000000 0.411258 0.318208
O O12 0.356082 0.750000 0.598382
O O13 0.250000 0.804944 0.500000
O O14 0.368665 0.849782 0.599614
O O15 0.256810 0.805442 0.709449
O O16 0.500000 0.095579 0.430814
O O17 0.369085 0.056033 0.349652
O O18 0.000000 0.478706 0.746016
#
# Coordination Sequence:
#
# PCOD9503402 Si02
#       8
#     4  16  16  16  16  16  16  16
#     4   8  20  40  66  88 112 146 224 264 316 352
#     4   9  20  39  61  86 116 151 207 263 303 358
#     4  10  21  38  59  87 123 163 194 250 314 366
#     4  10  21  37  61  91 118 158 207 253 299 367
#     4  11  23  39  58  87 126 162 200 249 310 366
#     4  10  20  39  62  87 123 163 204 254 302 364
#     4  10  20  37  63  90 122 160 205 250 307 364
#     4  11  21  38  60  84 123 162 201 247 308 363
#
# _framework density 21.053498999999999
#
# number of rings (size 3 to 8) (size 9 to 14) (size 15 to 20)
#    0.414    1.517    2.759    1.241    0.966    2.483 
#    1.241    5.862    0.000    7.448    0.000    0.000 
#    0.000    0.000    0.000    0.000    0.000    0.000 
#
# Total GULP energy -323295.474520 kJ/mol
# GULP energy per Si atom -5574.059906 kJ/mol
# Density = 2.100558 g / cm^3
# Si number density = 21.053499 Si / 1000 Ang^3
#
#
#
# Elastic Constant Matrix: (Units=GPa)
#
#
# Indices 1 2 3 4 5 6 
#
# 1 17.0576 0.9003 -0.3197 0.0000 0.0000 0.0000
# 2 0.9003 82.9757 1.4058 0.0000 0.0000 0.0000
# 3 -0.3197 1.4058 51.1096 0.0000 0.0000 0.0000
# 4 0.0000 0.0000 0.0000 -65.2316 0.0000 0.0000
# 5 0.0000 0.0000 0.0000 0.0000 25.5920 0.0000
# 6 0.0000 0.0000 0.0000 0.0000 0.0000 23.2982
#
#
#
# Elastic Compliance Matrix: (Units=1/GPa)
#
#
# Indices 1 2 3 4 5 6 
#
# 1 0.058666 -0.000643 0.000385 0.000000 0.000000 0.000000
# 2 -0.000643 0.012064 -0.000336 0.000000 0.000000 0.000000
# 3 0.000385 -0.000336 0.019577 0.000000 0.000000 0.000000
# 4 0.000000 0.000000 0.000000 -0.015330 0.000000 0.000000
# 5 0.000000 0.000000 0.000000 0.000000 0.039075 0.000000
# 6 0.000000 0.000000 0.000000 0.000000 0.000000 0.042922
#
#
# Mechanical properties :
#
#
# Convention : Reuss Voigt Hill
#
# Bulk Modulus (GPa) = 11.22088 17.23506 14.22797
# Shear Modulus (GPa) = 26.61422 6.67547 16.64484
#
# Velocity S-wave (km/s) = 3.55931 1.78258 2.81481
# Velocity P-wave (km/s) = 4.71517 3.52716 4.16376
#
# Compressibility (1/GPa) = 0.08911958
#
# Stress axis : x y z
#
# Youngs Moduli (GPa) = 17.04561 82.88853 51.07917
#
# Poissons Ratio (x) = 0.05330 -0.01965
# Poissons Ratio (y) = 0.01096 0.01716
# Poissons Ratio (z) = -0.00656 0.02784
#
# Static dielectric constant tensor:
#      x y z
#    x 1.763710 0.000000 0.000000 
#    y 0.000000 1.729790 0.000000 
#    z 0.000000 0.000000 1.786590 
# 
# From -- ./inp_files/19974.got.cif
#   From: 2010.05.17/outbox.cif.g08.bks.cpg/sg67_10_cif.got.tgz:19974.got - 2010.06.03 18:28:57.
