data_PCOD9503492
_publ_section_title
;
Structure prediction by ZEFSAII (Michael W. Deem and Ramdas Pophale) SiO2 
 PCOD9503492
Probable space group: C M M A
;
_chemical_formula_sum "Si O2"
_cell_formula_units_Z 96
_cell_length_a 14.260887
_cell_length_b 14.420049
_cell_length_c 22.980216
_cell_angle_alpha 90.000000
_cell_angle_beta 90.000000
_cell_angle_gamma 90.000000
_cell_volume 4725.713419
_symmetry_space_group_name_H-M "C M M A"
_symmetry_group_IT_number 67
_symmetry_cell_setting 'orthorhombic'
loop_
_space_group_symop_operation_xyz
x,y,z
-x,1/2-y,z
x,-y,-z
-x,1/2+y,-z
-x,-y,-z
x,1/2+y,-z
-x,y,z
x,1/2-y,z
1/2+x,1/2+y,z
1/2-x,-y,z
1/2+x,1/2-y,-z
1/2-x,y,-z
1/2-x,1/2-y,-z
1/2+x,y,-z
1/2-x,1/2+y,z
1/2+x,-y,z
loop_
_atom_site_type_symbol
_atom_site_label
_atom_site_fract_x
_atom_site_fract_y
_atom_site_fract_z
Si Si1 0.107500 0.125174 0.952796
Si Si2 0.389465 0.990029 0.623656
Si Si3 0.262770 0.648252 0.843778
Si Si4 0.389611 0.639529 0.734826
Si Si5 0.605769 0.409774 0.921510
Si Si6 0.253445 0.358524 0.430242
O O1 0.171765 0.157045 0.900526
O O2 0.000000 0.155659 0.948089
O O3 0.104400 0.015479 0.941430
O O4 0.138940 0.141963 0.019410
O O5 0.500000 0.010625 0.617592
O O6 0.373831 0.940633 0.686613
O O7 0.353241 0.905154 0.584119
O O8 0.324432 0.077617 0.603708
O O9 0.226769 0.750000 0.827812
O O10 0.324897 0.616738 0.789900
O O11 0.173557 0.593786 0.866850
O O12 0.500000 0.636672 0.750348
O O13 0.372039 0.750000 0.717765
O O14 0.500000 0.379048 0.908422
O O15 0.245986 0.250000 0.413964
O O16 0.250000 0.365428 0.500000
#
# Coordination Sequence:
#
# PCOD9503492 Si02
#       6
#    16  16  16  16  16  16
#     4   9  18  34  53  72 100 138 182 235 292 355
#     4  10  20  38  64  90 123 172 222 258 300 362
#     4  11  21  32  51  79 109 139 177 234 303 365
#     4   9  19  36  57  82 112 150 203 262 309 356
#     4   9  19  35  52  72 102 141 184 230 287 361
#     4  10  22  39  61  97 141 172 202 253 310 362
#
# _framework density 20.314392999999999
#
# number of rings (size 3 to 8) (size 9 to 14) (size 15 to 20)
#    0.000    2.333    0.000    4.000    0.000    6.667 
#    6.000    3.333    0.000    0.000    0.000    4.667 
#    0.000    0.000    0.000    0.000    0.000    0.000 
#
# Total GULP energy -267300.747444 kJ/mol
# GULP energy per Si atom -5568.765572 kJ/mol
# Density = 2.026816 g / cm^3
# Si number density = 20.314393 Si / 1000 Ang^3
#
#
#
# Elastic Constant Matrix: (Units=GPa)
#
#
# Indices 1 2 3 4 5 6 
#
# 1 73.2101 37.0232 42.7378 0.0000 0.0000 0.0000
# 2 37.0232 124.6823 41.3671 0.0000 0.0000 0.0000
# 3 42.7378 41.3671 87.7169 0.0000 0.0000 0.0000
# 4 0.0000 0.0000 0.0000 24.0416 0.0000 0.0000
# 5 0.0000 0.0000 0.0000 0.0000 31.0713 0.0000
# 6 0.0000 0.0000 0.0000 0.0000 0.0000 -15.9246
#
#
#
# Elastic Compliance Matrix: (Units=1/GPa)
#
#
# Indices 1 2 3 4 5 6 
#
# 1 0.020128 -0.003228 -0.008284 0.000000 0.000000 0.000000
# 2 -0.003228 0.010026 -0.003155 0.000000 0.000000 0.000000
# 3 -0.008284 -0.003155 0.016925 0.000000 0.000000 0.000000
# 4 0.000000 0.000000 0.000000 0.041595 0.000000 0.000000
# 5 0.000000 0.000000 0.000000 0.000000 0.032184 0.000000
# 6 0.000000 0.000000 0.000000 0.000000 0.000000 -0.062796
#
#
# Mechanical properties :
#
#
# Convention : Reuss Voigt Hill
#
# Bulk Modulus (GPa) = 56.36123 58.65172 57.50648
# Shear Modulus (GPa) = 53.58398 18.80307 36.19353
#
# Velocity S-wave (km/s) = 5.14146 3.04567 4.22556
# Velocity P-wave (km/s) = 7.94046 6.42673 7.22335
#
# Compressibility (1/GPa) = 0.01774269
#
# Stress axis : x y z
#
# Youngs Moduli (GPa) = 49.68185 99.74227 59.08518
#
# Poissons Ratio (x) = 0.32199 0.48949
# Poissons Ratio (y) = 0.16038 0.18643
# Poissons Ratio (z) = 0.41159 0.31472
#
# Static dielectric constant tensor:
#      x y z
#    x 1.724730 0.000000 0.000000 
#    y 0.000000 1.836160 0.000000 
#    z 0.000000 0.000000 1.752560 
# 
# From -- ./inp_files/38453.got.cif
#   From: 2010.05.17/outbox.cif.g08.bks.cpg/sg67_20_cif.got.tgz:38453.got - 2010.06.03 18:28:57.
