data_PCOD9503661
_publ_section_title
;
Structure prediction by ZEFSAII (Michael W. Deem and Ramdas Pophale) SiO2 
 PCOD9503661
Probable space group: C M M A
;
_chemical_formula_sum "Si O2"
_cell_formula_units_Z 64
_cell_length_a 8.385590
_cell_length_b 39.316381
_cell_length_c 9.069930
_cell_angle_alpha 90.000000
_cell_angle_beta 90.000000
_cell_angle_gamma 90.000000
_cell_volume 2990.274757
_symmetry_space_group_name_H-M "C M M A"
_symmetry_group_IT_number 67
_symmetry_cell_setting 'orthorhombic'
loop_
_space_group_symop_operation_xyz
x,y,z
-x,1/2-y,z
x,-y,-z
-x,1/2+y,-z
-x,-y,-z
x,1/2+y,-z
-x,y,z
x,1/2-y,z
1/2+x,1/2+y,z
1/2-x,-y,z
1/2+x,1/2-y,-z
1/2-x,y,-z
1/2-x,1/2-y,-z
1/2+x,y,-z
1/2-x,1/2+y,z
1/2+x,-y,z
loop_
_atom_site_type_symbol
_atom_site_label
_atom_site_fract_x
_atom_site_fract_y
_atom_site_fract_z
Si Si1 0.000000 0.290630 0.543186
Si Si2 0.191375 0.536746 0.168011
Si Si3 0.191523 0.103897 0.665831
Si Si4 0.181197 0.324616 0.794607
Si Si5 0.500000 0.209665 0.806196
O O1 0.145529 0.306687 0.636067
O O2 0.000000 0.297894 0.370609
O O3 0.000000 0.250000 0.562155
O O4 0.250000 0.500000 0.222721
O O5 0.249716 0.568548 0.264350
O O6 0.000000 0.536681 0.167405
O O7 0.250000 0.540604 0.000000
O O8 0.250000 0.108614 0.500000
O O9 0.231007 0.136490 0.765680
O O10 0.000000 0.102889 0.661372
O O11 0.332927 0.305675 0.861081
O O12 0.000000 0.323747 0.860277
O O13 0.500000 0.250000 0.829356
#
# Coordination Sequence:
#
# PCOD9503661 Si02
#       5
#     8  16  16  16   8
#     4   9  16  26  40  58  92 135 172 214 261 309
#     4  10  21  39  60  84 110 142 181 226 273 325
#     4  10  21  35  54  79 112 147 182 223 276 331
#     4   9  20  30  42  66 102 139 179 225 270 323
#     4  11  18  26  42  64  94 141 186 220 269 327
#
# _framework density 21.402716999999999
#
# number of rings (size 3 to 8) (size 9 to 14) (size 15 to 20)
#    0.750    1.500    0.000    4.500    1.750    4.500 
#    0.000    2.500    0.000    0.000    0.000    0.000 
#    0.000    6.000    0.000    0.000    0.000    0.000 
#
# Total GULP energy -178583.548766 kJ/mol
# GULP energy per Si atom -5580.735899 kJ/mol
# Density = 2.135400 g / cm^3
# Si number density = 21.402717 Si / 1000 Ang^3
#
#
#
# Elastic Constant Matrix: (Units=GPa)
#
#
# Indices 1 2 3 4 5 6 
#
# 1 120.3148 72.9202 38.2144 0.0000 0.0000 0.0000
# 2 72.9202 131.7831 38.2311 0.0000 0.0000 0.0000
# 3 38.2144 38.2311 51.6407 0.0000 0.0000 0.0000
# 4 0.0000 0.0000 0.0000 365.7470 0.0000 0.0000
# 5 0.0000 0.0000 0.0000 0.0000 35.7346 0.0000
# 6 0.0000 0.0000 0.0000 0.0000 0.0000 40.0483
#
#
#
# Elastic Compliance Matrix: (Units=1/GPa)
#
#
# Indices 1 2 3 4 5 6 
#
# 1 0.013738 -0.005925 -0.005780 0.000000 0.000000 0.000000
# 2 -0.005925 0.012219 -0.004662 0.000000 0.000000 0.000000
# 3 -0.005780 -0.004662 0.027093 0.000000 0.000000 0.000000
# 4 0.000000 0.000000 0.000000 0.002734 0.000000 0.000000
# 5 0.000000 0.000000 0.000000 0.000000 0.027984 0.000000
# 6 0.000000 0.000000 0.000000 0.000000 0.000000 0.024970
#
#
# Mechanical properties :
#
#
# Convention : Reuss Voigt Hill
#
# Bulk Modulus (GPa) = 49.21953 66.94111 58.08032
# Shear Modulus (GPa) = 33.72809 98.59751 66.16280
#
# Velocity S-wave (km/s) = 3.97404 6.79469 5.56600
# Velocity P-wave (km/s) = 6.64109 9.63856 8.27665
#
# Compressibility (1/GPa) = 0.02031714
#
# Stress axis : x y z
#
# Youngs Moduli (GPa) = 72.78823 81.83845 36.91007
#
# Poissons Ratio (x) = 0.48491 0.21334
# Poissons Ratio (y) = 0.43128 0.17206
# Poissons Ratio (z) = 0.42071 0.38150
#
# Static dielectric constant tensor:
#      x y z
#    x 1.776250 0.000000 0.000000 
#    y 0.000000 1.762740 0.000000 
#    z 0.000000 0.000000 1.775830 
# 
# From -- ./inp_files/15851.got.cif
#   From: 2010.05.17/outbox.cif.g08.bks.cpg/sg67_8_cif.got.tgz:15851.got - 2010.06.03 18:28:57.
