data_PCOD9503229
_publ_section_title
;
Structure prediction by ZEFSAII (Michael W. Deem and Ramdas Pophale) SiO2 
 PCOD9503229
Probable space group: C M M A
;
_chemical_formula_sum "Si O2"
_cell_formula_units_Z 116
_cell_length_a 26.773622
_cell_length_b 9.123231
_cell_length_c 24.234031
_cell_angle_alpha 90.000000
_cell_angle_beta 90.000000
_cell_angle_gamma 90.000000
_cell_volume 5919.451383
_symmetry_space_group_name_H-M "C M M A"
_symmetry_group_IT_number 67
_symmetry_cell_setting 'orthorhombic'
loop_
_space_group_symop_operation_xyz
x,y,z
-x,1/2-y,z
x,-y,-z
-x,1/2+y,-z
-x,-y,-z
x,1/2+y,-z
-x,y,z
x,1/2-y,z
1/2+x,1/2+y,z
1/2-x,-y,z
1/2+x,1/2-y,-z
1/2-x,y,-z
1/2-x,1/2-y,-z
1/2+x,y,-z
1/2-x,1/2+y,z
1/2+x,-y,z
loop_
_atom_site_type_symbol
_atom_site_label
_atom_site_fract_x
_atom_site_fract_y
_atom_site_fract_z
Si Si1 0.899806 0.424939 0.769030
Si Si2 0.800787 0.076516 0.194559
Si Si3 0.090666 0.077003 0.559720
Si Si4 0.942528 0.913549 0.664790
Si Si5 0.250000 0.500000 0.000000
Si Si6 0.667814 0.582311 0.913523
Si Si7 0.204046 0.421340 0.559680
Si Si8 0.443640 0.426092 0.110999
O O1 0.895204 0.250000 0.768388
O O2 0.847024 0.504057 0.774831
O O3 0.921612 0.483187 0.712294
O O4 0.931336 0.463354 0.824747
O O5 0.798671 0.250000 0.200439
O O6 0.750000 0.000000 0.212486
O O7 0.810876 0.030486 0.131111
O O8 0.078552 0.250000 0.555269
O O9 0.148091 0.065539 0.581301
O O10 0.086456 0.000000 0.500000
O O11 0.060620 0.989802 0.605416
O O12 0.919211 0.750000 0.663612
O O13 0.000000 0.896798 0.678755
O O14 0.290781 0.582891 0.961675
O O15 0.666060 0.750000 0.890984
O O16 0.608708 0.538765 0.921914
O O17 0.200906 0.500000 0.500000
O O18 0.215184 0.250000 0.553399
O O19 0.250000 0.500000 0.589941
O O20 0.500000 0.482581 0.095975
O O21 0.447063 0.250000 0.107263
#
# Coordination Sequence:
#
# PCOD9503229 Si02
#       8
#    16  16  16  16   4  16  16  16
#     4  10  20  36  60  88 116 148 189 235 294 360
#     4  11  21  36  59  87 121 156 194 239 292 351
#     4  10  21  37  57  81 110 147 191 236 286 346
#     4  11  24  40  58  83 114 147 188 239 294 351
#     4  12  22  32  54  82 126 164 214 266 300 356
#     4  10  21  35  54  82 115 157 206 253 303 358
#     4   9  16  27  47  74 101 131 169 212 258 313
#     4   8  15  31  56  83 109 142 190 244 297 356
#
# _framework density 19.596411
#
# number of rings (size 3 to 8) (size 9 to 14) (size 15 to 20)
#    0.000    2.069    0.690    4.759    0.000    4.138 
#    0.000    1.034    0.000    5.379    0.000    0.000 
#    0.000    0.000    0.000    0.000    0.000    0.000 
#
# Total GULP energy -322959.849604 kJ/mol
# GULP energy per Si atom -5568.273269 kJ/mol
# Density = 1.955181 g / cm^3
# Si number density = 19.596411 Si / 1000 Ang^3
#
#
#
# Elastic Constant Matrix: (Units=GPa)
#
#
# Indices 1 2 3 4 5 6 
#
# 1 133.0216 42.8605 36.6647 0.0000 0.0000 0.0000
# 2 42.8605 124.2817 28.1737 0.0000 0.0000 0.0000
# 3 36.6647 28.1737 64.2618 0.0000 0.0000 0.0000
# 4 0.0000 0.0000 0.0000 11.1780 0.0000 0.0000
# 5 0.0000 0.0000 0.0000 0.0000 27.4420 0.0000
# 6 0.0000 0.0000 0.0000 0.0000 0.0000 26.4853
#
#
#
# Elastic Compliance Matrix: (Units=1/GPa)
#
#
# Indices 1 2 3 4 5 6 
#
# 1 0.009461 -0.002264 -0.004406 0.000000 0.000000 0.000000
# 2 -0.002264 0.009476 -0.002863 0.000000 0.000000 0.000000
# 3 -0.004406 -0.002863 0.019330 0.000000 0.000000 0.000000
# 4 0.000000 0.000000 0.000000 0.089462 0.000000 0.000000
# 5 0.000000 0.000000 0.000000 0.000000 0.036440 0.000000
# 6 0.000000 0.000000 0.000000 0.000000 0.000000 0.037757
#
#
# Mechanical properties :
#
#
# Convention : Reuss Voigt Hill
#
# Bulk Modulus (GPa) = 52.07622 59.66254 55.86938
# Shear Modulus (GPa) = 21.98845 27.27881 24.63363
#
# Velocity S-wave (km/s) = 3.35336 3.73504 3.54933
# Velocity P-wave (km/s) = 6.45178 7.00803 6.73565
#
# Compressibility (1/GPa) = 0.01920262
#
# Stress axis : x y z
#
# Youngs Moduli (GPa) = 105.69237 105.52953 51.73314
#
# Poissons Ratio (x) = 0.23894 0.22791
# Poissons Ratio (y) = 0.23931 0.14809
# Poissons Ratio (z) = 0.46563 0.30209
#
# Static dielectric constant tensor:
#      x y z
#    x 1.781620 0.000000 0.000000 
#    y 0.000000 1.717640 0.000000 
#    z 0.000000 0.000000 1.717780 
# 
# From -- ./inp_files/42845.got.cif
#   From: 2010.05.17/outbox.cif.g08.bks.cpg/sg67_22_cif.got.tgz:42845.got - 2010.06.03 18:28:57.
