data_PCOD9503687
_publ_section_title
;
Structure prediction by ZEFSAII (Michael W. Deem and Ramdas Pophale) SiO2 
 PCOD9503687
Probable space group: C M M A
;
_chemical_formula_sum "Si O2"
_cell_formula_units_Z 116
_cell_length_a 18.121912
_cell_length_b 29.307615
_cell_length_c 11.167581
_cell_angle_alpha 90.000000
_cell_angle_beta 90.000000
_cell_angle_gamma 90.000000
_cell_volume 5931.214168
_symmetry_space_group_name_H-M "C M M A"
_symmetry_group_IT_number 67
_symmetry_cell_setting 'orthorhombic'
loop_
_space_group_symop_operation_xyz
x,y,z
-x,1/2-y,z
x,-y,-z
-x,1/2+y,-z
-x,-y,-z
x,1/2+y,-z
-x,y,z
x,1/2-y,z
1/2+x,1/2+y,z
1/2-x,-y,z
1/2+x,1/2-y,-z
1/2-x,y,-z
1/2-x,1/2-y,-z
1/2+x,y,-z
1/2-x,1/2+y,z
1/2+x,-y,z
loop_
_atom_site_type_symbol
_atom_site_label
_atom_site_fract_x
_atom_site_fract_y
_atom_site_fract_z
Si Si1 0.589290 0.525668 0.874906
Si Si2 0.788144 0.699494 0.664149
Si Si3 0.000000 0.250000 0.599221
Si Si4 0.883177 0.330128 0.653477
Si Si5 0.663517 0.485075 0.635908
Si Si6 0.585586 0.129112 0.089375
Si Si7 0.670011 0.799557 0.059973
Si Si8 0.665851 0.110153 0.538899
O O1 0.500000 0.524438 0.863526
O O2 0.623458 0.505451 0.752495
O O3 0.614657 0.578127 0.889779
O O4 0.608327 0.500000 0.000000
O O5 0.801031 0.750000 0.614381
O O6 0.701579 0.687308 0.656786
O O7 0.815026 0.699348 0.799925
O O8 0.831187 0.659371 0.599964
O O9 0.064097 0.209382 0.605311
O O10 0.905513 0.342537 0.788364
O O11 0.882775 0.377712 0.577461
O O12 0.640552 0.500000 0.500000
O O13 0.750000 0.500000 0.645818
O O14 0.647777 0.430803 0.627713
O O15 0.500000 0.124945 0.059043
O O16 0.625172 0.157823 0.987158
O O17 0.635488 0.750000 0.028109
O O18 0.750000 0.800977 0.000000
O O19 0.750000 0.099126 0.500000
#
# Coordination Sequence:
#
# PCOD9503687 Si02
#       8
#    16  16   4  16  16  16  16  16
#     4  10  25  47  66  89 130 175 218 272 334 400
#     4  10  21  37  59  86 122 163 204 248 311 374
#     4  12  24  36  62  94 138 168 214 264 308 374
#     4  11  22  37  59  92 124 163 205 256 313 369
#     4  11  22  41  67 100 132 164 218 286 332 387
#     4  11  23  39  63  88 121 159 209 261 318 380
#     4  10  21  35  58  88 123 159 200 250 303 374
#     4  10  22  38  63  90 124 164 205 260 324 381
#
# _framework density 19.557547
#
# number of rings (size 3 to 8) (size 9 to 14) (size 15 to 20)
#    0.000    1.517    4.138    0.828    5.793    1.655 
#    1.241    0.000    1.517    0.000    0.000    0.000 
#    0.000    0.000    0.000    0.000    0.000    0.000 
#
# Total GULP energy -323025.933673 kJ/mol
# GULP energy per Si atom -5569.412650 kJ/mol
# Density = 1.951303 g / cm^3
# Si number density = 19.557547 Si / 1000 Ang^3
#
#
#
# Elastic Constant Matrix: (Units=GPa)
#
#
# Indices 1 2 3 4 5 6 
#
# 1 37.9182 35.4262 33.9729 0.0000 0.0000 0.0000
# 2 35.4262 153.5273 55.1476 0.0000 0.0000 0.0000
# 3 33.9729 55.1476 112.8953 0.0000 0.0000 0.0000
# 4 0.0000 0.0000 0.0000 37.1655 0.0000 0.0000
# 5 0.0000 0.0000 0.0000 0.0000 7.5869 0.0000
# 6 0.0000 0.0000 0.0000 0.0000 0.0000 19.9808
#
#
#
# Elastic Compliance Matrix: (Units=1/GPa)
#
#
# Indices 1 2 3 4 5 6 
#
# 1 0.040171 -0.005976 -0.009169 0.000000 0.000000 0.000000
# 2 -0.005976 0.008789 -0.002495 0.000000 0.000000 0.000000
# 3 -0.009169 -0.002495 0.012836 0.000000 0.000000 0.000000
# 4 0.000000 0.000000 0.000000 0.026907 0.000000 0.000000
# 5 0.000000 0.000000 0.000000 0.000000 0.131806 0.000000
# 6 0.000000 0.000000 0.000000 0.000000 0.000000 0.050048
#
#
# Mechanical properties :
#
#
# Convention : Reuss Voigt Hill
#
# Bulk Modulus (GPa) = 37.71400 61.49270 49.60335
# Shear Modulus (GPa) = 15.88945 24.93289 20.41117
#
# Velocity S-wave (km/s) = 2.85344 3.57437 3.23406
# Velocity P-wave (km/s) = 5.49378 6.96743 6.27402
#
# Compressibility (1/GPa) = 0.02651535
#
# Stress axis : x y z
#
# Youngs Moduli (GPa) = 24.89368 113.78455 77.90751
#
# Poissons Ratio (x) = 0.67994 0.71436
# Poissons Ratio (y) = 0.14876 0.19437
# Poissons Ratio (z) = 0.22826 0.28387
#
# Static dielectric constant tensor:
#      x y z
#    x 1.659550 0.000000 0.000000 
#    y 0.000000 1.726920 0.000000 
#    z 0.000000 0.000000 1.650840 
# 
# From -- ./inp_files/20102.got.cif
#   From: 2010.05.17/outbox.cif.g08.bks.cpg/sg67_11_cif.got.tgz:20102.got - 2010.06.03 18:28:57.
