data_PCOD9503085
_publ_section_title
;
Structure prediction by ZEFSAII (Michael W. Deem and Ramdas Pophale) SiO2 
 PCOD9503085
Probable space group: C M M A
;
_chemical_formula_sum "Si O2"
_cell_formula_units_Z 72
_cell_length_a 9.856528
_cell_length_b 14.251685
_cell_length_c 27.890051
_cell_angle_alpha 90.000000
_cell_angle_beta 90.000000
_cell_angle_gamma 90.000000
_cell_volume 3917.774933
_symmetry_space_group_name_H-M "C M M A"
_symmetry_group_IT_number 67
_symmetry_cell_setting 'orthorhombic'
loop_
_space_group_symop_operation_xyz
x,y,z
-x,1/2-y,z
x,-y,-z
-x,1/2+y,-z
-x,-y,-z
x,1/2+y,-z
-x,y,z
x,1/2-y,z
1/2+x,1/2+y,z
1/2-x,-y,z
1/2+x,1/2-y,-z
1/2-x,y,-z
1/2-x,1/2-y,-z
1/2+x,y,-z
1/2-x,1/2+y,z
1/2+x,-y,z
loop_
_atom_site_type_symbol
_atom_site_label
_atom_site_fract_x
_atom_site_fract_y
_atom_site_fract_z
Si Si1 0.665775 0.402818 0.628434
Si Si2 0.000000 0.614466 0.943224
Si Si3 0.155130 0.250000 0.454226
Si Si4 0.661259 0.750000 0.801878
Si Si5 0.165744 0.250000 0.687716
Si Si6 0.000000 0.887361 0.052603
Si Si7 0.253583 0.887898 0.879801
O O1 0.500000 0.412894 0.638483
O O2 0.750000 0.500000 0.624369
O O3 0.674821 0.340957 0.579777
O O4 0.750982 0.339156 0.666427
O O5 0.000000 0.501068 0.948203
O O6 0.125142 0.640896 0.910581
O O7 0.000000 0.646799 0.998111
O O8 0.250000 0.250000 0.500000
O O9 0.000000 0.250000 0.470694
O O10 0.500000 0.750000 0.811268
O O11 0.678921 0.750000 0.745109
O O12 0.726416 0.661727 0.829200
O O13 0.000000 0.250000 0.676476
O O14 0.873393 0.860520 0.084438
O O15 0.250000 0.000000 0.873284
#
# Coordination Sequence:
#
# PCOD9503085 Si02
#       7
#    16   8   8   8   8   8  16
#     4  10  21  40  63  92 125 163 212 263 307 360
#     4   9  18  31  53  85 106 139 183 220 269 335
#     4   9  20  36  57  90 136 177 214 254 299 350
#     4  11  23  41  60  81 113 148 182 229 296 359
#     4  10  22  40  62  85 113 157 204 256 315 368
#     4   9  16  33  57  75 110 147 175 216 277 335
#     4  10  20  36  56  80 110 143 179 226 276 342
#
# _framework density 18.377779
#
# number of rings (size 3 to 8) (size 9 to 14) (size 15 to 20)
#    0.000    2.222    1.111    2.333    0.000    7.111 
#    4.000    5.556    0.000    0.000    0.000    0.000 
#    0.000    0.000    0.000    0.000    0.000    0.000 
#
# Total GULP energy -200581.106277 kJ/mol
# GULP energy per Si atom -5571.697397 kJ/mol
# Density = 1.833595 g / cm^3
# Si number density = 18.377779 Si / 1000 Ang^3
#
#
#
# Elastic Constant Matrix: (Units=GPa)
#
#
# Indices 1 2 3 4 5 6 
#
# 1 189.9177 62.8577 92.9634 0.0000 0.0000 0.0000
# 2 62.8577 149.4726 53.5520 0.0000 0.0000 0.0000
# 3 92.9634 53.5520 146.0255 0.0000 0.0000 0.0000
# 4 0.0000 0.0000 0.0000 10.5105 0.0000 0.0000
# 5 0.0000 0.0000 0.0000 0.0000 31.0577 0.0000
# 6 0.0000 0.0000 0.0000 0.0000 0.0000 26.0552
#
#
#
# Elastic Compliance Matrix: (Units=1/GPa)
#
#
# Indices 1 2 3 4 5 6 
#
# 1 0.008041 -0.001782 -0.004466 0.000000 0.000000 0.000000
# 2 -0.001782 0.008097 -0.001835 0.000000 0.000000 0.000000
# 3 -0.004466 -0.001835 0.010364 0.000000 0.000000 0.000000
# 4 0.000000 0.000000 0.000000 0.095143 0.000000 0.000000
# 5 0.000000 0.000000 0.000000 0.000000 0.032198 0.000000
# 6 0.000000 0.000000 0.000000 0.000000 0.000000 0.038380
#
#
# Mechanical properties :
#
#
# Convention : Reuss Voigt Hill
#
# Bulk Modulus (GPa) = 96.73934 100.46243 98.60089
# Shear Modulus (GPa) = 23.60340 31.92753 27.76546
#
# Velocity S-wave (km/s) = 3.58766 4.17260 3.89114
# Velocity P-wave (km/s) = 8.36154 8.83165 8.59981
#
# Compressibility (1/GPa) = 0.01033706
#
# Stress axis : x y z
#
# Youngs Moduli (GPa) = 124.36187 123.50436 96.48622
#
# Poissons Ratio (x) = 0.22003 0.43089
# Poissons Ratio (y) = 0.22155 0.17707
# Poissons Ratio (z) = 0.55537 0.22666
#
# Static dielectric constant tensor:
#      x y z
#    x 1.615310 0.000000 0.000000 
#    y 0.000000 1.683370 0.000000 
#    z 0.000000 0.000000 1.580330 
# 
# From -- ./inp_files/43175.got.cif
#   From: 2010.05.17/outbox.cif.g08.bks.cpg/sg67_22_cif.got.tgz:43175.got - 2010.06.03 18:28:57.
