data_PCOD9503779
_publ_section_title
;
Structure prediction by ZEFSAII (Michael W. Deem and Ramdas Pophale) SiO2 
 PCOD9503779
Probable space group: C M M A
;
_chemical_formula_sum "Si O2"
_cell_formula_units_Z 112
_cell_length_a 14.691434
_cell_length_b 21.928122
_cell_length_c 16.690938
_cell_angle_alpha 90.000000
_cell_angle_beta 90.000000
_cell_angle_gamma 90.000000
_cell_volume 5377.078430
_symmetry_space_group_name_H-M "C M M A"
_symmetry_group_IT_number 67
_symmetry_cell_setting 'orthorhombic'
loop_
_space_group_symop_operation_xyz
x,y,z
-x,1/2-y,z
x,-y,-z
-x,1/2+y,-z
-x,-y,-z
x,1/2+y,-z
-x,y,z
x,1/2-y,z
1/2+x,1/2+y,z
1/2-x,-y,z
1/2+x,1/2-y,-z
1/2-x,y,-z
1/2-x,1/2-y,-z
1/2+x,y,-z
1/2-x,1/2+y,z
1/2+x,-y,z
loop_
_atom_site_type_symbol
_atom_site_label
_atom_site_fract_x
_atom_site_fract_y
_atom_site_fract_z
Si Si1 0.161964 0.315814 0.942002
Si Si2 0.894007 0.934536 0.972751
Si Si3 0.152449 0.057344 0.542928
Si Si4 0.289580 0.851578 0.766276
Si Si5 0.604872 0.816553 0.605839
Si Si6 0.607096 0.533567 0.723365
Si Si7 0.605859 0.100501 0.797315
O O1 0.115104 0.250000 0.957611
O O2 0.187257 0.317899 0.848504
O O3 0.250000 0.316174 0.000000
O O4 0.113189 0.379093 0.965033
O O5 0.858457 0.910005 0.887977
O O6 0.000000 0.946406 0.955180
O O7 0.855534 0.000000 0.000000
O O8 0.250000 0.061838 0.500000
O O9 0.115222 0.126068 0.546513
O O10 0.151178 0.037965 0.635669
O O11 0.104282 0.000000 0.500000
O O12 0.334438 0.825823 0.685300
O O13 0.334874 0.918901 0.774843
O O14 0.180943 0.856907 0.756944
O O15 0.500000 0.816720 0.632462
O O16 0.624988 0.750000 0.570031
O O17 0.500000 0.551656 0.719220
O O18 0.609527 0.465524 0.756079
O O19 0.500000 0.121294 0.796833
#
# Coordination Sequence:
#
# PCOD9503779 Si02
#       7
#    16  16  16  16  16  16  16
#     4  11  23  38  54  84 121 158 209 261 318 377
#     4  10  21  38  58  85 121 160 207 263 321 379
#     4  10  22  36  62  97 132 159 198 240 302 371
#     4  11  20  36  64  85 119 166 212 267 314 368
#     4  10  23  43  67  95 127 166 211 257 309 370
#     4  10  22  38  60  93 128 162 206 259 310 366
#     4  10  21  36  56  86 122 166 213 261 315 373
#
# _framework density 20.829156000000001
#
# number of rings (size 3 to 8) (size 9 to 14) (size 15 to 20)
#    0.000    1.714    1.429    3.429    8.000    4.286 
#    0.000    0.000    0.000    1.714    0.000    0.000 
#    0.000    0.000    0.000    0.000    0.000    0.000 
#
# Total GULP energy -312253.630528 kJ/mol
# GULP energy per Si atom -5575.957688 kJ/mol
# Density = 2.078175 g / cm^3
# Si number density = 20.829156 Si / 1000 Ang^3
#
#
#
# Elastic Constant Matrix: (Units=GPa)
#
#
# Indices 1 2 3 4 5 6 
#
# 1 108.8087 24.0190 27.2744 0.0000 0.0000 0.0000
# 2 24.0190 136.8775 37.9537 0.0000 0.0000 0.0000
# 3 27.2744 37.9537 70.5158 0.0000 0.0000 0.0000
# 4 0.0000 0.0000 0.0000 17.1481 0.0000 0.0000
# 5 0.0000 0.0000 0.0000 0.0000 11.6436 0.0000
# 6 0.0000 0.0000 0.0000 0.0000 0.0000 36.0147
#
#
#
# Elastic Compliance Matrix: (Units=1/GPa)
#
#
# Indices 1 2 3 4 5 6 
#
# 1 0.010255 -0.000822 -0.003524 0.000000 0.000000 0.000000
# 2 -0.000822 0.008653 -0.004339 0.000000 0.000000 0.000000
# 3 -0.003524 -0.004339 0.017880 0.000000 0.000000 0.000000
# 4 0.000000 0.000000 0.000000 0.058315 0.000000 0.000000
# 5 0.000000 0.000000 0.000000 0.000000 0.085884 0.000000
# 6 0.000000 0.000000 0.000000 0.000000 0.000000 0.027766
#
#
# Mechanical properties :
#
#
# Convention : Reuss Voigt Hill
#
# Bulk Modulus (GPa) = 51.50142 54.96627 53.23384
# Shear Modulus (GPa) = 21.49630 28.09161 24.79396
#
# Velocity S-wave (km/s) = 3.21601 3.67641 3.45389
# Velocity P-wave (km/s) = 6.21044 6.66841 6.44349
#
# Compressibility (1/GPa) = 0.01941694
#
# Stress axis : x y z
#
# Youngs Moduli (GPa) = 97.51041 115.56202 55.92900
#
# Poissons Ratio (x) = 0.09505 0.19709
# Poissons Ratio (y) = 0.08020 0.24270
# Poissons Ratio (z) = 0.34362 0.50147
#
# Static dielectric constant tensor:
#      x y z
#    x 1.769960 0.000000 0.000000 
#    y 0.000000 1.811030 0.000000 
#    z 0.000000 0.000000 1.737640 
# 
# From -- ./inp_files/27499.got.cif
#   From: 2010.05.17/outbox.cif.g08.bks.cpg/sg67_14_cif.got.tgz:27499.got - 2010.06.03 18:28:57.
