data_PCOD9503037
_publ_section_title
;
Structure prediction by ZEFSAII (Michael W. Deem and Ramdas Pophale) SiO2 
 PCOD9503037
Probable space group: C M M A
;
_chemical_formula_sum "Si O2"
_cell_formula_units_Z 112
_cell_length_a 13.616867
_cell_length_b 26.846396
_cell_length_c 15.009894
_cell_angle_alpha 90.000000
_cell_angle_beta 90.000000
_cell_angle_gamma 90.000000
_cell_volume 5487.073945
_symmetry_space_group_name_H-M "C M M A"
_symmetry_group_IT_number 67
_symmetry_cell_setting 'orthorhombic'
loop_
_space_group_symop_operation_xyz
x,y,z
-x,1/2-y,z
x,-y,-z
-x,1/2+y,-z
-x,-y,-z
x,1/2+y,-z
-x,y,z
x,1/2-y,z
1/2+x,1/2+y,z
1/2-x,-y,z
1/2+x,1/2-y,-z
1/2-x,y,-z
1/2-x,1/2-y,-z
1/2+x,y,-z
1/2-x,1/2+y,z
1/2+x,-y,z
loop_
_atom_site_type_symbol
_atom_site_label
_atom_site_fract_x
_atom_site_fract_y
_atom_site_fract_z
Si Si1 0.887344 0.862345 0.399279
Si Si2 0.116278 0.806648 0.848295
Si Si3 0.281672 0.900477 0.095124
Si Si4 0.381293 0.535178 0.247970
Si Si5 0.194135 0.806413 0.648447
Si Si6 0.386638 0.906743 0.421675
Si Si7 0.110151 0.421280 0.784330
O O1 0.803622 0.820777 0.385180
O O2 0.854560 0.901693 0.475638
O O3 0.890832 0.891683 0.307245
O O4 0.000000 0.845408 0.418985
O O5 0.126198 0.750000 0.881453
O O6 0.159748 0.848755 0.912162
O O7 0.175710 0.810007 0.754784
O O8 0.000000 0.815484 0.830591
O O9 0.344368 0.935002 0.161663
O O10 0.180739 0.893723 0.148170
O O11 0.250000 0.921842 0.000000
O O12 0.500000 0.538650 0.250128
O O13 0.343871 0.560050 0.340865
O O14 0.355473 0.477441 0.236090
O O15 0.169866 0.750000 0.621845
O O16 0.125734 0.849510 0.609131
O O17 0.500000 0.922021 0.427371
O O18 0.000000 0.424537 0.820449
#
# Coordination Sequence:
#
# PCOD9503037 Si02
#       7
#    16  16  16  16  16  16  16
#     4  10  21  37  57  85 123 162 202 245 294 356
#     4  10  21  40  67  93 116 148 196 250 299 351
#     4  12  24  39  63  90 120 154 195 244 300 361
#     4  10  21  39  62  87 119 158 205 256 298 342
#     4  11  21  35  58  85 117 157 199 244 295 354
#     4  10  20  35  59  89 118 155 205 254 299 347
#     4  10  22  40  59  84 123 164 200 243 298 356
#
# _framework density 20.411608999999999
#
# number of rings (size 3 to 8) (size 9 to 14) (size 15 to 20)
#    0.000    1.571    2.857    1.714    0.000    5.429 
#    0.000    5.714    0.000    3.857    0.000    0.000 
#    0.000    0.000    0.000    0.000    0.000    0.000 
#
# Total GULP energy -312376.042612 kJ/mol
# GULP energy per Si atom -5578.143618 kJ/mol
# Density = 2.036515 g / cm^3
# Si number density = 20.411609 Si / 1000 Ang^3
#
#
#
# Elastic Constant Matrix: (Units=GPa)
#
#
# Indices 1 2 3 4 5 6 
#
# 1 78.9399 9.0639 3.2925 0.0000 0.0000 0.0000
# 2 9.0639 52.2613 6.1935 0.0000 0.0000 0.0000
# 3 3.2925 6.1935 61.0776 0.0000 0.0000 0.0000
# 4 0.0000 0.0000 0.0000 -3.6858 0.0000 0.0000
# 5 0.0000 0.0000 0.0000 0.0000 20.9699 0.0000
# 6 0.0000 0.0000 0.0000 0.0000 0.0000 30.7259
#
#
#
# Elastic Compliance Matrix: (Units=1/GPa)
#
#
# Indices 1 2 3 4 5 6 
#
# 1 0.012939 -0.002188 -0.000476 0.000000 0.000000 0.000000
# 2 -0.002188 0.019737 -0.001884 0.000000 0.000000 0.000000
# 3 -0.000476 -0.001884 0.016589 0.000000 0.000000 0.000000
# 4 0.000000 0.000000 0.000000 -0.271315 0.000000 0.000000
# 5 0.000000 0.000000 0.000000 0.000000 0.047687 0.000000
# 6 0.000000 0.000000 0.000000 0.000000 0.000000 0.032546
#
#
# Mechanical properties :
#
#
# Convention : Reuss Voigt Hill
#
# Bulk Modulus (GPa) = 24.89313 25.48651 25.18982
# Shear Modulus (GPa) = -41.90005 21.18393 -10.35806
#
# Velocity S-wave (km/s) = -4.53565 3.22504 -2.25513
# Velocity P-wave (km/s) = 3.89967 5.13627 2.36366
#
# Compressibility (1/GPa) = 0.04017172
#
# Stress axis : x y z
#
# Youngs Moduli (GPa) = 77.28632 50.66560 60.28004
#
# Poissons Ratio (x) = 0.11084 0.02867
# Poissons Ratio (y) = 0.16908 0.11354
# Poissons Ratio (z) = 0.03676 0.09543
#
# Static dielectric constant tensor:
#      x y z
#    x 1.789660 0.000000 0.000000 
#    y 0.000000 1.713700 0.000000 
#    z 0.000000 0.000000 1.739190 
# 
# From -- ./inp_files/27750.got.cif
#   From: 2010.05.17/outbox.cif.g08.bks.cpg/sg67_14_cif.got.tgz:27750.got - 2010.06.03 18:28:57.
