data_PCOD9503415
_publ_section_title
;
Structure prediction by ZEFSAII (Michael W. Deem and Ramdas Pophale) SiO2 
 PCOD9503415
Probable space group: C M M A
;
_chemical_formula_sum "Si O2"
_cell_formula_units_Z 88
_cell_length_a 15.259810
_cell_length_b 10.361930
_cell_length_c 30.632300
_cell_angle_alpha 90.000000
_cell_angle_beta 90.000000
_cell_angle_gamma 90.000000
_cell_volume 4843.612452
_symmetry_space_group_name_H-M "C M M A"
_symmetry_group_IT_number 67
_symmetry_cell_setting 'orthorhombic'
loop_
_space_group_symop_operation_xyz
x,y,z
-x,1/2-y,z
x,-y,-z
-x,1/2+y,-z
-x,-y,-z
x,1/2+y,-z
-x,y,z
x,1/2-y,z
1/2+x,1/2+y,z
1/2-x,-y,z
1/2+x,1/2-y,-z
1/2-x,y,-z
1/2-x,1/2-y,-z
1/2+x,y,-z
1/2-x,1/2+y,z
1/2+x,-y,z
loop_
_atom_site_type_symbol
_atom_site_label
_atom_site_fract_x
_atom_site_fract_y
_atom_site_fract_z
Si Si1 0.247251 0.250000 0.322821
Si Si2 0.602750 0.403477 0.199095
Si Si3 0.171007 0.901101 0.100203
Si Si4 0.000000 0.599354 0.039667
Si Si5 0.402626 0.750000 0.394893
Si Si6 0.098608 0.250000 0.607328
Si Si7 0.855736 0.500926 0.449551
Si Si8 0.750000 0.500000 0.737811
O O1 0.167796 0.250000 0.356777
O O2 0.333818 0.250000 0.352843
O O3 0.243420 0.375513 0.292753
O O4 0.500000 0.437391 0.202058
O O5 0.610721 0.250000 0.209005
O O6 0.637029 0.421313 0.149710
O O7 0.665073 0.481574 0.231570
O O8 0.198573 0.750000 0.096350
O O9 0.087262 0.919905 0.068821
O O10 0.250000 0.000000 0.090967
O O11 0.000000 0.750000 0.025431
O O12 0.000000 0.500000 0.000000
O O13 0.500000 0.750000 0.376468
O O14 0.388810 0.874733 0.424934
O O15 0.113590 0.374081 0.576781
O O16 0.000000 0.250000 0.624282
O O17 0.883978 0.500000 0.500000
O O18 0.750000 0.500000 0.448806
#
# Coordination Sequence:
#
# PCOD9503415 Si02
#       8
#     8  16  16   8   8   8  16   8
#     4  12  26  44  61  90 130 160 207 250 312 376
#     4  10  20  39  66  95 123 157 209 259 324 376
#     4  10  20  37  64  92 125 169 211 262 318 377
#     4  10  22  40  62  92 132 178 218 260 314 380
#     4  12  25  43  65  88 126 168 196 249 315 362
#     4  12  25  43  67  90 124 168 204 245 303 378
#     4  11  22  41  68  96 124 159 204 254 303 358
#     4  12  24  40  68  90 120 160 204 268 312 370
#
# _framework density 18.168258000000002
#
# number of rings (size 3 to 8) (size 9 to 14) (size 15 to 20)
#    0.000    1.091    4.545    2.182    0.000    6.182 
#    0.000    1.818    0.000    0.000    0.000    0.000 
#    0.000    0.000    0.000    0.000    0.000    0.000 
#
# Total GULP energy -245963.151064 kJ/mol
# GULP energy per Si atom -5590.071615 kJ/mol
# Density = 1.812691 g / cm^3
# Si number density = 18.168258 Si / 1000 Ang^3
#
#
#
# Elastic Constant Matrix: (Units=GPa)
#
#
# Indices 1 2 3 4 5 6 
#
# 1 170.0866 76.9430 72.7848 0.0000 0.0000 0.0000
# 2 76.9430 165.3856 93.6274 0.0000 0.0000 0.0000
# 3 72.7848 93.6274 138.1473 0.0000 0.0000 0.0000
# 4 0.0000 0.0000 0.0000 84.4197 0.0000 0.0000
# 5 0.0000 0.0000 0.0000 0.0000 92.0439 0.0000
# 6 0.0000 0.0000 0.0000 0.0000 0.0000 36.2903
#
#
#
# Elastic Compliance Matrix: (Units=1/GPa)
#
#
# Indices 1 2 3 4 5 6 
#
# 1 0.008048 -0.002180 -0.002762 0.000000 0.000000 0.000000
# 2 -0.002180 0.010401 -0.005901 0.000000 0.000000 0.000000
# 3 -0.002762 -0.005901 0.012693 0.000000 0.000000 0.000000
# 4 0.000000 0.000000 0.000000 0.011846 0.000000 0.000000
# 5 0.000000 0.000000 0.000000 0.000000 0.010864 0.000000
# 6 0.000000 0.000000 0.000000 0.000000 0.000000 0.027556
#
#
# Mechanical properties :
#
#
# Convention : Reuss Voigt Hill
#
# Bulk Modulus (GPa) = 105.75789 106.70331 106.23060
# Shear Modulus (GPa) = 47.06055 57.90173 52.48114
#
# Velocity S-wave (km/s) = 5.09498 5.65145 5.38042
# Velocity P-wave (km/s) = 9.64098 10.07191 9.85880
#
# Compressibility (1/GPa) = 0.00945556
#
# Stress axis : x y z
#
# Youngs Moduli (GPa) = 124.25800 96.14270 78.78269
#
# Poissons Ratio (x) = 0.20961 0.21763
# Poissons Ratio (y) = 0.27091 0.46486
# Poissons Ratio (z) = 0.34326 0.56730
#
# Static dielectric constant tensor:
#      x y z
#    x 1.617930 0.000000 0.000000 
#    y 0.000000 1.605180 0.000000 
#    z 0.000000 0.000000 1.594220 
# 
# From -- ./inp_files/41878.got.cif
#   From: 2010.05.17/outbox.cif.g08.bks.cpg/sg67_21_cif.got.tgz:41878.got - 2010.06.03 18:28:57.
