data_PCOD9503117
_publ_section_title
;
Structure prediction by ZEFSAII (Michael W. Deem and Ramdas Pophale) SiO2 
 PCOD9503117
Probable space group: C M M A
;
_chemical_formula_sum "Si O2"
_cell_formula_units_Z 64
_cell_length_a 14.957941
_cell_length_b 8.680448
_cell_length_c 25.447341
_cell_angle_alpha 90.000000
_cell_angle_beta 90.000000
_cell_angle_gamma 90.000000
_cell_volume 3304.124210
_symmetry_space_group_name_H-M "C M M A"
_symmetry_group_IT_number 67
_symmetry_cell_setting 'orthorhombic'
loop_
_space_group_symop_operation_xyz
x,y,z
-x,1/2-y,z
x,-y,-z
-x,1/2+y,-z
-x,-y,-z
x,1/2+y,-z
-x,y,z
x,1/2-y,z
1/2+x,1/2+y,z
1/2-x,-y,z
1/2+x,1/2-y,-z
1/2-x,y,-z
1/2-x,1/2-y,-z
1/2+x,y,-z
1/2-x,1/2+y,z
1/2+x,-y,z
loop_
_atom_site_type_symbol
_atom_site_label
_atom_site_fract_x
_atom_site_fract_y
_atom_site_fract_z
Si Si1 0.649126 0.565535 0.748848
Si Si2 0.149826 0.934654 0.640277
Si Si3 0.850604 0.935155 0.134306
Si Si4 0.500000 0.566287 0.058582
Si Si5 0.000000 0.564326 0.558406
O O1 0.650267 0.750000 0.743535
O O2 0.750000 0.500000 0.750084
O O3 0.610324 0.493690 0.695854
O O4 0.612925 0.527906 0.806809
O O5 0.154215 0.750000 0.642197
O O6 0.086642 0.982812 0.592308
O O7 0.250000 0.000000 0.634503
O O8 0.848474 0.750000 0.129712
O O9 0.750000 0.000000 0.130112
O O10 0.914104 0.006118 0.090553
O O11 0.500000 0.750000 0.056974
O O12 0.500000 0.500000 0.000000
O O13 0.000000 0.500000 0.500000
O O14 0.000000 0.750000 0.556031
#
# Coordination Sequence:
#
# PCOD9503117 Si02
#       5
#    16  16  16   8   8
#     4   9  17  31  55  86 117 148 182 224 276 335
#     4  10  20  36  57  83 113 145 182 226 277 332
#     4  10  21  39  62  90 122 154 192 237 287 344
#     4  12  26  43  62  85 115 154 200 246 291 340
#     4  10  24  41  56  77 107 144 188 234 277 328
#
# _framework density 19.369731999999999
#
# number of rings (size 3 to 8) (size 9 to 14) (size 15 to 20)
#    0.000    2.000    0.000    4.875    0.000    7.000 
#    0.000    7.500    0.000    0.000    0.000    0.000 
#    0.000    0.000    0.000    0.000    0.000    0.000 
#
# Total GULP energy -178679.684706 kJ/mol
# GULP energy per Si atom -5583.740147 kJ/mol
# Density = 1.932565 g / cm^3
# Si number density = 19.369732 Si / 1000 Ang^3
#
#
#
# Elastic Constant Matrix: (Units=GPa)
#
#
# Indices 1 2 3 4 5 6 
#
# 1 114.1778 42.8731 91.9457 0.0000 0.0000 0.0000
# 2 42.8731 91.9935 76.0841 0.0000 0.0000 0.0000
# 3 91.9457 76.0841 228.1519 0.0000 0.0000 0.0000
# 4 0.0000 0.0000 0.0000 37.8366 0.0000 0.0000
# 5 0.0000 0.0000 0.0000 0.0000 35.7875 0.0000
# 6 0.0000 0.0000 0.0000 0.0000 0.0000 24.1452
#
#
#
# Elastic Compliance Matrix: (Units=1/GPa)
#
#
# Indices 1 2 3 4 5 6 
#
# 1 0.013354 -0.002448 -0.004565 0.000000 0.000000 0.000000
# 2 -0.002448 0.015459 -0.004169 0.000000 0.000000 0.000000
# 3 -0.004565 -0.004169 0.007613 0.000000 0.000000 0.000000
# 4 0.000000 0.000000 0.000000 0.026429 0.000000 0.000000
# 5 0.000000 0.000000 0.000000 0.000000 0.027943 0.000000
# 6 0.000000 0.000000 0.000000 0.000000 0.000000 0.041416
#
#
# Mechanical properties :
#
#
# Convention : Reuss Voigt Hill
#
# Bulk Modulus (GPa) = 71.11293 95.12543 83.11918
# Shear Modulus (GPa) = 31.39422 34.44856 32.92139
#
# Velocity S-wave (km/s) = 4.03027 4.22177 4.12713
# Velocity P-wave (km/s) = 7.64530 8.54292 8.10654
#
# Compressibility (1/GPa) = 0.01406214
#
# Stress axis : x y z
#
# Youngs Moduli (GPa) = 74.88531 64.68759 131.35221
#
# Poissons Ratio (x) = 0.15833 0.59967
# Poissons Ratio (y) = 0.18329 0.54759
# Poissons Ratio (z) = 0.34188 0.26967
#
# Static dielectric constant tensor:
#      x y z
#    x 1.674740 0.000000 0.000000 
#    y 0.000000 1.646600 0.000000 
#    z 0.000000 0.000000 1.684270 
# 
# From -- ./inp_files/41719.got.cif
#   From: 2010.05.17/outbox.cif.g08.bks.cpg/sg67_21_cif.got.tgz:41719.got - 2010.06.03 18:28:57.
