data_PCOD9503259
_publ_section_title
;
Structure prediction by ZEFSAII (Michael W. Deem and Ramdas Pophale) SiO2 
 PCOD9503259
Probable space group: C M M A
;
_chemical_formula_sum "Si O2"
_cell_formula_units_Z 64
_cell_length_a 8.769545
_cell_length_b 15.670597
_cell_length_c 23.966336
_cell_angle_alpha 90.000000
_cell_angle_beta 90.000000
_cell_angle_gamma 90.000000
_cell_volume 3293.549892
_symmetry_space_group_name_H-M "C M M A"
_symmetry_group_IT_number 67
_symmetry_cell_setting 'orthorhombic'
loop_
_space_group_symop_operation_xyz
x,y,z
-x,1/2-y,z
x,-y,-z
-x,1/2+y,-z
-x,-y,-z
x,1/2+y,-z
-x,y,z
x,1/2-y,z
1/2+x,1/2+y,z
1/2-x,-y,z
1/2+x,1/2-y,-z
1/2-x,y,-z
1/2-x,1/2-y,-z
1/2+x,y,-z
1/2-x,1/2+y,z
1/2+x,-y,z
loop_
_atom_site_type_symbol
_atom_site_label
_atom_site_fract_x
_atom_site_fract_y
_atom_site_fract_z
Si Si1 0.680796 0.750000 0.371722
Si Si2 0.316720 0.591845 0.562003
Si Si3 0.821305 0.353210 0.059339
Si Si4 0.181196 0.910319 0.174845
Si Si5 0.179723 0.750000 0.761331
O O1 0.500000 0.750000 0.384877
O O2 0.758600 0.833169 0.398309
O O3 0.698149 0.750000 0.305130
O O4 0.500000 0.588817 0.559790
O O5 0.250000 0.500000 0.579837
O O6 0.250000 0.607865 0.500000
O O7 0.807873 0.250000 0.064085
O O8 0.735240 0.393776 0.111420
O O9 0.000000 0.374981 0.061437
O O10 0.750000 0.378163 0.000000
O O11 0.245218 0.833105 0.211556
O O12 0.000000 0.912282 0.177282
O O13 0.250000 0.000000 0.194034
O O14 0.000000 0.750000 0.775023
#
# Coordination Sequence:
#
# PCOD9503259 Si02
#       5
#     8  16  16  16   8
#     4  11  24  42  65  92 125 166 211 258 309 367
#     4  11  22  39  64  95 132 169 209 255 308 366
#     4  10  20  36  61  91 126 160 199 249 307 371
#     4  12  25  42  66  92 123 162 207 255 311 372
#     4  11  25  46  67  90 123 162 209 262 312 365
#
# _framework density 19.431920999999999
#
# number of rings (size 3 to 8) (size 9 to 14) (size 15 to 20)
#    0.000    1.000    1.250    7.125    0.000    4.500 
#    0.000    2.500    0.000    0.000    0.000    0.000 
#    0.000    0.000    0.000    0.000    0.000    0.000 
#
# Total GULP energy -179132.768665 kJ/mol
# GULP energy per Si atom -5597.899021 kJ/mol
# Density = 1.938769 g / cm^3
# Si number density = 19.431921 Si / 1000 Ang^3
#
#
#
# Elastic Constant Matrix: (Units=GPa)
#
#
# Indices 1 2 3 4 5 6 
#
# 1 225.2891 106.5798 81.1934 0.0000 0.0000 0.0000
# 2 106.5798 159.1423 80.9872 0.0000 0.0000 0.0000
# 3 81.1934 80.9872 77.2959 0.0000 0.0000 0.0000
# 4 0.0000 0.0000 0.0000 -20.0668 0.0000 0.0000
# 5 0.0000 0.0000 0.0000 0.0000 30.0308 0.0000
# 6 0.0000 0.0000 0.0000 0.0000 0.0000 35.8104
#
#
#
# Elastic Compliance Matrix: (Units=1/GPa)
#
#
# Indices 1 2 3 4 5 6 
#
# 1 0.007475 -0.002164 -0.005584 0.000000 0.000000 0.000000
# 2 -0.002164 0.014088 -0.012487 0.000000 0.000000 0.000000
# 3 -0.005584 -0.012487 0.031887 0.000000 0.000000 0.000000
# 4 0.000000 0.000000 0.000000 -0.049834 0.000000 0.000000
# 5 0.000000 0.000000 0.000000 0.000000 0.033299 0.000000
# 6 0.000000 0.000000 0.000000 0.000000 0.000000 0.027925
#
#
# Mechanical properties :
#
#
# Convention : Reuss Voigt Hill
#
# Bulk Modulus (GPa) = 77.05345 111.02757 94.04051
# Shear Modulus (GPa) = 45.60443 22.01934 33.81189
#
# Velocity S-wave (km/s) = 4.84972 3.36989 4.17588
# Velocity P-wave (km/s) = 8.43201 8.50895 8.47057
#
# Compressibility (1/GPa) = 0.01297800
#
# Stress axis : x y z
#
# Youngs Moduli (GPa) = 133.77399 70.98299 31.36089
#
# Poissons Ratio (x) = 0.15363 0.17513
# Poissons Ratio (y) = 0.28954 0.39161
# Poissons Ratio (z) = 0.74706 0.88637
#
# Static dielectric constant tensor:
#      x y z
#    x 1.644860 0.000000 0.000000 
#    y 0.000000 1.673960 0.000000 
#    z 0.000000 0.000000 1.644590 
# 
# From -- ./inp_files/40426.got.cif
#   From: 2010.05.17/outbox.cif.g08.bks.cpg/sg67_21_cif.got.tgz:40426.got - 2010.06.03 18:28:57.
