data_PCOD9503568
_publ_section_title
;
Structure prediction by ZEFSAII (Michael W. Deem and Ramdas Pophale) SiO2 
 PCOD9503568
Probable space group: C M M A
;
_chemical_formula_sum "Si O2"
_cell_formula_units_Z 72
_cell_length_a 28.515198
_cell_length_b 15.867524
_cell_length_c 8.399938
_cell_angle_alpha 90.000000
_cell_angle_beta 90.000000
_cell_angle_gamma 90.000000
_cell_volume 3800.682892
_symmetry_space_group_name_H-M "C M M A"
_symmetry_group_IT_number 67
_symmetry_cell_setting 'orthorhombic'
loop_
_space_group_symop_operation_xyz
x,y,z
-x,1/2-y,z
x,-y,-z
-x,1/2+y,-z
-x,-y,-z
x,1/2+y,-z
-x,y,z
x,1/2-y,z
1/2+x,1/2+y,z
1/2-x,-y,z
1/2+x,1/2-y,-z
1/2-x,y,-z
1/2-x,1/2-y,-z
1/2+x,y,-z
1/2-x,1/2+y,z
1/2+x,-y,z
loop_
_atom_site_type_symbol
_atom_site_label
_atom_site_fract_x
_atom_site_fract_y
_atom_site_fract_z
Si Si1 0.220727 0.750000 0.662873
Si Si2 0.630679 0.152095 0.160558
Si Si3 0.555305 0.250000 0.594019
Si Si4 0.265788 0.088055 0.183481
Si Si5 0.443802 0.417013 0.393067
Si Si6 0.127798 0.250000 0.151423
O O1 0.250000 0.750000 0.500000
O O2 0.238701 0.833706 0.746172
O O3 0.165247 0.750000 0.703998
O O4 0.630374 0.250000 0.223190
O O5 0.679186 0.106276 0.200627
O O6 0.587918 0.099323 0.236063
O O7 0.631400 0.170580 0.969913
O O8 0.500000 0.250000 0.609481
O O9 0.567460 0.164994 0.499691
O O10 0.578231 0.250000 0.765492
O O11 0.250000 0.000000 0.258045
O O12 0.250000 0.086030 0.000000
O O13 0.433443 0.500000 0.500000
O O14 0.500000 0.417925 0.357459
#
# Coordination Sequence:
#
# PCOD9503568 Si02
#       6
#     8  16   8  16  16   8
#     4  12  24  39  60  88 135 165 215 275 324 387
#     4  10  20  40  67  89 122 171 222 262 318 407
#     4  10  21  39  60  90 129 162 206 270 332 383
#     4  11  22  42  64  88 124 169 213 266 325 391
#     4  10  22  41  66  96 130 172 219 272 338 406
#     4  10  22  37  65  93 122 174 223 264 334 394
#
# _framework density 18.943964000000001
#
# number of rings (size 3 to 8) (size 9 to 14) (size 15 to 20)
#    0.667    0.889    4.444    0.333    3.111    3.111 
#    0.000    0.000    0.000    4.000    0.000    0.000 
#    0.000    0.000    0.000    0.000    0.000    0.000 
#
# Total GULP energy -200437.952996 kJ/mol
# GULP energy per Si atom -5567.720917 kJ/mol
# Density = 1.890085 g / cm^3
# Si number density = 18.943964 Si / 1000 Ang^3
#
#
#
# Elastic Constant Matrix: (Units=GPa)
#
#
# Indices 1 2 3 4 5 6 
#
# 1 36.9085 27.3204 20.3496 0.0000 0.0000 0.0000
# 2 27.3204 128.4348 27.9560 0.0000 0.0000 0.0000
# 3 20.3496 27.9560 49.5025 0.0000 0.0000 0.0000
# 4 0.0000 0.0000 0.0000 7.7155 0.0000 0.0000
# 5 0.0000 0.0000 0.0000 0.0000 38.0484 0.0000
# 6 0.0000 0.0000 0.0000 0.0000 0.0000 27.4630
#
#
#
# Elastic Compliance Matrix: (Units=1/GPa)
#
#
# Indices 1 2 3 4 5 6 
#
# 1 0.037995 -0.005339 -0.012604 0.000000 0.000000 0.000000
# 2 -0.005339 0.009627 -0.003242 0.000000 0.000000 0.000000
# 3 -0.012604 -0.003242 0.027213 0.000000 0.000000 0.000000
# 4 0.000000 0.000000 0.000000 0.129609 0.000000 0.000000
# 5 0.000000 0.000000 0.000000 0.000000 0.026282 0.000000
# 6 0.000000 0.000000 0.000000 0.000000 0.000000 0.036413
#
#
# Mechanical properties :
#
#
# Convention : Reuss Voigt Hill
#
# Bulk Modulus (GPa) = 30.80185 40.67754 35.73969
# Shear Modulus (GPa) = 15.60878 23.92669 19.76774
#
# Velocity S-wave (km/s) = 2.87356 3.55776 3.23381
# Velocity P-wave (km/s) = 5.22537 6.19646 5.73152
#
# Compressibility (1/GPa) = 0.03246559
#
# Stress axis : x y z
#
# Youngs Moduli (GPa) = 26.31909 103.86970 36.74657
#
# Poissons Ratio (x) = 0.55453 0.46316
# Poissons Ratio (y) = 0.14051 0.11914
# Poissons Ratio (z) = 0.33173 0.33678
#
# Static dielectric constant tensor:
#      x y z
#    x 1.689850 0.000000 0.000000 
#    y 0.000000 1.744140 0.000000 
#    z 0.000000 0.000000 1.680740 
# 
# From -- ./inp_files/13360.got.cif
#   From: 2010.05.17/outbox.cif.g08.bks.cpg/sg67_7_cif.got.tgz:13360.got - 2010.06.03 18:28:57.
