data_PCOD9503870
_publ_section_title
;
Structure prediction by ZEFSAII (Michael W. Deem and Ramdas Pophale) SiO2 
 PCOD9503870
Probable space group: C M M A
;
_chemical_formula_sum "Si O2"
_cell_formula_units_Z 96
_cell_length_a 20.206548
_cell_length_b 8.773650
_cell_length_c 30.700927
_cell_angle_alpha 90.000000
_cell_angle_beta 90.000000
_cell_angle_gamma 90.000000
_cell_volume 5442.819365
_symmetry_space_group_name_H-M "C M M A"
_symmetry_group_IT_number 67
_symmetry_cell_setting 'orthorhombic'
loop_
_space_group_symop_operation_xyz
x,y,z
-x,1/2-y,z
x,-y,-z
-x,1/2+y,-z
-x,-y,-z
x,1/2+y,-z
-x,y,z
x,1/2-y,z
1/2+x,1/2+y,z
1/2-x,-y,z
1/2+x,1/2-y,-z
1/2-x,y,-z
1/2-x,1/2-y,-z
1/2+x,y,-z
1/2-x,1/2+y,z
1/2+x,-y,z
loop_
_atom_site_type_symbol
_atom_site_label
_atom_site_fract_x
_atom_site_fract_y
_atom_site_fract_z
Si Si1 0.922744 0.932349 0.547182
Si Si2 0.322418 0.067469 0.282011
Si Si3 0.322329 0.932317 0.616753
Si Si4 0.077456 0.931896 0.787722
Si Si5 0.322024 0.567534 0.047676
Si Si6 0.422110 0.568109 0.882610
O O1 0.916715 0.750000 0.545959
O O2 0.000000 0.971153 0.555122
O O3 0.904619 0.000000 0.500000
O O4 0.876380 0.999689 0.584429
O O5 0.320816 0.250000 0.277664
O O6 0.337238 0.030099 0.332641
O O7 0.250000 0.000000 0.272092
O O8 0.376195 0.997698 0.249776
O O9 0.320263 0.750000 0.612609
O O10 0.250000 0.000000 0.606745
O O11 0.085682 0.750000 0.791140
O O12 0.000000 0.963723 0.778439
O O13 0.093395 0.008174 0.834163
O O14 0.318350 0.750000 0.045368
O O15 0.250000 0.500000 0.059658
O O16 0.376095 0.513865 0.082350
O O17 0.338110 0.500000 0.000000
O O18 0.500000 0.536116 0.890654
O O19 0.412389 0.750000 0.884718
#
# Coordination Sequence:
#
# PCOD9503870 Si02
#       6
#    16  16  16  16  16  16
#     4  10  21  37  57  81 110 143 180 223 270 321
#     4  10  21  37  57  81 110 144 182 225 272 322
#     4  10  21  37  57  81 110 143 181 225 271 322
#     4  10  21  37  57  82 112 145 182 225 272 323
#     4  11  22  38  59  83 113 146 184 227 273 325
#     4  10  21  38  59  83 112 145 183 227 274 324
#
# _framework density 17.637917999999999
#
# number of rings (size 3 to 8) (size 9 to 14) (size 15 to 20)
#    0.000    1.833    0.000    4.500    0.000    7.000 
#    0.000    8.333    0.000    0.000    0.000    0.000 
#    0.000    0.000    0.000    0.000    0.000    0.000 
#
# Total GULP energy -268182.828769 kJ/mol
# GULP energy per Si atom -5587.142266 kJ/mol
# Density = 1.759777 g / cm^3
# Si number density = 17.637918 Si / 1000 Ang^3
#
#
#
# Elastic Constant Matrix: (Units=GPa)
#
#
# Indices 1 2 3 4 5 6 
#
# 1 113.4957 74.1056 114.0417 0.0000 0.0000 0.0000
# 2 74.1056 107.8574 78.4138 0.0000 0.0000 0.0000
# 3 114.0417 78.4138 135.3802 0.0000 0.0000 0.0000
# 4 0.0000 0.0000 0.0000 34.0179 0.0000 0.0000
# 5 0.0000 0.0000 0.0000 0.0000 45.2606 0.0000
# 6 0.0000 0.0000 0.0000 0.0000 0.0000 33.4407
#
#
#
# Elastic Compliance Matrix: (Units=1/GPa)
#
#
# Indices 1 2 3 4 5 6 
#
# 1 0.061009 -0.007867 -0.046836 0.000000 0.000000 0.000000
# 2 -0.007867 0.017030 -0.003237 0.000000 0.000000 0.000000
# 3 -0.046836 -0.003237 0.048715 0.000000 0.000000 0.000000
# 4 0.000000 0.000000 0.000000 0.029396 0.000000 0.000000
# 5 0.000000 0.000000 0.000000 0.000000 0.022094 0.000000
# 6 0.000000 0.000000 0.000000 0.000000 0.000000 0.029904
#
#
# Mechanical properties :
#
#
# Convention : Reuss Voigt Hill
#
# Bulk Modulus (GPa) = 91.96126 98.87282 95.41704
# Shear Modulus (GPa) = 15.26003 28.55534 21.90768
#
# Velocity S-wave (km/s) = 2.94459 4.02801 3.52814
# Velocity P-wave (km/s) = 7.98827 8.82110 8.41499
#
# Compressibility (1/GPa) = 0.01087414
#
# Stress axis : x y z
#
# Youngs Moduli (GPa) = 16.39104 58.71991 20.52738
#
# Poissons Ratio (x) = 0.46194 0.96142
# Poissons Ratio (y) = 0.12895 0.06645
# Poissons Ratio (z) = 0.76769 0.19008
#
# Static dielectric constant tensor:
#      x y z
#    x 1.574770 0.000000 0.000000 
#    y 0.000000 1.586450 0.000000 
#    z 0.000000 0.000000 1.570810 
# 
# From -- ./inp_files/43484.got.cif
#   From: 2010.05.17/outbox.cif.g08.bks.cpg/sg67_22_cif.got.tgz:43484.got - 2010.06.03 18:28:57.
