data_PCOD9503206
_publ_section_title
;
Structure prediction by ZEFSAII (Michael W. Deem and Ramdas Pophale) SiO2 
 PCOD9503206
Probable space group: C M M A
;
_chemical_formula_sum "Si O2"
_cell_formula_units_Z 96
_cell_length_a 13.849177
_cell_length_b 13.113994
_cell_length_c 23.489007
_cell_angle_alpha 90.000000
_cell_angle_beta 90.000000
_cell_angle_gamma 90.000000
_cell_volume 4266.027039
_symmetry_space_group_name_H-M "C M M A"
_symmetry_group_IT_number 67
_symmetry_cell_setting 'orthorhombic'
loop_
_space_group_symop_operation_xyz
x,y,z
-x,1/2-y,z
x,-y,-z
-x,1/2+y,-z
-x,-y,-z
x,1/2+y,-z
-x,y,z
x,1/2-y,z
1/2+x,1/2+y,z
1/2-x,-y,z
1/2+x,1/2-y,-z
1/2-x,y,-z
1/2-x,1/2-y,-z
1/2+x,y,-z
1/2-x,1/2+y,z
1/2+x,-y,z
loop_
_atom_site_type_symbol
_atom_site_label
_atom_site_fract_x
_atom_site_fract_y
_atom_site_fract_z
Si Si1 0.201104 0.873231 0.152310
Si Si2 0.611006 0.024233 0.623817
Si Si3 0.390232 0.125608 0.905969
Si Si4 0.717402 0.136470 0.434730
Si Si5 0.615975 0.630543 0.967505
Si Si6 0.115508 0.868722 0.273073
O O1 0.191101 0.750000 0.152321
O O2 0.313083 0.898647 0.142342
O O3 0.149041 0.908391 0.094027
O O4 0.159985 0.902588 0.213050
O O5 0.500000 0.059650 0.626224
O O6 0.630023 0.940648 0.574909
O O7 0.633959 0.955761 0.679736
O O8 0.692327 0.106532 0.606516
O O9 0.500000 0.091386 0.896294
O O10 0.393472 0.250000 0.908646
O O11 0.354744 0.093291 0.969355
O O12 0.685674 0.250000 0.421920
O O13 0.750000 0.130378 0.500000
O O14 0.500000 0.624606 0.969109
O O15 0.644299 0.750000 0.967136
O O16 0.146778 0.750000 0.285911
O O17 0.000000 0.864032 0.266948
#
# Coordination Sequence:
#
# PCOD9503206 Si02
#       6
#    16  16  16  16  16  16
#     4   9  14  20  32  50  78 121 175 236 294 344
#     4  10  20  36  59  87 123 164 202 244 294 343
#     4   8  13  19  27  43  70 110 167 231 291 355
#     4  10  22  39  61  93 128 160 199 243 286 342
#     4   8  12  17  26  43  70 107 158 225 295 356
#     4   9  17  28  44  69 100 140 194 247 293 347
#
# _framework density 22.503374999999998
#
# number of rings (size 3 to 8) (size 9 to 14) (size 15 to 20)
#    0.000    3.000    0.000    3.500    0.000    6.667 
#    0.000    1.667    0.000    4.000    0.000    4.667 
#    0.000    0.000    0.000   12.000    0.000  151.333 
#
# Total GULP energy -267971.941486 kJ/mol
# GULP energy per Si atom -5582.748781 kJ/mol
# Density = 2.245216 g / cm^3
# Si number density = 22.503375 Si / 1000 Ang^3
#
#
#
# Elastic Constant Matrix: (Units=GPa)
#
#
# Indices 1 2 3 4 5 6 
#
# 1 64.6468 -24.0224 26.2149 0.0000 0.0000 0.0000
# 2 -24.0224 49.9742 -5.3357 0.0000 0.0000 0.0000
# 3 26.2149 -5.3357 116.7651 0.0000 0.0000 0.0000
# 4 0.0000 0.0000 0.0000 10.0949 0.0000 0.0000
# 5 0.0000 0.0000 0.0000 0.0000 32.9516 0.0000
# 6 0.0000 0.0000 0.0000 0.0000 0.0000 5.0284
#
#
#
# Elastic Compliance Matrix: (Units=1/GPa)
#
#
# Indices 1 2 3 4 5 6 
#
# 1 0.020710 0.009505 -0.004215 0.000000 0.000000 0.000000
# 2 0.009505 0.024471 -0.001016 0.000000 0.000000 0.000000
# 3 -0.004215 -0.001016 0.009464 0.000000 0.000000 0.000000
# 4 0.000000 0.000000 0.000000 0.099060 0.000000 0.000000
# 5 0.000000 0.000000 0.000000 0.000000 0.030348 0.000000
# 6 0.000000 0.000000 0.000000 0.000000 0.000000 0.198868
#
#
# Mechanical properties :
#
#
# Convention : Reuss Voigt Hill
#
# Bulk Modulus (GPa) = 15.82438 25.01106 20.41772
# Shear Modulus (GPa) = 12.64423 25.25027 18.94725
#
# Velocity S-wave (km/s) = 2.37298 3.35336 2.90483
# Velocity P-wave (km/s) = 3.81514 5.11193 4.51038
#
# Compressibility (1/GPa) = 0.06319362
#
# Stress axis : x y z
#
# Youngs Moduli (GPa) = 48.28561 40.86466 105.66182
#
# Poissons Ratio (x) = -0.38843 0.44539
# Poissons Ratio (y) = -0.45897 0.10733
# Poissons Ratio (z) = 0.20354 0.04151
#
# Static dielectric constant tensor:
#      x y z
#    x 1.816100 0.000000 0.000000 
#    y 0.000000 1.957590 0.000000 
#    z 0.000000 0.000000 1.812630 
# 
# From -- ./inp_files/38417.got.cif
#   From: 2010.05.17/outbox.cif.g08.bks.cpg/sg67_20_cif.got.tgz:38417.got - 2010.06.03 18:28:57.
