data_PCOD9503482
_publ_section_title
;
Structure prediction by ZEFSAII (Michael W. Deem and Ramdas Pophale) SiO2 
 PCOD9503482
Probable space group: C M M A
;
_chemical_formula_sum "Si O2"
_cell_formula_units_Z 52
_cell_length_a 30.971246
_cell_length_b 17.349671
_cell_length_c 5.060970
_cell_angle_alpha 90.000000
_cell_angle_beta 90.000000
_cell_angle_gamma 90.000000
_cell_volume 2719.466319
_symmetry_space_group_name_H-M "C M M A"
_symmetry_group_IT_number 67
_symmetry_cell_setting 'orthorhombic'
loop_
_space_group_symop_operation_xyz
x,y,z
-x,1/2-y,z
x,-y,-z
-x,1/2+y,-z
-x,-y,-z
x,1/2+y,-z
-x,y,z
x,1/2-y,z
1/2+x,1/2+y,z
1/2-x,-y,z
1/2+x,1/2-y,-z
1/2-x,y,-z
1/2-x,1/2-y,-z
1/2+x,y,-z
1/2-x,1/2+y,z
1/2+x,-y,z
loop_
_atom_site_type_symbol
_atom_site_label
_atom_site_fract_x
_atom_site_fract_y
_atom_site_fract_z
Si Si1 0.092832 0.840147 0.622516
Si Si2 0.666492 0.050745 0.740126
Si Si3 0.449354 0.085455 0.108210
Si Si4 0.250000 0.000000 0.500000
O O1 0.094548 0.750000 0.563748
O O2 0.139044 0.871909 0.727888
O O3 0.076904 0.885815 0.362713
O O4 0.060386 0.858639 0.862501
O O5 0.717585 0.052648 0.672026
O O6 0.648391 0.000000 0.500000
O O7 0.661578 0.000000 0.000000
O O8 0.500000 0.084452 0.176019
O O9 0.437743 0.000000 0.000000
#
# Coordination Sequence:
#
# PCOD9503482 Si02
#       4
#    16  16  16   4
#     4  12  24  38  61  94 128 164 198 251 316 358
#     4  10  20  38  63  88 116 153 208 247 297 365
#     4  11  24  42  63  88 121 167 217 253 289 353
#     4   8  22  36  68  92 104 160 208 248 298 360
#
# _framework density 19.121397999999999
#
# number of rings (size 3 to 8) (size 9 to 14) (size 15 to 20)
#    0.923    0.308    0.000    7.846    0.000    6.154 
#    0.000    0.769    0.000    1.846    0.000    0.000 
#    0.000    0.000    0.000    0.000    0.000    0.000 
#
# Total GULP energy -144995.946872 kJ/mol
# GULP energy per Si atom -5576.767187 kJ/mol
# Density = 1.907788 g / cm^3
# Si number density = 19.121398 Si / 1000 Ang^3
#
#
#
# Elastic Constant Matrix: (Units=GPa)
#
#
# Indices 1 2 3 4 5 6 
#
# 1 133.5274 67.4968 43.0080 0.0000 0.0000 0.0000
# 2 67.4968 108.4824 44.2555 0.0000 0.0000 0.0000
# 3 43.0080 44.2555 149.7189 0.0000 0.0000 0.0000
# 4 0.0000 0.0000 0.0000 22.2745 0.0000 0.0000
# 5 0.0000 0.0000 0.0000 0.0000 30.3050 0.0000
# 6 0.0000 0.0000 0.0000 0.0000 0.0000 13.5531
#
#
#
# Elastic Compliance Matrix: (Units=1/GPa)
#
#
# Indices 1 2 3 4 5 6 
#
# 1 0.011147 -0.006401 -0.001310 0.000000 0.000000 0.000000
# 2 -0.006401 0.014158 -0.002346 0.000000 0.000000 0.000000
# 3 -0.001310 -0.002346 0.007749 0.000000 0.000000 0.000000
# 4 0.000000 0.000000 0.000000 0.044894 0.000000 0.000000
# 5 0.000000 0.000000 0.000000 0.000000 0.032998 0.000000
# 6 0.000000 0.000000 0.000000 0.000000 0.000000 0.073784
#
#
# Mechanical properties :
#
#
# Convention : Reuss Voigt Hill
#
# Bulk Modulus (GPa) = 77.28369 77.91657 77.60013
# Shear Modulus (GPa) = 23.90554 29.02442 26.46498
#
# Velocity S-wave (km/s) = 3.53965 3.90025 3.72432
# Velocity P-wave (km/s) = 7.56377 7.81789 7.69188
#
# Compressibility (1/GPa) = 0.01293934
#
# Stress axis : x y z
#
# Youngs Moduli (GPa) = 89.71326 70.63225 129.04936
#
# Poissons Ratio (x) = 0.45211 0.16904
# Poissons Ratio (y) = 0.57425 0.30277
# Poissons Ratio (z) = 0.11752 0.16572
#
# Static dielectric constant tensor:
#      x y z
#    x 1.700080 0.000000 0.000000 
#    y 0.000000 1.618260 0.000000 
#    z 0.000000 0.000000 1.661620 
# 
# From -- ./inp_files/3891.got.cif
#   From: 2010.05.17/outbox.cif.g08.bks.cpg/sg67_2_cif.got.tgz:3891.got - 2010.06.03 18:28:57.
