data_PCOD9503434
_publ_section_title
;
Structure prediction by ZEFSAII (Michael W. Deem and Ramdas Pophale) SiO2 
 PCOD9503434
Probable space group: C M M A
;
_chemical_formula_sum "Si O2"
_cell_formula_units_Z 112
_cell_length_a 16.966729
_cell_length_b 30.245927
_cell_length_c 11.220482
_cell_angle_alpha 90.000000
_cell_angle_beta 90.000000
_cell_angle_gamma 90.000000
_cell_volume 5758.064643
_symmetry_space_group_name_H-M "C M M A"
_symmetry_group_IT_number 67
_symmetry_cell_setting 'orthorhombic'
loop_
_space_group_symop_operation_xyz
x,y,z
-x,1/2-y,z
x,-y,-z
-x,1/2+y,-z
-x,-y,-z
x,1/2+y,-z
-x,y,z
x,1/2-y,z
1/2+x,1/2+y,z
1/2-x,-y,z
1/2+x,1/2-y,-z
1/2-x,y,-z
1/2-x,1/2-y,-z
1/2+x,y,-z
1/2-x,1/2+y,z
1/2+x,-y,z
loop_
_atom_site_type_symbol
_atom_site_label
_atom_site_fract_x
_atom_site_fract_y
_atom_site_fract_z
Si Si1 0.094288 0.431288 0.704023
Si Si2 0.087772 0.456530 0.054587
Si Si3 0.410670 0.530719 0.335707
Si Si4 0.093924 0.301052 0.792985
Si Si5 0.168619 0.117373 0.926765
Si Si6 0.342054 0.888690 0.474931
Si Si7 0.905125 0.799394 0.488187
O O1 0.115821 0.479867 0.652776
O O2 0.150894 0.415755 0.812619
O O3 0.108893 0.398467 0.595168
O O4 0.000000 0.431715 0.735094
O O5 0.086309 0.463065 0.194423
O O6 0.000000 0.457388 0.002846
O O7 0.130347 0.500000 0.000000
O O8 0.117786 0.408345 0.024462
O O9 0.500000 0.534343 0.384396
O O10 0.360796 0.570355 0.389447
O O11 0.105888 0.250000 0.829398
O O12 0.139304 0.336124 0.874483
O O13 0.116263 0.303762 0.652672
O O14 0.000000 0.310690 0.799790
O O15 0.250000 0.121381 0.000000
O O16 0.250000 0.888101 0.500000
O O17 0.368691 0.839656 0.437840
O O18 0.880836 0.750000 0.526622
O O19 0.000000 0.801666 0.494449
#
# Coordination Sequence:
#
# PCOD9503434 Si02
#       7
#    16  16  16  16  16  16  16
#     4  11  22  42  65  85 118 168 216 256 306 374
#     4  10  20  38  59  82 113 158 209 251 293 364
#     4  10  22  39  61  85 116 162 216 255 297 365
#     4   9  18  36  64  92 117 155 209 260 306 371
#     4  12  24  35  59  92 126 158 201 256 322 368
#     4  12  25  37  58  91 131 160 200 258 328 374
#     4   9  18  36  65  93 116 156 214 262 306 375
#
# _framework density 19.450980999999999
#
# number of rings (size 3 to 8) (size 9 to 14) (size 15 to 20)
#    0.000    1.571    2.857    3.857    2.000    3.143 
#    0.000    0.000    0.000    0.857    0.000    4.000 
#    0.000    0.000    0.000    0.000    0.000    0.000 
#
# Total GULP energy -312091.905886 kJ/mol
# GULP energy per Si atom -5573.069748 kJ/mol
# Density = 1.940671 g / cm^3
# Si number density = 19.450981 Si / 1000 Ang^3
#
#
#
# Elastic Constant Matrix: (Units=GPa)
#
#
# Indices 1 2 3 4 5 6 
#
# 1 57.1844 51.3944 12.8006 0.0000 0.0000 0.0000
# 2 51.3944 173.8509 21.4416 0.0000 0.0000 0.0000
# 3 12.8006 21.4416 35.9857 0.0000 0.0000 0.0000
# 4 0.0000 0.0000 0.0000 32.8552 0.0000 0.0000
# 5 0.0000 0.0000 0.0000 0.0000 2.5372 0.0000
# 6 0.0000 0.0000 0.0000 0.0000 0.0000 57.7207
#
#
#
# Elastic Compliance Matrix: (Units=1/GPa)
#
#
# Indices 1 2 3 4 5 6 
#
# 1 0.024547 -0.006670 -0.004757 0.000000 0.000000 0.000000
# 2 -0.006670 0.008021 -0.002406 0.000000 0.000000 0.000000
# 3 -0.004757 -0.002406 0.030915 0.000000 0.000000 0.000000
# 4 0.000000 0.000000 0.000000 0.030437 0.000000 0.000000
# 5 0.000000 0.000000 0.000000 0.000000 0.394128 0.000000
# 6 0.000000 0.000000 0.000000 0.000000 0.000000 0.017325
#
#
# Mechanical properties :
#
#
# Convention : Reuss Voigt Hill
#
# Bulk Modulus (GPa) = 27.92138 48.69935 38.31036
# Shear Modulus (GPa) = 9.17469 30.71492 19.94480
#
# Velocity S-wave (km/s) = 2.17418 3.97809 3.20564
# Velocity P-wave (km/s) = 4.54848 6.79644 5.78274
#
# Compressibility (1/GPa) = 0.03581485
#
# Stress axis : x y z
#
# Youngs Moduli (GPa) = 40.73862 124.67885 32.34675
#
# Poissons Ratio (x) = 0.83159 0.15389
# Poissons Ratio (y) = 0.27172 0.07784
# Poissons Ratio (z) = 0.19381 0.30003
#
# Static dielectric constant tensor:
#      x y z
#    x 1.624860 0.000000 0.000000 
#    y 0.000000 1.716680 0.000000 
#    z 0.000000 0.000000 1.707700 
# 
# From -- ./inp_files/18652.got.cif
#   From: 2010.05.17/outbox.cif.g08.bks.cpg/sg67_10_cif.got.tgz:18652.got - 2010.06.03 18:28:57.
