data_PCOD9503084
_publ_section_title
;
Structure prediction by ZEFSAII (Michael W. Deem and Ramdas Pophale) SiO2 
 PCOD9503084
Probable space group: C M M A
;
_chemical_formula_sum "Si O2"
_cell_formula_units_Z 96
_cell_length_a 15.158786
_cell_length_b 22.601316
_cell_length_c 12.835297
_cell_angle_alpha 90.000000
_cell_angle_beta 90.000000
_cell_angle_gamma 90.000000
_cell_volume 4397.482013
_symmetry_space_group_name_H-M "C M M A"
_symmetry_group_IT_number 67
_symmetry_cell_setting 'orthorhombic'
loop_
_space_group_symop_operation_xyz
x,y,z
-x,1/2-y,z
x,-y,-z
-x,1/2+y,-z
-x,-y,-z
x,1/2+y,-z
-x,y,z
x,1/2-y,z
1/2+x,1/2+y,z
1/2-x,-y,z
1/2+x,1/2-y,-z
1/2-x,y,-z
1/2-x,1/2-y,-z
1/2+x,y,-z
1/2-x,1/2+y,z
1/2+x,-y,z
loop_
_atom_site_type_symbol
_atom_site_label
_atom_site_fract_x
_atom_site_fract_y
_atom_site_fract_z
Si Si1 0.099116 0.679430 0.140196
Si Si2 0.606136 0.976782 0.617614
Si Si3 0.391385 0.681609 0.089775
Si Si4 0.626769 0.315119 0.579443
Si Si5 0.597898 0.911395 0.257232
Si Si6 0.674588 0.847624 0.637209
O O1 0.092053 0.750000 0.130710
O O2 0.150510 0.667525 0.245430
O O3 0.000000 0.654466 0.152072
O O4 0.134952 0.662016 0.026784
O O5 0.500000 0.965338 0.632516
O O6 0.662989 0.917824 0.627786
O O7 0.616250 0.000000 0.500000
O O8 0.635240 0.027159 0.699991
O O9 0.500000 0.683174 0.092745
O O10 0.362615 0.750000 0.110497
O O11 0.359834 0.632831 0.172743
O O12 0.598245 0.250000 0.614281
O O13 0.588102 0.369837 0.641465
O O14 0.614191 0.321495 0.455684
O O15 0.729832 0.322948 0.607980
O O16 0.500000 0.925763 0.216344
#
# Coordination Sequence:
#
# PCOD9503084 Si02
#       6
#    16  16  16  16  16  16
#     4   9  17  31  54  81 108 144 186 227 278 336
#     4  10  20  36  56  80 108 142 186 228 267 324
#     4   8  15  30  53  80 109 141 180 228 281 333
#     4  11  23  36  53  80 111 144 183 227 278 337
#     4  10  20  36  56  80 109 141 184 235 275 319
#     4  11  21  36  52  74 113 146 177 226 276 327
#
# _framework density 21.830674999999999
#
# number of rings (size 3 to 8) (size 9 to 14) (size 15 to 20)
#    0.000    2.167    1.667    4.000    0.000    2.333 
#    0.000    1.667    0.000    7.000    0.000    2.333 
#    0.000    0.000    0.000    0.000    0.000    0.000 
#
# Total GULP energy -267829.098013 kJ/mol
# GULP energy per Si atom -5579.772875 kJ/mol
# Density = 2.178099 g / cm^3
# Si number density = 21.830675 Si / 1000 Ang^3
#
#
#
# Elastic Constant Matrix: (Units=GPa)
#
#
# Indices 1 2 3 4 5 6 
#
# 1 48.5203 9.0137 18.7456 0.0000 0.0000 0.0000
# 2 9.0137 116.3586 29.0556 0.0000 0.0000 0.0000
# 3 18.7456 29.0556 137.6104 0.0000 0.0000 0.0000
# 4 0.0000 0.0000 0.0000 -24.8237 0.0000 0.0000
# 5 0.0000 0.0000 0.0000 0.0000 19.4124 0.0000
# 6 0.0000 0.0000 0.0000 0.0000 0.0000 316.4240
#
#
#
# Elastic Compliance Matrix: (Units=1/GPa)
#
#
# Indices 1 2 3 4 5 6 
#
# 1 0.021865 -0.001003 -0.002767 0.000000 0.000000 0.000000
# 2 -0.001003 0.009118 -0.001789 0.000000 0.000000 0.000000
# 3 -0.002767 -0.001789 0.008021 0.000000 0.000000 0.000000
# 4 0.000000 0.000000 0.000000 -0.040284 0.000000 0.000000
# 5 0.000000 0.000000 0.000000 0.000000 0.051513 0.000000
# 6 0.000000 0.000000 0.000000 0.000000 0.000000 0.003160
#
#
# Mechanical properties :
#
#
# Convention : Reuss Voigt Hill
#
# Bulk Modulus (GPa) = 35.85723 46.23545 41.04634
# Shear Modulus (GPa) = 67.74356 78.58081 73.16218
#
# Velocity S-wave (km/s) = 5.57662 6.00614 5.79536
# Velocity P-wave (km/s) = 7.61090 8.32607 7.97650
#
# Compressibility (1/GPa) = 0.02788838
#
# Stress axis : x y z
#
# Youngs Moduli (GPa) = 45.73481 109.66762 124.66558
#
# Poissons Ratio (x) = 0.10999 0.34492
# Poissons Ratio (y) = 0.04587 0.22299
# Poissons Ratio (z) = 0.12654 0.19616
#
# Static dielectric constant tensor:
#      x y z
#    x 1.916960 0.000000 0.000000 
#    y 0.000000 1.760870 0.000000 
#    z 0.000000 0.000000 1.829840 
# 
# From -- ./inp_files/19672.got.cif
#   From: 2010.05.17/outbox.cif.g08.bks.cpg/sg67_10_cif.got.tgz:19672.got - 2010.06.03 18:28:57.
