data_PCOD9503424
_publ_section_title
;
Structure prediction by ZEFSAII (Michael W. Deem and Ramdas Pophale) SiO2 
 PCOD9503424
Probable space group: C M M A
;
_chemical_formula_sum "Si O2"
_cell_formula_units_Z 52
_cell_length_a 13.401671
_cell_length_b 19.238156
_cell_length_c 7.197984
_cell_angle_alpha 90.000000
_cell_angle_beta 90.000000
_cell_angle_gamma 90.000000
_cell_volume 1855.808977
_symmetry_space_group_name_H-M "C M M A"
_symmetry_group_IT_number 67
_symmetry_cell_setting 'orthorhombic'
loop_
_space_group_symop_operation_xyz
x,y,z
-x,1/2-y,z
x,-y,-z
-x,1/2+y,-z
-x,-y,-z
x,1/2+y,-z
-x,y,z
x,1/2-y,z
1/2+x,1/2+y,z
1/2-x,-y,z
1/2+x,1/2-y,-z
1/2-x,y,-z
1/2-x,1/2-y,-z
1/2+x,y,-z
1/2-x,1/2+y,z
1/2+x,-y,z
loop_
_atom_site_type_symbol
_atom_site_label
_atom_site_fract_x
_atom_site_fract_y
_atom_site_fract_z
Si Si1 0.107680 0.491909 0.221161
Si Si2 0.612386 0.651372 0.672902
Si Si3 0.171728 0.155848 0.253174
Si Si4 0.000000 0.750000 0.903095
O O1 0.113219 0.567493 0.310532
O O2 0.179510 0.428135 0.255318
O O3 0.000000 0.462771 0.278893
O O4 0.109102 0.500000 0.000000
O O5 0.500000 0.674169 0.731119
O O6 0.713012 0.676498 0.773717
O O7 0.631463 0.672659 0.459938
O O8 0.089277 0.189320 0.120639
#
# Coordination Sequence:
#
# PCOD9503424 Si02
#       4
#    16  16  16   4
#     4  10  20  37  66  99 126 154 199 262 319 365
#     4  10  21  38  61  94 123 153 201 262 310 352
#     4  11  22  39  62  90 125 166 202 249 304 369
#     4  12  24  42  62  88 122 172 214 238 294 376
#
# _framework density 28.020123999999999
#
# number of rings (size 3 to 8) (size 9 to 14) (size 15 to 20)
#    0.000    1.538    3.077    1.846    0.000    9.846 
#    0.000    0.000    0.000    7.385    0.000    0.000 
#    0.000    0.000    0.000    0.000    0.000    0.000 
#
# Total GULP energy -145028.278769 kJ/mol
# GULP energy per Si atom -5578.010722 kJ/mol
# Density = 2.795635 g / cm^3
# Si number density = 28.020124 Si / 1000 Ang^3
#
#
#
# Elastic Constant Matrix: (Units=GPa)
#
#
# Indices 1 2 3 4 5 6 
#
# 1 327.4691 22.0823 41.8056 0.0000 0.0000 0.0000
# 2 22.0823 230.2714 -0.2639 0.0000 0.0000 0.0000
# 3 41.8056 -0.2639 108.4344 0.0000 0.0000 0.0000
# 4 0.0000 0.0000 0.0000 -226.2319 0.0000 0.0000
# 5 0.0000 0.0000 0.0000 0.0000 36.4030 0.0000
# 6 0.0000 0.0000 0.0000 0.0000 0.0000 -229.7704
#
#
#
# Elastic Compliance Matrix: (Units=1/GPa)
#
#
# Indices 1 2 3 4 5 6 
#
# 1 0.003234 -0.000312 -0.001248 0.000000 0.000000 0.000000
# 2 -0.000312 0.004373 0.000131 0.000000 0.000000 0.000000
# 3 -0.001248 0.000131 0.009703 0.000000 0.000000 0.000000
# 4 0.000000 0.000000 0.000000 -0.004420 0.000000 0.000000
# 5 0.000000 0.000000 0.000000 0.000000 0.027470 0.000000
# 6 0.000000 0.000000 0.000000 0.000000 0.000000 -0.004352
#
#
# Mechanical properties :
#
#
# Convention : Reuss Voigt Hill
#
# Bulk Modulus (GPa) = 69.18774 88.15809 78.67291
# Shear Modulus (GPa) = 114.46203 -43.74979 35.35612
#
# Velocity S-wave (km/s) = 6.39833 -3.95570 3.55605
# Velocity P-wave (km/s) = 8.90677 3.26608 6.70812
#
# Compressibility (1/GPa) = 0.01445343
#
# Stress axis : x y z
#
# Youngs Moduli (GPa) = 309.21432 228.69014 103.05587
#
# Poissons Ratio (x) = 0.07125 0.12857
# Poissons Ratio (y) = 0.09634 -0.01348
# Poissons Ratio (z) = 0.38577 -0.02990
#
# Static dielectric constant tensor:
#      x y z
#    x 2.143040 0.000000 0.000000 
#    y 0.000000 2.123330 0.000000 
#    z 0.000000 0.000000 2.189680 
# 
# From -- ./inp_files/7577.got.cif
#   From: 2010.05.17/outbox.cif.g08.bks.cpg/sg67_4_cif.got.tgz:7577.got - 2010.06.03 18:28:57.
