data_PCOD9503442
_publ_section_title
;
Structure prediction by ZEFSAII (Michael W. Deem and Ramdas Pophale) SiO2 
 PCOD9503442
Probable space group: C M M A
;
_chemical_formula_sum "Si O2"
_cell_formula_units_Z 96
_cell_length_a 21.336908
_cell_length_b 28.831665
_cell_length_c 8.040086
_cell_angle_alpha 90.000000
_cell_angle_beta 90.000000
_cell_angle_gamma 90.000000
_cell_volume 4946.088717
_symmetry_space_group_name_H-M "C M M A"
_symmetry_group_IT_number 67
_symmetry_cell_setting 'orthorhombic'
loop_
_space_group_symop_operation_xyz
x,y,z
-x,1/2-y,z
x,-y,-z
-x,1/2+y,-z
-x,-y,-z
x,1/2+y,-z
-x,y,z
x,1/2-y,z
1/2+x,1/2+y,z
1/2-x,-y,z
1/2+x,1/2-y,-z
1/2-x,y,-z
1/2-x,1/2-y,-z
1/2+x,y,-z
1/2-x,1/2+y,z
1/2+x,-y,z
loop_
_atom_site_type_symbol
_atom_site_label
_atom_site_fract_x
_atom_site_fract_y
_atom_site_fract_z
Si Si1 0.566466 0.514327 0.692257
Si Si2 0.572856 0.695038 0.867031
Si Si3 0.807374 0.974805 0.820810
Si Si4 0.927735 0.883232 0.408223
Si Si5 0.312095 0.804697 0.109147
Si Si6 0.694280 0.382882 0.634848
O O1 0.562574 0.500000 0.500000
O O2 0.500000 0.502406 0.772940
O O3 0.624845 0.487093 0.757178
O O4 0.576072 0.569607 0.700056
O O5 0.500000 0.688848 0.921800
O O6 0.580825 0.750000 0.826915
O O7 0.582000 0.661636 0.708280
O O8 0.625029 0.682958 0.005133
O O9 0.797925 0.920711 0.783268
O O10 0.750000 0.000000 0.726852
O O11 0.807811 0.000000 0.000000
O O12 0.872750 0.887692 0.542932
O O13 0.000000 0.881808 0.473574
O O14 0.315187 0.750000 0.142663
O O15 0.305471 0.833416 0.276824
O O16 0.250000 0.813588 0.000000
O O17 0.750000 0.388248 0.500000
#
# Coordination Sequence:
#
# PCOD9503442 Si02
#       6
#    16  16  16  16  16  16
#     4  10  20  38  60  83 118 158 195 236 292 355
#     4   9  19  38  63  89 120 160 203 248 300 357
#     4  11  26  40  58  88 118 155 199 246 293 354
#     4  10  21  37  60  89 118 156 200 244 296 355
#     4  10  23  41  62  87 119 158 201 249 302 361
#     4  12  25  39  62  90 121 158 200 251 305 358
#
# _framework density 19.409275999999998
#
# number of rings (size 3 to 8) (size 9 to 14) (size 15 to 20)
#    0.000    1.667    1.667    2.000    4.667    2.000 
#    0.000    0.000    0.000    0.000    0.000    0.000 
#    0.000    0.000    0.000    0.000    0.000    0.000 
#
# Total GULP energy -267543.629253 kJ/mol
# GULP energy per Si atom -5573.825609 kJ/mol
# Density = 1.936510 g / cm^3
# Si number density = 19.409276 Si / 1000 Ang^3
#
#
#
# Elastic Constant Matrix: (Units=GPa)
#
#
# Indices 1 2 3 4 5 6 
#
# 1 116.5441 34.8830 35.5437 0.0000 0.0000 0.0000
# 2 34.8830 60.3519 29.3948 0.0000 0.0000 0.0000
# 3 35.5437 29.3948 59.7579 0.0000 0.0000 0.0000
# 4 0.0000 0.0000 0.0000 28.8463 0.0000 0.0000
# 5 0.0000 0.0000 0.0000 0.0000 17.4914 0.0000
# 6 0.0000 0.0000 0.0000 0.0000 0.0000 31.1792
#
#
#
# Elastic Compliance Matrix: (Units=1/GPa)
#
#
# Indices 1 2 3 4 5 6 
#
# 1 0.011260 -0.004269 -0.004598 0.000000 0.000000 0.000000
# 2 -0.004269 0.023408 -0.008975 0.000000 0.000000 0.000000
# 3 -0.004598 -0.008975 0.023884 0.000000 0.000000 0.000000
# 4 0.000000 0.000000 0.000000 0.034667 0.000000 0.000000
# 5 0.000000 0.000000 0.000000 0.000000 0.057171 0.000000
# 6 0.000000 0.000000 0.000000 0.000000 0.000000 0.032073
#
#
# Mechanical properties :
#
#
# Convention : Reuss Voigt Hill
#
# Bulk Modulus (GPa) = 43.72832 48.47743 46.10288
# Shear Modulus (GPa) = 22.14644 24.62554 23.38599
#
# Velocity S-wave (km/s) = 3.38157 3.56582 3.47491
# Velocity P-wave (km/s) = 6.15022 6.47951 6.31701
#
# Compressibility (1/GPa) = 0.02286847
#
# Stress axis : x y z
#
# Youngs Moduli (GPa) = 88.80642 42.71954 41.86933
#
# Poissons Ratio (x) = 0.18237 0.19250
# Poissons Ratio (y) = 0.37913 0.37579
# Poissons Ratio (z) = 0.40830 0.38342
#
# Static dielectric constant tensor:
#      x y z
#    x 1.750760 0.000000 0.000000 
#    y 0.000000 1.686820 0.000000 
#    z 0.000000 0.000000 1.658420 
# 
# From -- ./inp_files/11469.got.cif
#   From: 2010.05.17/outbox.cif.g08.bks.cpg/sg67_6_cif.got.tgz:11469.got - 2010.06.03 18:28:57.
