data_PCOD9503236
_publ_section_title
;
Structure prediction by ZEFSAII (Michael W. Deem and Ramdas Pophale) SiO2 
 PCOD9503236
Probable space group: C M M A
;
_chemical_formula_sum "Si O2"
_cell_formula_units_Z 56
_cell_length_a 8.544391
_cell_length_b 27.571421
_cell_length_c 11.568930
_cell_angle_alpha 90.000000
_cell_angle_beta 90.000000
_cell_angle_gamma 90.000000
_cell_volume 2725.420115
_symmetry_space_group_name_H-M "C M M A"
_symmetry_group_IT_number 67
_symmetry_cell_setting 'orthorhombic'
loop_
_space_group_symop_operation_xyz
x,y,z
-x,1/2-y,z
x,-y,-z
-x,1/2+y,-z
-x,-y,-z
x,1/2+y,-z
-x,y,z
x,1/2-y,z
1/2+x,1/2+y,z
1/2-x,-y,z
1/2+x,1/2-y,-z
1/2-x,y,-z
1/2-x,1/2-y,-z
1/2+x,y,-z
1/2-x,1/2+y,z
1/2+x,-y,z
loop_
_atom_site_type_symbol
_atom_site_label
_atom_site_fract_x
_atom_site_fract_y
_atom_site_fract_z
Si Si1 0.174158 0.050439 0.813481
Si Si2 0.314976 0.879944 0.372874
Si Si3 0.313244 0.807142 0.803184
Si Si4 0.250000 0.627465 0.000000
O O1 0.275352 0.075934 0.713845
O O2 0.000000 0.041627 0.768605
O O3 0.250000 0.000000 0.850505
O O4 0.162929 0.088603 0.918609
O O5 0.500000 0.871637 0.375896
O O6 0.250000 0.889539 0.500000
O O7 0.227195 0.833784 0.316140
O O8 0.500000 0.814589 0.830216
O O9 0.284952 0.750000 0.800525
O O10 0.206125 0.834127 0.899316
#
# Coordination Sequence:
#
# PCOD9503236 Si02
#       4
#    16  16  16   8
#     4  11  24  41  62  90 122 158 201 247 297 355
#     4  11  23  41  64  89 120 157 199 248 300 356
#     4  10  22  40  62  89 122 160 202 248 298 354
#     4  10  20  36  60  88 122 158 194 242 292 346
#
# _framework density 20.547291000000001
#
# number of rings (size 3 to 8) (size 9 to 14) (size 15 to 20)
#    0.000    1.429    0.000    6.857    0.000   14.286 
#    0.000    2.857    0.000    0.000    0.000    0.000 
#    0.000    0.000    0.000    0.000    0.000    0.000 
#
# Total GULP energy -155981.172442 kJ/mol
# GULP energy per Si atom -5570.756159 kJ/mol
# Density = 2.050052 g / cm^3
# Si number density = 20.547291 Si / 1000 Ang^3
#
#
#
# Elastic Constant Matrix: (Units=GPa)
#
#
# Indices 1 2 3 4 5 6 
#
# 1 78.4365 45.4907 36.3877 0.0000 0.0000 0.0000
# 2 45.4907 153.8475 24.0227 0.0000 0.0000 0.0000
# 3 36.3877 24.0227 106.4629 0.0000 0.0000 0.0000
# 4 0.0000 0.0000 0.0000 11.3100 0.0000 0.0000
# 5 0.0000 0.0000 0.0000 0.0000 -19.0782 0.0000
# 6 0.0000 0.0000 0.0000 0.0000 0.0000 12.9641
#
#
#
# Elastic Compliance Matrix: (Units=1/GPa)
#
#
# Indices 1 2 3 4 5 6 
#
# 1 0.017657 -0.004435 -0.005034 0.000000 0.000000 0.000000
# 2 -0.004435 0.007851 -0.000256 0.000000 0.000000 0.000000
# 3 -0.005034 -0.000256 0.011171 0.000000 0.000000 0.000000
# 4 0.000000 0.000000 0.000000 0.088417 0.000000 0.000000
# 5 0.000000 0.000000 0.000000 0.000000 -0.052416 0.000000
# 6 0.000000 0.000000 0.000000 0.000000 0.000000 0.077136
#
#
# Mechanical properties :
#
#
# Convention : Reuss Voigt Hill
#
# Bulk Modulus (GPa) = 58.03960 61.17214 59.60587
# Shear Modulus (GPa) = 28.56991 16.56223 22.56607
#
# Velocity S-wave (km/s) = 3.73291 2.84219 3.31758
# Velocity P-wave (km/s) = 6.84746 6.37234 6.61417
#
# Compressibility (1/GPa) = 0.01722962
#
# Stress axis : x y z
#
# Youngs Moduli (GPa) = 56.63610 127.36924 89.51531
#
# Poissons Ratio (x) = 0.56485 0.45063
# Poissons Ratio (y) = 0.25117 0.02290
# Poissons Ratio (z) = 0.28511 0.03258
#
# Static dielectric constant tensor:
#      x y z
#    x 1.821990 0.000000 0.000000 
#    y 0.000000 1.713130 0.000000 
#    z 0.000000 0.000000 1.711600 
# 
# From -- ./inp_files/15541.got.cif
#   From: 2010.05.17/outbox.cif.g08.bks.cpg/sg67_8_cif.got.tgz:15541.got - 2010.06.03 18:28:57.
