data_PCOD9503030
_publ_section_title
;
Structure prediction by ZEFSAII (Michael W. Deem and Ramdas Pophale) SiO2 
 PCOD9503030
Probable space group: C M M A
;
_chemical_formula_sum "Si O2"
_cell_formula_units_Z 116
_cell_length_a 14.893450
_cell_length_b 26.644771
_cell_length_c 11.803330
_cell_angle_alpha 90.000000
_cell_angle_beta 90.000000
_cell_angle_gamma 90.000000
_cell_volume 4683.945715
_symmetry_space_group_name_H-M "C M M A"
_symmetry_group_IT_number 67
_symmetry_cell_setting 'orthorhombic'
loop_
_space_group_symop_operation_xyz
x,y,z
-x,1/2-y,z
x,-y,-z
-x,1/2+y,-z
-x,-y,-z
x,1/2+y,-z
-x,y,z
x,1/2-y,z
1/2+x,1/2+y,z
1/2-x,-y,z
1/2+x,1/2-y,-z
1/2-x,y,-z
1/2-x,1/2-y,-z
1/2+x,y,-z
1/2-x,1/2+y,z
1/2+x,-y,z
loop_
_atom_site_type_symbol
_atom_site_label
_atom_site_fract_x
_atom_site_fract_y
_atom_site_fract_z
Si Si1 0.360765 0.337129 0.193777
Si Si2 0.355998 0.893211 0.024130
Si Si3 0.392426 0.468957 0.791936
Si Si4 0.336429 0.696334 0.174363
Si Si5 0.104126 0.581428 0.563434
Si Si6 0.349004 0.804673 0.445334
Si Si7 0.610376 0.068864 0.321135
Si Si8 0.500000 0.750000 0.749813
O O1 0.269366 0.311172 0.153278
O O2 0.344536 0.378706 0.288990
O O3 0.423437 0.294223 0.240488
O O4 0.397695 0.371835 0.091287
O O5 0.373786 0.945348 0.086073
O O6 0.381960 0.850995 0.116775
O O7 0.250000 0.893348 0.000000
O O8 0.500000 0.470445 0.785337
O O9 0.357922 0.434740 0.685753
O O10 0.361555 0.525339 0.765533
O O11 0.367509 0.750000 0.127349
O O12 0.346559 0.697321 0.309000
O O13 0.107515 0.641053 0.536399
O O14 0.138949 0.555777 0.448936
O O15 0.000000 0.566772 0.569371
O O16 0.389293 0.750000 0.483294
O O17 0.250000 0.806018 0.500000
O O18 0.500000 0.074419 0.318448
#
# Coordination Sequence:
#
# PCOD9503030 Si02
#       8
#    16  16  16  16  16  16  16   4
#     4  11  23  39  60  92 121 160 207 261 312 371
#     4  10  23  40  64  90 125 167 208 259 316 376
#     4  10  21  40  66  92 123 164 210 262 316 373
#     4  10  20  38  60  83 120 165 204 244 308 379
#     4  10  20  38  64  92 123 159 209 260 313 376
#     4  10  20  35  59  87 123 164 204 249 311 380
#     4  10  21  39  61  91 125 161 204 255 318 377
#     4  12  24  40  62  94 130 160 214 268 312 368
#
# _framework density 24.765446000000001
#
# number of rings (size 3 to 8) (size 9 to 14) (size 15 to 20)
#    0.000    1.793    2.759    1.241    1.931    3.310 
#    1.241    6.207    0.000    0.828    0.000    0.000 
#    0.000    0.000    0.000    0.000    0.000    0.276 
#
# Total GULP energy -323529.112955 kJ/mol
# GULP energy per Si atom -5578.088154 kJ/mol
# Density = 2.470908 g / cm^3
# Si number density = 24.765446 Si / 1000 Ang^3
#
#
#
# Elastic Constant Matrix: (Units=GPa)
#
#
# Indices 1 2 3 4 5 6 
#
# 1 28.7616 -0.5553 -16.6692 0.0000 0.0000 0.0000
# 2 -0.5553 148.6583 30.0444 0.0000 0.0000 0.0000
# 3 -16.6692 30.0444 78.2076 0.0000 0.0000 0.0000
# 4 0.0000 0.0000 0.0000 41.2988 0.0000 0.0000
# 5 0.0000 0.0000 0.0000 0.0000 4.1518 0.0000
# 6 0.0000 0.0000 0.0000 0.0000 0.0000 21.9348
#
#
#
# Elastic Compliance Matrix: (Units=1/GPa)
#
#
# Indices 1 2 3 4 5 6 
#
# 1 0.040065 -0.001709 0.009196 0.000000 0.000000 0.000000
# 2 -0.001709 0.007366 -0.003194 0.000000 0.000000 0.000000
# 3 0.009196 -0.003194 0.015974 0.000000 0.000000 0.000000
# 4 0.000000 0.000000 0.000000 0.024214 0.000000 0.000000
# 5 0.000000 0.000000 0.000000 0.000000 0.240857 0.000000
# 6 0.000000 0.000000 0.000000 0.000000 0.000000 0.045590
#
#
# Mechanical properties :
#
#
# Convention : Reuss Voigt Hill
#
# Bulk Modulus (GPa) = 13.89063 31.25192 22.57127
# Shear Modulus (GPa) = 12.83777 29.66425 21.25101
#
# Velocity S-wave (km/s) = 2.27925 3.46469 2.93250
# Velocity P-wave (km/s) = 3.54228 5.35276 4.53871
#
# Compressibility (1/GPa) = 0.07199097
#
# Stress axis : x y z
#
# Youngs Moduli (GPa) = 24.95933 135.75963 62.60366
#
# Poissons Ratio (x) = 0.23200 -0.57570
# Poissons Ratio (y) = 0.04265 0.19995
# Poissons Ratio (z) = -0.22953 0.43361
#
# Static dielectric constant tensor:
#      x y z
#    x 1.956330 0.000000 0.000000 
#    y 0.000000 1.963750 0.000000 
#    z 0.000000 0.000000 2.042780 
# 
# From -- ./inp_files/19972.got.cif
#   From: 2010.05.17/outbox.cif.g08.bks.cpg/sg67_10_cif.got.tgz:19972.got - 2010.06.03 18:28:57.
