data_PCOD9503010
_publ_section_title
;
Structure prediction by ZEFSAII (Michael W. Deem and Ramdas Pophale) SiO2 
 PCOD9503010
Probable space group: C M M A
;
_chemical_formula_sum "Si O2"
_cell_formula_units_Z 96
_cell_length_a 14.756950
_cell_length_b 26.976254
_cell_length_c 10.581498
_cell_angle_alpha 90.000000
_cell_angle_beta 90.000000
_cell_angle_gamma 90.000000
_cell_volume 4212.359244
_symmetry_space_group_name_H-M "C M M A"
_symmetry_group_IT_number 67
_symmetry_cell_setting 'orthorhombic'
loop_
_space_group_symop_operation_xyz
x,y,z
-x,1/2-y,z
x,-y,-z
-x,1/2+y,-z
-x,-y,-z
x,1/2+y,-z
-x,y,z
x,1/2-y,z
1/2+x,1/2+y,z
1/2-x,-y,z
1/2+x,1/2-y,-z
1/2-x,y,-z
1/2-x,1/2-y,-z
1/2+x,y,-z
1/2-x,1/2+y,z
1/2+x,-y,z
loop_
_atom_site_type_symbol
_atom_site_label
_atom_site_fract_x
_atom_site_fract_y
_atom_site_fract_z
Si Si1 0.610625 0.020744 0.136757
Si Si2 0.606825 0.805732 0.108055
Si Si3 0.896459 0.630880 0.121974
Si Si4 0.845197 0.849346 0.626248
Si Si5 0.859120 0.691517 0.367552
Si Si6 0.610182 0.537816 0.386243
O O1 0.500000 0.020556 0.143698
O O2 0.645202 0.077101 0.147527
O O3 0.638635 0.987152 0.254371
O O4 0.636101 0.000000 0.000000
O O5 0.500000 0.799949 0.081766
O O6 0.645845 0.750000 0.119743
O O7 0.614213 0.835511 0.238391
O O8 0.645325 0.836990 0.990882
O O9 0.899173 0.662383 0.249478
O O10 0.000000 0.620083 0.081820
O O11 0.893591 0.824653 0.505471
O O12 0.745609 0.825475 0.632362
O O13 0.846260 0.908063 0.602941
O O14 0.868424 0.750000 0.351239
O O15 0.631695 0.500000 0.500000
O O16 0.500000 0.544652 0.387011
#
# Coordination Sequence:
#
# PCOD9503010 Si02
#       6
#    16  16  16  16  16  16
#     4   9  17  32  55  82 112 145 180 224 281 339
#     4  10  20  35  58  87 115 146 190 242 290 341
#     4  10  21  38  60  87 117 150 192 241 293 348
#     4  11  22  39  58  81 114 153 194 236 286 345
#     4  11  24  41  59  81 114 156 197 239 289 348
#     4  10  20  35  58  87 115 146 189 238 286 339
#
# _framework density 22.790078999999999
#
# number of rings (size 3 to 8) (size 9 to 14) (size 15 to 20)
#    0.000    1.833    0.000    5.000    0.000    7.000 
#    0.000    7.500    0.000    1.000    0.000    0.000 
#    0.000    0.000    0.000    0.000    0.000    0.000 
#
# Total GULP energy -268375.749028 kJ/mol
# GULP energy per Si atom -5591.161438 kJ/mol
# Density = 2.273821 g / cm^3
# Si number density = 22.790079 Si / 1000 Ang^3
#
#
#
# Elastic Constant Matrix: (Units=GPa)
#
#
# Indices 1 2 3 4 5 6 
#
# 1 43.7642 -9.7272 -9.6867 0.0000 0.0000 0.0000
# 2 -9.7272 182.2241 44.7180 0.0000 0.0000 0.0000
# 3 -9.6867 44.7180 121.7968 0.0000 0.0000 0.0000
# 4 0.0000 0.0000 0.0000 32.8696 0.0000 0.0000
# 5 0.0000 0.0000 0.0000 0.0000 7.1025 0.0000
# 6 0.0000 0.0000 0.0000 0.0000 0.0000 -199.1021
#
#
#
# Elastic Compliance Matrix: (Units=1/GPa)
#
#
# Indices 1 2 3 4 5 6 
#
# 1 0.023384 0.000870 0.001540 0.000000 0.000000 0.000000
# 2 0.000870 0.006064 -0.002157 0.000000 0.000000 0.000000
# 3 0.001540 -0.002157 0.009125 0.000000 0.000000 0.000000
# 4 0.000000 0.000000 0.000000 0.030423 0.000000 0.000000
# 5 0.000000 0.000000 0.000000 0.000000 0.140795 0.000000
# 6 0.000000 0.000000 0.000000 0.000000 0.000000 -0.005023
#
#
# Mechanical properties :
#
#
# Convention : Reuss Voigt Hill
#
# Bulk Modulus (GPa) = 25.58887 44.26592 34.92739
# Shear Modulus (GPa) = 23.01101 -10.32726 6.34187
#
# Velocity S-wave (km/s) = 3.18102 -2.13104 1.66996
# Velocity P-wave (km/s) = 4.97436 3.66202 4.36776
#
# Compressibility (1/GPa) = 0.03907949
#
# Stress axis : x y z
#
# Youngs Moduli (GPa) = 42.76410 164.92018 109.59080
#
# Poissons Ratio (x) = -0.14352 -0.16880
# Poissons Ratio (y) = -0.03722 0.23639
# Poissons Ratio (z) = -0.06587 0.35574
#
# Static dielectric constant tensor:
#      x y z
#    x 2.007300 0.000000 0.000000 
#    y 0.000000 1.816380 0.000000 
#    z 0.000000 0.000000 1.820970 
# 
# From -- ./inp_files/11496.got.cif
#   From: 2010.05.17/outbox.cif.g08.bks.cpg/sg67_6_cif.got.tgz:11496.got - 2010.06.03 18:28:57.
