data_PCOD9503249
_publ_section_title
;
Structure prediction by ZEFSAII (Michael W. Deem and Ramdas Pophale) SiO2 
 PCOD9503249
Probable space group: C M M A
;
_chemical_formula_sum "Si O2"
_cell_formula_units_Z 88
_cell_length_a 9.658556
_cell_length_b 21.529049
_cell_length_c 23.319006
_cell_angle_alpha 90.000000
_cell_angle_beta 90.000000
_cell_angle_gamma 90.000000
_cell_volume 4848.943040
_symmetry_space_group_name_H-M "C M M A"
_symmetry_group_IT_number 67
_symmetry_cell_setting 'orthorhombic'
loop_
_space_group_symop_operation_xyz
x,y,z
-x,1/2-y,z
x,-y,-z
-x,1/2+y,-z
-x,-y,-z
x,1/2+y,-z
-x,y,z
x,1/2-y,z
1/2+x,1/2+y,z
1/2-x,-y,z
1/2+x,1/2-y,-z
1/2-x,y,-z
1/2-x,1/2-y,-z
1/2+x,y,-z
1/2-x,1/2+y,z
1/2+x,-y,z
loop_
_atom_site_type_symbol
_atom_site_label
_atom_site_fract_x
_atom_site_fract_y
_atom_site_fract_z
Si Si1 0.500000 0.408978 0.947078
Si Si2 0.662889 0.175843 0.241408
Si Si3 0.265178 0.869124 0.877844
Si Si4 0.000000 0.554669 0.075632
Si Si5 0.831635 0.560926 0.560156
Si Si6 0.837273 0.322114 0.355849
Si Si7 0.850987 0.750000 0.053292
O O1 0.630273 0.379880 0.915517
O O2 0.500000 0.482500 0.936605
O O3 0.500000 0.406236 0.015970
O O4 0.500000 0.157539 0.241145
O O5 0.667340 0.250000 0.231298
O O6 0.744324 0.143006 0.189592
O O7 0.738012 0.165245 0.301852
O O8 0.365595 0.926472 0.889369
O O9 0.334675 0.808754 0.905689
O O10 0.750000 0.500000 0.584951
O O11 0.750000 0.570517 0.500000
O O12 0.815823 0.623537 0.597617
O O13 0.000000 0.550141 0.553771
O O14 0.811941 0.250000 0.375171
O O15 0.000000 0.324725 0.338862
O O16 0.000000 0.750000 0.025652
O O17 0.750000 0.750000 0.000000
#
# Coordination Sequence:
#
# PCOD9503249 Si02
#       7
#     8  16  16   8  16  16   8
#     4  11  26  39  61  85 107 150 194 231 294 359
#     4  10  20  38  59  83 113 152 190 234 294 351
#     4  12  23  39  61  85 113 145 188 239 295 356
#     4  11  22  45  61  77 113 150 188 239 288 357
#     4  10  20  36  60  90 127 165 202 243 292 340
#     4   9  20  38  61  88 119 156 200 248 293 343
#     4  12  24  38  58  86 118 142 179 240 303 358
#
# _framework density 18.148284
#
# number of rings (size 3 to 8) (size 9 to 14) (size 15 to 20)
#    0.000    1.455    2.727    3.273    2.545    3.273 
#    0.000    1.818    0.000    0.000    0.000    0.000 
#    0.000    0.000    0.000    0.000    0.000    0.000 
#
# Total GULP energy -245373.286360 kJ/mol
# GULP energy per Si atom -5576.665599 kJ/mol
# Density = 1.810698 g / cm^3
# Si number density = 18.148284 Si / 1000 Ang^3
#
#
#
# Elastic Constant Matrix: (Units=GPa)
#
#
# Indices 1 2 3 4 5 6 
#
# 1 95.7229 29.8769 35.4573 0.0000 0.0000 0.0000
# 2 29.8769 89.7469 47.5860 0.0000 0.0000 0.0000
# 3 35.4573 47.5860 88.8825 0.0000 0.0000 0.0000
# 4 0.0000 0.0000 0.0000 25.7765 0.0000 0.0000
# 5 0.0000 0.0000 0.0000 0.0000 8.7028 0.0000
# 6 0.0000 0.0000 0.0000 0.0000 0.0000 29.9388
#
#
#
# Elastic Compliance Matrix: (Units=1/GPa)
#
#
# Indices 1 2 3 4 5 6 
#
# 1 0.012542 -0.002126 -0.003865 0.000000 0.000000 0.000000
# 2 -0.002126 0.015920 -0.007675 0.000000 0.000000 0.000000
# 3 -0.003865 -0.007675 0.016902 0.000000 0.000000 0.000000
# 4 0.000000 0.000000 0.000000 0.038795 0.000000 0.000000
# 5 0.000000 0.000000 0.000000 0.000000 0.114905 0.000000
# 6 0.000000 0.000000 0.000000 0.000000 0.000000 0.033401
#
#
# Mechanical properties :
#
#
# Convention : Reuss Voigt Hill
#
# Bulk Modulus (GPa) = 55.45890 55.57696 55.51793
# Shear Modulus (GPa) = 18.81060 23.64577 21.22819
#
# Velocity S-wave (km/s) = 3.22296 3.61352 3.42381
# Velocity P-wave (km/s) = 6.66896 6.93544 6.80350
#
# Compressibility (1/GPa) = 0.01803137
#
# Stress axis : x y z
#
# Youngs Moduli (GPa) = 79.73173 62.81558 59.16539
#
# Poissons Ratio (x) = 0.13354 0.22868
# Poissons Ratio (y) = 0.16950 0.45409
# Poissons Ratio (z) = 0.30818 0.48211
#
# Static dielectric constant tensor:
#      x y z
#    x 1.619200 0.000000 0.000000 
#    y 0.000000 1.635640 0.000000 
#    z 0.000000 0.000000 1.597330 
# 
# From -- ./inp_files/40718.got.cif
#   From: 2010.05.17/outbox.cif.g08.bks.cpg/sg67_21_cif.got.tgz:40718.got - 2010.06.03 18:28:57.
