data_PCOD9503552
_publ_section_title
;
Structure prediction by ZEFSAII (Michael W. Deem and Ramdas Pophale) SiO2 
 PCOD9503552
Probable space group: C M M A
;
_chemical_formula_sum "Si O2"
_cell_formula_units_Z 72
_cell_length_a 15.159824
_cell_length_b 16.497235
_cell_length_c 14.526107
_cell_angle_alpha 90.000000
_cell_angle_beta 90.000000
_cell_angle_gamma 90.000000
_cell_volume 3632.909332
_symmetry_space_group_name_H-M "C M M A"
_symmetry_group_IT_number 67
_symmetry_cell_setting 'orthorhombic'
loop_
_space_group_symop_operation_xyz
x,y,z
-x,1/2-y,z
x,-y,-z
-x,1/2+y,-z
-x,-y,-z
x,1/2+y,-z
-x,y,z
x,1/2-y,z
1/2+x,1/2+y,z
1/2-x,-y,z
1/2+x,1/2-y,-z
1/2-x,y,-z
1/2-x,1/2-y,-z
1/2+x,y,-z
1/2-x,1/2+y,z
1/2+x,-y,z
loop_
_atom_site_type_symbol
_atom_site_label
_atom_site_fract_x
_atom_site_fract_y
_atom_site_fract_z
Si Si1 0.811733 0.073159 0.734139
Si Si2 0.857685 0.250000 0.505038
Si Si3 0.903042 0.250000 0.902949
Si Si4 0.689364 0.750000 0.705892
Si Si5 0.000000 0.622791 0.548482
Si Si6 0.155830 0.579564 0.047975
Si Si7 0.000000 0.036403 0.647165
O O1 0.769906 0.159559 0.703637
O O2 0.825716 0.066389 0.844069
O O3 0.910526 0.065474 0.695253
O O4 0.750000 0.000000 0.702405
O O5 0.750000 0.250000 0.500000
O O6 0.874045 0.250000 0.615967
O O7 0.910294 0.175607 0.458639
O O8 0.845101 0.250000 0.810977
O O9 0.889978 0.167064 0.958906
O O10 0.000000 0.250000 0.863804
O O11 0.000000 0.560724 0.633133
O O12 0.000000 0.573862 0.453713
O O13 0.113597 0.500000 0.000000
O O14 0.250000 0.588692 0.000000
#
# Coordination Sequence:
#
# PCOD9503552 Si02
#       7
#    16   8   8   8   8  16   8
#     4  11  23  41  67  93 128 171 214 270 318 387
#     4  11  23  40  64  92 121 172 214 260 325 389
#     4  10  23  35  63  92 121 164 212 269 314 386
#     4  10  23  38  65  91 122 159 227 260 314 387
#     4  10  24  42  62  90 135 157 207 285 309 376
#     4  10  20  40  60  89 126 163 211 261 324 368
#     4  11  24  40  63  96 123 169 212 260 331 375
#
# _framework density 19.818826000000001
#
# number of rings (size 3 to 8) (size 9 to 14) (size 15 to 20)
#    0.000    1.556    4.444    0.333   10.889    0.444 
#    0.000    2.222    0.000    0.000    0.000    0.000 
#    0.000    0.000    0.000    0.000    0.000    0.000 
#
# Total GULP energy -200435.612858 kJ/mol
# GULP energy per Si atom -5567.655913 kJ/mol
# Density = 1.977372 g / cm^3
# Si number density = 19.818826 Si / 1000 Ang^3
#
#
#
# Elastic Constant Matrix: (Units=GPa)
#
#
# Indices 1 2 3 4 5 6 
#
# 1 96.5123 37.2723 5.8244 0.0000 0.0000 0.0000
# 2 37.2723 178.4945 14.1871 0.0000 0.0000 0.0000
# 3 5.8244 14.1871 61.5962 0.0000 0.0000 0.0000
# 4 0.0000 0.0000 0.0000 18.2979 0.0000 0.0000
# 5 0.0000 0.0000 0.0000 0.0000 18.9647 0.0000
# 6 0.0000 0.0000 0.0000 0.0000 0.0000 -71.3360
#
#
#
# Elastic Compliance Matrix: (Units=1/GPa)
#
#
# Indices 1 2 3 4 5 6 
#
# 1 0.011287 -0.002315 -0.000534 0.000000 0.000000 0.000000
# 2 -0.002315 0.006181 -0.001205 0.000000 0.000000 0.000000
# 3 -0.000534 -0.001205 0.016563 0.000000 0.000000 0.000000
# 4 0.000000 0.000000 0.000000 0.054651 0.000000 0.000000
# 5 0.000000 0.000000 0.000000 0.000000 0.052729 0.000000
# 6 0.000000 0.000000 0.000000 0.000000 0.000000 -0.014018
#
#
# Mechanical properties :
#
#
# Convention : Reuss Voigt Hill
#
# Bulk Modulus (GPa) = 38.57359 50.13006 44.35182
# Shear Modulus (GPa) = 34.68781 11.80661 23.24721
#
# Velocity S-wave (km/s) = 4.18813 2.44340 3.42860
# Velocity P-wave (km/s) = 6.54925 5.77142 6.17260
#
# Compressibility (1/GPa) = 0.02592448
#
# Stress axis : x y z
#
# Youngs Moduli (GPa) = 88.59389 161.77335 60.37622
#
# Poissons Ratio (x) = 0.37443 0.03225
# Poissons Ratio (y) = 0.20505 0.07275
# Poissons Ratio (z) = 0.04733 0.19492
#
# Static dielectric constant tensor:
#      x y z
#    x 1.679750 0.000000 0.000000 
#    y 0.000000 1.810260 0.000000 
#    z 0.000000 0.000000 1.671550 
# 
# From -- ./inp_files/26916.got.cif
#   From: 2010.05.17/outbox.cif.g08.bks.cpg/sg67_14_cif.got.tgz:26916.got - 2010.06.03 18:28:57.
