data_PCOD9503198
_publ_section_title
;
Structure prediction by ZEFSAII (Michael W. Deem and Ramdas Pophale) SiO2 
 PCOD9503198
Probable space group: C M M A
;
_chemical_formula_sum "Si O2"
_cell_formula_units_Z 96
_cell_length_a 30.379370
_cell_length_b 15.425713
_cell_length_c 11.430801
_cell_angle_alpha 90.000000
_cell_angle_beta 90.000000
_cell_angle_gamma 90.000000
_cell_volume 5356.741318
_symmetry_space_group_name_H-M "C M M A"
_symmetry_group_IT_number 67
_symmetry_cell_setting 'orthorhombic'
loop_
_space_group_symop_operation_xyz
x,y,z
-x,1/2-y,z
x,-y,-z
-x,1/2+y,-z
-x,-y,-z
x,1/2+y,-z
-x,y,z
x,1/2-y,z
1/2+x,1/2+y,z
1/2-x,-y,z
1/2+x,1/2-y,-z
1/2-x,y,-z
1/2-x,1/2-y,-z
1/2+x,y,-z
1/2-x,1/2+y,z
1/2+x,-y,z
loop_
_atom_site_type_symbol
_atom_site_label
_atom_site_fract_x
_atom_site_fract_y
_atom_site_fract_z
Si Si1 0.550776 0.093435 0.945098
Si Si2 0.183330 0.648564 0.483873
Si Si3 0.246734 0.602514 0.701251
Si Si4 0.111470 0.250000 0.085730
Si Si5 0.048244 0.563085 0.667628
Si Si6 0.385706 0.000000 0.500000
Si Si7 0.050975 0.250000 0.313975
Si Si8 0.218531 0.250000 0.115184
O O1 0.500000 0.119624 0.976021
O O2 0.587929 0.165333 0.970870
O O3 0.551343 0.077790 0.805716
O O4 0.559686 0.000000 0.000000
O O5 0.174613 0.750000 0.498208
O O6 0.213456 0.617514 0.592770
O O7 0.207925 0.632793 0.360272
O O8 0.142629 0.585808 0.492446
O O9 0.250000 0.500000 0.730586
O O10 0.231214 0.665386 0.805995
O O11 0.089691 0.250000 0.216960
O O12 0.165038 0.250000 0.089469
O O13 0.084614 0.503474 0.614461
O O14 0.053661 0.660520 0.617177
O O15 0.000000 0.529594 0.639995
O O16 0.000000 0.250000 0.262390
O O17 0.250000 0.250000 0.000000
#
# Coordination Sequence:
#
# PCOD9503198 Si02
#       8
#    16  16  16   8  16   8   8   8
#     4   9  18  36  63  91 117 151 199 248 292 345
#     4  11  21  37  62  92 111 151 202 259 295 339
#     4  11  21  42  66  84 116 151 199 256 303 346
#     4  10  20  36  59  87 114 148 201 241 292 352
#     4   9  19  34  52  84 125 152 179 234 300 356
#     4  12  23  31  58  92 116 148 200 229 297 364
#     4   8  16  32  59  86 107 145 195 241 287 335
#     4  12  28  45  58  89 124 168 198 245 317 372
#
# _framework density 17.921344000000001
#
# number of rings (size 3 to 8) (size 9 to 14) (size 15 to 20)
#    0.000    1.833    3.333    3.000    5.833    0.333 
#    6.000    0.000    0.000    0.000    0.000    0.000 
#    0.000    0.000    0.000    0.000    0.000    0.000 
#
# Total GULP energy -267315.436558 kJ/mol
# GULP energy per Si atom -5569.071595 kJ/mol
# Density = 1.788055 g / cm^3
# Si number density = 17.921344 Si / 1000 Ang^3
#
#
#
# Elastic Constant Matrix: (Units=GPa)
#
#
# Indices 1 2 3 4 5 6 
#
# 1 138.0219 67.8979 42.9313 0.0000 0.0000 0.0000
# 2 67.8979 149.8008 39.4777 0.0000 0.0000 0.0000
# 3 42.9313 39.4777 51.2755 0.0000 0.0000 0.0000
# 4 0.0000 0.0000 0.0000 23.0752 0.0000 0.0000
# 5 0.0000 0.0000 0.0000 0.0000 18.0737 0.0000
# 6 0.0000 0.0000 0.0000 0.0000 0.0000 22.6650
#
#
#
# Elastic Compliance Matrix: (Units=1/GPa)
#
#
# Indices 1 2 3 4 5 6 
#
# 1 0.010880 -0.003175 -0.006665 0.000000 0.000000 0.000000
# 2 -0.003175 0.009301 -0.004503 0.000000 0.000000 0.000000
# 3 -0.006665 -0.004503 0.028550 0.000000 0.000000 0.000000
# 4 0.000000 0.000000 0.000000 0.043337 0.000000 0.000000
# 5 0.000000 0.000000 0.000000 0.000000 0.055329 0.000000
# 6 0.000000 0.000000 0.000000 0.000000 0.000000 0.044121
#
#
# Mechanical properties :
#
#
# Convention : Reuss Voigt Hill
#
# Bulk Modulus (GPa) = 49.88712 71.07912 60.48312
# Shear Modulus (GPa) = 22.03751 25.34887 23.69319
#
# Velocity S-wave (km/s) = 3.51048 3.76500 3.63997
# Velocity P-wave (km/s) = 6.65796 7.65821 7.17553
#
# Compressibility (1/GPa) = 0.02004525
#
# Stress axis : x y z
#
# Youngs Moduli (GPa) = 91.90883 107.51201 35.02645
#
# Poissons Ratio (x) = 0.34135 0.23346
# Poissons Ratio (y) = 0.29181 0.15772
# Poissons Ratio (z) = 0.61260 0.48411
#
# Static dielectric constant tensor:
#      x y z
#    x 1.652740 0.000000 0.000000 
#    y 0.000000 1.661920 0.000000 
#    z 0.000000 0.000000 1.595570 
# 
# From -- ./inp_files/23761.got.cif
#   From: 2010.05.17/outbox.cif.g08.bks.cpg/sg67_12_cif.got.tgz:23761.got - 2010.06.03 18:28:57.
