data_PCOD9503684
_publ_section_title
;
Structure prediction by ZEFSAII (Michael W. Deem and Ramdas Pophale) SiO2 
 PCOD9503684
Probable space group: C M M A
;
_chemical_formula_sum "Si O2"
_cell_formula_units_Z 96
_cell_length_a 21.231991
_cell_length_b 14.815426
_cell_length_c 16.626028
_cell_angle_alpha 90.000000
_cell_angle_beta 90.000000
_cell_angle_gamma 90.000000
_cell_volume 5229.899852
_symmetry_space_group_name_H-M "C M M A"
_symmetry_group_IT_number 67
_symmetry_cell_setting 'orthorhombic'
loop_
_space_group_symop_operation_xyz
x,y,z
-x,1/2-y,z
x,-y,-z
-x,1/2+y,-z
-x,-y,-z
x,1/2+y,-z
-x,y,z
x,1/2-y,z
1/2+x,1/2+y,z
1/2-x,-y,z
1/2+x,1/2-y,-z
1/2-x,y,-z
1/2-x,1/2-y,-z
1/2+x,y,-z
1/2-x,1/2+y,z
1/2+x,-y,z
loop_
_atom_site_type_symbol
_atom_site_label
_atom_site_fract_x
_atom_site_fract_y
_atom_site_fract_z
Si Si1 0.241231 0.142205 0.856660
Si Si2 0.926919 0.352801 0.389067
Si Si3 0.680257 0.893318 0.517551
Si Si4 0.573820 0.992257 0.247016
Si Si5 0.668124 0.645807 0.705145
Si Si6 0.647147 0.010322 0.908696
O O1 0.241943 0.250000 0.873180
O O2 0.230781 0.129103 0.759799
O O3 0.300549 0.088640 0.893044
O O4 0.182087 0.085496 0.890876
O O5 0.925939 0.250000 0.359471
O O6 0.877061 0.359420 0.461863
O O7 0.909555 0.418955 0.315767
O O8 0.000000 0.372921 0.414076
O O9 0.750000 0.856562 0.500000
O O10 0.672859 0.873503 0.611232
O O11 0.681287 0.000000 0.500000
O O12 0.500000 0.007204 0.252284
O O13 0.613248 0.081236 0.265284
O O14 0.594233 0.967772 0.156821
O O15 0.652424 0.750000 0.718370
O O16 0.625544 0.000000 0.000000
#
# Coordination Sequence:
#
# PCOD9503684 Si02
#       6
#    16  16  16  16  16  16
#     4   9  19  35  58  84 117 151 184 227 281 345
#     4  10  22  40  60  82 113 159 207 242 283 345
#     4  11  23  36  59  89 122 155 191 246 294 335
#     4  10  22  40  59  79 111 150 191 241 287 335
#     4  10  21  37  57  85 113 149 193 230 282 343
#     4  10  21  35  57  87 114 143 186 234 287 352
#
# _framework density 18.355993000000002
#
# number of rings (size 3 to 8) (size 9 to 14) (size 15 to 20)
#    0.000    2.000    1.667    1.500    2.333    6.333 
#    0.000    0.000    0.000    0.000    0.000    4.667 
#    0.000    0.000    0.000    0.000    0.000    0.000 
#
# Total GULP energy -267450.303106 kJ/mol
# GULP energy per Si atom -5571.881315 kJ/mol
# Density = 1.831421 g / cm^3
# Si number density = 18.355993 Si / 1000 Ang^3
#
#
#
# Elastic Constant Matrix: (Units=GPa)
#
#
# Indices 1 2 3 4 5 6 
#
# 1 54.2532 5.5807 27.9179 0.0000 0.0000 0.0000
# 2 5.5807 90.1135 10.9077 0.0000 0.0000 0.0000
# 3 27.9179 10.9077 125.4085 0.0000 0.0000 0.0000
# 4 0.0000 0.0000 0.0000 25.1505 0.0000 0.0000
# 5 0.0000 0.0000 0.0000 0.0000 23.0816 0.0000
# 6 0.0000 0.0000 0.0000 0.0000 0.0000 26.9106
#
#
#
# Elastic Compliance Matrix: (Units=1/GPa)
#
#
# Indices 1 2 3 4 5 6 
#
# 1 0.020865 -0.000738 -0.004581 0.000000 0.000000 0.000000
# 2 -0.000738 0.011241 -0.000814 0.000000 0.000000 0.000000
# 3 -0.004581 -0.000814 0.009064 0.000000 0.000000 0.000000
# 4 0.000000 0.000000 0.000000 0.039761 0.000000 0.000000
# 5 0.000000 0.000000 0.000000 0.000000 0.043325 0.000000
# 6 0.000000 0.000000 0.000000 0.000000 0.000000 0.037160
#
#
# Mechanical properties :
#
#
# Convention : Reuss Voigt Hill
#
# Bulk Modulus (GPa) = 34.59374 39.84306 37.21840
# Shear Modulus (GPa) = 27.27536 30.05314 28.66425
#
# Velocity S-wave (km/s) = 3.85893 4.05067 3.95596
# Velocity P-wave (km/s) = 6.22431 6.60531 6.41764
#
# Compressibility (1/GPa) = 0.02890696
#
# Stress axis : x y z
#
# Youngs Moduli (GPa) = 47.92680 88.95786 110.32115
#
# Poissons Ratio (x) = 0.06562 0.50535
# Poissons Ratio (y) = 0.03536 0.08975
# Poissons Ratio (z) = 0.21954 0.07237
#
# Static dielectric constant tensor:
#      x y z
#    x 1.636640 0.000000 0.000000 
#    y 0.000000 1.634230 0.000000 
#    z 0.000000 0.000000 1.681280 
# 
# From -- ./inp_files/27180.got.cif
#   From: 2010.05.17/outbox.cif.g08.bks.cpg/sg67_14_cif.got.tgz:27180.got - 2010.06.03 18:28:57.
