data_PCOD9503688
_publ_section_title
;
Structure prediction by ZEFSAII (Michael W. Deem and Ramdas Pophale) SiO2 
 PCOD9503688
Probable space group: C M M A
;
_chemical_formula_sum "Si O2"
_cell_formula_units_Z 88
_cell_length_a 23.061814
_cell_length_b 36.530512
_cell_length_c 5.612281
_cell_angle_alpha 90.000000
_cell_angle_beta 90.000000
_cell_angle_gamma 90.000000
_cell_volume 4728.121539
_symmetry_space_group_name_H-M "C M M A"
_symmetry_group_IT_number 67
_symmetry_cell_setting 'orthorhombic'
loop_
_space_group_symop_operation_xyz
x,y,z
-x,1/2-y,z
x,-y,-z
-x,1/2+y,-z
-x,-y,-z
x,1/2+y,-z
-x,y,z
x,1/2-y,z
1/2+x,1/2+y,z
1/2-x,-y,z
1/2+x,1/2-y,-z
1/2-x,y,-z
1/2-x,1/2-y,-z
1/2+x,y,-z
1/2-x,1/2+y,z
1/2+x,-y,z
loop_
_atom_site_type_symbol
_atom_site_label
_atom_site_fract_x
_atom_site_fract_y
_atom_site_fract_z
Si Si1 0.750000 0.920767 0.500000
Si Si2 0.929701 0.832352 0.859779
Si Si3 0.676181 0.039789 0.105527
Si Si4 0.570157 0.291952 0.357940
Si Si5 0.360223 0.096284 0.727446
Si Si6 0.565061 0.458306 0.409582
O O1 0.720404 0.948744 0.688925
O O2 0.694231 0.895130 0.444006
O O3 0.915343 0.810407 0.613718
O O4 0.894839 0.870148 0.836513
O O5 0.000000 0.837828 0.861327
O O6 0.913857 0.812704 0.111007
O O7 0.610224 0.040115 0.197120
O O8 0.674418 0.071956 0.916152
O O9 0.687551 0.000000 0.000000
O O10 0.500000 0.291116 0.354022
O O11 0.591014 0.250000 0.351476
O O12 0.406072 0.069601 0.596487
O O13 0.562940 0.500000 0.500000
O O14 0.500000 0.446569 0.347553
#
# Coordination Sequence:
#
# PCOD9503688 Si02
#       6
#     8  16  16  16  16  16
#     4  10  26  41  58  78 111 148 206 266 311 350
#     4  10  21  35  59  93 127 160 194 241 299 365
#     4  11  23  41  58  82 107 151 204 257 308 351
#     4   9  18  35  59  90 127 162 194 231 287 363
#     4  11  23  39  56  82 113 153 202 249 308 352
#     4  10  21  37  55  80 115 151 191 236 292 364
#
# _framework density 18.612044000000001
#
# number of rings (size 3 to 8) (size 9 to 14) (size 15 to 20)
#    0.000    1.818    1.818    1.636    5.091    6.182 
#    0.000    0.000    0.000    0.000    0.000    3.818 
#    0.000    0.000    0.000    0.000    0.000    0.000 
#
# Total GULP energy -245152.598024 kJ/mol
# GULP energy per Si atom -5571.649955 kJ/mol
# Density = 1.856968 g / cm^3
# Si number density = 18.612044 Si / 1000 Ang^3
#
#
#
# Elastic Constant Matrix: (Units=GPa)
#
#
# Indices 1 2 3 4 5 6 
#
# 1 109.3550 9.1483 17.7504 0.0000 0.0000 0.0000
# 2 9.1483 68.8270 13.0968 0.0000 0.0000 0.0000
# 3 17.7504 13.0968 62.6543 0.0000 0.0000 0.0000
# 4 0.0000 0.0000 0.0000 25.0463 0.0000 0.0000
# 5 0.0000 0.0000 0.0000 0.0000 98.7845 0.0000
# 6 0.0000 0.0000 0.0000 0.0000 0.0000 6.7558
#
#
#
# Elastic Compliance Matrix: (Units=1/GPa)
#
#
# Indices 1 2 3 4 5 6 
#
# 1 0.009627 -0.000792 -0.002562 0.000000 0.000000 0.000000
# 2 -0.000792 0.015196 -0.002952 0.000000 0.000000 0.000000
# 3 -0.002562 -0.002952 0.017303 0.000000 0.000000 0.000000
# 4 0.000000 0.000000 0.000000 0.039926 0.000000 0.000000
# 5 0.000000 0.000000 0.000000 0.000000 0.010123 0.000000
# 6 0.000000 0.000000 0.000000 0.000000 0.000000 0.148021
#
#
# Mechanical properties :
#
#
# Convention : Reuss Voigt Hill
#
# Bulk Modulus (GPa) = 33.88168 35.64745 34.76457
# Shear Modulus (GPa) = 19.03697 39.50671 29.27184
#
# Velocity S-wave (km/s) = 3.20164 4.61221 3.97008
# Velocity P-wave (km/s) = 5.64899 6.89622 6.30352
#
# Compressibility (1/GPa) = 0.02951447
#
# Stress axis : x y z
#
# Youngs Moduli (GPa) = 103.87875 65.80593 57.79199
#
# Poissons Ratio (x) = 0.05212 0.14805
# Poissons Ratio (y) = 0.08228 0.17061
# Poissons Ratio (z) = 0.26611 0.19427
#
# Static dielectric constant tensor:
#      x y z
#    x 1.658710 0.000000 0.000000 
#    y 0.000000 1.542190 0.000000 
#    z 0.000000 0.000000 1.657970 
# 
# From -- ./inp_files/3631.got.cif
#   From: 2010.05.17/outbox.cif.g08.bks.cpg/sg67_2_cif.got.tgz:3631.got - 2010.06.03 18:28:57.
