data_PCOD9503287
_publ_section_title
;
Structure prediction by ZEFSAII (Michael W. Deem and Ramdas Pophale) SiO2 
 PCOD9503287
Probable space group: C M M A
;
_chemical_formula_sum "Si O2"
_cell_formula_units_Z 116
_cell_length_a 28.453974
_cell_length_b 15.073051
_cell_length_c 12.974331
_cell_angle_alpha 90.000000
_cell_angle_beta 90.000000
_cell_angle_gamma 90.000000
_cell_volume 5564.537485
_symmetry_space_group_name_H-M "C M M A"
_symmetry_group_IT_number 67
_symmetry_cell_setting 'orthorhombic'
loop_
_space_group_symop_operation_xyz
x,y,z
-x,1/2-y,z
x,-y,-z
-x,1/2+y,-z
-x,-y,-z
x,1/2+y,-z
-x,y,z
x,1/2-y,z
1/2+x,1/2+y,z
1/2-x,-y,z
1/2+x,1/2-y,-z
1/2-x,y,-z
1/2-x,1/2-y,-z
1/2+x,y,-z
1/2-x,1/2+y,z
1/2+x,-y,z
loop_
_atom_site_type_symbol
_atom_site_label
_atom_site_fract_x
_atom_site_fract_y
_atom_site_fract_z
Si Si1 0.271648 0.146009 0.261781
Si Si2 0.640890 0.353335 0.416244
Si Si3 0.922449 0.107531 0.999234
Si Si4 0.000000 0.250000 0.939641
Si Si5 0.319828 0.350489 0.628107
Si Si6 0.894788 0.588779 0.778500
Si Si7 0.552711 0.530128 0.619852
Si Si8 0.330519 0.947553 0.899631
O O1 0.262296 0.250000 0.239574
O O2 0.316123 0.140539 0.337696
O O3 0.225976 0.107905 0.319501
O O4 0.288202 0.097637 0.159440
O O5 0.629589 0.250000 0.433682
O O6 0.659098 0.392705 0.524925
O O7 0.594541 0.399444 0.373940
O O8 0.959370 0.171196 0.946195
O O9 0.917859 0.130745 0.120337
O O10 0.871848 0.116023 0.943481
O O11 0.933296 0.000000 0.000000
O O12 0.305457 0.250000 0.598542
O O13 0.361244 0.349930 0.710899
O O14 0.932599 0.545905 0.700903
O O15 0.859432 0.513490 0.824028
O O16 0.552601 0.500000 0.500000
O O17 0.500000 0.562402 0.643762
O O18 0.314006 0.000000 0.000000
#
# Coordination Sequence:
#
# PCOD9503287 Si02
#       8
#    16  16  16   4  16  16  16  16
#     4  10  20  36  63  91 125 163 206 250 316 379
#     4  10  20  38  60  87 127 162 203 258 307 374
#     4   9  23  41  61  92 129 161 209 280 322 378
#     4  12  22  40  72  94 112 166 228 260 340 394
#     4  10  21  36  59  92 122 160 205 258 307 374
#     4  10  20  40  60  81 125 163 203 257 312 369
#     4  11  22  37  59  86 120 167 206 249 318 372
#     4   9  20  41  60  85 123 163 197 262 321 363
#
# _framework density 20.846297
#
# number of rings (size 3 to 8) (size 9 to 14) (size 15 to 20)
#    0.000    2.345    2.759    0.621    2.897    2.483 
#    1.241    5.517    0.000    6.621    0.000    0.000 
#    0.000    0.000    0.000    0.000    0.000    0.000 
#
# Total GULP energy -323175.377591 kJ/mol
# GULP energy per Si atom -5571.989269 kJ/mol
# Density = 2.079885 g / cm^3
# Si number density = 20.846297 Si / 1000 Ang^3
#
#
#
# Elastic Constant Matrix: (Units=GPa)
#
#
# Indices 1 2 3 4 5 6 
#
# 1 119.8415 33.7424 12.2961 0.0000 0.0000 0.0000
# 2 33.7424 41.8249 16.0101 0.0000 0.0000 0.0000
# 3 12.2961 16.0101 54.7402 0.0000 0.0000 0.0000
# 4 0.0000 0.0000 0.0000 17.8055 0.0000 0.0000
# 5 0.0000 0.0000 0.0000 0.0000 -33.7067 0.0000
# 6 0.0000 0.0000 0.0000 0.0000 0.0000 28.5119
#
#
#
# Elastic Compliance Matrix: (Units=1/GPa)
#
#
# Indices 1 2 3 4 5 6 
#
# 1 0.010798 -0.008764 0.000138 0.000000 0.000000 0.000000
# 2 -0.008764 0.034036 -0.007986 0.000000 0.000000 0.000000
# 3 0.000138 -0.007986 0.020573 0.000000 0.000000 0.000000
# 4 0.000000 0.000000 0.000000 0.056163 0.000000 0.000000
# 5 0.000000 0.000000 0.000000 0.000000 -0.029668 0.000000
# 6 0.000000 0.000000 0.000000 0.000000 0.000000 0.035073
#
#
# Mechanical properties :
#
#
# Convention : Reuss Voigt Hill
#
# Bulk Modulus (GPa) = 31.07275 37.83375 34.45325
# Shear Modulus (GPa) = 29.25221 12.81266 21.03244
#
# Velocity S-wave (km/s) = 3.75004 2.48185 3.17981
# Velocity P-wave (km/s) = 5.80417 5.13820 5.48131
#
# Compressibility (1/GPa) = 0.03218254
#
# Stress axis : x y z
#
# Youngs Moduli (GPa) = 92.61186 29.38028 48.60752
#
# Poissons Ratio (x) = 0.25748 -0.00669
# Poissons Ratio (y) = 0.81163 0.38819
# Poissons Ratio (z) = -0.01276 0.23464
#
# Static dielectric constant tensor:
#      x y z
#    x 1.725600 0.000000 0.000000 
#    y 0.000000 1.800000 0.000000 
#    z 0.000000 0.000000 1.774650 
# 
# From -- ./inp_files/23038.got.cif
#   From: 2010.05.17/outbox.cif.g08.bks.cpg/sg67_12_cif.got.tgz:23038.got - 2010.06.03 18:28:57.
