data_PCOD9503320
_publ_section_title
;
Structure prediction by ZEFSAII (Michael W. Deem and Ramdas Pophale) SiO2 
 PCOD9503320
Probable space group: C M M A
;
_chemical_formula_sum "Si O2"
_cell_formula_units_Z 112
_cell_length_a 14.356471
_cell_length_b 28.343710
_cell_length_c 15.044900
_cell_angle_alpha 90.000000
_cell_angle_beta 90.000000
_cell_angle_gamma 90.000000
_cell_volume 6122.005272
_symmetry_space_group_name_H-M "C M M A"
_symmetry_group_IT_number 67
_symmetry_cell_setting 'orthorhombic'
loop_
_space_group_symop_operation_xyz
x,y,z
-x,1/2-y,z
x,-y,-z
-x,1/2+y,-z
-x,-y,-z
x,1/2+y,-z
-x,y,z
x,1/2-y,z
1/2+x,1/2+y,z
1/2-x,-y,z
1/2+x,1/2-y,-z
1/2-x,y,-z
1/2-x,1/2-y,-z
1/2+x,y,-z
1/2-x,1/2+y,z
1/2+x,-y,z
loop_
_atom_site_type_symbol
_atom_site_label
_atom_site_fract_x
_atom_site_fract_y
_atom_site_fract_z
Si Si1 0.892323 0.124860 0.177049
Si Si2 0.103689 0.924526 0.441853
Si Si3 0.757250 0.587624 0.298716
Si Si4 0.105474 0.617365 0.152459
Si Si5 0.103180 0.468983 0.367369
Si Si6 0.360608 0.445792 0.984000
Si Si7 0.746202 0.196763 0.894113
O O1 0.824060 0.121452 0.261902
O O2 0.880158 0.079240 0.111081
O O3 0.849589 0.169708 0.126878
O O4 0.000000 0.129779 0.198624
O O5 0.187675 0.900123 0.389270
O O6 0.113381 0.934740 0.546599
O O7 0.000000 0.904510 0.425821
O O8 0.104738 0.977567 0.401161
O O9 0.837370 0.586412 0.224187
O O10 0.692812 0.541780 0.309675
O O11 0.168410 0.663943 0.138766
O O12 0.000000 0.627098 0.181605
O O13 0.101937 0.588600 0.060598
O O14 0.000000 0.460804 0.327539
O O15 0.391956 0.500000 0.000000
O O16 0.250000 0.445635 0.000000
O O17 0.750133 0.250000 0.858534
O O18 0.750000 0.198633 0.000000
#
# Coordination Sequence:
#
# PCOD9503320 Si02
#       7
#    16  16  16  16  16  16  16
#     4  11  22  37  53  75 106 138 177 222 262 312
#     4   9  18  32  49  70  98 135 180 225 267 311
#     4  11  20  31  47  70  99 134 167 214 259 306
#     4  11  22  37  53  75 106 138 177 222 262 312
#     4   9  18  32  49  70  98 135 180 225 267 311
#     4  11  21  37  53  67  97 146 189 220 254 294
#     4  10  20  37  59  83 102 125 168 222 279 332
#
# _framework density 18.294658999999999
#
# number of rings (size 3 to 8) (size 9 to 14) (size 15 to 20)
#    0.000    1.714    4.286    3.000    0.000    5.143 
#    0.000    1.429    0.000    0.000    0.000    0.000 
#    0.000   36.571    0.000   96.000    0.000    0.000 
#
# Total GULP energy -312008.246491 kJ/mol
# GULP energy per Si atom -5571.575830 kJ/mol
# Density = 1.825302 g / cm^3
# Si number density = 18.294659 Si / 1000 Ang^3
#
#
#
# Elastic Constant Matrix: (Units=GPa)
#
#
# Indices 1 2 3 4 5 6 
#
# 1 166.0196 32.9294 33.6066 0.0000 0.0000 0.0000
# 2 32.9294 82.3609 20.9398 0.0000 0.0000 0.0000
# 3 33.6066 20.9398 41.5477 0.0000 0.0000 0.0000
# 4 0.0000 0.0000 0.0000 12.5513 0.0000 0.0000
# 5 0.0000 0.0000 0.0000 0.0000 19.7825 0.0000
# 6 0.0000 0.0000 0.0000 0.0000 0.0000 -14.0392
#
#
#
# Elastic Compliance Matrix: (Units=1/GPa)
#
#
# Indices 1 2 3 4 5 6 
#
# 1 0.007392 -0.001646 -0.005150 0.000000 0.000000 0.000000
# 2 -0.001646 0.014293 -0.005872 0.000000 0.000000 0.000000
# 3 -0.005150 -0.005872 0.031194 0.000000 0.000000 0.000000
# 4 0.000000 0.000000 0.000000 0.079673 0.000000 0.000000
# 5 0.000000 0.000000 0.000000 0.000000 0.050550 0.000000
# 6 0.000000 0.000000 0.000000 0.000000 0.000000 -0.071229
#
#
# Mechanical properties :
#
#
# Convention : Reuss Voigt Hill
#
# Bulk Modulus (GPa) = 36.30691 51.65331 43.98011
# Shear Modulus (GPa) = 34.15548 17.15574 25.65561
#
# Velocity S-wave (km/s) = 4.32553 3.06559 3.74887
# Velocity P-wave (km/s) = 6.69594 6.38951 6.54452
#
# Compressibility (1/GPa) = 0.02754297
#
# Stress axis : x y z
#
# Youngs Moduli (GPa) = 135.27487 69.96537 32.05791
#
# Poissons Ratio (x) = 0.11518 0.16509
# Poissons Ratio (y) = 0.22270 0.18824
# Poissons Ratio (z) = 0.69663 0.41083
#
# Static dielectric constant tensor:
#      x y z
#    x 1.677620 0.000000 0.000000 
#    y 0.000000 1.645990 0.000000 
#    z 0.000000 0.000000 1.691680 
# 
# From -- ./inp_files/27687.got.cif
#   From: 2010.05.17/outbox.cif.g08.bks.cpg/sg67_14_cif.got.tgz:27687.got - 2010.06.03 18:28:57.
