data_PCOD9503729
_publ_section_title
;
Structure prediction by ZEFSAII (Michael W. Deem and Ramdas Pophale) SiO2 
 PCOD9503729
Probable space group: C M M A
;
_chemical_formula_sum "Si O2"
_cell_formula_units_Z 104
_cell_length_a 9.246561
_cell_length_b 28.867283
_cell_length_c 20.915662
_cell_angle_alpha 90.000000
_cell_angle_beta 90.000000
_cell_angle_gamma 90.000000
_cell_volume 5582.873197
_symmetry_space_group_name_H-M "C M M A"
_symmetry_group_IT_number 67
_symmetry_cell_setting 'orthorhombic'
loop_
_space_group_symop_operation_xyz
x,y,z
-x,1/2-y,z
x,-y,-z
-x,1/2+y,-z
-x,-y,-z
x,1/2+y,-z
-x,y,z
x,1/2-y,z
1/2+x,1/2+y,z
1/2-x,-y,z
1/2+x,1/2-y,-z
1/2-x,y,-z
1/2-x,1/2-y,-z
1/2+x,y,-z
1/2-x,1/2+y,z
1/2+x,-y,z
loop_
_atom_site_type_symbol
_atom_site_label
_atom_site_fract_x
_atom_site_fract_y
_atom_site_fract_z
Si Si1 0.171135 0.951846 0.245444
Si Si2 0.824050 0.449966 0.605260
Si Si3 0.835255 0.305605 0.294058
Si Si4 0.326661 0.356875 0.182160
Si Si5 0.750000 0.378557 0.500000
Si Si6 0.846872 0.303423 0.585987
Si Si7 0.328033 0.304298 0.931903
O O1 0.197202 0.938220 0.319866
O O2 0.211672 0.909997 0.198871
O O3 0.000000 0.959348 0.239990
O O4 0.250000 0.000000 0.232799
O O5 0.750000 0.500000 0.594814
O O6 0.742385 0.413850 0.559456
O O7 0.000000 0.450222 0.592618
O O8 0.831039 0.250000 0.287281
O O9 0.729761 0.327958 0.242770
O O10 0.780471 0.315737 0.365571
O O11 0.000000 0.321288 0.284013
O O12 0.500000 0.353143 0.175613
O O13 0.246347 0.336538 0.120636
O O14 0.856132 0.339985 0.529319
O O15 0.830362 0.250000 0.565109
O O16 0.000000 0.305865 0.622512
O O17 0.500000 0.312872 0.936685
O O18 0.309377 0.250000 0.913346
O O19 0.250000 0.310554 0.000000
#
# Coordination Sequence:
#
# PCOD9503729 Si02
#       7
#    16  16  16  16   8  16  16
#     4   9  20  39  60  82 109 141 180 228 281 336
#     4  10  22  39  57  78 105 136 174 223 279 338
#     4  10  21  36  54  79 110 143 183 230 277 328
#     4  11  21  34  57  87 117 151 190 230 276 329
#     4  12  22  34  56  78 102 136 178 224 276 338
#     4  10  22  39  56  75 103 140 181 226 277 333
#     4  10  21  37  57  85 123 163 200 235 272 318
#
# _framework density 18.628399999999999
#
# number of rings (size 3 to 8) (size 9 to 14) (size 15 to 20)
#    0.000    1.846    0.000    3.692    0.000    9.231 
#    0.000    4.615    0.000    0.462    0.000    3.231 
#    0.000    0.000    0.000    0.000    0.000    0.000 
#
# Total GULP energy -289890.280411 kJ/mol
# GULP energy per Si atom -5574.813085 kJ/mol
# Density = 1.858600 g / cm^3
# Si number density = 18.628400 Si / 1000 Ang^3
#
#
#
# Elastic Constant Matrix: (Units=GPa)
#
#
# Indices 1 2 3 4 5 6 
#
# 1 77.7099 62.2025 65.9525 0.0000 0.0000 0.0000
# 2 62.2025 129.3113 87.0029 0.0000 0.0000 0.0000
# 3 65.9525 87.0029 102.1631 0.0000 0.0000 0.0000
# 4 0.0000 0.0000 0.0000 36.2765 0.0000 0.0000
# 5 0.0000 0.0000 0.0000 0.0000 5.9521 0.0000
# 6 0.0000 0.0000 0.0000 0.0000 0.0000 36.4918
#
#
#
# Elastic Compliance Matrix: (Units=1/GPa)
#
#
# Indices 1 2 3 4 5 6 
#
# 1 0.029008 -0.003171 -0.016026 0.000000 0.000000 0.000000
# 2 -0.003171 0.018456 -0.013670 0.000000 0.000000 0.000000
# 3 -0.016026 -0.013670 0.031776 0.000000 0.000000 0.000000
# 4 0.000000 0.000000 0.000000 0.027566 0.000000 0.000000
# 5 0.000000 0.000000 0.000000 0.000000 0.168008 0.000000
# 6 0.000000 0.000000 0.000000 0.000000 0.000000 0.027403
#
#
# Mechanical properties :
#
#
# Convention : Reuss Voigt Hill
#
# Bulk Modulus (GPa) = 74.04528 82.16667 78.10597
# Shear Modulus (GPa) = 13.42451 22.01251 17.71851
#
# Velocity S-wave (km/s) = 2.68740 3.44126 3.08743
# Velocity P-wave (km/s) = 7.03309 7.74556 7.39791
#
# Compressibility (1/GPa) = 0.01350525
#
# Stress axis : x y z
#
# Youngs Moduli (GPa) = 34.47361 54.18161 31.47075
#
# Poissons Ratio (x) = 0.17183 0.50434
# Poissons Ratio (y) = 0.10933 0.43022
# Poissons Ratio (z) = 0.55246 0.74068
#
# Static dielectric constant tensor:
#      x y z
#    x 1.502560 0.000000 0.000000 
#    y 0.000000 1.648180 0.000000 
#    z 0.000000 0.000000 1.629180 
# 
# From -- ./inp_files/37304.got.cif
#   From: 2010.05.17/outbox.cif.g08.bks.cpg/sg67_19_cif.got.tgz:37304.got - 2010.06.03 18:28:57.
