data_PCOD9503902
_publ_section_title
;
Structure prediction by ZEFSAII (Michael W. Deem and Ramdas Pophale) SiO2 
 PCOD9503902
Probable space group: C M M A
;
_chemical_formula_sum "Si O2"
_cell_formula_units_Z 80
_cell_length_a 14.661772
_cell_length_b 31.689804
_cell_length_c 7.530551
_cell_angle_alpha 90.000000
_cell_angle_beta 90.000000
_cell_angle_gamma 90.000000
_cell_volume 3498.909978
_symmetry_space_group_name_H-M "C M M A"
_symmetry_group_IT_number 67
_symmetry_cell_setting 'orthorhombic'
loop_
_space_group_symop_operation_xyz
x,y,z
-x,1/2-y,z
x,-y,-z
-x,1/2+y,-z
-x,-y,-z
x,1/2+y,-z
-x,y,z
x,1/2-y,z
1/2+x,1/2+y,z
1/2-x,-y,z
1/2+x,1/2-y,-z
1/2-x,y,-z
1/2-x,1/2-y,-z
1/2+x,y,-z
1/2-x,1/2+y,z
1/2+x,-y,z
loop_
_atom_site_type_symbol
_atom_site_label
_atom_site_fract_x
_atom_site_fract_y
_atom_site_fract_z
Si Si1 0.606440 0.702940 0.254272
Si Si2 0.357860 0.046582 0.045931
Si Si3 0.110623 0.136497 0.536749
Si Si4 0.107500 0.453958 0.538792
Si Si5 0.356358 0.637764 0.957560
O O1 0.500000 0.707517 0.299838
O O2 0.646646 0.750000 0.241462
O O3 0.646413 0.673153 0.408752
O O4 0.608681 0.676947 0.071165
O O5 0.378017 0.050659 0.252739
O O6 0.250000 0.045302 0.000000
O O7 0.393645 0.091853 0.976543
O O8 0.394638 0.000000 0.000000
O O9 0.144077 0.090487 0.466163
O O10 0.000000 0.134944 0.524954
O O11 0.130451 0.142606 0.745878
O O12 0.147327 0.500000 0.500000
O O13 0.000000 0.455861 0.492297
O O14 0.250000 0.636262 0.000000
#
# Coordination Sequence:
#
# PCOD9503902 Si02
#       5
#    16  16  16  16  16
#     4  10  22  39  61  86 110 147 194 235 286 344
#     4   9  19  35  52  76 114 152 188 221 270 338
#     4   9  19  37  57  80 114 149 186 235 286 337
#     4   9  18  32  53  82 108 139 185 234 283 328
#     4  10  21  37  58  84 116 151 189 236 283 337
#
# _framework density 22.864265
#
# number of rings (size 3 to 8) (size 9 to 14) (size 15 to 20)
#    0.000    2.600    0.000    0.600    2.800    3.200 
#    0.000    5.000    0.000    0.000    0.000    0.000 
#    0.000    0.000    0.000    0.000    0.000    0.000 
#
# Total GULP energy -222985.400577 kJ/mol
# GULP energy per Si atom -5574.635014 kJ/mol
# Density = 2.281222 g / cm^3
# Si number density = 22.864265 Si / 1000 Ang^3
#
#
#
# Elastic Constant Matrix: (Units=GPa)
#
#
# Indices 1 2 3 4 5 6 
#
# 1 70.5616 5.2708 -19.3989 0.0000 0.0000 0.0000
# 2 5.2708 279.4857 85.7526 0.0000 0.0000 0.0000
# 3 -19.3989 85.7526 89.3873 0.0000 0.0000 0.0000
# 4 0.0000 0.0000 0.0000 28.2301 0.0000 0.0000
# 5 0.0000 0.0000 0.0000 0.0000 44.6959 0.0000
# 6 0.0000 0.0000 0.0000 0.0000 0.0000 -140.0035
#
#
#
# Elastic Compliance Matrix: (Units=1/GPa)
#
#
# Indices 1 2 3 4 5 6 
#
# 1 0.015758 -0.001908 0.005250 0.000000 0.000000 0.000000
# 2 -0.001908 0.005302 -0.005500 0.000000 0.000000 0.000000
# 3 0.005250 -0.005500 0.017603 0.000000 0.000000 0.000000
# 4 0.000000 0.000000 0.000000 0.035423 0.000000 0.000000
# 5 0.000000 0.000000 0.000000 0.000000 0.022373 0.000000
# 6 0.000000 0.000000 0.000000 0.000000 0.000000 -0.007143
#
#
# Mechanical properties :
#
#
# Convention : Reuss Voigt Hill
#
# Bulk Modulus (GPa) = 29.11471 64.74265 46.92868
# Shear Modulus (GPa) = 47.58230 11.10520 29.34375
#
# Velocity S-wave (km/s) = 4.56683 2.20625 3.58633
# Velocity P-wave (km/s) = 6.36940 5.90488 6.14154
#
# Compressibility (1/GPa) = 0.03434690
#
# Stress axis : x y z
#
# Youngs Moduli (GPa) = 63.46001 188.62494 56.80819
#
# Poissons Ratio (x) = 0.35991 -0.29826
# Poissons Ratio (y) = 0.12109 0.31245
# Poissons Ratio (z) = -0.33318 1.03745
#
# Static dielectric constant tensor:
#      x y z
#    x 1.910000 0.000000 0.000000 
#    y 0.000000 2.122930 0.000000 
#    z 0.000000 0.000000 1.803950 
# 
# From -- ./inp_files/10139.got.cif
#   From: 2010.05.17/outbox.cif.g08.bks.cpg/sg67_6_cif.got.tgz:10139.got - 2010.06.03 18:28:57.
