data_PCOD9503100
_publ_section_title
;
Structure prediction by ZEFSAII (Michael W. Deem and Ramdas Pophale) SiO2 
 PCOD9503100
Probable space group: C M M A
;
_chemical_formula_sum "Si O2"
_cell_formula_units_Z 80
_cell_length_a 25.684743
_cell_length_b 14.685396
_cell_length_c 10.595037
_cell_angle_alpha 90.000000
_cell_angle_beta 90.000000
_cell_angle_gamma 90.000000
_cell_volume 3996.348597
_symmetry_space_group_name_H-M "C M M A"
_symmetry_group_IT_number 67
_symmetry_cell_setting 'orthorhombic'
loop_
_space_group_symop_operation_xyz
x,y,z
-x,1/2-y,z
x,-y,-z
-x,1/2+y,-z
-x,-y,-z
x,1/2+y,-z
-x,y,z
x,1/2-y,z
1/2+x,1/2+y,z
1/2-x,-y,z
1/2+x,1/2-y,-z
1/2-x,y,-z
1/2-x,1/2-y,-z
1/2+x,y,-z
1/2-x,1/2+y,z
1/2+x,-y,z
loop_
_atom_site_type_symbol
_atom_site_label
_atom_site_fract_x
_atom_site_fract_y
_atom_site_fract_z
Si Si1 0.500000 0.352379 0.189914
Si Si2 0.223634 0.639973 0.631091
Si Si3 0.000000 0.462920 0.359059
Si Si4 0.113036 0.545481 0.639152
Si Si5 0.894324 0.925538 0.110224
Si Si6 0.719155 0.857427 0.881558
O O1 0.500000 0.250000 0.247397
O O2 0.500000 0.443058 0.277882
O O3 0.446477 0.365491 0.113597
O O4 0.223001 0.750000 0.628442
O O5 0.250000 0.609478 0.500000
O O6 0.164459 0.606424 0.646739
O O7 0.259063 0.607630 0.748246
O O8 0.000000 0.500000 0.500000
O O9 0.055003 0.411621 0.342264
O O10 0.113894 0.500000 0.500000
O O11 0.113917 0.473173 0.753250
O O12 0.841384 0.870924 0.093095
O O13 0.899429 0.000000 0.000000
O O14 0.729774 0.750000 0.876773
O O15 0.750000 0.896895 0.000000
#
# Coordination Sequence:
#
# PCOD9503100 Si02
#       6
#     8  16   8  16  16  16
#     4  10  21  39  62  85 113 152 194 234 287 349
#     4  10  21  36  54  79 112 148 187 230 277 334
#     4   8  18  37  56  83 114 142 184 240 282 329
#     4  10  20  36  57  79 110 146 183 232 285 336
#     4  11  22  36  58  85 112 143 187 238 281 331
#     4  10  21  36  53  77 111 146 181 225 278 336
#
# _framework density 20.018272
#
# number of rings (size 3 to 8) (size 9 to 14) (size 15 to 20)
#    0.000    2.000    0.000    3.300    0.000    4.800 
#    0.000   12.500    0.000    0.000    0.000    0.000 
#    0.000    0.000    0.000    0.000    0.000    0.000 
#
# Total GULP energy -222986.660922 kJ/mol
# GULP energy per Si atom -5574.666523 kJ/mol
# Density = 1.997271 g / cm^3
# Si number density = 20.018272 Si / 1000 Ang^3
#
#
#
# Elastic Constant Matrix: (Units=GPa)
#
#
# Indices 1 2 3 4 5 6 
#
# 1 192.9053 26.2435 39.7218 0.0000 0.0000 0.0000
# 2 26.2435 55.7176 22.0665 0.0000 0.0000 0.0000
# 3 39.7218 22.0665 109.7736 0.0000 0.0000 0.0000
# 4 0.0000 0.0000 0.0000 -3.6990 0.0000 0.0000
# 5 0.0000 0.0000 0.0000 0.0000 29.5622 0.0000
# 6 0.0000 0.0000 0.0000 0.0000 0.0000 15.1137
#
#
#
# Elastic Compliance Matrix: (Units=1/GPa)
#
#
# Indices 1 2 3 4 5 6 
#
# 1 0.005813 -0.002070 -0.001687 0.000000 0.000000 0.000000
# 2 -0.002070 0.020237 -0.003319 0.000000 0.000000 0.000000
# 3 -0.001687 -0.003319 0.010387 0.000000 0.000000 0.000000
# 4 0.000000 0.000000 0.000000 -0.270342 0.000000 0.000000
# 5 0.000000 0.000000 0.000000 0.000000 0.033827 0.000000
# 6 0.000000 0.000000 0.000000 0.000000 0.000000 0.066165
#
#
# Mechanical properties :
#
#
# Convention : Reuss Voigt Hill
#
# Bulk Modulus (GPa) = 44.87308 59.38445 52.12876
# Shear Modulus (GPa) = -44.51076 26.21970 -9.14553
#
# Velocity S-wave (km/s) = -4.72052 3.62303 -2.13975
# Velocity P-wave (km/s) = 2.69191 6.87250 4.47129
#
# Compressibility (1/GPa) = 0.02228508
#
# Stress axis : x y z
#
# Youngs Moduli (GPa) = 172.03099 49.41452 96.27017
#
# Poissons Ratio (x) = 0.10227 0.16244
# Poissons Ratio (y) = 0.35605 0.31953
# Poissons Ratio (z) = 0.29028 0.16401
#
# Static dielectric constant tensor:
#      x y z
#    x 1.731070 0.000000 0.000000 
#    y 0.000000 1.693920 0.000000 
#    z 0.000000 0.000000 1.669390 
# 
# From -- ./inp_files/21667.got.cif
#   From: 2010.05.17/outbox.cif.g08.bks.cpg/sg67_11_cif.got.tgz:21667.got - 2010.06.03 18:28:57.
