data_PCOD9503655
_publ_section_title
;
Structure prediction by ZEFSAII (Michael W. Deem and Ramdas Pophale) SiO2 
 PCOD9503655
Probable space group: C M M A
;
_chemical_formula_sum "Si O2"
_cell_formula_units_Z 68
_cell_length_a 10.842157
_cell_length_b 14.528199
_cell_length_c 21.442876
_cell_angle_alpha 90.000000
_cell_angle_beta 90.000000
_cell_angle_gamma 90.000000
_cell_volume 3377.617809
_symmetry_space_group_name_H-M "C M M A"
_symmetry_group_IT_number 67
_symmetry_cell_setting 'orthorhombic'
loop_
_space_group_symop_operation_xyz
x,y,z
-x,1/2-y,z
x,-y,-z
-x,1/2+y,-z
-x,-y,-z
x,1/2+y,-z
-x,y,z
x,1/2-y,z
1/2+x,1/2+y,z
1/2-x,-y,z
1/2+x,1/2-y,-z
1/2-x,y,-z
1/2-x,1/2-y,-z
1/2+x,y,-z
1/2-x,1/2+y,z
1/2+x,-y,z
loop_
_atom_site_type_symbol
_atom_site_label
_atom_site_fract_x
_atom_site_fract_y
_atom_site_fract_z
Si Si1 0.641892 0.639997 0.597761
Si Si2 0.250000 0.500000 0.500000
Si Si3 0.365355 0.359224 0.687480
Si Si4 0.362597 0.931026 0.173463
Si Si5 0.133666 0.358470 0.036895
O O1 0.500000 0.631172 0.619083
O O2 0.659046 0.750000 0.581811
O O3 0.668002 0.569843 0.541400
O O4 0.744386 0.612739 0.649276
O O5 0.500000 0.397696 0.666518
O O6 0.371394 0.250000 0.679072
O O7 0.353531 0.379037 0.760809
O O8 0.500000 0.974602 0.172169
O O9 0.353734 0.870639 0.111108
O O10 0.250000 0.000000 0.170926
O O11 0.130012 0.250000 0.023454
O O12 0.000000 0.396938 0.018181
O O13 0.250000 0.397366 0.000000
#
# Coordination Sequence:
#
# PCOD9503655 Si02
#       5
#    16   4  16  16  16
#     4  10  23  42  63  90 122 156 199 248 294 346
#     4  12  24  40  64  92 122 164 196 234 294 358
#     4   9  19  38  62  84 110 148 191 235 286 342
#     4  10  21  35  53  80 112 147 184 228 280 338
#     4   9  18  34  55  77 104 141 187 233 277 330
#
# _framework density 20.132532000000001
#
# number of rings (size 3 to 8) (size 9 to 14) (size 15 to 20)
#    0.000    2.353    0.000    1.412    1.647    7.059 
#    0.000    4.706    0.000    7.059    0.000    0.000 
#    0.000    0.000    0.000    0.000    0.000    0.000 
#
# Total GULP energy -189524.081790 kJ/mol
# GULP energy per Si atom -5574.237700 kJ/mol
# Density = 2.008671 g / cm^3
# Si number density = 20.132532 Si / 1000 Ang^3
#
#
#
# Elastic Constant Matrix: (Units=GPa)
#
#
# Indices 1 2 3 4 5 6 
#
# 1 206.9963 44.9408 90.7954 0.0000 0.0000 0.0000
# 2 44.9408 71.4970 21.3258 0.0000 0.0000 0.0000
# 3 90.7954 21.3258 92.0733 0.0000 0.0000 0.0000
# 4 0.0000 0.0000 0.0000 315.8621 0.0000 0.0000
# 5 0.0000 0.0000 0.0000 0.0000 30.1736 0.0000
# 6 0.0000 0.0000 0.0000 0.0000 0.0000 13.3914
#
#
#
# Elastic Compliance Matrix: (Units=1/GPa)
#
#
# Indices 1 2 3 4 5 6 
#
# 1 0.009185 -0.003300 -0.008293 0.000000 0.000000 0.000000
# 2 -0.003300 0.016210 -0.000501 0.000000 0.000000 0.000000
# 3 -0.008293 -0.000501 0.019155 0.000000 0.000000 0.000000
# 4 0.000000 0.000000 0.000000 0.003166 0.000000 0.000000
# 5 0.000000 0.000000 0.000000 0.000000 0.033142 0.000000
# 6 0.000000 0.000000 0.000000 0.000000 0.000000 0.074675
#
#
# Mechanical properties :
#
#
# Convention : Reuss Voigt Hill
#
# Bulk Modulus (GPa) = 49.10889 76.07673 62.59281
# Shear Modulus (GPa) = 26.80851 86.11905 56.46378
#
# Velocity S-wave (km/s) = 3.65307 6.54744 5.30160
# Velocity P-wave (km/s) = 6.49915 9.74826 8.28455
#
# Compressibility (1/GPa) = 0.02036291
#
# Stress axis : x y z
#
# Youngs Moduli (GPa) = 108.87095 61.69010 52.20524
#
# Poissons Ratio (x) = 0.20357 0.43296
# Poissons Ratio (y) = 0.35925 0.02613
# Poissons Ratio (z) = 0.90291 0.03088
#
# Static dielectric constant tensor:
#      x y z
#    x 1.764470 0.000000 0.000000 
#    y 0.000000 1.703380 0.000000 
#    z 0.000000 0.000000 1.716780 
# 
# From -- ./inp_files/36653.got.cif
#   From: 2010.05.17/outbox.cif.g08.bks.cpg/sg67_19_cif.got.tgz:36653.got - 2010.06.03 18:28:57.
