data_PCOD9503355
_publ_section_title
;
Structure prediction by ZEFSAII (Michael W. Deem and Ramdas Pophale) SiO2 
 PCOD9503355
Probable space group: C M M A
;
_chemical_formula_sum "Si O2"
_cell_formula_units_Z 116
_cell_length_a 16.688531
_cell_length_b 24.584200
_cell_length_c 15.479010
_cell_angle_alpha 90.000000
_cell_angle_beta 90.000000
_cell_angle_gamma 90.000000
_cell_volume 6350.638194
_symmetry_space_group_name_H-M "C M M A"
_symmetry_group_IT_number 67
_symmetry_cell_setting 'orthorhombic'
loop_
_space_group_symop_operation_xyz
x,y,z
-x,1/2-y,z
x,-y,-z
-x,1/2+y,-z
-x,-y,-z
x,1/2+y,-z
-x,y,z
x,1/2-y,z
1/2+x,1/2+y,z
1/2-x,-y,z
1/2+x,1/2-y,-z
1/2-x,y,-z
1/2-x,1/2-y,-z
1/2+x,y,-z
1/2-x,1/2+y,z
1/2+x,-y,z
loop_
_atom_site_type_symbol
_atom_site_label
_atom_site_fract_x
_atom_site_fract_y
_atom_site_fract_z
Si Si1 0.592124 0.602427 0.166356
Si Si2 0.000000 0.750000 0.708813
Si Si3 0.340757 0.508219 0.897377
Si Si4 0.842459 0.813210 0.970044
Si Si5 0.867204 0.158181 0.326825
Si Si6 0.653498 0.187389 0.488976
Si Si7 0.594143 0.628677 0.861207
Si Si8 0.180246 0.185475 0.701333
O O1 0.500000 0.617245 0.151929
O O2 0.606898 0.541215 0.137361
O O3 0.642950 0.645736 0.109561
O O4 0.615199 0.607271 0.266474
O O5 0.929585 0.796848 0.705132
O O6 0.250000 0.500000 0.864585
O O7 0.373816 0.567766 0.877170
O O8 0.338888 0.500000 0.000000
O O9 0.862634 0.750000 0.949528
O O10 0.750000 0.815060 0.000000
O O11 0.891424 0.836210 0.051817
O O12 0.878309 0.153509 0.430058
O O13 0.775336 0.175476 0.309041
O O14 0.624593 0.250000 0.499993
O O15 0.750000 0.189097 0.500000
O O16 0.639748 0.169610 0.390678
O O17 0.500000 0.627786 0.841826
O O18 0.643235 0.654848 0.782404
O O19 0.168266 0.250000 0.711877
#
# Coordination Sequence:
#
# PCOD9503355 Si02
#       8
#    16   4  16  16  16  16  16  16
#     4  12  25  36  57  88 115 150 186 241 301 346
#     4  12  20  32  54  92 126 160 192 252 296 354
#     4  11  23  43  67  84 105 147 204 247 295 354
#     4  11  24  39  57  82 115 156 194 233 290 352
#     4  11  20  35  55  89 126 157 198 244 299 347
#     4   8  15  31  55  81 114 158 199 235 284 354
#     4  12  25  41  60  87 119 154 198 251 291 345
#     4  10  20  37  61  84 121 166 202 236 293 362
#
# _framework density 18.265881
#
# number of rings (size 3 to 8) (size 9 to 14) (size 15 to 20)
#    0.000    1.241    3.448    4.552    0.966    3.586 
#    1.241    0.000    0.000    0.828    0.000    5.793 
#    0.000    0.000    0.000    0.000    0.000    0.000 
#
# Total GULP energy -323309.806010 kJ/mol
# GULP energy per Si atom -5574.307000 kJ/mol
# Density = 1.822431 g / cm^3
# Si number density = 18.265881 Si / 1000 Ang^3
#
#
#
# Elastic Constant Matrix: (Units=GPa)
#
#
# Indices 1 2 3 4 5 6 
#
# 1 83.1136 21.5572 18.5677 0.0000 0.0000 0.0000
# 2 21.5572 80.9252 27.4334 0.0000 0.0000 0.0000
# 3 18.5677 27.4334 93.2777 0.0000 0.0000 0.0000
# 4 0.0000 0.0000 0.0000 21.3049 0.0000 0.0000
# 5 0.0000 0.0000 0.0000 0.0000 -12.6586 0.0000
# 6 0.0000 0.0000 0.0000 0.0000 0.0000 -2.0836
#
#
#
# Elastic Compliance Matrix: (Units=1/GPa)
#
#
# Indices 1 2 3 4 5 6 
#
# 1 0.013182 -0.002912 -0.001767 0.000000 0.000000 0.000000
# 2 -0.002912 0.014369 -0.003646 0.000000 0.000000 0.000000
# 3 -0.001767 -0.003646 0.012145 0.000000 0.000000 0.000000
# 4 0.000000 0.000000 0.000000 0.046937 0.000000 0.000000
# 5 0.000000 0.000000 0.000000 0.000000 -0.078997 0.000000
# 6 0.000000 0.000000 0.000000 0.000000 0.000000 -0.479941
#
#
# Mechanical properties :
#
#
# Convention : Reuss Voigt Hill
#
# Bulk Modulus (GPa) = 43.39571 43.60368 43.49970
# Shear Modulus (GPa) = -11.16141 13.96308 1.40084
#
# Velocity S-wave (km/s) = -2.47463 2.76784 0.87669
# Velocity P-wave (km/s) = 3.95529 5.84278 4.98911
#
# Compressibility (1/GPa) = 0.02304375
#
# Stress axis : x y z
#
# Youngs Moduli (GPa) = 75.86139 69.59445 82.33915
#
# Poissons Ratio (x) = 0.20268 0.14553
# Poissons Ratio (y) = 0.22093 0.30023
# Poissons Ratio (z) = 0.13408 0.25376
#
# Static dielectric constant tensor:
#      x y z
#    x 1.438420 0.000000 0.000000 
#    y 0.000000 1.601180 0.000000 
#    z 0.000000 0.000000 1.664960 
# 
# From -- ./inp_files/28755.got.cif
#   From: 2010.05.17/outbox.cif.g08.bks.cpg/sg67_15_cif.got.tgz:28755.got - 2010.06.03 18:28:57.
