data_PCOD9503048
_publ_section_title
;
Structure prediction by ZEFSAII (Michael W. Deem and Ramdas Pophale) SiO2 
 PCOD9503048
Probable space group: C M M A
;
_chemical_formula_sum "Si O2"
_cell_formula_units_Z 120
_cell_length_a 20.524672
_cell_length_b 18.144782
_cell_length_c 16.516509
_cell_angle_alpha 90.000000
_cell_angle_beta 90.000000
_cell_angle_gamma 90.000000
_cell_volume 6151.007245
_symmetry_space_group_name_H-M "C M M A"
_symmetry_group_IT_number 67
_symmetry_cell_setting 'orthorhombic'
loop_
_space_group_symop_operation_xyz
x,y,z
-x,1/2-y,z
x,-y,-z
-x,1/2+y,-z
-x,-y,-z
x,1/2+y,-z
-x,y,z
x,1/2-y,z
1/2+x,1/2+y,z
1/2-x,-y,z
1/2+x,1/2-y,-z
1/2-x,y,-z
1/2-x,1/2-y,-z
1/2+x,y,-z
1/2-x,1/2+y,z
1/2+x,-y,z
loop_
_atom_site_type_symbol
_atom_site_label
_atom_site_fract_x
_atom_site_fract_y
_atom_site_fract_z
Si Si1 0.175159 0.664846 0.942960
Si Si2 0.250000 0.500000 0.230869
Si Si3 0.189106 0.611237 0.114426
Si Si4 0.074436 0.064542 0.621465
Si Si5 0.352490 0.421333 0.667645
Si Si6 0.923446 0.666215 0.801845
Si Si7 0.575328 0.336404 0.537643
Si Si8 0.426700 0.165759 0.221241
O O1 0.177321 0.750000 0.972845
O O2 0.239827 0.650316 0.889248
O O3 0.113497 0.656628 0.886072
O O4 0.174064 0.609172 0.018583
O O5 0.199433 0.538744 0.169193
O O6 0.283927 0.560343 0.289293
O O7 0.130153 0.653667 0.156775
O O8 0.082754 0.115058 0.542872
O O9 0.082359 0.113063 0.702027
O O10 0.000000 0.036011 0.619375
O O11 0.123127 0.996870 0.627446
O O12 0.398506 0.395078 0.740668
O O13 0.368354 0.360306 0.600026
O O14 0.907554 0.750000 0.772171
O O15 0.000000 0.661784 0.811799
O O16 0.500000 0.349004 0.568870
O O17 0.579709 0.250000 0.519447
O O18 0.500000 0.152390 0.188014
O O19 0.424571 0.250000 0.249744
#
# Coordination Sequence:
#
# PCOD9503048 Si02
#       8
#    16   8  16  16  16  16  16  16
#     4  10  21  37  63  91 116 159 211 256 305 370
#     4  12  26  41  59  86 118 170 210 260 299 365
#     4  11  21  41  59  84 120 161 212 254 305 362
#     4  10  20  36  61  92 124 156 197 245 302 368
#     4  12  22  40  60  87 123 165 209 244 304 363
#     4  10  21  38  62  95 130 159 198 258 316 368
#     4  10  21  39  66  97 124 155 198 250 308 372
#     4  10  20  35  60  91 123 159 201 256 311 363
#
# _framework density 19.509
#
# number of rings (size 3 to 8) (size 9 to 14) (size 15 to 20)
#    0.000    1.467    2.667    4.000    0.000    5.333 
#    0.000    2.667    0.000    1.600    0.000    0.000 
#    0.000    0.000    0.000    0.000    0.000    0.000 
#
# Total GULP energy -334694.607244 kJ/mol
# GULP energy per Si atom -5578.243454 kJ/mol
# Density = 1.946460 g / cm^3
# Si number density = 19.509000 Si / 1000 Ang^3
#
#
#
# Elastic Constant Matrix: (Units=GPa)
#
#
# Indices 1 2 3 4 5 6 
#
# 1 49.4821 13.3016 28.4720 0.0000 0.0000 0.0000
# 2 13.3016 62.6946 16.8464 0.0000 0.0000 0.0000
# 3 28.4720 16.8464 69.6329 0.0000 0.0000 0.0000
# 4 0.0000 0.0000 0.0000 21.4864 0.0000 0.0000
# 5 0.0000 0.0000 0.0000 0.0000 27.9276 0.0000
# 6 0.0000 0.0000 0.0000 0.0000 0.0000 30.4968
#
#
#
# Elastic Compliance Matrix: (Units=1/GPa)
#
#
# Indices 1 2 3 4 5 6 
#
# 1 0.026926 -0.002946 -0.010297 0.000000 0.000000 0.000000
# 2 -0.002946 0.017382 -0.003001 0.000000 0.000000 0.000000
# 3 -0.010297 -0.003001 0.019297 0.000000 0.000000 0.000000
# 4 0.000000 0.000000 0.000000 0.046541 0.000000 0.000000
# 5 0.000000 0.000000 0.000000 0.000000 0.035807 0.000000
# 6 0.000000 0.000000 0.000000 0.000000 0.000000 0.032790
#
#
# Mechanical properties :
#
#
# Convention : Reuss Voigt Hill
#
# Bulk Modulus (GPa) = 32.13580 33.22773 32.68176
# Shear Modulus (GPa) = 22.56284 24.19480 23.37882
#
# Velocity S-wave (km/s) = 3.40448 3.52545 3.46549
# Velocity P-wave (km/s) = 5.65349 5.80006 5.72725
#
# Compressibility (1/GPa) = 0.03111794
#
# Stress axis : x y z
#
# Youngs Moduli (GPa) = 37.13854 57.53203 51.82062
#
# Poissons Ratio (x) = 0.16948 0.53360
# Poissons Ratio (y) = 0.10941 0.15549
# Poissons Ratio (z) = 0.38242 0.17263
#
# Static dielectric constant tensor:
#      x y z
#    x 1.688580 0.000000 0.000000 
#    y 0.000000 1.716490 0.000000 
#    z 0.000000 0.000000 1.678310 
# 
# From -- ./inp_files/35176.got.cif
#   From: 2010.05.17/outbox.cif.g08.bks.cpg/sg67_18_cif.got.tgz:35176.got - 2010.06.03 18:28:57.
