data_PCOD9503934
_publ_section_title
;
Structure prediction by ZEFSAII (Michael W. Deem and Ramdas Pophale) SiO2 
 PCOD9503934
Probable space group: C M M A
;
_chemical_formula_sum "Si O2"
_cell_formula_units_Z 80
_cell_length_a 18.637859
_cell_length_b 14.924969
_cell_length_c 13.465016
_cell_angle_alpha 90.000000
_cell_angle_beta 90.000000
_cell_angle_gamma 90.000000
_cell_volume 3745.556335
_symmetry_space_group_name_H-M "C M M A"
_symmetry_group_IT_number 67
_symmetry_cell_setting 'orthorhombic'
loop_
_space_group_symop_operation_xyz
x,y,z
-x,1/2-y,z
x,-y,-z
-x,1/2+y,-z
-x,-y,-z
x,1/2+y,-z
-x,y,z
x,1/2-y,z
1/2+x,1/2+y,z
1/2-x,-y,z
1/2+x,1/2-y,-z
1/2-x,y,-z
1/2-x,1/2-y,-z
1/2+x,y,-z
1/2-x,1/2+y,z
1/2+x,-y,z
loop_
_atom_site_type_symbol
_atom_site_label
_atom_site_fract_x
_atom_site_fract_y
_atom_site_fract_z
Si Si1 0.673886 0.250000 0.606868
Si Si2 0.586563 0.401605 0.242960
Si Si3 0.081842 0.607288 0.014774
Si Si4 0.215562 0.148413 0.098887
Si Si5 0.152519 0.750000 0.381523
Si Si6 0.187844 0.560192 0.702275
O O1 0.761051 0.250000 0.615164
O O2 0.637563 0.250000 0.498787
O O3 0.658876 0.152013 0.653710
O O4 0.500000 0.403561 0.249291
O O5 0.604418 0.374248 0.128870
O O6 0.620324 0.333665 0.322083
O O7 0.622298 0.496721 0.267393
O O8 0.132381 0.649222 0.932052
O O9 0.000000 0.636266 0.003726
O O10 0.084788 0.500000 0.000000
O O11 0.241635 0.250000 0.111843
O O12 0.250000 0.107995 0.000000
O O13 0.226861 0.094129 0.197704
O O14 0.250000 0.500000 0.648190
#
# Coordination Sequence:
#
# PCOD9503934 Si02
#       6
#     8  16  16  16   8  16
#     4  11  26  46  70 102 124 168 222 286 348 393
#     4  11  24  43  70 100 134 180 224 277 340 401
#     4  10  21  37  59  91 131 174 222 264 315 394
#     4  11  24  36  58  95 137 179 222 267 331 399
#     4  11  25  48  69  95 132 166 232 287 332 401
#     4  12  23  42  69  98 139 175 224 280 339 410
#
# _framework density 21.358643000000001
#
# number of rings (size 3 to 8) (size 9 to 14) (size 15 to 20)
#    0.000    1.000    5.000    1.500    1.400    1.200 
#    0.000    3.500    0.000    0.000    0.000    0.000 
#    0.000    0.000    0.000    0.000    0.000    0.000 
#
# Total GULP energy -223498.349039 kJ/mol
# GULP energy per Si atom -5587.458726 kJ/mol
# Density = 2.131003 g / cm^3
# Si number density = 21.358643 Si / 1000 Ang^3
#
#
#
# Elastic Constant Matrix: (Units=GPa)
#
#
# Indices 1 2 3 4 5 6 
#
# 1 59.8450 10.4734 6.3078 0.0000 0.0000 0.0000
# 2 10.4734 127.9050 41.6752 0.0000 0.0000 0.0000
# 3 6.3078 41.6752 97.2086 0.0000 0.0000 0.0000
# 4 0.0000 0.0000 0.0000 46.7882 0.0000 0.0000
# 5 0.0000 0.0000 0.0000 0.0000 28.6974 0.0000
# 6 0.0000 0.0000 0.0000 0.0000 0.0000 0.0155
#
#
#
# Elastic Compliance Matrix: (Units=1/GPa)
#
#
# Indices 1 2 3 4 5 6 
#
# 1 0.016982 -0.001199 -0.000588 0.000000 0.000000 0.000000
# 2 -0.001199 0.009172 -0.003855 0.000000 0.000000 0.000000
# 3 -0.000588 -0.003855 0.011978 0.000000 0.000000 0.000000
# 4 0.000000 0.000000 0.000000 0.021373 0.000000 0.000000
# 5 0.000000 0.000000 0.000000 0.000000 0.034846 0.000000
# 6 0.000000 0.000000 0.000000 0.000000 0.000000 64.386717
#
#
# Mechanical properties :
#
#
# Convention : Reuss Voigt Hill
#
# Bulk Modulus (GPa) = 37.24541 44.65239 40.94890
# Shear Modulus (GPa) = 0.07752 30.20038 15.13895
#
# Velocity S-wave (km/s) = 0.19071 3.76435 2.66521
# Velocity P-wave (km/s) = 4.18622 6.31230 5.35582
#
# Compressibility (1/GPa) = 0.02684895
#
# Stress axis : x y z
#
# Youngs Moduli (GPa) = 58.88718 109.02246 83.48753
#
# Poissons Ratio (x) = 0.13072 0.04908
# Poissons Ratio (y) = 0.07060 0.32181
# Poissons Ratio (z) = 0.03462 0.42024
#
# Static dielectric constant tensor:
#      x y z
#    x 1.805450 0.000000 0.000000 
#    y 0.000000 1.843720 0.000000 
#    z 0.000000 0.000000 1.769180 
# 
# From -- ./inp_files/21684.got.cif
#   From: 2010.05.17/outbox.cif.g08.bks.cpg/sg67_11_cif.got.tgz:21684.got - 2010.06.03 18:28:57.
