data_PCOD9503266
_publ_section_title
;
Structure prediction by ZEFSAII (Michael W. Deem and Ramdas Pophale) SiO2 
 PCOD9503266
Probable space group: C M M A
;
_chemical_formula_sum "Si O2"
_cell_formula_units_Z 88
_cell_length_a 23.988997
_cell_length_b 14.847812
_cell_length_c 11.414326
_cell_angle_alpha 90.000000
_cell_angle_beta 90.000000
_cell_angle_gamma 90.000000
_cell_volume 4065.601633
_symmetry_space_group_name_H-M "C M M A"
_symmetry_group_IT_number 67
_symmetry_cell_setting 'orthorhombic'
loop_
_space_group_symop_operation_xyz
x,y,z
-x,1/2-y,z
x,-y,-z
-x,1/2+y,-z
-x,-y,-z
x,1/2+y,-z
-x,y,z
x,1/2-y,z
1/2+x,1/2+y,z
1/2-x,-y,z
1/2+x,1/2-y,-z
1/2-x,y,-z
1/2-x,1/2-y,-z
1/2+x,y,-z
1/2-x,1/2+y,z
1/2+x,-y,z
loop_
_atom_site_type_symbol
_atom_site_label
_atom_site_fract_x
_atom_site_fract_y
_atom_site_fract_z
Si Si1 0.770268 0.750000 0.870347
Si Si2 0.755333 0.892348 0.687685
Si Si3 0.836052 0.104977 0.504568
Si Si4 0.937529 0.250000 0.836128
Si Si5 0.102032 0.750000 0.914833
Si Si6 0.433827 0.453366 0.877005
Si Si7 0.564625 0.078159 0.331385
O O1 0.749910 0.839270 0.806226
O O2 0.836546 0.750000 0.865585
O O3 0.750000 0.750000 0.000000
O O4 0.812863 0.864257 0.620666
O O5 0.705291 0.859119 0.603816
O O6 0.750000 0.000000 0.704613
O O7 0.898401 0.104015 0.555286
O O8 0.821297 0.000000 0.500000
O O9 0.933274 0.163434 0.754819
O O10 0.000000 0.250000 0.890289
O O11 0.896112 0.250000 0.943647
O O12 0.074694 0.654064 0.880779
O O13 0.500000 0.473079 0.874632
O O14 0.412730 0.498044 0.754206
O O15 0.413005 0.500000 0.000000
O O16 0.500000 0.060968 0.363745
#
# Coordination Sequence:
#
# PCOD9503266 Si02
#       7
#     8  16  16   8   8  16  16
#     4  12  30  44  62 106 132 163 216 272 352 399
#     4   9  22  46  69  92 126 172 223 267 319 402
#     4   9  20  40  72  92 120 176 223 268 324 386
#     4  10  20  37  59  91 129 176 225 261 313 402
#     4  12  24  38  61  90 132 179 217 274 327 412
#     4  10  20  36  61  93 130 180 225 266 328 399
#     4  10  21  35  63 100 133 168 220 281 334 391
#
# _framework density 21.645012999999999
#
# number of rings (size 3 to 8) (size 9 to 14) (size 15 to 20)
#    0.000    2.000    1.818    1.909    7.636    2.909 
#    0.000    0.000    0.000    0.000    0.000    0.000 
#    0.000    0.000    0.000    0.000    0.000    0.000 
#
# Total GULP energy -245380.022436 kJ/mol
# GULP energy per Si atom -5576.818692 kJ/mol
# Density = 2.159575 g / cm^3
# Si number density = 21.645013 Si / 1000 Ang^3
#
#
#
# Elastic Constant Matrix: (Units=GPa)
#
#
# Indices 1 2 3 4 5 6 
#
# 1 68.1511 13.4995 40.7857 0.0000 0.0000 0.0000
# 2 13.4995 117.8043 42.9184 0.0000 0.0000 0.0000
# 3 40.7857 42.9184 117.4042 0.0000 0.0000 0.0000
# 4 0.0000 0.0000 0.0000 29.4071 0.0000 0.0000
# 5 0.0000 0.0000 0.0000 0.0000 34.3547 0.0000
# 6 0.0000 0.0000 0.0000 0.0000 0.0000 -247.8232
#
#
#
# Elastic Compliance Matrix: (Units=1/GPa)
#
#
# Indices 1 2 3 4 5 6 
#
# 1 0.018531 0.000256 -0.006531 0.000000 0.000000 0.000000
# 2 0.000256 0.009796 -0.003670 0.000000 0.000000 0.000000
# 3 -0.006531 -0.003670 0.012128 0.000000 0.000000 0.000000
# 4 0.000000 0.000000 0.000000 0.034005 0.000000 0.000000
# 5 0.000000 0.000000 0.000000 0.000000 0.029108 0.000000
# 6 0.000000 0.000000 0.000000 0.000000 0.000000 -0.004035
#
#
# Mechanical properties :
#
#
# Convention : Reuss Voigt Hill
#
# Bulk Modulus (GPa) = 48.62631 55.30742 51.96687
# Shear Modulus (GPa) = 39.59453 -23.06856 8.26298
#
# Velocity S-wave (km/s) = 4.28163 -3.26815 1.95596
# Velocity P-wave (km/s) = 6.85254 3.37141 5.40017
#
# Compressibility (1/GPa) = 0.02056500
#
# Stress axis : x y z
#
# Youngs Moduli (GPa) = 53.96284 102.07820 82.45281
#
# Poissons Ratio (x) = -0.02612 0.53852
# Poissons Ratio (y) = -0.01381 0.30261
# Poissons Ratio (z) = 0.35244 0.37464
#
# Static dielectric constant tensor:
#      x y z
#    x 1.856800 0.000000 0.000000 
#    y 0.000000 1.788490 0.000000 
#    z 0.000000 0.000000 1.813350 
# 
# From -- ./inp_files/21816.got.cif
#   From: 2010.05.17/outbox.cif.g08.bks.cpg/sg67_11_cif.got.tgz:21816.got - 2010.06.03 18:28:57.
