data_PCOD9503362
_publ_section_title
;
Structure prediction by ZEFSAII (Michael W. Deem and Ramdas Pophale) SiO2 
 PCOD9503362
Probable space group: C M M A
;
_chemical_formula_sum "Si O2"
_cell_formula_units_Z 112
_cell_length_a 13.795841
_cell_length_b 28.847343
_cell_length_c 12.169137
_cell_angle_alpha 90.000000
_cell_angle_beta 90.000000
_cell_angle_gamma 90.000000
_cell_volume 4842.992307
_symmetry_space_group_name_H-M "C M M A"
_symmetry_group_IT_number 67
_symmetry_cell_setting 'orthorhombic'
loop_
_space_group_symop_operation_xyz
x,y,z
-x,1/2-y,z
x,-y,-z
-x,1/2+y,-z
-x,-y,-z
x,1/2+y,-z
-x,y,z
x,1/2-y,z
1/2+x,1/2+y,z
1/2-x,-y,z
1/2+x,1/2-y,-z
1/2-x,y,-z
1/2-x,1/2-y,-z
1/2+x,y,-z
1/2-x,1/2+y,z
1/2+x,-y,z
loop_
_atom_site_type_symbol
_atom_site_label
_atom_site_fract_x
_atom_site_fract_y
_atom_site_fract_z
Si Si1 0.227169 0.130325 0.884800
Si Si2 0.885277 0.304156 0.716948
Si Si3 0.882661 0.199641 0.456881
Si Si4 0.882656 0.101775 0.412463
Si Si5 0.117080 0.037235 0.592812
Si Si6 0.614986 0.436104 0.813530
Si Si7 0.116886 0.037323 0.848047
O O1 0.175194 0.162032 0.795141
O O2 0.329910 0.109287 0.849824
O O3 0.164038 0.082694 0.900983
O O4 0.250000 0.154673 0.000000
O O5 0.873247 0.250000 0.748225
O O6 0.862797 0.306604 0.586620
O O7 0.000000 0.316001 0.727519
O O8 0.845832 0.250000 0.420041
O O9 0.848404 0.153983 0.393913
O O10 0.000000 0.201114 0.447456
O O11 0.854394 0.084814 0.533158
O O12 0.862131 0.064534 0.317403
O O13 0.000000 0.103232 0.414514
O O14 0.146956 0.038698 0.718841
O O15 0.000000 0.033076 0.599258
O O16 0.146187 0.000000 0.500000
O O17 0.500000 0.432104 0.825427
O O18 0.642952 0.483737 0.874751
O O19 0.000000 0.040699 0.858179
#
# Coordination Sequence:
#
# PCOD9503362 Si02
#       7
#    16  16  16  16  16  16  16
#     4  12  26  41  60  85 117 155 205 266 321 362
#     4   9  19  40  69  96 120 149 193 253 316 374
#     4   8  14  27  53  88 120 152 189 230 288 363
#     4   9  15  27  50  78 113 154 191 231 286 356
#     4   9  14  25  51  83 110 145 188 235 295 359
#     4  10  22  39  57  80 118 165 203 241 291 360
#     4  10  20  37  61  87 118 155 203 252 301 361
#
# _framework density 23.126197999999999
#
# number of rings (size 3 to 8) (size 9 to 14) (size 15 to 20)
#    0.000    2.429    1.429    2.571    0.000    4.857 
#    0.000    5.000    0.000    3.000    0.000    0.000 
#    0.000    0.000    0.000    0.000    0.000    0.000 
#
# Total GULP energy -312783.272981 kJ/mol
# GULP energy per Si atom -5585.415589 kJ/mol
# Density = 2.307356 g / cm^3
# Si number density = 23.126198 Si / 1000 Ang^3
#
#
#
# Elastic Constant Matrix: (Units=GPa)
#
#
# Indices 1 2 3 4 5 6 
#
# 1 95.2974 18.0330 1.8385 0.0000 0.0000 0.0000
# 2 18.0330 104.9062 14.1083 0.0000 0.0000 0.0000
# 3 1.8385 14.1083 57.4236 0.0000 0.0000 0.0000
# 4 0.0000 0.0000 0.0000 31.3777 0.0000 0.0000
# 5 0.0000 0.0000 0.0000 0.0000 19.5556 0.0000
# 6 0.0000 0.0000 0.0000 0.0000 0.0000 26.7529
#
#
#
# Elastic Compliance Matrix: (Units=1/GPa)
#
#
# Indices 1 2 3 4 5 6 
#
# 1 0.010847 -0.001880 0.000115 0.000000 0.000000 0.000000
# 2 -0.001880 0.010184 -0.002442 0.000000 0.000000 0.000000
# 3 0.000115 -0.002442 0.018011 0.000000 0.000000 0.000000
# 4 0.000000 0.000000 0.000000 0.031870 0.000000 0.000000
# 5 0.000000 0.000000 0.000000 0.000000 0.051136 0.000000
# 6 0.000000 0.000000 0.000000 0.000000 0.000000 0.037379
#
#
# Mechanical properties :
#
#
# Convention : Reuss Voigt Hill
#
# Bulk Modulus (GPa) = 32.65082 36.17632 34.41357
# Shear Modulus (GPa) = 28.08198 30.44708 29.26453
#
# Velocity S-wave (km/s) = 3.48845 3.63238 3.56114
# Velocity P-wave (km/s) = 5.51134 5.76795 5.64111
#
# Compressibility (1/GPa) = 0.03062711
#
# Stress axis : x y z
#
# Youngs Moduli (GPa) = 92.19138 98.19439 55.52256
#
# Poissons Ratio (x) = 0.18460 -0.00636
# Poissons Ratio (y) = 0.17332 0.13558
# Poissons Ratio (z) = -0.01057 0.23978
#
# Static dielectric constant tensor:
#      x y z
#    x 1.934300 0.000000 0.000000 
#    y 0.000000 1.879360 0.000000 
#    z 0.000000 0.000000 1.894450 
# 
# From -- ./inp_files/18599.got.cif
#   From: 2010.05.17/outbox.cif.g08.bks.cpg/sg67_10_cif.got.tgz:18599.got - 2010.06.03 18:28:57.
