data_PCOD9503657
_publ_section_title
;
Structure prediction by ZEFSAII (Michael W. Deem and Ramdas Pophale) SiO2 
 PCOD9503657
Probable space group: C M M A
;
_chemical_formula_sum "Si O2"
_cell_formula_units_Z 116
_cell_length_a 32.254227
_cell_length_b 7.990694
_cell_length_c 22.072144
_cell_angle_alpha 90.000000
_cell_angle_beta 90.000000
_cell_angle_gamma 90.000000
_cell_volume 5688.734417
_symmetry_space_group_name_H-M "C M M A"
_symmetry_group_IT_number 67
_symmetry_cell_setting 'orthorhombic'
loop_
_space_group_symop_operation_xyz
x,y,z
-x,1/2-y,z
x,-y,-z
-x,1/2+y,-z
-x,-y,-z
x,1/2+y,-z
-x,y,z
x,1/2-y,z
1/2+x,1/2+y,z
1/2-x,-y,z
1/2+x,1/2-y,-z
1/2-x,y,-z
1/2-x,1/2-y,-z
1/2+x,y,-z
1/2-x,1/2+y,z
1/2+x,-y,z
loop_
_atom_site_type_symbol
_atom_site_label
_atom_site_fract_x
_atom_site_fract_y
_atom_site_fract_z
Si Si1 0.648095 0.048845 0.563080
Si Si2 0.703818 0.047665 0.809245
Si Si3 0.046341 0.449474 0.930648
Si Si4 0.705181 0.549707 0.329182
Si Si5 0.442524 0.942228 0.584601
Si Si6 0.953575 0.448127 0.729282
Si Si7 0.000000 0.250000 0.452477
Si Si8 0.611697 0.447668 0.829798
O O1 0.642824 0.250000 0.565638
O O2 0.671800 0.991578 0.623027
O O3 0.669505 0.000000 0.500000
O O4 0.604598 0.955680 0.565391
O O5 0.703559 0.250000 0.810445
O O6 0.701788 0.986147 0.739406
O O7 0.659238 0.986486 0.835277
O O8 0.750000 0.000000 0.833148
O O9 0.044670 0.250000 0.927448
O O10 0.082077 0.505545 0.885457
O O11 0.000000 0.514505 0.914134
O O12 0.054327 0.500000 0.000000
O O13 0.702051 0.750000 0.325479
O O14 0.750000 0.500000 0.352626
O O15 0.457262 0.750000 0.572236
O O16 0.447055 0.971242 0.657317
O O17 0.465124 0.099244 0.554550
O O18 0.955557 0.250000 0.740294
O O19 0.914906 0.508714 0.769392
O O20 0.000000 0.517366 0.744688
O O21 0.616081 0.250000 0.828774
#
# Coordination Sequence:
#
# PCOD9503657 Si02
#       8
#    16  16  16  16  16  16   4  16
#     4  11  23  40  60  82 112 149 190 241 293 350
#     4   9  19  36  56  83 114 147 185 231 283 346
#     4  10  21  38  58  81 116 157 200 243 285 333
#     4   9  19  36  59  85 115 149 188 233 290 351
#     4  11  23  40  62  85 114 151 193 237 295 357
#     4  10  21  35  53  81 117 149 188 235 282 341
#     4  12  22  40  66  82 114 150 194 236 302 344
#     4  11  22  33  54  86 117 152 195 236 288 345
#
# _framework density 20.391179999999999
#
# number of rings (size 3 to 8) (size 9 to 14) (size 15 to 20)
#    0.000    1.793    1.379    2.690    0.966    6.345 
#    0.000    4.483    0.000    0.414    0.000    2.897 
#    0.000    0.000    0.000    0.000    0.000    0.000 
#
# Total GULP energy -323184.651563 kJ/mol
# GULP energy per Si atom -5572.149165 kJ/mol
# Density = 2.034477 g / cm^3
# Si number density = 20.391180 Si / 1000 Ang^3
#
#
#
# Elastic Constant Matrix: (Units=GPa)
#
#
# Indices 1 2 3 4 5 6 
#
# 1 159.5649 34.0620 61.5136 0.0000 0.0000 0.0000
# 2 34.0620 76.0371 22.4508 0.0000 0.0000 0.0000
# 3 61.5136 22.4508 67.8594 0.0000 0.0000 0.0000
# 4 0.0000 0.0000 0.0000 28.1991 0.0000 0.0000
# 5 0.0000 0.0000 0.0000 0.0000 63.6056 0.0000
# 6 0.0000 0.0000 0.0000 0.0000 0.0000 49.2068
#
#
#
# Elastic Compliance Matrix: (Units=1/GPa)
#
#
# Indices 1 2 3 4 5 6 
#
# 1 0.009895 -0.001977 -0.008315 0.000000 0.000000 0.000000
# 2 -0.001977 0.014970 -0.003160 0.000000 0.000000 0.000000
# 3 -0.008315 -0.003160 0.023320 0.000000 0.000000 0.000000
# 4 0.000000 0.000000 0.000000 0.035462 0.000000 0.000000
# 5 0.000000 0.000000 0.000000 0.000000 0.015722 0.000000
# 6 0.000000 0.000000 0.000000 0.000000 0.000000 0.020322
#
#
# Mechanical properties :
#
#
# Convention : Reuss Voigt Hill
#
# Bulk Modulus (GPa) = 46.99530 59.94601 53.47065
# Shear Modulus (GPa) = 32.53298 40.56462 36.54880
#
# Velocity S-wave (km/s) = 3.99863 4.46502 4.23825
# Velocity P-wave (km/s) = 6.66451 7.48623 7.08729
#
# Compressibility (1/GPa) = 0.02127872
#
# Stress axis : x y z
#
# Youngs Moduli (GPa) = 101.06381 66.79841 42.88232
#
# Poissons Ratio (x) = 0.13208 0.35658
# Poissons Ratio (y) = 0.19984 0.13553
# Poissons Ratio (z) = 0.84037 0.21111
#
# Static dielectric constant tensor:
#      x y z
#    x 1.860520 0.000000 0.000000 
#    y 0.000000 1.733570 0.000000 
#    z 0.000000 0.000000 1.730480 
# 
# From -- ./inp_files/42975.got.cif
#   From: 2010.05.17/outbox.cif.g08.bks.cpg/sg67_22_cif.got.tgz:42975.got - 2010.06.03 18:28:57.
