data_PCOD9503516
_publ_section_title
;
Structure prediction by ZEFSAII (Michael W. Deem and Ramdas Pophale) SiO2 
 PCOD9503516
Probable space group: C M M A
;
_chemical_formula_sum "Si O2"
_cell_formula_units_Z 96
_cell_length_a 22.054160
_cell_length_b 24.125111
_cell_length_c 9.661099
_cell_angle_alpha 90.000000
_cell_angle_beta 90.000000
_cell_angle_gamma 90.000000
_cell_volume 5140.275233
_symmetry_space_group_name_H-M "C M M A"
_symmetry_group_IT_number 67
_symmetry_cell_setting 'orthorhombic'
loop_
_space_group_symop_operation_xyz
x,y,z
-x,1/2-y,z
x,-y,-z
-x,1/2+y,-z
-x,-y,-z
x,1/2+y,-z
-x,y,z
x,1/2-y,z
1/2+x,1/2+y,z
1/2-x,-y,z
1/2+x,1/2-y,-z
1/2-x,y,-z
1/2-x,1/2-y,-z
1/2+x,y,-z
1/2-x,1/2+y,z
1/2+x,-y,z
loop_
_atom_site_type_symbol
_atom_site_label
_atom_site_fract_x
_atom_site_fract_y
_atom_site_fract_z
Si Si1 0.857512 0.967729 0.259275
Si Si2 0.885276 0.685903 0.209013
Si Si3 0.569972 0.413270 0.023242
Si Si4 0.638486 0.595949 0.266260
Si Si5 0.572482 0.115895 0.455058
Si Si6 0.235775 0.121682 0.836216
O O1 0.894572 0.935932 0.378983
O O2 0.797011 0.933550 0.222268
O O3 0.846976 0.031201 0.293823
O O4 0.898185 0.958735 0.121431
O O5 0.895377 0.750000 0.181233
O O6 0.906961 0.668008 0.361851
O O7 0.814672 0.668850 0.188541
O O8 0.921156 0.644192 0.107850
O O9 0.500000 0.426184 0.005133
O O10 0.602801 0.405138 0.878140
O O11 0.598114 0.618699 0.390575
O O12 0.701093 0.628459 0.242857
O O13 0.500000 0.109568 0.451895
O O14 0.250000 0.115953 0.000000
#
# Coordination Sequence:
#
# PCOD9503516 Si02
#       6
#    16  16  16  16  16  16
#     4  10  21  34  58  83 119 170 197 224 281 353
#     4  10  22  43  67  82 105 156 200 245 307 357
#     4  10  21  35  55  89 117 147 201 247 283 346
#     4  12  21  35  57  87 124 159 188 238 297 338
#     4  10  23  40  57  86 122 156 201 243 283 349
#     4  10  20  39  58  91 122 148 197 248 287 348
#
# _framework density 18.676043
#
# number of rings (size 3 to 8) (size 9 to 14) (size 15 to 20)
#    0.000    2.000    3.333    4.000    0.000    9.000 
#    0.000    5.833    0.000    2.000    0.000    0.000 
#    0.000    0.000    0.000    0.000    0.000    0.000 
#
# Total GULP energy -267963.425429 kJ/mol
# GULP energy per Si atom -5582.571363 kJ/mol
# Density = 1.863354 g / cm^3
# Si number density = 18.676043 Si / 1000 Ang^3
#
#
#
# Elastic Constant Matrix: (Units=GPa)
#
#
# Indices 1 2 3 4 5 6 
#
# 1 108.1786 -25.7312 27.2817 0.0000 0.0000 0.0000
# 2 -25.7312 48.3833 -19.2772 0.0000 0.0000 0.0000
# 3 27.2817 -19.2772 71.0123 0.0000 0.0000 0.0000
# 4 0.0000 0.0000 0.0000 10.9569 0.0000 0.0000
# 5 0.0000 0.0000 0.0000 0.0000 61.7900 0.0000
# 6 0.0000 0.0000 0.0000 0.0000 0.0000 2.0493
#
#
#
# Elastic Compliance Matrix: (Units=1/GPa)
#
#
# Indices 1 2 3 4 5 6 
#
# 1 0.011122 0.004723 -0.002991 0.000000 0.000000 0.000000
# 2 0.004723 0.025181 0.005021 0.000000 0.000000 0.000000
# 3 -0.002991 0.005021 0.016594 0.000000 0.000000 0.000000
# 4 0.000000 0.000000 0.000000 0.091266 0.000000 0.000000
# 5 0.000000 0.000000 0.000000 0.000000 0.016184 0.000000
# 6 0.000000 0.000000 0.000000 0.000000 0.000000 0.487977
#
#
# Mechanical properties :
#
#
# Convention : Reuss Voigt Hill
#
# Bulk Modulus (GPa) = 15.05942 21.34677 18.20310
# Shear Modulus (GPa) = 7.61092 31.31263 19.46178
#
# Velocity S-wave (km/s) = 2.02091 4.09910 3.23162
# Velocity P-wave (km/s) = 3.67783 5.81879 4.86748
#
# Compressibility (1/GPa) = 0.06640361
#
# Stress axis : x y z
#
# Youngs Moduli (GPa) = 89.91508 39.71300 60.26260
#
# Poissons Ratio (x) = -0.18757 0.18022
# Poissons Ratio (y) = -0.42468 -0.30258
# Poissons Ratio (z) = 0.26890 -0.19940
#
# Static dielectric constant tensor:
#      x y z
#    x 1.640630 0.000000 0.000000 
#    y 0.000000 1.630290 0.000000 
#    z 0.000000 0.000000 1.643890 
# 
# From -- ./inp_files/11475.got.cif
#   From: 2010.05.17/outbox.cif.g08.bks.cpg/sg67_6_cif.got.tgz:11475.got - 2010.06.03 18:28:57.
