data_PCOD9503872
_publ_section_title
;
Structure prediction by ZEFSAII (Michael W. Deem and Ramdas Pophale) SiO2 
 PCOD9503872
Probable space group: C M M A
;
_chemical_formula_sum "Si O2"
_cell_formula_units_Z 96
_cell_length_a 18.928407
_cell_length_b 8.935292
_cell_length_c 31.236254
_cell_angle_alpha 90.000000
_cell_angle_beta 90.000000
_cell_angle_gamma 90.000000
_cell_volume 5283.013991
_symmetry_space_group_name_H-M "C M M A"
_symmetry_group_IT_number 67
_symmetry_cell_setting 'orthorhombic'
loop_
_space_group_symop_operation_xyz
x,y,z
-x,1/2-y,z
x,-y,-z
-x,1/2+y,-z
-x,-y,-z
x,1/2+y,-z
-x,y,z
x,1/2-y,z
1/2+x,1/2+y,z
1/2-x,-y,z
1/2+x,1/2-y,-z
1/2-x,y,-z
1/2-x,1/2-y,-z
1/2+x,y,-z
1/2-x,1/2+y,z
1/2+x,-y,z
loop_
_atom_site_type_symbol
_atom_site_label
_atom_site_fract_x
_atom_site_fract_y
_atom_site_fract_z
Si Si1 0.827665 0.570103 0.123003
Si Si2 0.172956 0.071266 0.281832
Si Si3 0.583177 0.071371 0.953593
Si Si4 0.415216 0.074758 0.455242
Si Si5 0.581962 0.429810 0.207533
Si Si6 0.326833 0.071263 0.619616
O O1 0.823060 0.750000 0.119681
O O2 0.750000 0.500000 0.126198
O O3 0.868413 0.503816 0.082184
O O4 0.873038 0.532389 0.165309
O O5 0.178181 0.250000 0.277545
O O6 0.153081 0.036182 0.331116
O O7 0.250000 0.000000 0.273666
O O8 0.117444 0.006543 0.248357
O O9 0.500000 0.044129 0.943978
O O10 0.594326 0.250000 0.954904
O O11 0.597673 0.000000 0.000000
O O12 0.500000 0.060578 0.452427
O O13 0.397144 0.250000 0.455517
O O14 0.392579 0.000000 0.500000
O O15 0.379836 0.995129 0.414996
O O16 0.500000 0.472654 0.202459
O O17 0.585107 0.250000 0.212822
O O18 0.322827 0.250000 0.615465
O O19 0.250000 0.000000 0.612337
#
# Coordination Sequence:
#
# PCOD9503872 Si02
#       6
#    16  16  16  16  16  16
#     4  11  23  39  59  84 115 150 190 234 281 332
#     4  10  21  37  58  83 112 147 185 228 277 329
#     4  10  21  38  61  88 117 150 188 231 280 333
#     4  10  21  37  57  81 110 145 184 227 276 329
#     4  10  22  39  59  84 114 148 186 230 279 331
#     4  10  21  37  57  82 112 145 184 229 276 328
#
# _framework density 18.171444999999999
#
# number of rings (size 3 to 8) (size 9 to 14) (size 15 to 20)
#    0.000    1.833    0.000    3.500    0.000    9.000 
#    0.000    6.667    0.000    0.000    0.000    0.000 
#    0.000    0.000    0.000    0.000    0.000    0.000 
#
# Total GULP energy -268225.936515 kJ/mol
# GULP energy per Si atom -5588.040344 kJ/mol
# Density = 1.813009 g / cm^3
# Si number density = 18.171445 Si / 1000 Ang^3
#
#
#
# Elastic Constant Matrix: (Units=GPa)
#
#
# Indices 1 2 3 4 5 6 
#
# 1 118.9615 73.7838 106.1853 0.0000 0.0000 0.0000
# 2 73.7838 88.0601 81.9738 0.0000 0.0000 0.0000
# 3 106.1853 81.9738 149.1733 0.0000 0.0000 0.0000
# 4 0.0000 0.0000 0.0000 36.2161 0.0000 0.0000
# 5 0.0000 0.0000 0.0000 0.0000 36.3198 0.0000
# 6 0.0000 0.0000 0.0000 0.0000 0.0000 32.5408
#
#
#
# Elastic Compliance Matrix: (Units=1/GPa)
#
#
# Indices 1 2 3 4 5 6 
#
# 1 0.026428 -0.009482 -0.013601 0.000000 0.000000 0.000000
# 2 -0.009482 0.026650 -0.007895 0.000000 0.000000 0.000000
# 3 -0.013601 -0.007895 0.020724 0.000000 0.000000 0.000000
# 4 0.000000 0.000000 0.000000 0.027612 0.000000 0.000000
# 5 0.000000 0.000000 0.000000 0.000000 0.027533 0.000000
# 6 0.000000 0.000000 0.000000 0.000000 0.000000 0.030731
#
#
# Mechanical properties :
#
#
# Convention : Reuss Voigt Hill
#
# Bulk Modulus (GPa) = 84.42619 97.78675 91.10647
# Shear Modulus (GPa) = 22.16469 27.29879 24.73174
#
# Velocity S-wave (km/s) = 3.49629 3.88014 3.69321
# Velocity P-wave (km/s) = 7.92846 8.60257 8.27239
#
# Compressibility (1/GPa) = 0.01184467
#
# Stress axis : x y z
#
# Youngs Moduli (GPa) = 37.83900 37.52298 48.25286
#
# Poissons Ratio (x) = 0.35579 0.65631
# Poissons Ratio (y) = 0.35879 0.38098
# Poissons Ratio (z) = 0.51466 0.29626
#
# Static dielectric constant tensor:
#      x y z
#    x 1.594940 0.000000 0.000000 
#    y 0.000000 1.606180 0.000000 
#    z 0.000000 0.000000 1.597340 
# 
# From -- ./inp_files/44565.got.cif
#   From: 2010.05.17/outbox.cif.g08.bks.cpg/sg67_23_cif.got.tgz:44565.got - 2010.06.03 18:28:57.
