data_PCOD9503150
_publ_section_title
;
Structure prediction by ZEFSAII (Michael W. Deem and Ramdas Pophale) SiO2 
 PCOD9503150
Probable space group: C M M A
;
_chemical_formula_sum "Si O2"
_cell_formula_units_Z 96
_cell_length_a 13.170531
_cell_length_b 13.558012
_cell_length_c 23.421070
_cell_angle_alpha 90.000000
_cell_angle_beta 90.000000
_cell_angle_gamma 90.000000
_cell_volume 4182.211876
_symmetry_space_group_name_H-M "C M M A"
_symmetry_group_IT_number 67
_symmetry_cell_setting 'orthorhombic'
loop_
_space_group_symop_operation_xyz
x,y,z
-x,1/2-y,z
x,-y,-z
-x,1/2+y,-z
-x,-y,-z
x,1/2+y,-z
-x,y,z
x,1/2-y,z
1/2+x,1/2+y,z
1/2-x,-y,z
1/2+x,1/2-y,-z
1/2-x,y,-z
1/2-x,1/2-y,-z
1/2+x,y,-z
1/2-x,1/2+y,z
1/2+x,-y,z
loop_
_atom_site_type_symbol
_atom_site_label
_atom_site_fract_x
_atom_site_fract_y
_atom_site_fract_z
Si Si1 0.123377 0.941791 0.152459
Si Si2 0.614504 0.018533 0.628782
Si Si3 0.375996 0.137366 0.903133
Si Si4 0.716629 0.137381 0.434587
Si Si5 0.618575 0.631861 0.970280
Si Si6 0.122919 0.861198 0.273711
O O1 0.157847 0.894885 0.092433
O O2 0.157499 0.889491 0.210076
O O3 0.000000 0.933463 0.153820
O O4 0.148185 0.057333 0.145073
O O5 0.500000 0.054562 0.635602
O O6 0.625110 0.935781 0.579468
O O7 0.644269 0.953001 0.684227
O O8 0.691795 0.101934 0.607051
O O9 0.500000 0.140290 0.905928
O O10 0.342926 0.250000 0.893516
O O11 0.344121 0.100018 0.966805
O O12 0.689586 0.250000 0.424218
O O13 0.750000 0.126654 0.500000
O O14 0.500000 0.602068 0.968455
O O15 0.623418 0.750000 0.974496
O O16 0.159431 0.750000 0.288923
O O17 0.000000 0.855680 0.274023
#
# Coordination Sequence:
#
# PCOD9503150 Si02
#       6
#    16  16  16  16  16  16
#     4   9  14  20  31  48  73 108 155 211 264 316
#     4  10  20  36  58  84 117 156 194 233 280 333
#     4   8  13  19  26  39  63 100 148 200 257 323
#     4  10  22  39  60  89 121 152 190 234 279 330
#     4   8  12  17  26  41  63  96 142 198 260 322
#     4   9  17  28  43  65  93 129 175 223 271 325
#
# _framework density 22.954360000000001
#
# number of rings (size 3 to 8) (size 9 to 14) (size 15 to 20)
#    0.000    3.000    0.000    3.500    0.000    6.667 
#    0.000    2.500    0.000    3.000    0.000    0.000 
#    0.000    0.000    0.000   12.000    0.000  106.667 
#
# Total GULP energy -267990.594871 kJ/mol
# GULP energy per Si atom -5583.137393 kJ/mol
# Density = 2.290211 g / cm^3
# Si number density = 22.954360 Si / 1000 Ang^3
#
#
#
# Elastic Constant Matrix: (Units=GPa)
#
#
# Indices 1 2 3 4 5 6 
#
# 1 68.1626 -20.3217 3.6854 0.0000 0.0000 0.0000
# 2 -20.3217 42.8330 -5.8230 0.0000 0.0000 0.0000
# 3 3.6854 -5.8230 96.0623 0.0000 0.0000 0.0000
# 4 0.0000 0.0000 0.0000 22.2327 0.0000 0.0000
# 5 0.0000 0.0000 0.0000 0.0000 28.5844 0.0000
# 6 0.0000 0.0000 0.0000 0.0000 0.0000 9.2977
#
#
#
# Elastic Compliance Matrix: (Units=1/GPa)
#
#
# Indices 1 2 3 4 5 6 
#
# 1 0.017090 0.008086 -0.000166 0.000000 0.000000 0.000000
# 2 0.008086 0.027366 0.001349 0.000000 0.000000 0.000000
# 3 -0.000166 0.001349 0.010498 0.000000 0.000000 0.000000
# 4 0.000000 0.000000 0.000000 0.044979 0.000000 0.000000
# 5 0.000000 0.000000 0.000000 0.000000 0.034984 0.000000
# 6 0.000000 0.000000 0.000000 0.000000 0.000000 0.107554
#
#
# Mechanical properties :
#
#
# Convention : Reuss Voigt Hill
#
# Bulk Modulus (GPa) = 13.60685 18.01550 15.81117
# Shear Modulus (GPa) = 20.12632 27.32409 23.72521
#
# Velocity S-wave (km/s) = 2.96429 3.45391 3.21842
# Velocity P-wave (km/s) = 4.20198 4.87560 4.55127
#
# Compressibility (1/GPa) = 0.07349242
#
# Stress axis : x y z
#
# Youngs Moduli (GPa) = 58.51223 36.54161 95.25612
#
# Poissons Ratio (x) = -0.29547 0.01577
# Poissons Ratio (y) = -0.47312 -0.12846
# Poissons Ratio (z) = 0.00969 -0.04928
#
# Static dielectric constant tensor:
#      x y z
#    x 1.966020 0.000000 0.000000 
#    y 0.000000 1.845990 0.000000 
#    z 0.000000 0.000000 1.848570 
# 
# From -- ./inp_files/38416.got.cif
#   From: 2010.05.17/outbox.cif.g08.bks.cpg/sg67_20_cif.got.tgz:38416.got - 2010.06.03 18:28:57.
