data_PCOD9504191
_publ_section_title
;
Structure prediction by ZEFSAII (Michael W. Deem and Ramdas Pophale) SiO2 
 PCOD9504191
Probable space group: C M M A
;
_chemical_formula_sum "Si O2"
_cell_formula_units_Z 88
_cell_length_a 27.195482
_cell_length_b 13.704125
_cell_length_c 11.740711
_cell_angle_alpha 90.000000
_cell_angle_beta 90.000000
_cell_angle_gamma 90.000000
_cell_volume 4375.648926
_symmetry_space_group_name_H-M "C M M A"
_symmetry_group_IT_number 67
_symmetry_cell_setting 'orthorhombic'
loop_
_space_group_symop_operation_xyz
x,y,z
-x,1/2-y,z
x,-y,-z
-x,1/2+y,-z
-x,-y,-z
x,1/2+y,-z
-x,y,z
x,1/2-y,z
1/2+x,1/2+y,z
1/2-x,-y,z
1/2+x,1/2-y,-z
1/2-x,y,-z
1/2-x,1/2-y,-z
1/2+x,y,-z
1/2-x,1/2+y,z
1/2+x,-y,z
loop_
_atom_site_type_symbol
_atom_site_label
_atom_site_fract_x
_atom_site_fract_y
_atom_site_fract_z
Si Si1 0.121605 0.250000 0.347014
Si Si2 0.362670 0.961819 0.869176
Si Si3 0.780591 0.917846 0.280310
Si Si4 0.556022 0.582738 0.251566
Si Si5 0.949876 0.250000 0.065433
Si Si6 0.347210 0.250000 0.055706
Si Si7 0.786967 0.750000 0.828308
Si Si8 0.804884 0.750000 0.444400
O O1 0.087355 0.153197 0.335580
O O2 0.162002 0.250000 0.244249
O O3 0.154019 0.250000 0.459451
O O4 0.314365 0.988709 0.798320
O O5 0.350858 0.847489 0.873257
O O6 0.410239 0.995805 0.798247
O O7 0.364692 0.000000 0.000000
O O8 0.746483 0.842515 0.207695
O O9 0.808384 0.846616 0.367004
O O10 0.750000 0.000000 0.347224
O O11 0.500000 0.557745 0.289036
O O12 0.550081 0.655361 0.144357
O O13 0.000000 0.250000 0.993998
O O14 0.899269 0.250000 0.005072
O O15 0.304837 0.250000 0.959768
O O16 0.750000 0.750000 0.500000
#
# Coordination Sequence:
#
# PCOD9504191 Si02
#       8
#     8  16  16  16   8   8   8   8
#     4  11  18  42  69  90 123 158 207 274 333 375
#     4  12  24  38  60  92 132 179 213 261 323 379
#     4  11  24  40  60  92 130 168 218 266 317 395
#     4  10  21  39  65  96 123 162 221 268 312 390
#     4   9  17  32  57  84 116 154 206 265 307 353
#     4  12  21  35  56  85 132 175 215 264 325 369
#     4  11  21  40  57  86 128 173 224 260 302 415
#     4  11  24  42  67  97 122 164 214 276 335 376
#
# _framework density 20.111302999999999
#
# number of rings (size 3 to 8) (size 9 to 14) (size 15 to 20)
#    0.000    1.091    5.455    4.091    0.000    4.727 
#    0.000    0.000    0.000    3.273    0.000    0.000 
#    0.000    0.000    0.000    0.000    0.000    0.000 
#
# Total GULP energy -245112.826164 kJ/mol
# GULP energy per Si atom -5570.746049 kJ/mol
# Density = 2.006553 g / cm^3
# Si number density = 20.111303 Si / 1000 Ang^3
#
#
#
# Elastic Constant Matrix: (Units=GPa)
#
#
# Indices 1 2 3 4 5 6 
#
# 1 148.5944 52.4177 55.7274 0.0000 0.0000 0.0000
# 2 52.4177 94.5565 36.5449 0.0000 0.0000 0.0000
# 3 55.7274 36.5449 82.4570 0.0000 0.0000 0.0000
# 4 0.0000 0.0000 0.0000 -2.8988 0.0000 0.0000
# 5 0.0000 0.0000 0.0000 0.0000 27.0110 0.0000
# 6 0.0000 0.0000 0.0000 0.0000 0.0000 8.2703
#
#
#
# Elastic Compliance Matrix: (Units=1/GPa)
#
#
# Indices 1 2 3 4 5 6 
#
# 1 0.009889 -0.003498 -0.005133 0.000000 0.000000 0.000000
# 2 -0.003498 0.013999 -0.003840 0.000000 0.000000 0.000000
# 3 -0.005133 -0.003840 0.017298 0.000000 0.000000 0.000000
# 4 0.000000 0.000000 0.000000 -0.344967 0.000000 0.000000
# 5 0.000000 0.000000 0.000000 0.000000 0.037022 0.000000
# 6 0.000000 0.000000 0.000000 0.000000 0.000000 0.120915
#
#
# Mechanical properties :
#
#
# Convention : Reuss Voigt Hill
#
# Bulk Modulus (GPa) = 61.56129 68.33200 64.94664
# Shear Modulus (GPa) = -43.29473 18.53769 -12.37852
#
# Velocity S-wave (km/s) = -4.64481 3.03934 -2.48362
# Velocity P-wave (km/s) = 1.38240 6.80936 4.91317
#
# Compressibility (1/GPa) = 0.01624397
#
# Stress axis : x y z
#
# Youngs Moduli (GPa) = 101.12628 71.43340 57.80870
#
# Poissons Ratio (x) = 0.24988 0.29672
# Poissons Ratio (y) = 0.35374 0.22200
# Poissons Ratio (z) = 0.51906 0.27432
#
# Static dielectric constant tensor:
#      x y z
#    x 1.845920 0.000000 0.000000 
#    y 0.000000 1.733860 0.000000 
#    z 0.000000 0.000000 1.740110 
# 
# From -- ./inp_files/22875.got.cif
#   From: 2010.05.17/outbox.cif.g08.bks.cpg/sg67_12_cif.got.tgz:22875.got - 2010.06.03 18:28:57.
