data_PCOD9504429
_publ_section_title
;
Structure prediction by ZEFSAII (Michael W. Deem and Ramdas Pophale) SiO2 
 PCOD9504429
Probable space group: C M M A
;
_chemical_formula_sum "Si O2"
_cell_formula_units_Z 100
_cell_length_a 20.026805
_cell_length_b 27.887398
_cell_length_c 9.573676
_cell_angle_alpha 90.000000
_cell_angle_beta 90.000000
_cell_angle_gamma 90.000000
_cell_volume 5346.854789
_symmetry_space_group_name_H-M "C M M A"
_symmetry_group_IT_number 67
_symmetry_cell_setting 'orthorhombic'
loop_
_space_group_symop_operation_xyz
x,y,z
-x,1/2-y,z
x,-y,-z
-x,1/2+y,-z
-x,-y,-z
x,1/2+y,-z
-x,y,z
x,1/2-y,z
1/2+x,1/2+y,z
1/2-x,-y,z
1/2+x,1/2-y,-z
1/2-x,y,-z
1/2-x,1/2-y,-z
1/2+x,y,-z
1/2-x,1/2+y,z
1/2+x,-y,z
loop_
_atom_site_type_symbol
_atom_site_label
_atom_site_fract_x
_atom_site_fract_y
_atom_site_fract_z
Si Si1 0.819990 0.697404 0.919157
Si Si2 0.250000 0.500000 0.500000
Si Si3 0.075927 0.613782 0.554153
Si Si4 0.829358 0.903132 0.031146
Si Si5 0.638298 0.448712 0.317609
Si Si6 0.816045 0.305723 0.412174
Si Si7 0.578069 0.543953 0.181804
O O1 0.853332 0.750000 0.935164
O O2 0.853074 0.649834 0.982449
O O3 0.806041 0.690034 0.754863
O O4 0.750000 0.700039 0.000000
O O5 0.297414 0.532050 0.597905
O O6 0.091587 0.577810 0.428074
O O7 0.126125 0.657881 0.548022
O O8 0.085489 0.583986 0.697079
O O9 0.000000 0.630428 0.548656
O O10 0.872666 0.940884 0.942411
O O11 0.750000 0.907699 0.000000
O O12 0.840447 0.913370 0.193538
O O13 0.601238 0.494067 0.249301
O O14 0.832430 0.250000 0.441217
O O15 0.750000 0.317654 0.500000
O O16 0.500000 0.542042 0.140067
#
# Coordination Sequence:
#
# PCOD9504429 Si02
#       7
#    16   4  16  16  16  16  16
#     4   9  19  37  60  89 124 156 194 247 312 367
#     4  12  24  40  60  92 126 180 208 272 312 356
#     4  11  24  41  63  90 125 168 209 252 309 375
#     4  11  24  39  62  96 122 157 204 263 313 374
#     4  12  25  38  62  88 127 168 214 256 312 369
#     4  10  22  39  66  97 122 157 206 255 310 374
#     4  11  23  44  64  87 124 167 213 255 310 378
#
# _framework density 18.702584999999999
#
# number of rings (size 3 to 8) (size 9 to 14) (size 15 to 20)
#    0.000    1.280    3.200    1.920    5.600    4.160 
#    0.000    0.000    0.000    0.480    0.000    0.000 
#    0.000    0.000    0.000    0.000    0.000    0.000 
#
# Total GULP energy -279335.410899 kJ/mol
# GULP energy per Si atom -5586.708218 kJ/mol
# Density = 1.866002 g / cm^3
# Si number density = 18.702585 Si / 1000 Ang^3
#
#
#
# Elastic Constant Matrix: (Units=GPa)
#
#
# Indices 1 2 3 4 5 6 
#
# 1 84.5188 58.1457 34.4346 0.0000 0.0000 0.0000
# 2 58.1457 112.4131 47.6587 0.0000 0.0000 0.0000
# 3 34.4346 47.6587 101.1677 0.0000 0.0000 0.0000
# 4 0.0000 0.0000 0.0000 22.8031 0.0000 0.0000
# 5 0.0000 0.0000 0.0000 0.0000 23.6170 0.0000
# 6 0.0000 0.0000 0.0000 0.0000 0.0000 -44.7583
#
#
#
# Elastic Compliance Matrix: (Units=1/GPa)
#
#
# Indices 1 2 3 4 5 6 
#
# 1 0.018776 -0.008750 -0.002269 0.000000 0.000000 0.000000
# 2 -0.008750 0.015193 -0.004179 0.000000 0.000000 0.000000
# 3 -0.002269 -0.004179 0.012626 0.000000 0.000000 0.000000
# 4 0.000000 0.000000 0.000000 0.043854 0.000000 0.000000
# 5 0.000000 0.000000 0.000000 0.000000 0.042342 0.000000
# 6 0.000000 0.000000 0.000000 0.000000 0.000000 -0.022342
#
#
# Mechanical properties :
#
#
# Convention : Reuss Voigt Hill
#
# Bulk Modulus (GPa) = 61.73225 64.28639 63.00932
# Shear Modulus (GPa) = 34.18955 10.85641 22.52298
#
# Velocity S-wave (km/s) = 4.28023 2.41192 3.47403
# Velocity P-wave (km/s) = 7.58328 6.49647 7.06082
#
# Compressibility (1/GPa) = 0.01619899
#
# Stress axis : x y z
#
# Youngs Moduli (GPa) = 53.26081 65.81802 79.20429
#
# Poissons Ratio (x) = 0.57589 0.17970
# Poissons Ratio (y) = 0.46602 0.33101
# Poissons Ratio (z) = 0.12084 0.27507
#
# Static dielectric constant tensor:
#      x y z
#    x 1.604610 0.000000 0.000000 
#    y 0.000000 1.679670 0.000000 
#    z 0.000000 0.000000 1.643360 
# 
# From -- ./inp_files/11568.got.cif
#   From: 2010.05.17/outbox.cif.g08.bks.cpg/sg67_6_cif.got.tgz:11568.got - 2010.06.03 18:28:57.
