data_PCOD9504972
_publ_section_title
;
Structure prediction by ZEFSAII (Michael W. Deem and Ramdas Pophale) SiO2 
 PCOD9504972
Probable space group: C M M A
;
_chemical_formula_sum "Si O2"
_cell_formula_units_Z 80
_cell_length_a 14.416053
_cell_length_b 22.722820
_cell_length_c 11.702730
_cell_angle_alpha 90.000000
_cell_angle_beta 90.000000
_cell_angle_gamma 90.000000
_cell_volume 3833.502791
_symmetry_space_group_name_H-M "C M M A"
_symmetry_group_IT_number 67
_symmetry_cell_setting 'orthorhombic'
loop_
_space_group_symop_operation_xyz
x,y,z
-x,1/2-y,z
x,-y,-z
-x,1/2+y,-z
-x,-y,-z
x,1/2+y,-z
-x,y,z
x,1/2-y,z
1/2+x,1/2+y,z
1/2-x,-y,z
1/2+x,1/2-y,-z
1/2-x,y,-z
1/2-x,1/2-y,-z
1/2+x,y,-z
1/2-x,1/2+y,z
1/2+x,-y,z
loop_
_atom_site_type_symbol
_atom_site_label
_atom_site_fract_x
_atom_site_fract_y
_atom_site_fract_z
Si Si1 0.887517 0.317424 0.772071
Si Si2 0.112481 0.464211 0.177645
Si Si3 0.387177 0.587069 0.947372
Si Si4 0.653070 0.056272 0.565005
Si Si5 0.890160 0.815856 0.484750
O O1 0.868382 0.250000 0.799308
O O2 0.852412 0.359837 0.870489
O O3 0.851858 0.328424 0.643311
O O4 0.000000 0.324894 0.768418
O O5 0.132799 0.527526 0.122170
O O6 0.156062 0.457685 0.301357
O O7 0.000000 0.459927 0.192267
O O8 0.143583 0.419065 0.078504
O O9 0.500000 0.590168 0.953989
O O10 0.750000 0.059053 0.500000
O O11 0.619221 0.123816 0.554543
O O12 0.604866 0.000000 0.500000
O O13 0.856964 0.750000 0.523226
O O14 0.000000 0.809082 0.471578
#
# Coordination Sequence:
#
# PCOD9504972 Si02
#       5
#    16  16  16  16  16
#     4   8  13  23  43  71  98 121 150 195 247 296
#     4   9  17  30  50  74  98 128 167 213 262 307
#     4   8  14  26  47  75 101 124 158 207 263 313
#     4  11  23  35  49  72 105 141 177 213 254 308
#     4   9  18  33  54  78 101 131 175 220 262 311
#
# _framework density 20.868641
#
# number of rings (size 3 to 8) (size 9 to 14) (size 15 to 20)
#    0.000    3.000    0.000    4.200    0.000    3.600 
#    0.000    1.000    0.000   24.000    0.000    2.800 
#    0.000    0.000    0.000    0.000    0.000    0.000 
#
# Total GULP energy -222835.075316 kJ/mol
# GULP energy per Si atom -5570.876883 kJ/mol
# Density = 2.082114 g / cm^3
# Si number density = 20.868641 Si / 1000 Ang^3
#
#
#
# Elastic Constant Matrix: (Units=GPa)
#
#
# Indices 1 2 3 4 5 6 
#
# 1 44.1397 3.7020 9.6018 0.0000 0.0000 0.0000
# 2 3.7020 101.2622 66.3299 0.0000 0.0000 0.0000
# 3 9.6018 66.3299 168.8170 0.0000 0.0000 0.0000
# 4 0.0000 0.0000 0.0000 29.9861 0.0000 0.0000
# 5 0.0000 0.0000 0.0000 0.0000 12.1221 0.0000
# 6 0.0000 0.0000 0.0000 0.0000 0.0000 12.9237
#
#
#
# Elastic Compliance Matrix: (Units=1/GPa)
#
#
# Indices 1 2 3 4 5 6 
#
# 1 0.022939 0.000022 -0.001313 0.000000 0.000000 0.000000
# 2 0.000022 0.013298 -0.005226 0.000000 0.000000 0.000000
# 3 -0.001313 -0.005226 0.008052 0.000000 0.000000 0.000000
# 4 0.000000 0.000000 0.000000 0.033349 0.000000 0.000000
# 5 0.000000 0.000000 0.000000 0.000000 0.082494 0.000000
# 6 0.000000 0.000000 0.000000 0.000000 0.000000 0.077377
#
#
# Mechanical properties :
#
#
# Convention : Reuss Voigt Hill
#
# Bulk Modulus (GPa) = 31.99666 52.60957 42.30312
# Shear Modulus (GPa) = 19.15986 26.64537 22.90262
#
# Velocity S-wave (km/s) = 3.03333 3.57713 3.31640
# Velocity P-wave (km/s) = 5.25679 6.50582 5.91437
#
# Compressibility (1/GPa) = 0.03125326
#
# Stress axis : x y z
#
# Youngs Moduli (GPa) = 43.59350 75.20036 124.19830
#
# Poissons Ratio (x) = -0.00162 0.16310
# Poissons Ratio (y) = -0.00094 0.64907
# Poissons Ratio (z) = 0.05725 0.39300
#
# Static dielectric constant tensor:
#      x y z
#    x 1.950440 0.000000 0.000000 
#    y 0.000000 1.800800 0.000000 
#    z 0.000000 0.000000 1.731330 
# 
# From -- ./inp_files/17953.got.cif
#   From: 2010.05.17/outbox.cif.g08.bks.cpg/sg67_9_cif.got.tgz:17953.got - 2010.06.03 18:28:57.
