data_PCOD9504047
_publ_section_title
;
Structure prediction by ZEFSAII (Michael W. Deem and Ramdas Pophale) SiO2 
 PCOD9504047
Probable space group: C M M A
;
_chemical_formula_sum "Si O2"
_cell_formula_units_Z 100
_cell_length_a 9.884787
_cell_length_b 26.191881
_cell_length_c 20.209720
_cell_angle_alpha 90.000000
_cell_angle_beta 90.000000
_cell_angle_gamma 90.000000
_cell_volume 5232.320049
_symmetry_space_group_name_H-M "C M M A"
_symmetry_group_IT_number 67
_symmetry_cell_setting 'orthorhombic'
loop_
_space_group_symop_operation_xyz
x,y,z
-x,1/2-y,z
x,-y,-z
-x,1/2+y,-z
-x,-y,-z
x,1/2+y,-z
-x,y,z
x,1/2-y,z
1/2+x,1/2+y,z
1/2-x,-y,z
1/2+x,1/2-y,-z
1/2-x,y,-z
1/2-x,1/2-y,-z
1/2+x,y,-z
1/2-x,1/2+y,z
1/2+x,-y,z
loop_
_atom_site_type_symbol
_atom_site_label
_atom_site_fract_x
_atom_site_fract_y
_atom_site_fract_z
Si Si1 0.217290 0.660486 0.075565
Si Si2 0.854319 0.810705 0.799710
Si Si3 0.655422 0.546189 0.887898
Si Si4 0.846567 0.543751 0.267971
Si Si5 0.157830 0.811507 0.561853
Si Si6 0.500000 0.750000 0.897339
Si Si7 0.658446 0.843028 0.685656
O O1 0.338081 0.664728 0.128295
O O2 0.169242 0.601705 0.079162
O O3 0.115322 0.704290 0.099926
O O4 0.250000 0.672656 0.000000
O O5 0.856998 0.750000 0.806577
O O6 0.728017 0.823862 0.753177
O O7 0.000000 0.826773 0.769850
O O8 0.500000 0.529704 0.893663
O O9 0.750000 0.500000 0.911994
O O10 0.686574 0.554334 0.809440
O O11 0.750000 0.500000 0.293503
O O12 0.838793 0.595905 0.308108
O O13 0.000000 0.525035 0.269115
O O14 0.150925 0.750000 0.558190
O O15 0.250000 0.829435 0.500000
O O16 0.244463 0.825005 0.626847
O O17 0.000000 0.829485 0.561832
O O18 0.500000 0.826870 0.679550
#
# Coordination Sequence:
#
# PCOD9504047 Si02
#       7
#    16  16  16  16  16   4  16
#     4  12  26  42  66  89 120 167 214 265 327 397
#     4  11  25  39  56  85 122 157 203 260 314 374
#     4  10  21  42  65  90 121 158 208 264 325 387
#     4   9  19  35  58  85 117 152 197 249 307 373
#     4  10  21  38  60  89 128 168 208 248 296 358
#     4  12  26  44  70  86 124 166 216 264 330 406
#     4  11  22  37  61  90 121 158 205 251 307 368
#
# _framework density 19.111981
#
# number of rings (size 3 to 8) (size 9 to 14) (size 15 to 20)
#    0.000    1.440    3.200    1.680    2.240    5.440 
#    0.000    0.800    0.000    0.480    0.000    3.360 
#    0.000    0.000    0.000    0.000    0.000    0.000 
#
# Total GULP energy -278394.889615 kJ/mol
# GULP energy per Si atom -5567.897792 kJ/mol
# Density = 1.906848 g / cm^3
# Si number density = 19.111981 Si / 1000 Ang^3
#
#
#
# Elastic Constant Matrix: (Units=GPa)
#
#
# Indices 1 2 3 4 5 6 
#
# 1 140.3086 43.0575 45.9782 0.0000 0.0000 0.0000
# 2 43.0575 81.5335 2.7352 0.0000 0.0000 0.0000
# 3 45.9782 2.7352 85.1825 0.0000 0.0000 0.0000
# 4 0.0000 0.0000 0.0000 15.5534 0.0000 0.0000
# 5 0.0000 0.0000 0.0000 0.0000 32.5984 0.0000
# 6 0.0000 0.0000 0.0000 0.0000 0.0000 24.7589
#
#
#
# Elastic Compliance Matrix: (Units=1/GPa)
#
#
# Indices 1 2 3 4 5 6 
#
# 1 0.010609 -0.005416 -0.005552 0.000000 0.000000 0.000000
# 2 -0.005416 0.015043 0.002440 0.000000 0.000000 0.000000
# 3 -0.005552 0.002440 0.014658 0.000000 0.000000 0.000000
# 4 0.000000 0.000000 0.000000 0.064295 0.000000 0.000000
# 5 0.000000 0.000000 0.000000 0.000000 0.030676 0.000000
# 6 0.000000 0.000000 0.000000 0.000000 0.000000 0.040390
#
#
# Mechanical properties :
#
#
# Convention : Reuss Voigt Hill
#
# Bulk Modulus (GPa) = 43.00338 54.50739 48.75539
# Shear Modulus (GPa) = 24.94040 28.93237 26.93639
#
# Velocity S-wave (km/s) = 3.61634 3.89502 3.75827
# Velocity P-wave (km/s) = 6.32352 6.98643 6.66322
#
# Compressibility (1/GPa) = 0.02325398
#
# Stress axis : x y z
#
# Youngs Moduli (GPa) = 94.26253 66.47486 68.22205
#
# Poissons Ratio (x) = 0.36004 0.37879
# Poissons Ratio (y) = 0.51054 -0.16649
# Poissons Ratio (z) = 0.52337 -0.16222
#
# Static dielectric constant tensor:
#      x y z
#    x 1.741940 0.000000 0.000000 
#    y 0.000000 1.648470 0.000000 
#    z 0.000000 0.000000 1.697520 
# 
# From -- ./inp_files/37283.got.cif
#   From: 2010.05.17/outbox.cif.g08.bks.cpg/sg67_19_cif.got.tgz:37283.got - 2010.06.03 18:28:57.
