data_PCOD9504039
_publ_section_title
;
Structure prediction by ZEFSAII (Michael W. Deem and Ramdas Pophale) SiO2 
 PCOD9504039
Probable space group: C M M A
;
_chemical_formula_sum "Si O2"
_cell_formula_units_Z 96
_cell_length_a 8.753091
_cell_length_b 18.809131
_cell_length_c 31.425174
_cell_angle_alpha 90.000000
_cell_angle_beta 90.000000
_cell_angle_gamma 90.000000
_cell_volume 5173.778906
_symmetry_space_group_name_H-M "C M M A"
_symmetry_group_IT_number 67
_symmetry_cell_setting 'orthorhombic'
loop_
_space_group_symop_operation_xyz
x,y,z
-x,1/2-y,z
x,-y,-z
-x,1/2+y,-z
-x,-y,-z
x,1/2+y,-z
-x,y,z
x,1/2-y,z
1/2+x,1/2+y,z
1/2-x,-y,z
1/2+x,1/2-y,-z
1/2-x,y,-z
1/2-x,1/2-y,-z
1/2+x,y,-z
1/2-x,1/2+y,z
1/2+x,-y,z
loop_
_atom_site_type_symbol
_atom_site_label
_atom_site_fract_x
_atom_site_fract_y
_atom_site_fract_z
Si Si1 0.317128 0.166392 0.785863
Si Si2 0.679837 0.164952 0.122417
Si Si3 0.682204 0.079144 0.955400
Si Si4 0.683340 0.921001 0.707286
Si Si5 0.316413 0.333085 0.377417
Si Si6 0.682338 0.421932 0.546037
O O1 0.500000 0.159482 0.786884
O O2 0.279658 0.250000 0.778775
O O3 0.248500 0.145530 0.831615
O O4 0.248245 0.119359 0.748365
O O5 0.500000 0.147819 0.121112
O O6 0.697113 0.250000 0.117851
O O7 0.765369 0.125942 0.084296
O O8 0.500000 0.075531 0.958255
O O9 0.750000 0.000000 0.950062
O O10 0.750000 0.107353 0.000000
O O11 0.500000 0.924095 0.709966
O O12 0.724736 0.876363 0.665092
O O13 0.750000 0.000000 0.704517
O O14 0.500000 0.339053 0.383183
O O15 0.278812 0.250000 0.372725
O O16 0.234441 0.367759 0.417746
O O17 0.500000 0.426520 0.543460
O O18 0.750000 0.500000 0.556250
O O19 0.750000 0.401603 0.500000
#
# Coordination Sequence:
#
# PCOD9504039 Si02
#       6
#    16  16  16  16  16  16
#     4  10  21  38  60  86 116 149 187 233 284 338
#     4  10  21  38  60  86 116 150 189 233 283 339
#     4  11  22  38  59  83 114 150 191 236 285 339
#     4  11  23  39  60  86 116 151 191 235 284 337
#     4  10  22  40  61  86 117 152 191 236 286 340
#     4  11  22  38  61  87 117 153 193 237 286 339
#
# _framework density 18.555102999999999
#
# number of rings (size 3 to 8) (size 9 to 14) (size 15 to 20)
#    0.000    1.500    0.000    6.500    0.000    7.000 
#    0.000    3.333    0.000    0.000    0.000    0.000 
#    0.000    0.000    0.000    0.000    0.000    0.000 
#
# Total GULP energy -268395.842595 kJ/mol
# GULP energy per Si atom -5591.580054 kJ/mol
# Density = 1.851287 g / cm^3
# Si number density = 18.555103 Si / 1000 Ang^3
#
#
#
# Elastic Constant Matrix: (Units=GPa)
#
#
# Indices 1 2 3 4 5 6 
#
# 1 128.0109 76.0565 91.6142 0.0000 0.0000 0.0000
# 2 76.0565 105.6658 108.7526 0.0000 0.0000 0.0000
# 3 91.6142 108.7526 173.2778 0.0000 0.0000 0.0000
# 4 0.0000 0.0000 0.0000 39.6563 0.0000 0.0000
# 5 0.0000 0.0000 0.0000 0.0000 32.2127 0.0000
# 6 0.0000 0.0000 0.0000 0.0000 0.0000 22.2308
#
#
#
# Elastic Compliance Matrix: (Units=1/GPa)
#
#
# Indices 1 2 3 4 5 6 
#
# 1 0.014211 -0.007049 -0.003089 0.000000 0.000000 0.000000
# 2 -0.007049 0.030227 -0.015244 0.000000 0.000000 0.000000
# 3 -0.003089 -0.015244 0.016972 0.000000 0.000000 0.000000
# 4 0.000000 0.000000 0.000000 0.025217 0.000000 0.000000
# 5 0.000000 0.000000 0.000000 0.000000 0.031044 0.000000
# 6 0.000000 0.000000 0.000000 0.000000 0.000000 0.044983
#
#
# Mechanical properties :
#
#
# Convention : Reuss Voigt Hill
#
# Bulk Modulus (GPa) = 93.94322 106.64455 100.29388
# Shear Modulus (GPa) = 23.04498 27.52205 25.28352
#
# Velocity S-wave (km/s) = 3.52799 3.85549 3.69537
# Velocity P-wave (km/s) = 8.20578 8.79881 8.50746
#
# Compressibility (1/GPa) = 0.01064473
#
# Stress axis : x y z
#
# Youngs Moduli (GPa) = 70.36776 33.08267 58.92090
#
# Poissons Ratio (x) = 0.23321 0.18202
# Poissons Ratio (y) = 0.49605 0.89820
# Poissons Ratio (z) = 0.21738 0.50432
#
# Static dielectric constant tensor:
#      x y z
#    x 1.619380 0.000000 0.000000 
#    y 0.000000 1.616170 0.000000 
#    z 0.000000 0.000000 1.610110 
# 
# From -- ./inp_files/43519.got.cif
#   From: 2010.05.17/outbox.cif.g08.bks.cpg/sg67_22_cif.got.tgz:43519.got - 2010.06.03 18:28:57.
