data_PCOD9504768
_publ_section_title
;
Structure prediction by ZEFSAII (Michael W. Deem and Ramdas Pophale) SiO2 
 PCOD9504768
Probable space group: C M M A
;
_chemical_formula_sum "Si O2"
_cell_formula_units_Z 56
_cell_length_a 38.411089
_cell_length_b 8.580034
_cell_length_c 9.287780
_cell_angle_alpha 90.000000
_cell_angle_beta 90.000000
_cell_angle_gamma 90.000000
_cell_volume 3060.959255
_symmetry_space_group_name_H-M "C M M A"
_symmetry_group_IT_number 67
_symmetry_cell_setting 'orthorhombic'
loop_
_space_group_symop_operation_xyz
x,y,z
-x,1/2-y,z
x,-y,-z
-x,1/2+y,-z
-x,-y,-z
x,1/2+y,-z
-x,y,z
x,1/2-y,z
1/2+x,1/2+y,z
1/2-x,-y,z
1/2+x,1/2-y,-z
1/2-x,y,-z
1/2-x,1/2-y,-z
1/2+x,y,-z
1/2-x,1/2+y,z
1/2+x,-y,z
loop_
_atom_site_type_symbol
_atom_site_label
_atom_site_fract_x
_atom_site_fract_y
_atom_site_fract_z
Si Si1 0.924665 0.062430 0.335380
Si Si2 0.147753 0.564022 0.336965
Si Si3 0.286831 0.436250 0.837543
Si Si4 0.500000 0.062235 0.663858
O O1 0.921873 0.250000 0.337065
O O2 0.962473 0.016489 0.270945
O O3 0.925550 0.000000 0.500000
O O4 0.889318 0.992005 0.272072
O O5 0.149400 0.500000 0.500000
O O6 0.148688 0.750000 0.339337
O O7 0.180400 0.496919 0.251385
O O8 0.286004 0.250000 0.839439
O O9 0.250000 0.500000 0.778758
O O10 0.289794 0.500000 0.000000
O O11 0.500000 0.250000 0.657211
O O12 0.500000 0.000000 0.500000
#
# Coordination Sequence:
#
# PCOD9504768 Si02
#       4
#    16  16  16   8
#     4   9  15  25  40  63  94 130 166 206 250 297
#     4  11  21  34  51  76 106 138 172 212 256 302
#     4  11  22  39  59  80 103 132 167 207 250 301
#     4   8  14  22  36  58  89 126 165 202 245 294
#
# _framework density 18.294917999999999
#
# number of rings (size 3 to 8) (size 9 to 14) (size 15 to 20)
#    0.000    2.000    0.000    8.571    0.000    1.714 
#    0.000    2.857    0.000    0.000    0.000    1.000 
#    0.000    0.000    0.000    0.000    0.000    0.000 
#
# Total GULP energy -156087.338836 kJ/mol
# GULP energy per Si atom -5574.547816 kJ/mol
# Density = 1.825328 g / cm^3
# Si number density = 18.294918 Si / 1000 Ang^3
#
#
#
# Elastic Constant Matrix: (Units=GPa)
#
#
# Indices 1 2 3 4 5 6 
#
# 1 246.2092 81.6203 46.6916 0.0000 0.0000 0.0000
# 2 81.6203 156.4503 18.7906 0.0000 0.0000 0.0000
# 3 46.6916 18.7906 18.8970 0.0000 0.0000 0.0000
# 4 0.0000 0.0000 0.0000 19.7360 0.0000 0.0000
# 5 0.0000 0.0000 0.0000 0.0000 -16.7099 0.0000
# 6 0.0000 0.0000 0.0000 0.0000 0.0000 35.6947
#
#
#
# Elastic Compliance Matrix: (Units=1/GPa)
#
#
# Indices 1 2 3 4 5 6 
#
# 1 0.008207 -0.002096 -0.018193 0.000000 0.000000 0.000000
# 2 -0.002096 0.007794 -0.002571 0.000000 0.000000 0.000000
# 3 -0.018193 -0.002571 0.100426 0.000000 0.000000 0.000000
# 4 0.000000 0.000000 0.000000 0.050669 0.000000 0.000000
# 5 0.000000 0.000000 0.000000 0.000000 -0.059845 0.000000
# 6 0.000000 0.000000 0.000000 0.000000 0.000000 0.028015
#
#
# Mechanical properties :
#
#
# Convention : Reuss Voigt Hill
#
# Bulk Modulus (GPa) = 14.14280 79.52905 46.83592
# Shear Modulus (GPa) = 24.44336 26.04110 25.24223
#
# Velocity S-wave (km/s) = 3.65920 3.77690 3.71851
# Velocity P-wave (km/s) = 5.05967 7.91106 6.64022
#
# Compressibility (1/GPa) = 0.07070735
#
# Stress axis : x y z
#
# Youngs Moduli (GPa) = 121.85220 128.30023 9.95760
#
# Poissons Ratio (x) = 0.26896 0.18116
# Poissons Ratio (y) = 0.25545 0.02560
# Poissons Ratio (z) = 2.21683 0.32980
#
# Static dielectric constant tensor:
#      x y z
#    x 1.710700 0.000000 0.000000 
#    y 0.000000 1.610100 0.000000 
#    z 0.000000 0.000000 1.589170 
# 
# From -- ./inp_files/23346.got.cif
#   From: 2010.05.17/outbox.cif.g08.bks.cpg/sg67_12_cif.got.tgz:23346.got - 2010.06.03 18:28:57.
