data_PCOD9504294
_publ_section_title
;
Structure prediction by ZEFSAII (Michael W. Deem and Ramdas Pophale) SiO2 
 PCOD9504294
Probable space group: C M M A
;
_chemical_formula_sum "Si O2"
_cell_formula_units_Z 40
_cell_length_a 8.505450
_cell_length_b 13.013972
_cell_length_c 17.362632
_cell_angle_alpha 90.000000
_cell_angle_beta 90.000000
_cell_angle_gamma 90.000000
_cell_volume 1921.864321
_symmetry_space_group_name_H-M "C M M A"
_symmetry_group_IT_number 67
_symmetry_cell_setting 'orthorhombic'
loop_
_space_group_symop_operation_xyz
x,y,z
-x,1/2-y,z
x,-y,-z
-x,1/2+y,-z
-x,-y,-z
x,1/2+y,-z
-x,y,z
x,1/2-y,z
1/2+x,1/2+y,z
1/2-x,-y,z
1/2+x,1/2-y,-z
1/2-x,y,-z
1/2-x,1/2-y,-z
1/2+x,y,-z
1/2-x,1/2+y,z
1/2+x,-y,z
loop_
_atom_site_type_symbol
_atom_site_label
_atom_site_fract_x
_atom_site_fract_y
_atom_site_fract_z
Si Si1 0.750000 0.000000 0.500000
Si Si2 0.250000 0.000000 0.000000
Si Si3 0.000000 0.874069 0.403564
Si Si4 0.000000 0.625602 0.223932
Si Si5 0.169931 0.626955 0.856575
O O1 0.853151 0.926032 0.446160
O O2 0.334837 0.924519 0.059620
O O3 0.000000 0.902668 0.313536
O O4 0.000000 0.750000 0.410385
O O5 0.164760 0.595365 0.183277
O O6 0.000000 0.750000 0.221533
O O7 0.178417 0.750000 0.864307
O O8 0.000000 0.605312 0.816897
#
# Coordination Sequence:
#
# PCOD9504294 Si02
#       5
#     4   4   8   8  16
#     4  10  22  40  68 104 128 168 214 250 320 390
#     4  12  24  38  58  88 116 160 208 264 314 362
#     4  10  21  43  67  96 135 169 208 263 318 383
#     4   9  21  42  64  87 125 165 201 255 315 368
#     4  10  23  41  59  85 119 159 209 259 311 372
#
# _framework density 20.813123999999998
#
# number of rings (size 3 to 8) (size 9 to 14) (size 15 to 20)
#    0.000    2.000    0.000    1.800    5.600    1.600 
#    7.200    0.000    0.000    0.000    0.000    0.000 
#    0.000    0.000    0.000    0.000    0.000    0.000 
#
# Total GULP energy -111555.632114 kJ/mol
# GULP energy per Si atom -5577.781606 kJ/mol
# Density = 2.076575 g / cm^3
# Si number density = 20.813124 Si / 1000 Ang^3
#
#
#
# Elastic Constant Matrix: (Units=GPa)
#
#
# Indices 1 2 3 4 5 6 
#
# 1 228.2006 79.3029 116.2357 0.0000 0.0000 0.0000
# 2 79.3029 110.9137 49.4122 0.0000 0.0000 0.0000
# 3 116.2357 49.4122 158.8867 0.0000 0.0000 0.0000
# 4 0.0000 0.0000 0.0000 33.0311 0.0000 0.0000
# 5 0.0000 0.0000 0.0000 0.0000 -1.0363 0.0000
# 6 0.0000 0.0000 0.0000 0.0000 0.0000 25.2435
#
#
#
# Elastic Compliance Matrix: (Units=1/GPa)
#
#
# Indices 1 2 3 4 5 6 
#
# 1 0.008086 -0.003652 -0.004779 0.000000 0.000000 0.000000
# 2 -0.003652 0.012116 -0.001096 0.000000 0.000000 0.000000
# 3 -0.004779 -0.001096 0.010131 0.000000 0.000000 0.000000
# 4 0.000000 0.000000 0.000000 0.030274 0.000000 0.000000
# 5 0.000000 0.000000 0.000000 0.000000 -0.964971 0.000000
# 6 0.000000 0.000000 0.000000 0.000000 0.000000 0.039614
#
#
# Mechanical properties :
#
#
# Convention : Reuss Voigt Hill
#
# Bulk Modulus (GPa) = 88.67468 109.76694 99.22081
# Shear Modulus (GPa) = -5.93870 28.31768 11.18949
#
# Velocity S-wave (km/s) = -1.69102 3.69259 2.32117
# Velocity P-wave (km/s) = 6.23578 8.42817 7.41347
#
# Compressibility (1/GPa) = 0.01127718
#
# Stress axis : x y z
#
# Youngs Moduli (GPa) = 123.67556 82.53882 98.70538
#
# Poissons Ratio (x) = 0.30143 0.47176
# Poissons Ratio (y) = 0.45166 0.10820
# Poissons Ratio (z) = 0.59110 0.09048
#
# Static dielectric constant tensor:
#      x y z
#    x 1.818730 0.000000 0.000000 
#    y 0.000000 1.774300 0.000000 
#    z 0.000000 0.000000 1.673530 
# 
# From -- ./inp_files/24348.got.cif
#   From: 2010.05.17/outbox.cif.g08.bks.cpg/sg67_13_cif.got.tgz:24348.got - 2010.06.03 18:28:57.
