data_PCOD9504088
_publ_section_title
;
Structure prediction by ZEFSAII (Michael W. Deem and Ramdas Pophale) SiO2 
 PCOD9504088
Probable space group: C M M A
;
_chemical_formula_sum "Si O2"
_cell_formula_units_Z 112
_cell_length_a 27.865585
_cell_length_b 15.675090
_cell_length_c 12.328901
_cell_angle_alpha 90.000000
_cell_angle_beta 90.000000
_cell_angle_gamma 90.000000
_cell_volume 5385.209127
_symmetry_space_group_name_H-M "C M M A"
_symmetry_group_IT_number 67
_symmetry_cell_setting 'orthorhombic'
loop_
_space_group_symop_operation_xyz
x,y,z
-x,1/2-y,z
x,-y,-z
-x,1/2+y,-z
-x,-y,-z
x,1/2+y,-z
-x,y,z
x,1/2-y,z
1/2+x,1/2+y,z
1/2-x,-y,z
1/2+x,1/2-y,-z
1/2-x,y,-z
1/2-x,1/2-y,-z
1/2+x,y,-z
1/2-x,1/2+y,z
1/2+x,-y,z
loop_
_atom_site_type_symbol
_atom_site_label
_atom_site_fract_x
_atom_site_fract_y
_atom_site_fract_z
Si Si1 0.944608 0.475909 0.691223
Si Si2 0.106602 0.345258 0.327514
Si Si3 0.198920 0.107317 0.754878
Si Si4 0.193419 0.908811 0.807030
Si Si5 0.844402 0.344919 0.982743
Si Si6 0.553111 0.589390 0.937227
Si Si7 0.873957 0.846329 0.422700
O O1 0.928446 0.574567 0.690275
O O2 0.939667 0.435755 0.811487
O O3 0.910699 0.418667 0.616320
O O4 0.000000 0.469607 0.658263
O O5 0.085190 0.250000 0.317503
O O6 0.149784 0.356910 0.243712
O O7 0.129081 0.352534 0.448000
O O8 0.254925 0.126103 0.772031
O O9 0.171739 0.144431 0.859015
O O10 0.174927 0.139377 0.644348
O O11 0.191504 0.005370 0.763359
O O12 0.183902 0.907050 0.935958
O O13 0.832423 0.250000 0.019602
O O14 0.901513 0.359865 0.982419
O O15 0.500000 0.629180 0.949423
O O16 0.552718 0.500000 0.000000
O O17 0.891363 0.750000 0.396660
#
# Coordination Sequence:
#
# PCOD9504088 Si02
#       7
#    16  16  16  16  16  16  16
#     4  11  23  42  68  95 129 170 214 266 322 383
#     4  11  24  42  64  93 131 170 214 267 320 383
#     4  11  23  41  65  91 126 167 217 268 321 383
#     4  11  24  41  64  93 123 170 219 262 320 389
#     4  12  23  37  61  92 130 166 207 267 322 378
#     4  10  21  38  62  90 123 165 210 257 317 381
#     4  11  24  42  65  94 128 168 215 268 324 381
#
# _framework density 20.797706999999999
#
# number of rings (size 3 to 8) (size 9 to 14) (size 15 to 20)
#    0.000    1.000    2.857    3.857    0.000    6.571 
#    0.000    5.714    0.000    4.286    0.000    0.000 
#    0.000    0.000    0.000    0.000    0.000    0.000 
#
# Total GULP energy -313058.839845 kJ/mol
# GULP energy per Si atom -5590.336426 kJ/mol
# Density = 2.075037 g / cm^3
# Si number density = 20.797707 Si / 1000 Ang^3
#
#
#
# Elastic Constant Matrix: (Units=GPa)
#
#
# Indices 1 2 3 4 5 6 
#
# 1 88.6985 20.8746 6.6507 0.0000 0.0000 0.0000
# 2 20.8746 78.2790 -14.3779 0.0000 0.0000 0.0000
# 3 6.6507 -14.3779 38.6457 0.0000 0.0000 0.0000
# 4 0.0000 0.0000 0.0000 26.5911 0.0000 0.0000
# 5 0.0000 0.0000 0.0000 0.0000 19.3488 0.0000
# 6 0.0000 0.0000 0.0000 0.0000 0.0000 4.1897
#
#
#
# Elastic Compliance Matrix: (Units=1/GPa)
#
#
# Indices 1 2 3 4 5 6 
#
# 1 0.012488 -0.003998 -0.003636 0.000000 0.000000 0.000000
# 2 -0.003998 0.014992 0.006266 0.000000 0.000000 0.000000
# 3 -0.003636 0.006266 0.028833 0.000000 0.000000 0.000000
# 4 0.000000 0.000000 0.000000 0.037607 0.000000 0.000000
# 5 0.000000 0.000000 0.000000 0.000000 0.051683 0.000000
# 6 0.000000 0.000000 0.000000 0.000000 0.000000 0.238679
#
#
# Mechanical properties :
#
#
# Convention : Reuss Voigt Hill
#
# Bulk Modulus (GPa) = 18.66547 25.76864 22.21705
# Shear Modulus (GPa) = 12.34944 22.85764 17.60354
#
# Velocity S-wave (km/s) = 2.43942 3.31878 2.91248
# Velocity P-wave (km/s) = 4.11444 5.20603 4.69209
#
# Compressibility (1/GPa) = 0.05357487
#
# Stress axis : x y z
#
# Youngs Moduli (GPa) = 80.07868 66.70305 34.68244
#
# Poissons Ratio (x) = 0.26668 0.12612
# Poissons Ratio (y) = 0.32016 -0.21731
# Poissons Ratio (z) = 0.29121 -0.41794
#
# Static dielectric constant tensor:
#      x y z
#    x 1.735200 0.000000 0.000000 
#    y 0.000000 1.762670 0.000000 
#    z 0.000000 0.000000 1.774090 
# 
# From -- ./inp_files/23800.got.cif
#   From: 2010.05.17/outbox.cif.g08.bks.cpg/sg67_12_cif.got.tgz:23800.got - 2010.06.03 18:28:57.
