data_PCOD9504079
_publ_section_title
;
Structure prediction by ZEFSAII (Michael W. Deem and Ramdas Pophale) SiO2 
 PCOD9504079
Probable space group: C M M A
;
_chemical_formula_sum "Si O2"
_cell_formula_units_Z 72
_cell_length_a 12.943653
_cell_length_b 17.809188
_cell_length_c 16.626395
_cell_angle_alpha 90.000000
_cell_angle_beta 90.000000
_cell_angle_gamma 90.000000
_cell_volume 3832.649233
_symmetry_space_group_name_H-M "C M M A"
_symmetry_group_IT_number 67
_symmetry_cell_setting 'orthorhombic'
loop_
_space_group_symop_operation_xyz
x,y,z
-x,1/2-y,z
x,-y,-z
-x,1/2+y,-z
-x,-y,-z
x,1/2+y,-z
-x,y,z
x,1/2-y,z
1/2+x,1/2+y,z
1/2-x,-y,z
1/2+x,1/2-y,-z
1/2-x,y,-z
1/2-x,1/2-y,-z
1/2+x,y,-z
1/2-x,1/2+y,z
1/2+x,-y,z
loop_
_atom_site_type_symbol
_atom_site_label
_atom_site_fract_x
_atom_site_fract_y
_atom_site_fract_z
Si Si1 0.500000 0.046010 0.414651
Si Si2 0.814485 0.164459 0.581250
Si Si3 0.000000 0.044853 0.918966
Si Si4 0.500000 0.049547 0.752820
Si Si5 0.385224 0.166254 0.146933
Si Si6 0.812197 0.836329 0.741762
O O1 0.599122 0.100881 0.413267
O O2 0.500000 0.000000 0.500000
O O3 0.500000 0.996135 0.332301
O O4 0.857875 0.250000 0.586206
O O5 0.750000 0.157498 0.500000
O O6 0.731991 0.156813 0.652345
O O7 0.000000 0.000099 0.834386
O O8 0.098445 0.100769 0.916652
O O9 0.000000 0.000000 0.000000
O O10 0.599862 0.103153 0.755589
O O11 0.500000 0.165315 0.189496
O O12 0.374725 0.250000 0.112740
O O13 0.288908 0.151985 0.203246
O O14 0.848208 0.750000 0.754119
#
# Coordination Sequence:
#
# PCOD9504079 Si02
#       6
#     8  16   8   8  16  16
#     4  12  25  38  59  90 122 158 194 250 301 356
#     4  10  22  39  59  83 113 156 205 249 294 351
#     4  10  21  38  61  92 122 154 190 250 307 350
#     4  12  25  38  57  90 126 160 194 240 309 364
#     4   8  17  37  63  86 110 148 201 247 287 343
#     4  10  21  39  62  84 117 160 202 247 291 354
#
# _framework density 18.785962000000001
#
# number of rings (size 3 to 8) (size 9 to 14) (size 15 to 20)
#    0.667    1.333    0.000    3.333    1.556    5.778 
#    0.000    8.889    0.000    2.667    0.000    0.000 
#    0.000    0.000    0.000    0.000    0.000    0.000 
#
# Total GULP energy -200574.161345 kJ/mol
# GULP energy per Si atom -5571.504482 kJ/mol
# Density = 1.874320 g / cm^3
# Si number density = 18.785962 Si / 1000 Ang^3
#
#
#
# Elastic Constant Matrix: (Units=GPa)
#
#
# Indices 1 2 3 4 5 6 
#
# 1 86.6591 75.8093 30.1085 0.0000 0.0000 0.0000
# 2 75.8093 151.1135 86.5262 0.0000 0.0000 0.0000
# 3 30.1085 86.5262 117.4152 0.0000 0.0000 0.0000
# 4 0.0000 0.0000 0.0000 32.8121 0.0000 0.0000
# 5 0.0000 0.0000 0.0000 0.0000 10.3278 0.0000
# 6 0.0000 0.0000 0.0000 0.0000 0.0000 40.4203
#
#
#
# Elastic Compliance Matrix: (Units=1/GPa)
#
#
# Indices 1 2 3 4 5 6 
#
# 1 0.021729 -0.013339 0.004258 0.000000 0.000000 0.000000
# 2 -0.013339 0.019636 -0.011050 0.000000 0.000000 0.000000
# 3 0.004258 -0.011050 0.015568 0.000000 0.000000 0.000000
# 4 0.000000 0.000000 0.000000 0.030477 0.000000 0.000000
# 5 0.000000 0.000000 0.000000 0.000000 0.096826 0.000000
# 6 0.000000 0.000000 0.000000 0.000000 0.000000 0.024740
#
#
# Mechanical properties :
#
#
# Convention : Reuss Voigt Hill
#
# Bulk Modulus (GPa) = 59.98380 82.23065 71.10723
# Shear Modulus (GPa) = 19.62360 27.56163 23.59262
#
# Velocity S-wave (km/s) = 3.23552 3.83448 3.54766
# Velocity P-wave (km/s) = 6.77920 7.96692 7.39693
#
# Compressibility (1/GPa) = 0.01667117
#
# Stress axis : x y z
#
# Youngs Moduli (GPa) = 46.02179 50.92582 64.23382
#
# Poissons Ratio (x) = 0.67928 -0.27349
# Poissons Ratio (y) = 0.61387 0.70979
# Poissons Ratio (z) = -0.19595 0.56274
#
# Static dielectric constant tensor:
#      x y z
#    x 1.623720 0.000000 0.000000 
#    y 0.000000 1.699340 0.000000 
#    z 0.000000 0.000000 1.516950 
# 
# From -- ./inp_files/32800.got.cif
#   From: 2010.05.17/outbox.cif.g08.bks.cpg/sg67_17_cif.got.tgz:32800.got - 2010.06.03 18:28:57.
