data_PCOD9504878
_publ_section_title
;
Structure prediction by ZEFSAII (Michael W. Deem and Ramdas Pophale) SiO2 
 PCOD9504878
Probable space group: C M M A
;
_chemical_formula_sum "Si O2"
_cell_formula_units_Z 112
_cell_length_a 22.548940
_cell_length_b 14.583232
_cell_length_c 16.400773
_cell_angle_alpha 90.000000
_cell_angle_beta 90.000000
_cell_angle_gamma 90.000000
_cell_volume 5393.171534
_symmetry_space_group_name_H-M "C M M A"
_symmetry_group_IT_number 67
_symmetry_cell_setting 'orthorhombic'
loop_
_space_group_symop_operation_xyz
x,y,z
-x,1/2-y,z
x,-y,-z
-x,1/2+y,-z
-x,-y,-z
x,1/2+y,-z
-x,y,z
x,1/2-y,z
1/2+x,1/2+y,z
1/2-x,-y,z
1/2+x,1/2-y,-z
1/2-x,y,-z
1/2-x,1/2-y,-z
1/2+x,y,-z
1/2-x,1/2+y,z
1/2+x,-y,z
loop_
_atom_site_type_symbol
_atom_site_label
_atom_site_fract_x
_atom_site_fract_y
_atom_site_fract_z
Si Si1 0.668841 0.862356 0.948229
Si Si2 0.609764 0.353984 0.333734
Si Si3 0.760749 0.890963 0.407053
Si Si4 0.566812 0.025392 0.588661
Si Si5 0.651606 0.353785 0.704215
Si Si6 0.790851 0.362087 0.127955
Si Si7 0.433386 0.639898 0.842518
O O1 0.670027 0.750000 0.947665
O O2 0.722202 0.890325 0.886832
O O3 0.605608 0.895272 0.916893
O O4 0.680644 0.888904 0.041393
O O5 0.591270 0.250000 0.348422
O O6 0.674257 0.369072 0.372939
O O7 0.565292 0.426209 0.371025
O O8 0.606472 0.371991 0.237677
O O9 0.750000 0.860512 0.500000
O O10 0.711808 0.849678 0.347809
O O11 0.750000 0.000000 0.404993
O O12 0.500000 0.062426 0.577603
O O13 0.606429 0.087522 0.648548
O O14 0.594023 0.000000 0.500000
O O15 0.628300 0.250000 0.715488
O O16 0.672796 0.392996 0.792223
O O17 0.790608 0.250000 0.133881
O O18 0.500000 0.602695 0.834076
O O19 0.438812 0.750000 0.852083
#
# Coordination Sequence:
#
# PCOD9504878 Si02
#       7
#    16  16  16  16  16  16  16
#     4   8  13  26  49  80 118 154 191 238 292 353
#     4  11  22  38  62  89 116 150 195 248 303 356
#     4  11  22  37  58  87 120 151 188 239 300 361
#     4  11  25  43  60  81 114 157 203 251 303 359
#     4  11  22  38  61  89 121 157 198 244 297 360
#     4   8  15  28  51  83 115 152 196 240 293 358
#     4   9  17  29  49  81 116 149 191 240 288 341
#
# _framework density 20.767002000000002
#
# number of rings (size 3 to 8) (size 9 to 14) (size 15 to 20)
#    0.000    2.143    1.429    3.429    0.000    6.286 
#    0.000    2.143    0.000    3.429    0.000    2.000 
#    0.000    0.000    0.000    0.000    0.000    0.000 
#
# Total GULP energy -312407.450554 kJ/mol
# GULP energy per Si atom -5578.704474 kJ/mol
# Density = 2.071974 g / cm^3
# Si number density = 20.767002 Si / 1000 Ang^3
#
#
#
# Elastic Constant Matrix: (Units=GPa)
#
#
# Indices 1 2 3 4 5 6 
#
# 1 129.6220 13.7397 78.7665 0.0000 0.0000 0.0000
# 2 13.7397 60.8103 27.8077 0.0000 0.0000 0.0000
# 3 78.7665 27.8077 141.8898 0.0000 0.0000 0.0000
# 4 0.0000 0.0000 0.0000 27.5803 0.0000 0.0000
# 5 0.0000 0.0000 0.0000 0.0000 389.0769 0.0000
# 6 0.0000 0.0000 0.0000 0.0000 0.0000 6.3519
#
#
#
# Elastic Compliance Matrix: (Units=1/GPa)
#
#
# Indices 1 2 3 4 5 6 
#
# 1 0.011649 0.000357 -0.006537 0.000000 0.000000 0.000000
# 2 0.000357 0.018074 -0.003740 0.000000 0.000000 0.000000
# 3 -0.006537 -0.003740 0.011409 0.000000 0.000000 0.000000
# 4 0.000000 0.000000 0.000000 0.036258 0.000000 0.000000
# 5 0.000000 0.000000 0.000000 0.000000 0.002570 0.000000
# 6 0.000000 0.000000 0.000000 0.000000 0.000000 0.157432
#
#
# Mechanical properties :
#
#
# Convention : Reuss Voigt Hill
#
# Bulk Modulus (GPa) = 46.96428 63.66110 55.31269
# Shear Modulus (GPa) = 18.91574 98.73571 58.82573
#
# Velocity S-wave (km/s) = 3.02131 6.90273 5.32804
# Velocity P-wave (km/s) = 5.90212 9.70834 8.03389
#
# Compressibility (1/GPa) = 0.02129278
#
# Stress axis : x y z
#
# Youngs Moduli (GPa) = 85.84478 55.32696 87.64702
#
# Poissons Ratio (x) = -0.01976 0.57291
# Poissons Ratio (y) = -0.03065 0.32784
# Poissons Ratio (z) = 0.56113 0.20695
#
# Static dielectric constant tensor:
#      x y z
#    x 1.739150 0.000000 0.000000 
#    y 0.000000 1.802480 0.000000 
#    z 0.000000 0.000000 1.805110 
# 
# From -- ./inp_files/30174.got.cif
#   From: 2010.05.17/outbox.cif.g08.bks.cpg/sg67_16_cif.got.tgz:30174.got - 2010.06.03 18:28:57.
