data_PCOD9504712
_publ_section_title
;
Structure prediction by ZEFSAII (Michael W. Deem and Ramdas Pophale) SiO2 
 PCOD9504712
Probable space group: C M M A
;
_chemical_formula_sum "Si O2"
_cell_formula_units_Z 64
_cell_length_a 17.204830
_cell_length_b 17.855248
_cell_length_c 10.154981
_cell_angle_alpha 90.000000
_cell_angle_beta 90.000000
_cell_angle_gamma 90.000000
_cell_volume 3119.574686
_symmetry_space_group_name_H-M "C M M A"
_symmetry_group_IT_number 67
_symmetry_cell_setting 'orthorhombic'
loop_
_space_group_symop_operation_xyz
x,y,z
-x,1/2-y,z
x,-y,-z
-x,1/2+y,-z
-x,-y,-z
x,1/2+y,-z
-x,y,z
x,1/2-y,z
1/2+x,1/2+y,z
1/2-x,-y,z
1/2+x,1/2-y,-z
1/2-x,y,-z
1/2-x,1/2-y,-z
1/2+x,y,-z
1/2-x,1/2+y,z
1/2+x,-y,z
loop_
_atom_site_type_symbol
_atom_site_label
_atom_site_fract_x
_atom_site_fract_y
_atom_site_fract_z
Si Si1 0.156402 0.417214 0.470997
Si Si2 0.131061 0.662883 0.269574
Si Si3 0.582494 0.089484 0.009821
Si Si4 0.788044 0.914530 0.807798
O O1 0.126733 0.500000 0.500000
O O2 0.250000 0.416734 0.500000
O O3 0.120479 0.362035 0.578808
O O4 0.152361 0.408879 0.314790
O O5 0.115005 0.750000 0.254263
O O6 0.219532 0.641932 0.229783
O O7 0.085884 0.615322 0.160627
O O8 0.500000 0.117731 0.953149
O O9 0.662243 0.108497 0.934573
O O10 0.581582 0.000000 0.000000
O O11 0.750000 0.000000 0.815327
#
# Coordination Sequence:
#
# PCOD9504712 Si02
#       4
#    16  16  16  16
#     4   9  15  32  58  88 117 155 195 249 311 361
#     4  11  23  37  61  95 124 158 203 258 316 363
#     4  11  23  39  60  87 122 167 210 246 299 369
#     4  11  19  36  63  91 121 157 200 261 306 360
#
# _framework density 20.515618
#
# number of rings (size 3 to 8) (size 9 to 14) (size 15 to 20)
#    0.000    1.500    7.500    0.750    0.000    7.000 
#    0.000    1.250    0.000    4.500    0.000    0.000 
#    0.000    0.000    0.000    0.000    0.000    0.000 
#
# Total GULP energy -178272.729293 kJ/mol
# GULP energy per Si atom -5571.022790 kJ/mol
# Density = 2.046892 g / cm^3
# Si number density = 20.515618 Si / 1000 Ang^3
#
#
#
# Elastic Constant Matrix: (Units=GPa)
#
#
# Indices 1 2 3 4 5 6 
#
# 1 60.5354 -0.9614 20.7555 0.0000 0.0000 0.0000
# 2 -0.9614 91.2671 26.2775 0.0000 0.0000 0.0000
# 3 20.7555 26.2775 112.7692 0.0000 0.0000 0.0000
# 4 0.0000 0.0000 0.0000 25.9646 0.0000 0.0000
# 5 0.0000 0.0000 0.0000 0.0000 30.1602 0.0000
# 6 0.0000 0.0000 0.0000 0.0000 0.0000 -97.5725
#
#
#
# Elastic Compliance Matrix: (Units=1/GPa)
#
#
# Indices 1 2 3 4 5 6 
#
# 1 0.017756 0.001209 -0.003550 0.000000 0.000000 0.000000
# 2 0.001209 0.011827 -0.002978 0.000000 0.000000 0.000000
# 3 -0.003550 -0.002978 0.010215 0.000000 0.000000 0.000000
# 4 0.000000 0.000000 0.000000 0.038514 0.000000 0.000000
# 5 0.000000 0.000000 0.000000 0.000000 0.033156 0.000000
# 6 0.000000 0.000000 0.000000 0.000000 0.000000 -0.010249
#
#
# Mechanical properties :
#
#
# Convention : Reuss Voigt Hill
#
# Bulk Modulus (GPa) = 34.29417 39.63498 36.96457
# Shear Modulus (GPa) = 41.12608 6.27711 23.70160
#
# Velocity S-wave (km/s) = 4.48216 1.75109 3.40265
# Velocity P-wave (km/s) = 6.59839 4.84250 5.78742
#
# Compressibility (1/GPa) = 0.02915948
#
# Stress axis : x y z
#
# Youngs Moduli (GPa) = 56.32045 84.55119 97.89480
#
# Poissons Ratio (x) = -0.10223 0.34750
# Poissons Ratio (y) = -0.06809 0.29158
# Poissons Ratio (z) = 0.19992 0.25184
#
# Static dielectric constant tensor:
#      x y z
#    x 1.784370 0.000000 0.000000 
#    y 0.000000 1.710520 0.000000 
#    z 0.000000 0.000000 1.838960 
# 
# From -- ./inp_files/17513.got.cif
#   From: 2010.05.17/outbox.cif.g08.bks.cpg/sg67_9_cif.got.tgz:17513.got - 2010.06.03 18:28:57.
