data_PCOD9504155
_publ_section_title
;
Structure prediction by ZEFSAII (Michael W. Deem and Ramdas Pophale) SiO2 
 PCOD9504155
Probable space group: C M M A
;
_chemical_formula_sum "Si O2"
_cell_formula_units_Z 48
_cell_length_a 5.524567
_cell_length_b 27.296686
_cell_length_c 14.421935
_cell_angle_alpha 90.000000
_cell_angle_beta 90.000000
_cell_angle_gamma 90.000000
_cell_volume 2174.861988
_symmetry_space_group_name_H-M "C M M A"
_symmetry_group_IT_number 67
_symmetry_cell_setting 'orthorhombic'
loop_
_space_group_symop_operation_xyz
x,y,z
-x,1/2-y,z
x,-y,-z
-x,1/2+y,-z
-x,-y,-z
x,1/2+y,-z
-x,y,z
x,1/2-y,z
1/2+x,1/2+y,z
1/2-x,-y,z
1/2+x,1/2-y,-z
1/2-x,y,-z
1/2-x,1/2-y,-z
1/2+x,y,-z
1/2-x,1/2+y,z
1/2+x,-y,z
loop_
_atom_site_type_symbol
_atom_site_label
_atom_site_fract_x
_atom_site_fract_y
_atom_site_fract_z
Si Si1 0.000000 0.250000 0.140374
Si Si2 0.500000 0.862511 0.057171
Si Si3 0.500000 0.531630 0.162416
Si Si4 0.500000 0.342749 0.382122
Si Si5 0.000000 0.127149 0.415114
Si Si6 0.500000 0.526526 0.383487
Si Si7 0.500000 0.250000 0.254122
O O1 0.000000 0.305136 0.094087
O O2 0.253309 0.250000 0.196009
O O3 0.500000 0.913075 0.119254
O O4 0.750000 0.865940 0.000000
O O5 0.750000 0.500000 0.139585
O O6 0.500000 0.539008 0.273626
O O7 0.753434 0.367814 0.359714
O O8 0.500000 0.338105 0.494639
O O9 0.500000 0.294863 0.323419
O O10 0.000000 0.072697 0.451370
O O11 0.250000 0.500000 0.397996
#
# Coordination Sequence:
#
# PCOD9504155 Si02
#       7
#     4   8   8   8   8   8   4
#     4  12  28  49  71 110 132 184 232 272 346 424
#     4  12  26  47  75 104 143 182 215 281 340 420
#     4  10  23  41  67 107 140 179 227 277 339 401
#     4  10  23  39  61  93 127 171 217 286 335 389
#     4  10  21  40  62  91 129 177 218 277 340 396
#     4  10  21  39  62  93 133 177 224 279 332 395
#     4  12  26  43  69 100 128 174 230 290 332 406
#
# _framework density 22.070367999999998
#
# number of rings (size 3 to 8) (size 9 to 14) (size 15 to 20)
#    0.000    1.333    0.000    4.500    4.667    4.667 
#    0.000   10.000    0.000    0.000    0.000    0.000 
#    0.000    0.000    0.000    0.000    0.000    0.000 
#
# Total GULP energy -133654.249931 kJ/mol
# GULP energy per Si atom -5568.927080 kJ/mol
# Density = 2.202013 g / cm^3
# Si number density = 22.070368 Si / 1000 Ang^3
#
#
#
# Elastic Constant Matrix: (Units=GPa)
#
#
# Indices 1 2 3 4 5 6 
#
# 1 275.2869 93.9946 62.3540 0.0000 0.0000 0.0000
# 2 93.9946 150.6167 84.2174 0.0000 0.0000 0.0000
# 3 62.3540 84.2174 87.3107 0.0000 0.0000 0.0000
# 4 0.0000 0.0000 0.0000 -1.2856 0.0000 0.0000
# 5 0.0000 0.0000 0.0000 0.0000 0.2720 0.0000
# 6 0.0000 0.0000 0.0000 0.0000 0.0000 34.4447
#
#
#
# Elastic Compliance Matrix: (Units=1/GPa)
#
#
# Indices 1 2 3 4 5 6 
#
# 1 0.004668 -0.002277 -0.001137 0.000000 0.000000 0.000000
# 2 -0.002277 0.015524 -0.013347 0.000000 0.000000 0.000000
# 3 -0.001137 -0.013347 0.025140 0.000000 0.000000 0.000000
# 4 0.000000 0.000000 0.000000 -0.777873 0.000000 0.000000
# 5 0.000000 0.000000 0.000000 0.000000 3.676732 0.000000
# 6 0.000000 0.000000 0.000000 0.000000 0.000000 0.029032
#
#
# Mechanical properties :
#
#
# Convention : Reuss Voigt Hill
#
# Bulk Modulus (GPa) = 84.68778 110.48292 97.58535
# Shear Modulus (GPa) = 1.66075 24.86277 13.26176
#
# Velocity S-wave (km/s) = 0.86840 3.36001 2.45396
# Velocity P-wave (km/s) = 6.28176 8.07595 7.23469
#
# Compressibility (1/GPa) = 0.01180808
#
# Stress axis : x y z
#
# Youngs Moduli (GPa) = 214.24191 64.41748 39.77735
#
# Poissons Ratio (x) = 0.14669 0.04522
# Poissons Ratio (y) = 0.48787 0.53093
# Poissons Ratio (z) = 0.24358 0.85981
#
# Static dielectric constant tensor:
#      x y z
#    x 1.658100 0.000000 0.000000 
#    y 0.000000 1.622290 0.000000 
#    z 0.000000 0.000000 1.819560 
# 
# From -- ./inp_files/31384.got.cif
#   From: 2010.05.17/outbox.cif.g08.bks.cpg/sg67_16_cif.got.tgz:31384.got - 2010.06.03 18:28:57.
