data_PCOD9504267
_publ_section_title
;
Structure prediction by ZEFSAII (Michael W. Deem and Ramdas Pophale) SiO2 
 PCOD9504267
Probable space group: C M M A
;
_chemical_formula_sum "Si O2"
_cell_formula_units_Z 88
_cell_length_a 20.187961
_cell_length_b 23.050606
_cell_length_c 8.176972
_cell_angle_alpha 90.000000
_cell_angle_beta 90.000000
_cell_angle_gamma 90.000000
_cell_volume 3805.110868
_symmetry_space_group_name_H-M "C M M A"
_symmetry_group_IT_number 67
_symmetry_cell_setting 'orthorhombic'
loop_
_space_group_symop_operation_xyz
x,y,z
-x,1/2-y,z
x,-y,-z
-x,1/2+y,-z
-x,-y,-z
x,1/2+y,-z
-x,y,z
x,1/2-y,z
1/2+x,1/2+y,z
1/2-x,-y,z
1/2+x,1/2-y,-z
1/2-x,y,-z
1/2-x,1/2-y,-z
1/2+x,y,-z
1/2-x,1/2+y,z
1/2+x,-y,z
loop_
_atom_site_type_symbol
_atom_site_label
_atom_site_fract_x
_atom_site_fract_y
_atom_site_fract_z
Si Si1 0.857407 0.419312 0.319742
Si Si2 0.000000 0.617246 0.793592
Si Si3 0.000000 0.665518 0.438800
Si Si4 0.854614 0.032685 0.837164
Si Si5 0.353897 0.311694 0.444181
Si Si6 0.764776 0.354047 0.827940
Si Si7 0.000000 0.919244 0.153690
O O1 0.841434 0.487649 0.311238
O O2 0.854171 0.376025 0.474346
O O3 0.803774 0.385667 0.212280
O O4 0.931322 0.414826 0.246758
O O5 0.000000 0.663823 0.639622
O O6 0.000000 0.624103 0.992719
O O7 0.070140 0.691127 0.383102
O O8 0.000000 0.605689 0.338347
O O9 0.817383 0.093362 0.833455
O O10 0.932387 0.045254 0.855415
O O11 0.831814 0.000000 0.000000
O O12 0.345359 0.250000 0.539519
O O13 0.295966 0.314369 0.311412
O O14 0.750000 0.324383 0.000000
#
# Coordination Sequence:
#
# PCOD9504267 Si02
#       7
#    16   8   8  16  16  16   8
#     4  11  24  41  68 100 138 182 236 281 354 430
#     4  10  21  41  66 100 137 186 231 287 352 426
#     4  10  23  45  74 105 138 182 245 298 362 429
#     4  12  22  39  69 103 145 187 222 284 364 432
#     4  11  26  50  72  96 138 188 241 303 352 407
#     4  12  24  41  69 104 141 184 231 285 355 430
#     4  12  20  41  72 103 150 189 230 297 358 436
#
# _framework density 23.12679
#
# number of rings (size 3 to 8) (size 9 to 14) (size 15 to 20)
#    0.000    0.727    5.455    2.182    0.000    2.545 
#    0.000    3.636    0.000    1.091    0.000    0.000 
#    0.000    0.000    0.000    0.000    0.000    0.000 
#
# Total GULP energy -245009.321681 kJ/mol
# GULP energy per Si atom -5568.393675 kJ/mol
# Density = 2.307415 g / cm^3
# Si number density = 23.126790 Si / 1000 Ang^3
#
#
#
# Elastic Constant Matrix: (Units=GPa)
#
#
# Indices 1 2 3 4 5 6 
#
# 1 115.1088 6.8185 30.1845 0.0000 0.0000 0.0000
# 2 6.8185 103.6627 34.6369 0.0000 0.0000 0.0000
# 3 30.1845 34.6369 97.7845 0.0000 0.0000 0.0000
# 4 0.0000 0.0000 0.0000 -22.2093 0.0000 0.0000
# 5 0.0000 0.0000 0.0000 0.0000 -674.9041 0.0000
# 6 0.0000 0.0000 0.0000 0.0000 0.0000 -337.3751
#
#
#
# Elastic Compliance Matrix: (Units=1/GPa)
#
#
# Indices 1 2 3 4 5 6 
#
# 1 0.009467 0.000401 -0.003065 0.000000 0.000000 0.000000
# 2 0.000401 0.010959 -0.004006 0.000000 0.000000 0.000000
# 3 -0.003065 -0.004006 0.012591 0.000000 0.000000 0.000000
# 4 0.000000 0.000000 0.000000 -0.045026 0.000000 0.000000
# 5 0.000000 0.000000 0.000000 0.000000 -0.001482 0.000000
# 6 0.000000 0.000000 0.000000 0.000000 0.000000 -0.002964
#
#
# Mechanical properties :
#
#
# Convention : Reuss Voigt Hill
#
# Bulk Modulus (GPa) = 50.81416 51.09288 50.95352
# Shear Modulus (GPa) = 1452.22565 -190.56994 630.82785
#
# Velocity S-wave (km/s) = 25.08593 -9.08742 16.53365
# Velocity P-wave (km/s) = 29.34437 9.37911 19.66118
#
# Compressibility (1/GPa) = 0.01967955
#
# Stress axis : x y z
#
# Youngs Moduli (GPa) = 105.62718 91.25198 79.41938
#
# Poissons Ratio (x) = -0.03661 0.24338
# Poissons Ratio (y) = -0.04238 0.31812
# Poissons Ratio (z) = 0.32370 0.36552
#
# Static dielectric constant tensor:
#      x y z
#    x 1.839950 0.000000 0.000000 
#    y 0.000000 1.892560 0.000000 
#    z 0.000000 0.000000 1.981580 
# 
# From -- ./inp_files/11324.got.cif
#   From: 2010.05.17/outbox.cif.g08.bks.cpg/sg67_6_cif.got.tgz:11324.got - 2010.06.03 18:28:57.
