data_PCOD9504782
_publ_section_title
;
Structure prediction by ZEFSAII (Michael W. Deem and Ramdas Pophale) SiO2 
 PCOD9504782
Probable space group: C M M A
;
_chemical_formula_sum "Si O2"
_cell_formula_units_Z 104
_cell_length_a 14.741189
_cell_length_b 29.184602
_cell_length_c 12.468430
_cell_angle_alpha 90.000000
_cell_angle_beta 90.000000
_cell_angle_gamma 90.000000
_cell_volume 5364.114764
_symmetry_space_group_name_H-M "C M M A"
_symmetry_group_IT_number 67
_symmetry_cell_setting 'orthorhombic'
loop_
_space_group_symop_operation_xyz
x,y,z
-x,1/2-y,z
x,-y,-z
-x,1/2+y,-z
-x,-y,-z
x,1/2+y,-z
-x,y,z
x,1/2-y,z
1/2+x,1/2+y,z
1/2-x,-y,z
1/2+x,1/2-y,-z
1/2-x,y,-z
1/2-x,1/2-y,-z
1/2+x,y,-z
1/2-x,1/2+y,z
1/2+x,-y,z
loop_
_atom_site_type_symbol
_atom_site_label
_atom_site_fract_x
_atom_site_fract_y
_atom_site_fract_z
Si Si1 0.891168 0.698292 0.186025
Si Si2 0.600781 0.903610 0.038273
Si Si3 0.604249 0.948451 0.496965
Si Si4 0.649941 0.439350 0.744877
Si Si5 0.341101 0.605793 0.698008
Si Si6 0.250000 0.671388 0.000000
Si Si7 0.601505 0.531017 0.851919
O O1 0.885877 0.750000 0.230528
O O2 0.865073 0.657618 0.269078
O O3 0.812145 0.695914 0.092272
O O4 0.000000 0.692432 0.154703
O O5 0.500000 0.892050 0.996832
O O6 0.593982 0.917671 0.160186
O O7 0.671691 0.862688 0.040667
O O8 0.635379 0.945678 0.962653
O O9 0.500000 0.952005 0.533347
O O10 0.608011 0.936530 0.372368
O O11 0.649252 0.911425 0.575594
O O12 0.644483 0.000000 0.500000
O O13 0.742829 0.411169 0.737026
O O14 0.654818 0.491734 0.787854
O O15 0.403511 0.573341 0.770513
O O16 0.500000 0.513199 0.873011
#
# Coordination Sequence:
#
# PCOD9504782 Si02
#       7
#    16  16  16  16  16   8  16
#     4  11  24  44  70  97 125 164 215 271 334 396
#     4  11  22  37  59  89 131 175 212 254 312 383
#     4  11  23  38  60  86 122 170 215 262 311 367
#     4  12  23  37  57  89 127 171 217 256 310 382
#     4  12  23  39  61  92 126 164 210 267 318 376
#     4  12  21  40  63  98 126 158 205 268 333 384
#     4  11  21  35  57  85 127 174 212 251 306 377
#
# _framework density 19.388102
#
# number of rings (size 3 to 8) (size 9 to 14) (size 15 to 20)
#    0.000    0.615    4.615    4.846    0.000    1.846 
#    0.000    2.308    0.000    1.846    0.000    0.000 
#    0.000    0.000    0.000    0.000    0.000    0.000 
#
# Total GULP energy -289658.319326 kJ/mol
# GULP energy per Si atom -5570.352295 kJ/mol
# Density = 1.934397 g / cm^3
# Si number density = 19.388102 Si / 1000 Ang^3
#
#
#
# Elastic Constant Matrix: (Units=GPa)
#
#
# Indices 1 2 3 4 5 6 
#
# 1 110.9605 46.7812 25.5335 0.0000 0.0000 0.0000
# 2 46.7812 152.2316 54.3035 0.0000 0.0000 0.0000
# 3 25.5335 54.3035 139.1756 0.0000 0.0000 0.0000
# 4 0.0000 0.0000 0.0000 140.4206 0.0000 0.0000
# 5 0.0000 0.0000 0.0000 0.0000 83.0322 0.0000
# 6 0.0000 0.0000 0.0000 0.0000 0.0000 30.9609
#
#
#
# Elastic Compliance Matrix: (Units=1/GPa)
#
#
# Indices 1 2 3 4 5 6 
#
# 1 0.010424 -0.002929 -0.000770 0.000000 0.000000 0.000000
# 2 -0.002929 0.008454 -0.002761 0.000000 0.000000 0.000000
# 3 -0.000770 -0.002761 0.008404 0.000000 0.000000 0.000000
# 4 0.000000 0.000000 0.000000 0.007121 0.000000 0.000000
# 5 0.000000 0.000000 0.000000 0.000000 0.012044 0.000000
# 6 0.000000 0.000000 0.000000 0.000000 0.000000 0.032299
#
#
# Mechanical properties :
#
#
# Convention : Reuss Voigt Hill
#
# Bulk Modulus (GPa) = 69.62631 72.84492 71.23561
# Shear Modulus (GPa) = 51.83897 69.26602 60.55250
#
# Velocity S-wave (km/s) = 5.17644 5.98361 5.59460
# Velocity P-wave (km/s) = 8.46860 9.24076 8.86310
#
# Compressibility (1/GPa) = 0.01436239
#
# Stress axis : x y z
#
# Youngs Moduli (GPa) = 95.93129 118.28787 118.99446
#
# Poissons Ratio (x) = 0.34644 0.09159
# Poissons Ratio (y) = 0.28096 0.32857
# Poissons Ratio (z) = 0.07384 0.32662
#
# Static dielectric constant tensor:
#      x y z
#    x 1.785680 0.000000 0.000000 
#    y 0.000000 1.704170 0.000000 
#    z 0.000000 0.000000 1.709360 
# 
# From -- ./inp_files/18636.got.cif
#   From: 2010.05.17/outbox.cif.g08.bks.cpg/sg67_10_cif.got.tgz:18636.got - 2010.06.03 18:28:57.
