data_PCOD9504532
_publ_section_title
;
Structure prediction by ZEFSAII (Michael W. Deem and Ramdas Pophale) SiO2 
 PCOD9504532
Probable space group: C M M A
;
_chemical_formula_sum "Si O2"
_cell_formula_units_Z 84
_cell_length_a 15.054918
_cell_length_b 24.928206
_cell_length_c 11.579677
_cell_angle_alpha 90.000000
_cell_angle_beta 90.000000
_cell_angle_gamma 90.000000
_cell_volume 4345.761266
_symmetry_space_group_name_H-M "C M M A"
_symmetry_group_IT_number 67
_symmetry_cell_setting 'orthorhombic'
loop_
_space_group_symop_operation_xyz
x,y,z
-x,1/2-y,z
x,-y,-z
-x,1/2+y,-z
-x,-y,-z
x,1/2+y,-z
-x,y,z
x,1/2-y,z
1/2+x,1/2+y,z
1/2-x,-y,z
1/2+x,1/2-y,-z
1/2-x,y,-z
1/2-x,1/2-y,-z
1/2+x,y,-z
1/2-x,1/2+y,z
1/2+x,-y,z
loop_
_atom_site_type_symbol
_atom_site_label
_atom_site_fract_x
_atom_site_fract_y
_atom_site_fract_z
Si Si1 0.259471 0.133208 0.637827
Si Si2 0.000000 0.689569 0.914354
Si Si3 0.894326 0.052298 0.248213
Si Si4 0.602307 0.071214 0.245077
Si Si5 0.500000 0.250000 0.684373
Si Si6 0.696779 0.750000 0.379466
Si Si7 0.646422 0.605556 0.011656
O O1 0.250000 0.133680 0.500000
O O2 0.338481 0.093688 0.675647
O O3 0.169797 0.110576 0.692445
O O4 0.278004 0.193894 0.679949
O O5 0.000000 0.700171 0.775697
O O6 0.085361 0.656062 0.954041
O O7 0.000000 0.750000 0.963302
O O8 0.866475 0.064019 0.116308
O O9 0.000000 0.060587 0.258886
O O10 0.874869 0.990311 0.275195
O O11 0.500000 0.080923 0.276633
O O12 0.613516 0.080544 0.108249
O O13 0.589888 0.250000 0.611255
O O14 0.750000 0.750000 0.500000
O O15 0.750000 0.619375 0.000000
#
# Coordination Sequence:
#
# PCOD9504532 Si02
#       7
#    16   8  16  16   4   8  16
#     4  11  25  45  66  95 131 170 229 278 333 390
#     4  10  24  40  61  96 133 180 216 265 334 402
#     4  11  23  40  67  98 128 177 222 269 333 398
#     4  11  24  41  64  96 137 174 215 273 335 399
#     4  10  22  42  74  94 136 176 226 272 332 396
#     4  10  24  46  69  99 124 173 230 279 322 388
#     4  12  22  38  64  96 133 168 218 268 330 402
#
# _framework density 19.329179
#
# number of rings (size 3 to 8) (size 9 to 14) (size 15 to 20)
#    0.286    0.762    3.810    2.286    1.333    4.952 
#    6.857    1.905    0.000    0.000    0.000    0.000 
#    0.000    0.000    0.000    0.000    0.000    0.000 
#
# Total GULP energy -234669.867775 kJ/mol
# GULP energy per Si atom -5587.377804 kJ/mol
# Density = 1.928518 g / cm^3
# Si number density = 19.329179 Si / 1000 Ang^3
#
#
#
# Elastic Constant Matrix: (Units=GPa)
#
#
# Indices 1 2 3 4 5 6 
#
# 1 167.0145 89.3766 23.1493 0.0000 0.0000 0.0000
# 2 89.3766 135.1522 28.1925 0.0000 0.0000 0.0000
# 3 23.1493 28.1925 63.8667 0.0000 0.0000 0.0000
# 4 0.0000 0.0000 0.0000 24.7519 0.0000 0.0000
# 5 0.0000 0.0000 0.0000 0.0000 22.1722 0.0000
# 6 0.0000 0.0000 0.0000 0.0000 0.0000 32.4432
#
#
#
# Elastic Compliance Matrix: (Units=1/GPa)
#
#
# Indices 1 2 3 4 5 6 
#
# 1 0.009297 -0.005998 -0.000722 0.000000 0.000000 0.000000
# 2 -0.005998 0.012018 -0.003131 0.000000 0.000000 0.000000
# 3 -0.000722 -0.003131 0.017302 0.000000 0.000000 0.000000
# 4 0.000000 0.000000 0.000000 0.040401 0.000000 0.000000
# 5 0.000000 0.000000 0.000000 0.000000 0.045101 0.000000
# 6 0.000000 0.000000 0.000000 0.000000 0.000000 0.030823
#
#
# Mechanical properties :
#
#
# Convention : Reuss Voigt Hill
#
# Bulk Modulus (GPa) = 52.86891 71.94112 62.40502
# Shear Modulus (GPa) = 27.63187 30.89447 29.26317
#
# Velocity S-wave (km/s) = 3.78503 4.00225 3.89516
# Velocity P-wave (km/s) = 6.82006 7.65879 7.25156
#
# Compressibility (1/GPa) = 0.01891471
#
# Stress axis : x y z
#
# Youngs Moduli (GPa) = 107.55942 83.20522 57.79764
#
# Poissons Ratio (x) = 0.49903 0.04175
# Poissons Ratio (y) = 0.64509 0.18099
# Poissons Ratio (z) = 0.07770 0.26055
#
# Static dielectric constant tensor:
#      x y z
#    x 1.679760 0.000000 0.000000 
#    y 0.000000 1.688770 0.000000 
#    z 0.000000 0.000000 1.661480 
# 
# From -- ./inp_files/18138.got.cif
#   From: 2010.05.17/outbox.cif.g08.bks.cpg/sg67_10_cif.got.tgz:18138.got - 2010.06.03 18:28:57.
