data_PCOD9504519
_publ_section_title
;
Structure prediction by ZEFSAII (Michael W. Deem and Ramdas Pophale) SiO2 
 PCOD9504519
Probable space group: C M M A
;
_chemical_formula_sum "Si O2"
_cell_formula_units_Z 92
_cell_length_a 11.654743
_cell_length_b 18.408771
_cell_length_c 22.413793
_cell_angle_alpha 90.000000
_cell_angle_beta 90.000000
_cell_angle_gamma 90.000000
_cell_volume 4808.867968
_symmetry_space_group_name_H-M "C M M A"
_symmetry_group_IT_number 67
_symmetry_cell_setting 'orthorhombic'
loop_
_space_group_symop_operation_xyz
x,y,z
-x,1/2-y,z
x,-y,-z
-x,1/2+y,-z
-x,-y,-z
x,1/2+y,-z
-x,y,z
x,1/2-y,z
1/2+x,1/2+y,z
1/2-x,-y,z
1/2+x,1/2-y,-z
1/2-x,y,-z
1/2-x,1/2-y,-z
1/2+x,y,-z
1/2-x,1/2+y,z
1/2+x,-y,z
loop_
_atom_site_type_symbol
_atom_site_label
_atom_site_fract_x
_atom_site_fract_y
_atom_site_fract_z
Si Si1 0.130359 0.250000 0.537909
Si Si2 0.266226 0.413594 0.070087
Si Si3 0.867862 0.595652 0.400472
Si Si4 0.750000 0.000000 0.500000
Si Si5 0.000000 0.167430 0.758949
Si Si6 0.268551 0.416177 0.275011
Si Si7 0.136552 0.332912 0.175902
Si Si8 0.500000 0.667018 0.900464
O O1 0.250000 0.250000 0.500000
O O2 0.133005 0.178640 0.578480
O O3 0.000000 0.250000 0.508233
O O4 0.250000 0.500000 0.078738
O O5 0.184197 0.374263 0.117841
O O6 0.390374 0.380548 0.083110
O O7 0.250000 0.398462 0.000000
O O8 0.828333 0.548554 0.456830
O O9 0.777251 0.586159 0.346738
O O10 0.000000 0.576667 0.383057
O O11 0.888688 0.121141 0.742387
O O12 0.000000 0.174636 0.829627
O O13 0.000000 0.250000 0.733037
O O14 0.250000 0.500000 0.257431
O O15 0.176813 0.370747 0.237142
O O16 0.180957 0.250000 0.174997
O O17 0.000000 0.332226 0.173472
O O18 0.500000 0.750000 0.925630
#
# Coordination Sequence:
#
# PCOD9504519 Si02
#       8
#     8  16  16   4   8  16  16   8
#     4  10  22  42  66  96 130 174 223 274 335 404
#     4  11  26  43  69 100 137 177 228 286 344 405
#     4  11  24  41  67  96 129 172 222 274 332 400
#     4  12  22  46  64  94 140 170 212 272 342 414
#     4  11  24  42  69  98 134 176 226 289 336 398
#     4  12  25  41  68  99 131 170 225 278 339 404
#     4  11  26  45  65  95 138 180 219 278 350 416
#     4  11  24  43  69 101 130 177 236 280 334 406
#
# _framework density 19.131321
#
# number of rings (size 3 to 8) (size 9 to 14) (size 15 to 20)
#    0.000    0.870    4.348    1.826    6.087    2.087 
#    0.000    0.870    0.000    0.000    0.000    0.000 
#    0.000    0.000    0.000    0.000    0.000    0.000 
#
# Total GULP energy -256696.400777 kJ/mol
# GULP energy per Si atom -5580.356539 kJ/mol
# Density = 1.908778 g / cm^3
# Si number density = 19.131321 Si / 1000 Ang^3
#
#
#
# Elastic Constant Matrix: (Units=GPa)
#
#
# Indices 1 2 3 4 5 6 
#
# 1 99.4039 52.0963 36.7807 0.0000 0.0000 0.0000
# 2 52.0963 156.7374 60.4821 0.0000 0.0000 0.0000
# 3 36.7807 60.4821 130.3900 0.0000 0.0000 0.0000
# 4 0.0000 0.0000 0.0000 30.8792 0.0000 0.0000
# 5 0.0000 0.0000 0.0000 0.0000 43.9791 0.0000
# 6 0.0000 0.0000 0.0000 0.0000 0.0000 443.4404
#
#
#
# Elastic Compliance Matrix: (Units=1/GPa)
#
#
# Indices 1 2 3 4 5 6 
#
# 1 0.012580 -0.003425 -0.001960 0.000000 0.000000 0.000000
# 2 -0.003425 0.008704 -0.003071 0.000000 0.000000 0.000000
# 3 -0.001960 -0.003071 0.009647 0.000000 0.000000 0.000000
# 4 0.000000 0.000000 0.000000 0.032384 0.000000 0.000000
# 5 0.000000 0.000000 0.000000 0.000000 0.022738 0.000000
# 6 0.000000 0.000000 0.000000 0.000000 0.000000 0.002255
#
#
# Mechanical properties :
#
#
# Convention : Reuss Voigt Hill
#
# Bulk Modulus (GPa) = 71.33498 76.13885 73.73691
# Shear Modulus (GPa) = 45.49888 119.47122 82.48505
#
# Velocity S-wave (km/s) = 4.88201 7.91098 6.57334
# Velocity P-wave (km/s) = 8.31545 11.10536 9.81009
#
# Compressibility (1/GPa) = 0.01401837
#
# Stress axis : x y z
#
# Youngs Moduli (GPa) = 79.48986 114.89492 103.66272
#
# Poissons Ratio (x) = 0.39353 0.20317
# Poissons Ratio (y) = 0.27226 0.31835
# Poissons Ratio (z) = 0.15579 0.35285
#
# Static dielectric constant tensor:
#      x y z
#    x 1.751010 0.000000 0.000000 
#    y 0.000000 1.626590 0.000000 
#    z 0.000000 0.000000 1.714900 
# 
# From -- ./inp_files/37882.got.cif
#   From: 2010.05.17/outbox.cif.g08.bks.cpg/sg67_19_cif.got.tgz:37882.got - 2010.06.03 18:28:57.
