data_PCOD9504190
_publ_section_title
;
Structure prediction by ZEFSAII (Michael W. Deem and Ramdas Pophale) SiO2 
 PCOD9504190
Probable space group: C M M A
;
_chemical_formula_sum "Si O2"
_cell_formula_units_Z 96
_cell_length_a 11.985005
_cell_length_b 16.974216
_cell_length_c 24.932615
_cell_angle_alpha 90.000000
_cell_angle_beta 90.000000
_cell_angle_gamma 90.000000
_cell_volume 5072.193052
_symmetry_space_group_name_H-M "C M M A"
_symmetry_group_IT_number 67
_symmetry_cell_setting 'orthorhombic'
loop_
_space_group_symop_operation_xyz
x,y,z
-x,1/2-y,z
x,-y,-z
-x,1/2+y,-z
-x,-y,-z
x,1/2+y,-z
-x,y,z
x,1/2-y,z
1/2+x,1/2+y,z
1/2-x,-y,z
1/2+x,1/2-y,-z
1/2-x,y,-z
1/2-x,1/2-y,-z
1/2+x,y,-z
1/2-x,1/2+y,z
1/2+x,-y,z
loop_
_atom_site_type_symbol
_atom_site_label
_atom_site_fract_x
_atom_site_fract_y
_atom_site_fract_z
Si Si1 0.128195 0.090784 0.480095
Si Si2 0.871532 0.342136 0.363634
Si Si3 0.628996 0.844231 0.837845
Si Si4 0.500000 0.839014 0.091688
Si Si5 0.229162 0.408039 0.260754
Si Si6 0.766584 0.906602 0.939439
Si Si7 0.000000 0.840886 0.780859
O O1 0.250000 0.123898 0.500000
O O2 0.136102 0.103787 0.416191
O O3 0.000000 0.121501 0.494442
O O4 0.127163 0.000000 0.500000
O O5 0.858778 0.250000 0.378285
O O6 0.782262 0.365397 0.318346
O O7 0.000000 0.351651 0.343233
O O8 0.500000 0.867819 0.840436
O O9 0.637716 0.750000 0.835530
O O10 0.683690 0.877172 0.783353
O O11 0.690498 0.871998 0.891937
O O12 0.500000 0.750000 0.069682
O O13 0.608213 0.885170 0.074562
O O14 0.500000 0.833671 0.155483
O O15 0.250000 0.500000 0.269126
O O16 0.109561 0.388035 0.235207
O O17 0.750000 0.000000 0.939634
O O18 0.750000 0.876092 0.000000
O O19 0.000000 0.750000 0.759678
#
# Coordination Sequence:
#
# PCOD9504190 Si02
#       7
#    16  16  16   8  16  16   8
#     4   9  19  36  61  90 127 168 211 263 320 381
#     4  10  21  39  65  95 127 168 222 274 320 379
#     4  11  25  43  63  90 131 173 208 261 337 405
#     4  11  24  41  69  97 121 163 223 270 312 387
#     4  12  25  38  66  96 127 165 213 274 328 389
#     4  11  26  42  65  94 130 166 213 270 328 387
#     4  11  22  42  67  93 124 166 221 274 322 381
#
# _framework density 18.926724
#
# number of rings (size 3 to 8) (size 9 to 14) (size 15 to 20)
#    0.000    1.333    2.500    2.500    5.833    2.333 
#    0.000    0.833    0.000    1.000    0.000    0.000 
#    0.000    0.000    0.000    0.000    0.000    0.000 
#
# Total GULP energy -267630.446915 kJ/mol
# GULP energy per Si atom -5575.634311 kJ/mol
# Density = 1.888365 g / cm^3
# Si number density = 18.926724 Si / 1000 Ang^3
#
#
#
# Elastic Constant Matrix: (Units=GPa)
#
#
# Indices 1 2 3 4 5 6 
#
# 1 149.0017 43.4563 57.0944 0.0000 0.0000 0.0000
# 2 43.4563 79.7388 41.1761 0.0000 0.0000 0.0000
# 3 57.0944 41.1761 137.6825 0.0000 0.0000 0.0000
# 4 0.0000 0.0000 0.0000 31.8133 0.0000 0.0000
# 5 0.0000 0.0000 0.0000 0.0000 67.3860 0.0000
# 6 0.0000 0.0000 0.0000 0.0000 0.0000 39.7416
#
#
#
# Elastic Compliance Matrix: (Units=1/GPa)
#
#
# Indices 1 2 3 4 5 6 
#
# 1 0.008695 -0.003402 -0.002588 0.000000 0.000000 0.000000
# 2 -0.003402 0.016163 -0.003423 0.000000 0.000000 0.000000
# 3 -0.002588 -0.003423 0.009360 0.000000 0.000000 0.000000
# 4 0.000000 0.000000 0.000000 0.031433 0.000000 0.000000
# 5 0.000000 0.000000 0.000000 0.000000 0.014840 0.000000
# 6 0.000000 0.000000 0.000000 0.000000 0.000000 0.025163
#
#
# Mechanical properties :
#
#
# Convention : Reuss Voigt Hill
#
# Bulk Modulus (GPa) = 64.97195 72.20852 68.59024
# Shear Modulus (GPa) = 38.57693 42.76793 40.67243
#
# Velocity S-wave (km/s) = 4.51957 4.75874 4.64070
# Velocity P-wave (km/s) = 7.85099 8.27216 8.06432
#
# Compressibility (1/GPa) = 0.01539126
#
# Stress axis : x y z
#
# Youngs Moduli (GPa) = 115.00348 61.87112 106.83679
#
# Poissons Ratio (x) = 0.21050 0.27653
# Poissons Ratio (y) = 0.39127 0.36569
# Poissons Ratio (z) = 0.29767 0.21177
#
# Static dielectric constant tensor:
#      x y z
#    x 1.670740 0.000000 0.000000 
#    y 0.000000 1.659570 0.000000 
#    z 0.000000 0.000000 1.683740 
# 
# From -- ./inp_files/44090.got.cif
#   From: 2010.05.17/outbox.cif.g08.bks.cpg/sg67_23_cif.got.tgz:44090.got - 2010.06.03 18:28:57.
