data_PCOD9504324
_publ_section_title
;
Structure prediction by ZEFSAII (Michael W. Deem and Ramdas Pophale) SiO2 
 PCOD9504324
Probable space group: C M M A
;
_chemical_formula_sum "Si O2"
_cell_formula_units_Z 88
_cell_length_a 18.813306
_cell_length_b 14.444893
_cell_length_c 17.737240
_cell_angle_alpha 90.000000
_cell_angle_beta 90.000000
_cell_angle_gamma 90.000000
_cell_volume 4820.204802
_symmetry_space_group_name_H-M "C M M A"
_symmetry_group_IT_number 67
_symmetry_cell_setting 'orthorhombic'
loop_
_space_group_symop_operation_xyz
x,y,z
-x,1/2-y,z
x,-y,-z
-x,1/2+y,-z
-x,-y,-z
x,1/2+y,-z
-x,y,z
x,1/2-y,z
1/2+x,1/2+y,z
1/2-x,-y,z
1/2+x,1/2-y,-z
1/2-x,y,-z
1/2-x,1/2-y,-z
1/2+x,y,-z
1/2-x,1/2+y,z
1/2+x,-y,z
loop_
_atom_site_type_symbol
_atom_site_label
_atom_site_fract_x
_atom_site_fract_y
_atom_site_fract_z
Si Si1 0.500000 0.535914 0.915140
Si Si2 0.347249 0.750000 0.572421
Si Si3 0.250000 0.000000 0.817186
Si Si4 0.678638 0.750000 0.400907
Si Si5 0.916477 0.890238 0.315868
Si Si6 0.869011 0.592285 0.711797
Si Si7 0.000000 0.148427 0.186795
Si Si8 0.863563 0.143017 0.853397
O O1 0.500000 0.442935 0.864587
O O2 0.431073 0.597155 0.894646
O O3 0.500000 0.500000 0.000000
O O4 0.357581 0.750000 0.482900
O O5 0.263156 0.750000 0.587303
O O6 0.381514 0.662871 0.614901
O O7 0.304169 0.058234 0.764648
O O8 0.203263 0.074268 0.863092
O O9 0.657405 0.660920 0.352255
O O10 0.881574 0.859749 0.236375
O O11 0.000000 0.870387 0.311549
O O12 0.903035 0.999257 0.321793
O O13 0.929764 0.639844 0.762023
O O14 0.000000 0.250000 0.148982
O O15 0.851897 0.250000 0.875048
#
# Coordination Sequence:
#
# PCOD9504324 Si02
#       8
#     8   8   8   8  16  16   8  16
#     4  12  25  45  68 101 137 162 207 269 331 382
#     4  11  25  38  57  94 124 161 204 276 330 371
#     4  10  22  36  67 103 124 162 230 266 308 372
#     4  11  24  41  56  85 134 164 207 261 331 391
#     4  11  20  38  62  89 119 157 217 269 311 370
#     4  11  21  39  63  90 119 170 213 260 313 383
#     4  12  22  41  66  90 128 168 215 258 314 392
#     4  11  21  39  70  98 129 172 215 265 316 386
#
# _framework density 18.256485999999999
#
# number of rings (size 3 to 8) (size 9 to 14) (size 15 to 20)
#    0.000    0.909    7.273    2.727    1.273    1.455 
#    3.273    3.182    0.000    1.091    0.000    0.000 
#    0.000    0.000    0.000    0.000    0.000    0.000 
#
# Total GULP energy -245778.010473 kJ/mol
# GULP energy per Si atom -5585.863874 kJ/mol
# Density = 1.821493 g / cm^3
# Si number density = 18.256486 Si / 1000 Ang^3
#
#
#
# Elastic Constant Matrix: (Units=GPa)
#
#
# Indices 1 2 3 4 5 6 
#
# 1 112.3865 43.8718 23.5588 0.0000 0.0000 0.0000
# 2 43.8718 157.4342 41.8164 0.0000 0.0000 0.0000
# 3 23.5588 41.8164 51.7554 0.0000 0.0000 0.0000
# 4 0.0000 0.0000 0.0000 14.3478 0.0000 0.0000
# 5 0.0000 0.0000 0.0000 0.0000 2.5427 0.0000
# 6 0.0000 0.0000 0.0000 0.0000 0.0000 30.9907
#
#
#
# Elastic Compliance Matrix: (Units=1/GPa)
#
#
# Indices 1 2 3 4 5 6 
#
# 1 0.010344 -0.002078 -0.003030 0.000000 0.000000 0.000000
# 2 -0.002078 0.008505 -0.005926 0.000000 0.000000 0.000000
# 3 -0.003030 -0.005926 0.025489 0.000000 0.000000 0.000000
# 4 0.000000 0.000000 0.000000 0.069697 0.000000 0.000000
# 5 0.000000 0.000000 0.000000 0.000000 0.393276 0.000000
# 6 0.000000 0.000000 0.000000 0.000000 0.000000 0.032268
#
#
# Mechanical properties :
#
#
# Convention : Reuss Voigt Hill
#
# Bulk Modulus (GPa) = 44.90189 60.00780 52.45485
# Shear Modulus (GPa) = 8.78628 23.73152 16.25890
#
# Velocity S-wave (km/s) = 2.19616 3.60932 2.98750
# Velocity P-wave (km/s) = 5.57488 7.09297 6.37924
#
# Compressibility (1/GPa) = 0.02227078
#
# Stress axis : x y z
#
# Youngs Moduli (GPa) = 96.67359 117.58016 39.23325
#
# Poissons Ratio (x) = 0.24431 0.11887
# Poissons Ratio (y) = 0.20087 0.23249
# Poissons Ratio (z) = 0.29290 0.69675
#
# Static dielectric constant tensor:
#      x y z
#    x 1.622870 0.000000 0.000000 
#    y 0.000000 1.690260 0.000000 
#    z 0.000000 0.000000 1.592320 
# 
# From -- ./inp_files/34188.got.cif
#   From: 2010.05.17/outbox.cif.g08.bks.cpg/sg67_18_cif.got.tgz:34188.got - 2010.06.03 18:28:57.
