data_PCOD9504305
_publ_section_title
;
Structure prediction by ZEFSAII (Michael W. Deem and Ramdas Pophale) SiO2 
 PCOD9504305
Probable space group: C M M A
;
_chemical_formula_sum "Si O2"
_cell_formula_units_Z 104
_cell_length_a 26.345158
_cell_length_b 8.094218
_cell_length_c 34.330261
_cell_angle_alpha 90.000000
_cell_angle_beta 90.000000
_cell_angle_gamma 90.000000
_cell_volume 7320.703367
_symmetry_space_group_name_H-M "C M M A"
_symmetry_group_IT_number 67
_symmetry_cell_setting 'orthorhombic'
loop_
_space_group_symop_operation_xyz
x,y,z
-x,1/2-y,z
x,-y,-z
-x,1/2+y,-z
-x,-y,-z
x,1/2+y,-z
-x,y,z
x,1/2-y,z
1/2+x,1/2+y,z
1/2-x,-y,z
1/2+x,1/2-y,-z
1/2-x,y,-z
1/2-x,1/2-y,-z
1/2+x,y,-z
1/2-x,1/2+y,z
1/2+x,-y,z
loop_
_atom_site_type_symbol
_atom_site_label
_atom_site_fract_x
_atom_site_fract_y
_atom_site_fract_z
Si Si1 0.938141 0.250000 0.185974
Si Si2 0.061790 0.441145 0.761455
Si Si3 0.938281 0.939905 0.043403
Si Si4 0.561867 0.750000 0.096000
Si Si5 0.597408 0.445737 0.593446
Si Si6 0.307216 0.554758 0.544316
Si Si7 0.000000 0.549991 0.545006
Si Si8 0.557572 0.552043 0.674270
O O1 0.922071 0.417771 0.208240
O O2 0.922274 0.250000 0.140969
O O3 0.000000 0.250000 0.186631
O O4 0.078099 0.250000 0.768888
O O5 0.075893 0.495243 0.717439
O O6 0.000000 0.437074 0.761630
O O7 0.921616 0.750000 0.050639
O O8 0.000000 0.936880 0.044437
O O9 0.922025 0.082547 0.073595
O O10 0.924049 0.000000 0.000000
O O11 0.500000 0.750000 0.095149
O O12 0.592319 0.250000 0.593896
O O13 0.650213 0.489001 0.573276
O O14 0.550209 0.511739 0.567554
O O15 0.591294 0.504919 0.637623
O O16 0.318288 0.500000 0.500000
O O17 0.308762 0.750000 0.545160
O O18 0.250000 0.500000 0.553887
O O19 0.000000 0.500000 0.500000
O O20 0.000000 0.750000 0.546189
O O21 0.500000 0.486113 0.668121
O O22 0.554162 0.750000 0.675512
#
# Coordination Sequence:
#
# PCOD9504305 Si02
#       8
#     8  16  16   8  16  16   8  16
#     4   9  16  24  34  48  64  90 120 145 191 231
#     4   8  15  26  38  52  71  95 123 154 187 236
#     4   9  14  20  29  38  51  72  98 134 182 230
#     4   9  16  22  28  42  58  74 106 144 175 233
#     4  11  21  33  48  71  93 115 144 174 203 247
#     4  11  22  38  56  72  89 115 145 175 205 242
#     4  10  22  34  44  64  92 120 140 164 204 244
#     4   9  17  29  44  63  85 109 136 165 203 241
#
# _framework density 14.206286
#
# number of rings (size 3 to 8) (size 9 to 14) (size 15 to 20)
#    0.000    2.462    1.538    3.692    1.077    3.077 
#    0.000    3.077    0.000    0.000    0.000    0.000 
#    0.000    0.000    0.000    0.000    0.000    0.000 
#
# Total GULP energy -289627.978189 kJ/mol
# GULP energy per Si atom -5569.768811 kJ/mol
# Density = 1.417395 g / cm^3
# Si number density = 14.206286 Si / 1000 Ang^3
#
#
#
# Elastic Constant Matrix: (Units=GPa)
#
#
# Indices 1 2 3 4 5 6 
#
# 1 26.7389 9.0228 34.7186 0.0000 0.0000 0.0000
# 2 9.0228 77.1577 63.1335 0.0000 0.0000 0.0000
# 3 34.7186 63.1335 139.3456 0.0000 0.0000 0.0000
# 4 0.0000 0.0000 0.0000 26.7827 0.0000 0.0000
# 5 0.0000 0.0000 0.0000 0.0000 5.3826 0.0000
# 6 0.0000 0.0000 0.0000 0.0000 0.0000 10.4284
#
#
#
# Elastic Compliance Matrix: (Units=1/GPa)
#
#
# Indices 1 2 3 4 5 6 
#
# 1 0.058268 0.008049 -0.018165 0.000000 0.000000 0.000000
# 2 0.008049 0.021708 -0.011841 0.000000 0.000000 0.000000
# 3 -0.018165 -0.011841 0.017067 0.000000 0.000000 0.000000
# 4 0.000000 0.000000 0.000000 0.037338 0.000000 0.000000
# 5 0.000000 0.000000 0.000000 0.000000 0.185783 0.000000
# 6 0.000000 0.000000 0.000000 0.000000 0.000000 0.095892
#
#
# Mechanical properties :
#
#
# Convention : Reuss Voigt Hill
#
# Bulk Modulus (GPa) = 18.82152 50.77687 34.79920
# Shear Modulus (GPa) = 10.46729 17.60988 14.03859
#
# Velocity S-wave (km/s) = 2.71736 3.52459 3.14697
# Velocity P-wave (km/s) = 4.80863 7.23767 6.14438
#
# Compressibility (1/GPa) = 0.05313067
#
# Stress axis : x y z
#
# Youngs Moduli (GPa) = 17.16198 46.06664 58.59299
#
# Poissons Ratio (x) = -0.37080 1.06433
# Poissons Ratio (y) = -0.13814 0.69378
# Poissons Ratio (z) = 0.31174 0.54546
#
# Static dielectric constant tensor:
#      x y z
#    x 1.428730 0.000000 0.000000 
#    y 0.000000 1.504610 0.000000 
#    z 0.000000 0.000000 1.471490 
# 
# From -- ./inp_files/44874.got.cif
#   From: 2010.05.17/outbox.cif.g08.bks.cpg/sg67_23_cif.got.tgz:44874.got - 2010.06.03 18:28:57.
