data_PCOD9504074
_publ_section_title
;
Structure prediction by ZEFSAII (Michael W. Deem and Ramdas Pophale) SiO2 
 PCOD9504074
Probable space group: C M M A
;
_chemical_formula_sum "Si O2"
_cell_formula_units_Z 88
_cell_length_a 11.024216
_cell_length_b 14.662434
_cell_length_c 27.394297
_cell_angle_alpha 90.000000
_cell_angle_beta 90.000000
_cell_angle_gamma 90.000000
_cell_volume 4428.064559
_symmetry_space_group_name_H-M "C M M A"
_symmetry_group_IT_number 67
_symmetry_cell_setting 'orthorhombic'
loop_
_space_group_symop_operation_xyz
x,y,z
-x,1/2-y,z
x,-y,-z
-x,1/2+y,-z
-x,-y,-z
x,1/2+y,-z
-x,y,z
x,1/2-y,z
1/2+x,1/2+y,z
1/2-x,-y,z
1/2+x,1/2-y,-z
1/2-x,y,-z
1/2-x,1/2-y,-z
1/2+x,y,-z
1/2-x,1/2+y,z
1/2+x,-y,z
loop_
_atom_site_type_symbol
_atom_site_label
_atom_site_fract_x
_atom_site_fract_y
_atom_site_fract_z
Si Si1 0.357581 0.566101 0.400482
Si Si2 0.864449 0.250000 0.464323
Si Si3 0.631674 0.602753 0.860841
Si Si4 0.854361 0.146347 0.296442
Si Si5 0.131056 0.601732 0.022709
Si Si6 0.135688 0.098493 0.187533
O O1 0.500000 0.532349 0.401369
O O2 0.250000 0.500000 0.419100
O O3 0.357805 0.659854 0.430920
O O4 0.320701 0.592528 0.345046
O O5 0.750000 0.250000 0.500000
O O6 0.000000 0.250000 0.487793
O O7 0.500000 0.645254 0.850443
O O8 0.642864 0.594062 0.919053
O O9 0.753886 0.646199 0.840263
O O10 0.627674 0.502563 0.835756
O O11 0.805379 0.250000 0.296212
O O12 0.830274 0.099022 0.244677
O O13 0.000000 0.153247 0.299652
O O14 0.000000 0.644170 0.011825
O O15 0.126810 0.500000 0.000000
O O16 0.250000 0.646150 0.000000
O O17 0.000000 0.138570 0.183042
#
# Coordination Sequence:
#
# PCOD9504074 Si02
#       6
#    16   8  16  16  16  16
#     4  10  21  38  61  90 121 156 198 244 292 344
#     4  10  22  42  66  90 124 164 200 244 297 348
#     4   9  17  26  36  59  94 121 150 200 261 316
#     4   9  17  32  53  75 104 142 184 226 271 324
#     4   9  15  22  33  50  78 116 151 189 245 311
#     4   9  16  25  41  62  84 119 162 199 240 297
#
# _framework density 19.873241
#
# number of rings (size 3 to 8) (size 9 to 14) (size 15 to 20)
#    0.000    2.727    0.909    2.182    2.545    3.273 
#    0.000    1.818    0.000    1.636    0.000    0.000 
#    0.000   11.636    0.000   45.091    0.000   16.727 
#
# Total GULP energy -244969.994211 kJ/mol
# GULP energy per Si atom -5567.499868 kJ/mol
# Density = 1.982801 g / cm^3
# Si number density = 19.873241 Si / 1000 Ang^3
#
#
#
# Elastic Constant Matrix: (Units=GPa)
#
#
# Indices 1 2 3 4 5 6 
#
# 1 189.4490 37.7593 60.8297 0.0000 0.0000 0.0000
# 2 37.7593 86.3849 13.9680 0.0000 0.0000 0.0000
# 3 60.8297 13.9680 80.4853 0.0000 0.0000 0.0000
# 4 0.0000 0.0000 0.0000 -488.9187 0.0000 0.0000
# 5 0.0000 0.0000 0.0000 0.0000 79.9688 0.0000
# 6 0.0000 0.0000 0.0000 0.0000 0.0000 20.2803
#
#
#
# Elastic Compliance Matrix: (Units=1/GPa)
#
#
# Indices 1 2 3 4 5 6 
#
# 1 0.007426 -0.002406 -0.005195 0.000000 0.000000 0.000000
# 2 -0.002406 0.012690 -0.000384 0.000000 0.000000 0.000000
# 3 -0.005195 -0.000384 0.016418 0.000000 0.000000 0.000000
# 4 0.000000 0.000000 0.000000 -0.002045 0.000000 0.000000
# 5 0.000000 0.000000 0.000000 0.000000 0.012505 0.000000
# 6 0.000000 0.000000 0.000000 0.000000 0.000000 0.049309
#
#
# Mechanical properties :
#
#
# Convention : Reuss Voigt Hill
#
# Bulk Modulus (GPa) = 48.62921 64.60368 56.61644
# Shear Modulus (GPa) = 41.97238 -61.48309 -9.75535
#
# Velocity S-wave (km/s) = 4.60064 -5.56819 -2.21798
# Velocity P-wave (km/s) = 7.26251 2.95994 4.68950
#
# Compressibility (1/GPa) = 0.02056377
#
# Stress axis : x y z
#
# Youngs Moduli (GPa) = 134.66146 78.80324 60.91058
#
# Poissons Ratio (x) = 0.18960 0.31643
# Poissons Ratio (y) = 0.32399 0.02338
# Poissons Ratio (z) = 0.69956 0.03025
#
# Static dielectric constant tensor:
#      x y z
#    x 1.724910 0.000000 0.000000 
#    y 0.000000 1.694690 0.000000 
#    z 0.000000 0.000000 1.677670 
# 
# From -- ./inp_files/41399.got.cif
#   From: 2010.05.17/outbox.cif.g08.bks.cpg/sg67_21_cif.got.tgz:41399.got - 2010.06.03 18:28:57.
