data_PCOD9504869
_publ_section_title
;
Structure prediction by ZEFSAII (Michael W. Deem and Ramdas Pophale) SiO2 
 PCOD9504869
Probable space group: C M M A
;
_chemical_formula_sum "Si O2"
_cell_formula_units_Z 80
_cell_length_a 9.207074
_cell_length_b 14.697464
_cell_length_c 27.004986
_cell_angle_alpha 90.000000
_cell_angle_beta 90.000000
_cell_angle_gamma 90.000000
_cell_volume 3654.331953
_symmetry_space_group_name_H-M "C M M A"
_symmetry_group_IT_number 67
_symmetry_cell_setting 'orthorhombic'
loop_
_space_group_symop_operation_xyz
x,y,z
-x,1/2-y,z
x,-y,-z
-x,1/2+y,-z
-x,-y,-z
x,1/2+y,-z
-x,y,z
x,1/2-y,z
1/2+x,1/2+y,z
1/2-x,-y,z
1/2+x,1/2-y,-z
1/2-x,y,-z
1/2-x,1/2-y,-z
1/2+x,y,-z
1/2-x,1/2+y,z
1/2+x,-y,z
loop_
_atom_site_type_symbol
_atom_site_label
_atom_site_fract_x
_atom_site_fract_y
_atom_site_fract_z
Si Si1 0.334708 0.638568 0.147648
Si Si2 0.163313 0.857434 0.354718
Si Si3 0.168843 0.139225 0.754903
Si Si4 0.834641 0.138691 0.950743
Si Si5 0.673843 0.098319 0.547652
O O1 0.500000 0.608227 0.143146
O O2 0.334476 0.750000 0.147880
O O3 0.265648 0.608025 0.199452
O O4 0.243077 0.610627 0.099858
O O5 0.145598 0.750000 0.348364
O O6 0.210324 0.892030 0.300557
O O7 0.276996 0.866719 0.398887
O O8 0.000000 0.894325 0.367239
O O9 0.176800 0.250000 0.755606
O O10 0.000000 0.115364 0.762497
O O11 0.835862 0.250000 0.950786
O O12 0.000000 0.107329 0.952058
O O13 0.750000 0.110551 0.000000
O O14 0.500000 0.096310 0.541809
O O15 0.750000 0.145158 0.500000
O O16 0.750000 0.000000 0.548296
#
# Coordination Sequence:
#
# PCOD9504869 Si02
#       5
#    16  16  16  16  16
#     4   9  15  21  30  45  66  93 127 168 212 258
#     4   9  18  33  52  74 100 127 157 195 237 280
#     4   8  14  25  40  57  79 108 139 173 216 264
#     4   9  15  21  28  38  55  82 120 166 213 259
#     4  11  22  37  56  75  98 127 160 195 233 280
#
# _framework density 21.891825999999998
#
# number of rings (size 3 to 8) (size 9 to 14) (size 15 to 20)
#    0.000    2.800    0.000    4.800    0.000    6.400 
#    0.000    2.000    0.000    0.000    0.000    0.000 
#    0.000    0.000    0.000    0.000    0.000    1.000 
#
# Total GULP energy -223203.332380 kJ/mol
# GULP energy per Si atom -5580.083309 kJ/mol
# Density = 2.184200 g / cm^3
# Si number density = 21.891826 Si / 1000 Ang^3
#
#
#
# Elastic Constant Matrix: (Units=GPa)
#
#
# Indices 1 2 3 4 5 6 
#
# 1 207.8072 10.7473 151.7434 0.0000 0.0000 0.0000
# 2 10.7473 44.4688 5.3909 0.0000 0.0000 0.0000
# 3 151.7434 5.3909 224.5087 0.0000 0.0000 0.0000
# 4 0.0000 0.0000 0.0000 22.5107 0.0000 0.0000
# 5 0.0000 0.0000 0.0000 0.0000 38.5929 0.0000
# 6 0.0000 0.0000 0.0000 0.0000 0.0000 5.5569
#
#
#
# Elastic Compliance Matrix: (Units=1/GPa)
#
#
# Indices 1 2 3 4 5 6 
#
# 1 0.009605 -0.001539 -0.006455 0.000000 0.000000 0.000000
# 2 -0.001539 0.022800 0.000493 0.000000 0.000000 0.000000
# 3 -0.006455 0.000493 0.008805 0.000000 0.000000 0.000000
# 4 0.000000 0.000000 0.000000 0.044423 0.000000 0.000000
# 5 0.000000 0.000000 0.000000 0.000000 0.025912 0.000000
# 6 0.000000 0.000000 0.000000 0.000000 0.000000 0.179956
#
#
# Mechanical properties :
#
#
# Convention : Reuss Voigt Hill
#
# Bulk Modulus (GPa) = 38.15678 90.28310 64.21994
# Shear Modulus (GPa) = 15.86090 33.92564 24.89327
#
# Velocity S-wave (km/s) = 2.69460 3.94089 3.37575
# Velocity P-wave (km/s) = 5.21044 7.87639 6.67781
#
# Compressibility (1/GPa) = 0.02620766
#
# Stress axis : x y z
#
# Youngs Moduli (GPa) = 104.10717 43.85993 113.56639
#
# Poissons Ratio (x) = 0.06750 0.73311
# Poissons Ratio (y) = 0.16021 -0.05595
# Poissons Ratio (z) = 0.67204 -0.02161
#
# Static dielectric constant tensor:
#      x y z
#    x 1.754710 0.000000 0.000000 
#    y 0.000000 1.965120 0.000000 
#    z 0.000000 0.000000 1.835000 
# 
# From -- ./inp_files/43263.got.cif
#   From: 2010.05.17/outbox.cif.g08.bks.cpg/sg67_22_cif.got.tgz:43263.got - 2010.06.03 18:28:57.
