data_PCOD9504030
_publ_section_title
;
Structure prediction by ZEFSAII (Michael W. Deem and Ramdas Pophale) SiO2 
 PCOD9504030
Probable space group: C M M A
;
_chemical_formula_sum "Si O2"
_cell_formula_units_Z 72
_cell_length_a 16.100242
_cell_length_b 8.863509
_cell_length_c 24.920306
_cell_angle_alpha 90.000000
_cell_angle_beta 90.000000
_cell_angle_gamma 90.000000
_cell_volume 3556.243293
_symmetry_space_group_name_H-M "C M M A"
_symmetry_group_IT_number 67
_symmetry_cell_setting 'orthorhombic'
loop_
_space_group_symop_operation_xyz
x,y,z
-x,1/2-y,z
x,-y,-z
-x,1/2+y,-z
-x,-y,-z
x,1/2+y,-z
-x,y,z
x,1/2-y,z
1/2+x,1/2+y,z
1/2-x,-y,z
1/2+x,1/2-y,-z
1/2-x,y,-z
1/2-x,1/2-y,-z
1/2+x,y,-z
1/2-x,1/2+y,z
1/2+x,-y,z
loop_
_atom_site_type_symbol
_atom_site_label
_atom_site_fract_x
_atom_site_fract_y
_atom_site_fract_z
Si Si1 0.500000 0.432133 0.440398
Si Si2 0.399964 0.420697 0.945694
Si Si3 0.337925 0.570599 0.382631
Si Si4 0.597100 0.426882 0.279759
Si Si5 0.840201 0.070358 0.836707
O O1 0.500000 0.250000 0.440074
O O2 0.500000 0.500000 0.500000
O O3 0.416604 0.493405 0.411694
O O4 0.500000 0.415799 0.949071
O O5 0.368012 0.250000 0.942891
O O6 0.377366 0.506644 0.891548
O O7 0.369165 0.500000 0.000000
O O8 0.338838 0.750000 0.390874
O O9 0.250000 0.500000 0.400332
O O10 0.350862 0.529713 0.319873
O O11 0.500000 0.440914 0.293263
O O12 0.620697 0.250000 0.287200
O O13 0.609299 0.465758 0.217384
O O14 0.835582 0.250000 0.840897
O O15 0.750000 0.000000 0.829636
#
# Coordination Sequence:
#
# PCOD9504030 Si02
#       5
#     8  16  16  16  16
#     4  12  26  48  74 104 142 182 229 282 333 396
#     4  10  21  38  60  84 111 147 193 248 308 376
#     4  12  25  43  69 103 139 183 230 279 336 396
#     4  10  21  39  64  93 128 169 212 265 326 387
#     4  11  23  38  57  85 120 159 203 254 312 377
#
# _framework density 20.246084
#
# number of rings (size 3 to 8) (size 9 to 14) (size 15 to 20)
#    0.000    1.111    1.111    5.667    0.000    6.667 
#    0.000    4.444    0.000    0.000    0.000    0.000 
#    0.000    0.000    0.000    0.000    0.000    0.000 
#
# Total GULP energy -201340.578569 kJ/mol
# GULP energy per Si atom -5592.793849 kJ/mol
# Density = 2.020000 g / cm^3
# Si number density = 20.246084 Si / 1000 Ang^3
#
#
#
# Elastic Constant Matrix: (Units=GPa)
#
#
# Indices 1 2 3 4 5 6 
#
# 1 104.3127 65.3311 45.6353 0.0000 0.0000 0.0000
# 2 65.3311 157.2620 71.2315 0.0000 0.0000 0.0000
# 3 45.6353 71.2315 126.1080 0.0000 0.0000 0.0000
# 4 0.0000 0.0000 0.0000 37.8191 0.0000 0.0000
# 5 0.0000 0.0000 0.0000 0.0000 12.7572 0.0000
# 6 0.0000 0.0000 0.0000 0.0000 0.0000 30.5300
#
#
#
# Elastic Compliance Matrix: (Units=1/GPa)
#
#
# Indices 1 2 3 4 5 6 
#
# 1 0.013436 -0.004541 -0.002297 0.000000 0.000000 0.000000
# 2 -0.004541 0.010080 -0.004050 0.000000 0.000000 0.000000
# 3 -0.002297 -0.004050 0.011049 0.000000 0.000000 0.000000
# 4 0.000000 0.000000 0.000000 0.026442 0.000000 0.000000
# 5 0.000000 0.000000 0.000000 0.000000 0.078387 0.000000
# 6 0.000000 0.000000 0.000000 0.000000 0.000000 0.032755
#
#
# Mechanical properties :
#
#
# Convention : Reuss Voigt Hill
#
# Bulk Modulus (GPa) = 78.20160 83.56429 80.88295
# Shear Modulus (GPa) = 25.22873 29.92025 27.57449
#
# Velocity S-wave (km/s) = 3.53385 3.84842 3.69449
# Velocity P-wave (km/s) = 7.44044 7.81736 7.63123
#
# Compressibility (1/GPa) = 0.01278746
#
# Stress axis : x y z
#
# Youngs Moduli (GPa) = 74.42946 99.20757 90.50839
#
# Poissons Ratio (x) = 0.45051 0.20789
# Poissons Ratio (y) = 0.33799 0.36658
# Poissons Ratio (z) = 0.17096 0.40182
#
# Static dielectric constant tensor:
#      x y z
#    x 1.731640 0.000000 0.000000 
#    y 0.000000 1.688150 0.000000 
#    z 0.000000 0.000000 1.727770 
# 
# From -- ./inp_files/44250.got.cif
#   From: 2010.05.17/outbox.cif.g08.bks.cpg/sg67_23_cif.got.tgz:44250.got - 2010.06.03 18:28:57.
