data_PCOD9504061
_publ_section_title
;
Structure prediction by ZEFSAII (Michael W. Deem and Ramdas Pophale) SiO2 
 PCOD9504061
Probable space group: C M M A
;
_chemical_formula_sum "Si O2"
_cell_formula_units_Z 80
_cell_length_a 18.600203
_cell_length_b 8.775689
_cell_length_c 26.319339
_cell_angle_alpha 90.000000
_cell_angle_beta 90.000000
_cell_angle_gamma 90.000000
_cell_volume 4296.095095
_symmetry_space_group_name_H-M "C M M A"
_symmetry_group_IT_number 67
_symmetry_cell_setting 'orthorhombic'
loop_
_space_group_symop_operation_xyz
x,y,z
-x,1/2-y,z
x,-y,-z
-x,1/2+y,-z
-x,-y,-z
x,1/2+y,-z
-x,y,z
x,1/2-y,z
1/2+x,1/2+y,z
1/2-x,-y,z
1/2+x,1/2-y,-z
1/2-x,y,-z
1/2-x,1/2-y,-z
1/2+x,y,-z
1/2-x,1/2+y,z
1/2+x,-y,z
loop_
_atom_site_type_symbol
_atom_site_label
_atom_site_fract_x
_atom_site_fract_y
_atom_site_fract_z
Si Si1 0.415422 0.432171 0.054940
Si Si2 0.583755 0.066356 0.748620
Si Si3 0.829657 0.566966 0.345972
Si Si4 0.416583 0.566516 0.554154
Si Si5 0.829624 0.067112 0.149516
O O1 0.500000 0.467827 0.063613
O O2 0.407314 0.250000 0.054122
O O3 0.368354 0.503162 0.099550
O O4 0.395718 0.500000 0.000000
O O5 0.500000 0.022913 0.750606
O O6 0.587779 0.250000 0.743416
O O7 0.623982 0.024774 0.800783
O O8 0.623197 0.990765 0.701113
O O9 0.826514 0.750000 0.345051
O O10 0.750000 0.500000 0.342506
O O11 0.867820 0.518379 0.398588
O O12 0.393184 0.500000 0.500000
O O13 0.500000 0.520366 0.562564
O O14 0.414870 0.750000 0.551369
O O15 0.826246 0.250000 0.146719
O O16 0.750000 0.000000 0.154014
#
# Coordination Sequence:
#
# PCOD9504061 Si02
#       5
#    16  16  16  16  16
#     4  10  21  38  61  88 117 151 192 236 283 336
#     4  10  22  40  62  87 114 147 188 233 283 339
#     4  11  23  38  57  83 116 151 189 234 283 336
#     4   9  19  36  57  81 109 144 187 233 281 334
#     4  11  23  39  59  85 118 152 189 234 283 336
#
# _framework density 18.621562999999998
#
# number of rings (size 3 to 8) (size 9 to 14) (size 15 to 20)
#    0.000    1.800    0.000    3.600    0.000    8.800 
#    0.000    6.000    0.000    0.000    0.000    0.000 
#    0.000    0.000    0.000    0.000    0.000    0.000 
#
# Total GULP energy -223580.286801 kJ/mol
# GULP energy per Si atom -5589.507170 kJ/mol
# Density = 1.857918 g / cm^3
# Si number density = 18.621563 Si / 1000 Ang^3
#
#
#
# Elastic Constant Matrix: (Units=GPa)
#
#
# Indices 1 2 3 4 5 6 
#
# 1 168.3663 60.0267 135.4224 0.0000 0.0000 0.0000
# 2 60.0267 42.8337 64.4346 0.0000 0.0000 0.0000
# 3 135.4224 64.4346 204.0201 0.0000 0.0000 0.0000
# 4 0.0000 0.0000 0.0000 31.3657 0.0000 0.0000
# 5 0.0000 0.0000 0.0000 0.0000 -106.6552 0.0000
# 6 0.0000 0.0000 0.0000 0.0000 0.0000 24.5897
#
#
#
# Elastic Compliance Matrix: (Units=1/GPa)
#
#
# Indices 1 2 3 4 5 6 
#
# 1 0.015330 -0.011766 -0.006459 0.000000 0.000000 0.000000
# 2 -0.011766 0.053508 -0.009089 0.000000 0.000000 0.000000
# 3 -0.006459 -0.009089 0.012060 0.000000 0.000000 0.000000
# 4 0.000000 0.000000 0.000000 0.031882 0.000000 0.000000
# 5 0.000000 0.000000 0.000000 0.000000 -0.009376 0.000000
# 6 0.000000 0.000000 0.000000 0.000000 0.000000 0.040667
#
#
# Mechanical properties :
#
#
# Convention : Reuss Voigt Hill
#
# Bulk Modulus (GPa) = 38.06927 103.88749 70.97838
# Shear Modulus (GPa) = 24.10144 0.21580 12.15862
#
# Velocity S-wave (km/s) = 3.60151 0.34079 2.55803
# Velocity P-wave (km/s) = 6.14675 7.48764 6.85008
#
# Compressibility (1/GPa) = 0.02626791
#
# Stress axis : x y z
#
# Youngs Moduli (GPa) = 65.23161 18.68884 82.92133
#
# Poissons Ratio (x) = 0.21990 0.53563
# Poissons Ratio (y) = 0.76754 0.75367
# Poissons Ratio (z) = 0.42136 0.16986
#
# Static dielectric constant tensor:
#      x y z
#    x 1.618440 0.000000 0.000000 
#    y 0.000000 1.621720 0.000000 
#    z 0.000000 0.000000 1.608030 
# 
# From -- ./inp_files/44421.got.cif
#   From: 2010.05.17/outbox.cif.g08.bks.cpg/sg67_23_cif.got.tgz:44421.got - 2010.06.03 18:28:57.
