data_PCOD9504670
_publ_section_title
;
Structure prediction by ZEFSAII (Michael W. Deem and Ramdas Pophale) SiO2 
 PCOD9504670
Probable space group: C M M A
;
_chemical_formula_sum "Si O2"
_cell_formula_units_Z 72
_cell_length_a 26.404511
_cell_length_b 13.990328
_cell_length_c 9.892422
_cell_angle_alpha 90.000000
_cell_angle_beta 90.000000
_cell_angle_gamma 90.000000
_cell_volume 3654.337547
_symmetry_space_group_name_H-M "C M M A"
_symmetry_group_IT_number 67
_symmetry_cell_setting 'orthorhombic'
loop_
_space_group_symop_operation_xyz
x,y,z
-x,1/2-y,z
x,-y,-z
-x,1/2+y,-z
-x,-y,-z
x,1/2+y,-z
-x,y,z
x,1/2-y,z
1/2+x,1/2+y,z
1/2-x,-y,z
1/2+x,1/2-y,-z
1/2-x,y,-z
1/2-x,1/2-y,-z
1/2+x,y,-z
1/2-x,1/2+y,z
1/2+x,-y,z
loop_
_atom_site_type_symbol
_atom_site_label
_atom_site_fract_x
_atom_site_fract_y
_atom_site_fract_z
Si Si1 0.394527 0.250000 0.059958
Si Si2 0.363645 0.250000 0.741398
Si Si3 0.254263 0.750000 0.659221
Si Si4 0.000000 0.250000 0.783484
Si Si5 0.000000 0.463078 0.657751
Si Si6 0.250000 0.000000 0.000000
Si Si7 0.106293 0.542872 0.651597
Si Si8 0.323344 0.598413 0.800114
O O1 0.451517 0.250000 0.116872
O O2 0.366804 0.339688 0.129437
O O3 0.382936 0.250000 0.898465
O O4 0.301869 0.250000 0.727561
O O5 0.385199 0.344348 0.666724
O O6 0.250000 0.750000 0.500000
O O7 0.288994 0.660474 0.700519
O O8 0.000000 0.151545 0.691459
O O9 0.000000 0.500000 0.500000
O O10 0.052130 0.508944 0.711497
O O11 0.214656 0.065979 0.913179
O O12 0.108231 0.500000 0.500000
O O13 0.151387 0.491917 0.730573
#
# Coordination Sequence:
#
# PCOD9504670 Si02
#       8
#     8   8   8   4   8   4  16  16
#     4  11  24  41  68  96 133 182 220 278 329 423
#     4  12  26  43  63  98 139 170 228 275 338 401
#     4  11  23  40  66  96 129 175 223 286 335 404
#     4  12  22  48  72 106 138 182 230 272 354 408
#     4  10  24  43  72 103 131 173 223 279 335 405
#     4  12  24  38  62  90 136 186 220 284 320 414
#     4  11  24  43  68  99 132 173 221 286 341 403
#     4  11  22  40  64  94 131 175 230 265 347 394
#
# _framework density 19.702615000000002
#
# number of rings (size 3 to 8) (size 9 to 14) (size 15 to 20)
#    0.000    0.889    2.222    5.333    0.000    7.556 
#    0.000    3.333    0.000    0.000    0.000    0.000 
#    0.000    0.000    0.000    0.000    0.000    0.000 
#
# Total GULP energy -200975.569218 kJ/mol
# GULP energy per Si atom -5582.654701 kJ/mol
# Density = 1.965777 g / cm^3
# Si number density = 19.702615 Si / 1000 Ang^3
#
#
#
# Elastic Constant Matrix: (Units=GPa)
#
#
# Indices 1 2 3 4 5 6 
#
# 1 172.3952 73.0470 53.4499 0.0000 0.0000 0.0000
# 2 73.0470 183.8845 57.1919 0.0000 0.0000 0.0000
# 3 53.4499 57.1919 119.6981 0.0000 0.0000 0.0000
# 4 0.0000 0.0000 0.0000 30.7385 0.0000 0.0000
# 5 0.0000 0.0000 0.0000 0.0000 62.8614 0.0000
# 6 0.0000 0.0000 0.0000 0.0000 0.0000 41.6327
#
#
#
# Elastic Compliance Matrix: (Units=1/GPa)
#
#
# Indices 1 2 3 4 5 6 
#
# 1 0.007457 -0.002263 -0.002248 0.000000 0.000000 0.000000
# 2 -0.002263 0.007074 -0.002370 0.000000 0.000000 0.000000
# 3 -0.002248 -0.002370 0.010491 0.000000 0.000000 0.000000
# 4 0.000000 0.000000 0.000000 0.032532 0.000000 0.000000
# 5 0.000000 0.000000 0.000000 0.000000 0.015908 0.000000
# 6 0.000000 0.000000 0.000000 0.000000 0.000000 0.024020
#
#
# Mechanical properties :
#
#
# Convention : Reuss Voigt Hill
#
# Bulk Modulus (GPa) = 88.81369 93.70614 91.25992
# Shear Modulus (GPa) = 43.47978 46.53246 45.00612
#
# Velocity S-wave (km/s) = 4.70276 4.86505 4.78459
# Velocity P-wave (km/s) = 8.64077 8.90066 8.77168
#
# Compressibility (1/GPa) = 0.01125953
#
# Stress axis : x y z
#
# Youngs Moduli (GPa) = 134.11092 141.36183 95.32353
#
# Poissons Ratio (x) = 0.31986 0.21433
# Poissons Ratio (y) = 0.30346 0.22588
# Poissons Ratio (z) = 0.30155 0.33497
#
# Static dielectric constant tensor:
#      x y z
#    x 1.693410 0.000000 0.000000 
#    y 0.000000 1.667750 0.000000 
#    z 0.000000 0.000000 1.711910 
# 
# From -- ./inp_files/13404.got.cif
#   From: 2010.05.17/outbox.cif.g08.bks.cpg/sg67_7_cif.got.tgz:13404.got - 2010.06.03 18:28:57.
