data_PCOD9504504
_publ_section_title
;
Structure prediction by ZEFSAII (Michael W. Deem and Ramdas Pophale) SiO2 
 PCOD9504504
Probable space group: C M M A
;
_chemical_formula_sum "Si O2"
_cell_formula_units_Z 112
_cell_length_a 29.137541
_cell_length_b 14.503097
_cell_length_c 11.636473
_cell_angle_alpha 90.000000
_cell_angle_beta 90.000000
_cell_angle_gamma 90.000000
_cell_volume 4917.394096
_symmetry_space_group_name_H-M "C M M A"
_symmetry_group_IT_number 67
_symmetry_cell_setting 'orthorhombic'
loop_
_space_group_symop_operation_xyz
x,y,z
-x,1/2-y,z
x,-y,-z
-x,1/2+y,-z
-x,-y,-z
x,1/2+y,-z
-x,y,z
x,1/2-y,z
1/2+x,1/2+y,z
1/2-x,-y,z
1/2+x,1/2-y,-z
1/2-x,y,-z
1/2-x,1/2-y,-z
1/2+x,y,-z
1/2-x,1/2+y,z
1/2+x,-y,z
loop_
_atom_site_type_symbol
_atom_site_label
_atom_site_fract_x
_atom_site_fract_y
_atom_site_fract_z
Si Si1 0.552432 0.456953 0.785220
Si Si2 0.343323 0.651753 0.802279
Si Si3 0.097651 0.856242 0.571826
Si Si4 0.566608 0.646220 0.673241
Si Si5 0.204609 0.039535 0.185579
Si Si6 0.795189 0.100318 0.440391
Si Si7 0.122753 0.357080 0.060204
O O1 0.500000 0.422587 0.788058
O O2 0.581950 0.416990 0.678894
O O3 0.550120 0.566245 0.758276
O O4 0.581230 0.420565 0.894432
O O5 0.317136 0.750000 0.806429
O O6 0.380080 0.656361 0.702642
O O7 0.318698 0.556744 0.782196
O O8 0.370068 0.643526 0.923564
O O9 0.087132 0.750000 0.597275
O O10 0.067373 0.882118 0.460069
O O11 0.152675 0.862458 0.551973
O O12 0.547787 0.750000 0.687493
O O13 0.215280 0.090931 0.304688
O O14 0.169704 0.100346 0.111966
O O15 0.250000 0.000000 0.126075
O O16 0.750000 0.144462 0.500000
O O17 0.798351 0.000000 0.500000
O O18 0.116597 0.250000 0.097009
#
# Coordination Sequence:
#
# PCOD9504504 Si02
#       7
#    16  16  16  16  16  16  16
#     4  12  25  43  71 101 136 181 229 286 347 412
#     4  10  22  43  69  95 131 178 227 281 343 409
#     4  11  23  40  65  96 132 177 227 277 337 407
#     4  10  22  41  67  96 128 170 219 278 340 402
#     4  12  23  39  68  99 132 177 227 280 341 409
#     4  11  21  37  61  91 134 177 221 274 337 404
#     4  11  25  45  68  96 136 180 229 287 344 407
#
# _framework density 22.776289999999999
#
# number of rings (size 3 to 8) (size 9 to 14) (size 15 to 20)
#    0.000    1.000    4.286    3.000    0.000    4.571 
#    0.000    4.286    0.000    3.000    0.000    0.000 
#    0.000    0.000    0.000    0.000    0.000    0.000 
#
# Total GULP energy -312670.740481 kJ/mol
# GULP energy per Si atom -5583.406080 kJ/mol
# Density = 2.272445 g / cm^3
# Si number density = 22.776290 Si / 1000 Ang^3
#
#
#
# Elastic Constant Matrix: (Units=GPa)
#
#
# Indices 1 2 3 4 5 6 
#
# 1 112.4709 23.5829 11.8844 0.0000 0.0000 0.0000
# 2 23.5829 100.9545 9.8449 0.0000 0.0000 0.0000
# 3 11.8844 9.8449 86.5596 0.0000 0.0000 0.0000
# 4 0.0000 0.0000 0.0000 135.4989 0.0000 0.0000
# 5 0.0000 0.0000 0.0000 0.0000 -30.1469 0.0000
# 6 0.0000 0.0000 0.0000 0.0000 0.0000 -10.0569
#
#
#
# Elastic Compliance Matrix: (Units=1/GPa)
#
#
# Indices 1 2 3 4 5 6 
#
# 1 0.009444 -0.002103 -0.001057 0.000000 0.000000 0.000000
# 2 -0.002103 0.010485 -0.000904 0.000000 0.000000 0.000000
# 3 -0.001057 -0.000904 0.011801 0.000000 0.000000 0.000000
# 4 0.000000 0.000000 0.000000 0.007380 0.000000 0.000000
# 5 0.000000 0.000000 0.000000 0.000000 -0.033171 0.000000
# 6 0.000000 0.000000 0.000000 0.000000 0.000000 -0.099435
#
#
# Mechanical properties :
#
#
# Convention : Reuss Voigt Hill
#
# Bulk Modulus (GPa) = 42.37093 43.40104 42.88598
# Shear Modulus (GPa) = -64.51569 36.03722 -14.23924
#
# Velocity S-wave (km/s) = -5.32797 3.98203 -2.50307
# Velocity P-wave (km/s) = 4.38250 6.34341 3.24288
#
# Compressibility (1/GPa) = 0.02360109
#
# Stress axis : x y z
#
# Youngs Moduli (GPa) = 105.88878 95.37582 84.74071
#
# Poissons Ratio (x) = 0.20057 0.08961
# Poissons Ratio (y) = 0.22268 0.07659
# Poissons Ratio (z) = 0.11197 0.08620
#
# Static dielectric constant tensor:
#      x y z
#    x 1.931800 0.000000 0.000000 
#    y 0.000000 1.905300 0.000000 
#    z 0.000000 0.000000 1.831820 
# 
# From -- ./inp_files/18626.got.cif
#   From: 2010.05.17/outbox.cif.g08.bks.cpg/sg67_10_cif.got.tgz:18626.got - 2010.06.03 18:28:57.
