data_PCOD9504467
_publ_section_title
;
Structure prediction by ZEFSAII (Michael W. Deem and Ramdas Pophale) SiO2 
 PCOD9504467
Probable space group: C M M A
;
_chemical_formula_sum "Si O2"
_cell_formula_units_Z 116
_cell_length_a 14.019306
_cell_length_b 24.123080
_cell_length_c 17.679896
_cell_angle_alpha 90.000000
_cell_angle_beta 90.000000
_cell_angle_gamma 90.000000
_cell_volume 5979.143523
_symmetry_space_group_name_H-M "C M M A"
_symmetry_group_IT_number 67
_symmetry_cell_setting 'orthorhombic'
loop_
_space_group_symop_operation_xyz
x,y,z
-x,1/2-y,z
x,-y,-z
-x,1/2+y,-z
-x,-y,-z
x,1/2+y,-z
-x,y,z
x,1/2-y,z
1/2+x,1/2+y,z
1/2-x,-y,z
1/2+x,1/2-y,-z
1/2-x,y,-z
1/2-x,1/2-y,-z
1/2+x,y,-z
1/2-x,1/2+y,z
1/2+x,-y,z
loop_
_atom_site_type_symbol
_atom_site_label
_atom_site_fract_x
_atom_site_fract_y
_atom_site_fract_z
Si Si1 0.149171 0.666887 0.961959
Si Si2 0.773294 0.421832 0.413281
Si Si3 0.283000 0.941619 0.821595
Si Si4 0.611960 0.313644 0.630282
Si Si5 0.609813 0.441807 0.033993
Si Si6 0.611285 0.356773 0.798785
Si Si7 0.000000 0.750000 0.021706
Si Si8 0.114068 0.975643 0.332037
O O1 0.134077 0.679460 0.873413
O O2 0.250000 0.674653 0.000000
O O3 0.121398 0.602511 0.967805
O O4 0.080446 0.702209 0.013092
O O5 0.750000 0.435711 0.500000
O O6 0.824040 0.362393 0.405554
O O7 0.839471 0.467943 0.368986
O O8 0.668821 0.426496 0.375860
O O9 0.337934 0.916423 0.892777
O O10 0.193301 0.904328 0.796237
O O11 0.351125 0.961871 0.753038
O O12 0.250000 0.000000 0.853729
O O13 0.500000 0.321467 0.609785
O O14 0.638699 0.250000 0.611837
O O15 0.618416 0.323027 0.720847
O O16 0.500000 0.449094 0.055739
O O17 0.642071 0.500000 0.000000
O O18 0.500000 0.376653 0.803610
O O19 0.000000 0.977500 0.338095
#
# Coordination Sequence:
#
# PCOD9504467 Si02
#       8
#    16  16  16  16  16  16   4  16
#     4  12  24  41  64  88 123 165 215 276 330 380
#     4  11  23  41  65  97 132 166 207 254 310 379
#     4  12  22  37  62  90 125 166 209 257 315 384
#     4  10  22  40  67  96 127 165 215 271 323 372
#     4  11  24  40  60  89 124 164 206 259 322 385
#     4  11  22  39  65  90 124 165 214 268 322 375
#     4  12  26  44  62  86 120 164 228 274 332 390
#     4  11  22  40  64  94 130 170 206 251 310 378
#
# _framework density 19.400772
#
# number of rings (size 3 to 8) (size 9 to 14) (size 15 to 20)
#    0.000    0.828    5.517    2.690    0.966    5.241 
#    0.000    0.000    0.000    0.828    0.000    0.000 
#    0.000    0.000    0.000    0.000    0.000    0.000 
#
# Total GULP energy -322883.967612 kJ/mol
# GULP energy per Si atom -5566.964959 kJ/mol
# Density = 1.935661 g / cm^3
# Si number density = 19.400772 Si / 1000 Ang^3
#
#
#
# Elastic Constant Matrix: (Units=GPa)
#
#
# Indices 1 2 3 4 5 6 
#
# 1 162.1015 55.7859 36.4937 0.0000 0.0000 0.0000
# 2 55.7859 112.6574 5.5252 0.0000 0.0000 0.0000
# 3 36.4937 5.5252 94.3710 0.0000 0.0000 0.0000
# 4 0.0000 0.0000 0.0000 -18.0039 0.0000 0.0000
# 5 0.0000 0.0000 0.0000 0.0000 0.8560 0.0000
# 6 0.0000 0.0000 0.0000 0.0000 0.0000 32.2272
#
#
#
# Elastic Compliance Matrix: (Units=1/GPa)
#
#
# Indices 1 2 3 4 5 6 
#
# 1 0.008172 -0.003903 -0.002932 0.000000 0.000000 0.000000
# 2 -0.003903 0.010766 0.000879 0.000000 0.000000 0.000000
# 3 -0.002932 0.000879 0.011679 0.000000 0.000000 0.000000
# 4 0.000000 0.000000 0.000000 -0.055544 0.000000 0.000000
# 5 0.000000 0.000000 0.000000 0.000000 1.168253 0.000000
# 6 0.000000 0.000000 0.000000 0.000000 0.000000 0.031030
#
#
# Mechanical properties :
#
#
# Convention : Reuss Voigt Hill
#
# Bulk Modulus (GPa) = 53.46007 62.74884 58.10445
# Shear Modulus (GPa) = 4.19286 21.10421 12.64853
#
# Velocity S-wave (km/s) = 1.47169 3.30176 2.55612
# Velocity P-wave (km/s) = 5.52298 6.85195 6.22304
#
# Compressibility (1/GPa) = 0.01870555
#
# Stress axis : x y z
#
# Youngs Moduli (GPa) = 122.36696 92.88488 85.62584
#
# Poissons Ratio (x) = 0.36252 0.25103
# Poissons Ratio (y) = 0.47759 -0.07526
# Poissons Ratio (z) = 0.35874 -0.08164
#
# Static dielectric constant tensor:
#      x y z
#    x 1.642640 0.000000 0.000000 
#    y 0.000000 1.556740 0.000000 
#    z 0.000000 0.000000 1.763910 
# 
# From -- ./inp_files/33825.got.cif
#   From: 2010.05.17/outbox.cif.g08.bks.cpg/sg67_17_cif.got.tgz:33825.got - 2010.06.03 18:28:57.
