data_PCOD9504985
_publ_section_title
;
Structure prediction by ZEFSAII (Michael W. Deem and Ramdas Pophale) SiO2 
 PCOD9504985
Probable space group: C M M A
;
_chemical_formula_sum "Si O2"
_cell_formula_units_Z 80
_cell_length_a 16.432346
_cell_length_b 26.450512
_cell_length_c 8.788869
_cell_angle_alpha 90.000000
_cell_angle_beta 90.000000
_cell_angle_gamma 90.000000
_cell_volume 3820.028871
_symmetry_space_group_name_H-M "C M M A"
_symmetry_group_IT_number 67
_symmetry_cell_setting 'orthorhombic'
loop_
_space_group_symop_operation_xyz
x,y,z
-x,1/2-y,z
x,-y,-z
-x,1/2+y,-z
-x,-y,-z
x,1/2+y,-z
-x,y,z
x,1/2-y,z
1/2+x,1/2+y,z
1/2-x,-y,z
1/2+x,1/2-y,-z
1/2-x,y,-z
1/2-x,1/2-y,-z
1/2+x,y,-z
1/2-x,1/2+y,z
1/2+x,-y,z
loop_
_atom_site_type_symbol
_atom_site_label
_atom_site_fract_x
_atom_site_fract_y
_atom_site_fract_z
Si Si1 0.404058 0.308509 0.726299
Si Si2 0.408411 0.596244 0.800352
Si Si3 0.345374 0.006615 0.670170
Si Si4 0.901931 0.305544 0.636383
Si Si5 0.832403 0.398663 0.105304
O O1 0.500000 0.321825 0.753402
O O2 0.393839 0.250000 0.771952
O O3 0.391190 0.311515 0.544294
O O4 0.341578 0.345659 0.808495
O O5 0.500000 0.595010 0.743114
O O6 0.372570 0.542091 0.762881
O O7 0.368022 0.645287 0.721878
O O8 0.402608 0.602232 0.979489
O O9 0.382638 0.000000 0.500000
O O10 0.250000 0.000000 0.651287
O O11 0.351739 0.057574 0.770563
O O12 0.869585 0.250000 0.682224
O O13 0.000000 0.303844 0.663883
O O14 0.750000 0.405442 0.000000
#
# Coordination Sequence:
#
# PCOD9504985 Si02
#       5
#    16  16  16  16  16
#     4   9  19  38  63  89 122 165 210 254 299 357
#     4  11  23  38  63  95 122 157 203 254 311 367
#     4  11  24  43  64  84 118 165 207 251 309 371
#     4   8  16  35  62  92 125 159 200 251 301 352
#     4  12  24  39  60  88 126 164 201 253 314 368
#
# _framework density 20.942250999999999
#
# number of rings (size 3 to 8) (size 9 to 14) (size 15 to 20)
#    0.000    1.800    2.000    3.600    0.000    4.000 
#    0.000    2.000    0.000    2.400    0.000    0.000 
#    0.000    0.000    0.000    0.000    0.000    0.000 
#
# Total GULP energy -222884.397429 kJ/mol
# GULP energy per Si atom -5572.109936 kJ/mol
# Density = 2.089459 g / cm^3
# Si number density = 20.942251 Si / 1000 Ang^3
#
#
#
# Elastic Constant Matrix: (Units=GPa)
#
#
# Indices 1 2 3 4 5 6 
#
# 1 34.0817 35.1038 10.7479 0.0000 0.0000 0.0000
# 2 35.1038 168.3457 74.4025 0.0000 0.0000 0.0000
# 3 10.7479 74.4025 84.4947 0.0000 0.0000 0.0000
# 4 0.0000 0.0000 0.0000 241.0892 0.0000 0.0000
# 5 0.0000 0.0000 0.0000 0.0000 27.4731 0.0000
# 6 0.0000 0.0000 0.0000 0.0000 0.0000 7.6233
#
#
#
# Elastic Compliance Matrix: (Units=1/GPa)
#
#
# Indices 1 2 3 4 5 6 
#
# 1 0.037992 -0.009473 0.003509 0.000000 0.000000 0.000000
# 2 -0.009473 0.012087 -0.009438 0.000000 0.000000 0.000000
# 3 0.003509 -0.009438 0.019700 0.000000 0.000000 0.000000
# 4 0.000000 0.000000 0.000000 0.004148 0.000000 0.000000
# 5 0.000000 0.000000 0.000000 0.000000 0.036399 0.000000
# 6 0.000000 0.000000 0.000000 0.000000 0.000000 0.131178
#
#
# Mechanical properties :
#
#
# Convention : Reuss Voigt Hill
#
# Bulk Modulus (GPa) = 25.65838 58.60337 42.13088
# Shear Modulus (GPa) = 17.52552 66.34831 41.93692
#
# Velocity S-wave (km/s) = 2.89597 5.63474 4.47979
# Velocity P-wave (km/s) = 4.84363 8.38915 6.84977
#
# Compressibility (1/GPa) = 0.03897362
#
# Stress axis : x y z
#
# Youngs Moduli (GPa) = 26.32153 82.73526 50.76263
#
# Poissons Ratio (x) = 0.78374 -0.17811
# Poissons Ratio (y) = 0.24934 0.47910
# Poissons Ratio (z) = -0.09236 0.78086
#
# Static dielectric constant tensor:
#      x y z
#    x 1.790170 0.000000 0.000000 
#    y 0.000000 1.915260 0.000000 
#    z 0.000000 0.000000 1.796730 
# 
# From -- ./inp_files/9946.got.cif
#   From: 2010.05.17/outbox.cif.g08.bks.cpg/sg67_5_cif.got.tgz:9946.got - 2010.06.03 18:28:57.
