data_PCOD9504690
_publ_section_title
;
Structure prediction by ZEFSAII (Michael W. Deem and Ramdas Pophale) SiO2 
 PCOD9504690
Probable space group: C M M A
;
_chemical_formula_sum "Si O2"
_cell_formula_units_Z 64
_cell_length_a 18.183447
_cell_length_b 15.002671
_cell_length_c 10.641178
_cell_angle_alpha 90.000000
_cell_angle_beta 90.000000
_cell_angle_gamma 90.000000
_cell_volume 2902.916263
_symmetry_space_group_name_H-M "C M M A"
_symmetry_group_IT_number 67
_symmetry_cell_setting 'orthorhombic'
loop_
_space_group_symop_operation_xyz
x,y,z
-x,1/2-y,z
x,-y,-z
-x,1/2+y,-z
-x,-y,-z
x,1/2+y,-z
-x,y,z
x,1/2-y,z
1/2+x,1/2+y,z
1/2-x,-y,z
1/2+x,1/2-y,-z
1/2-x,y,-z
1/2-x,1/2-y,-z
1/2+x,y,-z
1/2-x,1/2+y,z
1/2+x,-y,z
loop_
_atom_site_type_symbol
_atom_site_label
_atom_site_fract_x
_atom_site_fract_y
_atom_site_fract_z
Si Si1 0.294998 0.250000 0.869819
Si Si2 0.913312 0.250000 0.946739
Si Si3 0.411696 0.417616 0.224867
Si Si4 0.317514 0.932560 0.263767
Si Si5 0.660667 0.854182 0.514262
O O1 0.285571 0.159076 0.792773
O O2 0.250000 0.250000 0.000000
O O3 0.378585 0.250000 0.916947
O O4 0.891198 0.162454 0.868798
O O5 0.000000 0.250000 0.953664
O O6 0.500000 0.423005 0.233637
O O7 0.374321 0.509903 0.181536
O O8 0.376007 0.392209 0.360119
O O9 0.361713 0.906659 0.389512
O O10 0.250000 0.000000 0.287278
O O11 0.642049 0.750000 0.507442
O O12 0.750000 0.860445 0.500000
#
# Coordination Sequence:
#
# PCOD9504690 Si02
#       5
#     8   8  16  16  16
#     4  12  28  45  67  98 133 177 232 288 327 391
#     4  10  24  47  69  93 131 177 226 277 333 386
#     4  11  24  43  70 101 134 177 224 273 336 410
#     4  12  25  43  66 101 135 176 220 278 338 398
#     4  11  22  39  69  99 136 175 212 266 340 410
#
# _framework density 22.046794999999999
#
# number of rings (size 3 to 8) (size 9 to 14) (size 15 to 20)
#    0.000    0.750    5.000    2.250    0.000    6.500 
#    0.000    2.500    0.000    0.000    0.000    0.000 
#    0.000    0.000    0.000    0.000    0.000    0.000 
#
# Total GULP energy -178861.623409 kJ/mol
# GULP energy per Si atom -5589.425732 kJ/mol
# Density = 2.199662 g / cm^3
# Si number density = 22.046795 Si / 1000 Ang^3
#
#
#
# Elastic Constant Matrix: (Units=GPa)
#
#
# Indices 1 2 3 4 5 6 
#
# 1 65.3698 29.3151 1.7440 0.0000 0.0000 0.0000
# 2 29.3151 176.2074 25.4651 0.0000 0.0000 0.0000
# 3 1.7440 25.4651 53.0694 0.0000 0.0000 0.0000
# 4 0.0000 0.0000 0.0000 -5.3021 0.0000 0.0000
# 5 0.0000 0.0000 0.0000 0.0000 33.9453 0.0000
# 6 0.0000 0.0000 0.0000 0.0000 0.0000 30.4372
#
#
#
# Elastic Compliance Matrix: (Units=1/GPa)
#
#
# Indices 1 2 3 4 5 6 
#
# 1 0.016565 -0.002877 0.000836 0.000000 0.000000 0.000000
# 2 -0.002877 0.006598 -0.003071 0.000000 0.000000 0.000000
# 3 0.000836 -0.003071 0.020290 0.000000 0.000000 0.000000
# 4 0.000000 0.000000 0.000000 -0.188605 0.000000 0.000000
# 5 0.000000 0.000000 0.000000 0.000000 0.029459 0.000000
# 6 0.000000 0.000000 0.000000 0.000000 0.000000 0.032855
#
#
# Mechanical properties :
#
#
# Convention : Reuss Voigt Hill
#
# Bulk Modulus (GPa) = 30.09469 45.29944 37.69706
# Shear Modulus (GPa) = -81.24917 27.69092 -26.77912
#
# Velocity S-wave (km/s) = -6.07726 3.54786 -3.48896
# Velocity P-wave (km/s) = 5.96356 6.11348 0.95147
#
# Compressibility (1/GPa) = 0.03322845
#
# Stress axis : x y z
#
# Youngs Moduli (GPa) = 60.36696 151.57071 49.28650
#
# Poissons Ratio (x) = 0.43603 -0.04120
# Poissons Ratio (y) = 0.17366 0.15137
# Poissons Ratio (z) = -0.05047 0.46552
#
# Static dielectric constant tensor:
#      x y z
#    x 1.840850 0.000000 0.000000 
#    y 0.000000 1.841170 0.000000 
#    z 0.000000 0.000000 1.836900 
# 
# From -- ./inp_files/18997.got.cif
#   From: 2010.05.17/outbox.cif.g08.bks.cpg/sg67_10_cif.got.tgz:18997.got - 2010.06.03 18:28:57.
