data_PCOD9504139
_publ_section_title
;
Structure prediction by ZEFSAII (Michael W. Deem and Ramdas Pophale) SiO2 
 PCOD9504139
Probable space group: C M M A
;
_chemical_formula_sum "Si O2"
_cell_formula_units_Z 96
_cell_length_a 21.840904
_cell_length_b 16.401418
_cell_length_c 13.177123
_cell_angle_alpha 90.000000
_cell_angle_beta 90.000000
_cell_angle_gamma 90.000000
_cell_volume 4720.332667
_symmetry_space_group_name_H-M "C M M A"
_symmetry_group_IT_number 67
_symmetry_cell_setting 'orthorhombic'
loop_
_space_group_symop_operation_xyz
x,y,z
-x,1/2-y,z
x,-y,-z
-x,1/2+y,-z
-x,-y,-z
x,1/2+y,-z
-x,y,z
x,1/2-y,z
1/2+x,1/2+y,z
1/2-x,-y,z
1/2+x,1/2-y,-z
1/2-x,y,-z
1/2-x,1/2-y,-z
1/2+x,y,-z
1/2-x,1/2+y,z
1/2+x,-y,z
loop_
_atom_site_type_symbol
_atom_site_label
_atom_site_fract_x
_atom_site_fract_y
_atom_site_fract_z
Si Si1 0.629382 0.899569 0.728939
Si Si2 0.430717 0.346400 0.072382
Si Si3 0.335322 0.551643 0.402222
Si Si4 0.929934 0.155956 0.522865
Si Si5 0.813873 0.407208 0.043191
Si Si6 0.233894 0.653789 0.750304
O O1 0.585006 0.895390 0.825008
O O2 0.600823 0.852467 0.633344
O O3 0.693811 0.860802 0.763493
O O4 0.644122 0.988154 0.683832
O O5 0.500000 0.364984 0.037204
O O6 0.428187 0.250000 0.096540
O O7 0.376307 0.366163 0.994163
O O8 0.315036 0.500000 0.500000
O O9 0.392499 0.602882 0.443268
O O10 0.285540 0.612404 0.355584
O O11 0.928288 0.250000 0.492138
O O12 0.000000 0.128409 0.530102
O O13 0.803141 0.394173 0.162325
O O14 0.816082 0.500000 0.000000
O O15 0.750000 0.370472 0.000000
O O16 0.220514 0.750000 0.753377
#
# Coordination Sequence:
#
# PCOD9504139 Si02
#       6
#    16  16  16  16  16  16
#     4  11  22  37  61  91 123 164 211 266 322 385
#     4  11  23  40  63  94 130 167 211 265 324 390
#     4  10  24  41  61  89 125 168 211 263 325 390
#     4  10  21  39  61  87 122 164 212 264 322 389
#     4  11  24  42  68  95 129 173 215 269 327 393
#     4  12  24  40  66  96 128 166 218 271 328 387
#
# _framework density 20.33755
#
# number of rings (size 3 to 8) (size 9 to 14) (size 15 to 20)
#    0.000    1.167    1.667    4.500    2.333   10.667 
#    0.000    5.000    0.000    3.000    0.000    0.000 
#    0.000    0.000    0.000    0.000    0.000    0.000 
#
# Total GULP energy -268261.478995 kJ/mol
# GULP energy per Si atom -5588.780812 kJ/mol
# Density = 2.029126 g / cm^3
# Si number density = 20.337550 Si / 1000 Ang^3
#
#
#
# Elastic Constant Matrix: (Units=GPa)
#
#
# Indices 1 2 3 4 5 6 
#
# 1 147.4485 41.9112 43.9370 0.0000 0.0000 0.0000
# 2 41.9112 68.0448 34.2024 0.0000 0.0000 0.0000
# 3 43.9370 34.2024 87.3624 0.0000 0.0000 0.0000
# 4 0.0000 0.0000 0.0000 11.7770 0.0000 0.0000
# 5 0.0000 0.0000 0.0000 0.0000 31.6134 0.0000
# 6 0.0000 0.0000 0.0000 0.0000 0.0000 72.3381
#
#
#
# Elastic Compliance Matrix: (Units=1/GPa)
#
#
# Indices 1 2 3 4 5 6 
#
# 1 0.008758 -0.003960 -0.002855 0.000000 0.000000 0.000000
# 2 -0.003960 0.020087 -0.005873 0.000000 0.000000 0.000000
# 3 -0.002855 -0.005873 0.015181 0.000000 0.000000 0.000000
# 4 0.000000 0.000000 0.000000 0.084911 0.000000 0.000000
# 5 0.000000 0.000000 0.000000 0.000000 0.031632 0.000000
# 6 0.000000 0.000000 0.000000 0.000000 0.000000 0.013824
#
#
# Mechanical properties :
#
#
# Convention : Reuss Voigt Hill
#
# Bulk Modulus (GPa) = 53.61116 60.32854 56.96985
# Shear Modulus (GPa) = 24.27364 35.33271 29.80317
#
# Velocity S-wave (km/s) = 3.45851 4.17263 3.83224
# Velocity P-wave (km/s) = 6.50894 7.27616 6.90322
#
# Compressibility (1/GPa) = 0.01865283
#
# Stress axis : x y z
#
# Youngs Moduli (GPa) = 114.17985 49.78363 65.87040
#
# Poissons Ratio (x) = 0.19712 0.18803
# Poissons Ratio (y) = 0.45211 0.38683
# Poissons Ratio (z) = 0.32593 0.29236
#
# Static dielectric constant tensor:
#      x y z
#    x 1.719990 0.000000 0.000000 
#    y 0.000000 1.740480 0.000000 
#    z 0.000000 0.000000 1.730830 
# 
# From -- ./inp_files/21952.got.cif
#   From: 2010.05.17/outbox.cif.g08.bks.cpg/sg67_11_cif.got.tgz:21952.got - 2010.06.03 18:28:57.
