data_PCOD9504770
_publ_section_title
;
Structure prediction by ZEFSAII (Michael W. Deem and Ramdas Pophale) SiO2 
 PCOD9504770
Probable space group: C M M A
;
_chemical_formula_sum "Si O2"
_cell_formula_units_Z 80
_cell_length_a 8.720459
_cell_length_b 17.770807
_cell_length_c 27.235041
_cell_angle_alpha 90.000000
_cell_angle_beta 90.000000
_cell_angle_gamma 90.000000
_cell_volume 4220.603242
_symmetry_space_group_name_H-M "C M M A"
_symmetry_group_IT_number 67
_symmetry_cell_setting 'orthorhombic'
loop_
_space_group_symop_operation_xyz
x,y,z
-x,1/2-y,z
x,-y,-z
-x,1/2+y,-z
-x,-y,-z
x,1/2+y,-z
-x,y,z
x,1/2-y,z
1/2+x,1/2+y,z
1/2-x,-y,z
1/2+x,1/2-y,-z
1/2-x,y,-z
1/2-x,1/2-y,-z
1/2+x,y,-z
1/2-x,1/2+y,z
1/2+x,-y,z
loop_
_atom_site_type_symbol
_atom_site_label
_atom_site_fract_x
_atom_site_fract_y
_atom_site_fract_z
Si Si1 0.322282 0.339833 0.646651
Si Si2 0.684033 0.414866 0.843084
Si Si3 0.817086 0.915388 0.257499
Si Si4 0.183441 0.085182 0.049597
Si Si5 0.316896 0.084260 0.448736
O O1 0.500000 0.365121 0.645877
O O2 0.318793 0.250000 0.647195
O O3 0.241941 0.371139 0.695295
O O4 0.238484 0.369786 0.598236
O O5 0.500000 0.417833 0.838321
O O6 0.750000 0.500000 0.844401
O O7 0.755307 0.380857 0.793785
O O8 0.721154 0.380833 0.896770
O O9 0.000000 0.918893 0.256347
O O10 0.750000 0.000000 0.260987
O O11 0.000000 0.080934 0.045588
O O12 0.250000 0.000000 0.050745
O O13 0.250000 0.121318 0.000000
O O14 0.500000 0.081207 0.451354
O O15 0.250000 0.115306 0.500000
O O16 0.250000 0.000000 0.443741
#
# Coordination Sequence:
#
# PCOD9504770 Si02
#       5
#    16  16  16  16  16
#     4  11  24  41  59  80 109 143 178 218 265 314
#     4   9  16  26  40  61  89 123 165 209 255 306
#     4  11  21  34  54  77 103 136 176 220 264 313
#     4   9  15  21  32  51  80 118 157 199 247 303
#     4  11  22  39  63  89 117 146 181 219 257 305
#
# _framework density 18.954636000000001
#
# number of rings (size 3 to 8) (size 9 to 14) (size 15 to 20)
#    0.000    1.800    0.000    8.400    0.000    4.400 
#    0.000    0.000    0.000    0.000    0.000    0.000 
#    0.000    0.800    0.000    2.600    0.000    9.800 
#
# Total GULP energy -223212.930242 kJ/mol
# GULP energy per Si atom -5580.323256 kJ/mol
# Density = 1.891149 g / cm^3
# Si number density = 18.954636 Si / 1000 Ang^3
#
#
#
# Elastic Constant Matrix: (Units=GPa)
#
#
# Indices 1 2 3 4 5 6 
#
# 1 172.9765 23.3844 95.0629 0.0000 0.0000 0.0000
# 2 23.3844 17.4071 37.4533 0.0000 0.0000 0.0000
# 3 95.0629 37.4533 233.7158 0.0000 0.0000 0.0000
# 4 0.0000 0.0000 0.0000 -9.7437 0.0000 0.0000
# 5 0.0000 0.0000 0.0000 0.0000 89.6771 0.0000
# 6 0.0000 0.0000 0.0000 0.0000 0.0000 13.5541
#
#
#
# Elastic Compliance Matrix: (Units=1/GPa)
#
#
# Indices 1 2 3 4 5 6 
#
# 1 0.007783 -0.005562 -0.002274 0.000000 0.000000 0.000000
# 2 -0.005562 0.091655 -0.012426 0.000000 0.000000 0.000000
# 3 -0.002274 -0.012426 0.007195 0.000000 0.000000 0.000000
# 4 0.000000 0.000000 0.000000 -0.102631 0.000000 0.000000
# 5 0.000000 0.000000 0.000000 0.000000 0.011151 0.000000
# 6 0.000000 0.000000 0.000000 0.000000 0.000000 0.073778
#
#
# Mechanical properties :
#
#
# Convention : Reuss Voigt Hill
#
# Bulk Modulus (GPa) = 15.12651 81.76674 48.44662
# Shear Modulus (GPa) = 33.00506 36.57742 34.79124
#
# Velocity S-wave (km/s) = 4.17737 4.39764 4.28892
# Velocity P-wave (km/s) = 5.59151 8.30767 7.08105
#
# Compressibility (1/GPa) = 0.06610912
#
# Stress axis : x y z
#
# Youngs Moduli (GPa) = 128.48551 10.91049 138.98522
#
# Poissons Ratio (x) = 0.06068 0.31611
# Poissons Ratio (y) = 0.71463 1.72697
# Poissons Ratio (z) = 0.29223 0.13557
#
# Static dielectric constant tensor:
#      x y z
#    x 1.636260 0.000000 0.000000 
#    y 0.000000 1.617790 0.000000 
#    z 0.000000 0.000000 1.717600 
# 
# From -- ./inp_files/43292.got.cif
#   From: 2010.05.17/outbox.cif.g08.bks.cpg/sg67_22_cif.got.tgz:43292.got - 2010.06.03 18:28:57.
