data_PCOD9504835
_publ_section_title
;
Structure prediction by ZEFSAII (Michael W. Deem and Ramdas Pophale) SiO2 
 PCOD9504835
Probable space group: C M M A
;
_chemical_formula_sum "Si O2"
_cell_formula_units_Z 64
_cell_length_a 27.290195
_cell_length_b 14.196230
_cell_length_c 8.746466
_cell_angle_alpha 90.000000
_cell_angle_beta 90.000000
_cell_angle_gamma 90.000000
_cell_volume 3388.537359
_symmetry_space_group_name_H-M "C M M A"
_symmetry_group_IT_number 67
_symmetry_cell_setting 'orthorhombic'
loop_
_space_group_symop_operation_xyz
x,y,z
-x,1/2-y,z
x,-y,-z
-x,1/2+y,-z
-x,-y,-z
x,1/2+y,-z
-x,y,z
x,1/2-y,z
1/2+x,1/2+y,z
1/2-x,-y,z
1/2+x,1/2-y,-z
1/2-x,y,-z
1/2-x,1/2-y,-z
1/2+x,y,-z
1/2-x,1/2+y,z
1/2+x,-y,z
loop_
_atom_site_type_symbol
_atom_site_label
_atom_site_fract_x
_atom_site_fract_y
_atom_site_fract_z
Si Si1 0.610890 0.644047 0.107123
Si Si2 0.205713 0.357564 0.888770
Si Si3 0.554917 0.636681 0.811657
Si Si4 0.642195 0.023176 0.324707
O O1 0.601304 0.750000 0.164151
O O2 0.624329 0.570116 0.236158
O O3 0.658182 0.646883 0.996990
O O4 0.568429 0.614211 0.988674
O O5 0.215472 0.250000 0.832755
O O6 0.189463 0.429441 0.756868
O O7 0.250000 0.385764 0.000000
O O8 0.500000 0.605102 0.774264
O O9 0.557168 0.750000 0.801612
O O10 0.596670 0.594062 0.703576
O O11 0.651073 0.000000 0.500000
#
# Coordination Sequence:
#
# PCOD9504835 Si02
#       4
#    16  16  16  16
#     4   9  19  34  52  76 105 142 188 231 270 320
#     4   9  18  36  60  79 100 138 187 232 273 325
#     4   9  18  35  58  80 105 144 194 238 272 320
#     4  11  22  33  52  83 117 146 175 225 290 345
#
# _framework density 18.887205000000002
#
# number of rings (size 3 to 8) (size 9 to 14) (size 15 to 20)
#    0.000    2.500    0.000    5.250    0.000    6.500 
#    0.000    2.500    0.000    7.500    0.000    0.000 
#    0.000    0.000    0.000    0.000    0.000    0.000 
#
# Total GULP energy -178447.055883 kJ/mol
# GULP energy per Si atom -5576.470496 kJ/mol
# Density = 1.884422 g / cm^3
# Si number density = 18.887205 Si / 1000 Ang^3
#
#
#
# Elastic Constant Matrix: (Units=GPa)
#
#
# Indices 1 2 3 4 5 6 
#
# 1 98.2465 27.5680 40.6124 0.0000 0.0000 0.0000
# 2 27.5680 100.4893 57.7487 0.0000 0.0000 0.0000
# 3 40.6124 57.7487 118.0710 0.0000 0.0000 0.0000
# 4 0.0000 0.0000 0.0000 -9.4258 0.0000 0.0000
# 5 0.0000 0.0000 0.0000 0.0000 16.0905 0.0000
# 6 0.0000 0.0000 0.0000 0.0000 0.0000 16.3440
#
#
#
# Elastic Compliance Matrix: (Units=1/GPa)
#
#
# Indices 1 2 3 4 5 6 
#
# 1 0.011982 -0.001278 -0.003497 0.000000 0.000000 0.000000
# 2 -0.001278 0.013978 -0.006397 0.000000 0.000000 0.000000
# 3 -0.003497 -0.006397 0.012801 0.000000 0.000000 0.000000
# 4 0.000000 0.000000 0.000000 -0.106092 0.000000 0.000000
# 5 0.000000 0.000000 0.000000 0.000000 0.062149 0.000000
# 6 0.000000 0.000000 0.000000 0.000000 0.000000 0.061185
#
#
# Mechanical properties :
#
#
# Convention : Reuss Voigt Hill
#
# Bulk Modulus (GPa) = 60.90711 63.18500 62.04605
# Shear Modulus (GPa) = 59.65255 17.32691 38.48973
#
# Velocity S-wave (km/s) = 5.62602 3.03213 4.51918
# Velocity P-wave (km/s) = 8.63254 6.76645 7.75582
#
# Compressibility (1/GPa) = 0.01641845
#
# Stress axis : x y z
#
# Youngs Moduli (GPa) = 83.45560 71.54000 78.11849
#
# Poissons Ratio (x) = 0.09142 0.27314
# Poissons Ratio (y) = 0.10664 0.49974
# Poissons Ratio (z) = 0.29181 0.45766
#
# Static dielectric constant tensor:
#      x y z
#    x 1.685920 0.000000 0.000000 
#    y 0.000000 1.721970 0.000000 
#    z 0.000000 0.000000 1.623570 
# 
# From -- ./inp_files/8421.got.cif
#   From: 2010.05.17/outbox.cif.g08.bks.cpg/sg67_5_cif.got.tgz:8421.got - 2010.06.03 18:28:57.
