data_PCOD9504298
_publ_section_title
;
Structure prediction by ZEFSAII (Michael W. Deem and Ramdas Pophale) SiO2 
 PCOD9504298
Probable space group: C M M A
;
_chemical_formula_sum "Si O2"
_cell_formula_units_Z 68
_cell_length_a 26.176112
_cell_length_b 20.299451
_cell_length_c 5.312448
_cell_angle_alpha 90.000000
_cell_angle_beta 90.000000
_cell_angle_gamma 90.000000
_cell_volume 2822.826103
_symmetry_space_group_name_H-M "C M M A"
_symmetry_group_IT_number 67
_symmetry_cell_setting 'orthorhombic'
loop_
_space_group_symop_operation_xyz
x,y,z
-x,1/2-y,z
x,-y,-z
-x,1/2+y,-z
-x,-y,-z
x,1/2+y,-z
-x,y,z
x,1/2-y,z
1/2+x,1/2+y,z
1/2-x,-y,z
1/2+x,1/2-y,-z
1/2-x,y,-z
1/2-x,1/2-y,-z
1/2+x,y,-z
1/2-x,1/2+y,z
1/2+x,-y,z
loop_
_atom_site_type_symbol
_atom_site_label
_atom_site_fract_x
_atom_site_fract_y
_atom_site_fract_z
Si Si1 0.196914 0.178861 0.348828
Si Si2 0.441158 0.075786 0.922707
Si Si3 0.000000 0.750000 0.459242
Si Si4 0.692592 0.029732 0.757321
Si Si5 0.908431 0.642713 0.423822
O O1 0.193733 0.250000 0.211284
O O2 0.250000 0.178765 0.500000
O O3 0.196301 0.108160 0.213077
O O4 0.147124 0.173605 0.526157
O O5 0.500000 0.100339 0.918692
O O6 0.412537 0.114660 0.143672
O O7 0.417590 0.089982 0.649139
O O8 0.443541 0.000000 0.000000
O O9 0.954705 0.693552 0.455911
O O10 0.670365 0.000000 0.500000
O O11 0.750000 0.000000 0.755167
O O12 0.665848 0.000000 0.000000
#
# Coordination Sequence:
#
# PCOD9504298 Si02
#       5
#    16  16   4  16  16
#     4  11  25  49  74 112 155 198 251 308 375 444
#     4  11  24  47  75 109 147 188 248 314 375 440
#     4  12  24  50  72 110 140 198 252 302 372 450
#     4  10  21  44  71  98 138 194 244 294 351 435
#     4  12  26  46  77 107 146 197 241 310 370 448
#
# _framework density 24.089334000000001
#
# number of rings (size 3 to 8) (size 9 to 14) (size 15 to 20)
#    0.000    0.941    5.882    0.706    0.000    8.471 
#    0.000    5.882    0.000    0.000    0.000    0.000 
#    0.000    0.000    0.000    0.000    0.000    0.000 
#
# Total GULP energy -189667.435231 kJ/mol
# GULP energy per Si atom -5578.453977 kJ/mol
# Density = 2.403451 g / cm^3
# Si number density = 24.089334 Si / 1000 Ang^3
#
#
#
# Elastic Constant Matrix: (Units=GPa)
#
#
# Indices 1 2 3 4 5 6 
#
# 1 201.2438 22.4114 13.5105 0.0000 0.0000 0.0000
# 2 22.4114 199.0773 34.4467 0.0000 0.0000 0.0000
# 3 13.5105 34.4467 114.8399 0.0000 0.0000 0.0000
# 4 0.0000 0.0000 0.0000 132.7614 0.0000 0.0000
# 5 0.0000 0.0000 0.0000 0.0000 8.1949 0.0000
# 6 0.0000 0.0000 0.0000 0.0000 0.0000 90.5417
#
#
#
# Elastic Compliance Matrix: (Units=1/GPa)
#
#
# Indices 1 2 3 4 5 6 
#
# 1 0.005054 -0.000492 -0.000447 0.000000 0.000000 0.000000
# 2 -0.000492 0.005346 -0.001546 0.000000 0.000000 0.000000
# 3 -0.000447 -0.001546 0.009224 0.000000 0.000000 0.000000
# 4 0.000000 0.000000 0.000000 0.007532 0.000000 0.000000
# 5 0.000000 0.000000 0.000000 0.000000 0.122027 0.000000
# 6 0.000000 0.000000 0.000000 0.000000 0.000000 0.011045
#
#
# Mechanical properties :
#
#
# Convention : Reuss Voigt Hill
#
# Bulk Modulus (GPa) = 68.23594 72.87757 70.55676
# Shear Modulus (GPa) = 29.39765 75.95241 52.67503
#
# Velocity S-wave (km/s) = 3.49715 5.62120 4.68124
# Velocity P-wave (km/s) = 6.68539 8.51171 7.65323
#
# Compressibility (1/GPa) = 0.01465503
#
# Stress axis : x y z
#
# Youngs Moduli (GPa) = 197.86858 187.05669 108.41258
#
# Poissons Ratio (x) = 0.09195 0.04847
# Poissons Ratio (y) = 0.09727 0.16758
# Poissons Ratio (z) = 0.08847 0.28914
#
# Static dielectric constant tensor:
#      x y z
#    x 1.970290 0.000000 0.000000 
#    y 0.000000 1.933630 0.000000 
#    z 0.000000 0.000000 2.012300 
# 
# From -- ./inp_files/4644.got.cif
#   From: 2010.05.17/outbox.cif.g08.bks.cpg/sg67_3_cif.got.tgz:4644.got - 2010.06.03 18:28:57.
