data_PCOD9504028
_publ_section_title
;
Structure prediction by ZEFSAII (Michael W. Deem and Ramdas Pophale) SiO2 
 PCOD9504028
Probable space group: C M M A
;
_chemical_formula_sum "Si O2"
_cell_formula_units_Z 72
_cell_length_a 8.913375
_cell_length_b 25.690532
_cell_length_c 16.903899
_cell_angle_alpha 90.000000
_cell_angle_beta 90.000000
_cell_angle_gamma 90.000000
_cell_volume 3870.812771
_symmetry_space_group_name_H-M "C M M A"
_symmetry_group_IT_number 67
_symmetry_cell_setting 'orthorhombic'
loop_
_space_group_symop_operation_xyz
x,y,z
-x,1/2-y,z
x,-y,-z
-x,1/2+y,-z
-x,-y,-z
x,1/2+y,-z
-x,y,z
x,1/2-y,z
1/2+x,1/2+y,z
1/2-x,-y,z
1/2+x,1/2-y,-z
1/2-x,y,-z
1/2-x,1/2-y,-z
1/2+x,y,-z
1/2-x,1/2+y,z
1/2+x,-y,z
loop_
_atom_site_type_symbol
_atom_site_label
_atom_site_fract_x
_atom_site_fract_y
_atom_site_fract_z
Si Si1 0.324605 0.665332 0.195430
Si Si2 0.177019 0.750000 0.086099
Si Si3 0.820103 0.552975 0.746951
Si Si4 0.175232 0.190884 0.380400
Si Si5 0.322875 0.414725 0.419018
O O1 0.500000 0.669095 0.173345
O O2 0.230286 0.699837 0.135940
O O3 0.282067 0.604652 0.203057
O O4 0.312096 0.687132 0.285008
O O5 0.000000 0.750000 0.078546
O O6 0.250000 0.750000 0.000000
O O7 0.750000 0.500000 0.779200
O O8 0.753960 0.561698 0.658988
O O9 0.000000 0.549885 0.741713
O O10 0.207102 0.250000 0.404827
O O11 0.283681 0.146926 0.414045
O O12 0.000000 0.178376 0.399449
O O13 0.500000 0.423419 0.417720
O O14 0.250000 0.434676 0.500000
#
# Coordination Sequence:
#
# PCOD9504028 Si02
#       5
#    16   8  16  16  16
#     4   9  18  36  58  82 115 149 181 223 274 325
#     4  12  24  36  58  90 123 154 185 220 266 322
#     4  10  21  38  60  84 110 145 187 233 281 331
#     4   9  17  32  53  74 102 142 182 225 279 335
#     4  11  22  35  50  72 104 141 186 237 287 338
#
# _framework density 18.600743999999999
#
# number of rings (size 3 to 8) (size 9 to 14) (size 15 to 20)
#    0.000    2.000    1.111    5.000    0.000    5.778 
#    0.000    2.222    0.000    0.667    0.000    4.667 
#    0.000    0.000    0.000    0.000    0.000    0.000 
#
# Total GULP energy -201136.269481 kJ/mol
# GULP energy per Si atom -5587.118597 kJ/mol
# Density = 1.855841 g / cm^3
# Si number density = 18.600744 Si / 1000 Ang^3
#
#
#
# Elastic Constant Matrix: (Units=GPa)
#
#
# Indices 1 2 3 4 5 6 
#
# 1 109.2081 61.3655 58.0601 0.0000 0.0000 0.0000
# 2 61.3655 133.4052 37.3579 0.0000 0.0000 0.0000
# 3 58.0601 37.3579 82.6813 0.0000 0.0000 0.0000
# 4 0.0000 0.0000 0.0000 15.4722 0.0000 0.0000
# 5 0.0000 0.0000 0.0000 0.0000 27.6576 0.0000
# 6 0.0000 0.0000 0.0000 0.0000 0.0000 31.2530
#
#
#
# Elastic Compliance Matrix: (Units=1/GPa)
#
#
# Indices 1 2 3 4 5 6 
#
# 1 0.017288 -0.005212 -0.009785 0.000000 0.000000 0.000000
# 2 -0.005212 0.010153 -0.000927 0.000000 0.000000 0.000000
# 3 -0.009785 -0.000927 0.019385 0.000000 0.000000 0.000000
# 4 0.000000 0.000000 0.000000 0.064632 0.000000 0.000000
# 5 0.000000 0.000000 0.000000 0.000000 0.036156 0.000000
# 6 0.000000 0.000000 0.000000 0.000000 0.000000 0.031997
#
#
# Mechanical properties :
#
#
# Convention : Reuss Voigt Hill
#
# Bulk Modulus (GPa) = 66.76932 70.98462 68.87697
# Shear Modulus (GPa) = 23.09987 26.11063 24.60525
#
# Velocity S-wave (km/s) = 3.52785 3.75072 3.64099
# Velocity P-wave (km/s) = 7.25040 7.54999 7.40171
#
# Compressibility (1/GPa) = 0.01497694
#
# Stress axis : x y z
#
# Youngs Moduli (GPa) = 57.84514 98.49068 51.58742
#
# Poissons Ratio (x) = 0.51335 0.50476
# Poissons Ratio (y) = 0.30150 0.04785
# Poissons Ratio (z) = 0.56599 0.09135
#
# Static dielectric constant tensor:
#      x y z
#    x 1.617400 0.000000 0.000000 
#    y 0.000000 1.686470 0.000000 
#    z 0.000000 0.000000 1.621410 
# 
# From -- ./inp_files/25068.got.cif
#   From: 2010.05.17/outbox.cif.g08.bks.cpg/sg67_13_cif.got.tgz:25068.got - 2010.06.03 18:28:57.
