data_PCOD9504184
_publ_section_title
;
Structure prediction by ZEFSAII (Michael W. Deem and Ramdas Pophale) SiO2 
 PCOD9504184
Probable space group: C M M A
;
_chemical_formula_sum "Si O2"
_cell_formula_units_Z 72
_cell_length_a 10.276048
_cell_length_b 15.770993
_cell_length_c 23.496042
_cell_angle_alpha 90.000000
_cell_angle_beta 90.000000
_cell_angle_gamma 90.000000
_cell_volume 3807.850358
_symmetry_space_group_name_H-M "C M M A"
_symmetry_group_IT_number 67
_symmetry_cell_setting 'orthorhombic'
loop_
_space_group_symop_operation_xyz
x,y,z
-x,1/2-y,z
x,-y,-z
-x,1/2+y,-z
-x,-y,-z
x,1/2+y,-z
-x,y,z
x,1/2-y,z
1/2+x,1/2+y,z
1/2-x,-y,z
1/2+x,1/2-y,-z
1/2-x,y,-z
1/2-x,1/2-y,-z
1/2+x,y,-z
1/2-x,1/2+y,z
1/2+x,-y,z
loop_
_atom_site_type_symbol
_atom_site_label
_atom_site_fract_x
_atom_site_fract_y
_atom_site_fract_z
Si Si1 0.000000 0.116717 0.058698
Si Si2 0.654449 0.075800 0.623294
Si Si3 0.347857 0.250000 0.552512
Si Si4 0.000000 0.084661 0.931997
Si Si5 0.844622 0.850019 0.745881
Si Si6 0.246472 0.848297 0.132652
O O1 0.873325 0.146471 0.092699
O O2 0.000000 0.015326 0.058931
O O3 0.000000 0.136516 0.991492
O O4 0.500000 0.053335 0.619058
O O5 0.672232 0.163961 0.589001
O O6 0.685330 0.098285 0.689087
O O7 0.750000 0.000000 0.604350
O O8 0.500000 0.250000 0.534700
O O9 0.250000 0.250000 0.500000
O O10 0.128649 0.105105 0.897011
O O11 0.813448 0.750000 0.736829
O O12 0.778272 0.880293 0.803951
O O13 0.000000 0.854039 0.754922
O O14 0.210588 0.750000 0.138477
#
# Coordination Sequence:
#
# PCOD9504184 Si02
#       6
#     8  16   8   8  16  16
#     4  11  23  41  57  79 109 159 195 234 303 378
#     4  10  21  39  64  94 126 168 211 256 307 359
#     4  10  22  42  68  94 132 176 211 255 302 352
#     4  11  25  39  55  79 121 147 187 252 309 358
#     4   9  17  36  62  84 115 155 201 247 301 366
#     4  11  22  38  61  85 109 148 197 248 301 358
#
# _framework density 18.908304999999999
#
# number of rings (size 3 to 8) (size 9 to 14) (size 15 to 20)
#    0.000    1.778    2.222    2.000    0.000    7.556 
#    2.000    2.222    0.000    0.000    0.000    0.000 
#    0.000    0.000    0.000    0.000    0.000    0.000 
#
# Total GULP energy -201001.924145 kJ/mol
# GULP energy per Si atom -5583.386782 kJ/mol
# Density = 1.886527 g / cm^3
# Si number density = 18.908305 Si / 1000 Ang^3
#
#
#
# Elastic Constant Matrix: (Units=GPa)
#
#
# Indices 1 2 3 4 5 6 
#
# 1 99.6908 47.1968 55.8630 0.0000 0.0000 0.0000
# 2 47.1968 89.8781 37.1379 0.0000 0.0000 0.0000
# 3 55.8630 37.1379 114.0227 0.0000 0.0000 0.0000
# 4 0.0000 0.0000 0.0000 -16.1632 0.0000 0.0000
# 5 0.0000 0.0000 0.0000 0.0000 46.7577 0.0000
# 6 0.0000 0.0000 0.0000 0.0000 0.0000 41.7207
#
#
#
# Elastic Compliance Matrix: (Units=1/GPa)
#
#
# Indices 1 2 3 4 5 6 
#
# 1 0.016258 -0.006062 -0.005991 0.000000 0.000000 0.000000
# 2 -0.006062 0.015117 -0.001954 0.000000 0.000000 0.000000
# 3 -0.005991 -0.001954 0.012342 0.000000 0.000000 0.000000
# 4 0.000000 0.000000 0.000000 -0.061869 0.000000 0.000000
# 5 0.000000 0.000000 0.000000 0.000000 0.021387 0.000000
# 6 0.000000 0.000000 0.000000 0.000000 0.000000 0.023969
#
#
# Mechanical properties :
#
#
# Convention : Reuss Voigt Hill
#
# Bulk Modulus (GPa) = 63.68075 64.88745 64.28410
# Shear Modulus (GPa) = 82.71210 25.35596 54.03403
#
# Velocity S-wave (km/s) = 6.62108 3.66593 5.35153
# Velocity P-wave (km/s) = 9.60227 7.23258 8.50040
#
# Compressibility (1/GPa) = 0.01570333
#
# Stress axis : x y z
#
# Youngs Moduli (GPa) = 61.50829 66.15204 81.02679
#
# Poissons Ratio (x) = 0.40101 0.48542
# Poissons Ratio (y) = 0.37286 0.15830
# Poissons Ratio (z) = 0.36849 0.12924
#
# Static dielectric constant tensor:
#      x y z
#    x 1.614370 0.000000 0.000000 
#    y 0.000000 1.670420 0.000000 
#    z 0.000000 0.000000 1.664060 
# 
# From -- ./inp_files/43145.got.cif
#   From: 2010.05.17/outbox.cif.g08.bks.cpg/sg67_22_cif.got.tgz:43145.got - 2010.06.03 18:28:57.
