data_PCOD9504480
_publ_section_title
;
Structure prediction by ZEFSAII (Michael W. Deem and Ramdas Pophale) SiO2 
 PCOD9504480
Probable space group: C M M A
;
_chemical_formula_sum "Si O2"
_cell_formula_units_Z 96
_cell_length_a 14.375214
_cell_length_b 14.588142
_cell_length_c 23.414089
_cell_angle_alpha 90.000000
_cell_angle_beta 90.000000
_cell_angle_gamma 90.000000
_cell_volume 4910.113888
_symmetry_space_group_name_H-M "C M M A"
_symmetry_group_IT_number 67
_symmetry_cell_setting 'orthorhombic'
loop_
_space_group_symop_operation_xyz
x,y,z
-x,1/2-y,z
x,-y,-z
-x,1/2+y,-z
-x,-y,-z
x,1/2+y,-z
-x,y,z
x,1/2-y,z
1/2+x,1/2+y,z
1/2-x,-y,z
1/2+x,1/2-y,-z
1/2-x,y,-z
1/2-x,1/2-y,-z
1/2+x,y,-z
1/2-x,1/2+y,z
1/2+x,-y,z
loop_
_atom_site_type_symbol
_atom_site_label
_atom_site_fract_x
_atom_site_fract_y
_atom_site_fract_z
Si Si1 0.257548 0.854102 0.727116
Si Si2 0.105181 0.888507 0.502221
Si Si3 0.111890 0.510068 0.776253
Si Si4 0.747720 0.389014 0.405216
Si Si5 0.612536 0.481606 0.909139
Si Si6 0.886594 0.353570 0.989666
O O1 0.261971 0.750000 0.748490
O O2 0.162337 0.905668 0.744654
O O3 0.261255 0.853884 0.658495
O O4 0.340343 0.918074 0.751520
O O5 0.160582 0.861745 0.559271
O O6 0.163210 0.860825 0.446490
O O7 0.000000 0.856973 0.501762
O O8 0.105432 0.000000 0.500000
O O9 0.137714 0.519867 0.843124
O O10 0.000000 0.509314 0.770029
O O11 0.750000 0.500000 0.401388
O O12 0.500000 0.481804 0.910395
O O13 0.642892 0.574403 0.941173
O O14 0.641152 0.396974 0.949383
O O15 0.854900 0.250000 0.981269
O O16 0.000000 0.352487 0.988703
#
# Coordination Sequence:
#
# PCOD9504480 Si02
#       6
#    16  16  16  16  16  16
#     4  11  24  41  60  86 119 158 204 250 295 346
#     4   8  15  27  52  84 112 144 183 231 288 349
#     4  10  22  41  62  84 116 159 204 250 296 346
#     4   9  16  33  53  79 114 149 190 233 287 350
#     4   8  15  28  48  77 110 145 188 234 286 349
#     4   8  13  23  44  77 113 143 176 229 293 350
#
# _framework density 19.551480999999999
#
# number of rings (size 3 to 8) (size 9 to 14) (size 15 to 20)
#    0.000    3.000    1.667    2.000    0.000    3.333 
#    0.000    5.000    0.000    9.000    0.000    9.333 
#    0.000    0.000    0.000    0.000    0.000    0.000 
#
# Total GULP energy -267826.170719 kJ/mol
# GULP energy per Si atom -5579.711890 kJ/mol
# Density = 1.950698 g / cm^3
# Si number density = 19.551481 Si / 1000 Ang^3
#
#
#
# Elastic Constant Matrix: (Units=GPa)
#
#
# Indices 1 2 3 4 5 6 
#
# 1 94.0361 -13.0887 -0.6648 0.0000 0.0000 0.0000
# 2 -13.0887 103.6670 2.0785 0.0000 0.0000 0.0000
# 3 -0.6648 2.0785 108.7186 0.0000 0.0000 0.0000
# 4 0.0000 0.0000 0.0000 -25.3548 0.0000 0.0000
# 5 0.0000 0.0000 0.0000 0.0000 13.1455 0.0000
# 6 0.0000 0.0000 0.0000 0.0000 0.0000 -9.0187
#
#
#
# Elastic Compliance Matrix: (Units=1/GPa)
#
#
# Indices 1 2 3 4 5 6 
#
# 1 0.010825 0.001366 0.000040 0.000000 0.000000 0.000000
# 2 0.001366 0.009822 -0.000179 0.000000 0.000000 0.000000
# 3 0.000040 -0.000179 0.009202 0.000000 0.000000 0.000000
# 4 0.000000 0.000000 0.000000 -0.039440 0.000000 0.000000
# 5 0.000000 0.000000 0.000000 0.000000 0.076072 0.000000
# 6 0.000000 0.000000 0.000000 0.000000 0.000000 -0.110880
#
#
# Mechanical properties :
#
#
# Convention : Reuss Voigt Hill
#
# Bulk Modulus (GPa) = 30.95809 31.45240 31.20524
# Shear Modulus (GPa) = -138.55720 16.96085 -60.79818
#
# Velocity S-wave (km/s) = -8.42744 2.94853 -5.58247
# Velocity P-wave (km/s) = 8.87846 5.26437 5.05537
#
# Compressibility (1/GPa) = 0.03230174
#
# Stress axis : x y z
#
# Youngs Moduli (GPa) = 92.38204 101.80891 108.67515
#
# Poissons Ratio (x) = -0.13906 -0.00436
# Poissons Ratio (y) = -0.12618 0.01950
# Poissons Ratio (z) = -0.00370 0.01827
#
# Static dielectric constant tensor:
#      x y z
#    x 1.702890 0.000000 0.000000 
#    y 0.000000 1.702470 0.000000 
#    z 0.000000 0.000000 1.652680 
# 
# From -- ./inp_files/38378.got.cif
#   From: 2010.05.17/outbox.cif.g08.bks.cpg/sg67_20_cif.got.tgz:38378.got - 2010.06.03 18:28:57.
