data_PCOD9504743
_publ_section_title
;
Structure prediction by ZEFSAII (Michael W. Deem and Ramdas Pophale) SiO2 
 PCOD9504743
Probable space group: C M M A
;
_chemical_formula_sum "Si O2"
_cell_formula_units_Z 96
_cell_length_a 18.462524
_cell_length_b 16.846455
_cell_length_c 15.047731
_cell_angle_alpha 90.000000
_cell_angle_beta 90.000000
_cell_angle_gamma 90.000000
_cell_volume 4680.266878
_symmetry_space_group_name_H-M "C M M A"
_symmetry_group_IT_number 67
_symmetry_cell_setting 'orthorhombic'
loop_
_space_group_symop_operation_xyz
x,y,z
-x,1/2-y,z
x,-y,-z
-x,1/2+y,-z
-x,-y,-z
x,1/2+y,-z
-x,y,z
x,1/2-y,z
1/2+x,1/2+y,z
1/2-x,-y,z
1/2+x,1/2-y,-z
1/2-x,y,-z
1/2-x,1/2-y,-z
1/2+x,y,-z
1/2-x,1/2+y,z
1/2+x,-y,z
loop_
_atom_site_type_symbol
_atom_site_label
_atom_site_fract_x
_atom_site_fract_y
_atom_site_fract_z
Si Si1 0.917276 0.559062 0.706014
Si Si2 0.413119 0.653695 0.922695
Si Si3 0.856588 0.910231 0.531032
Si Si4 0.587686 0.838736 0.124234
Si Si5 0.719158 0.159206 0.378348
Si Si6 0.813970 0.437706 0.782744
O O1 0.911426 0.604135 0.612209
O O2 0.892612 0.610244 0.790859
O O3 0.864622 0.484409 0.712228
O O4 0.000000 0.534780 0.720089
O O5 0.500000 0.639920 0.909463
O O6 0.402157 0.750000 0.911230
O O7 0.363994 0.598673 0.860092
O O8 0.393802 0.633257 0.025214
O O9 0.780694 0.897789 0.582219
O O10 0.849755 0.856399 0.443092
O O11 0.867388 0.000000 0.500000
O O12 0.500000 0.834995 0.124592
O O13 0.616480 0.750000 0.134722
O O14 0.741581 0.250000 0.388874
O O15 0.712708 0.136156 0.276059
O O16 0.750000 0.500000 0.808480
#
# Coordination Sequence:
#
# PCOD9504743 Si02
#       6
#    16  16  16  16  16  16
#     4  11  23  38  62  90 120 160 202 248 305 359
#     4   9  19  39  67  94 121 159 207 259 312 363
#     4  11  20  39  61  86 121 151 196 246 304 362
#     4   8  17  37  62  88 120 159 203 248 299 365
#     4  11  22  38  63  88 113 158 208 247 295 361
#     4  12  22  40  59  89 127 163 204 252 305 370
#
# _framework density 20.511651000000001
#
# number of rings (size 3 to 8) (size 9 to 14) (size 15 to 20)
#    0.000    1.667    3.333    4.000    0.000    2.333 
#    0.000    4.167    0.000    4.000    0.000    0.000 
#    0.000    0.000    0.000    0.000    0.000    0.000 
#
# Total GULP energy -267466.528354 kJ/mol
# GULP energy per Si atom -5572.219341 kJ/mol
# Density = 2.046497 g / cm^3
# Si number density = 20.511651 Si / 1000 Ang^3
#
#
#
# Elastic Constant Matrix: (Units=GPa)
#
#
# Indices 1 2 3 4 5 6 
#
# 1 63.1263 21.0393 30.7445 0.0000 0.0000 0.0000
# 2 21.0393 38.4808 46.3767 0.0000 0.0000 0.0000
# 3 30.7445 46.3767 120.3627 0.0000 0.0000 0.0000
# 4 0.0000 0.0000 0.0000 -170.2859 0.0000 0.0000
# 5 0.0000 0.0000 0.0000 0.0000 285.7939 0.0000
# 6 0.0000 0.0000 0.0000 0.0000 0.0000 20.3767
#
#
#
# Elastic Compliance Matrix: (Units=1/GPa)
#
#
# Indices 1 2 3 4 5 6 
#
# 1 0.019542 -0.008716 -0.001633 0.000000 0.000000 0.000000
# 2 -0.008716 0.052404 -0.017965 0.000000 0.000000 0.000000
# 3 -0.001633 -0.017965 0.015648 0.000000 0.000000 0.000000
# 4 0.000000 0.000000 0.000000 -0.005872 0.000000 0.000000
# 5 0.000000 0.000000 0.000000 0.000000 0.003499 0.000000
# 6 0.000000 0.000000 0.000000 0.000000 0.000000 0.049076
#
#
# Mechanical properties :
#
#
# Convention : Reuss Voigt Hill
#
# Bulk Modulus (GPa) = 32.29537 46.47675 39.38606
# Shear Modulus (GPa) = 24.84519 35.43090 30.13805
#
# Velocity S-wave (km/s) = 3.48411 4.16065 3.83732
# Velocity P-wave (km/s) = 5.65371 6.76678 6.23513
#
# Compressibility (1/GPa) = 0.03096419
#
# Stress axis : x y z
#
# Youngs Moduli (GPa) = 51.17280 19.08244 63.90757
#
# Poissons Ratio (x) = 0.16632 0.10437
# Poissons Ratio (y) = 0.44602 1.14812
# Poissons Ratio (z) = 0.08358 0.34282
#
# Static dielectric constant tensor:
#      x y z
#    x 1.802140 0.000000 0.000000 
#    y 0.000000 1.752800 0.000000 
#    z 0.000000 0.000000 1.780580 
# 
# From -- ./inp_files/29286.got.cif
#   From: 2010.05.17/outbox.cif.g08.bks.cpg/sg67_15_cif.got.tgz:29286.got - 2010.06.03 18:28:57.
