data_PCOD9504750
_publ_section_title
;
Structure prediction by ZEFSAII (Michael W. Deem and Ramdas Pophale) SiO2 
 PCOD9504750
Probable space group: C M M A
;
_chemical_formula_sum "Si O2"
_cell_formula_units_Z 60
_cell_length_a 14.233028
_cell_length_b 20.679569
_cell_length_c 10.413046
_cell_angle_alpha 90.000000
_cell_angle_beta 90.000000
_cell_angle_gamma 90.000000
_cell_volume 3064.901867
_symmetry_space_group_name_H-M "C M M A"
_symmetry_group_IT_number 67
_symmetry_cell_setting 'orthorhombic'
loop_
_space_group_symop_operation_xyz
x,y,z
-x,1/2-y,z
x,-y,-z
-x,1/2+y,-z
-x,-y,-z
x,1/2+y,-z
-x,y,z
x,1/2-y,z
1/2+x,1/2+y,z
1/2-x,-y,z
1/2+x,1/2-y,-z
1/2-x,y,-z
1/2-x,1/2-y,-z
1/2+x,y,-z
1/2-x,1/2+y,z
1/2+x,-y,z
loop_
_atom_site_type_symbol
_atom_site_label
_atom_site_fract_x
_atom_site_fract_y
_atom_site_fract_z
Si Si1 0.500000 0.853055 0.902608
Si Si2 0.000000 0.326492 0.208512
Si Si3 0.500000 0.002706 0.152131
Si Si4 0.750000 0.500000 0.500000
Si Si5 0.210454 0.321018 0.855214
Si Si6 0.841703 0.583551 0.717869
O O1 0.500000 0.921083 0.827571
O O2 0.598291 0.821739 0.864496
O O3 0.500000 0.853553 0.060470
O O4 0.911040 0.354907 0.283950
O O5 0.000000 0.250000 0.198429
O O6 0.406215 0.967867 0.204492
O O7 0.500000 0.000000 0.000000
O O8 0.811815 0.546743 0.589996
O O9 0.240234 0.250000 0.803210
O O10 0.250654 0.384392 0.784416
O O11 0.250000 0.324850 0.000000
#
# Coordination Sequence:
#
# PCOD9504750 Si02
#       6
#     8   8   8   4  16  16
#     4  12  21  35  60 100 141 163 195 250 342 413
#     4  11  21  40  66  94 124 163 211 267 331 390
#     4  11  20  40  68 105 128 166 209 273 346 400
#     4  12  28  46  60  88 128 194 232 266 300 372
#     4  11  21  37  64  99 134 166 207 270 342 402
#     4  11  24  42  66  91 133 176 224 264 318 386
#
# _framework density 19.576483
#
# number of rings (size 3 to 8) (size 9 to 14) (size 15 to 20)
#    0.000    0.800    5.333    3.600    0.000    2.133 
#    0.000    5.333    0.000    0.000    0.000    0.000 
#    0.000    0.000    0.000    0.000    0.000    0.000 
#
# Total GULP energy -167243.245210 kJ/mol
# GULP energy per Si atom -5574.774840 kJ/mol
# Density = 1.953193 g / cm^3
# Si number density = 19.576483 Si / 1000 Ang^3
#
#
#
# Elastic Constant Matrix: (Units=GPa)
#
#
# Indices 1 2 3 4 5 6 
#
# 1 145.2154 60.7777 53.3234 0.0000 0.0000 0.0000
# 2 60.7777 169.1275 61.4839 0.0000 0.0000 0.0000
# 3 53.3234 61.4839 97.7714 0.0000 0.0000 0.0000
# 4 0.0000 0.0000 0.0000 21.3281 0.0000 0.0000
# 5 0.0000 0.0000 0.0000 0.0000 23.0971 0.0000
# 6 0.0000 0.0000 0.0000 0.0000 0.0000 24.9028
#
#
#
# Elastic Compliance Matrix: (Units=1/GPa)
#
#
# Indices 1 2 3 4 5 6 
#
# 1 0.009054 -0.001891 -0.003749 0.000000 0.000000 0.000000
# 2 -0.001891 0.008060 -0.004037 0.000000 0.000000 0.000000
# 3 -0.003749 -0.004037 0.014811 0.000000 0.000000 0.000000
# 4 0.000000 0.000000 0.000000 0.046887 0.000000 0.000000
# 5 0.000000 0.000000 0.000000 0.000000 0.043296 0.000000
# 6 0.000000 0.000000 0.000000 0.000000 0.000000 0.040156
#
#
# Mechanical properties :
#
#
# Convention : Reuss Voigt Hill
#
# Bulk Modulus (GPa) = 79.54570 84.80936 82.17753
# Shear Modulus (GPa) = 26.90939 29.63421 28.27180
#
# Velocity S-wave (km/s) = 3.71155 3.89494 3.80435
# Velocity P-wave (km/s) = 7.68694 7.97769 7.83366
#
# Compressibility (1/GPa) = 0.01257139
#
# Stress axis : x y z
#
# Youngs Moduli (GPa) = 110.44379 124.07142 67.51531
#
# Poissons Ratio (x) = 0.23460 0.25312
# Poissons Ratio (y) = 0.20883 0.27257
# Poissons Ratio (z) = 0.41406 0.50090
#
# Static dielectric constant tensor:
#      x y z
#    x 1.716060 0.000000 0.000000 
#    y 0.000000 1.746510 0.000000 
#    z 0.000000 0.000000 1.650670 
# 
# From -- ./inp_files/17682.got.cif
#   From: 2010.05.17/outbox.cif.g08.bks.cpg/sg67_9_cif.got.tgz:17682.got - 2010.06.03 18:28:57.
