data_PCOD9504847
_publ_section_title
;
Structure prediction by ZEFSAII (Michael W. Deem and Ramdas Pophale) SiO2 
 PCOD9504847
Probable space group: C M M A
;
_chemical_formula_sum "Si O2"
_cell_formula_units_Z 96
_cell_length_a 15.058394
_cell_length_b 19.329172
_cell_length_c 15.651158
_cell_angle_alpha 90.000000
_cell_angle_beta 90.000000
_cell_angle_gamma 90.000000
_cell_volume 4555.524457
_symmetry_space_group_name_H-M "C M M A"
_symmetry_group_IT_number 67
_symmetry_cell_setting 'orthorhombic'
loop_
_space_group_symop_operation_xyz
x,y,z
-x,1/2-y,z
x,-y,-z
-x,1/2+y,-z
-x,-y,-z
x,1/2+y,-z
-x,y,z
x,1/2-y,z
1/2+x,1/2+y,z
1/2-x,-y,z
1/2+x,1/2-y,-z
1/2-x,y,-z
1/2-x,1/2-y,-z
1/2+x,y,-z
1/2-x,1/2+y,z
1/2+x,-y,z
loop_
_atom_site_type_symbol
_atom_site_label
_atom_site_fract_x
_atom_site_fract_y
_atom_site_fract_z
Si Si1 0.844966 0.471050 0.730685
Si Si2 0.106822 0.085228 0.149780
Si Si3 0.608350 0.828108 0.992340
Si Si4 0.608815 0.829197 0.318074
Si Si5 0.900117 0.951705 0.571750
Si Si6 0.392265 0.828130 0.794957
O O1 0.750000 0.500000 0.704892
O O2 0.866272 0.508755 0.820611
O O3 0.906488 0.502282 0.657455
O O4 0.852161 0.389691 0.740131
O O5 0.140183 0.115580 0.060400
O O6 0.134230 0.136190 0.227479
O O7 0.000000 0.085992 0.146524
O O8 0.500000 0.829455 0.992796
O O9 0.634073 0.750000 0.019227
O O10 0.634593 0.838077 0.894166
O O11 0.500000 0.830401 0.319565
O O12 0.637254 0.750000 0.324373
O O13 0.639870 0.879587 0.394479
O O14 0.000000 0.935229 0.540231
O O15 0.856793 0.000000 0.500000
O O16 0.500000 0.833639 0.791307
O O17 0.368236 0.750000 0.769543
#
# Coordination Sequence:
#
# PCOD9504847 Si02
#       6
#    16  16  16  16  16  16
#     4  11  22  35  50  73 104 136 170 210 262 319
#     4   9  16  28  48  72  98 131 172 216 259 305
#     4   8  14  26  48  77 102 128 170 221 264 298
#     4   8  13  23  43  72 101 123 148 191 246 301
#     4   9  18  34  55  76  98 126 164 211 261 316
#     4   9  18  35  57  77 102 139 183 226 260 300
#
# _framework density 21.073315999999998
#
# number of rings (size 3 to 8) (size 9 to 14) (size 15 to 20)
#    0.000    3.000    0.000    4.000    0.000    3.000 
#    0.000    9.167    0.000    5.000    0.000    5.833 
#    0.000    0.000    0.000    0.000    0.000    0.000 
#
# Total GULP energy -267652.513740 kJ/mol
# GULP energy per Si atom -5576.094036 kJ/mol
# Density = 2.102535 g / cm^3
# Si number density = 21.073316 Si / 1000 Ang^3
#
#
#
# Elastic Constant Matrix: (Units=GPa)
#
#
# Indices 1 2 3 4 5 6 
#
# 1 43.9909 13.6942 3.4920 0.0000 0.0000 0.0000
# 2 13.6942 159.5485 34.8212 0.0000 0.0000 0.0000
# 3 3.4920 34.8212 27.8017 0.0000 0.0000 0.0000
# 4 0.0000 0.0000 0.0000 33.4449 0.0000 0.0000
# 5 0.0000 0.0000 0.0000 0.0000 65.0078 0.0000
# 6 0.0000 0.0000 0.0000 0.0000 0.0000 17.8434
#
#
#
# Elastic Compliance Matrix: (Units=1/GPa)
#
#
# Indices 1 2 3 4 5 6 
#
# 1 0.023363 -0.001878 -0.000582 0.000000 0.000000 0.000000
# 2 -0.001878 0.008776 -0.010757 0.000000 0.000000 0.000000
# 3 -0.000582 -0.010757 0.049515 0.000000 0.000000 0.000000
# 4 0.000000 0.000000 0.000000 0.029900 0.000000 0.000000
# 5 0.000000 0.000000 0.000000 0.000000 0.015383 0.000000
# 6 0.000000 0.000000 0.000000 0.000000 0.000000 0.056043
#
#
# Mechanical properties :
#
#
# Convention : Reuss Voigt Hill
#
# Bulk Modulus (GPa) = 18.10924 37.26176 27.68550
# Shear Modulus (GPa) = 21.94716 35.21480 28.58098
#
# Velocity S-wave (km/s) = 3.23068 4.09230 3.68674
# Velocity P-wave (km/s) = 4.74642 6.32847 5.59366
#
# Compressibility (1/GPa) = 0.05522041
#
# Stress axis : x y z
#
# Youngs Moduli (GPa) = 42.80297 113.94078 20.19609
#
# Poissons Ratio (x) = 0.21401 0.01175
# Poissons Ratio (y) = 0.08039 0.21724
# Poissons Ratio (z) = 0.02491 1.22560
#
# Static dielectric constant tensor:
#      x y z
#    x 1.835570 0.000000 0.000000 
#    y 0.000000 1.752080 0.000000 
#    z 0.000000 0.000000 1.754970 
# 
# From -- ./inp_files/34238.got.cif
#   From: 2010.05.17/outbox.cif.g08.bks.cpg/sg67_18_cif.got.tgz:34238.got - 2010.06.03 18:28:57.
