data_PCOD9504281
_publ_section_title
;
Structure prediction by ZEFSAII (Michael W. Deem and Ramdas Pophale) SiO2 
 PCOD9504281
Probable space group: C M M A
;
_chemical_formula_sum "Si O2"
_cell_formula_units_Z 64
_cell_length_a 17.296226
_cell_length_b 19.153886
_cell_length_c 7.973954
_cell_angle_alpha 90.000000
_cell_angle_beta 90.000000
_cell_angle_gamma 90.000000
_cell_volume 2641.690750
_symmetry_space_group_name_H-M "C M M A"
_symmetry_group_IT_number 67
_symmetry_cell_setting 'orthorhombic'
loop_
_space_group_symop_operation_xyz
x,y,z
-x,1/2-y,z
x,-y,-z
-x,1/2+y,-z
-x,-y,-z
x,1/2+y,-z
-x,y,z
x,1/2-y,z
1/2+x,1/2+y,z
1/2-x,-y,z
1/2+x,1/2-y,-z
1/2-x,y,-z
1/2-x,1/2-y,-z
1/2+x,y,-z
1/2-x,1/2+y,z
1/2+x,-y,z
loop_
_atom_site_type_symbol
_atom_site_label
_atom_site_fract_x
_atom_site_fract_y
_atom_site_fract_z
Si Si1 0.414672 0.024338 0.804061
Si Si2 0.153819 0.332374 0.165076
Si Si3 0.413428 0.828871 0.792602
Si Si4 0.791625 0.418021 0.674712
O O1 0.500000 0.004540 0.735716
O O2 0.405449 0.107317 0.774887
O O3 0.334673 0.987830 0.741373
O O4 0.415333 0.000000 0.000000
O O5 0.151813 0.250000 0.219620
O O6 0.234540 0.370615 0.210584
O O7 0.132641 0.331044 0.967897
O O8 0.500000 0.853784 0.826648
O O9 0.416725 0.750000 0.736970
O O10 0.368478 0.871611 0.655033
O O11 0.750000 0.425852 0.500000
#
# Coordination Sequence:
#
# PCOD9504281 Si02
#       4
#    16  16  16  16
#     4  11  24  46  77 108 143 194 254 306 361 428
#     4  11  24  43  74 112 147 192 255 313 359 424
#     4  10  21  41  70 104 146 197 252 306 361 430
#     4  12  26  44  70 110 153 194 243 301 375 448
#
# _framework density 24.226908999999999
#
# number of rings (size 3 to 8) (size 9 to 14) (size 15 to 20)
#    0.000    1.000    2.500    3.750    0.000    8.500 
#    0.000    6.250    0.000    3.000    0.000    0.000 
#    0.000    0.000    0.000    0.000    0.000    0.000 
#
# Total GULP energy -178397.648660 kJ/mol
# GULP energy per Si atom -5574.926521 kJ/mol
# Density = 2.417177 g / cm^3
# Si number density = 24.226909 Si / 1000 Ang^3
#
#
#
# Elastic Constant Matrix: (Units=GPa)
#
#
# Indices 1 2 3 4 5 6 
#
# 1 168.6979 70.7554 67.9281 0.0000 0.0000 0.0000
# 2 70.7554 231.8979 30.7079 0.0000 0.0000 0.0000
# 3 67.9281 30.7079 76.9535 0.0000 0.0000 0.0000
# 4 0.0000 0.0000 0.0000 14.6279 0.0000 0.0000
# 5 0.0000 0.0000 0.0000 0.0000 21.7739 0.0000
# 6 0.0000 0.0000 0.0000 0.0000 0.0000 45.3810
#
#
#
# Elastic Compliance Matrix: (Units=1/GPa)
#
#
# Indices 1 2 3 4 5 6 
#
# 1 0.009994 -0.001986 -0.008029 0.000000 0.000000 0.000000
# 2 -0.001986 0.004947 -0.000221 0.000000 0.000000 0.000000
# 3 -0.008029 -0.000221 0.020171 0.000000 0.000000 0.000000
# 4 0.000000 0.000000 0.000000 0.068362 0.000000 0.000000
# 5 0.000000 0.000000 0.000000 0.000000 0.045927 0.000000
# 6 0.000000 0.000000 0.000000 0.000000 0.000000 0.022036
#
#
# Mechanical properties :
#
#
# Convention : Reuss Voigt Hill
#
# Bulk Modulus (GPa) = 68.30997 90.70357 79.50677
# Shear Modulus (GPa) = 25.40792 36.90041 31.15417
#
# Velocity S-wave (km/s) = 3.24195 3.90695 3.58988
# Velocity P-wave (km/s) = 6.50160 7.60742 7.07614
#
# Compressibility (1/GPa) = 0.01463915
#
# Stress axis : x y z
#
# Youngs Moduli (GPa) = 100.06232 202.12243 49.57710
#
# Poissons Ratio (x) = 0.40142 0.39806
# Poissons Ratio (y) = 0.19873 0.01097
# Poissons Ratio (z) = 0.80342 0.04470
#
# Static dielectric constant tensor:
#      x y z
#    x 1.969620 0.000000 0.000000 
#    y 0.000000 2.073280 0.000000 
#    z 0.000000 0.000000 1.901370 
# 
# From -- ./inp_files/9321.got.cif
#   From: 2010.05.17/outbox.cif.g08.bks.cpg/sg67_5_cif.got.tgz:9321.got - 2010.06.03 18:28:57.
