data_PCOD9504243
_publ_section_title
;
Structure prediction by ZEFSAII (Michael W. Deem and Ramdas Pophale) SiO2 
 PCOD9504243
Probable space group: C M M A
;
_chemical_formula_sum "Si O2"
_cell_formula_units_Z 88
_cell_length_a 22.011056
_cell_length_b 26.524311
_cell_length_c 7.319424
_cell_angle_alpha 90.000000
_cell_angle_beta 90.000000
_cell_angle_gamma 90.000000
_cell_volume 4273.285369
_symmetry_space_group_name_H-M "C M M A"
_symmetry_group_IT_number 67
_symmetry_cell_setting 'orthorhombic'
loop_
_space_group_symop_operation_xyz
x,y,z
-x,1/2-y,z
x,-y,-z
-x,1/2+y,-z
-x,-y,-z
x,1/2+y,-z
-x,y,z
x,1/2-y,z
1/2+x,1/2+y,z
1/2-x,-y,z
1/2+x,1/2-y,-z
1/2-x,y,-z
1/2-x,1/2-y,-z
1/2+x,y,-z
1/2-x,1/2+y,z
1/2+x,-y,z
loop_
_atom_site_type_symbol
_atom_site_label
_atom_site_fract_x
_atom_site_fract_y
_atom_site_fract_z
Si Si1 0.812477 0.544670 0.885746
Si Si2 0.879117 0.648646 0.799810
Si Si3 0.433798 0.327530 0.162594
Si Si4 0.666167 0.750000 0.705144
Si Si5 0.430942 0.591339 0.544443
Si Si6 0.840657 0.000000 0.500000
Si Si7 0.805760 0.750000 0.727449
O O1 0.845127 0.598357 0.871336
O O2 0.807056 0.523172 0.678220
O O3 0.845525 0.500000 0.000000
O O4 0.750000 0.551945 0.000000
O O5 0.907656 0.631460 0.607373
O O6 0.835548 0.697348 0.789937
O O7 0.928688 0.664655 0.947559
O O8 0.500000 0.305528 0.210915
O O9 0.375805 0.296326 0.231849
O O10 0.431174 0.380628 0.263586
O O11 0.679403 0.750000 0.489441
O O12 0.734714 0.750000 0.779905
O O13 0.500000 0.575818 0.497534
O O14 0.384700 0.545539 0.556375
#
# Coordination Sequence:
#
# PCOD9504243 Si02
#       7
#    16  16  16   8  16   8   8
#     4  10  23  41  62  97 131 173 221 275 335 395
#     4  11  23  42  67  96 132 173 223 276 333 409
#     4  11  23  40  64  94 127 168 216 271 332 394
#     4  11  24  44  63  92 131 170 229 268 331 397
#     4  10  21  40  66  95 129 169 216 274 331 392
#     4  10  21  41  64  92 132 170 220 268 328 406
#     4  11  25  44  65  96 128 180 225 272 331 407
#
# _framework density 20.593056000000001
#
# number of rings (size 3 to 8) (size 9 to 14) (size 15 to 20)
#    0.000    1.455    1.818    2.727    2.545    2.182 
#    0.000    1.364    0.000    8.727    0.000    0.000 
#    0.000    0.000    0.000    0.000    0.000    0.000 
#
# Total GULP energy -245400.171245 kJ/mol
# GULP energy per Si atom -5577.276619 kJ/mol
# Density = 2.054618 g / cm^3
# Si number density = 20.593056 Si / 1000 Ang^3
#
#
#
# Elastic Constant Matrix: (Units=GPa)
#
#
# Indices 1 2 3 4 5 6 
#
# 1 131.4627 44.7925 30.5732 0.0000 0.0000 0.0000
# 2 44.7925 115.0490 17.4713 0.0000 0.0000 0.0000
# 3 30.5732 17.4713 82.4316 0.0000 0.0000 0.0000
# 4 0.0000 0.0000 0.0000 29.1446 0.0000 0.0000
# 5 0.0000 0.0000 0.0000 0.0000 24.5681 0.0000
# 6 0.0000 0.0000 0.0000 0.0000 0.0000 42.1666
#
#
#
# Elastic Compliance Matrix: (Units=1/GPa)
#
#
# Indices 1 2 3 4 5 6 
#
# 1 0.009351 -0.003218 -0.002786 0.000000 0.000000 0.000000
# 2 -0.003218 0.010088 -0.000945 0.000000 0.000000 0.000000
# 3 -0.002786 -0.000945 0.013365 0.000000 0.000000 0.000000
# 4 0.000000 0.000000 0.000000 0.034312 0.000000 0.000000
# 5 0.000000 0.000000 0.000000 0.000000 0.040703 0.000000
# 6 0.000000 0.000000 0.000000 0.000000 0.000000 0.023715
#
#
# Mechanical properties :
#
#
# Convention : Reuss Voigt Hill
#
# Bulk Modulus (GPa) = 52.89090 57.17968 55.03529
# Shear Modulus (GPa) = 32.95244 34.91628 33.93436
#
# Velocity S-wave (km/s) = 4.00456 4.12216 4.06378
# Velocity P-wave (km/s) = 6.86451 7.10514 6.98586
#
# Compressibility (1/GPa) = 0.01890684
#
# Stress axis : x y z
#
# Youngs Moduli (GPa) = 106.94058 99.12645 74.82273
#
# Poissons Ratio (x) = 0.31894 0.20847
# Poissons Ratio (y) = 0.34409 0.07069
# Poissons Ratio (z) = 0.29796 0.09366
#
# Static dielectric constant tensor:
#      x y z
#    x 1.752010 0.000000 0.000000 
#    y 0.000000 1.749280 0.000000 
#    z 0.000000 0.000000 1.746830 
# 
# From -- ./inp_files/4843.got.cif
#   From: 2010.05.17/outbox.cif.g08.bks.cpg/sg67_3_cif.got.tgz:4843.got - 2010.06.03 18:28:57.
