data_PCOD9504841
_publ_section_title
;
Structure prediction by ZEFSAII (Michael W. Deem and Ramdas Pophale) SiO2 
 PCOD9504841
Probable space group: C M M A
;
_chemical_formula_sum "Si O2"
_cell_formula_units_Z 68
_cell_length_a 15.012069
_cell_length_b 23.445795
_cell_length_c 9.727498
_cell_angle_alpha 90.000000
_cell_angle_beta 90.000000
_cell_angle_gamma 90.000000
_cell_volume 3423.786423
_symmetry_space_group_name_H-M "C M M A"
_symmetry_group_IT_number 67
_symmetry_cell_setting 'orthorhombic'
loop_
_space_group_symop_operation_xyz
x,y,z
-x,1/2-y,z
x,-y,-z
-x,1/2+y,-z
-x,-y,-z
x,1/2+y,-z
-x,y,z
x,1/2-y,z
1/2+x,1/2+y,z
1/2-x,-y,z
1/2+x,1/2-y,-z
1/2-x,y,-z
1/2-x,1/2-y,-z
1/2+x,y,-z
1/2-x,1/2+y,z
1/2+x,-y,z
loop_
_atom_site_type_symbol
_atom_site_label
_atom_site_fract_x
_atom_site_fract_y
_atom_site_fract_z
Si Si1 0.100839 0.492684 0.694739
Si Si2 0.750000 0.000000 0.500000
Si Si3 0.597434 0.121392 0.770648
Si Si4 0.230668 0.686839 0.165342
Si Si5 0.151536 0.581043 0.061759
O O1 0.180488 0.468640 0.601405
O O2 0.111642 0.561321 0.693295
O O3 0.114759 0.470515 0.849381
O O4 0.000000 0.478439 0.651965
O O5 0.500000 0.144546 0.734478
O O6 0.679228 0.165022 0.761342
O O7 0.597345 0.102176 0.930930
O O8 0.203521 0.750000 0.210571
O O9 0.161927 0.634521 0.166848
O O10 0.250000 0.690515 0.000000
O O11 0.250000 0.568126 0.000000
#
# Coordination Sequence:
#
# PCOD9504841 Si02
#       5
#    16   4  16  16  16
#     4  11  22  34  50  74 100 127 164 204 244 295
#     4  12  22  36  50  66  98 136 162 198 252 296
#     4   9  17  28  45  70  97 123 153 192 237 285
#     4   8  15  26  40  63  96 131 161 184 219 278
#     4   9  17  29  48  71  98 129 157 192 239 287
#
# _framework density 19.861052000000001
#
# number of rings (size 3 to 8) (size 9 to 14) (size 15 to 20)
#    0.000    3.059    0.000    4.588    0.000    6.118 
#    0.000    0.000    0.000    2.118    0.000   13.176 
#    0.000   15.059    0.000    0.000    0.000    0.000 
#
# Total GULP energy -189287.200283 kJ/mol
# GULP energy per Si atom -5567.270597 kJ/mol
# Density = 1.981585 g / cm^3
# Si number density = 19.861052 Si / 1000 Ang^3
#
#
#
# Elastic Constant Matrix: (Units=GPa)
#
#
# Indices 1 2 3 4 5 6 
#
# 1 103.9543 10.6432 14.2285 0.0000 0.0000 0.0000
# 2 10.6432 79.3980 -5.5302 0.0000 0.0000 0.0000
# 3 14.2285 -5.5302 43.9584 0.0000 0.0000 0.0000
# 4 0.0000 0.0000 0.0000 4.7619 0.0000 0.0000
# 5 0.0000 0.0000 0.0000 0.0000 13.8923 0.0000
# 6 0.0000 0.0000 0.0000 0.0000 0.0000 6.9015
#
#
#
# Elastic Compliance Matrix: (Units=1/GPa)
#
#
# Indices 1 2 3 4 5 6 
#
# 1 0.010269 -0.001622 -0.003528 0.000000 0.000000 0.000000
# 2 -0.001622 0.012962 0.002156 0.000000 0.000000 0.000000
# 3 -0.003528 0.002156 0.024162 0.000000 0.000000 0.000000
# 4 0.000000 0.000000 0.000000 0.210001 0.000000 0.000000
# 5 0.000000 0.000000 0.000000 0.000000 0.071982 0.000000
# 6 0.000000 0.000000 0.000000 0.000000 0.000000 0.144897
#
#
# Mechanical properties :
#
#
# Convention : Reuss Voigt Hill
#
# Bulk Modulus (GPa) = 24.15200 29.55485 26.85342
# Shear Modulus (GPa) = 10.12017 18.97574 14.54796
#
# Velocity S-wave (km/s) = 2.25977 3.09435 2.70939
# Velocity P-wave (km/s) = 4.35840 5.26116 4.83091
#
# Compressibility (1/GPa) = 0.04140444
#
# Stress axis : x y z
#
# Youngs Moduli (GPa) = 97.38459 77.14628 41.38745
#
# Poissons Ratio (x) = 0.12515 0.14601
# Poissons Ratio (y) = 0.15798 -0.08922
# Poissons Ratio (z) = 0.34356 -0.16631
#
# Static dielectric constant tensor:
#      x y z
#    x 1.762920 0.000000 0.000000 
#    y 0.000000 1.752660 0.000000 
#    z 0.000000 0.000000 1.759130 
# 
# From -- ./inp_files/9839.got.cif
#   From: 2010.05.17/outbox.cif.g08.bks.cpg/sg67_5_cif.got.tgz:9839.got - 2010.06.03 18:28:57.
