data_PCOD9504991
_publ_section_title
;
Structure prediction by ZEFSAII (Michael W. Deem and Ramdas Pophale) SiO2 
 PCOD9504991
Probable space group: C M M A
;
_chemical_formula_sum "Si O2"
_cell_formula_units_Z 112
_cell_length_a 28.182266
_cell_length_b 17.163974
_cell_length_c 12.277949
_cell_angle_alpha 90.000000
_cell_angle_beta 90.000000
_cell_angle_gamma 90.000000
_cell_volume 5939.085572
_symmetry_space_group_name_H-M "C M M A"
_symmetry_group_IT_number 67
_symmetry_cell_setting 'orthorhombic'
loop_
_space_group_symop_operation_xyz
x,y,z
-x,1/2-y,z
x,-y,-z
-x,1/2+y,-z
-x,-y,-z
x,1/2+y,-z
-x,y,z
x,1/2-y,z
1/2+x,1/2+y,z
1/2-x,-y,z
1/2+x,1/2-y,-z
1/2-x,y,-z
1/2-x,1/2-y,-z
1/2+x,y,-z
1/2-x,1/2+y,z
1/2+x,-y,z
loop_
_atom_site_type_symbol
_atom_site_label
_atom_site_fract_x
_atom_site_fract_y
_atom_site_fract_z
Si Si1 0.695397 0.659757 0.968228
Si Si2 0.279372 0.339630 0.650110
Si Si3 0.855210 0.910283 0.225200
Si Si4 0.552958 0.156714 0.853819
Si Si5 0.686842 0.086094 0.446383
Si Si6 0.652507 0.589549 0.173733
Si Si7 0.553481 0.157152 0.113730
O O1 0.683702 0.750000 0.989908
O O2 0.682518 0.640523 0.844105
O O3 0.750000 0.646994 0.000000
O O4 0.664027 0.607195 0.048007
O O5 0.263673 0.250000 0.656208
O O6 0.313203 0.353312 0.545552
O O7 0.235655 0.396618 0.620372
O O8 0.308748 0.363543 0.755919
O O9 0.852222 0.900322 0.354484
O O10 0.906154 0.888547 0.176827
O O11 0.842768 0.999518 0.200963
O O12 0.500000 0.131972 0.817455
O O13 0.556395 0.250000 0.839142
O O14 0.598904 0.116949 0.802253
O O15 0.555585 0.142069 0.984052
O O16 0.685404 0.000000 0.500000
O O17 0.500000 0.138262 0.149783
O O18 0.561113 0.250000 0.127725
#
# Coordination Sequence:
#
# PCOD9504991 Si02
#       7
#    16  16  16  16  16  16  16
#     4  11  24  39  55  82 123 162 200 244 294 359
#     4  11  23  39  64  88 114 159 210 251 296 358
#     4  12  24  36  61  87 120 160 199 244 310 361
#     4   9  18  35  59  85 120 161 196 238 291 351
#     4  11  23  42  61  84 120 157 205 263 302 344
#     4  12  23  36  57  91 126 158 195 245 301 365
#     4   9  19  37  61  89 121 158 202 248 295 357
#
# _framework density 18.858122000000002
#
# number of rings (size 3 to 8) (size 9 to 14) (size 15 to 20)
#    0.000    1.286    2.857    5.571    0.000    6.286 
#    0.000    1.429    0.000    1.286    0.000    2.000 
#    0.000    0.000    0.000    0.000    0.000    0.000 
#
# Total GULP energy -312790.891312 kJ/mol
# GULP energy per Si atom -5585.551631 kJ/mol
# Density = 1.881520 g / cm^3
# Si number density = 18.858122 Si / 1000 Ang^3
#
#
#
# Elastic Constant Matrix: (Units=GPa)
#
#
# Indices 1 2 3 4 5 6 
#
# 1 38.8395 7.1188 3.3085 0.0000 0.0000 0.0000
# 2 7.1188 33.0871 -2.0325 0.0000 0.0000 0.0000
# 3 3.3085 -2.0325 57.6293 0.0000 0.0000 0.0000
# 4 0.0000 0.0000 0.0000 56.1685 0.0000 0.0000
# 5 0.0000 0.0000 0.0000 0.0000 23.2143 0.0000
# 6 0.0000 0.0000 0.0000 0.0000 0.0000 20.7722
#
#
#
# Elastic Compliance Matrix: (Units=1/GPa)
#
#
# Indices 1 2 3 4 5 6 
#
# 1 0.026980 -0.005913 -0.001757 0.000000 0.000000 0.000000
# 2 -0.005913 0.031585 0.001453 0.000000 0.000000 0.000000
# 3 -0.001757 0.001453 0.017504 0.000000 0.000000 0.000000
# 4 0.000000 0.000000 0.000000 0.017804 0.000000 0.000000
# 5 0.000000 0.000000 0.000000 0.000000 0.043077 0.000000
# 6 0.000000 0.000000 0.000000 0.000000 0.000000 0.048141
#
#
# Mechanical properties :
#
#
# Convention : Reuss Voigt Hill
#
# Bulk Modulus (GPa) = 15.71446 16.26061 15.98754
# Shear Modulus (GPa) = 22.85851 28.10842 25.48347
#
# Velocity S-wave (km/s) = 3.48534 3.86491 3.68003
# Velocity P-wave (km/s) = 4.95458 5.34398 5.15296
#
# Compressibility (1/GPa) = 0.06363565
#
# Stress axis : x y z
#
# Youngs Moduli (GPa) = 37.06393 31.66093 57.12840
#
# Poissons Ratio (x) = 0.18721 0.10040
# Poissons Ratio (y) = 0.21915 -0.08303
# Poissons Ratio (z) = 0.06514 -0.04602
#
# Static dielectric constant tensor:
#      x y z
#    x 1.681780 0.000000 0.000000 
#    y 0.000000 1.646350 0.000000 
#    z 0.000000 0.000000 1.662570 
# 
# From -- ./inp_files/23809.got.cif
#   From: 2010.05.17/outbox.cif.g08.bks.cpg/sg67_12_cif.got.tgz:23809.got - 2010.06.03 18:28:57.
