data_PCOD9504147
_publ_section_title
;
Structure prediction by ZEFSAII (Michael W. Deem and Ramdas Pophale) SiO2 
 PCOD9504147
Probable space group: C M M A
;
_chemical_formula_sum "Si O2"
_cell_formula_units_Z 112
_cell_length_a 14.541199
_cell_length_b 17.650317
_cell_length_c 21.752759
_cell_angle_alpha 90.000000
_cell_angle_beta 90.000000
_cell_angle_gamma 90.000000
_cell_volume 5582.992905
_symmetry_space_group_name_H-M "C M M A"
_symmetry_group_IT_number 67
_symmetry_cell_setting 'orthorhombic'
loop_
_space_group_symop_operation_xyz
x,y,z
-x,1/2-y,z
x,-y,-z
-x,1/2+y,-z
-x,-y,-z
x,1/2+y,-z
-x,y,z
x,1/2-y,z
1/2+x,1/2+y,z
1/2-x,-y,z
1/2+x,1/2-y,-z
1/2-x,y,-z
1/2-x,1/2-y,-z
1/2+x,y,-z
1/2-x,1/2+y,z
1/2+x,-y,z
loop_
_atom_site_type_symbol
_atom_site_label
_atom_site_fract_x
_atom_site_fract_y
_atom_site_fract_z
Si Si1 0.109012 0.602598 0.558032
Si Si2 0.611642 0.913882 0.988058
Si Si3 0.110750 0.662288 0.885260
Si Si4 0.257214 0.337390 0.656133
Si Si5 0.233855 0.089169 0.216784
Si Si6 0.391060 0.074712 0.417954
Si Si7 0.391726 0.340261 0.140845
O O1 0.168423 0.654697 0.601873
O O2 0.127672 0.515218 0.577638
O O3 0.131421 0.607792 0.485692
O O4 0.000000 0.615690 0.564510
O O5 0.500000 0.913812 0.986931
O O6 0.638574 0.862952 0.046141
O O7 0.639472 0.880707 0.922381
O O8 0.641441 0.000000 0.000000
O O9 0.135659 0.750000 0.874621
O O10 0.159522 0.610177 0.835108
O O11 0.000000 0.655397 0.881061
O O12 0.234757 0.250000 0.667221
O O13 0.294042 0.375748 0.718081
O O14 0.169110 0.384200 0.632763
O O15 0.328336 0.128742 0.194893
O O16 0.250000 0.000000 0.221169
O O17 0.500000 0.083982 0.408018
O O18 0.500000 0.356520 0.150521
O O19 0.381700 0.250000 0.134228
#
# Coordination Sequence:
#
# PCOD9504147 Si02
#       7
#    16  16  16  16  16  16  16
#     4   9  19  38  64  91 118 151 192 236 282 334
#     4   9  17  32  57  88 118 149 189 234 283 342
#     4  10  21  39  62  87 117 150 187 238 296 347
#     4  12  25  39  57  84 120 157 192 235 287 341
#     4  12  26  42  60  82 112 154 201 241 282 342
#     4   9  19  38  64  91 118 151 192 236 282 334
#     4  10  21  39  62  87 117 150 187 238 296 347
#
# _framework density 20.060925999999998
#
# number of rings (size 3 to 8) (size 9 to 14) (size 15 to 20)
#    0.000    1.857    0.000    5.143    0.000    8.000 
#    0.000    4.286    0.000    0.000    0.000    0.000 
#    0.000    0.000    0.000    0.000    0.000    0.000 
#
# Total GULP energy -313138.196603 kJ/mol
# GULP energy per Si atom -5591.753511 kJ/mol
# Density = 2.001527 g / cm^3
# Si number density = 20.060926 Si / 1000 Ang^3
#
#
#
# Elastic Constant Matrix: (Units=GPa)
#
#
# Indices 1 2 3 4 5 6 
#
# 1 42.2846 -4.9042 -6.8920 0.0000 0.0000 0.0000
# 2 -4.9042 57.0989 -1.6545 0.0000 0.0000 0.0000
# 3 -6.8920 -1.6545 43.9858 0.0000 0.0000 0.0000
# 4 0.0000 0.0000 0.0000 30.2383 0.0000 0.0000
# 5 0.0000 0.0000 0.0000 0.0000 14.2572 0.0000
# 6 0.0000 0.0000 0.0000 0.0000 0.0000 19.3496
#
#
#
# Elastic Compliance Matrix: (Units=1/GPa)
#
#
# Indices 1 2 3 4 5 6 
#
# 1 0.024548 0.002222 0.003930 0.000000 0.000000 0.000000
# 2 0.002222 0.017734 0.001015 0.000000 0.000000 0.000000
# 3 0.003930 0.001015 0.023389 0.000000 0.000000 0.000000
# 4 0.000000 0.000000 0.000000 0.033071 0.000000 0.000000
# 5 0.000000 0.000000 0.000000 0.000000 0.070140 0.000000
# 6 0.000000 0.000000 0.000000 0.000000 0.000000 0.051681
#
#
# Mechanical properties :
#
#
# Convention : Reuss Voigt Hill
#
# Bulk Modulus (GPa) = 12.49928 12.94087 12.72007
# Shear Modulus (GPa) = 21.46894 23.22369 22.34632
#
# Velocity S-wave (km/s) = 3.27492 3.40613 3.34117
# Velocity P-wave (km/s) = 4.53258 4.68335 4.60858
#
# Compressibility (1/GPa) = 0.08000462
#
# Stress axis : x y z
#
# Youngs Moduli (GPa) = 40.73726 56.38962 42.75595
#
# Poissons Ratio (x) = -0.12531 -0.16803
# Poissons Ratio (y) = -0.09053 -0.04341
# Poissons Ratio (z) = -0.16009 -0.05725
#
# Static dielectric constant tensor:
#      x y z
#    x 1.723820 0.000000 0.000000 
#    y 0.000000 1.684580 0.000000 
#    z 0.000000 0.000000 1.666030 
# 
# From -- ./inp_files/41937.got.cif
#   From: 2010.05.17/outbox.cif.g08.bks.cpg/sg67_21_cif.got.tgz:41937.got - 2010.06.03 18:28:57.
