data_PCOD9504677
_publ_section_title
;
Structure prediction by ZEFSAII (Michael W. Deem and Ramdas Pophale) SiO2 
 PCOD9504677
Probable space group: C M M A
;
_chemical_formula_sum "Si O2"
_cell_formula_units_Z 64
_cell_length_a 15.706744
_cell_length_b 10.757553
_cell_length_c 17.822230
_cell_angle_alpha 90.000000
_cell_angle_beta 90.000000
_cell_angle_gamma 90.000000
_cell_volume 3011.353250
_symmetry_space_group_name_H-M "C M M A"
_symmetry_group_IT_number 67
_symmetry_cell_setting 'orthorhombic'
loop_
_space_group_symop_operation_xyz
x,y,z
-x,1/2-y,z
x,-y,-z
-x,1/2+y,-z
-x,-y,-z
x,1/2+y,-z
-x,y,z
x,1/2-y,z
1/2+x,1/2+y,z
1/2-x,-y,z
1/2+x,1/2-y,-z
1/2-x,y,-z
1/2-x,1/2-y,-z
1/2+x,y,-z
1/2-x,1/2+y,z
1/2+x,-y,z
loop_
_atom_site_type_symbol
_atom_site_label
_atom_site_fract_x
_atom_site_fract_y
_atom_site_fract_z
Si Si1 0.400632 0.473265 0.855792
Si Si2 0.839947 0.250000 0.042061
Si Si3 0.095870 0.750000 0.117012
Si Si4 0.682640 0.890920 0.287550
Si Si5 0.153659 0.881740 0.535491
O O1 0.500000 0.476104 0.878143
O O2 0.353336 0.373796 0.908629
O O3 0.366313 0.615368 0.860646
O O4 0.390986 0.421408 0.771603
O O5 0.750000 0.250000 0.000000
O O6 0.905256 0.250000 0.973020
O O7 0.000000 0.750000 0.148806
O O8 0.714392 0.750000 0.273293
O O9 0.658742 0.895178 0.375153
O O10 0.750000 0.000000 0.275063
O O11 0.113497 0.750000 0.516753
O O12 0.250000 0.877975 0.500000
O O13 0.110076 0.000000 0.500000
#
# Coordination Sequence:
#
# PCOD9504677 Si02
#       5
#    16   8   8  16  16
#     4  11  25  45  65  89 129 170 208 254 317 382
#     4  12  26  42  66  96 124 157 211 265 311 364
#     4  10  24  44  66  90 122 169 209 249 320 382
#     4  11  23  36  61  92 124 162 209 258 312 371
#     4   9  16  31  51  83 120 158 198 245 315 366
#
# _framework density 21.252904000000001
#
# number of rings (size 3 to 8) (size 9 to 14) (size 15 to 20)
#    0.000    1.500    3.750    1.875    5.250    3.000 
#    0.000    0.000    0.000    0.750    0.000    0.000 
#    0.000    0.000    0.000    0.000    0.000    0.000 
#
# Total GULP energy -178527.884215 kJ/mol
# GULP energy per Si atom -5578.996382 kJ/mol
# Density = 2.120453 g / cm^3
# Si number density = 21.252904 Si / 1000 Ang^3
#
#
#
# Elastic Constant Matrix: (Units=GPa)
#
#
# Indices 1 2 3 4 5 6 
#
# 1 54.8327 41.1649 17.6848 0.0000 0.0000 0.0000
# 2 41.1649 258.0572 65.3002 0.0000 0.0000 0.0000
# 3 17.6848 65.3002 124.1182 0.0000 0.0000 0.0000
# 4 0.0000 0.0000 0.0000 39.1850 0.0000 0.0000
# 5 0.0000 0.0000 0.0000 0.0000 13.3027 0.0000
# 6 0.0000 0.0000 0.0000 0.0000 0.0000 1.8647
#
#
#
# Elastic Compliance Matrix: (Units=1/GPa)
#
#
# Indices 1 2 3 4 5 6 
#
# 1 0.020931 -0.002981 -0.001414 0.000000 0.000000 0.000000
# 2 -0.002981 0.004895 -0.002150 0.000000 0.000000 0.000000
# 3 -0.001414 -0.002150 0.009390 0.000000 0.000000 0.000000
# 4 0.000000 0.000000 0.000000 0.025520 0.000000 0.000000
# 5 0.000000 0.000000 0.000000 0.000000 0.075173 0.000000
# 6 0.000000 0.000000 0.000000 0.000000 0.000000 0.536287
#
#
# Mechanical properties :
#
#
# Convention : Reuss Voigt Hill
#
# Bulk Modulus (GPa) = 45.19822 76.14532 60.67177
# Shear Modulus (GPa) = 7.21853 31.72768 19.47311
#
# Velocity S-wave (km/s) = 1.84496 3.86795 3.03026
# Velocity P-wave (km/s) = 5.08444 7.47356 6.39162
#
# Compressibility (1/GPa) = 0.02212477
#
# Stress axis : x y z
#
# Youngs Moduli (GPa) = 47.77510 204.29739 106.49983
#
# Poissons Ratio (x) = 0.60904 0.15059
# Poissons Ratio (y) = 0.14242 0.22902
# Poissons Ratio (z) = 0.06755 0.43933
#
# Static dielectric constant tensor:
#      x y z
#    x 1.793590 0.000000 0.000000 
#    y 0.000000 1.815160 0.000000 
#    z 0.000000 0.000000 1.754230 
# 
# From -- ./inp_files/33445.got.cif
#   From: 2010.05.17/outbox.cif.g08.bks.cpg/sg67_17_cif.got.tgz:33445.got - 2010.06.03 18:28:57.
