data_PCOD9504278
_publ_section_title
;
Structure prediction by ZEFSAII (Michael W. Deem and Ramdas Pophale) SiO2 
 PCOD9504278
Probable space group: C M M A
;
_chemical_formula_sum "Si O2"
_cell_formula_units_Z 48
_cell_length_a 10.373309
_cell_length_b 15.848354
_cell_length_c 11.990641
_cell_angle_alpha 90.000000
_cell_angle_beta 90.000000
_cell_angle_gamma 90.000000
_cell_volume 1971.259860
_symmetry_space_group_name_H-M "C M M A"
_symmetry_group_IT_number 67
_symmetry_cell_setting 'orthorhombic'
loop_
_space_group_symop_operation_xyz
x,y,z
-x,1/2-y,z
x,-y,-z
-x,1/2+y,-z
-x,-y,-z
x,1/2+y,-z
-x,y,z
x,1/2-y,z
1/2+x,1/2+y,z
1/2-x,-y,z
1/2+x,1/2-y,-z
1/2-x,y,-z
1/2-x,1/2-y,-z
1/2+x,y,-z
1/2-x,1/2+y,z
1/2+x,-y,z
loop_
_atom_site_type_symbol
_atom_site_label
_atom_site_fract_x
_atom_site_fract_y
_atom_site_fract_z
Si Si1 0.000000 0.028882 0.872198
Si Si2 0.147048 0.649592 0.586728
Si Si3 0.000000 0.346194 0.145102
Si Si4 0.729607 0.655699 0.834090
O O1 0.125553 0.084121 0.849234
O O2 0.000000 0.941083 0.805882
O O3 0.000000 0.000000 0.000000
O O4 0.138299 0.750000 0.562381
O O5 0.250000 0.612389 0.500000
O O6 0.206676 0.644657 0.710858
O O7 0.000000 0.617592 0.576732
O O8 0.858606 0.346492 0.088488
O O9 0.000000 0.250000 0.198010
O O10 0.673487 0.750000 0.839975
#
# Coordination Sequence:
#
# PCOD9504278 Si02
#       4
#     8  16   8  16
#     4  12  27  43  63  98 134 179 242 303 361 425
#     4   9  17  31  59 101 143 184 228 273 340 436
#     4  10  22  43  69  92 125 177 231 290 355 427
#     4  10  21  41  68  99 139 184 228 284 356 429
#
# _framework density 24.349910999999999
#
# number of rings (size 3 to 8) (size 9 to 14) (size 15 to 20)
#    0.000    2.000    1.667    1.500    2.333    4.000 
#    0.000    3.333    0.000    6.000    0.000    0.000 
#    0.000    0.000    0.000    0.000    0.000    0.000 
#
# Total GULP energy -133846.238370 kJ/mol
# GULP energy per Si atom -5576.926599 kJ/mol
# Density = 2.429449 g / cm^3
# Si number density = 24.349911 Si / 1000 Ang^3
#
#
#
# Elastic Constant Matrix: (Units=GPa)
#
#
# Indices 1 2 3 4 5 6 
#
# 1 234.0271 108.7948 50.8630 0.0000 0.0000 0.0000
# 2 108.7948 192.9263 31.2642 0.0000 0.0000 0.0000
# 3 50.8630 31.2642 79.4534 0.0000 0.0000 0.0000
# 4 0.0000 0.0000 0.0000 19.3265 0.0000 0.0000
# 5 0.0000 0.0000 0.0000 0.0000 34.3536 0.0000
# 6 0.0000 0.0000 0.0000 0.0000 0.0000 53.1183
#
#
#
# Elastic Compliance Matrix: (Units=1/GPa)
#
#
# Indices 1 2 3 4 5 6 
#
# 1 0.006336 -0.003114 -0.002831 0.000000 0.000000 0.000000
# 2 -0.003114 0.007067 -0.000787 0.000000 0.000000 0.000000
# 3 -0.002831 -0.000787 0.014708 0.000000 0.000000 0.000000
# 4 0.000000 0.000000 0.000000 0.051742 0.000000 0.000000
# 5 0.000000 0.000000 0.000000 0.000000 0.029109 0.000000
# 6 0.000000 0.000000 0.000000 0.000000 0.000000 0.018826
#
#
# Mechanical properties :
#
#
# Convention : Reuss Voigt Hill
#
# Bulk Modulus (GPa) = 68.27475 98.69455 83.48465
# Shear Modulus (GPa) = 34.21501 42.39199 38.30350
#
# Velocity S-wave (km/s) = 3.75259 4.17700 3.97047
# Velocity P-wave (km/s) = 6.84659 7.99267 7.44173
#
# Compressibility (1/GPa) = 0.01464670
#
# Stress axis : x y z
#
# Youngs Moduli (GPa) = 157.82888 141.50096 67.99113
#
# Poissons Ratio (x) = 0.44067 0.19246
# Poissons Ratio (y) = 0.49152 0.05352
# Poissons Ratio (z) = 0.44675 0.11139
#
# Static dielectric constant tensor:
#      x y z
#    x 2.070740 0.000000 0.000000 
#    y 0.000000 1.911220 0.000000 
#    z 0.000000 0.000000 2.140450 
# 
# From -- ./inp_files/24442.got.cif
#   From: 2010.05.17/outbox.cif.g08.bks.cpg/sg67_13_cif.got.tgz:24442.got - 2010.06.03 18:28:57.
