data_PCOD9504732
_publ_section_title
;
Structure prediction by ZEFSAII (Michael W. Deem and Ramdas Pophale) SiO2 
 PCOD9504732
Probable space group: C M M A
;
_chemical_formula_sum "Si O2"
_cell_formula_units_Z 80
_cell_length_a 17.140541
_cell_length_b 23.872263
_cell_length_c 10.415430
_cell_angle_alpha 90.000000
_cell_angle_beta 90.000000
_cell_angle_gamma 90.000000
_cell_volume 4261.822130
_symmetry_space_group_name_H-M "C M M A"
_symmetry_group_IT_number 67
_symmetry_cell_setting 'orthorhombic'
loop_
_space_group_symop_operation_xyz
x,y,z
-x,1/2-y,z
x,-y,-z
-x,1/2+y,-z
-x,-y,-z
x,1/2+y,-z
-x,y,z
x,1/2-y,z
1/2+x,1/2+y,z
1/2-x,-y,z
1/2+x,1/2-y,-z
1/2-x,y,-z
1/2-x,1/2-y,-z
1/2+x,y,-z
1/2-x,1/2+y,z
1/2+x,-y,z
loop_
_atom_site_type_symbol
_atom_site_label
_atom_site_fract_x
_atom_site_fract_y
_atom_site_fract_z
Si Si1 0.826239 0.635326 0.751783
Si Si2 0.844766 0.434412 0.005617
Si Si3 0.852515 0.365547 0.758061
Si Si4 0.322786 0.250000 0.903743
Si Si5 0.091607 0.816365 0.503035
Si Si6 0.910152 0.750000 0.136027
O O1 0.865433 0.594095 0.857402
O O2 0.736585 0.617632 0.727520
O O3 0.819636 0.694530 0.822509
O O4 0.868470 0.650655 0.619963
O O5 0.862260 0.500000 0.000000
O O6 0.750000 0.426911 0.000000
O O7 0.878275 0.405214 0.876741
O O8 0.895096 0.354569 0.623282
O O9 0.864098 0.304142 0.818106
O O10 0.250000 0.250000 0.000000
O O11 0.402938 0.250000 0.983471
O O12 0.119369 0.750000 0.488355
O O13 0.000000 0.812387 0.527451
O O14 0.000000 0.750000 0.181247
#
# Coordination Sequence:
#
# PCOD9504732 Si02
#       6
#    16  16  16   8  16   8
#     4  11  20  35  60  85 116 151 193 240 289 349
#     4   9  19  37  62  89 113 143 195 254 294 333
#     4  11  20  36  59  85 116 154 191 237 291 348
#     4  12  18  33  53  88 117 145 190 239 291 346
#     4  11  24  37  52  84 125 158 189 233 292 357
#     4  12  22  31  53  85 119 153 185 229 288 349
#
# _framework density 18.771314
#
# number of rings (size 3 to 8) (size 9 to 14) (size 15 to 20)
#    0.000    1.200    6.000    1.800    0.000    1.600 
#    0.000    1.000    0.000   11.400    0.000    0.000 
#    0.000    0.000    0.000    0.000    0.000    0.000 
#
# Total GULP energy -222774.132602 kJ/mol
# GULP energy per Si atom -5569.353315 kJ/mol
# Density = 1.872859 g / cm^3
# Si number density = 18.771314 Si / 1000 Ang^3
#
#
#
# Elastic Constant Matrix: (Units=GPa)
#
#
# Indices 1 2 3 4 5 6 
#
# 1 43.6967 1.3438 21.0047 0.0000 0.0000 0.0000
# 2 1.3438 91.9942 33.1991 0.0000 0.0000 0.0000
# 3 21.0047 33.1991 85.0146 0.0000 0.0000 0.0000
# 4 0.0000 0.0000 0.0000 5.1893 0.0000 0.0000
# 5 0.0000 0.0000 0.0000 0.0000 10.9363 0.0000
# 6 0.0000 0.0000 0.0000 0.0000 0.0000 16.5509
#
#
#
# Elastic Compliance Matrix: (Units=1/GPa)
#
#
# Indices 1 2 3 4 5 6 
#
# 1 0.026377 0.002289 -0.007411 0.000000 0.000000 0.000000
# 2 0.002289 0.012852 -0.005584 0.000000 0.000000 0.000000
# 3 -0.007411 -0.005584 0.015775 0.000000 0.000000 0.000000
# 4 0.000000 0.000000 0.000000 0.192705 0.000000 0.000000
# 5 0.000000 0.000000 0.000000 0.000000 0.091439 0.000000
# 6 0.000000 0.000000 0.000000 0.000000 0.000000 0.060420
#
#
# Mechanical properties :
#
#
# Convention : Reuss Voigt Hill
#
# Bulk Modulus (GPa) = 29.76976 36.86676 33.31826
# Shear Modulus (GPa) = 11.56936 17.54584 14.55760
#
# Velocity S-wave (km/s) = 2.48530 3.06063 2.78784
# Velocity P-wave (km/s) = 4.91215 5.67208 5.30574
#
# Compressibility (1/GPa) = 0.03359113
#
# Stress axis : x y z
#
# Youngs Moduli (GPa) = 37.91181 77.80802 63.39338
#
# Poissons Ratio (x) = -0.17812 0.46981
# Poissons Ratio (y) = -0.08679 0.35402
# Poissons Ratio (z) = 0.28096 0.43452
#
# Static dielectric constant tensor:
#      x y z
#    x 1.696570 0.000000 0.000000 
#    y 0.000000 1.625860 0.000000 
#    z 0.000000 0.000000 1.727410 
# 
# From -- ./inp_files/9995.got.cif
#   From: 2010.05.17/outbox.cif.g08.bks.cpg/sg67_5_cif.got.tgz:9995.got - 2010.06.03 18:28:57.
