data_PCOD9504437
_publ_section_title
;
Structure prediction by ZEFSAII (Michael W. Deem and Ramdas Pophale) SiO2 
 PCOD9504437
Probable space group: C M M A
;
_chemical_formula_sum "Si O2"
_cell_formula_units_Z 80
_cell_length_a 18.525256
_cell_length_b 8.896342
_cell_length_c 26.630856
_cell_angle_alpha 90.000000
_cell_angle_beta 90.000000
_cell_angle_gamma 90.000000
_cell_volume 4388.951831
_symmetry_space_group_name_H-M "C M M A"
_symmetry_group_IT_number 67
_symmetry_cell_setting 'orthorhombic'
loop_
_space_group_symop_operation_xyz
x,y,z
-x,1/2-y,z
x,-y,-z
-x,1/2+y,-z
-x,-y,-z
x,1/2+y,-z
-x,y,z
x,1/2-y,z
1/2+x,1/2+y,z
1/2-x,-y,z
1/2+x,1/2-y,-z
1/2-x,y,-z
1/2-x,1/2-y,-z
1/2+x,y,-z
1/2-x,1/2+y,z
1/2+x,-y,z
loop_
_atom_site_type_symbol
_atom_site_label
_atom_site_fract_x
_atom_site_fract_y
_atom_site_fract_z
Si Si1 0.587770 0.075347 0.051082
Si Si2 0.414809 0.568079 0.838131
Si Si3 0.829117 0.929936 0.745426
Si Si4 0.670792 0.570374 0.552985
Si Si5 0.414862 0.428893 0.643572
O O1 0.500000 0.065949 0.050990
O O2 0.606919 0.250000 0.049061
O O3 0.609492 0.016175 0.106037
O O4 0.614272 0.000000 0.000000
O O5 0.500000 0.532499 0.832211
O O6 0.408586 0.750000 0.836683
O O7 0.369396 0.495173 0.793980
O O8 0.824296 0.750000 0.749279
O O9 0.874639 0.966662 0.695414
O O10 0.750000 0.000000 0.741326
O O11 0.645936 0.500000 0.500000
O O12 0.676182 0.750000 0.549015
O O13 0.750000 0.500000 0.562685
O O14 0.619109 0.520909 0.597925
O O15 0.500000 0.456487 0.648374
O O16 0.404250 0.250000 0.634202
#
# Coordination Sequence:
#
# PCOD9504437 Si02
#       5
#    16  16  16  16  16
#     4   8  14  25  43  70 103 137 172 212 260 313
#     4   9  18  33  53  78 109 142 177 221 270 319
#     4  11  23  38  57  80 107 142 182 224 272 325
#     4  11  22  38  61  87 116 151 189 226 268 318
#     4  10  22  40  60  84 114 144 179 226 274 321
#
# _framework density 18.227587
#
# number of rings (size 3 to 8) (size 9 to 14) (size 15 to 20)
#    0.000    2.200    0.000    5.400    0.000    6.000 
#    0.000    2.000    0.000    0.600    0.000    4.200 
#    0.000    0.000    0.000    0.000    0.000    0.000 
#
# Total GULP energy -223254.716531 kJ/mol
# GULP energy per Si atom -5581.367913 kJ/mol
# Density = 1.818610 g / cm^3
# Si number density = 18.227587 Si / 1000 Ang^3
#
#
#
# Elastic Constant Matrix: (Units=GPa)
#
#
# Indices 1 2 3 4 5 6 
#
# 1 81.7749 57.2680 90.4158 0.0000 0.0000 0.0000
# 2 57.2680 83.2626 90.1476 0.0000 0.0000 0.0000
# 3 90.4158 90.1476 191.1180 0.0000 0.0000 0.0000
# 4 0.0000 0.0000 0.0000 31.7503 0.0000 0.0000
# 5 0.0000 0.0000 0.0000 0.0000 1177.0988 0.0000
# 6 0.0000 0.0000 0.0000 0.0000 0.0000 20.4921
#
#
#
# Elastic Compliance Matrix: (Units=1/GPa)
#
#
# Indices 1 2 3 4 5 6 
#
# 1 0.029626 -0.010632 -0.009001 0.000000 0.000000 0.000000
# 2 -0.010632 0.028360 -0.008347 0.000000 0.000000 0.000000
# 3 -0.009001 -0.008347 0.013428 0.000000 0.000000 0.000000
# 4 0.000000 0.000000 0.000000 0.031496 0.000000 0.000000
# 5 0.000000 0.000000 0.000000 0.000000 0.000850 0.000000
# 6 0.000000 0.000000 0.000000 0.000000 0.000000 0.048799
#
#
# Mechanical properties :
#
#
# Convention : Reuss Voigt Hill
#
# Bulk Modulus (GPa) = 64.70650 92.42426 78.56538
# Shear Modulus (GPa) = 23.40043 253.75651 138.57847
#
# Velocity S-wave (km/s) = 3.58689 11.81177 8.72879
# Velocity P-wave (km/s) = 7.26159 15.38959 12.03267
#
# Compressibility (1/GPa) = 0.01545440
#
# Stress axis : x y z
#
# Youngs Moduli (GPa) = 33.75367 35.26057 74.47071
#
# Poissons Ratio (x) = 0.37488 0.67032
# Poissons Ratio (y) = 0.35885 0.62164
# Poissons Ratio (z) = 0.30382 0.29434
#
# Static dielectric constant tensor:
#      x y z
#    x 1.602470 0.000000 0.000000 
#    y 0.000000 1.612650 0.000000 
#    z 0.000000 0.000000 1.628380 
# 
# From -- ./inp_files/43340.got.cif
#   From: 2010.05.17/outbox.cif.g08.bks.cpg/sg67_22_cif.got.tgz:43340.got - 2010.06.03 18:28:57.
