data_PCOD9504528
_publ_section_title
;
Structure prediction by ZEFSAII (Michael W. Deem and Ramdas Pophale) SiO2 
 PCOD9504528
Probable space group: C M M A
;
_chemical_formula_sum "Si O2"
_cell_formula_units_Z 96
_cell_length_a 19.032800
_cell_length_b 17.326267
_cell_length_c 13.823213
_cell_angle_alpha 90.000000
_cell_angle_beta 90.000000
_cell_angle_gamma 90.000000
_cell_volume 4558.444659
_symmetry_space_group_name_H-M "C M M A"
_symmetry_group_IT_number 67
_symmetry_cell_setting 'orthorhombic'
loop_
_space_group_symop_operation_xyz
x,y,z
-x,1/2-y,z
x,-y,-z
-x,1/2+y,-z
-x,-y,-z
x,1/2+y,-z
-x,y,z
x,1/2-y,z
1/2+x,1/2+y,z
1/2-x,-y,z
1/2+x,1/2-y,-z
1/2-x,y,-z
1/2-x,1/2-y,-z
1/2+x,y,-z
1/2-x,1/2+y,z
1/2+x,-y,z
loop_
_atom_site_type_symbol
_atom_site_label
_atom_site_fract_x
_atom_site_fract_y
_atom_site_fract_z
Si Si1 0.500000 0.839771 0.494217
Si Si2 0.805699 0.661034 0.077481
Si Si3 0.243150 0.158879 0.698650
Si Si4 0.420501 0.044800 0.099349
Si Si5 0.000000 0.662970 0.739313
Si Si6 0.624798 0.555054 0.260997
Si Si7 0.129496 0.437722 0.577181
O O1 0.500000 0.750000 0.527053
O O2 0.500000 0.838468 0.377776
O O3 0.568728 0.885415 0.530530
O O4 0.813085 0.750000 0.050719
O O5 0.779035 0.656927 0.188386
O O6 0.882260 0.624039 0.076642
O O7 0.750000 0.626351 0.000000
O O8 0.254738 0.250000 0.673263
O O9 0.311147 0.103795 0.696160
O O10 0.185908 0.118054 0.629162
O O11 0.500000 0.051235 0.140902
O O12 0.366119 0.999096 0.168414
O O13 0.426162 0.000000 0.000000
O O14 0.932242 0.616864 0.771364
O O15 0.000000 0.750000 0.773167
O O16 0.598194 0.494825 0.341327
O O17 0.159026 0.500000 0.500000
#
# Coordination Sequence:
#
# PCOD9504528 Si02
#       7
#     8  16  16  16   8  16  16
#     4  11  24  44  66  94 131 175 222 277 340 405
#     4  10  22  42  68  97 135 178 223 275 339 407
#     4  11  25  43  64  98 134 175 224 277 341 404
#     4  11  24  41  66  99 134 171 224 280 330 399
#     4  11  23  43  66  93 128 177 225 275 339 405
#     4  12  23  42  68  93 132 173 222 275 331 405
#     4  12  24  42  67  98 131 173 223 279 337 400
#
# _framework density 21.059813999999999
#
# number of rings (size 3 to 8) (size 9 to 14) (size 15 to 20)
#    0.000    0.833    4.167    3.250    0.000    3.333 
#    0.000    1.667    0.000    0.000    0.000    0.000 
#    0.000    0.000    0.000    0.000    0.000    0.000 
#
# Total GULP energy -268012.394080 kJ/mol
# GULP energy per Si atom -5583.591543 kJ/mol
# Density = 2.101188 g / cm^3
# Si number density = 21.059814 Si / 1000 Ang^3
#
#
#
# Elastic Constant Matrix: (Units=GPa)
#
#
# Indices 1 2 3 4 5 6 
#
# 1 83.6582 48.4438 -1.9197 0.0000 0.0000 0.0000
# 2 48.4438 139.8195 22.0131 0.0000 0.0000 0.0000
# 3 -1.9197 22.0131 61.4140 0.0000 0.0000 0.0000
# 4 0.0000 0.0000 0.0000 31.6488 0.0000 0.0000
# 5 0.0000 0.0000 0.0000 0.0000 22.0123 0.0000
# 6 0.0000 0.0000 0.0000 0.0000 0.0000 49.5212
#
#
#
# Elastic Compliance Matrix: (Units=1/GPa)
#
#
# Indices 1 2 3 4 5 6 
#
# 1 0.015314 -0.005703 0.002523 0.000000 0.000000 0.000000
# 2 -0.005703 0.009704 -0.003656 0.000000 0.000000 0.000000
# 3 0.002523 -0.003656 0.017672 0.000000 0.000000 0.000000
# 4 0.000000 0.000000 0.000000 0.031597 0.000000 0.000000
# 5 0.000000 0.000000 0.000000 0.000000 0.045429 0.000000
# 6 0.000000 0.000000 0.000000 0.000000 0.000000 0.020193
#
#
# Mechanical properties :
#
#
# Convention : Reuss Voigt Hill
#
# Bulk Modulus (GPa) = 34.46300 46.88514 40.67407
# Shear Modulus (GPa) = 30.62703 35.06009 32.84356
#
# Velocity S-wave (km/s) = 3.81765 4.08461 3.95338
# Velocity P-wave (km/s) = 5.98602 6.67507 6.33991
#
# Compressibility (1/GPa) = 0.02901662
#
# Stress axis : x y z
#
# Youngs Moduli (GPa) = 65.30090 103.05360 56.58546
#
# Poissons Ratio (x) = 0.58772 -0.14276
# Poissons Ratio (y) = 0.37241 0.20690
# Poissons Ratio (z) = -0.16474 0.37681
#
# Static dielectric constant tensor:
#      x y z
#    x 1.772350 0.000000 0.000000 
#    y 0.000000 1.761750 0.000000 
#    z 0.000000 0.000000 1.764690 
# 
# From -- ./inp_files/29355.got.cif
#   From: 2010.05.17/outbox.cif.g08.bks.cpg/sg67_15_cif.got.tgz:29355.got - 2010.06.03 18:28:57.
