data_PCOD9504553
_publ_section_title
;
Structure prediction by ZEFSAII (Michael W. Deem and Ramdas Pophale) SiO2 
 PCOD9504553
Probable space group: C M M A
;
_chemical_formula_sum "Si O2"
_cell_formula_units_Z 108
_cell_length_a 14.476505
_cell_length_b 22.048294
_cell_length_c 13.690669
_cell_angle_alpha 90.000000
_cell_angle_beta 90.000000
_cell_angle_gamma 90.000000
_cell_volume 4369.818376
_symmetry_space_group_name_H-M "C M M A"
_symmetry_group_IT_number 67
_symmetry_cell_setting 'orthorhombic'
loop_
_space_group_symop_operation_xyz
x,y,z
-x,1/2-y,z
x,-y,-z
-x,1/2+y,-z
-x,-y,-z
x,1/2+y,-z
-x,y,z
x,1/2-y,z
1/2+x,1/2+y,z
1/2-x,-y,z
1/2+x,1/2-y,-z
1/2-x,y,-z
1/2-x,1/2-y,-z
1/2+x,y,-z
1/2-x,1/2+y,z
1/2+x,-y,z
loop_
_atom_site_type_symbol
_atom_site_label
_atom_site_fract_x
_atom_site_fract_y
_atom_site_fract_z
Si Si1 0.893660 0.923203 0.153250
Si Si2 0.643619 0.139980 0.973545
Si Si3 0.643161 0.318285 0.473252
Si Si4 0.296795 0.685505 0.741874
Si Si5 0.896682 0.137853 0.256399
Si Si6 0.500000 0.250000 0.009769
Si Si7 0.500000 0.422896 0.454434
Si Si8 0.856462 0.493958 0.329033
O O1 0.882213 0.919448 0.037586
O O2 0.829886 0.869587 0.193841
O O3 0.865726 0.979498 0.218942
O O4 0.000000 0.909688 0.177762
O O5 0.579790 0.196143 0.005085
O O6 0.750000 0.153074 0.000000
O O7 0.622533 0.129347 0.859564
O O8 0.616425 0.250000 0.507272
O O9 0.750000 0.328197 0.500000
O O10 0.642007 0.315949 0.355006
O O11 0.579373 0.375113 0.494867
O O12 0.309224 0.750000 0.792167
O O13 0.189865 0.678522 0.712156
O O14 0.000000 0.162993 0.267461
O O15 0.887889 0.074771 0.313640
O O16 0.579573 0.467198 0.401574
O O17 0.750000 0.500000 0.359049
#
# Coordination Sequence:
#
# PCOD9504553 Si02
#       8
#    16  16  16  16  16   4   8  16
#     4  12  22  40  62  98 131 172 236 289 355 426
#     4  12  25  40  59  89 131 181 233 290 360 421
#     4  10  22  44  72 110 149 176 218 278 355 435
#     4  11  24  39  66  97 130 178 222 289 355 427
#     4  12  24  43  62  92 131 184 231 286 349 412
#     4  12  26  40  60  78 130 190 220 302 358 416
#     4  12  21  42  76 107 134 191 228 281 351 415
#     4  12  22  41  71  99 135 182 234 299 345 410
#
# _framework density 24.714988000000002
#
# number of rings (size 3 to 8) (size 9 to 14) (size 15 to 20)
#    0.000    0.444    7.407    0.444    2.074    1.185 
#    1.333    2.963    0.000    7.556    0.000    0.000 
#    0.000    0.000    0.000    0.000    0.000    0.000 
#
# Total GULP energy -300710.392416 kJ/mol
# GULP energy per Si atom -5568.710971 kJ/mol
# Density = 2.465874 g / cm^3
# Si number density = 24.714988 Si / 1000 Ang^3
#
#
#
# Elastic Constant Matrix: (Units=GPa)
#
#
# Indices 1 2 3 4 5 6 
#
# 1 196.2482 23.7680 13.7289 0.0000 0.0000 0.0000
# 2 23.7680 87.3582 40.4739 0.0000 0.0000 0.0000
# 3 13.7289 40.4739 93.3257 0.0000 0.0000 0.0000
# 4 0.0000 0.0000 0.0000 14.7403 0.0000 0.0000
# 5 0.0000 0.0000 0.0000 0.0000 11.6928 0.0000
# 6 0.0000 0.0000 0.0000 0.0000 0.0000 10.0482
#
#
#
# Elastic Compliance Matrix: (Units=1/GPa)
#
#
# Indices 1 2 3 4 5 6 
#
# 1 0.005272 -0.001345 -0.000192 0.000000 0.000000 0.000000
# 2 -0.001345 0.014669 -0.006164 0.000000 0.000000 0.000000
# 3 -0.000192 -0.006164 0.013417 0.000000 0.000000 0.000000
# 4 0.000000 0.000000 0.000000 0.067841 0.000000 0.000000
# 5 0.000000 0.000000 0.000000 0.000000 0.085523 0.000000
# 6 0.000000 0.000000 0.000000 0.000000 0.000000 0.099521
#
#
# Mechanical properties :
#
#
# Convention : Reuss Voigt Hill
#
# Bulk Modulus (GPa) = 55.69485 59.20818 57.45151
# Shear Modulus (GPa) = 16.25331 27.22700 21.74015
#
# Velocity S-wave (km/s) = 2.56721 3.32270 2.96908
# Velocity P-wave (km/s) = 5.60100 6.22325 5.92030
#
# Compressibility (1/GPa) = 0.01795498
#
# Stress axis : x y z
#
# Youngs Moduli (GPa) = 189.68258 68.17146 74.53478
#
# Poissons Ratio (x) = 0.09172 0.01432
# Poissons Ratio (y) = 0.25519 0.45941
# Poissons Ratio (z) = 0.03643 0.42019
#
# Static dielectric constant tensor:
#      x y z
#    x 1.911890 0.000000 0.000000 
#    y 0.000000 1.930010 0.000000 
#    z 0.000000 0.000000 2.061450 
# 
# From -- ./inp_files/27606.got.cif
#   From: 2010.05.17/outbox.cif.g08.bks.cpg/sg67_14_cif.got.tgz:27606.got - 2010.06.03 18:28:57.
