data_PCOD9504395
_publ_section_title
;
Structure prediction by ZEFSAII (Michael W. Deem and Ramdas Pophale) SiO2 
 PCOD9504395
Probable space group: C M M A
;
_chemical_formula_sum "Si O2"
_cell_formula_units_Z 52
_cell_length_a 10.511825
_cell_length_b 13.769275
_cell_length_c 17.027023
_cell_angle_alpha 90.000000
_cell_angle_beta 90.000000
_cell_angle_gamma 90.000000
_cell_volume 2464.494871
_symmetry_space_group_name_H-M "C M M A"
_symmetry_group_IT_number 67
_symmetry_cell_setting 'orthorhombic'
loop_
_space_group_symop_operation_xyz
x,y,z
-x,1/2-y,z
x,-y,-z
-x,1/2+y,-z
-x,-y,-z
x,1/2+y,-z
-x,y,z
x,1/2-y,z
1/2+x,1/2+y,z
1/2-x,-y,z
1/2+x,1/2-y,-z
1/2-x,y,-z
1/2-x,1/2-y,-z
1/2+x,y,-z
1/2-x,1/2+y,z
1/2+x,-y,z
loop_
_atom_site_type_symbol
_atom_site_label
_atom_site_fract_x
_atom_site_fract_y
_atom_site_fract_z
Si Si1 0.144544 0.135538 0.131702
Si Si2 0.750000 0.500000 0.000000
Si Si3 0.856148 0.131991 0.562108
Si Si4 0.142898 0.132168 0.741195
O O1 0.163511 0.250000 0.112417
O O2 0.247286 0.107844 0.197705
O O3 0.000000 0.125048 0.160381
O O4 0.167599 0.069296 0.056051
O O5 0.854848 0.250000 0.563444
O O6 0.750000 0.102666 0.500000
O O7 0.831982 0.100158 0.651787
O O8 0.000000 0.103304 0.540351
O O9 0.139813 0.250000 0.739368
O O10 0.000000 0.100045 0.764439
#
# Coordination Sequence:
#
# PCOD9504395 Si02
#       4
#    16   4  16  16
#     4  10  22  39  59  84 112 144 186 232 276 330
#     4  12  24  40  60  84 112 144 178 226 290 346
#     4   8  13  21  36  63  99 138 179 220 262 311
#     4   8  15  29  48  71 104 145 183 222 273 326
#
# _framework density 21.099657000000001
#
# number of rings (size 3 to 8) (size 9 to 14) (size 15 to 20)
#    0.000    3.077    0.000    2.769    0.000    3.692 
#    0.000    9.231    0.000    0.000    0.000    1.077 
#    0.000    7.385    0.000    0.923    0.000    0.308 
#
# Total GULP energy -145185.048183 kJ/mol
# GULP energy per Si atom -5584.040315 kJ/mol
# Density = 2.105163 g / cm^3
# Si number density = 21.099657 Si / 1000 Ang^3
#
#
#
# Elastic Constant Matrix: (Units=GPa)
#
#
# Indices 1 2 3 4 5 6 
#
# 1 203.2186 46.4419 134.2530 0.0000 0.0000 0.0000
# 2 46.4419 108.1502 36.8072 0.0000 0.0000 0.0000
# 3 134.2530 36.8072 145.8688 0.0000 0.0000 0.0000
# 4 0.0000 0.0000 0.0000 -18.0390 0.0000 0.0000
# 5 0.0000 0.0000 0.0000 0.0000 32.7501 0.0000
# 6 0.0000 0.0000 0.0000 0.0000 0.0000 -15.1978
#
#
#
# Elastic Compliance Matrix: (Units=1/GPa)
#
#
# Indices 1 2 3 4 5 6 
#
# 1 0.012811 -0.001628 -0.011380 0.000000 0.000000 0.000000
# 2 -0.001628 0.010322 -0.001106 0.000000 0.000000 0.000000
# 3 -0.011380 -0.001106 0.017608 0.000000 0.000000 0.000000
# 4 0.000000 0.000000 0.000000 -0.055435 0.000000 0.000000
# 5 0.000000 0.000000 0.000000 0.000000 0.030534 0.000000
# 6 0.000000 0.000000 0.000000 0.000000 0.000000 -0.065799
#
#
# Mechanical properties :
#
#
# Convention : Reuss Voigt Hill
#
# Bulk Modulus (GPa) = 79.91742 99.13799 89.52770
# Shear Modulus (GPa) = -284.73454 15.88501 -134.42477
#
# Velocity S-wave (km/s) = -11.62929 2.74680 -7.99048
# Velocity P-wave (km/s) = 11.93156 7.55959 6.52743
#
# Compressibility (1/GPa) = 0.01251292
#
# Stress axis : x y z
#
# Youngs Moduli (GPa) = 78.05920 96.88034 56.79193
#
# Poissons Ratio (x) = 0.15775 0.64628
# Poissons Ratio (y) = 0.12710 0.06281
# Poissons Ratio (z) = 0.88830 0.10714
#
# Static dielectric constant tensor:
#      x y z
#    x 1.745420 0.000000 0.000000 
#    y 0.000000 1.796580 0.000000 
#    z 0.000000 0.000000 1.716380 
# 
# From -- ./inp_files/36478.got.cif
#   From: 2010.05.17/outbox.cif.g08.bks.cpg/sg67_19_cif.got.tgz:36478.got - 2010.06.03 18:28:57.
