data_PCOD9504373
_publ_section_title
;
Structure prediction by ZEFSAII (Michael W. Deem and Ramdas Pophale) SiO2 
 PCOD9504373
Probable space group: C M M A
;
_chemical_formula_sum "Si O2"
_cell_formula_units_Z 80
_cell_length_a 18.271639
_cell_length_b 9.909541
_cell_length_c 24.366325
_cell_angle_alpha 90.000000
_cell_angle_beta 90.000000
_cell_angle_gamma 90.000000
_cell_volume 4411.853446
_symmetry_space_group_name_H-M "C M M A"
_symmetry_group_IT_number 67
_symmetry_cell_setting 'orthorhombic'
loop_
_space_group_symop_operation_xyz
x,y,z
-x,1/2-y,z
x,-y,-z
-x,1/2+y,-z
-x,-y,-z
x,1/2+y,-z
-x,y,z
x,1/2-y,z
1/2+x,1/2+y,z
1/2-x,-y,z
1/2+x,1/2-y,-z
1/2-x,y,-z
1/2-x,1/2-y,-z
1/2+x,y,-z
1/2-x,1/2+y,z
1/2+x,-y,z
loop_
_atom_site_type_symbol
_atom_site_label
_atom_site_fract_x
_atom_site_fract_y
_atom_site_fract_z
Si Si1 0.912308 0.405737 0.348045
Si Si2 0.663122 0.522355 0.119796
Si Si3 0.089253 0.906613 0.448811
Si Si4 0.820049 0.595736 0.760658
Si Si5 0.413475 0.250000 0.083581
Si Si6 0.668299 0.750000 0.028701
O O1 0.896171 0.250000 0.365266
O O2 0.888774 0.514425 0.393520
O O3 0.874154 0.430100 0.289825
O O4 0.000000 0.415144 0.342367
O O5 0.750000 0.500000 0.122774
O O6 0.642585 0.578111 0.179716
O O7 0.622091 0.383191 0.109434
O O8 0.655390 0.622677 0.068439
O O9 0.113336 0.750000 0.451550
O O10 0.000000 0.904092 0.449673
O O11 0.112380 0.000000 0.500000
O O12 0.794545 0.750000 0.757192
O O13 0.750000 0.500000 0.756748
O O14 0.500000 0.250000 0.089779
O O15 0.389036 0.250000 0.020301
O O16 0.750000 0.750000 0.000000
#
# Coordination Sequence:
#
# PCOD9504373 Si02
#       6
#    16  16  16  16   8   8
#     4   9  18  34  54  78 111 152 192 235 292 349
#     4  11  22  41  65  89 117 159 206 244 298 370
#     4   9  16  27  47  78 112 148 192 239 288 346
#     4  10  22  38  60  87 114 151 201 246 287 349
#     4  12  28  42  60  98 130 150 191 259 319 355
#     4  12  22  40  68  94 116 160 207 249 298 377
#
# _framework density 18.132968999999999
#
# number of rings (size 3 to 8) (size 9 to 14) (size 15 to 20)
#    0.000    1.800    3.000    1.200    4.200    5.600 
#    0.000    0.000    0.000    0.600    0.000    4.200 
#    0.000    0.000    0.000    0.000    0.000    0.000 
#
# Total GULP energy -223131.123176 kJ/mol
# GULP energy per Si atom -5578.278079 kJ/mol
# Density = 1.809170 g / cm^3
# Si number density = 18.132969 Si / 1000 Ang^3
#
#
#
# Elastic Constant Matrix: (Units=GPa)
#
#
# Indices 1 2 3 4 5 6 
#
# 1 59.1803 52.2643 34.4858 0.0000 0.0000 0.0000
# 2 52.2643 162.7508 95.2650 0.0000 0.0000 0.0000
# 3 34.4858 95.2650 146.5906 0.0000 0.0000 0.0000
# 4 0.0000 0.0000 0.0000 22.0760 0.0000 0.0000
# 5 0.0000 0.0000 0.0000 0.0000 22.8042 0.0000
# 6 0.0000 0.0000 0.0000 0.0000 0.0000 17.5238
#
#
#
# Elastic Compliance Matrix: (Units=1/GPa)
#
#
# Indices 1 2 3 4 5 6 
#
# 1 0.023680 -0.007010 -0.001015 0.000000 0.000000 0.000000
# 2 -0.007010 0.011992 -0.006144 0.000000 0.000000 0.000000
# 3 -0.001015 -0.006144 0.011053 0.000000 0.000000 0.000000
# 4 0.000000 0.000000 0.000000 0.045298 0.000000 0.000000
# 5 0.000000 0.000000 0.000000 0.000000 0.043852 0.000000
# 6 0.000000 0.000000 0.000000 0.000000 0.000000 0.057065
#
#
# Mechanical properties :
#
#
# Convention : Reuss Voigt Hill
#
# Bulk Modulus (GPa) = 54.38726 81.39464 67.89095
# Shear Modulus (GPa) = 21.98694 24.91457 23.45076
#
# Velocity S-wave (km/s) = 3.48593 3.71076 3.60010
# Velocity P-wave (km/s) = 6.80154 7.95894 7.40290
#
# Compressibility (1/GPa) = 0.01838666
#
# Stress axis : x y z
#
# Youngs Moduli (GPa) = 42.22982 83.38946 90.47044
#
# Poissons Ratio (x) = 0.58458 0.09183
# Poissons Ratio (y) = 0.29604 0.55585
# Poissons Ratio (z) = 0.04286 0.51235
#
# Static dielectric constant tensor:
#      x y z
#    x 1.551820 0.000000 0.000000 
#    y 0.000000 1.691830 0.000000 
#    z 0.000000 0.000000 1.633900 
# 
# From -- ./inp_files/40586.got.cif
#   From: 2010.05.17/outbox.cif.g08.bks.cpg/sg67_21_cif.got.tgz:40586.got - 2010.06.03 18:28:57.
