data_PCOD9504631
_publ_section_title
;
Structure prediction by ZEFSAII (Michael W. Deem and Ramdas Pophale) SiO2 
 PCOD9504631
Probable space group: C M M A
;
_chemical_formula_sum "Si O2"
_cell_formula_units_Z 96
_cell_length_a 15.018235
_cell_length_b 14.409774
_cell_length_c 20.599607
_cell_angle_alpha 90.000000
_cell_angle_beta 90.000000
_cell_angle_gamma 90.000000
_cell_volume 4457.948019
_symmetry_space_group_name_H-M "C M M A"
_symmetry_group_IT_number 67
_symmetry_cell_setting 'orthorhombic'
loop_
_space_group_symop_operation_xyz
x,y,z
-x,1/2-y,z
x,-y,-z
-x,1/2+y,-z
-x,-y,-z
x,1/2+y,-z
-x,y,z
x,1/2-y,z
1/2+x,1/2+y,z
1/2-x,-y,z
1/2+x,1/2-y,-z
1/2-x,y,-z
1/2-x,1/2-y,-z
1/2+x,y,-z
1/2-x,1/2+y,z
1/2+x,-y,z
loop_
_atom_site_type_symbol
_atom_site_label
_atom_site_fract_x
_atom_site_fract_y
_atom_site_fract_z
Si Si1 0.108895 0.558260 0.433596
Si Si2 0.602594 0.361109 0.064826
Si Si3 0.892937 0.854370 0.922521
Si Si4 0.100702 0.451931 0.308780
Si Si5 0.848262 0.986358 0.178103
Si Si6 0.609725 0.250000 0.668829
Si Si7 0.281703 0.750000 0.572812
O O1 0.128670 0.500000 0.500000
O O2 0.142281 0.496667 0.372431
O O3 0.157724 0.656928 0.422471
O O4 0.000000 0.572358 0.433308
O O5 0.500000 0.394752 0.068914
O O6 0.602457 0.250000 0.065816
O O7 0.648486 0.401915 0.127917
O O8 0.639174 0.387024 0.993748
O O9 0.859029 0.750000 0.910219
O O10 0.000000 0.848355 0.928780
O O11 0.873514 0.926043 0.866328
O O12 0.099264 0.514956 0.244830
O O13 0.127983 0.346135 0.293164
O O14 0.000000 0.441272 0.330581
O O15 0.750000 0.000000 0.203055
O O16 0.500000 0.250000 0.651553
O O17 0.688826 0.250000 0.614613
O O18 0.250000 0.750000 0.500000
#
# Coordination Sequence:
#
# PCOD9504631 Si02
#       7
#    16  16  16  16  16   8   8
#     4  10  23  45  72 101 136 174 219 266 320 386
#     4   9  19  39  62  84 114 157 207 255 306 373
#     4   9  19  37  63  88 113 153 206 257 307 370
#     4  10  23  44  66  89 121 166 212 266 318 378
#     4  12  25  36  56  88 125 161 201 253 314 383
#     4  10  24  43  66  93 128 172 218 270 329 382
#     4  12  25  39  70 105 135 173 210 267 322 380
#
# _framework density 21.534572000000001
#
# number of rings (size 3 to 8) (size 9 to 14) (size 15 to 20)
#    0.000    1.833    0.000    4.250    3.500    7.000 
#    1.500    1.667    0.000    0.500    0.000    0.000 
#    0.000    0.000    0.000    0.000    0.000    0.000 
#
# Total GULP energy -267437.067345 kJ/mol
# GULP energy per Si atom -5571.605570 kJ/mol
# Density = 2.148556 g / cm^3
# Si number density = 21.534572 Si / 1000 Ang^3
#
#
#
# Elastic Constant Matrix: (Units=GPa)
#
#
# Indices 1 2 3 4 5 6 
#
# 1 74.1278 5.7177 -0.1968 0.0000 0.0000 0.0000
# 2 5.7177 90.1946 39.7832 0.0000 0.0000 0.0000
# 3 -0.1968 39.7832 118.1179 0.0000 0.0000 0.0000
# 4 0.0000 0.0000 0.0000 50.2624 0.0000 0.0000
# 5 0.0000 0.0000 0.0000 0.0000 210.4212 0.0000
# 6 0.0000 0.0000 0.0000 0.0000 0.0000 41.3218
#
#
#
# Elastic Compliance Matrix: (Units=1/GPa)
#
#
# Indices 1 2 3 4 5 6 
#
# 1 0.013570 -0.001022 0.000367 0.000000 0.000000 0.000000
# 2 -0.001022 0.013099 -0.004413 0.000000 0.000000 0.000000
# 3 0.000367 -0.004413 0.009953 0.000000 0.000000 0.000000
# 4 0.000000 0.000000 0.000000 0.019896 0.000000 0.000000
# 5 0.000000 0.000000 0.000000 0.000000 0.004752 0.000000
# 6 0.000000 0.000000 0.000000 0.000000 0.000000 0.024200
#
#
# Mechanical properties :
#
#
# Convention : Reuss Voigt Hill
#
# Bulk Modulus (GPa) = 37.75784 41.44985 39.60385
# Shear Modulus (GPa) = 47.87639 76.21016 62.04328
#
# Velocity S-wave (km/s) = 4.72023 5.95538 5.37341
# Velocity P-wave (km/s) = 6.87598 8.15957 7.54512
#
# Compressibility (1/GPa) = 0.02648456
#
# Stress axis : x y z
#
# Youngs Moduli (GPa) = 73.69186 76.34389 100.47003
#
# Poissons Ratio (x) = 0.07803 -0.03686
# Poissons Ratio (y) = 0.07532 0.44342
# Poissons Ratio (z) = -0.02703 0.33694
#
# Static dielectric constant tensor:
#      x y z
#    x 1.935470 0.000000 0.000000 
#    y 0.000000 1.822450 0.000000 
#    z 0.000000 0.000000 1.757760 
# 
# From -- ./inp_files/38518.got.cif
#   From: 2010.05.17/outbox.cif.g08.bks.cpg/sg67_20_cif.got.tgz:38518.got - 2010.06.03 18:28:57.
