data_PCOD9504926
_publ_section_title
;
Structure prediction by ZEFSAII (Michael W. Deem and Ramdas Pophale) SiO2 
 PCOD9504926
Probable space group: C M M A
;
_chemical_formula_sum "Si O2"
_cell_formula_units_Z 52
_cell_length_a 26.717315
_cell_length_b 15.171089
_cell_length_c 5.654270
_cell_angle_alpha 90.000000
_cell_angle_beta 90.000000
_cell_angle_gamma 90.000000
_cell_volume 2291.849577
_symmetry_space_group_name_H-M "C M M A"
_symmetry_group_IT_number 67
_symmetry_cell_setting 'orthorhombic'
loop_
_space_group_symop_operation_xyz
x,y,z
-x,1/2-y,z
x,-y,-z
-x,1/2+y,-z
-x,-y,-z
x,1/2+y,-z
-x,y,z
x,1/2-y,z
1/2+x,1/2+y,z
1/2-x,-y,z
1/2+x,1/2-y,-z
1/2-x,y,-z
1/2-x,1/2-y,-z
1/2+x,y,-z
1/2-x,1/2+y,z
1/2+x,-y,z
loop_
_atom_site_type_symbol
_atom_site_label
_atom_site_fract_x
_atom_site_fract_y
_atom_site_fract_z
Si Si1 0.585447 0.500000 0.500000
Si Si2 0.000000 0.250000 0.188629
Si Si3 0.347804 0.405269 0.107630
Si Si4 0.387441 0.250000 0.764566
Si Si5 0.301710 0.250000 0.365502
Si Si6 0.500000 0.927097 0.189985
O O1 0.617182 0.560384 0.677864
O O2 0.548181 0.560784 0.350854
O O3 0.054179 0.250000 0.314233
O O4 0.000000 0.162065 0.043323
O O5 0.306370 0.339467 0.213173
O O6 0.331046 0.500000 0.000000
O O7 0.375645 0.337947 0.924463
O O8 0.348561 0.250000 0.547910
O O9 0.250000 0.250000 0.500000
O O10 0.500000 0.000000 0.000000
#
# Coordination Sequence:
#
# PCOD9504926 Si02
#       6
#     8   4  16   8   8   8
#     4  11  22  40  63  94 142 186 231 289 348 420
#     4  12  20  36  66  92 128 176 224 274 344 406
#     4  11  23  43  70  99 137 183 232 287 355 425
#     4  11  25  43  67 102 139 180 234 295 352 425
#     4  11  26  49  72 102 142 180 233 297 352 419
#     4  11  23  37  59  94 138 188 238 290 342 411
#
# _framework density 22.689098999999999
#
# number of rings (size 3 to 8) (size 9 to 14) (size 15 to 20)
#    0.000    0.923    0.000    8.308    0.000    4.923 
#    0.000   17.692    0.000    0.000    0.000    0.000 
#    0.000    0.000    0.000    0.000    0.000    0.000 
#
# Total GULP energy -145122.378742 kJ/mol
# GULP energy per Si atom -5581.629952 kJ/mol
# Density = 2.263746 g / cm^3
# Si number density = 22.689099 Si / 1000 Ang^3
#
#
#
# Elastic Constant Matrix: (Units=GPa)
#
#
# Indices 1 2 3 4 5 6 
#
# 1 127.3082 50.8237 32.7411 0.0000 0.0000 0.0000
# 2 50.8237 267.3986 66.3616 0.0000 0.0000 0.0000
# 3 32.7411 66.3616 81.8318 0.0000 0.0000 0.0000
# 4 0.0000 0.0000 0.0000 56.0648 0.0000 0.0000
# 5 0.0000 0.0000 0.0000 0.0000 17.2007 0.0000
# 6 0.0000 0.0000 0.0000 0.0000 0.0000 22.8695
#
#
#
# Elastic Compliance Matrix: (Units=1/GPa)
#
#
# Indices 1 2 3 4 5 6 
#
# 1 0.008973 -0.001020 -0.002763 0.000000 0.000000 0.000000
# 2 -0.001020 0.004798 -0.003483 0.000000 0.000000 0.000000
# 3 -0.002763 -0.003483 0.016150 0.000000 0.000000 0.000000
# 4 0.000000 0.000000 0.000000 0.017837 0.000000 0.000000
# 5 0.000000 0.000000 0.000000 0.000000 0.058137 0.000000
# 6 0.000000 0.000000 0.000000 0.000000 0.000000 0.043726
#
#
# Mechanical properties :
#
#
# Convention : Reuss Voigt Hill
#
# Bulk Modulus (GPa) = 64.97965 86.26568 75.62267
# Shear Modulus (GPa) = 29.53654 41.00115 35.26884
#
# Velocity S-wave (km/s) = 3.61195 4.25559 3.94692
# Velocity P-wave (km/s) = 6.78942 7.88987 7.36024
#
# Compressibility (1/GPa) = 0.01538943
#
# Stress axis : x y z
#
# Youngs Moduli (GPa) = 111.45005 208.42411 61.91890
#
# Poissons Ratio (x) = 0.21253 0.17109
# Poissons Ratio (y) = 0.11364 0.21566
# Poissons Ratio (z) = 0.30794 0.72592
#
# Static dielectric constant tensor:
#      x y z
#    x 1.835500 0.000000 0.000000 
#    y 0.000000 1.985830 0.000000 
#    z 0.000000 0.000000 1.777540 
# 
# From -- ./inp_files/1468.got.cif
#   From: 2010.05.17/outbox.cif.g08.bks.cpg/sg67_1_cif.got.tgz:1468.got - 2010.06.03 18:28:57.
