data_PCOD9504402
_publ_section_title
;
Structure prediction by ZEFSAII (Michael W. Deem and Ramdas Pophale) SiO2 
 PCOD9504402
Probable space group: C M M A
;
_chemical_formula_sum "Si O2"
_cell_formula_units_Z 112
_cell_length_a 25.603070
_cell_length_b 17.692710
_cell_length_c 11.589179
_cell_angle_alpha 90.000000
_cell_angle_beta 90.000000
_cell_angle_gamma 90.000000
_cell_volume 5249.755455
_symmetry_space_group_name_H-M "C M M A"
_symmetry_group_IT_number 67
_symmetry_cell_setting 'orthorhombic'
loop_
_space_group_symop_operation_xyz
x,y,z
-x,1/2-y,z
x,-y,-z
-x,1/2+y,-z
-x,-y,-z
x,1/2+y,-z
-x,y,z
x,1/2-y,z
1/2+x,1/2+y,z
1/2-x,-y,z
1/2+x,1/2-y,-z
1/2-x,y,-z
1/2-x,1/2-y,-z
1/2+x,y,-z
1/2-x,1/2+y,z
1/2+x,-y,z
loop_
_atom_site_type_symbol
_atom_site_label
_atom_site_fract_x
_atom_site_fract_y
_atom_site_fract_z
Si Si1 0.558159 0.164755 0.127750
Si Si2 0.308770 0.967543 0.380635
Si Si3 0.371193 0.337561 0.909089
Si Si4 0.691017 0.030366 0.879805
Si Si5 0.440081 0.928468 0.643159
Si Si6 0.631954 0.335351 0.527767
Si Si7 0.560613 0.398376 0.709327
O O1 0.500000 0.158709 0.072475
O O2 0.560756 0.250000 0.178364
O O3 0.561085 0.103292 0.227055
O O4 0.604119 0.158307 0.035951
O O5 0.328360 0.987302 0.251189
O O6 0.320088 0.879468 0.408850
O O7 0.331790 0.000000 0.500000
O O8 0.250000 0.000000 0.379186
O O9 0.369701 0.250000 0.874921
O O10 0.316103 0.379684 0.894542
O O11 0.409888 0.386363 0.829205
O O12 0.750000 0.000000 0.880490
O O13 0.665921 0.000000 0.000000
O O14 0.500000 0.914903 0.598443
O O15 0.396065 0.881328 0.575718
O O16 0.432744 0.018883 0.650346
O O17 0.645265 0.250000 0.495167
O O18 0.586997 0.338901 0.624264
O O19 0.500000 0.386010 0.725919
#
# Coordination Sequence:
#
# PCOD9504402 Si02
#       7
#    16  16  16  16  16  16  16
#     4   9  19  36  58  90 135 180 218 264 324 388
#     4  10  22  43  69  94 125 168 217 276 341 399
#     4  11  23  38  62  94 128 169 216 271 333 397
#     4  10  23  43  68  97 124 166 222 278 343 403
#     4  10  22  39  60  92 134 180 226 268 315 387
#     4  12  24  38  63  95 128 171 218 268 329 396
#     4  11  23  37  58  91 129 170 217 263 312 380
#
# _framework density 21.334326999999998
#
# number of rings (size 3 to 8) (size 9 to 14) (size 15 to 20)
#    0.000    1.571    1.429    3.000    2.000    4.286 
#    0.000    5.000    0.000    1.714    0.000    0.000 
#    0.000    0.000    0.000    0.000    0.000    0.000 
#
# Total GULP energy -311931.051653 kJ/mol
# GULP energy per Si atom -5570.197351 kJ/mol
# Density = 2.128577 g / cm^3
# Si number density = 21.334327 Si / 1000 Ang^3
#
#
#
# Elastic Constant Matrix: (Units=GPa)
#
#
# Indices 1 2 3 4 5 6 
#
# 1 104.4009 50.2500 9.3366 0.0000 0.0000 0.0000
# 2 50.2500 119.7279 30.2818 0.0000 0.0000 0.0000
# 3 9.3366 30.2818 118.7787 0.0000 0.0000 0.0000
# 4 0.0000 0.0000 0.0000 28.5509 0.0000 0.0000
# 5 0.0000 0.0000 0.0000 0.0000 21.2976 0.0000
# 6 0.0000 0.0000 0.0000 0.0000 0.0000 5.7088
#
#
#
# Elastic Compliance Matrix: (Units=1/GPa)
#
#
# Indices 1 2 3 4 5 6 
#
# 1 0.012018 -0.005136 0.000365 0.000000 0.000000 0.000000
# 2 -0.005136 0.011123 -0.002432 0.000000 0.000000 0.000000
# 3 0.000365 -0.002432 0.009010 0.000000 0.000000 0.000000
# 4 0.000000 0.000000 0.000000 0.035025 0.000000 0.000000
# 5 0.000000 0.000000 0.000000 0.000000 0.046954 0.000000
# 6 0.000000 0.000000 0.000000 0.000000 0.000000 0.175169
#
#
# Mechanical properties :
#
#
# Convention : Reuss Voigt Hill
#
# Bulk Modulus (GPa) = 56.35555 58.07160 57.21358
# Shear Modulus (GPa) = 16.14879 27.98075 22.06477
#
# Velocity S-wave (km/s) = 2.75424 3.62544 3.21945
# Velocity P-wave (km/s) = 6.04874 6.69358 6.37931
#
# Compressibility (1/GPa) = 0.01774448
#
# Stress axis : x y z
#
# Youngs Moduli (GPa) = 83.20856 89.90329 110.98326
#
# Poissons Ratio (x) = 0.46176 -0.04048
# Poissons Ratio (y) = 0.42738 0.26991
# Poissons Ratio (z) = -0.03035 0.21865
#
# Static dielectric constant tensor:
#      x y z
#    x 1.818370 0.000000 0.000000 
#    y 0.000000 1.818580 0.000000 
#    z 0.000000 0.000000 1.806030 
# 
# From -- ./inp_files/23839.got.cif
#   From: 2010.05.17/outbox.cif.g08.bks.cpg/sg67_12_cif.got.tgz:23839.got - 2010.06.03 18:28:57.
