data_PCOD9504366
_publ_section_title
;
Structure prediction by ZEFSAII (Michael W. Deem and Ramdas Pophale) SiO2 
 PCOD9504366
Probable space group: C M M A
;
_chemical_formula_sum "Si O2"
_cell_formula_units_Z 96
_cell_length_a 20.040535
_cell_length_b 17.562894
_cell_length_c 14.759355
_cell_angle_alpha 90.000000
_cell_angle_beta 90.000000
_cell_angle_gamma 90.000000
_cell_volume 5194.847108
_symmetry_space_group_name_H-M "C M M A"
_symmetry_group_IT_number 67
_symmetry_cell_setting 'orthorhombic'
loop_
_space_group_symop_operation_xyz
x,y,z
-x,1/2-y,z
x,-y,-z
-x,1/2+y,-z
-x,-y,-z
x,1/2+y,-z
-x,y,z
x,1/2-y,z
1/2+x,1/2+y,z
1/2-x,-y,z
1/2+x,1/2-y,-z
1/2-x,y,-z
1/2-x,1/2-y,-z
1/2+x,y,-z
1/2-x,1/2+y,z
1/2+x,-y,z
loop_
_atom_site_type_symbol
_atom_site_label
_atom_site_fract_x
_atom_site_fract_y
_atom_site_fract_z
Si Si1 0.842656 0.085288 0.467588
Si Si2 0.576215 0.160516 0.870243
Si Si3 0.922872 0.048956 0.295934
Si Si4 0.214792 0.339985 0.627634
Si Si5 0.312438 0.558156 0.794288
Si Si6 0.173666 0.839441 0.033080
O O1 0.902325 0.077226 0.396026
O O2 0.844893 0.134549 0.559567
O O3 0.781164 0.121007 0.412468
O O4 0.827470 0.000000 0.500000
O O5 0.500000 0.147596 0.901155
O O6 0.585449 0.250000 0.854232
O O7 0.585093 0.116582 0.776698
O O8 0.627238 0.137912 0.948574
O O9 0.000000 0.023790 0.295217
O O10 0.871419 0.986197 0.258199
O O11 0.221373 0.250000 0.626857
O O12 0.207729 0.374066 0.726753
O O13 0.250000 0.500000 0.806940
O O14 0.333877 0.599688 0.886577
O O15 0.158545 0.750000 0.057600
O O16 0.250000 0.841140 0.000000
#
# Coordination Sequence:
#
# PCOD9504366 Si02
#       6
#    16  16  16  16  16  16
#     4  11  20  39  61  87 122 152 193 241 300 352
#     4   9  20  40  61  84 118 157 198 243 293 355
#     4  11  24  39  62  90 120 160 201 244 300 354
#     4  11  22  37  62  92 117 154 201 245 292 357
#     4  12  22  40  60  87 122 159 198 248 300 356
#     4  10  22  38  59  89 119 153 196 249 308 353
#
# _framework density 18.479849999999999
#
# number of rings (size 3 to 8) (size 9 to 14) (size 15 to 20)
#    0.000    1.333    3.333    3.500    0.000    4.667 
#    0.000    1.667    0.000    2.500    0.000    0.000 
#    0.000    0.000    0.000    0.000    0.000    0.000 
#
# Total GULP energy -267860.934569 kJ/mol
# GULP energy per Si atom -5580.436137 kJ/mol
# Density = 1.843779 g / cm^3
# Si number density = 18.479850 Si / 1000 Ang^3
#
#
#
# Elastic Constant Matrix: (Units=GPa)
#
#
# Indices 1 2 3 4 5 6 
#
# 1 59.4556 40.3653 14.5067 0.0000 0.0000 0.0000
# 2 40.3653 94.7561 43.7210 0.0000 0.0000 0.0000
# 3 14.5067 43.7210 62.1786 0.0000 0.0000 0.0000
# 4 0.0000 0.0000 0.0000 37.7093 0.0000 0.0000
# 5 0.0000 0.0000 0.0000 0.0000 31.5835 0.0000
# 6 0.0000 0.0000 0.0000 0.0000 0.0000 8.4160
#
#
#
# Elastic Compliance Matrix: (Units=1/GPa)
#
#
# Indices 1 2 3 4 5 6 
#
# 1 0.023891 -0.011258 0.002342 0.000000 0.000000 0.000000
# 2 -0.011258 0.020927 -0.012088 0.000000 0.000000 0.000000
# 3 0.002342 -0.012088 0.024036 0.000000 0.000000 0.000000
# 4 0.000000 0.000000 0.000000 0.026519 0.000000 0.000000
# 5 0.000000 0.000000 0.000000 0.000000 0.031662 0.000000
# 6 0.000000 0.000000 0.000000 0.000000 0.000000 0.118822
#
#
# Mechanical properties :
#
#
# Convention : Reuss Voigt Hill
#
# Bulk Modulus (GPa) = 37.24968 45.95293 41.60131
# Shear Modulus (GPa) = 16.84562 23.39490 20.12026
#
# Velocity S-wave (km/s) = 3.02249 3.56190 3.30323
# Velocity P-wave (km/s) = 5.69046 6.46813 6.09172
#
# Compressibility (1/GPa) = 0.02684587
#
# Stress axis : x y z
#
# Youngs Moduli (GPa) = 41.85652 47.78554 41.60419
#
# Poissons Ratio (x) = 0.53798 -0.09745
# Poissons Ratio (y) = 0.47123 0.50292
# Poissons Ratio (z) = -0.09804 0.57764
#
# Static dielectric constant tensor:
#      x y z
#    x 1.639200 0.000000 0.000000 
#    y 0.000000 1.627920 0.000000 
#    z 0.000000 0.000000 1.647730 
# 
# From -- ./inp_files/27208.got.cif
#   From: 2010.05.17/outbox.cif.g08.bks.cpg/sg67_14_cif.got.tgz:27208.got - 2010.06.03 18:28:57.
