data_PCOD9504769
_publ_section_title
;
Structure prediction by ZEFSAII (Michael W. Deem and Ramdas Pophale) SiO2 
 PCOD9504769
Probable space group: C M M A
;
_chemical_formula_sum "Si O2"
_cell_formula_units_Z 96
_cell_length_a 8.007392
_cell_length_b 29.180327
_cell_length_c 19.446877
_cell_angle_alpha 90.000000
_cell_angle_beta 90.000000
_cell_angle_gamma 90.000000
_cell_volume 4543.924550
_symmetry_space_group_name_H-M "C M M A"
_symmetry_group_IT_number 67
_symmetry_cell_setting 'orthorhombic'
loop_
_space_group_symop_operation_xyz
x,y,z
-x,1/2-y,z
x,-y,-z
-x,1/2+y,-z
-x,-y,-z
x,1/2+y,-z
-x,y,z
x,1/2-y,z
1/2+x,1/2+y,z
1/2-x,-y,z
1/2+x,1/2-y,-z
1/2-x,y,-z
1/2-x,1/2-y,-z
1/2+x,y,-z
1/2-x,1/2+y,z
1/2+x,-y,z
loop_
_atom_site_type_symbol
_atom_site_label
_atom_site_fract_x
_atom_site_fract_y
_atom_site_fract_z
Si Si1 0.701893 0.802972 0.576659
Si Si2 0.198782 0.050324 0.420870
Si Si3 0.196636 0.050383 0.208926
Si Si4 0.310856 0.123895 0.318624
Si Si5 0.298734 0.701040 0.080452
Si Si6 0.202079 0.399833 0.079331
O O1 0.500000 0.804459 0.579516
O O2 0.756957 0.750000 0.580334
O O3 0.750000 0.820558 0.500000
O O4 0.765358 0.831752 0.642621
O O5 0.250000 0.052663 0.500000
O O6 0.302919 0.087542 0.380444
O O7 0.000000 0.057249 0.412133
O O8 0.250000 0.000000 0.396057
O O9 0.232221 0.094128 0.257461
O O10 0.266591 0.062865 0.133355
O O11 0.000000 0.047235 0.203390
O O12 0.250000 0.000000 0.233285
O O13 0.500000 0.134864 0.298197
O O14 0.500000 0.701145 0.085979
O O15 0.237957 0.750000 0.110262
O O16 0.239774 0.651035 0.104107
O O17 0.250000 0.701705 0.000000
O O18 0.000000 0.399519 0.081179
O O19 0.250000 0.406842 0.000000
#
# Coordination Sequence:
#
# PCOD9504769 Si02
#       6
#    16  16  16  16  16  16
#     4   9  19  36  59  87 118 152 190 230 271 319
#     4  11  21  34  52  77 109 142 180 223 267 316
#     4  11  24  41  58  79 108 143 186 234 289 349
#     4  11  22  37  57  80 109 146 185 226 275 327
#     4   8  13  24  45  73 103 132 161 198 249 309
#     4   9  19  35  56  81 108 139 179 229 282 341
#
# _framework density 21.127112
#
# number of rings (size 3 to 8) (size 9 to 14) (size 15 to 20)
#    0.000    2.167    0.000    4.000    0.000    4.333 
#    0.000    2.500    0.000    1.000    0.000    4.667 
#    0.000    0.000    0.000    0.000    0.000    0.000 
#
# Total GULP energy -267453.615687 kJ/mol
# GULP energy per Si atom -5571.950327 kJ/mol
# Density = 2.107903 g / cm^3
# Si number density = 21.127112 Si / 1000 Ang^3
#
#
#
# Elastic Constant Matrix: (Units=GPa)
#
#
# Indices 1 2 3 4 5 6 
#
# 1 40.5295 1.4358 3.8688 0.0000 0.0000 0.0000
# 2 1.4358 84.2852 50.1365 0.0000 0.0000 0.0000
# 3 3.8688 50.1365 92.0625 0.0000 0.0000 0.0000
# 4 0.0000 0.0000 0.0000 23.9808 0.0000 0.0000
# 5 0.0000 0.0000 0.0000 0.0000 19.9196 0.0000
# 6 0.0000 0.0000 0.0000 0.0000 0.0000 17.0406
#
#
#
# Elastic Compliance Matrix: (Units=1/GPa)
#
#
# Indices 1 2 3 4 5 6 
#
# 1 0.024778 0.000292 -0.001200 0.000000 0.000000 0.000000
# 2 0.000292 0.017553 -0.009572 0.000000 0.000000 0.000000
# 3 -0.001200 -0.009572 0.016125 0.000000 0.000000 0.000000
# 4 0.000000 0.000000 0.000000 0.041700 0.000000 0.000000
# 5 0.000000 0.000000 0.000000 0.000000 0.050202 0.000000
# 6 0.000000 0.000000 0.000000 0.000000 0.000000 0.058683
#
#
# Mechanical properties :
#
#
# Convention : Reuss Voigt Hill
#
# Bulk Modulus (GPa) = 26.66939 36.41770 31.54354
# Shear Modulus (GPa) = 20.61860 22.95061 21.78461
#
# Velocity S-wave (km/s) = 3.12738 3.29950 3.21459
# Velocity P-wave (km/s) = 5.06866 5.63830 5.36105
#
# Compressibility (1/GPa) = 0.03749617
#
# Stress axis : x y z
#
# Youngs Moduli (GPa) = 40.35898 56.97012 62.01475
#
# Poissons Ratio (x) = -0.01663 0.07443
# Poissons Ratio (y) = -0.01178 0.59358
# Poissons Ratio (z) = 0.04844 0.54529
#
# Static dielectric constant tensor:
#      x y z
#    x 1.787630 0.000000 0.000000 
#    y 0.000000 1.832750 0.000000 
#    z 0.000000 0.000000 1.939160 
# 
# From -- ./inp_files/37171.got.cif
#   From: 2010.05.17/outbox.cif.g08.bks.cpg/sg67_19_cif.got.tgz:37171.got - 2010.06.03 18:28:57.
