data_PCOD9504999
_publ_section_title
;
Structure prediction by ZEFSAII (Michael W. Deem and Ramdas Pophale) SiO2 
 PCOD9504999
Probable space group: C M M A
;
_chemical_formula_sum "Si O2"
_cell_formula_units_Z 48
_cell_length_a 13.884036
_cell_length_b 17.214925
_cell_length_c 10.424671
_cell_angle_alpha 90.000000
_cell_angle_beta 90.000000
_cell_angle_gamma 90.000000
_cell_volume 2491.628121
_symmetry_space_group_name_H-M "C M M A"
_symmetry_group_IT_number 67
_symmetry_cell_setting 'orthorhombic'
loop_
_space_group_symop_operation_xyz
x,y,z
-x,1/2-y,z
x,-y,-z
-x,1/2+y,-z
-x,-y,-z
x,1/2+y,-z
-x,y,z
x,1/2-y,z
1/2+x,1/2+y,z
1/2-x,-y,z
1/2+x,1/2-y,-z
1/2-x,y,-z
1/2-x,1/2-y,-z
1/2+x,y,-z
1/2-x,1/2+y,z
1/2+x,-y,z
loop_
_atom_site_type_symbol
_atom_site_label
_atom_site_fract_x
_atom_site_fract_y
_atom_site_fract_z
Si Si1 0.209656 0.089477 0.862793
Si Si2 0.500000 0.091203 0.506729
Si Si3 0.182996 0.663340 0.625013
Si Si4 0.000000 0.653499 0.213479
O O1 0.258895 0.132906 0.745116
O O2 0.095933 0.111720 0.846423
O O3 0.250000 0.000000 0.853065
O O4 0.250000 0.117239 0.000000
O O5 0.592763 0.113195 0.587402
O O6 0.500000 0.133144 0.366868
O O7 0.500000 0.000000 0.500000
O O8 0.148864 0.750000 0.650716
O O9 0.250000 0.663793 0.500000
O O10 0.000000 0.750000 0.199026
#
# Coordination Sequence:
#
# PCOD9504999 Si02
#       4
#    16   8  16   8
#     4  11  26  45  69 101 140 180 228 280 340 406
#     4  12  24  39  68  99 134 176 226 282 344 403
#     4  11  23  40  65  97 130 171 225 277 330 399
#     4  12  24  44  72 100 136 184 228 276 348 411
#
# _framework density 19.264510999999999
#
# number of rings (size 3 to 8) (size 9 to 14) (size 15 to 20)
#    0.000    0.667    3.333    4.500    0.000    6.667 
#    0.000    0.000    0.000    0.000    0.000    0.000 
#    0.000    0.000    0.000    0.000    0.000    0.000 
#
# Total GULP energy -133895.308126 kJ/mol
# GULP energy per Si atom -5578.971172 kJ/mol
# Density = 1.922066 g / cm^3
# Si number density = 19.264511 Si / 1000 Ang^3
#
#
#
# Elastic Constant Matrix: (Units=GPa)
#
#
# Indices 1 2 3 4 5 6 
#
# 1 190.5970 78.2165 57.4816 0.0000 0.0000 0.0000
# 2 78.2165 149.4518 40.0970 0.0000 0.0000 0.0000
# 3 57.4816 40.0970 142.1925 0.0000 0.0000 0.0000
# 4 0.0000 0.0000 0.0000 -282.9371 0.0000 0.0000
# 5 0.0000 0.0000 0.0000 0.0000 39.7512 0.0000
# 6 0.0000 0.0000 0.0000 0.0000 0.0000 27.5939
#
#
#
# Elastic Compliance Matrix: (Units=1/GPa)
#
#
# Indices 1 2 3 4 5 6 
#
# 1 0.007167 -0.003217 -0.001990 0.000000 0.000000 0.000000
# 2 -0.003217 0.008683 -0.001148 0.000000 0.000000 0.000000
# 3 -0.001990 -0.001148 0.008161 0.000000 0.000000 0.000000
# 4 0.000000 0.000000 0.000000 -0.003534 0.000000 0.000000
# 5 0.000000 0.000000 0.000000 0.000000 0.025157 0.000000
# 6 0.000000 0.000000 0.000000 0.000000 0.000000 0.036240
#
#
# Mechanical properties :
#
#
# Convention : Reuss Voigt Hill
#
# Bulk Modulus (GPa) = 88.49126 92.64795 90.56960
# Shear Modulus (GPa) = 50.83894 -22.68865 14.07514
#
# Velocity S-wave (km/s) = 5.14269 -3.43555 2.70594
# Velocity P-wave (km/s) = 9.01652 5.69733 7.54179
#
# Compressibility (1/GPa) = 0.01130055
#
# Stress axis : x y z
#
# Youngs Moduli (GPa) = 139.52756 115.17098 122.53472
#
# Poissons Ratio (x) = 0.37050 0.24386
# Poissons Ratio (y) = 0.44886 0.14067
# Poissons Ratio (z) = 0.27768 0.13221
#
# Static dielectric constant tensor:
#      x y z
#    x 1.586170 0.000000 0.000000 
#    y 0.000000 1.312300 0.000000 
#    z 0.000000 0.000000 1.643620 
# 
# From -- ./inp_files/7369.got.cif
#   From: 2010.05.17/outbox.cif.g08.bks.cpg/sg67_4_cif.got.tgz:7369.got - 2010.06.03 18:28:57.
