data_PCOD9504791
_publ_section_title
;
Structure prediction by ZEFSAII (Michael W. Deem and Ramdas Pophale) SiO2 
 PCOD9504791
Probable space group: C M M A
;
_chemical_formula_sum "Si O2"
_cell_formula_units_Z 116
_cell_length_a 27.649477
_cell_length_b 16.357064
_cell_length_c 14.048268
_cell_angle_alpha 90.000000
_cell_angle_beta 90.000000
_cell_angle_gamma 90.000000
_cell_volume 6353.529600
_symmetry_space_group_name_H-M "C M M A"
_symmetry_group_IT_number 67
_symmetry_cell_setting 'orthorhombic'
loop_
_space_group_symop_operation_xyz
x,y,z
-x,1/2-y,z
x,-y,-z
-x,1/2+y,-z
-x,-y,-z
x,1/2+y,-z
-x,y,z
x,1/2-y,z
1/2+x,1/2+y,z
1/2-x,-y,z
1/2+x,1/2-y,-z
1/2-x,y,-z
1/2-x,1/2-y,-z
1/2+x,y,-z
1/2-x,1/2+y,z
1/2+x,-y,z
loop_
_atom_site_type_symbol
_atom_site_label
_atom_site_fract_x
_atom_site_fract_y
_atom_site_fract_z
Si Si1 0.000000 0.250000 0.861689
Si Si2 0.618995 0.846915 0.219090
Si Si3 0.581909 0.617870 0.811687
Si Si4 0.443820 0.095308 0.605643
Si Si5 0.555455 0.544048 0.097922
Si Si6 0.712737 0.650503 0.127983
Si Si7 0.443907 0.897819 0.608090
Si Si8 0.318096 0.349067 0.085386
O O1 0.042863 0.179003 0.856745
O O2 0.618869 0.750000 0.213183
O O3 0.592068 0.872896 0.314569
O O4 0.588983 0.882925 0.130607
O O5 0.674194 0.876407 0.206663
O O6 0.560792 0.526710 0.823474
O O7 0.585398 0.634799 0.698535
O O8 0.633172 0.620913 0.865008
O O9 0.500000 0.117561 0.626040
O O10 0.431483 0.127403 0.499589
O O11 0.441756 0.996594 0.605385
O O12 0.500000 0.570985 0.089954
O O13 0.569317 0.500000 0.000000
O O14 0.714518 0.750000 0.127490
O O15 0.768219 0.623538 0.136354
O O16 0.690882 0.626752 0.024712
O O17 0.500000 0.874135 0.625707
O O18 0.320519 0.250000 0.087168
#
# Coordination Sequence:
#
# PCOD9504791 Si02
#       8
#     4  16  16  16  16  16  16  16
#     4  12  24  32  54  88 114 148 184 224 272 350
#     4  11  21  36  56  81 109 146 190 236 277 326
#     4  12  20  36  54  81 115 143 181 226 283 333
#     4   9  18  33  55  78 103 145 191 220 278 341
#     4  11  23  37  51  75 113 151 181 222 278 339
#     4   8  17  34  54  77 106 141 190 237 274 317
#     4   9  17  33  55  76 107 147 179 226 277 336
#     4   9  17  32  56  80 104 145 190 229 276 328
#
# _framework density 18.257567999999999
#
# number of rings (size 3 to 8) (size 9 to 14) (size 15 to 20)
#    0.000    2.069    3.448    2.897    0.000    1.103 
#    2.483    0.690    0.000    3.310    0.000    4.828 
#    0.000    0.000    0.000    0.000    0.000    0.000 
#
# Total GULP energy -322990.777135 kJ/mol
# GULP energy per Si atom -5568.806502 kJ/mol
# Density = 1.821601 g / cm^3
# Si number density = 18.257568 Si / 1000 Ang^3
#
#
#
# Elastic Constant Matrix: (Units=GPa)
#
#
# Indices 1 2 3 4 5 6 
#
# 1 146.5025 19.0451 59.1975 0.0000 0.0000 0.0000
# 2 19.0451 18.1414 -3.2809 0.0000 0.0000 0.0000
# 3 59.1975 -3.2809 76.1858 0.0000 0.0000 0.0000
# 4 0.0000 0.0000 0.0000 13.9760 0.0000 0.0000
# 5 0.0000 0.0000 0.0000 0.0000 27.5897 0.0000
# 6 0.0000 0.0000 0.0000 0.0000 0.0000 4.8784
#
#
#
# Elastic Compliance Matrix: (Units=1/GPa)
#
#
# Indices 1 2 3 4 5 6 
#
# 1 0.013405 -0.016082 -0.011108 0.000000 0.000000 0.000000
# 2 -0.016082 0.074848 0.015719 0.000000 0.000000 0.000000
# 3 -0.011108 0.015719 0.022434 0.000000 0.000000 0.000000
# 4 0.000000 0.000000 0.000000 0.071551 0.000000 0.000000
# 5 0.000000 0.000000 0.000000 0.000000 0.036245 0.000000
# 6 0.000000 0.000000 0.000000 0.000000 0.000000 0.204985
#
#
# Mechanical properties :
#
#
# Convention : Reuss Voigt Hill
#
# Bulk Modulus (GPa) = 11.39663 43.41701 27.40682
# Shear Modulus (GPa) = 10.51171 20.34668 15.42920
#
# Velocity S-wave (km/s) = 2.40207 3.34192 2.91019
# Velocity P-wave (km/s) = 3.73483 6.22279 5.13187
#
# Compressibility (1/GPa) = 0.08774521
#
# Stress axis : x y z
#
# Youngs Moduli (GPa) = 74.59875 13.36035 44.57484
#
# Poissons Ratio (x) = 0.21486 0.49516
# Poissons Ratio (y) = 1.19968 -0.70068
# Poissons Ratio (z) = 0.82868 -0.21001
#
# Static dielectric constant tensor:
#      x y z
#    x 1.625200 0.000000 0.000000 
#    y 0.000000 1.661430 0.000000 
#    z 0.000000 0.000000 1.679690 
# 
# From -- ./inp_files/31283.got.cif
#   From: 2010.05.17/outbox.cif.g08.bks.cpg/sg67_16_cif.got.tgz:31283.got - 2010.06.03 18:28:57.
