data_PCOD9504283
_publ_section_title
;
Structure prediction by ZEFSAII (Michael W. Deem and Ramdas Pophale) SiO2 
 PCOD9504283
Probable space group: C M M A
;
_chemical_formula_sum "Si O2"
_cell_formula_units_Z 64
_cell_length_a 15.257786
_cell_length_b 10.820136
_cell_length_c 17.715752
_cell_angle_alpha 90.000000
_cell_angle_beta 90.000000
_cell_angle_gamma 90.000000
_cell_volume 2924.716875
_symmetry_space_group_name_H-M "C M M A"
_symmetry_group_IT_number 67
_symmetry_cell_setting 'orthorhombic'
loop_
_space_group_symop_operation_xyz
x,y,z
-x,1/2-y,z
x,-y,-z
-x,1/2+y,-z
-x,-y,-z
x,1/2+y,-z
-x,y,z
x,1/2-y,z
1/2+x,1/2+y,z
1/2-x,-y,z
1/2+x,1/2-y,-z
1/2-x,y,-z
1/2-x,1/2-y,-z
1/2+x,y,-z
1/2-x,1/2+y,z
1/2+x,-y,z
loop_
_atom_site_type_symbol
_atom_site_label
_atom_site_fract_x
_atom_site_fract_y
_atom_site_fract_z
Si Si1 0.595438 0.250000 0.602435
Si Si2 0.336757 0.750000 0.552854
Si Si3 0.500000 0.397348 0.230608
Si Si4 0.154820 0.513957 0.335841
Si Si5 0.500000 0.447805 0.917123
Si Si6 0.294823 0.880000 0.084901
O O1 0.500000 0.250000 0.638424
O O2 0.591211 0.250000 0.512112
O O3 0.636960 0.380221 0.626840
O O4 0.250000 0.750000 0.500000
O O5 0.342802 0.626317 0.603219
O O6 0.500000 0.250000 0.233856
O O7 0.417075 0.451234 0.274996
O O8 0.500000 0.447443 0.146183
O O9 0.250000 0.500000 0.300770
O O10 0.598484 0.387133 0.913055
O O11 0.500000 0.500000 0.000000
O O12 0.269575 0.750000 0.121858
O O13 0.250000 0.000000 0.119760
O O14 0.250000 0.876102 0.000000
#
# Coordination Sequence:
#
# PCOD9504283 Si02
#       6
#     8   8   8  16   8  16
#     4  12  26  40  72 117 149 201 266 314 364 443
#     4  12  24  42  78 114 150 212 266 317 371 448
#     4  12  30  52  76 109 153 208 253 318 406 469
#     4  12  25  49  72 107 164 202 257 313 384 459
#     4  12  25  49  76 108 143 194 256 326 380 472
#     4  10  21  41  72 110 146 176 227 305 381 445
#
# _framework density 21.882459000000001
#
# number of rings (size 3 to 8) (size 9 to 14) (size 15 to 20)
#    0.000    0.500    7.500    1.125    1.750    4.000 
#    4.500    0.000    0.000    0.000    0.000    0.000 
#    0.000    0.000    0.000    0.000    0.000    0.000 
#
# Total GULP energy -178507.397010 kJ/mol
# GULP energy per Si atom -5578.356157 kJ/mol
# Density = 2.183265 g / cm^3
# Si number density = 21.882459 Si / 1000 Ang^3
#
#
#
# Elastic Constant Matrix: (Units=GPa)
#
#
# Indices 1 2 3 4 5 6 
#
# 1 178.1428 67.5400 40.3007 0.0000 0.0000 0.0000
# 2 67.5400 233.0979 62.2503 0.0000 0.0000 0.0000
# 3 40.3007 62.2503 116.7290 0.0000 0.0000 0.0000
# 4 0.0000 0.0000 0.0000 -125.9895 0.0000 0.0000
# 5 0.0000 0.0000 0.0000 0.0000 38.6764 0.0000
# 6 0.0000 0.0000 0.0000 0.0000 0.0000 58.0824
#
#
#
# Elastic Compliance Matrix: (Units=1/GPa)
#
#
# Indices 1 2 3 4 5 6 
#
# 1 0.006510 -0.001499 -0.001448 0.000000 0.000000 0.000000
# 2 -0.001499 0.005348 -0.002334 0.000000 0.000000 0.000000
# 3 -0.001448 -0.002334 0.010312 0.000000 0.000000 0.000000
# 4 0.000000 0.000000 0.000000 -0.007937 0.000000 0.000000
# 5 0.000000 0.000000 0.000000 0.000000 0.025856 0.000000
# 6 0.000000 0.000000 0.000000 0.000000 0.000000 0.017217
#
#
# Mechanical properties :
#
#
# Convention : Reuss Voigt Hill
#
# Bulk Modulus (GPa) = 86.16302 96.46129 91.31216
# Shear Modulus (GPa) = 69.70012 18.01245 43.85628
#
# Velocity S-wave (km/s) = 5.64988 2.87216 4.48166
# Velocity P-wave (km/s) = 9.05663 7.42808 8.28248
#
# Compressibility (1/GPa) = 0.01160591
#
# Stress axis : x y z
#
# Youngs Moduli (GPa) = 153.62155 186.98913 96.97881
#
# Poissons Ratio (x) = 0.28039 0.14040
# Poissons Ratio (y) = 0.23035 0.22638
# Poissons Ratio (z) = 0.22240 0.43648
#
# Static dielectric constant tensor:
#      x y z
#    x 1.969870 0.000000 0.000000 
#    y 0.000000 1.818640 0.000000 
#    z 0.000000 0.000000 1.745880 
# 
# From -- ./inp_files/33455.got.cif
#   From: 2010.05.17/outbox.cif.g08.bks.cpg/sg67_17_cif.got.tgz:33455.got - 2010.06.03 18:28:57.
