data_PCOD9504310
_publ_section_title
;
Structure prediction by ZEFSAII (Michael W. Deem and Ramdas Pophale) SiO2 
 PCOD9504310
Probable space group: C M M A
;
_chemical_formula_sum "Si O2"
_cell_formula_units_Z 96
_cell_length_a 27.743348
_cell_length_b 18.101334
_cell_length_c 11.068199
_cell_angle_alpha 90.000000
_cell_angle_beta 90.000000
_cell_angle_gamma 90.000000
_cell_volume 5558.356658
_symmetry_space_group_name_H-M "C M M A"
_symmetry_group_IT_number 67
_symmetry_cell_setting 'orthorhombic'
loop_
_space_group_symop_operation_xyz
x,y,z
-x,1/2-y,z
x,-y,-z
-x,1/2+y,-z
-x,-y,-z
x,1/2+y,-z
-x,y,z
x,1/2-y,z
1/2+x,1/2+y,z
1/2-x,-y,z
1/2+x,1/2-y,-z
1/2-x,y,-z
1/2-x,1/2-y,-z
1/2+x,y,-z
1/2-x,1/2+y,z
1/2+x,-y,z
loop_
_atom_site_type_symbol
_atom_site_label
_atom_site_fract_x
_atom_site_fract_y
_atom_site_fract_z
Si Si1 0.352935 0.028681 0.864446
Si Si2 0.714439 0.565246 0.686237
Si Si3 0.839927 0.831009 0.496113
Si Si4 0.554041 0.620925 0.527334
Si Si5 0.300103 0.164139 0.767289
Si Si6 0.446485 0.485506 0.706228
O O1 0.329136 0.109794 0.855403
O O2 0.404876 0.028892 0.801178
O O3 0.320003 0.974289 0.782993
O O4 0.354870 0.000000 0.000000
O O5 0.750000 0.500000 0.642731
O O6 0.684395 0.603982 0.580452
O O7 0.747763 0.627912 0.746914
O O8 0.820724 0.750000 0.459176
O O9 0.897336 0.832409 0.476525
O O10 0.826555 0.840875 0.636500
O O11 0.500000 0.654648 0.531819
O O12 0.556128 0.572052 0.405000
O O13 0.558175 0.564741 0.640217
O O14 0.298310 0.250000 0.802360
O O15 0.500000 0.480290 0.759752
#
# Coordination Sequence:
#
# PCOD9504310 Si02
#       6
#    16  16  16  16  16  16
#     4  11  22  37  58  80 104 143 195 227 259 311
#     4  10  22  35  54  80 109 144 184 228 270 316
#     4  11  20  33  55  84 115 144 174 214 282 348
#     4   9  17  31  55  84 110 139 172 216 278 337
#     4  10  22  38  55  79 112 142 175 225 277 326
#     4   9  17  32  56  83 109 135 176 225 271 323
#
# _framework density 17.271291999999999
#
# number of rings (size 3 to 8) (size 9 to 14) (size 15 to 20)
#    0.000    2.000    3.333    2.000    0.000    9.667 
#    0.000    2.500    0.000    0.500    0.000    0.000 
#    0.000    0.000    0.000    0.000    0.000    0.000 
#
# Total GULP energy -267772.003372 kJ/mol
# GULP energy per Si atom -5578.583404 kJ/mol
# Density = 1.723198 g / cm^3
# Si number density = 17.271292 Si / 1000 Ang^3
#
#
#
# Elastic Constant Matrix: (Units=GPa)
#
#
# Indices 1 2 3 4 5 6 
#
# 1 111.0243 42.4673 24.6074 0.0000 0.0000 0.0000
# 2 42.4673 108.9316 35.4720 0.0000 0.0000 0.0000
# 3 24.6074 35.4720 58.9640 0.0000 0.0000 0.0000
# 4 0.0000 0.0000 0.0000 16.5924 0.0000 0.0000
# 5 0.0000 0.0000 0.0000 0.0000 5.9009 0.0000
# 6 0.0000 0.0000 0.0000 0.0000 0.0000 17.5604
#
#
#
# Elastic Compliance Matrix: (Units=1/GPa)
#
#
# Indices 1 2 3 4 5 6 
#
# 1 0.010867 -0.003432 -0.002471 0.000000 0.000000 0.000000
# 2 -0.003432 0.012501 -0.006088 0.000000 0.000000 0.000000
# 3 -0.002471 -0.006088 0.021653 0.000000 0.000000 0.000000
# 4 0.000000 0.000000 0.000000 0.060269 0.000000 0.000000
# 5 0.000000 0.000000 0.000000 0.000000 0.169467 0.000000
# 6 0.000000 0.000000 0.000000 0.000000 0.000000 0.056946
#
#
# Mechanical properties :
#
#
# Convention : Reuss Voigt Hill
#
# Bulk Modulus (GPa) = 47.52905 53.77927 50.65416
# Shear Modulus (GPa) = 13.78561 19.76894 16.77727
#
# Velocity S-wave (km/s) = 2.82827 3.38688 3.12010
# Velocity P-wave (km/s) = 6.18420 6.81910 6.50940
#
# Compressibility (1/GPa) = 0.02103977
#
# Stress axis : x y z
#
# Youngs Moduli (GPa) = 92.01802 79.99649 46.18322
#
# Poissons Ratio (x) = 0.27457 0.11410
# Poissons Ratio (y) = 0.31583 0.28116
# Poissons Ratio (z) = 0.22733 0.48700
#
# Static dielectric constant tensor:
#      x y z
#    x 1.608100 0.000000 0.000000 
#    y 0.000000 1.600100 0.000000 
#    z 0.000000 0.000000 1.545390 
# 
# From -- ./inp_files/22941.got.cif
#   From: 2010.05.17/outbox.cif.g08.bks.cpg/sg67_12_cif.got.tgz:22941.got - 2010.06.03 18:28:57.
