data_PCOD9504188
_publ_section_title
;
Structure prediction by ZEFSAII (Michael W. Deem and Ramdas Pophale) SiO2 
 PCOD9504188
Probable space group: C M M A
;
_chemical_formula_sum "Si O2"
_cell_formula_units_Z 96
_cell_length_a 14.109119
_cell_length_b 14.326064
_cell_length_c 22.886318
_cell_angle_alpha 90.000000
_cell_angle_beta 90.000000
_cell_angle_gamma 90.000000
_cell_volume 4625.968929
_symmetry_space_group_name_H-M "C M M A"
_symmetry_group_IT_number 67
_symmetry_cell_setting 'orthorhombic'
loop_
_space_group_symop_operation_xyz
x,y,z
-x,1/2-y,z
x,-y,-z
-x,1/2+y,-z
-x,-y,-z
x,1/2+y,-z
-x,y,z
x,1/2-y,z
1/2+x,1/2+y,z
1/2-x,-y,z
1/2+x,1/2-y,-z
1/2-x,y,-z
1/2-x,1/2-y,-z
1/2+x,y,-z
1/2-x,1/2+y,z
1/2+x,-y,z
loop_
_atom_site_type_symbol
_atom_site_label
_atom_site_fract_x
_atom_site_fract_y
_atom_site_fract_z
Si Si1 0.104827 0.640355 0.581209
Si Si2 0.222865 0.901628 0.340854
Si Si3 0.385920 0.640770 0.546595
Si Si4 0.887869 0.647854 0.229344
Si Si5 0.755424 0.859886 0.069667
Si Si6 0.612121 0.008128 0.127342
O O1 0.093461 0.750000 0.569117
O O2 0.179059 0.635230 0.633004
O O3 0.140370 0.605082 0.518079
O O4 0.000000 0.601322 0.594248
O O5 0.157454 0.912191 0.398427
O O6 0.168090 0.850524 0.289990
O O7 0.250000 0.000000 0.314759
O O8 0.500000 0.638434 0.548646
O O9 0.355217 0.750000 0.553937
O O10 0.870349 0.750000 0.200229
O O11 0.865538 0.556818 0.190103
O O12 0.000000 0.642798 0.241407
O O13 0.746790 0.750000 0.082355
O O14 0.855852 0.906076 0.086261
O O15 0.676557 0.920962 0.105535
O O16 0.750000 0.872533 0.000000
O O17 0.500000 0.987811 0.124595
#
# Coordination Sequence:
#
# PCOD9504188 Si02
#       6
#    16  16  16  16  16  16
#     4   9  19  36  56  77 104 141 186 237 299 375
#     4  12  24  33  51  81 113 148 186 239 307 380
#     4   9  18  35  58  79 101 136 186 244 302 365
#     4  10  22  41  64  86 109 149 209 270 318 363
#     4  10  22  39  64 101 142 179 214 255 310 375
#     4  10  21  39  65  94 129 173 221 270 314 362
#
# _framework density 20.752409
#
# number of rings (size 3 to 8) (size 9 to 14) (size 15 to 20)
#    0.000    2.000    0.000    5.000    2.333    8.000 
#    0.000    3.333    0.000    0.000    0.000    0.000 
#    0.000    0.000    0.000    0.000    0.000    0.000 
#
# Total GULP energy -267609.029882 kJ/mol
# GULP energy per Si atom -5575.188123 kJ/mol
# Density = 2.070518 g / cm^3
# Si number density = 20.752409 Si / 1000 Ang^3
#
#
#
# Elastic Constant Matrix: (Units=GPa)
#
#
# Indices 1 2 3 4 5 6 
#
# 1 88.7064 24.8537 53.0849 0.0000 0.0000 0.0000
# 2 24.8537 115.5563 33.7266 0.0000 0.0000 0.0000
# 3 53.0849 33.7266 112.1546 0.0000 0.0000 0.0000
# 4 0.0000 0.0000 0.0000 556.3902 0.0000 0.0000
# 5 0.0000 0.0000 0.0000 0.0000 30.9119 0.0000
# 6 0.0000 0.0000 0.0000 0.0000 0.0000 20.7707
#
#
#
# Elastic Compliance Matrix: (Units=1/GPa)
#
#
# Indices 1 2 3 4 5 6 
#
# 1 0.015916 -0.001342 -0.007130 0.000000 0.000000 0.000000
# 2 -0.001342 0.009600 -0.002251 0.000000 0.000000 0.000000
# 3 -0.007130 -0.002251 0.012968 0.000000 0.000000 0.000000
# 4 0.000000 0.000000 0.000000 0.001797 0.000000 0.000000
# 5 0.000000 0.000000 0.000000 0.000000 0.032350 0.000000
# 6 0.000000 0.000000 0.000000 0.000000 0.000000 0.048145
#
#
# Mechanical properties :
#
#
# Convention : Reuss Voigt Hill
#
# Bulk Modulus (GPa) = 58.69692 59.97197 59.33445
# Shear Modulus (GPa) = 33.80641 135.26471 84.53556
#
# Velocity S-wave (km/s) = 4.04051 8.08219 6.38935
# Velocity P-wave (km/s) = 7.07908 10.77298 9.11511
#
# Compressibility (1/GPa) = 0.01703667
#
# Stress axis : x y z
#
# Youngs Moduli (GPa) = 62.83047 104.17116 77.11356
#
# Poissons Ratio (x) = 0.13983 0.54979
# Poissons Ratio (y) = 0.08434 0.17361
# Poissons Ratio (z) = 0.44796 0.23453
#
# Static dielectric constant tensor:
#      x y z
#    x 1.750010 0.000000 0.000000 
#    y 0.000000 1.886900 0.000000 
#    z 0.000000 0.000000 1.751130 
# 
# From -- ./inp_files/38449.got.cif
#   From: 2010.05.17/outbox.cif.g08.bks.cpg/sg67_20_cif.got.tgz:38449.got - 2010.06.03 18:28:57.
