data_PCOD9504080
_publ_section_title
;
Structure prediction by ZEFSAII (Michael W. Deem and Ramdas Pophale) SiO2 
 PCOD9504080
Probable space group: C M M A
;
_chemical_formula_sum "Si O2"
_cell_formula_units_Z 64
_cell_length_a 18.431593
_cell_length_b 10.677889
_cell_length_c 16.501274
_cell_angle_alpha 90.000000
_cell_angle_beta 90.000000
_cell_angle_gamma 90.000000
_cell_volume 3247.624055
_symmetry_space_group_name_H-M "C M M A"
_symmetry_group_IT_number 67
_symmetry_cell_setting 'orthorhombic'
loop_
_space_group_symop_operation_xyz
x,y,z
-x,1/2-y,z
x,-y,-z
-x,1/2+y,-z
-x,-y,-z
x,1/2+y,-z
-x,y,z
x,1/2-y,z
1/2+x,1/2+y,z
1/2-x,-y,z
1/2+x,1/2-y,-z
1/2-x,y,-z
1/2-x,1/2-y,-z
1/2+x,y,-z
1/2-x,1/2+y,z
1/2+x,-y,z
loop_
_atom_site_type_symbol
_atom_site_label
_atom_site_fract_x
_atom_site_fract_y
_atom_site_fract_z
Si Si1 0.785425 0.383610 0.588951
Si Si2 0.079622 0.601833 0.326573
Si Si3 0.328907 0.250000 0.048964
Si Si4 0.835870 0.010145 0.831385
Si Si5 0.412451 0.250000 0.889113
O O1 0.771314 0.250000 0.629080
O O2 0.750000 0.500000 0.632049
O O3 0.750000 0.377447 0.500000
O O4 0.870666 0.408746 0.593353
O O5 0.073227 0.750000 0.312482
O O6 0.121910 0.548623 0.249889
O O7 0.000000 0.546320 0.335349
O O8 0.338630 0.375836 0.102927
O O9 0.250000 0.250000 0.000000
O O10 0.393258 0.250000 0.983906
O O11 0.750000 0.000000 0.817304
O O12 0.872528 0.877617 0.857726
O O13 0.500000 0.250000 0.873653
#
# Coordination Sequence:
#
# PCOD9504080 Si02
#       5
#    16  16   8  16   8
#     4   9  18  36  62  89 120 157 201 250 301 374
#     4  10  21  38  61  92 126 163 212 263 315 375
#     4  12  24  44  66  94 125 171 227 268 322 401
#     4  12  23  42  68  90 127 175 220 268 326 396
#     4  12  28  42  62  98 135 165 217 290 341 381
#
# _framework density 19.706714999999999
#
# number of rings (size 3 to 8) (size 9 to 14) (size 15 to 20)
#    0.000    1.250    3.750    2.250    0.000    3.000 
#    2.250    2.500    0.000    1.500    0.000    0.000 
#    0.000    0.000    0.000    0.000    0.000    0.000 
#
# Total GULP energy -178140.173644 kJ/mol
# GULP energy per Si atom -5566.880426 kJ/mol
# Density = 1.966186 g / cm^3
# Si number density = 19.706715 Si / 1000 Ang^3
#
#
#
# Elastic Constant Matrix: (Units=GPa)
#
#
# Indices 1 2 3 4 5 6 
#
# 1 198.7423 72.0077 67.5697 0.0000 0.0000 0.0000
# 2 72.0077 142.8234 34.4011 0.0000 0.0000 0.0000
# 3 67.5697 34.4011 96.6576 0.0000 0.0000 0.0000
# 4 0.0000 0.0000 0.0000 -2.7512 0.0000 0.0000
# 5 0.0000 0.0000 0.0000 0.0000 20.7498 0.0000
# 6 0.0000 0.0000 0.0000 0.0000 0.0000 21.8855
#
#
#
# Elastic Compliance Matrix: (Units=1/GPa)
#
#
# Indices 1 2 3 4 5 6 
#
# 1 0.007469 -0.002743 -0.004245 0.000000 0.000000 0.000000
# 2 -0.002743 0.008666 -0.001167 0.000000 0.000000 0.000000
# 3 -0.004245 -0.001167 0.013728 0.000000 0.000000 0.000000
# 4 0.000000 0.000000 0.000000 -0.363479 0.000000 0.000000
# 5 0.000000 0.000000 0.000000 0.000000 0.048193 0.000000
# 6 0.000000 0.000000 0.000000 0.000000 0.000000 0.045692
#
#
# Mechanical properties :
#
#
# Convention : Reuss Voigt Hill
#
# Bulk Modulus (GPa) = 73.78015 87.35338 80.56677
# Shear Modulus (GPa) = -22.84107 25.59313 1.37603
#
# Velocity S-wave (km/s) = -3.40818 3.60766 0.83652
# Velocity P-wave (km/s) = 4.69391 7.85981 6.47338
#
# Compressibility (1/GPa) = 0.01355378
#
# Stress axis : x y z
#
# Youngs Moduli (GPa) = 133.89241 115.39845 72.84186
#
# Poissons Ratio (x) = 0.31655 0.30920
# Poissons Ratio (y) = 0.36728 0.08497
# Poissons Ratio (z) = 0.56835 0.13462
#
# Static dielectric constant tensor:
#      x y z
#    x 1.742900 0.000000 0.000000 
#    y 0.000000 1.756850 0.000000 
#    z 0.000000 0.000000 1.727650 
# 
# From -- ./inp_files/33987.got.cif
#   From: 2010.05.17/outbox.cif.g08.bks.cpg/sg67_17_cif.got.tgz:33987.got - 2010.06.03 18:28:57.
