data_PCOD9504078
_publ_section_title
;
Structure prediction by ZEFSAII (Michael W. Deem and Ramdas Pophale) SiO2 
 PCOD9504078
Probable space group: C M M A
;
_chemical_formula_sum "Si O2"
_cell_formula_units_Z 52
_cell_length_a 15.554870
_cell_length_b 9.190928
_cell_length_c 17.669580
_cell_angle_alpha 90.000000
_cell_angle_beta 90.000000
_cell_angle_gamma 90.000000
_cell_volume 2526.108361
_symmetry_space_group_name_H-M "C M M A"
_symmetry_group_IT_number 67
_symmetry_cell_setting 'orthorhombic'
loop_
_space_group_symop_operation_xyz
x,y,z
-x,1/2-y,z
x,-y,-z
-x,1/2+y,-z
-x,-y,-z
x,1/2+y,-z
-x,y,z
x,1/2-y,z
1/2+x,1/2+y,z
1/2-x,-y,z
1/2+x,1/2-y,-z
1/2-x,y,-z
1/2-x,1/2-y,-z
1/2+x,y,-z
1/2-x,1/2+y,z
1/2+x,-y,z
loop_
_atom_site_type_symbol
_atom_site_label
_atom_site_fract_x
_atom_site_fract_y
_atom_site_fract_z
Si Si1 0.750000 0.000000 0.500000
Si Si2 0.897240 0.084714 0.926397
Si Si3 0.342329 0.925928 0.225174
Si Si4 0.593105 0.577311 0.388489
O O1 0.677687 0.054697 0.560473
O O2 0.862659 0.250000 0.920076
O O3 0.000000 0.096246 0.935573
O O4 0.881077 0.991806 0.851232
O O5 0.862894 0.000000 0.000000
O O6 0.338110 0.750000 0.221234
O O7 0.391927 0.969283 0.301811
O O8 0.250000 0.000000 0.232570
O O9 0.500000 0.515616 0.414393
O O10 0.585036 0.750000 0.386655
#
# Coordination Sequence:
#
# PCOD9504078 Si02
#       4
#     4  16  16  16
#     4  12  20  40  64  92 126 160 212 264 322 382
#     4  10  21  38  61  91 125 163 210 261 315 377
#     4  11  22  39  61  87 124 166 213 266 322 380
#     4  10  22  39  61  90 125 167 212 262 323 386
#
# _framework density 20.585024000000001
#
# number of rings (size 3 to 8) (size 9 to 14) (size 15 to 20)
#    0.000    1.538    1.538    3.692    0.000    3.692 
#    0.000    3.077    0.000    7.385    0.000    0.000 
#    0.000    0.000    0.000    0.000    0.000    0.000 
#
# Total GULP energy -144767.190256 kJ/mol
# GULP energy per Si atom -5567.968856 kJ/mol
# Density = 2.053817 g / cm^3
# Si number density = 20.585024 Si / 1000 Ang^3
#
#
#
# Elastic Constant Matrix: (Units=GPa)
#
#
# Indices 1 2 3 4 5 6 
#
# 1 112.3020 28.7361 45.8133 0.0000 0.0000 0.0000
# 2 28.7361 89.1457 58.3058 0.0000 0.0000 0.0000
# 3 45.8133 58.3058 180.2983 0.0000 0.0000 0.0000
# 4 0.0000 0.0000 0.0000 67.5957 0.0000 0.0000
# 5 0.0000 0.0000 0.0000 0.0000 53.1347 0.0000
# 6 0.0000 0.0000 0.0000 0.0000 0.0000 24.4174
#
#
#
# Elastic Compliance Matrix: (Units=1/GPa)
#
#
# Indices 1 2 3 4 5 6 
#
# 1 0.010214 -0.002023 -0.001941 0.000000 0.000000 0.000000
# 2 -0.002023 0.014627 -0.004216 0.000000 0.000000 0.000000
# 3 -0.001941 -0.004216 0.007403 0.000000 0.000000 0.000000
# 4 0.000000 0.000000 0.000000 0.014794 0.000000 0.000000
# 5 0.000000 0.000000 0.000000 0.000000 0.018820 0.000000
# 6 0.000000 0.000000 0.000000 0.000000 0.000000 0.040954
#
#
# Mechanical properties :
#
#
# Convention : Reuss Voigt Hill
#
# Bulk Modulus (GPa) = 62.95704 71.93958 67.44831
# Shear Modulus (GPa) = 38.92016 45.62229 42.27123
#
# Velocity S-wave (km/s) = 4.35294 4.71285 4.53647
# Velocity P-wave (km/s) = 7.47759 8.03978 7.76378
#
# Compressibility (1/GPa) = 0.01588385
#
# Stress axis : x y z
#
# Youngs Moduli (GPa) = 97.90402 68.36533 135.07873
#
# Poissons Ratio (x) = 0.13829 0.26222
# Poissons Ratio (y) = 0.19805 0.56953
# Poissons Ratio (z) = 0.19005 0.28825
#
# Static dielectric constant tensor:
#      x y z
#    x 1.799450 0.000000 0.000000 
#    y 0.000000 1.720040 0.000000 
#    z 0.000000 0.000000 1.773090 
# 
# From -- ./inp_files/31547.got.cif
#   From: 2010.05.17/outbox.cif.g08.bks.cpg/sg67_16_cif.got.tgz:31547.got - 2010.06.03 18:28:57.
