data_PCOD9504946
_publ_section_title
;
Structure prediction by ZEFSAII (Michael W. Deem and Ramdas Pophale) SiO2 
 PCOD9504946
Probable space group: C M M A
;
_chemical_formula_sum "Si O2"
_cell_formula_units_Z 48
_cell_length_a 15.512621
_cell_length_b 12.723402
_cell_length_c 12.736387
_cell_angle_alpha 90.000000
_cell_angle_beta 90.000000
_cell_angle_gamma 90.000000
_cell_volume 2513.822899
_symmetry_space_group_name_H-M "C M M A"
_symmetry_group_IT_number 67
_symmetry_cell_setting 'orthorhombic'
loop_
_space_group_symop_operation_xyz
x,y,z
-x,1/2-y,z
x,-y,-z
-x,1/2+y,-z
-x,-y,-z
x,1/2+y,-z
-x,y,z
x,1/2-y,z
1/2+x,1/2+y,z
1/2-x,-y,z
1/2+x,1/2-y,-z
1/2-x,y,-z
1/2-x,1/2-y,-z
1/2+x,y,-z
1/2-x,1/2+y,z
1/2+x,-y,z
loop_
_atom_site_type_symbol
_atom_site_label
_atom_site_fract_x
_atom_site_fract_y
_atom_site_fract_z
Si Si1 0.000000 0.750000 0.397457
Si Si2 0.500000 0.427363 0.223025
Si Si3 0.324446 0.750000 0.085499
Si Si4 0.598355 0.750000 0.398748
Si Si5 0.000000 0.250000 0.954515
Si Si6 0.666743 0.570616 0.257303
O O1 0.000000 0.850884 0.323804
O O2 0.918733 0.750000 0.477008
O O3 0.584738 0.498907 0.229456
O O4 0.500000 0.352035 0.121310
O O5 0.415914 0.750000 0.027070
O O6 0.316802 0.851163 0.160155
O O7 0.250000 0.750000 0.000000
O O8 0.500000 0.750000 0.352897
O O9 0.644048 0.646499 0.354997
O O10 0.750000 0.500000 0.277222
#
# Coordination Sequence:
#
# PCOD9504946 Si02
#       6
#     4   8   8   8   4  16
#     4   9  22  41  68  86 128 165 198 263 318 366
#     4  11  22  41  60  92 126 165 212 259 314 362
#     4  11  24  41  58  89 128 164 209 257 313 363
#     4   9  20  43  66  89 122 167 201 254 317 368
#     4  11  24  35  60  88 122 169 214 255 298 380
#     4  11  23  39  66  92 124 164 211 259 311 373
#
# _framework density 19.094422999999999
#
# number of rings (size 3 to 8) (size 9 to 14) (size 15 to 20)
#    0.500    1.000    1.667    3.000    2.333   12.667 
#    0.000    5.000    0.000    0.000    0.000    0.000 
#    0.000    0.000    0.000    0.000    0.000    0.000 
#
# Total GULP energy -134122.373364 kJ/mol
# GULP energy per Si atom -5588.432223 kJ/mol
# Density = 1.905096 g / cm^3
# Si number density = 19.094423 Si / 1000 Ang^3
#
#
#
# Elastic Constant Matrix: (Units=GPa)
#
#
# Indices 1 2 3 4 5 6 
#
# 1 136.6063 63.4704 22.9571 0.0000 0.0000 0.0000
# 2 63.4704 144.2040 43.4081 0.0000 0.0000 0.0000
# 3 22.9571 43.4081 97.8438 0.0000 0.0000 0.0000
# 4 0.0000 0.0000 0.0000 1.2193 0.0000 0.0000
# 5 0.0000 0.0000 0.0000 0.0000 -23.9774 0.0000
# 6 0.0000 0.0000 0.0000 0.0000 0.0000 28.3593
#
#
#
# Elastic Compliance Matrix: (Units=1/GPa)
#
#
# Indices 1 2 3 4 5 6 
#
# 1 0.009217 -0.003931 -0.000419 0.000000 0.000000 0.000000
# 2 -0.003931 0.009680 -0.003372 0.000000 0.000000 0.000000
# 3 -0.000419 -0.003372 0.011815 0.000000 0.000000 0.000000
# 4 0.000000 0.000000 0.000000 0.820165 0.000000 0.000000
# 5 0.000000 0.000000 0.000000 0.000000 -0.041706 0.000000
# 6 0.000000 0.000000 0.000000 0.000000 0.000000 0.035262
#
#
# Mechanical properties :
#
#
# Convention : Reuss Voigt Hill
#
# Bulk Modulus (GPa) = 65.49549 70.92501 68.21025
# Shear Modulus (GPa) = 5.78058 17.70812 11.74435
#
# Velocity S-wave (km/s) = 1.74182 3.04862 2.48275
# Velocity P-wave (km/s) = 6.19843 7.04394 6.63467
#
# Compressibility (1/GPa) = 0.01526823
#
# Stress axis : x y z
#
# Youngs Moduli (GPa) = 108.49530 103.30799 84.64068
#
# Poissons Ratio (x) = 0.40608 0.03544
# Poissons Ratio (y) = 0.42647 0.28542
# Poissons Ratio (z) = 0.04543 0.34837
#
# Static dielectric constant tensor:
#      x y z
#    x 1.638420 0.000000 0.000000 
#    y 0.000000 1.639260 0.000000 
#    z 0.000000 0.000000 1.643590 
# 
# From -- ./inp_files/18836.got.cif
#   From: 2010.05.17/outbox.cif.g08.bks.cpg/sg67_10_cif.got.tgz:18836.got - 2010.06.03 18:28:57.
