data_PCOD9504608
_publ_section_title
;
Structure prediction by ZEFSAII (Michael W. Deem and Ramdas Pophale) SiO2 
 PCOD9504608
Probable space group: C M M A
;
_chemical_formula_sum "Si O2"
_cell_formula_units_Z 112
_cell_length_a 15.099983
_cell_length_b 15.471860
_cell_length_c 23.618173
_cell_angle_alpha 90.000000
_cell_angle_beta 90.000000
_cell_angle_gamma 90.000000
_cell_volume 5517.791486
_symmetry_space_group_name_H-M "C M M A"
_symmetry_group_IT_number 67
_symmetry_cell_setting 'orthorhombic'
loop_
_space_group_symop_operation_xyz
x,y,z
-x,1/2-y,z
x,-y,-z
-x,1/2+y,-z
-x,-y,-z
x,1/2+y,-z
-x,y,z
x,1/2-y,z
1/2+x,1/2+y,z
1/2-x,-y,z
1/2+x,1/2-y,-z
1/2-x,y,-z
1/2-x,1/2-y,-z
1/2+x,y,-z
1/2-x,1/2+y,z
1/2+x,-y,z
loop_
_atom_site_type_symbol
_atom_site_label
_atom_site_fract_x
_atom_site_fract_y
_atom_site_fract_z
Si Si1 0.906290 0.425144 0.687167
Si Si2 0.106056 0.501926 0.068075
Si Si3 0.746342 0.357127 0.892552
Si Si4 0.406086 0.628830 0.319088
Si Si5 0.145969 0.145621 0.566554
Si Si6 0.651892 0.350876 0.554651
Si Si7 0.759171 0.155861 0.759544
O O1 0.907673 0.526840 0.684095
O O2 0.894240 0.391824 0.623325
O O3 0.826917 0.405021 0.728456
O O4 0.000000 0.391152 0.709374
O O5 0.166125 0.586247 0.087662
O O6 0.161819 0.414734 0.085769
O O7 0.000000 0.503804 0.086039
O O8 0.105796 0.500000 0.000000
O O9 0.747301 0.250000 0.905667
O O10 0.741094 0.364397 0.824481
O O11 0.500000 0.661228 0.298260
O O12 0.396358 0.646361 0.385842
O O13 0.326917 0.658759 0.279882
O O14 0.139674 0.250000 0.572543
O O15 0.248755 0.115822 0.565010
O O16 0.110937 0.116813 0.504534
O O17 0.665453 0.250000 0.542209
O O18 0.802291 0.250000 0.758004
#
# Coordination Sequence:
#
# PCOD9504608 Si02
#       7
#    16  16  16  16  16  16  16
#     4  11  24  38  56  84 115 150 193 246 311 377
#     4  10  23  43  70 107 147 184 223 275 333 383
#     4  10  23  42  68 100 137 187 237 277 326 392
#     4  11  24  38  56  84 115 150 193 246 311 377
#     4   9  18  34  56  79 105 142 188 242 307 375
#     4   9  18  34  56  79 105 142 188 242 307 375
#     4  11  24  42  62  86 119 160 207 257 303 356
#
# _framework density 20.297975999999998
#
# number of rings (size 3 to 8) (size 9 to 14) (size 15 to 20)
#    0.000    1.857    1.429    3.000    4.000    6.286 
#    0.000    8.571    0.000    0.000    0.000    0.000 
#    0.000    0.000    0.000    0.000    0.000    0.000 
#
# Total GULP energy -311775.228774 kJ/mol
# GULP energy per Si atom -5567.414800 kJ/mol
# Density = 2.025178 g / cm^3
# Si number density = 20.297976 Si / 1000 Ang^3
#
#
#
# Elastic Constant Matrix: (Units=GPa)
#
#
# Indices 1 2 3 4 5 6 
#
# 1 120.1113 58.7771 24.9028 0.0000 0.0000 0.0000
# 2 58.7771 123.3184 52.6440 0.0000 0.0000 0.0000
# 3 24.9028 52.6440 81.5497 0.0000 0.0000 0.0000
# 4 0.0000 0.0000 0.0000 34.3346 0.0000 0.0000
# 5 0.0000 0.0000 0.0000 0.0000 23.4007 0.0000
# 6 0.0000 0.0000 0.0000 0.0000 0.0000 23.6704
#
#
#
# Elastic Compliance Matrix: (Units=1/GPa)
#
#
# Indices 1 2 3 4 5 6 
#
# 1 0.010858 -0.005190 0.000035 0.000000 0.000000 0.000000
# 2 -0.005190 0.013675 -0.007243 0.000000 0.000000 0.000000
# 3 0.000035 -0.007243 0.016927 0.000000 0.000000 0.000000
# 4 0.000000 0.000000 0.000000 0.029125 0.000000 0.000000
# 5 0.000000 0.000000 0.000000 0.000000 0.042734 0.000000
# 6 0.000000 0.000000 0.000000 0.000000 0.000000 0.042247
#
#
# Mechanical properties :
#
#
# Convention : Reuss Voigt Hill
#
# Bulk Modulus (GPa) = 60.00970 66.40303 63.20636
# Shear Modulus (GPa) = 26.89366 28.85816 27.87591
#
# Velocity S-wave (km/s) = 3.64393 3.77467 3.70987
# Velocity P-wave (km/s) = 6.87989 7.19602 7.03972
#
# Compressibility (1/GPa) = 0.01666397
#
# Stress axis : x y z
#
# Youngs Moduli (GPa) = 92.09584 73.12728 59.07581
#
# Poissons Ratio (x) = 0.37954 -0.00205
# Poissons Ratio (y) = 0.47799 0.42787
# Poissons Ratio (z) = -0.00320 0.52964
#
# Static dielectric constant tensor:
#      x y z
#    x 1.786620 0.000000 0.000000 
#    y 0.000000 1.750460 0.000000 
#    z 0.000000 0.000000 1.759740 
# 
# From -- ./inp_files/41994.got.cif
#   From: 2010.05.17/outbox.cif.g08.bks.cpg/sg67_21_cif.got.tgz:41994.got - 2010.06.03 18:28:57.
