data_PCOD9504938
_publ_section_title
;
Structure prediction by ZEFSAII (Michael W. Deem and Ramdas Pophale) SiO2 
 PCOD9504938
Probable space group: C M M A
;
_chemical_formula_sum "Si O2"
_cell_formula_units_Z 72
_cell_length_a 9.358672
_cell_length_b 14.512035
_cell_length_c 24.345252
_cell_angle_alpha 90.000000
_cell_angle_beta 90.000000
_cell_angle_gamma 90.000000
_cell_volume 3306.410854
_symmetry_space_group_name_H-M "C M M A"
_symmetry_group_IT_number 67
_symmetry_cell_setting 'orthorhombic'
loop_
_space_group_symop_operation_xyz
x,y,z
-x,1/2-y,z
x,-y,-z
-x,1/2+y,-z
-x,-y,-z
x,1/2+y,-z
-x,y,z
x,1/2-y,z
1/2+x,1/2+y,z
1/2-x,-y,z
1/2+x,1/2-y,-z
1/2-x,y,-z
1/2-x,1/2-y,-z
1/2+x,y,-z
1/2-x,1/2+y,z
1/2+x,-y,z
loop_
_atom_site_type_symbol
_atom_site_label
_atom_site_fract_x
_atom_site_fract_y
_atom_site_fract_z
Si Si1 0.655247 0.351038 0.654064
Si Si2 0.663218 0.362536 0.053261
Si Si3 0.168713 0.646463 0.172019
Si Si4 0.250000 0.500000 0.737711
Si Si5 0.328413 0.400750 0.447161
O O1 0.500000 0.357146 0.625078
O O2 0.662011 0.250000 0.681146
O O3 0.662115 0.434703 0.696515
O O4 0.781772 0.355928 0.610037
O O5 0.500000 0.395156 0.048691
O O6 0.660763 0.250000 0.053379
O O7 0.728474 0.386495 0.113006
O O8 0.750000 0.391909 0.000000
O O9 0.223460 0.750000 0.184723
O O10 0.183719 0.574870 0.221145
O O11 0.000000 0.655202 0.161878
O O12 0.500000 0.406108 0.453495
O O13 0.250000 0.500000 0.443117
O O14 0.250000 0.356806 0.500000
#
# Coordination Sequence:
#
# PCOD9504938 Si02
#       5
#    16  16  16   8  16
#     4  11  25  43  63  92 130 168 210 262 315 368
#     4   8  14  28  52  81 113 149 192 245 302 365
#     4   9  19  36  58  85 117 156 203 253 309 373
#     4  12  22  38  64  86 118 162 212 264 306 366
#     4  11  22  40  69 100 133 168 206 253 309 373
#
# _framework density 21.775877000000001
#
# number of rings (size 3 to 8) (size 9 to 14) (size 15 to 20)
#    0.000    2.000    1.111    5.333    0.000    1.778 
#    0.000    2.778    0.000    8.000    0.000    0.000 
#    0.000    0.000    0.000    0.000    0.000    0.889 
#
# Total GULP energy -200633.998909 kJ/mol
# GULP energy per Si atom -5573.166636 kJ/mol
# Density = 2.172631 g / cm^3
# Si number density = 21.775877 Si / 1000 Ang^3
#
#
#
# Elastic Constant Matrix: (Units=GPa)
#
#
# Indices 1 2 3 4 5 6 
#
# 1 121.3912 27.6243 55.8350 0.0000 0.0000 0.0000
# 2 27.6243 126.5776 45.7975 0.0000 0.0000 0.0000
# 3 55.8350 45.7975 137.3420 0.0000 0.0000 0.0000
# 4 0.0000 0.0000 0.0000 -5.6991 0.0000 0.0000
# 5 0.0000 0.0000 0.0000 0.0000 23.3318 0.0000
# 6 0.0000 0.0000 0.0000 0.0000 0.0000 -3.9632
#
#
#
# Elastic Compliance Matrix: (Units=1/GPa)
#
#
# Indices 1 2 3 4 5 6 
#
# 1 0.010208 -0.000826 -0.003875 0.000000 0.000000 0.000000
# 2 -0.000826 0.009051 -0.002682 0.000000 0.000000 0.000000
# 3 -0.003875 -0.002682 0.009751 0.000000 0.000000 0.000000
# 4 0.000000 0.000000 0.000000 -0.175467 0.000000 0.000000
# 5 0.000000 0.000000 0.000000 0.000000 0.042860 0.000000
# 6 0.000000 0.000000 0.000000 0.000000 0.000000 -0.252318
#
#
# Mechanical properties :
#
#
# Convention : Reuss Voigt Hill
#
# Bulk Modulus (GPa) = 70.20468 71.53602 70.87035
# Shear Modulus (GPa) = -14.86318 19.80417 2.47049
#
# Velocity S-wave (km/s) = -2.61540 3.01899 1.06629
# Velocity P-wave (km/s) = 4.81552 6.71377 5.84226
#
# Compressibility (1/GPa) = 0.01424406
#
# Stress axis : x y z
#
# Youngs Moduli (GPa) = 97.96336 110.48434 102.55693
#
# Poissons Ratio (x) = 0.09125 0.39736
# Poissons Ratio (y) = 0.08091 0.27509
# Poissons Ratio (z) = 0.37956 0.29636
#
# Static dielectric constant tensor:
#      x y z
#    x 1.776480 0.000000 0.000000 
#    y 0.000000 1.848770 0.000000 
#    z 0.000000 0.000000 1.844320 
# 
# From -- ./inp_files/43099.got.cif
#   From: 2010.05.17/outbox.cif.g08.bks.cpg/sg67_22_cif.got.tgz:43099.got - 2010.06.03 18:28:57.
