data_PCOD9504836
_publ_section_title
;
Structure prediction by ZEFSAII (Michael W. Deem and Ramdas Pophale) SiO2 
 PCOD9504836
Probable space group: C M M A
;
_chemical_formula_sum "Si O2"
_cell_formula_units_Z 96
_cell_length_a 19.330786
_cell_length_b 15.446953
_cell_length_c 14.565433
_cell_angle_alpha 90.000000
_cell_angle_beta 90.000000
_cell_angle_gamma 90.000000
_cell_volume 4349.263678
_symmetry_space_group_name_H-M "C M M A"
_symmetry_group_IT_number 67
_symmetry_cell_setting 'orthorhombic'
loop_
_space_group_symop_operation_xyz
x,y,z
-x,1/2-y,z
x,-y,-z
-x,1/2+y,-z
-x,-y,-z
x,1/2+y,-z
-x,y,z
x,1/2-y,z
1/2+x,1/2+y,z
1/2-x,-y,z
1/2+x,1/2-y,-z
1/2-x,y,-z
1/2-x,1/2-y,-z
1/2+x,y,-z
1/2-x,1/2+y,z
1/2+x,-y,z
loop_
_atom_site_type_symbol
_atom_site_label
_atom_site_fract_x
_atom_site_fract_y
_atom_site_fract_z
Si Si1 0.339138 0.750000 0.916810
Si Si2 0.341111 0.648932 0.402095
Si Si3 0.575551 0.376600 0.831934
Si Si4 0.421809 0.089583 0.038795
Si Si5 0.818967 0.649852 0.378959
Si Si6 0.689134 0.750000 0.138595
Si Si7 0.420245 0.992729 0.692396
O O1 0.380730 0.839670 0.902811
O O2 0.271033 0.750000 0.854043
O O3 0.319889 0.750000 0.026732
O O4 0.359226 0.750000 0.384388
O O5 0.262766 0.632128 0.367126
O O6 0.335546 0.639443 0.512409
O O7 0.393795 0.578292 0.362289
O O8 0.500000 0.348587 0.792487
O O9 0.647473 0.328536 0.814614
O O10 0.583446 0.474427 0.797450
O O11 0.568979 0.364416 0.939844
O O12 0.500000 0.072831 0.072182
O O13 0.388503 0.000000 0.000000
O O14 0.831657 0.750000 0.355676
O O15 0.868523 0.584487 0.326907
O O16 0.500000 0.972499 0.669679
#
# Coordination Sequence:
#
# PCOD9504836 Si02
#       7
#     8  16  16  16  16   8  16
#     4   9  17  31  53  85 109 133 185 235 275 323
#     4   9  19  36  58  80 106 147 196 242 289 352
#     4   9  19  34  53  77 108 150 189 219 275 351
#     4   9  17  33  58  80 108 149 190 227 271 336
#     4   9  19  38  59  77 105 152 201 239 286 349
#     4   9  17  33  53  75 109 142 175 226 279 326
#     4  11  22  33  53  85 118 146 184 239 293 347
#
# _framework density 22.072700999999999
#
# number of rings (size 3 to 8) (size 9 to 14) (size 15 to 20)
#    0.000    2.667    0.000    2.500    1.167    5.333 
#    0.000   11.667    1.833    0.000    0.000    0.000 
#    0.000    0.000    0.000    0.000    0.000    0.000 
#
# Total GULP energy -267531.036586 kJ/mol
# GULP energy per Si atom -5573.563262 kJ/mol
# Density = 2.202246 g / cm^3
# Si number density = 22.072701 Si / 1000 Ang^3
#
#
#
# Elastic Constant Matrix: (Units=GPa)
#
#
# Indices 1 2 3 4 5 6 
#
# 1 147.9209 91.5780 36.3728 0.0000 0.0000 0.0000
# 2 91.5780 120.8050 15.2840 0.0000 0.0000 0.0000
# 3 36.3728 15.2840 53.9640 0.0000 0.0000 0.0000
# 4 0.0000 0.0000 0.0000 23.4736 0.0000 0.0000
# 5 0.0000 0.0000 0.0000 0.0000 27.9631 0.0000
# 6 0.0000 0.0000 0.0000 0.0000 0.0000 48.1412
#
#
#
# Elastic Compliance Matrix: (Units=1/GPa)
#
#
# Indices 1 2 3 4 5 6 
#
# 1 0.014995 -0.010463 -0.007143 0.000000 0.000000 0.000000
# 2 -0.010463 0.015887 0.002553 0.000000 0.000000 0.000000
# 3 -0.007143 0.002553 0.022622 0.000000 0.000000 0.000000
# 4 0.000000 0.000000 0.000000 0.042601 0.000000 0.000000
# 5 0.000000 0.000000 0.000000 0.000000 0.035761 0.000000
# 6 0.000000 0.000000 0.000000 0.000000 0.000000 0.020772
#
#
# Mechanical properties :
#
#
# Convention : Reuss Voigt Hill
#
# Bulk Modulus (GPa) = 42.74108 67.68438 55.21273
# Shear Modulus (GPa) = 26.24063 31.87924 29.05994
#
# Velocity S-wave (km/s) = 3.45168 3.80450 3.63237
# Velocity P-wave (km/s) = 5.94064 7.07317 6.53150
#
# Compressibility (1/GPa) = 0.02339670
#
# Stress axis : x y z
#
# Youngs Moduli (GPa) = 66.69084 62.94637 44.20380
#
# Poissons Ratio (x) = 0.65861 0.31576
# Poissons Ratio (y) = 0.69779 -0.11285
# Poissons Ratio (z) = 0.47639 -0.16069
#
# Static dielectric constant tensor:
#      x y z
#    x 1.802820 0.000000 0.000000 
#    y 0.000000 1.868580 0.000000 
#    z 0.000000 0.000000 1.911130 
# 
# From -- ./inp_files/29349.got.cif
#   From: 2010.05.17/outbox.cif.g08.bks.cpg/sg67_15_cif.got.tgz:29349.got - 2010.06.03 18:28:57.
