data_PCOD9504218
_publ_section_title
;
Structure prediction by ZEFSAII (Michael W. Deem and Ramdas Pophale) SiO2 
 PCOD9504218
Probable space group: C M M A
;
_chemical_formula_sum "Si O2"
_cell_formula_units_Z 68
_cell_length_a 21.369936
_cell_length_b 9.380014
_cell_length_c 17.115215
_cell_angle_alpha 90.000000
_cell_angle_beta 90.000000
_cell_angle_gamma 90.000000
_cell_volume 3430.749962
_symmetry_space_group_name_H-M "C M M A"
_symmetry_group_IT_number 67
_symmetry_cell_setting 'orthorhombic'
loop_
_space_group_symop_operation_xyz
x,y,z
-x,1/2-y,z
x,-y,-z
-x,1/2+y,-z
-x,-y,-z
x,1/2+y,-z
-x,y,z
x,1/2-y,z
1/2+x,1/2+y,z
1/2-x,-y,z
1/2+x,1/2-y,-z
1/2-x,y,-z
1/2-x,1/2-y,-z
1/2+x,y,-z
1/2-x,1/2+y,z
1/2+x,-y,z
loop_
_atom_site_type_symbol
_atom_site_label
_atom_site_fract_x
_atom_site_fract_y
_atom_site_fract_z
Si Si1 0.658931 0.250000 0.933517
Si Si2 0.395546 0.972533 0.863183
Si Si3 0.203549 0.750000 0.113218
Si Si4 0.312554 0.076390 0.584013
Si Si5 0.000000 0.750000 0.087305
Si Si6 0.069301 0.920640 0.693282
O O1 0.619036 0.387687 0.912677
O O2 0.722134 0.250000 0.881386
O O3 0.683625 0.250000 0.021711
O O4 0.330380 0.888015 0.852626
O O5 0.445184 0.872792 0.905668
O O6 0.421191 0.010425 0.777815
O O7 0.305130 0.250000 0.577292
O O8 0.373317 0.045502 0.636378
O O9 0.321242 0.000000 0.500000
O O10 0.250000 0.000000 0.617025
O O11 0.070298 0.750000 0.704094
O O12 0.000000 0.960480 0.662900
#
# Coordination Sequence:
#
# PCOD9504218 Si02
#       6
#     8  16   8  16   4  16
#     4  11  22  41  67  87 122 172 198 259 335 381
#     4  11  21  41  62  88 127 162 209 260 316 370
#     4  10  24  40  61  97 124 150 215 266 312 388
#     4  10  21  40  62  94 129 164 206 254 309 370
#     4  10  24  40  58  90 124 156 212 266 296 372
#     4  10  21  40  66  88 122 168 213 253 308 380
#
# _framework density 19.820739
#
# number of rings (size 3 to 8) (size 9 to 14) (size 15 to 20)
#    0.000    1.647    2.353    2.824    0.000    4.706 
#    8.471    9.412    0.000    0.000    0.000    0.000 
#    0.000    0.000    0.000    0.000    0.000    0.000 
#
# Total GULP energy -189371.260913 kJ/mol
# GULP energy per Si atom -5569.742968 kJ/mol
# Density = 1.977563 g / cm^3
# Si number density = 19.820739 Si / 1000 Ang^3
#
#
#
# Elastic Constant Matrix: (Units=GPa)
#
#
# Indices 1 2 3 4 5 6 
#
# 1 176.8316 74.5465 46.1915 0.0000 0.0000 0.0000
# 2 74.5465 126.6924 29.3673 0.0000 0.0000 0.0000
# 3 46.1915 29.3673 44.5434 0.0000 0.0000 0.0000
# 4 0.0000 0.0000 0.0000 19.8338 0.0000 0.0000
# 5 0.0000 0.0000 0.0000 0.0000 -27.3240 0.0000
# 6 0.0000 0.0000 0.0000 0.0000 0.0000 19.2422
#
#
#
# Elastic Compliance Matrix: (Units=1/GPa)
#
#
# Indices 1 2 3 4 5 6 
#
# 1 0.009024 -0.003707 -0.006914 0.000000 0.000000 0.000000
# 2 -0.003707 0.010840 -0.003302 0.000000 0.000000 0.000000
# 3 -0.006914 -0.003302 0.031797 0.000000 0.000000 0.000000
# 4 0.000000 0.000000 0.000000 0.050419 0.000000 0.000000
# 5 0.000000 0.000000 0.000000 0.000000 -0.036598 0.000000
# 6 0.000000 0.000000 0.000000 0.000000 0.000000 0.051969
#
#
# Mechanical properties :
#
#
# Convention : Reuss Voigt Hill
#
# Bulk Modulus (GPa) = 41.99187 72.03089 57.01138
# Shear Modulus (GPa) = 32.62952 15.54786 24.08869
#
# Velocity S-wave (km/s) = 4.06178 2.80380 3.48994
# Velocity P-wave (km/s) = 6.57489 6.84849 6.71308
#
# Compressibility (1/GPa) = 0.02381413
#
# Stress axis : x y z
#
# Youngs Moduli (GPa) = 110.81723 92.25153 31.44968
#
# Poissons Ratio (x) = 0.34199 0.21743
# Poissons Ratio (y) = 0.41081 0.10386
# Poissons Ratio (z) = 0.76615 0.30466
#
# Static dielectric constant tensor:
#      x y z
#    x 1.711690 0.000000 0.000000 
#    y 0.000000 1.687990 0.000000 
#    z 0.000000 0.000000 1.691780 
# 
# From -- ./inp_files/31835.got.cif
#   From: 2010.05.17/outbox.cif.g08.bks.cpg/sg67_16_cif.got.tgz:31835.got - 2010.06.03 18:28:57.
