data_PCOD9504667
_publ_section_title
;
Structure prediction by ZEFSAII (Michael W. Deem and Ramdas Pophale) SiO2 
 PCOD9504667
Probable space group: C M M A
;
_chemical_formula_sum "Si O2"
_cell_formula_units_Z 60
_cell_length_a 10.186148
_cell_length_b 15.964589
_cell_length_c 19.759979
_cell_angle_alpha 90.000000
_cell_angle_beta 90.000000
_cell_angle_gamma 90.000000
_cell_volume 3213.321671
_symmetry_space_group_name_H-M "C M M A"
_symmetry_group_IT_number 67
_symmetry_cell_setting 'orthorhombic'
loop_
_space_group_symop_operation_xyz
x,y,z
-x,1/2-y,z
x,-y,-z
-x,1/2+y,-z
-x,-y,-z
x,1/2+y,-z
-x,y,z
x,1/2-y,z
1/2+x,1/2+y,z
1/2-x,-y,z
1/2+x,1/2-y,-z
1/2-x,y,-z
1/2-x,1/2-y,-z
1/2+x,y,-z
1/2-x,1/2+y,z
1/2+x,-y,z
loop_
_atom_site_type_symbol
_atom_site_label
_atom_site_fract_x
_atom_site_fract_y
_atom_site_fract_z
Si Si1 0.500000 0.500000 0.000000
Si Si2 0.842197 0.654974 0.191070
Si Si3 0.000000 0.349489 0.412418
Si Si4 0.250000 0.000000 0.897561
Si Si5 0.000000 0.648193 0.432353
Si Si6 0.237782 0.902571 0.337247
O O1 0.617993 0.508656 0.057859
O O2 0.814069 0.750000 0.167223
O O3 0.771912 0.583150 0.147735
O O4 0.798097 0.646008 0.268860
O O5 0.000000 0.642816 0.187735
O O6 0.000000 0.380857 0.489805
O O7 0.127033 0.376118 0.371212
O O8 0.000000 0.250000 0.417766
O O9 0.125564 0.614555 0.392336
O O10 0.000000 0.750000 0.429936
O O11 0.250000 0.000000 0.319716
#
# Coordination Sequence:
#
# PCOD9504667 Si02
#       6
#     4  16   8   8   8  16
#     4  10  24  42  74 102 144 172 206 262 314 370
#     4  11  23  42  69  99 134 175 222 269 321 387
#     4  11  25  40  57  87 125 166 221 282 339 392
#     4  11  22  46  70 104 135 178 210 258 317 384
#     4  11  23  42  61  81 121 176 221 270 339 406
#     4  12  24  39  63  92 125 165 221 278 331 393
#
# _framework density 18.672267000000002
#
# number of rings (size 3 to 8) (size 9 to 14) (size 15 to 20)
#    0.000    0.800    4.000    4.000    0.000    6.400 
#    0.000    6.000    0.000    0.000    0.000    0.000 
#    0.000    0.000    0.000    0.000    0.000    0.000 
#
# Total GULP energy -167132.509062 kJ/mol
# GULP energy per Si atom -5571.083635 kJ/mol
# Density = 1.862977 g / cm^3
# Si number density = 18.672267 Si / 1000 Ang^3
#
#
#
# Elastic Constant Matrix: (Units=GPa)
#
#
# Indices 1 2 3 4 5 6 
#
# 1 178.2937 42.3345 70.3285 0.0000 0.0000 0.0000
# 2 42.3345 116.4109 51.6679 0.0000 0.0000 0.0000
# 3 70.3285 51.6679 133.6968 0.0000 0.0000 0.0000
# 4 0.0000 0.0000 0.0000 -8.4159 0.0000 0.0000
# 5 0.0000 0.0000 0.0000 0.0000 -41.4117 0.0000
# 6 0.0000 0.0000 0.0000 0.0000 0.0000 29.8407
#
#
#
# Elastic Compliance Matrix: (Units=1/GPa)
#
#
# Indices 1 2 3 4 5 6 
#
# 1 0.007199 -0.001131 -0.003349 0.000000 0.000000 0.000000
# 2 -0.001131 0.010547 -0.003481 0.000000 0.000000 0.000000
# 3 -0.003349 -0.003481 0.010587 0.000000 0.000000 0.000000
# 4 0.000000 0.000000 0.000000 -0.118823 0.000000 0.000000
# 5 0.000000 0.000000 0.000000 0.000000 -0.024148 0.000000
# 6 0.000000 0.000000 0.000000 0.000000 0.000000 0.033511
#
#
# Mechanical properties :
#
#
# Convention : Reuss Voigt Hill
#
# Bulk Modulus (GPa) = 80.58716 84.11813 82.35265
# Shear Modulus (GPa) = -81.87526 13.60732 -34.13397
#
# Velocity S-wave (km/s) = -6.62901 2.70246 -4.28022
# Velocity P-wave (km/s) = 3.91654 7.40846 4.44668
#
# Compressibility (1/GPa) = 0.01240892
#
# Stress axis : x y z
#
# Youngs Moduli (GPa) = 138.91716 94.81801 94.45831
#
# Poissons Ratio (x) = 0.10726 0.31639
# Poissons Ratio (y) = 0.15714 0.32878
# Poissons Ratio (z) = 0.46530 0.33003
#
# Static dielectric constant tensor:
#      x y z
#    x 1.599880 0.000000 0.000000 
#    y 0.000000 1.678830 0.000000 
#    z 0.000000 0.000000 1.631430 
# 
# From -- ./inp_files/31669.got.cif
#   From: 2010.05.17/outbox.cif.g08.bks.cpg/sg67_16_cif.got.tgz:31669.got - 2010.06.03 18:28:57.
