data_PCOD9504875
_publ_section_title
;
Structure prediction by ZEFSAII (Michael W. Deem and Ramdas Pophale) SiO2 
 PCOD9504875
Probable space group: C M M A
;
_chemical_formula_sum "Si O2"
_cell_formula_units_Z 72
_cell_length_a 15.220339
_cell_length_b 8.649609
_cell_length_c 26.332517
_cell_angle_alpha 90.000000
_cell_angle_beta 90.000000
_cell_angle_gamma 90.000000
_cell_volume 3466.675368
_symmetry_space_group_name_H-M "C M M A"
_symmetry_group_IT_number 67
_symmetry_cell_setting 'orthorhombic'
loop_
_space_group_symop_operation_xyz
x,y,z
-x,1/2-y,z
x,-y,-z
-x,1/2+y,-z
-x,-y,-z
x,1/2+y,-z
-x,y,z
x,1/2-y,z
1/2+x,1/2+y,z
1/2-x,-y,z
1/2+x,1/2-y,-z
1/2-x,y,-z
1/2-x,1/2-y,-z
1/2+x,y,-z
1/2-x,1/2+y,z
1/2+x,-y,z
loop_
_atom_site_type_symbol
_atom_site_label
_atom_site_fract_x
_atom_site_fract_y
_atom_site_fract_z
Si Si1 0.395728 0.424370 0.161606
Si Si2 0.847549 0.432358 0.266190
Si Si3 0.500000 0.935208 0.443125
Si Si4 0.349737 0.934700 0.628733
Si Si5 0.603053 0.063561 0.052281
O O1 0.500000 0.409166 0.153766
O O2 0.360425 0.250000 0.171355
O O3 0.384993 0.526662 0.211254
O O4 0.360168 0.485137 0.107461
O O5 0.848190 0.250000 0.274752
O O6 0.750000 0.500000 0.263959
O O7 0.886612 0.514295 0.315926
O O8 0.500000 0.750000 0.443267
O O9 0.500000 0.000000 0.500000
O O10 0.414197 0.996739 0.413456
O O11 0.346861 0.750000 0.625825
O O12 0.250000 0.000000 0.624040
O O13 0.500000 0.014755 0.051686
O O14 0.606009 0.250000 0.051622
O O15 0.642609 0.000000 0.000000
#
# Coordination Sequence:
#
# PCOD9504875 Si02
#       5
#    16  16   8  16  16
#     4   9  18  32  50  75 107 142 182 229 286 347
#     4  11  22  37  57  82 113 150 192 239 291 352
#     4  12  26  46  70 102 136 172 217 262 309 366
#     4  11  23  43  68  96 130 172 214 261 316 371
#     4   8  14  25  42  65  96 134 174 221 276 338
#
# _framework density 20.769179999999999
#
# number of rings (size 3 to 8) (size 9 to 14) (size 15 to 20)
#    0.000    2.000    0.000    7.667    1.556    1.778 
#    0.000    4.444    0.000    0.667    0.000    4.667 
#    0.000    0.000    0.000    0.000    0.000    0.000 
#
# Total GULP energy -200896.239883 kJ/mol
# GULP energy per Si atom -5580.451108 kJ/mol
# Density = 2.072191 g / cm^3
# Si number density = 20.769180 Si / 1000 Ang^3
#
#
#
# Elastic Constant Matrix: (Units=GPa)
#
#
# Indices 1 2 3 4 5 6 
#
# 1 65.7459 29.8327 52.9057 0.0000 0.0000 0.0000
# 2 29.8327 151.9880 74.8998 0.0000 0.0000 0.0000
# 3 52.9057 74.8998 211.2645 0.0000 0.0000 0.0000
# 4 0.0000 0.0000 0.0000 35.0460 0.0000 0.0000
# 5 0.0000 0.0000 0.0000 0.0000 160.3648 0.0000
# 6 0.0000 0.0000 0.0000 0.0000 0.0000 21.6065
#
#
#
# Elastic Compliance Matrix: (Units=1/GPa)
#
#
# Indices 1 2 3 4 5 6 
#
# 1 0.019410 -0.001714 -0.004253 0.000000 0.000000 0.000000
# 2 -0.001714 0.008124 -0.002451 0.000000 0.000000 0.000000
# 3 -0.004253 -0.002451 0.006667 0.000000 0.000000 0.000000
# 4 0.000000 0.000000 0.000000 0.028534 0.000000 0.000000
# 5 0.000000 0.000000 0.000000 0.000000 0.006236 0.000000
# 6 0.000000 0.000000 0.000000 0.000000 0.000000 0.046282
#
#
# Mechanical properties :
#
#
# Convention : Reuss Voigt Hill
#
# Bulk Modulus (GPa) = 57.58576 82.69722 70.14149
# Shear Modulus (GPa) = 36.26397 61.49416 48.87906
#
# Velocity S-wave (km/s) = 4.18311 5.44726 4.85649
# Velocity P-wave (km/s) = 7.14968 8.91444 8.08038
#
# Compressibility (1/GPa) = 0.01736540
#
# Stress axis : x y z
#
# Youngs Moduli (GPa) = 51.51904 123.09688 149.98325
#
# Poissons Ratio (x) = 0.21098 0.63790
# Poissons Ratio (y) = 0.08830 0.36759
# Poissons Ratio (z) = 0.21912 0.30170
#
# Static dielectric constant tensor:
#      x y z
#    x 1.781800 0.000000 0.000000 
#    y 0.000000 1.704510 0.000000 
#    z 0.000000 0.000000 1.808180 
# 
# From -- ./inp_files/44244.got.cif
#   From: 2010.05.17/outbox.cif.g08.bks.cpg/sg67_23_cif.got.tgz:44244.got - 2010.06.03 18:28:57.
