data_PCOD9504400
_publ_section_title
;
Structure prediction by ZEFSAII (Michael W. Deem and Ramdas Pophale) SiO2 
 PCOD9504400
Probable space group: C M M A
;
_chemical_formula_sum "Si O2"
_cell_formula_units_Z 64
_cell_length_a 27.088734
_cell_length_b 9.730253
_cell_length_c 13.887602
_cell_angle_alpha 90.000000
_cell_angle_beta 90.000000
_cell_angle_gamma 90.000000
_cell_volume 3660.497402
_symmetry_space_group_name_H-M "C M M A"
_symmetry_group_IT_number 67
_symmetry_cell_setting 'orthorhombic'
loop_
_space_group_symop_operation_xyz
x,y,z
-x,1/2-y,z
x,-y,-z
-x,1/2+y,-z
-x,-y,-z
x,1/2+y,-z
-x,y,z
x,1/2-y,z
1/2+x,1/2+y,z
1/2-x,-y,z
1/2+x,1/2-y,-z
1/2-x,y,-z
1/2-x,1/2-y,-z
1/2+x,y,-z
1/2-x,1/2+y,z
1/2+x,-y,z
loop_
_atom_site_type_symbol
_atom_site_label
_atom_site_fract_x
_atom_site_fract_y
_atom_site_fract_z
Si Si1 0.056908 0.410030 0.094330
Si Si2 0.439625 0.750000 0.416597
Si Si3 0.698385 0.579673 0.598212
Si Si4 0.056991 0.250000 0.635192
Si Si5 0.105277 0.489083 0.287176
O O1 0.059198 0.250000 0.068654
O O2 0.095452 0.438218 0.179604
O O3 0.000000 0.437166 0.128038
O O4 0.065876 0.500000 0.000000
O O5 0.500000 0.750000 0.410160
O O6 0.421235 0.750000 0.527136
O O7 0.416682 0.621617 0.361179
O O8 0.681450 0.500000 0.500000
O O9 0.702415 0.750000 0.588997
O O10 0.750000 0.500000 0.618322
O O11 0.659477 0.537732 0.680422
O O12 0.072027 0.379321 0.695759
O O13 0.000000 0.250000 0.616756
#
# Coordination Sequence:
#
# PCOD9504400 Si02
#       5
#    16   8  16   8  16
#     4  10  22  39  60  86 117 157 204 252 299 352
#     4  11  22  36  54  82 122 163 200 234 286 357
#     4  11  24  40  62  89 119 159 206 255 304 356
#     4  11  22  34  52  84 122 159 194 236 284 359
#     4  12  23  37  59  85 119 161 202 245 300 355
#
# _framework density 17.483964
#
# number of rings (size 3 to 8) (size 9 to 14) (size 15 to 20)
#    0.000    1.000    2.500    6.000    5.250    2.000 
#    0.000    0.000    0.000    0.750    0.000    3.500 
#    0.000    0.000    0.000    0.000    0.000    0.000 
#
# Total GULP energy -178432.945148 kJ/mol
# GULP energy per Si atom -5576.029536 kJ/mol
# Density = 1.744417 g / cm^3
# Si number density = 17.483964 Si / 1000 Ang^3
#
#
#
# Elastic Constant Matrix: (Units=GPa)
#
#
# Indices 1 2 3 4 5 6 
#
# 1 74.5775 32.1167 36.1420 0.0000 0.0000 0.0000
# 2 32.1167 140.9694 29.2663 0.0000 0.0000 0.0000
# 3 36.1420 29.2663 74.3472 0.0000 0.0000 0.0000
# 4 0.0000 0.0000 0.0000 34.4097 0.0000 0.0000
# 5 0.0000 0.0000 0.0000 0.0000 25.5221 0.0000
# 6 0.0000 0.0000 0.0000 0.0000 0.0000 12.9037
#
#
#
# Elastic Compliance Matrix: (Units=1/GPa)
#
#
# Indices 1 2 3 4 5 6 
#
# 1 0.018337 -0.002534 -0.007916 0.000000 0.000000 0.000000
# 2 -0.002534 0.008075 -0.001947 0.000000 0.000000 0.000000
# 3 -0.007916 -0.001947 0.018065 0.000000 0.000000 0.000000
# 4 0.000000 0.000000 0.000000 0.029062 0.000000 0.000000
# 5 0.000000 0.000000 0.000000 0.000000 0.039182 0.000000
# 6 0.000000 0.000000 0.000000 0.000000 0.000000 0.077497
#
#
# Mechanical properties :
#
#
# Convention : Reuss Voigt Hill
#
# Bulk Modulus (GPa) = 50.80698 53.88267 52.34483
# Shear Modulus (GPa) = 22.56592 27.39170 24.97881
#
# Velocity S-wave (km/s) = 3.59648 3.96242 3.78388
# Velocity P-wave (km/s) = 6.80944 7.19858 7.00671
#
# Compressibility (1/GPa) = 0.01968233
#
# Stress axis : x y z
#
# Youngs Moduli (GPa) = 54.53571 123.83503 55.35529
#
# Poissons Ratio (x) = 0.31381 0.43821
# Poissons Ratio (y) = 0.13820 0.10777
# Poissons Ratio (z) = 0.43172 0.24109
#
# Static dielectric constant tensor:
#      x y z
#    x 1.626850 0.000000 0.000000 
#    y 0.000000 1.606230 0.000000 
#    z 0.000000 0.000000 1.583430 
# 
# From -- ./inp_files/15838.got.cif
#   From: 2010.05.17/outbox.cif.g08.bks.cpg/sg67_8_cif.got.tgz:15838.got - 2010.06.03 18:28:57.
