data_PCOD9504369
_publ_section_title
;
Structure prediction by ZEFSAII (Michael W. Deem and Ramdas Pophale) SiO2 
 PCOD9504369
Probable space group: C M M A
;
_chemical_formula_sum "Si O2"
_cell_formula_units_Z 88
_cell_length_a 26.042369
_cell_length_b 13.964043
_cell_length_c 12.256914
_cell_angle_alpha 90.000000
_cell_angle_beta 90.000000
_cell_angle_gamma 90.000000
_cell_volume 4457.309639
_symmetry_space_group_name_H-M "C M M A"
_symmetry_group_IT_number 67
_symmetry_cell_setting 'orthorhombic'
loop_
_space_group_symop_operation_xyz
x,y,z
-x,1/2-y,z
x,-y,-z
-x,1/2+y,-z
-x,-y,-z
x,1/2+y,-z
-x,y,z
x,1/2-y,z
1/2+x,1/2+y,z
1/2-x,-y,z
1/2+x,1/2-y,-z
1/2-x,y,-z
1/2-x,1/2-y,-z
1/2+x,y,-z
1/2-x,1/2+y,z
1/2+x,-y,z
loop_
_atom_site_type_symbol
_atom_site_label
_atom_site_fract_x
_atom_site_fract_y
_atom_site_fract_z
Si Si1 0.618076 0.500000 0.500000
Si Si2 0.327750 0.860651 0.025371
Si Si3 0.760248 0.866202 0.174763
Si Si4 0.056955 0.403823 0.071797
Si Si5 0.560541 0.637275 0.327123
Si Si6 0.294832 0.864402 0.588108
O O1 0.586785 0.565106 0.412949
O O2 0.655034 0.575351 0.560300
O O3 0.314003 0.750000 0.021521
O O4 0.295735 0.895581 0.130244
O O5 0.388667 0.864471 0.030560
O O6 0.301781 0.899392 0.915397
O O7 0.761657 0.750000 0.181751
O O8 0.774020 0.896950 0.295036
O O9 0.064457 0.404114 0.203288
O O10 0.000000 0.357795 0.056693
O O11 0.053584 0.500000 0.000000
O O12 0.500000 0.640875 0.352703
O O13 0.579228 0.750000 0.328253
O O14 0.306009 0.750000 0.588814
O O15 0.250000 0.880076 0.500000
#
# Coordination Sequence:
#
# PCOD9504369 Si02
#       6
#     8  16  16  16  16  16
#     4  12  24  38  64  96 124 166 222 274 322 380
#     4   9  17  33  60  85 113 155 199 248 305 374
#     4   8  17  34  56  85 118 155 200 248 308 376
#     4  10  22  38  59  90 124 158 203 261 321 387
#     4  10  23  44  68  93 126 171 219 270 332 395
#     4  10  22  39  58  86 129 170 209 263 323 386
#
# _framework density 19.742851000000002
#
# number of rings (size 3 to 8) (size 9 to 14) (size 15 to 20)
#    0.000    2.364    0.000    2.727    5.091    1.091 
#    0.000    1.818    0.000    0.000    0.000    0.000 
#    0.000    0.000    0.000    0.000    0.000    0.000 
#
# Total GULP energy -245057.860241 kJ/mol
# GULP energy per Si atom -5569.496824 kJ/mol
# Density = 1.969792 g / cm^3
# Si number density = 19.742851 Si / 1000 Ang^3
#
#
#
# Elastic Constant Matrix: (Units=GPa)
#
#
# Indices 1 2 3 4 5 6 
#
# 1 117.3152 41.0845 53.1082 0.0000 0.0000 0.0000
# 2 41.0845 132.8077 68.3986 0.0000 0.0000 0.0000
# 3 53.1082 68.3986 133.0349 0.0000 0.0000 0.0000
# 4 0.0000 0.0000 0.0000 11.7548 0.0000 0.0000
# 5 0.0000 0.0000 0.0000 0.0000 19.1275 0.0000
# 6 0.0000 0.0000 0.0000 0.0000 0.0000 75.6191
#
#
#
# Elastic Compliance Matrix: (Units=1/GPa)
#
#
# Indices 1 2 3 4 5 6 
#
# 1 0.010619 -0.001499 -0.003469 0.000000 0.000000 0.000000
# 2 -0.001499 0.010453 -0.004776 0.000000 0.000000 0.000000
# 3 -0.003469 -0.004776 0.011357 0.000000 0.000000 0.000000
# 4 0.000000 0.000000 0.000000 0.085072 0.000000 0.000000
# 5 0.000000 0.000000 0.000000 0.000000 0.052281 0.000000
# 6 0.000000 0.000000 0.000000 0.000000 0.000000 0.013224
#
#
# Mechanical properties :
#
#
# Convention : Reuss Voigt Hill
#
# Bulk Modulus (GPa) = 77.26479 78.70449 77.98464
# Shear Modulus (GPa) = 24.17710 36.00470 30.09090
#
# Velocity S-wave (km/s) = 3.50322 4.27509 3.90826
# Velocity P-wave (km/s) = 7.45547 8.01997 7.74286
#
# Compressibility (1/GPa) = 0.01294251
#
# Stress axis : x y z
#
# Youngs Moduli (GPa) = 94.16950 95.66576 88.05037
#
# Poissons Ratio (x) = 0.14337 0.30542
# Poissons Ratio (y) = 0.14112 0.42054
# Poissons Ratio (z) = 0.32665 0.45691
#
# Static dielectric constant tensor:
#      x y z
#    x 1.697800 0.000000 0.000000 
#    y 0.000000 1.767710 0.000000 
#    z 0.000000 0.000000 1.690650 
# 
# From -- ./inp_files/22819.got.cif
#   From: 2010.05.17/outbox.cif.g08.bks.cpg/sg67_12_cif.got.tgz:22819.got - 2010.06.03 18:28:57.
