data_PCOD9504531
_publ_section_title
;
Structure prediction by ZEFSAII (Michael W. Deem and Ramdas Pophale) SiO2 
 PCOD9504531
Probable space group: C M M A
;
_chemical_formula_sum "Si O2"
_cell_formula_units_Z 88
_cell_length_a 25.154929
_cell_length_b 28.851227
_cell_length_c 5.199011
_cell_angle_alpha 90.000000
_cell_angle_beta 90.000000
_cell_angle_gamma 90.000000
_cell_volume 3773.185180
_symmetry_space_group_name_H-M "C M M A"
_symmetry_group_IT_number 67
_symmetry_cell_setting 'orthorhombic'
loop_
_space_group_symop_operation_xyz
x,y,z
-x,1/2-y,z
x,-y,-z
-x,1/2+y,-z
-x,-y,-z
x,1/2+y,-z
-x,y,z
x,1/2-y,z
1/2+x,1/2+y,z
1/2-x,-y,z
1/2+x,1/2-y,-z
1/2-x,y,-z
1/2-x,1/2-y,-z
1/2+x,y,-z
1/2-x,1/2+y,z
1/2+x,-y,z
loop_
_atom_site_type_symbol
_atom_site_label
_atom_site_fract_x
_atom_site_fract_y
_atom_site_fract_z
Si Si1 0.407396 0.500000 0.500000
Si Si2 0.750000 0.176076 0.000000
Si Si3 0.641300 0.409577 0.714518
Si Si4 0.442187 0.345297 0.490522
Si Si5 0.898718 0.750000 0.285328
Si Si6 0.168217 0.750000 0.788057
Si Si7 0.056419 0.066904 0.889612
Si Si8 0.250000 0.375379 0.500000
O O1 0.372908 0.545262 0.450851
O O2 0.441956 0.481228 0.265213
O O3 0.795143 0.206564 0.136518
O O4 0.724598 0.150645 0.250298
O O5 0.607666 0.362541 0.659271
O O6 0.702419 0.400474 0.653789
O O7 0.613185 0.426386 0.975052
O O8 0.500000 0.340958 0.623277
O O9 0.429864 0.297045 0.351966
O O10 0.446204 0.388654 0.297335
O O11 0.849828 0.750000 0.492273
O O12 0.880324 0.750000 0.989861
O O13 0.000000 0.069003 0.042476
#
# Coordination Sequence:
#
# PCOD9504531 Si02
#       8
#     8   8  16  16   8   8  16   8
#     4  10  23  41  68 104 144 180 237 301 370 432
#     4  11  24  46  66 101 130 190 246 307 352 415
#     4  11  24  43  68 101 136 191 236 302 359 436
#     4  10  23  42  65  99 142 187 236 289 357 433
#     4  12  25  41  68 104 141 186 227 297 359 434
#     4  11  24  42  69  96 137 179 245 300 355 418
#     4  10  22  42  71 104 143 189 242 297 362 437
#     4  12  28  42  76  98 142 186 244 293 370 429
#
# _framework density 23.322471
#
# number of rings (size 3 to 8) (size 9 to 14) (size 15 to 20)
#    0.000    1.273    0.000    4.909   10.182    4.727 
#    0.000    0.909    0.000    0.000    0.000    0.000 
#    0.000    0.000    0.000    0.000    0.000    0.000 
#
# Total GULP energy -245268.707345 kJ/mol
# GULP energy per Si atom -5574.288803 kJ/mol
# Density = 2.326939 g / cm^3
# Si number density = 23.322471 Si / 1000 Ang^3
#
#
#
# Elastic Constant Matrix: (Units=GPa)
#
#
# Indices 1 2 3 4 5 6 
#
# 1 135.0799 30.8878 16.0440 0.0000 0.0000 0.0000
# 2 30.8878 96.9514 0.5772 0.0000 0.0000 0.0000
# 3 16.0440 0.5772 77.1953 0.0000 0.0000 0.0000
# 4 0.0000 0.0000 0.0000 28.7069 0.0000 0.0000
# 5 0.0000 0.0000 0.0000 0.0000 12.6764 0.0000
# 6 0.0000 0.0000 0.0000 0.0000 0.0000 25.9551
#
#
#
# Elastic Compliance Matrix: (Units=1/GPa)
#
#
# Indices 1 2 3 4 5 6 
#
# 1 0.008198 -0.002602 -0.001684 0.000000 0.000000 0.000000
# 2 -0.002602 0.011141 0.000457 0.000000 0.000000 0.000000
# 3 -0.001684 0.000457 0.013301 0.000000 0.000000 0.000000
# 4 0.000000 0.000000 0.000000 0.034835 0.000000 0.000000
# 5 0.000000 0.000000 0.000000 0.000000 0.078887 0.000000
# 6 0.000000 0.000000 0.000000 0.000000 0.000000 0.038528
#
#
# Mechanical properties :
#
#
# Convention : Reuss Voigt Hill
#
# Bulk Modulus (GPa) = 40.02883 44.91606 42.47245
# Shear Modulus (GPa) = 24.89122 30.91551 27.90336
#
# Velocity S-wave (km/s) = 3.27044 3.64478 3.46268
# Velocity P-wave (km/s) = 5.60906 6.08384 5.85127
#
# Compressibility (1/GPa) = 0.02498199
#
# Stress axis : x y z
#
# Youngs Moduli (GPa) = 121.98074 89.76154 75.18340
#
# Poissons Ratio (x) = 0.23354 0.12664
# Poissons Ratio (y) = 0.31737 -0.03439
# Poissons Ratio (z) = 0.20546 -0.04106
#
# Static dielectric constant tensor:
#      x y z
#    x 2.006780 0.000000 0.000000 
#    y 0.000000 1.872560 0.000000 
#    z 0.000000 0.000000 1.996810 
# 
# From -- ./inp_files/3670.got.cif
#   From: 2010.05.17/outbox.cif.g08.bks.cpg/sg67_2_cif.got.tgz:3670.got - 2010.06.03 18:28:57.
