data_PCOD9504040
_publ_section_title
;
Structure prediction by ZEFSAII (Michael W. Deem and Ramdas Pophale) SiO2 
 PCOD9504040
Probable space group: C M M A
;
_chemical_formula_sum "Si O2"
_cell_formula_units_Z 72
_cell_length_a 15.076194
_cell_length_b 9.473598
_cell_length_c 25.598949
_cell_angle_alpha 90.000000
_cell_angle_beta 90.000000
_cell_angle_gamma 90.000000
_cell_volume 3656.190404
_symmetry_space_group_name_H-M "C M M A"
_symmetry_group_IT_number 67
_symmetry_cell_setting 'orthorhombic'
loop_
_space_group_symop_operation_xyz
x,y,z
-x,1/2-y,z
x,-y,-z
-x,1/2+y,-z
-x,-y,-z
x,1/2+y,-z
-x,y,z
x,1/2-y,z
1/2+x,1/2+y,z
1/2-x,-y,z
1/2+x,1/2-y,-z
1/2-x,y,-z
1/2-x,1/2-y,-z
1/2+x,y,-z
1/2-x,1/2+y,z
1/2+x,-y,z
loop_
_atom_site_type_symbol
_atom_site_label
_atom_site_fract_x
_atom_site_fract_y
_atom_site_fract_z
Si Si1 0.608545 0.412450 0.551014
Si Si2 0.000000 0.918685 0.945767
Si Si3 0.392587 0.087274 0.753068
Si Si4 0.162839 0.918690 0.870320
Si Si5 0.391408 0.911909 0.652712
O O1 0.635967 0.500000 0.500000
O O2 0.500000 0.409937 0.550948
O O3 0.638336 0.250000 0.549858
O O4 0.636069 0.494128 0.603318
O O5 0.084265 0.953316 0.909878
O O6 0.000000 0.750000 0.955008
O O7 0.000000 0.000000 0.000000
O O8 0.500000 0.086317 0.754109
O O9 0.365490 0.250000 0.743071
O O10 0.360806 0.043468 0.810446
O O11 0.363208 0.985181 0.706632
O O12 0.175153 0.750000 0.871129
O O13 0.250000 0.000000 0.886367
O O14 0.500000 0.910779 0.652604
O O15 0.361954 0.750000 0.648462
#
# Coordination Sequence:
#
# PCOD9504040 Si02
#       5
#    16   8  16  16  16
#     4   9  15  22  32  48  76 118 166 216 271 330
#     4  10  22  42  64  88 120 158 195 234 281 334
#     4   9  16  30  51  71  97 137 179 221 272 332
#     4  10  21  38  60  86 117 152 192 236 284 337
#     4   9  16  24  36  59  89 122 165 218 272 329
#
# _framework density 19.692627999999999
#
# number of rings (size 3 to 8) (size 9 to 14) (size 15 to 20)
#    0.000    2.667    1.111    1.333    0.000    7.556 
#    0.000    2.222    0.000    0.000    0.000    0.000 
#    0.000    0.889    0.000    9.333    0.000   14.000 
#
# Total GULP energy -201089.014433 kJ/mol
# GULP energy per Si atom -5585.805956 kJ/mol
# Density = 1.964781 g / cm^3
# Si number density = 19.692628 Si / 1000 Ang^3
#
#
#
# Elastic Constant Matrix: (Units=GPa)
#
#
# Indices 1 2 3 4 5 6 
#
# 1 67.0417 48.4454 58.0859 0.0000 0.0000 0.0000
# 2 48.4454 131.0337 112.8024 0.0000 0.0000 0.0000
# 3 58.0859 112.8024 198.0728 0.0000 0.0000 0.0000
# 4 0.0000 0.0000 0.0000 41.2605 0.0000 0.0000
# 5 0.0000 0.0000 0.0000 0.0000 -17.7304 0.0000
# 6 0.0000 0.0000 0.0000 0.0000 0.0000 14.4842
#
#
#
# Elastic Compliance Matrix: (Units=1/GPa)
#
#
# Indices 1 2 3 4 5 6 
#
# 1 0.021518 -0.004950 -0.003491 0.000000 0.000000 0.000000
# 2 -0.004950 0.016110 -0.007723 0.000000 0.000000 0.000000
# 3 -0.003491 -0.007723 0.010471 0.000000 0.000000 0.000000
# 4 0.000000 0.000000 0.000000 0.024236 0.000000 0.000000
# 5 0.000000 0.000000 0.000000 0.000000 -0.056400 0.000000
# 6 0.000000 0.000000 0.000000 0.000000 0.000000 0.069041
#
#
# Mechanical properties :
#
#
# Convention : Reuss Voigt Hill
#
# Bulk Modulus (GPa) = 63.41096 92.75731 78.08413
# Shear Modulus (GPa) = 40.79574 19.39049 30.09311
#
# Velocity S-wave (km/s) = 4.55645 3.14133 3.91339
# Velocity P-wave (km/s) = 7.74286 7.76930 7.75609
#
# Compressibility (1/GPa) = 0.01577015
#
# Stress axis : x y z
#
# Youngs Moduli (GPa) = 46.47294 62.07156 95.50347
#
# Poissons Ratio (x) = 0.30726 0.33342
# Poissons Ratio (y) = 0.23005 0.73760
# Poissons Ratio (z) = 0.16224 0.47939
#
# Static dielectric constant tensor:
#      x y z
#    x 1.723510 0.000000 0.000000 
#    y 0.000000 1.660040 0.000000 
#    z 0.000000 0.000000 1.653560 
# 
# From -- ./inp_files/40509.got.cif
#   From: 2010.05.17/outbox.cif.g08.bks.cpg/sg67_21_cif.got.tgz:40509.got - 2010.06.03 18:28:57.
