data_PCOD9504603
_publ_section_title
;
Structure prediction by ZEFSAII (Michael W. Deem and Ramdas Pophale) SiO2 
 PCOD9504603
Probable space group: C M M A
;
_chemical_formula_sum "Si O2"
_cell_formula_units_Z 60
_cell_length_a 19.523940
_cell_length_b 9.143220
_cell_length_c 17.410066
_cell_angle_alpha 90.000000
_cell_angle_beta 90.000000
_cell_angle_gamma 90.000000
_cell_volume 3107.900108
_symmetry_space_group_name_H-M "C M M A"
_symmetry_group_IT_number 67
_symmetry_cell_setting 'orthorhombic'
loop_
_space_group_symop_operation_xyz
x,y,z
-x,1/2-y,z
x,-y,-z
-x,1/2+y,-z
-x,-y,-z
x,1/2+y,-z
-x,y,z
x,1/2-y,z
1/2+x,1/2+y,z
1/2-x,-y,z
1/2+x,1/2-y,-z
1/2-x,y,-z
1/2-x,1/2-y,-z
1/2+x,y,-z
1/2-x,1/2+y,z
1/2+x,-y,z
loop_
_atom_site_type_symbol
_atom_site_label
_atom_site_fract_x
_atom_site_fract_y
_atom_site_fract_z
Si Si1 0.320558 0.920927 0.342068
Si Si2 0.080913 0.574836 0.796389
Si Si3 0.821063 0.926962 0.083780
Si Si4 0.500000 0.750000 0.536007
Si Si5 0.609937 0.000000 0.500000
O O1 0.308762 0.750000 0.331787
O O2 0.381497 0.961661 0.283590
O O3 0.250000 0.000000 0.323671
O O4 0.344037 0.949451 0.428748
O O5 0.090007 0.750000 0.811206
O O6 0.118100 0.480384 0.861508
O O7 0.000000 0.546723 0.792169
O O8 0.815809 0.750000 0.079313
O O9 0.750000 0.000000 0.113064
O O10 0.831298 0.000000 0.000000
O O11 0.560068 0.875047 0.530858
#
# Coordination Sequence:
#
# PCOD9504603 Si02
#       5
#    16  16  16   4   8
#     4  11  25  42  63  90 125 163 209 258 311 368
#     4  10  23  42  64  90 124 164 204 255 311 366
#     4  11  22  40  66  95 126 163 205 250 303 366
#     4  10  24  38  66  94 124 158 204 266 308 378
#     4  11  23  42  64  92 124 166 208 256 316 368
#
# _framework density 19.305638999999999
#
# number of rings (size 3 to 8) (size 9 to 14) (size 15 to 20)
#    0.000    1.333    1.333    4.400    5.600    5.333 
#    0.000    0.000    0.000    0.000    0.000    0.000 
#    0.000    0.000    0.000    0.000    0.000    0.000 
#
# Total GULP energy -167067.304397 kJ/mol
# GULP energy per Si atom -5568.910147 kJ/mol
# Density = 1.926170 g / cm^3
# Si number density = 19.305639 Si / 1000 Ang^3
#
#
#
# Elastic Constant Matrix: (Units=GPa)
#
#
# Indices 1 2 3 4 5 6 
#
# 1 165.7272 76.4971 67.3945 0.0000 0.0000 0.0000
# 2 76.4971 94.7246 35.6091 0.0000 0.0000 0.0000
# 3 67.3945 35.6091 89.2575 0.0000 0.0000 0.0000
# 4 0.0000 0.0000 0.0000 47.3347 0.0000 0.0000
# 5 0.0000 0.0000 0.0000 0.0000 -259.9908 0.0000
# 6 0.0000 0.0000 0.0000 0.0000 0.0000 49.5809
#
#
#
# Elastic Compliance Matrix: (Units=1/GPa)
#
#
# Indices 1 2 3 4 5 6 
#
# 1 0.011866 -0.007311 -0.006043 0.000000 0.000000 0.000000
# 2 -0.007311 0.016924 -0.001232 0.000000 0.000000 0.000000
# 3 -0.006043 -0.001232 0.016258 0.000000 0.000000 0.000000
# 4 0.000000 0.000000 0.000000 0.021126 0.000000 0.000000
# 5 0.000000 0.000000 0.000000 0.000000 -0.003846 0.000000
# 6 0.000000 0.000000 0.000000 0.000000 0.000000 0.020169
#
#
# Mechanical properties :
#
#
# Convention : Reuss Voigt Hill
#
# Bulk Modulus (GPa) = 62.98491 78.74563 70.86527
# Shear Modulus (GPa) = 42.74968 -21.26781 10.74094
#
# Velocity S-wave (km/s) = 4.71081 -3.32269 2.36129
# Velocity P-wave (km/s) = 7.89208 5.11440 6.64989
#
# Compressibility (1/GPa) = 0.01587682
#
# Stress axis : x y z
#
# Youngs Moduli (GPa) = 84.27385 59.08716 61.50989
#
# Poissons Ratio (x) = 0.43199 0.37169
# Poissons Ratio (y) = 0.61614 0.07575
# Poissons Ratio (z) = 0.50925 0.07277
#
# Static dielectric constant tensor:
#      x y z
#    x 1.649670 0.000000 0.000000 
#    y 0.000000 1.650090 0.000000 
#    z 0.000000 0.000000 1.676320 
# 
# From -- ./inp_files/31639.got.cif
#   From: 2010.05.17/outbox.cif.g08.bks.cpg/sg67_16_cif.got.tgz:31639.got - 2010.06.03 18:28:57.
