data_PCOD9504207
_publ_section_title
;
Structure prediction by ZEFSAII (Michael W. Deem and Ramdas Pophale) SiO2 
 PCOD9504207
Probable space group: C M M A
;
_chemical_formula_sum "Si O2"
_cell_formula_units_Z 88
_cell_length_a 21.170177
_cell_length_b 9.695043
_cell_length_c 23.963309
_cell_angle_alpha 90.000000
_cell_angle_beta 90.000000
_cell_angle_gamma 90.000000
_cell_volume 4918.367959
_symmetry_space_group_name_H-M "C M M A"
_symmetry_group_IT_number 67
_symmetry_cell_setting 'orthorhombic'
loop_
_space_group_symop_operation_xyz
x,y,z
-x,1/2-y,z
x,-y,-z
-x,1/2+y,-z
-x,-y,-z
x,1/2+y,-z
-x,y,z
x,1/2-y,z
1/2+x,1/2+y,z
1/2-x,-y,z
1/2+x,1/2-y,-z
1/2-x,y,-z
1/2-x,1/2-y,-z
1/2+x,y,-z
1/2-x,1/2+y,z
1/2+x,-y,z
loop_
_atom_site_type_symbol
_atom_site_label
_atom_site_fract_x
_atom_site_fract_y
_atom_site_fract_z
Si Si1 0.340850 0.250000 0.453318
Si Si2 0.304599 0.750000 0.419095
Si Si3 0.883349 0.990278 0.616001
Si Si4 0.572912 0.916307 0.737985
Si Si5 0.000000 0.894002 0.549198
Si Si6 0.683647 0.084334 0.050291
Si Si7 0.184329 0.414371 0.822292
O O1 0.339183 0.250000 0.520242
O O2 0.268563 0.250000 0.433131
O O3 0.371505 0.383804 0.426027
O O4 0.324579 0.613648 0.385899
O O5 0.940838 0.908381 0.589233
O O6 0.903066 0.040562 0.676825
O O7 0.500000 0.964406 0.747309
O O8 0.570995 0.750000 0.740181
O O9 0.627332 0.959642 0.781736
O O10 0.000000 0.750000 0.518850
O O11 0.000000 0.000000 0.500000
O O12 0.689788 0.250000 0.038325
O O13 0.659841 0.072536 0.113688
O O14 0.750000 0.000000 0.054242
O O15 0.649894 0.000000 0.000000
O O16 0.197433 0.250000 0.813376
O O17 0.250000 0.500000 0.815183
#
# Coordination Sequence:
#
# PCOD9504207 Si02
#       7
#     8   8  16  16   8  16  16
#     4  11  24  41  61  85 113 148 180 217 288 349
#     4  11  24  41  59  85 117 144 176 229 282 349
#     4  12  23  40  61  83 111 144 186 229 279 341
#     4  10  21  40  60  80 110 150 196 236 279 338
#     4  12  26  40  62  88 112 140 181 234 285 340
#     4   9  15  25  46  77 113 147 181 226 275 326
#     4   9  19  35  56  84 114 148 192 235 280 329
#
# _framework density 17.892113999999999
#
# number of rings (size 3 to 8) (size 9 to 14) (size 15 to 20)
#    0.000    1.636    2.727    3.273    1.273    3.636 
#    1.636    0.000    0.000    0.545    0.000    0.000 
#    0.000    0.000    0.000    0.000    0.000    4.909 
#
# Total GULP energy -245175.716063 kJ/mol
# GULP energy per Si atom -5572.175365 kJ/mol
# Density = 1.785139 g / cm^3
# Si number density = 17.892114 Si / 1000 Ang^3
#
#
#
# Elastic Constant Matrix: (Units=GPa)
#
#
# Indices 1 2 3 4 5 6 
#
# 1 92.3681 27.1221 50.4538 0.0000 0.0000 0.0000
# 2 27.1221 92.5023 23.1564 0.0000 0.0000 0.0000
# 3 50.4538 23.1564 106.9610 0.0000 0.0000 0.0000
# 4 0.0000 0.0000 0.0000 16.6660 0.0000 0.0000
# 5 0.0000 0.0000 0.0000 0.0000 13.9783 0.0000
# 6 0.0000 0.0000 0.0000 0.0000 0.0000 72.7825
#
#
#
# Elastic Compliance Matrix: (Units=1/GPa)
#
#
# Indices 1 2 3 4 5 6 
#
# 1 0.015251 -0.002824 -0.006583 0.000000 0.000000 0.000000
# 2 -0.002824 0.011953 -0.001256 0.000000 0.000000 0.000000
# 3 -0.006583 -0.001256 0.012726 0.000000 0.000000 0.000000
# 4 0.000000 0.000000 0.000000 0.060002 0.000000 0.000000
# 5 0.000000 0.000000 0.000000 0.000000 0.071540 0.000000
# 6 0.000000 0.000000 0.000000 0.000000 0.000000 0.013740
#
#
# Mechanical properties :
#
#
# Convention : Reuss Voigt Hill
#
# Bulk Modulus (GPa) = 53.74706 54.81065 54.27885
# Shear Modulus (GPa) = 23.50314 33.42529 28.46421
#
# Velocity S-wave (km/s) = 3.62830 4.32691 3.99291
# Velocity P-wave (km/s) = 6.90344 7.46079 7.18752
#
# Compressibility (1/GPa) = 0.01860567
#
# Stress axis : x y z
#
# Youngs Moduli (GPa) = 65.56952 83.66211 78.57879
#
# Poissons Ratio (x) = 0.23625 0.51725
# Poissons Ratio (y) = 0.18516 0.09867
# Poissons Ratio (z) = 0.43162 0.10506
#
# Static dielectric constant tensor:
#      x y z
#    x 1.627430 0.000000 0.000000 
#    y 0.000000 1.626700 0.000000 
#    z 0.000000 0.000000 1.625150 
# 
# From -- ./inp_files/39617.got.cif
#   From: 2010.05.17/outbox.cif.g08.bks.cpg/sg67_20_cif.got.tgz:39617.got - 2010.06.03 18:28:57.
