data_PCOD9504583
_publ_section_title
;
Structure prediction by ZEFSAII (Michael W. Deem and Ramdas Pophale) SiO2 
 PCOD9504583
Probable space group: C M M A
;
_chemical_formula_sum "Si O2"
_cell_formula_units_Z 96
_cell_length_a 19.310217
_cell_length_b 28.578370
_cell_length_c 9.655124
_cell_angle_alpha 90.000000
_cell_angle_beta 90.000000
_cell_angle_gamma 90.000000
_cell_volume 5328.223880
_symmetry_space_group_name_H-M "C M M A"
_symmetry_group_IT_number 67
_symmetry_cell_setting 'orthorhombic'
loop_
_space_group_symop_operation_xyz
x,y,z
-x,1/2-y,z
x,-y,-z
-x,1/2+y,-z
-x,-y,-z
x,1/2+y,-z
-x,y,z
x,1/2-y,z
1/2+x,1/2+y,z
1/2-x,-y,z
1/2+x,1/2-y,-z
1/2-x,y,-z
1/2-x,1/2-y,-z
1/2+x,y,-z
1/2-x,1/2+y,z
1/2+x,-y,z
loop_
_atom_site_type_symbol
_atom_site_label
_atom_site_fract_x
_atom_site_fract_y
_atom_site_fract_z
Si Si1 0.683669 0.474284 0.647428
Si Si2 0.821450 0.869935 0.560267
Si Si3 0.917702 0.115681 0.706355
Si Si4 0.184621 0.805047 0.806802
Si Si5 0.417129 0.516923 0.847789
Si Si6 0.653740 0.305171 0.123017
O O1 0.673601 0.500000 0.500000
O O2 0.750000 0.500000 0.713451
O O3 0.698066 0.420175 0.624090
O O4 0.616677 0.481863 0.738854
O O5 0.750000 0.849152 0.500000
O O6 0.875540 0.879860 0.437311
O O7 0.845225 0.836326 0.683787
O O8 0.897341 0.068968 0.793588
O O9 0.897044 0.160771 0.796183
O O10 0.000000 0.113482 0.681145
O O11 0.175883 0.750000 0.777536
O O12 0.267339 0.813725 0.824748
O O13 0.152950 0.814555 0.958297
O O14 0.500000 0.514933 0.844924
O O15 0.394323 0.500000 0.000000
O O16 0.639354 0.250000 0.144135
#
# Coordination Sequence:
#
# PCOD9504583 Si02
#       6
#    16  16  16  16  16  16
#     4  11  21  37  55  84 119 149 184 235 286 334
#     4  12  21  36  59  87 118 153 192 236 287 343
#     4  11  23  38  57  86 120 155 195 239 292 346
#     4   9  20  37  61  88 112 147 195 240 288 349
#     4  10  23  41  58  80 113 153 195 233 278 346
#     4   9  19  38  60  85 115 148 192 241 291 347
#
# _framework density 18.017261999999999
#
# number of rings (size 3 to 8) (size 9 to 14) (size 15 to 20)
#    0.000    1.667    5.000    1.000    2.333    2.667 
#    0.000    0.833    0.000    1.000    0.000    0.000 
#    0.000    0.000    0.000    0.000    0.000    0.000 
#
# Total GULP energy -267771.322312 kJ/mol
# GULP energy per Si atom -5578.569215 kJ/mol
# Density = 1.797625 g / cm^3
# Si number density = 18.017262 Si / 1000 Ang^3
#
#
#
# Elastic Constant Matrix: (Units=GPa)
#
#
# Indices 1 2 3 4 5 6 
#
# 1 38.7276 21.9808 32.0526 0.0000 0.0000 0.0000
# 2 21.9808 67.0276 55.5644 0.0000 0.0000 0.0000
# 3 32.0526 55.5644 102.9033 0.0000 0.0000 0.0000
# 4 0.0000 0.0000 0.0000 32.2137 0.0000 0.0000
# 5 0.0000 0.0000 0.0000 0.0000 33.6767 0.0000
# 6 0.0000 0.0000 0.0000 0.0000 0.0000 20.3515
#
#
#
# Elastic Compliance Matrix: (Units=1/GPa)
#
#
# Indices 1 2 3 4 5 6 
#
# 1 0.035519 -0.004483 -0.008643 0.000000 0.000000 0.000000
# 2 -0.004483 0.027575 -0.013493 0.000000 0.000000 0.000000
# 3 -0.008643 -0.013493 0.019696 0.000000 0.000000 0.000000
# 4 0.000000 0.000000 0.000000 0.031043 0.000000 0.000000
# 5 0.000000 0.000000 0.000000 0.000000 0.029694 0.000000
# 6 0.000000 0.000000 0.000000 0.000000 0.000000 0.049136
#
#
# Mechanical properties :
#
#
# Convention : Reuss Voigt Hill
#
# Bulk Modulus (GPa) = 33.83930 47.53935 40.68933
# Shear Modulus (GPa) = 19.55019 23.85241 21.70130
#
# Velocity S-wave (km/s) = 3.29763 3.64244 3.47432
# Velocity P-wave (km/s) = 5.77248 6.64324 6.22311
#
# Compressibility (1/GPa) = 0.02955144
#
# Stress axis : x y z
#
# Youngs Moduli (GPa) = 28.15388 36.26475 50.77235
#
# Poissons Ratio (x) = 0.16259 0.43881
# Poissons Ratio (y) = 0.12622 0.68508
# Poissons Ratio (z) = 0.24333 0.48932
#
# Static dielectric constant tensor:
#      x y z
#    x 1.620340 0.000000 0.000000 
#    y 0.000000 1.610850 0.000000 
#    z 0.000000 0.000000 1.615630 
# 
# From -- ./inp_files/11431.got.cif
#   From: 2010.05.17/outbox.cif.g08.bks.cpg/sg67_6_cif.got.tgz:11431.got - 2010.06.03 18:28:57.
