data_PCOD9504669
_publ_section_title
;
Structure prediction by ZEFSAII (Michael W. Deem and Ramdas Pophale) SiO2 
 PCOD9504669
Probable space group: C M M A
;
_chemical_formula_sum "Si O2"
_cell_formula_units_Z 64
_cell_length_a 8.683628
_cell_length_b 15.703125
_cell_length_c 24.245555
_cell_angle_alpha 90.000000
_cell_angle_beta 90.000000
_cell_angle_gamma 90.000000
_cell_volume 3306.126206
_symmetry_space_group_name_H-M "C M M A"
_symmetry_group_IT_number 67
_symmetry_cell_setting 'orthorhombic'
loop_
_space_group_symop_operation_xyz
x,y,z
-x,1/2-y,z
x,-y,-z
-x,1/2+y,-z
-x,-y,-z
x,1/2+y,-z
-x,y,z
x,1/2-y,z
1/2+x,1/2+y,z
1/2-x,-y,z
1/2+x,1/2-y,-z
1/2-x,y,-z
1/2-x,1/2-y,-z
1/2+x,y,-z
1/2-x,1/2+y,z
1/2+x,-y,z
loop_
_atom_site_type_symbol
_atom_site_label
_atom_site_fract_x
_atom_site_fract_y
_atom_site_fract_z
Si Si1 0.683485 0.408569 0.129792
Si Si2 0.817887 0.647655 0.754433
Si Si3 0.314557 0.250000 0.438662
Si Si4 0.685132 0.590992 0.637095
Si Si5 0.315658 0.750000 0.061585
O O1 0.500000 0.407613 0.124897
O O2 0.750000 0.500000 0.112829
O O3 0.732535 0.391317 0.192998
O O4 0.755478 0.332962 0.093785
O O5 0.798458 0.750000 0.755286
O O6 0.750928 0.612165 0.697536
O O7 0.000000 0.628824 0.758242
O O8 0.500000 0.250000 0.441143
O O9 0.250000 0.250000 0.500000
O O10 0.267321 0.166432 0.404276
O O11 0.500000 0.588581 0.639791
O O12 0.750000 0.500000 0.619074
O O13 0.500000 0.750000 0.061171
O O14 0.250000 0.750000 0.000000
#
# Coordination Sequence:
#
# PCOD9504669 Si02
#       5
#    16  16   8  16   8
#     4  12  25  43  68  98 133 173 214 264 320 379
#     4  11  22  38  64  96 130 168 209 257 315 380
#     4  10  24  43  64  87 120 161 207 259 311 370
#     4  11  23  41  63  92 126 163 207 256 313 375
#     4  12  26  47  70  97 130 169 219 269 321 380
#
# _framework density 19.358003
#
# number of rings (size 3 to 8) (size 9 to 14) (size 15 to 20)
#    0.000    0.750    2.500    5.625    0.000    4.000 
#    0.000    5.000    0.000    0.000    0.000    0.000 
#    0.000    0.000    0.000    0.000    0.000    0.000 
#
# Total GULP energy -179158.715756 kJ/mol
# GULP energy per Si atom -5598.709867 kJ/mol
# Density = 1.931394 g / cm^3
# Si number density = 19.358003 Si / 1000 Ang^3
#
#
#
# Elastic Constant Matrix: (Units=GPa)
#
#
# Indices 1 2 3 4 5 6 
#
# 1 148.6525 85.6291 56.0488 0.0000 0.0000 0.0000
# 2 85.6291 193.3476 92.7945 0.0000 0.0000 0.0000
# 3 56.0488 92.7945 156.0803 0.0000 0.0000 0.0000
# 4 0.0000 0.0000 0.0000 -8.9838 0.0000 0.0000
# 5 0.0000 0.0000 0.0000 0.0000 38.3859 0.0000
# 6 0.0000 0.0000 0.0000 0.0000 0.0000 34.6599
#
#
#
# Elastic Compliance Matrix: (Units=1/GPa)
#
#
# Indices 1 2 3 4 5 6 
#
# 1 0.009198 -0.003482 -0.001233 0.000000 0.000000 0.000000
# 2 -0.003482 0.008555 -0.003836 0.000000 0.000000 0.000000
# 3 -0.001233 -0.003836 0.009130 0.000000 0.000000 0.000000
# 4 0.000000 0.000000 0.000000 -0.111311 0.000000 0.000000
# 5 0.000000 0.000000 0.000000 0.000000 0.026051 0.000000
# 6 0.000000 0.000000 0.000000 0.000000 0.000000 0.028852
#
#
# Mechanical properties :
#
#
# Convention : Reuss Voigt Hill
#
# Bulk Modulus (GPa) = 102.23062 107.44724 104.83893
# Shear Modulus (GPa) = -545.61173 30.38628 -257.61273
#
# Velocity S-wave (km/s) = -16.80670 3.96624 -11.54847
# Velocity P-wave (km/s) = 17.99153 8.75218 11.11518
#
# Compressibility (1/GPa) = 0.00978180
#
# Stress axis : x y z
#
# Youngs Moduli (GPa) = 108.72508 116.89113 109.52585
#
# Poissons Ratio (x) = 0.40697 0.13503
# Poissons Ratio (y) = 0.37854 0.42013
# Poissons Ratio (z) = 0.13405 0.44838
#
# Static dielectric constant tensor:
#      x y z
#    x 1.646850 0.000000 0.000000 
#    y 0.000000 1.675050 0.000000 
#    z 0.000000 0.000000 1.634030 
# 
# From -- ./inp_files/40419.got.cif
#   From: 2010.05.17/outbox.cif.g08.bks.cpg/sg67_21_cif.got.tgz:40419.got - 2010.06.03 18:28:57.
