data_PCOD9504811
_publ_section_title
;
Structure prediction by ZEFSAII (Michael W. Deem and Ramdas Pophale) SiO2 
 PCOD9504811
Probable space group: C M M A
;
_chemical_formula_sum "Si O2"
_cell_formula_units_Z 48
_cell_length_a 17.920256
_cell_length_b 14.038668
_cell_length_c 10.461458
_cell_angle_alpha 90.000000
_cell_angle_beta 90.000000
_cell_angle_gamma 90.000000
_cell_volume 2631.857244
_symmetry_space_group_name_H-M "C M M A"
_symmetry_group_IT_number 67
_symmetry_cell_setting 'orthorhombic'
loop_
_space_group_symop_operation_xyz
x,y,z
-x,1/2-y,z
x,-y,-z
-x,1/2+y,-z
-x,-y,-z
x,1/2+y,-z
-x,y,z
x,1/2-y,z
1/2+x,1/2+y,z
1/2-x,-y,z
1/2+x,1/2-y,-z
1/2-x,y,-z
1/2-x,1/2-y,-z
1/2+x,y,-z
1/2-x,1/2+y,z
1/2+x,-y,z
loop_
_atom_site_type_symbol
_atom_site_label
_atom_site_fract_x
_atom_site_fract_y
_atom_site_fract_z
Si Si1 0.809895 0.750000 0.886062
Si Si2 0.792134 0.250000 0.635821
Si Si3 0.664171 0.463761 0.359371
Si Si4 0.086601 0.566040 0.875382
O O1 0.766642 0.750000 0.751505
O O2 0.861396 0.842675 0.892970
O O3 0.750000 0.750000 0.000000
O O4 0.750000 0.250000 0.500000
O O5 0.836447 0.349159 0.644735
O O6 0.641694 0.500000 0.500000
O O7 0.750000 0.500000 0.340783
O O8 0.614733 0.508840 0.248508
O O9 0.000000 0.593077 0.860899
O O10 0.093851 0.500000 0.000000
#
# Coordination Sequence:
#
# PCOD9504811 Si02
#       4
#     8   8  16  16
#     4  12  23  37  66  91 116 163 209 251 302 366
#     4  12  20  35  61  95 121 150 206 257 298 357
#     4  11  21  38  63  92 122 159 205 256 309 366
#     4  11  25  42  59  88 127 163 202 255 314 372
#
# _framework density 18.238073
#
# number of rings (size 3 to 8) (size 9 to 14) (size 15 to 20)
#    0.000    0.667    6.667    2.500    0.000    0.667 
#    0.000    2.500    0.000    0.000    0.000    0.000 
#    0.000    0.000    0.000    0.000    0.000    0.000 
#
# Total GULP energy -134198.483618 kJ/mol
# GULP energy per Si atom -5591.603484 kJ/mol
# Density = 1.819656 g / cm^3
# Si number density = 18.238073 Si / 1000 Ang^3
#
#
#
# Elastic Constant Matrix: (Units=GPa)
#
#
# Indices 1 2 3 4 5 6 
#
# 1 104.0462 81.6877 99.1025 0.0000 0.0000 0.0000
# 2 81.6877 188.0328 58.4857 0.0000 0.0000 0.0000
# 3 99.1025 58.4857 163.3632 0.0000 0.0000 0.0000
# 4 0.0000 0.0000 0.0000 26.1719 0.0000 0.0000
# 5 0.0000 0.0000 0.0000 0.0000 27.3462 0.0000
# 6 0.0000 0.0000 0.0000 0.0000 0.0000 17.4514
#
#
#
# Elastic Compliance Matrix: (Units=1/GPa)
#
#
# Indices 1 2 3 4 5 6 
#
# 1 0.032104 -0.008878 -0.016297 0.000000 0.000000 0.000000
# 2 -0.008878 0.008440 0.002364 0.000000 0.000000 0.000000
# 3 -0.016297 0.002364 0.015161 0.000000 0.000000 0.000000
# 4 0.000000 0.000000 0.000000 0.038209 0.000000 0.000000
# 5 0.000000 0.000000 0.000000 0.000000 0.036568 0.000000
# 6 0.000000 0.000000 0.000000 0.000000 0.000000 0.057302
#
#
# Mechanical properties :
#
#
# Convention : Reuss Voigt Hill
#
# Bulk Modulus (GPa) = 99.17334 103.77709 101.47521
# Shear Modulus (GPa) = 21.11771 28.60497 24.86134
#
# Velocity S-wave (km/s) = 3.40647 3.96463 3.69610
# Velocity P-wave (km/s) = 8.36464 8.83077 8.60087
#
# Compressibility (1/GPa) = 0.01008336
#
# Stress axis : x y z
#
# Youngs Moduli (GPa) = 31.14849 118.48661 65.95670
#
# Poissons Ratio (x) = 1.05193 1.07491
# Poissons Ratio (y) = 0.27654 -0.15594
# Poissons Ratio (z) = 0.50764 -0.28013
#
# Static dielectric constant tensor:
#      x y z
#    x 1.586660 0.000000 0.000000 
#    y 0.000000 1.626500 0.000000 
#    z 0.000000 0.000000 1.599220 
# 
# From -- ./inp_files/7358.got.cif
#   From: 2010.05.17/outbox.cif.g08.bks.cpg/sg67_4_cif.got.tgz:7358.got - 2010.06.03 18:28:57.
