data_PCOD9504107
_publ_section_title
;
Structure prediction by ZEFSAII (Michael W. Deem and Ramdas Pophale) SiO2 
 PCOD9504107
Probable space group: C M M A
;
_chemical_formula_sum "Si O2"
_cell_formula_units_Z 112
_cell_length_a 14.192271
_cell_length_b 24.457876
_cell_length_c 15.176847
_cell_angle_alpha 90.000000
_cell_angle_beta 90.000000
_cell_angle_gamma 90.000000
_cell_volume 5268.077922
_symmetry_space_group_name_H-M "C M M A"
_symmetry_group_IT_number 67
_symmetry_cell_setting 'orthorhombic'
loop_
_space_group_symop_operation_xyz
x,y,z
-x,1/2-y,z
x,-y,-z
-x,1/2+y,-z
-x,-y,-z
x,1/2+y,-z
-x,y,z
x,1/2-y,z
1/2+x,1/2+y,z
1/2-x,-y,z
1/2+x,1/2-y,-z
1/2-x,y,-z
1/2-x,1/2-y,-z
1/2+x,y,-z
1/2-x,1/2+y,z
1/2+x,-y,z
loop_
_atom_site_type_symbol
_atom_site_label
_atom_site_fract_x
_atom_site_fract_y
_atom_site_fract_z
Si Si1 0.268002 0.614429 0.878786
Si Si2 0.890476 0.437799 0.030186
Si Si3 0.400657 0.616650 0.329410
Si Si4 0.106025 0.614693 0.295877
Si Si5 0.862614 0.498197 0.602929
Si Si6 0.765864 0.189230 0.603158
Si Si7 0.395362 0.312794 0.846544
O O1 0.185546 0.569094 0.891764
O O2 0.320415 0.614154 0.785418
O O3 0.202623 0.668593 0.892033
O O4 0.346568 0.599999 0.952401
O O5 0.000000 0.425779 0.050412
O O6 0.887156 0.500000 0.000000
O O7 0.500000 0.633738 0.372044
O O8 0.393906 0.551726 0.342447
O O9 0.311893 0.644949 0.371736
O O10 0.401321 0.643655 0.232914
O O11 0.109342 0.557572 0.348682
O O12 0.137862 0.662724 0.362199
O O13 0.000000 0.623105 0.262791
O O14 0.893649 0.500000 0.500000
O O15 0.750000 0.500000 0.601257
O O16 0.752986 0.250000 0.642126
O O17 0.750000 0.194182 0.500000
O O18 0.500000 0.314887 0.891342
O O19 0.386307 0.250000 0.816648
#
# Coordination Sequence:
#
# PCOD9504107 Si02
#       7
#    16  16  16  16  16  16  16
#     4  11  21  40  67  96 131 170 222 272 334 402
#     4  10  23  43  68  99 140 181 219 273 339 411
#     4  11  22  37  60  89 122 164 216 271 332 394
#     4  12  26  42  64  96 136 175 224 280 336 407
#     4  11  22  39  61  87 127 177 222 274 338 402
#     4  11  24  43  65  90 126 175 229 282 337 396
#     4  10  21  38  63  94 127 166 216 275 333 394
#
# _framework density 21.260124999999999
#
# number of rings (size 3 to 8) (size 9 to 14) (size 15 to 20)
#    0.000    1.143    2.857    3.429    0.000    7.429 
#    0.000    4.286    0.000    2.143    0.000    0.000 
#    0.000    0.000    0.000    0.000    0.000    0.000 
#
# Total GULP energy -312145.208436 kJ/mol
# GULP energy per Si atom -5574.021579 kJ/mol
# Density = 2.121174 g / cm^3
# Si number density = 21.260125 Si / 1000 Ang^3
#
#
#
# Elastic Constant Matrix: (Units=GPa)
#
#
# Indices 1 2 3 4 5 6 
#
# 1 167.7798 26.8717 32.3884 0.0000 0.0000 0.0000
# 2 26.8717 136.5803 36.0462 0.0000 0.0000 0.0000
# 3 32.3884 36.0462 76.6254 0.0000 0.0000 0.0000
# 4 0.0000 0.0000 0.0000 85.3043 0.0000 0.0000
# 5 0.0000 0.0000 0.0000 0.0000 12.2895 0.0000
# 6 0.0000 0.0000 0.0000 0.0000 0.0000 53.7447
#
#
#
# Elastic Compliance Matrix: (Units=1/GPa)
#
#
# Indices 1 2 3 4 5 6 
#
# 1 0.006538 -0.000636 -0.002464 0.000000 0.000000 0.000000
# 2 -0.000636 0.008421 -0.003693 0.000000 0.000000 0.000000
# 3 -0.002464 -0.003693 0.015829 0.000000 0.000000 0.000000
# 4 0.000000 0.000000 0.000000 0.011723 0.000000 0.000000
# 5 0.000000 0.000000 0.000000 0.000000 0.081370 0.000000
# 6 0.000000 0.000000 0.000000 0.000000 0.000000 0.018606
#
#
# Mechanical properties :
#
#
# Convention : Reuss Voigt Hill
#
# Bulk Modulus (GPa) = 58.13119 63.51090 60.82104
# Shear Modulus (GPa) = 30.90083 49.31298 40.10690
#
# Velocity S-wave (km/s) = 3.81657 4.82135 4.34808
# Velocity P-wave (km/s) = 6.84279 7.80589 7.34016
#
# Compressibility (1/GPa) = 0.01720247
#
# Stress axis : x y z
#
# Youngs Moduli (GPa) = 152.95798 118.74473 63.17398
#
# Poissons Ratio (x) = 0.07551 0.15568
# Poissons Ratio (y) = 0.09727 0.23329
# Poissons Ratio (z) = 0.37693 0.43850
#
# Static dielectric constant tensor:
#      x y z
#    x 1.818690 0.000000 0.000000 
#    y 0.000000 1.773060 0.000000 
#    z 0.000000 0.000000 1.829290 
# 
# From -- ./inp_files/27554.got.cif
#   From: 2010.05.17/outbox.cif.g08.bks.cpg/sg67_14_cif.got.tgz:27554.got - 2010.06.03 18:28:57.
