data_PCOD9504431
_publ_section_title
;
Structure prediction by ZEFSAII (Michael W. Deem and Ramdas Pophale) SiO2 
 PCOD9504431
Probable space group: C M M A
;
_chemical_formula_sum "Si O2"
_cell_formula_units_Z 72
_cell_length_a 27.299324
_cell_length_b 8.271252
_cell_length_c 16.698321
_cell_angle_alpha 90.000000
_cell_angle_beta 90.000000
_cell_angle_gamma 90.000000
_cell_volume 3770.474006
_symmetry_space_group_name_H-M "C M M A"
_symmetry_group_IT_number 67
_symmetry_cell_setting 'orthorhombic'
loop_
_space_group_symop_operation_xyz
x,y,z
-x,1/2-y,z
x,-y,-z
-x,1/2+y,-z
-x,-y,-z
x,1/2+y,-z
-x,y,z
x,1/2-y,z
1/2+x,1/2+y,z
1/2-x,-y,z
1/2+x,1/2-y,-z
1/2-x,y,-z
1/2-x,1/2-y,-z
1/2+x,y,-z
1/2-x,1/2+y,z
1/2+x,-y,z
loop_
_atom_site_type_symbol
_atom_site_label
_atom_site_fract_x
_atom_site_fract_y
_atom_site_fract_z
Si Si1 0.556233 0.750000 0.527126
Si Si2 0.604767 0.939682 0.746779
Si Si3 0.444399 0.750000 0.333190
Si Si4 0.695369 0.939508 0.640929
Si Si5 0.867867 0.000000 0.500000
Si Si6 0.944246 0.557114 0.087676
O O1 0.500000 0.750000 0.555406
O O2 0.555437 0.750000 0.430079
O O3 0.592399 0.606002 0.547950
O O4 0.588427 0.750000 0.732186
O O5 0.661172 0.946601 0.719153
O O6 0.591629 0.979010 0.838779
O O7 0.579172 0.084657 0.698347
O O8 0.500000 0.750000 0.305528
O O9 0.695564 0.750000 0.613738
O O10 0.750000 0.000000 0.654045
O O11 0.669122 0.045450 0.571266
O O12 0.947495 0.750000 0.084365
O O13 0.000000 0.494307 0.102826
O O14 0.928475 0.500000 0.000000
#
# Coordination Sequence:
#
# PCOD9504431 Si02
#       6
#     8  16   8  16   8  16
#     4  11  24  40  58  86 119 156 200 239 288 364
#     4  10  22  40  57  86 123 156 195 245 301 351
#     4  11  22  36  61  87 114 158 203 239 287 360
#     4  11  25  40  62  85 110 150 199 256 307 350
#     4  12  22  42  60  84 120 152 194 248 300 350
#     4   9  18  33  55  85 120 155 192 233 282 348
#
# _framework density 19.095742000000001
#
# number of rings (size 3 to 8) (size 9 to 14) (size 15 to 20)
#    0.000    1.556    3.333    1.333    4.667    2.222 
#    0.000    0.000    0.000    0.667    0.000    4.667 
#    0.000    0.000    0.000    0.000    0.000    0.000 
#
# Total GULP energy -200478.131335 kJ/mol
# GULP energy per Si atom -5568.836982 kJ/mol
# Density = 1.905228 g / cm^3
# Si number density = 19.095742 Si / 1000 Ang^3
#
#
#
# Elastic Constant Matrix: (Units=GPa)
#
#
# Indices 1 2 3 4 5 6 
#
# 1 157.6390 47.0135 61.0084 0.0000 0.0000 0.0000
# 2 47.0135 71.1531 24.6441 0.0000 0.0000 0.0000
# 3 61.0084 24.6441 131.8238 0.0000 0.0000 0.0000
# 4 0.0000 0.0000 0.0000 29.2492 0.0000 0.0000
# 5 0.0000 0.0000 0.0000 0.0000 20.2965 0.0000
# 6 0.0000 0.0000 0.0000 0.0000 0.0000 26.1379
#
#
#
# Elastic Compliance Matrix: (Units=1/GPa)
#
#
# Indices 1 2 3 4 5 6 
#
# 1 0.009062 -0.004849 -0.003287 0.000000 0.000000 0.000000
# 2 -0.004849 0.017622 -0.001050 0.000000 0.000000 0.000000
# 3 -0.003287 -0.001050 0.009304 0.000000 0.000000 0.000000
# 4 0.000000 0.000000 0.000000 0.034189 0.000000 0.000000
# 5 0.000000 0.000000 0.000000 0.000000 0.049270 0.000000
# 6 0.000000 0.000000 0.000000 0.000000 0.000000 0.038259
#
#
# Mechanical properties :
#
#
# Convention : Reuss Voigt Hill
#
# Bulk Modulus (GPa) = 56.77226 69.54976 63.16101
# Shear Modulus (GPa) = 27.48016 30.33339 28.90677
#
# Velocity S-wave (km/s) = 3.79763 3.98991 3.89495
# Velocity P-wave (km/s) = 7.00173 7.59780 7.30584
#
# Compressibility (1/GPa) = 0.01761424
#
# Stress axis : x y z
#
# Youngs Moduli (GPa) = 110.35058 56.74765 107.48474
#
# Poissons Ratio (x) = 0.27517 0.35335
# Poissons Ratio (y) = 0.53509 0.11288
# Poissons Ratio (z) = 0.36277 0.05960
#
# Static dielectric constant tensor:
#      x y z
#    x 1.644870 0.000000 0.000000 
#    y 0.000000 1.895290 0.000000 
#    z 0.000000 0.000000 1.668780 
# 
# From -- ./inp_files/35376.got.cif
#   From: 2010.05.17/outbox.cif.g08.bks.cpg/sg67_18_cif.got.tgz:35376.got - 2010.06.03 18:28:57.
