data_PCOD9504724
_publ_section_title
;
Structure prediction by ZEFSAII (Michael W. Deem and Ramdas Pophale) SiO2 
 PCOD9504724
Probable space group: C M M A
;
_chemical_formula_sum "Si O2"
_cell_formula_units_Z 56
_cell_length_a 19.127301
_cell_length_b 14.683295
_cell_length_c 10.343786
_cell_angle_alpha 90.000000
_cell_angle_beta 90.000000
_cell_angle_gamma 90.000000
_cell_volume 2905.070949
_symmetry_space_group_name_H-M "C M M A"
_symmetry_group_IT_number 67
_symmetry_cell_setting 'orthorhombic'
loop_
_space_group_symop_operation_xyz
x,y,z
-x,1/2-y,z
x,-y,-z
-x,1/2+y,-z
-x,-y,-z
x,1/2+y,-z
-x,y,z
x,1/2-y,z
1/2+x,1/2+y,z
1/2-x,-y,z
1/2+x,1/2-y,-z
1/2-x,y,-z
1/2-x,1/2-y,-z
1/2+x,y,-z
1/2-x,1/2+y,z
1/2+x,-y,z
loop_
_atom_site_type_symbol
_atom_site_label
_atom_site_fract_x
_atom_site_fract_y
_atom_site_fract_z
Si Si1 0.193650 0.345829 0.114752
Si Si2 0.892770 0.500000 0.000000
Si Si3 0.276626 0.104089 0.361349
Si Si4 0.921875 0.857706 0.227102
O O1 0.153748 0.250000 0.104660
O O2 0.149624 0.436166 0.097760
O O3 0.235648 0.347941 0.246426
O O4 0.250000 0.348673 0.000000
O O5 0.922442 0.423093 0.900468
O O6 0.250000 0.139065 0.500000
O O7 0.358543 0.114238 0.323540
O O8 0.250000 0.000000 0.356579
O O9 0.911153 0.750000 0.194137
O O10 0.000000 0.865665 0.285090
#
# Coordination Sequence:
#
# PCOD9504724 Si02
#       4
#    16   8  16  16
#     4  11  20  33  60  91 121 157 205 262 308 354
#     4  12  20  38  58  94 124 164 204 260 312 364
#     4  11  22  40  64  93 121 164 212 259 314 364
#     4  11  24  41  63  92 128 170 209 252 316 382
#
# _framework density 19.276636
#
# number of rings (size 3 to 8) (size 9 to 14) (size 15 to 20)
#    0.000    0.857    5.714    2.571    0.000    2.286 
#    0.000    2.857    0.000    0.000    0.000    0.000 
#    0.000    0.000    0.000    0.000    0.000    0.000 
#
# Total GULP energy -155903.933999 kJ/mol
# GULP energy per Si atom -5567.997643 kJ/mol
# Density = 1.923276 g / cm^3
# Si number density = 19.276636 Si / 1000 Ang^3
#
#
#
# Elastic Constant Matrix: (Units=GPa)
#
#
# Indices 1 2 3 4 5 6 
#
# 1 135.6782 54.8661 59.8077 0.0000 0.0000 0.0000
# 2 54.8661 155.2024 29.6024 0.0000 0.0000 0.0000
# 3 59.8077 29.6024 152.5335 0.0000 0.0000 0.0000
# 4 0.0000 0.0000 0.0000 68.7729 0.0000 0.0000
# 5 0.0000 0.0000 0.0000 0.0000 11.0178 0.0000
# 6 0.0000 0.0000 0.0000 0.0000 0.0000 21.7924
#
#
#
# Elastic Compliance Matrix: (Units=1/GPa)
#
#
# Indices 1 2 3 4 5 6 
#
# 1 0.010029 -0.002903 -0.003369 0.000000 0.000000 0.000000
# 2 -0.002903 0.007531 -0.000323 0.000000 0.000000 0.000000
# 3 -0.003369 -0.000323 0.007940 0.000000 0.000000 0.000000
# 4 0.000000 0.000000 0.000000 0.014541 0.000000 0.000000
# 5 0.000000 0.000000 0.000000 0.000000 0.090762 0.000000
# 6 0.000000 0.000000 0.000000 0.000000 0.000000 0.045888
#
#
# Mechanical properties :
#
#
# Convention : Reuss Voigt Hill
#
# Bulk Modulus (GPa) = 81.23848 81.32962 81.28405
# Shear Modulus (GPa) = 25.77526 40.25914 33.01720
#
# Velocity S-wave (km/s) = 3.66064 4.57496 4.14310
# Velocity P-wave (km/s) = 7.75255 8.37791 8.07129
#
# Compressibility (1/GPa) = 0.01230944
#
# Stress axis : x y z
#
# Youngs Moduli (GPa) = 99.70692 132.78283 125.94926
#
# Poissons Ratio (x) = 0.38546 0.42434
# Poissons Ratio (y) = 0.28944 0.04073
# Poissons Ratio (z) = 0.33592 0.04294
#
# Static dielectric constant tensor:
#      x y z
#    x 1.700580 0.000000 0.000000 
#    y 0.000000 1.732120 0.000000 
#    z 0.000000 0.000000 1.668180 
# 
# From -- ./inp_files/10539.got.cif
#   From: 2010.05.17/outbox.cif.g08.bks.cpg/sg67_6_cif.got.tgz:10539.got - 2010.06.03 18:28:57.
