data_PCOD9504459
_publ_section_title
;
Structure prediction by ZEFSAII (Michael W. Deem and Ramdas Pophale) SiO2 
 PCOD9504459
Probable space group: C M M A
;
_chemical_formula_sum "Si O2"
_cell_formula_units_Z 112
_cell_length_a 21.910752
_cell_length_b 22.501172
_cell_length_c 12.085197
_cell_angle_alpha 90.000000
_cell_angle_beta 90.000000
_cell_angle_gamma 90.000000
_cell_volume 5958.214813
_symmetry_space_group_name_H-M "C M M A"
_symmetry_group_IT_number 67
_symmetry_cell_setting 'orthorhombic'
loop_
_space_group_symop_operation_xyz
x,y,z
-x,1/2-y,z
x,-y,-z
-x,1/2+y,-z
-x,-y,-z
x,1/2+y,-z
-x,y,z
x,1/2-y,z
1/2+x,1/2+y,z
1/2-x,-y,z
1/2+x,1/2-y,-z
1/2-x,y,-z
1/2-x,1/2-y,-z
1/2+x,y,-z
1/2-x,1/2+y,z
1/2+x,-y,z
loop_
_atom_site_type_symbol
_atom_site_label
_atom_site_fract_x
_atom_site_fract_y
_atom_site_fract_z
Si Si1 0.321003 0.821172 0.468491
Si Si2 0.736957 0.817864 0.877788
Si Si3 0.353466 0.864048 0.232459
Si Si4 0.879257 0.613978 0.164222
Si Si5 0.068110 0.680563 0.360794
Si Si6 0.428245 0.181844 0.953665
Si Si7 0.821266 0.992196 0.866744
O O1 0.321067 0.750000 0.443539
O O2 0.250000 0.835959 0.500000
O O3 0.345694 0.857737 0.363059
O O4 0.372697 0.830418 0.562558
O O5 0.717125 0.750000 0.889338
O O6 0.799422 0.822630 0.813783
O O7 0.685917 0.854713 0.816133
O O8 0.750000 0.843361 0.000000
O O9 0.412669 0.838543 0.170706
O O10 0.341944 0.929472 0.182891
O O11 0.925477 0.639604 0.253391
O O12 0.865734 0.544628 0.173529
O O13 0.897626 0.637579 0.042312
O O14 0.071614 0.750000 0.326852
O O15 0.000000 0.672101 0.411393
O O16 0.500000 0.180477 0.972510
O O17 0.406868 0.250000 0.970865
O O18 0.750000 0.000000 0.835122
O O19 0.823192 0.000000 0.000000
#
# Coordination Sequence:
#
# PCOD9504459 Si02
#       7
#    16  16  16  16  16  16  16
#     4  10  22  40  64  95 127 161 212 275 326 376
#     4  11  19  29  53  88 120 148 188 248 316 377
#     4  12  22  39  60  88 123 163 205 247 315 374
#     4  12  21  37  60  88 125 165 205 254 310 375
#     4  10  22  41  66  94 126 167 211 261 325 386
#     4  11  23  37  57  89 124 158 202 257 314 379
#     4  11  22  39  59  90 128 167 202 250 309 374
#
# _framework density 18.797578000000001
#
# number of rings (size 3 to 8) (size 9 to 14) (size 15 to 20)
#    0.000    1.000    4.286    3.857    0.000    2.857 
#    0.000    4.286    0.000    0.857    0.000    0.000 
#    0.000    0.000    0.000    0.000    0.000    0.000 
#
# Total GULP energy -312475.618634 kJ/mol
# GULP energy per Si atom -5579.921761 kJ/mol
# Density = 1.875479 g / cm^3
# Si number density = 18.797578 Si / 1000 Ang^3
#
#
#
# Elastic Constant Matrix: (Units=GPa)
#
#
# Indices 1 2 3 4 5 6 
#
# 1 87.1064 36.3308 25.0057 0.0000 0.0000 0.0000
# 2 36.3308 95.8878 38.4202 0.0000 0.0000 0.0000
# 3 25.0057 38.4202 85.9254 0.0000 0.0000 0.0000
# 4 0.0000 0.0000 0.0000 50.6178 0.0000 0.0000
# 5 0.0000 0.0000 0.0000 0.0000 23.6693 0.0000
# 6 0.0000 0.0000 0.0000 0.0000 0.0000 -1.8119
#
#
#
# Elastic Compliance Matrix: (Units=1/GPa)
#
#
# Indices 1 2 3 4 5 6 
#
# 1 0.013929 -0.004451 -0.002063 0.000000 0.000000 0.000000
# 2 -0.004451 0.014127 -0.005022 0.000000 0.000000 0.000000
# 3 -0.002063 -0.005022 0.014484 0.000000 0.000000 0.000000
# 4 0.000000 0.000000 0.000000 0.019756 0.000000 0.000000
# 5 0.000000 0.000000 0.000000 0.000000 0.042249 0.000000
# 6 0.000000 0.000000 0.000000 0.000000 0.000000 -0.551902
#
#
# Mechanical properties :
#
#
# Convention : Reuss Voigt Hill
#
# Bulk Modulus (GPa) = 51.36509 52.04813 51.70661
# Shear Modulus (GPa) = -11.96754 25.77257 6.90251
#
# Velocity S-wave (km/s) = -2.52594 3.70680 1.91833
# Velocity P-wave (km/s) = 4.34483 6.78744 5.69855
#
# Compressibility (1/GPa) = 0.01946847
#
# Stress axis : x y z
#
# Youngs Moduli (GPa) = 71.79317 70.78549 69.04267
#
# Poissons Ratio (x) = 0.31505 0.14247
# Poissons Ratio (y) = 0.31953 0.34670
# Poissons Ratio (z) = 0.14814 0.35545
#
# Static dielectric constant tensor:
#      x y z
#    x 1.663680 0.000000 0.000000 
#    y 0.000000 1.638700 0.000000 
#    z 0.000000 0.000000 1.720240 
# 
# From -- ./inp_files/22170.got.cif
#   From: 2010.05.17/outbox.cif.g08.bks.cpg/sg67_12_cif.got.tgz:22170.got - 2010.06.03 18:28:57.
