data_PCOD9504965
_publ_section_title
;
Structure prediction by ZEFSAII (Michael W. Deem and Ramdas Pophale) SiO2 
 PCOD9504965
Probable space group: C M M A
;
_chemical_formula_sum "Si O2"
_cell_formula_units_Z 60
_cell_length_a 14.336303
_cell_length_b 14.101559
_cell_length_c 12.006321
_cell_angle_alpha 90.000000
_cell_angle_beta 90.000000
_cell_angle_gamma 90.000000
_cell_volume 2427.248551
_symmetry_space_group_name_H-M "C M M A"
_symmetry_group_IT_number 67
_symmetry_cell_setting 'orthorhombic'
loop_
_space_group_symop_operation_xyz
x,y,z
-x,1/2-y,z
x,-y,-z
-x,1/2+y,-z
-x,-y,-z
x,1/2+y,-z
-x,y,z
x,1/2-y,z
1/2+x,1/2+y,z
1/2-x,-y,z
1/2+x,1/2-y,-z
1/2-x,y,-z
1/2-x,1/2-y,-z
1/2+x,y,-z
1/2-x,1/2+y,z
1/2+x,-y,z
loop_
_atom_site_type_symbol
_atom_site_label
_atom_site_fract_x
_atom_site_fract_y
_atom_site_fract_z
Si Si1 0.000000 0.250000 0.668204
Si Si2 0.000000 0.010532 0.606890
Si Si3 0.329888 0.573889 0.254492
Si Si4 0.000000 0.869107 0.163742
Si Si5 0.357768 0.362394 0.981959
Si Si6 0.724575 0.250000 0.370895
O O1 0.000000 0.422531 0.497373
O O2 0.888715 0.250000 0.641506
O O3 0.000000 0.122678 0.704042
O O4 0.095218 0.975716 0.667776
O O5 0.250000 0.500000 0.223159
O O6 0.381932 0.605815 0.141197
O O7 0.273112 0.660665 0.309544
O O8 0.000000 0.750000 0.180676
O O9 0.085366 0.898821 0.088347
O O10 0.373397 0.250000 0.987074
O O11 0.250000 0.381397 0.000000
O O12 0.750000 0.250000 0.500000
#
# Coordination Sequence:
#
# PCOD9504965 Si02
#       6
#     4   8  16   8  16   8
#     4  12  24  48  78 118 156 192 268 330 398 474
#     4  12  31  49  73 108 160 209 275 340 399 488
#     4  12  28  50  78 116 160 213 271 341 413 483
#     4  12  25  45  80 115 151 215 258 331 420 482
#     4  11  22  43  73 112 156 195 257 329 398 487
#     4  12  30  49  82 117 159 222 276 327 413 494
#
# _framework density 24.719348
#
# number of rings (size 3 to 8) (size 9 to 14) (size 15 to 20)
#    0.000    0.267    2.667    5.600    7.467    5.333 
#    0.000    0.000    0.000    0.000    0.000    0.000 
#    0.000    0.000    0.000    0.000    0.000    0.000 
#
# Total GULP energy -167356.448172 kJ/mol
# GULP energy per Si atom -5578.548272 kJ/mol
# Density = 2.466309 g / cm^3
# Si number density = 24.719348 Si / 1000 Ang^3
#
#
#
# Elastic Constant Matrix: (Units=GPa)
#
#
# Indices 1 2 3 4 5 6 
#
# 1 194.7847 59.8973 68.9276 0.0000 0.0000 0.0000
# 2 59.8973 141.2262 39.5122 0.0000 0.0000 0.0000
# 3 68.9276 39.5122 186.5011 0.0000 0.0000 0.0000
# 4 0.0000 0.0000 0.0000 18.0249 0.0000 0.0000
# 5 0.0000 0.0000 0.0000 0.0000 56.2037 0.0000
# 6 0.0000 0.0000 0.0000 0.0000 0.0000 27.9553
#
#
#
# Elastic Compliance Matrix: (Units=1/GPa)
#
#
# Indices 1 2 3 4 5 6 
#
# 1 0.006499 -0.002216 -0.001933 0.000000 0.000000 0.000000
# 2 -0.002216 0.008282 -0.000936 0.000000 0.000000 0.000000
# 3 -0.001933 -0.000936 0.006274 0.000000 0.000000 0.000000
# 4 0.000000 0.000000 0.000000 0.055479 0.000000 0.000000
# 5 0.000000 0.000000 0.000000 0.000000 0.017792 0.000000
# 6 0.000000 0.000000 0.000000 0.000000 0.000000 0.035771
#
#
# Mechanical properties :
#
#
# Convention : Reuss Voigt Hill
#
# Bulk Modulus (GPa) = 91.84651 95.46513 93.65582
# Shear Modulus (GPa) = 34.74734 44.04843 39.39789
#
# Velocity S-wave (km/s) = 3.75330 4.22588 3.99658
# Velocity P-wave (km/s) = 7.48461 7.90659 7.69849
#
# Compressibility (1/GPa) = 0.01088773
#
# Stress axis : x y z
#
# Youngs Moduli (GPa) = 153.86813 120.73789 159.37805
#
# Poissons Ratio (x) = 0.26752 0.30800
# Poissons Ratio (y) = 0.34093 0.14915
# Poissons Ratio (z) = 0.29735 0.11299
#
# Static dielectric constant tensor:
#      x y z
#    x 1.930740 0.000000 0.000000 
#    y 0.000000 3.012310 0.000000 
#    z 0.000000 0.000000 2.005330 
# 
# From -- ./inp_files/26763.got.cif
#   From: 2010.05.17/outbox.cif.g08.bks.cpg/sg67_14_cif.got.tgz:26763.got - 2010.06.03 18:28:57.
