data_PCOD9504097
_publ_section_title
;
Structure prediction by ZEFSAII (Michael W. Deem and Ramdas Pophale) SiO2 
 PCOD9504097
Probable space group: C M M A
;
_chemical_formula_sum "Si O2"
_cell_formula_units_Z 96
_cell_length_a 14.464127
_cell_length_b 21.046932
_cell_length_c 14.688991
_cell_angle_alpha 90.000000
_cell_angle_beta 90.000000
_cell_angle_gamma 90.000000
_cell_volume 4471.703392
_symmetry_space_group_name_H-M "C M M A"
_symmetry_group_IT_number 67
_symmetry_cell_setting 'orthorhombic'
loop_
_space_group_symop_operation_xyz
x,y,z
-x,1/2-y,z
x,-y,-z
-x,1/2+y,-z
-x,-y,-z
x,1/2+y,-z
-x,y,z
x,1/2-y,z
1/2+x,1/2+y,z
1/2-x,-y,z
1/2+x,1/2-y,-z
1/2-x,y,-z
1/2-x,1/2-y,-z
1/2+x,y,-z
1/2-x,1/2+y,z
1/2+x,-y,z
loop_
_atom_site_type_symbol
_atom_site_label
_atom_site_fract_x
_atom_site_fract_y
_atom_site_fract_z
Si Si1 0.353362 0.435957 0.460006
Si Si2 0.719323 0.325558 0.757115
Si Si3 0.609907 0.408269 0.256297
Si Si4 0.895497 0.177043 0.416617
Si Si5 0.388392 0.675641 0.060127
Si Si6 0.388263 0.442164 0.061116
O O1 0.396944 0.500000 0.500000
O O2 0.250000 0.434832 0.500000
O O3 0.362409 0.438677 0.351959
O O4 0.393385 0.370064 0.498192
O O5 0.712480 0.250000 0.755151
O O6 0.824859 0.347291 0.755622
O O7 0.670145 0.347746 0.663925
O O8 0.663519 0.345172 0.847488
O O9 0.500000 0.395260 0.256039
O O10 0.634232 0.449260 0.167112
O O11 0.870347 0.250000 0.441135
O O12 0.000000 0.178368 0.380019
O O13 0.500000 0.672196 0.073442
O O14 0.366508 0.750000 0.040153
O O15 0.361822 0.626326 0.980711
O O16 0.500000 0.443058 0.056377
O O17 0.354079 0.500000 0.000000
#
# Coordination Sequence:
#
# PCOD9504097 Si02
#       6
#    16  16  16  16  16  16
#     4  11  24  44  68  94 126 168 212 263 324 386
#     4  10  21  38  62  93 130 167 211 266 316 373
#     4  11  24  42  63  90 125 167 215 261 317 386
#     4  10  21  39  65  95 126 166 215 265 321 380
#     4   9  18  36  63  92 125 167 212 257 310 373
#     4   9  20  40  63  91 128 168 209 258 315 374
#
# _framework density 21.468328
#
# number of rings (size 3 to 8) (size 9 to 14) (size 15 to 20)
#    0.000    2.000    1.667    1.000    0.000    7.333 
#    0.000    5.833    0.000    0.000    0.000    0.000 
#    0.000    0.000    0.000    0.000    0.000    0.000 
#
# Total GULP energy -267989.762197 kJ/mol
# GULP energy per Si atom -5583.120046 kJ/mol
# Density = 2.141947 g / cm^3
# Si number density = 21.468328 Si / 1000 Ang^3
#
#
#
# Elastic Constant Matrix: (Units=GPa)
#
#
# Indices 1 2 3 4 5 6 
#
# 1 92.5368 18.1887 34.1434 0.0000 0.0000 0.0000
# 2 18.1887 81.0335 73.4155 0.0000 0.0000 0.0000
# 3 34.1434 73.4155 199.5512 0.0000 0.0000 0.0000
# 4 0.0000 0.0000 0.0000 25.7381 0.0000 0.0000
# 5 0.0000 0.0000 0.0000 0.0000 19.2490 0.0000
# 6 0.0000 0.0000 0.0000 0.0000 0.0000 105.7491
#
#
#
# Elastic Compliance Matrix: (Units=1/GPa)
#
#
# Indices 1 2 3 4 5 6 
#
# 1 0.011613 -0.001210 -0.001542 0.000000 0.000000 0.000000
# 2 -0.001210 0.018636 -0.006649 0.000000 0.000000 0.000000
# 3 -0.001542 -0.006649 0.007721 0.000000 0.000000 0.000000
# 4 0.000000 0.000000 0.000000 0.038853 0.000000 0.000000
# 5 0.000000 0.000000 0.000000 0.000000 0.051951 0.000000
# 6 0.000000 0.000000 0.000000 0.000000 0.000000 0.009456
#
#
# Mechanical properties :
#
#
# Convention : Reuss Voigt Hill
#
# Bulk Modulus (GPa) = 52.16780 69.40184 60.78482
# Shear Modulus (GPa) = 30.59546 46.63882 38.61714
#
# Velocity S-wave (km/s) = 3.77920 4.66601 4.24582
# Velocity P-wave (km/s) = 6.58755 7.83751 7.23956
#
# Compressibility (1/GPa) = 0.01916891
#
# Stress axis : x y z
#
# Youngs Moduli (GPa) = 86.10873 53.65840 129.50973
#
# Poissons Ratio (x) = 0.06491 0.19970
# Poissons Ratio (y) = 0.10416 0.86116
# Poissons Ratio (z) = 0.13278 0.35680
#
# Static dielectric constant tensor:
#      x y z
#    x 1.820960 0.000000 0.000000 
#    y 0.000000 1.764250 0.000000 
#    z 0.000000 0.000000 1.790280 
# 
# From -- ./inp_files/27162.got.cif
#   From: 2010.05.17/outbox.cif.g08.bks.cpg/sg67_14_cif.got.tgz:27162.got - 2010.06.03 18:28:57.
