data_PCOD9504615
_publ_section_title
;
Structure prediction by ZEFSAII (Michael W. Deem and Ramdas Pophale) SiO2 
 PCOD9504615
Probable space group: C M M A
;
_chemical_formula_sum "Si O2"
_cell_formula_units_Z 80
_cell_length_a 18.605511
_cell_length_b 25.241130
_cell_length_c 8.419761
_cell_angle_alpha 90.000000
_cell_angle_beta 90.000000
_cell_angle_gamma 90.000000
_cell_volume 3954.122866
_symmetry_space_group_name_H-M "C M M A"
_symmetry_group_IT_number 67
_symmetry_cell_setting 'orthorhombic'
loop_
_space_group_symop_operation_xyz
x,y,z
-x,1/2-y,z
x,-y,-z
-x,1/2+y,-z
-x,-y,-z
x,1/2+y,-z
-x,y,z
x,1/2-y,z
1/2+x,1/2+y,z
1/2-x,-y,z
1/2+x,1/2-y,-z
1/2-x,y,-z
1/2-x,1/2-y,-z
1/2+x,y,-z
1/2-x,1/2+y,z
1/2+x,-y,z
loop_
_atom_site_type_symbol
_atom_site_label
_atom_site_fract_x
_atom_site_fract_y
_atom_site_fract_z
Si Si1 0.296203 0.250000 0.161862
Si Si2 0.840325 0.559323 0.816615
Si Si3 0.915110 0.250000 0.073281
Si Si4 0.414053 0.339639 0.675682
Si Si5 0.182217 0.155821 0.605129
Si Si6 0.666270 0.439250 0.186184
O O1 0.287225 0.198278 0.269804
O O2 0.250000 0.250000 0.000000
O O3 0.376661 0.250000 0.094176
O O4 0.881670 0.602728 0.715258
O O5 0.753624 0.563571 0.808242
O O6 0.856733 0.498710 0.769032
O O7 0.857112 0.568026 0.003464
O O8 0.894922 0.198946 0.178321
O O9 0.000000 0.250000 0.054706
O O10 0.500000 0.340517 0.659630
O O11 0.374830 0.319825 0.517027
O O12 0.250000 0.136973 0.500000
O O13 0.144466 0.107825 0.698277
#
# Coordination Sequence:
#
# PCOD9504615 Si02
#       6
#     8  16   8  16  16  16
#     4  12  26  39  64  93 120 153 210 272 303 358
#     4   9  18  38  60  89 116 162 210 250 298 357
#     4  10  23  43  65  85 120 169 207 243 307 375
#     4  11  23  41  62  90 129 166 203 253 311 374
#     4  12  23  38  59  90 126 159 199 254 319 370
#     4   9  19  35  63  86 119 158 208 255 299 359
#
# _framework density 20.232046
#
# number of rings (size 3 to 8) (size 9 to 14) (size 15 to 20)
#    0.000    1.600    2.000    4.500    2.800    1.600 
#    0.000    5.000    0.000    0.000    0.000    0.000 
#    0.000    0.000    0.000    0.000    0.000    0.000 
#
# Total GULP energy -223436.473137 kJ/mol
# GULP energy per Si atom -5585.911828 kJ/mol
# Density = 2.018600 g / cm^3
# Si number density = 20.232046 Si / 1000 Ang^3
#
#
#
# Elastic Constant Matrix: (Units=GPa)
#
#
# Indices 1 2 3 4 5 6 
#
# 1 44.5592 8.6983 14.3546 0.0000 0.0000 0.0000
# 2 8.6983 92.8255 39.8037 0.0000 0.0000 0.0000
# 3 14.3546 39.8037 77.1098 0.0000 0.0000 0.0000
# 4 0.0000 0.0000 0.0000 235.6737 0.0000 0.0000
# 5 0.0000 0.0000 0.0000 0.0000 31.3549 0.0000
# 6 0.0000 0.0000 0.0000 0.0000 0.0000 23.7879
#
#
#
# Elastic Compliance Matrix: (Units=1/GPa)
#
#
# Indices 1 2 3 4 5 6 
#
# 1 0.023887 -0.000426 -0.004227 0.000000 0.000000 0.000000
# 2 -0.000426 0.013843 -0.007066 0.000000 0.000000 0.000000
# 3 -0.004227 -0.007066 0.017403 0.000000 0.000000 0.000000
# 4 0.000000 0.000000 0.000000 0.004243 0.000000 0.000000
# 5 0.000000 0.000000 0.000000 0.000000 0.031893 0.000000
# 6 0.000000 0.000000 0.000000 0.000000 0.000000 0.042038
#
#
# Mechanical properties :
#
#
# Convention : Reuss Voigt Hill
#
# Bulk Modulus (GPa) = 31.55114 37.80084 34.67599
# Shear Modulus (GPa) = 29.88461 68.27248 49.07855
#
# Velocity S-wave (km/s) = 3.84747 5.81532 4.93057
# Velocity P-wave (km/s) = 5.94692 7.98842 7.04204
#
# Compressibility (1/GPa) = 0.03169458
#
# Stress axis : x y z
#
# Youngs Moduli (GPa) = 41.86398 72.23934 57.46127
#
# Poissons Ratio (x) = 0.03076 0.24288
# Poissons Ratio (y) = 0.01783 0.40604
# Poissons Ratio (z) = 0.17696 0.51047
#
# Static dielectric constant tensor:
#      x y z
#    x 1.710100 0.000000 0.000000 
#    y 0.000000 1.729410 0.000000 
#    z 0.000000 0.000000 1.712230 
# 
# From -- ./inp_files/11168.got.cif
#   From: 2010.05.17/outbox.cif.g08.bks.cpg/sg67_6_cif.got.tgz:11168.got - 2010.06.03 18:28:57.
