data_PCOD9504415
_publ_section_title
;
Structure prediction by ZEFSAII (Michael W. Deem and Ramdas Pophale) SiO2 
 PCOD9504415
Probable space group: C M M A
;
_chemical_formula_sum "Si O2"
_cell_formula_units_Z 96
_cell_length_a 22.343830
_cell_length_b 17.573976
_cell_length_c 11.760273
_cell_angle_alpha 90.000000
_cell_angle_beta 90.000000
_cell_angle_gamma 90.000000
_cell_volume 4617.905601
_symmetry_space_group_name_H-M "C M M A"
_symmetry_group_IT_number 67
_symmetry_cell_setting 'orthorhombic'
loop_
_space_group_symop_operation_xyz
x,y,z
-x,1/2-y,z
x,-y,-z
-x,1/2+y,-z
-x,-y,-z
x,1/2+y,-z
-x,y,z
x,1/2-y,z
1/2+x,1/2+y,z
1/2-x,-y,z
1/2+x,1/2-y,-z
1/2-x,y,-z
1/2-x,1/2-y,-z
1/2+x,y,-z
1/2-x,1/2+y,z
1/2+x,-y,z
loop_
_atom_site_type_symbol
_atom_site_label
_atom_site_fract_x
_atom_site_fract_y
_atom_site_fract_z
Si Si1 0.932233 0.547559 0.852968
Si Si2 0.428377 0.333577 0.044603
Si Si3 0.255709 0.661832 0.135794
Si Si4 0.819542 0.091270 0.509978
Si Si5 0.374046 0.838528 0.285069
Si Si6 0.641959 0.094823 0.236072
O O1 0.930010 0.616071 0.763132
O O2 0.888040 0.484775 0.801036
O O3 0.000000 0.517623 0.864915
O O4 0.913798 0.591685 0.968930
O O5 0.500000 0.332677 0.052822
O O6 0.409529 0.250000 0.996978
O O7 0.397331 0.344671 0.165718
O O8 0.239086 0.750000 0.162853
O O9 0.320128 0.649824 0.193171
O O10 0.209078 0.603646 0.189835
O O11 0.250000 0.654207 0.000000
O O12 0.750000 0.116702 0.500000
O O13 0.853217 0.127887 0.404380
O O14 0.851329 0.108357 0.629962
O O15 0.819550 0.000000 0.500000
O O16 0.385406 0.750000 0.294922
#
# Coordination Sequence:
#
# PCOD9504415 Si02
#       6
#    16  16  16  16  16  16
#     4  11  24  43  66  96 132 174 219 270 326 388
#     4  10  22  41  65  95 133 174 216 267 330 399
#     4  10  22  39  62  98 137 167 208 270 336 400
#     4  11  23  43  64  91 131 172 217 268 324 390
#     4  11  23  41  66  96 127 172 223 265 326 398
#     4  12  22  39  68  94 129 171 219 271 327 386
#
# _framework density 20.788646
#
# number of rings (size 3 to 8) (size 9 to 14) (size 15 to 20)
#    0.000    1.167    3.333    3.000    0.000    6.000 
#    0.000    3.333    0.000    0.000    0.000    0.000 
#    0.000    0.000    0.000    0.000    0.000    0.000 
#
# Total GULP energy -268184.207861 kJ/mol
# GULP energy per Si atom -5587.170997 kJ/mol
# Density = 2.074133 g / cm^3
# Si number density = 20.788646 Si / 1000 Ang^3
#
#
#
# Elastic Constant Matrix: (Units=GPa)
#
#
# Indices 1 2 3 4 5 6 
#
# 1 67.0914 34.0651 40.3020 0.0000 0.0000 0.0000
# 2 34.0651 85.8027 28.8683 0.0000 0.0000 0.0000
# 3 40.3020 28.8683 144.5270 0.0000 0.0000 0.0000
# 4 0.0000 0.0000 0.0000 28.2712 0.0000 0.0000
# 5 0.0000 0.0000 0.0000 0.0000 17.9289 0.0000
# 6 0.0000 0.0000 0.0000 0.0000 0.0000 -19.1776
#
#
#
# Elastic Compliance Matrix: (Units=1/GPa)
#
#
# Indices 1 2 3 4 5 6 
#
# 1 0.021098 -0.006858 -0.004514 0.000000 0.000000 0.000000
# 2 -0.006858 0.014723 -0.001029 0.000000 0.000000 0.000000
# 3 -0.004514 -0.001029 0.008383 0.000000 0.000000 0.000000
# 4 0.000000 0.000000 0.000000 0.035372 0.000000 0.000000
# 5 0.000000 0.000000 0.000000 0.000000 0.055776 0.000000
# 6 0.000000 0.000000 0.000000 0.000000 0.000000 -0.052144
#
#
# Mechanical properties :
#
#
# Convention : Reuss Voigt Hill
#
# Bulk Modulus (GPa) = 51.53300 55.98798 53.76049
# Shear Modulus (GPa) = 43.67701 18.35020 31.01361
#
# Velocity S-wave (km/s) = 4.58864 2.97425 3.86664
# Velocity P-wave (km/s) = 7.27441 6.22779 6.77135
#
# Compressibility (1/GPa) = 0.01940504
#
# Stress axis : x y z
#
# Youngs Moduli (GPa) = 47.39716 67.91925 119.28627
#
# Poissons Ratio (x) = 0.46578 0.53840
# Poissons Ratio (y) = 0.32504 0.12269
# Poissons Ratio (z) = 0.21393 0.06986
#
# Static dielectric constant tensor:
#      x y z
#    x 1.759780 0.000000 0.000000 
#    y 0.000000 1.771990 0.000000 
#    z 0.000000 0.000000 1.772970 
# 
# From -- ./inp_files/21917.got.cif
#   From: 2010.05.17/outbox.cif.g08.bks.cpg/sg67_11_cif.got.tgz:21917.got - 2010.06.03 18:28:57.
