data_PCOD9504763
_publ_section_title
;
Structure prediction by ZEFSAII (Michael W. Deem and Ramdas Pophale) SiO2 
 PCOD9504763
Probable space group: C M M A
;
_chemical_formula_sum "Si O2"
_cell_formula_units_Z 128
_cell_length_a 19.280546
_cell_length_b 18.265563
_cell_length_c 19.958955
_cell_angle_alpha 90.000000
_cell_angle_beta 90.000000
_cell_angle_gamma 90.000000
_cell_volume 7028.945734
_symmetry_space_group_name_H-M "C M M A"
_symmetry_group_IT_number 67
_symmetry_cell_setting 'orthorhombic'
loop_
_space_group_symop_operation_xyz
x,y,z
-x,1/2-y,z
x,-y,-z
-x,1/2+y,-z
-x,-y,-z
x,1/2+y,-z
-x,y,z
x,1/2-y,z
1/2+x,1/2+y,z
1/2-x,-y,z
1/2+x,1/2-y,-z
1/2-x,y,-z
1/2-x,1/2-y,-z
1/2+x,y,-z
1/2-x,1/2+y,z
1/2+x,-y,z
loop_
_atom_site_type_symbol
_atom_site_label
_atom_site_fract_x
_atom_site_fract_y
_atom_site_fract_z
Si Si1 0.799953 0.933124 0.731267
Si Si2 0.579585 0.632313 0.888417
Si Si3 0.579865 0.034601 0.832189
Si Si4 0.804035 0.162209 0.399999
Si Si5 0.575912 0.339374 0.330434
Si Si6 0.850698 0.837703 0.459023
Si Si7 0.415987 0.077978 0.972724
Si Si8 0.312912 0.332475 0.220799
O O1 0.867811 0.958928 0.770840
O O2 0.816399 0.883348 0.666859
O O3 0.752738 0.884657 0.781573
O O4 0.750000 0.000000 0.710861
O O5 0.500000 0.658894 0.879021
O O6 0.579549 0.547635 0.862884
O O7 0.637893 0.668896 0.843574
O O8 0.598223 0.634021 0.967232
O O9 0.500000 0.051973 0.814364
O O10 0.603836 0.085279 0.895238
O O11 0.813264 0.250000 0.389814
O O12 0.848690 0.136349 0.464458
O O13 0.724432 0.151567 0.424507
O O14 0.500000 0.364196 0.307840
O O15 0.575588 0.250000 0.330050
O O16 0.593318 0.364634 0.405546
O O17 0.636807 0.360499 0.280339
O O18 0.859291 0.750000 0.464052
O O19 0.500000 0.072558 0.971102
O O20 0.388692 0.000000 0.000000
O O21 0.290776 0.250000 0.237927
#
# Coordination Sequence:
#
# PCOD9504763 Si02
#       8
#    16  16  16  16  16  16  16  16
#     4  12  22  34  52  78 107 140 178 217 259 318
#     4   9  16  30  53  80 106 134 173 217 262 316
#     4   9  18  34  54  76 104 138 176 220 263 304
#     4   9  17  32  54  73  96 131 174 219 260 301
#     4   9  16  27  47  77 108 135 166 207 260 320
#     4   8  14  28  50  73  95 129 173 214 254 304
#     4   7  12  26  51  75  96 130 175 216 253 301
#     4  11  21  33  50  77 113 144 172 212 266 322
#
# _framework density 18.210412999999999
#
# number of rings (size 3 to 8) (size 9 to 14) (size 15 to 20)
#    0.000    2.750    2.500    3.000    0.000    0.750 
#    0.000    2.500    0.000    4.500    0.000    4.375 
#    0.000    0.000    0.000    0.000    0.000    0.000 
#
# Total GULP energy -356309.057362 kJ/mol
# GULP energy per Si atom -5567.329021 kJ/mol
# Density = 1.816897 g / cm^3
# Si number density = 18.210413 Si / 1000 Ang^3
#
#
#
# Elastic Constant Matrix: (Units=GPa)
#
#
# Indices 1 2 3 4 5 6 
#
# 1 51.2703 14.7493 22.1282 0.0000 0.0000 0.0000
# 2 14.7493 35.0565 20.1930 0.0000 0.0000 0.0000
# 3 22.1282 20.1930 102.5098 0.0000 0.0000 0.0000
# 4 0.0000 0.0000 0.0000 23.3637 0.0000 0.0000
# 5 0.0000 0.0000 0.0000 0.0000 20.4341 0.0000
# 6 0.0000 0.0000 0.0000 0.0000 0.0000 11.3326
#
#
#
# Elastic Compliance Matrix: (Units=1/GPa)
#
#
# Indices 1 2 3 4 5 6 
#
# 1 0.023245 -0.007771 -0.003487 0.000000 0.000000 0.000000
# 2 -0.007771 0.034775 -0.005173 0.000000 0.000000 0.000000
# 3 -0.003487 -0.005173 0.011527 0.000000 0.000000 0.000000
# 4 0.000000 0.000000 0.000000 0.042802 0.000000 0.000000
# 5 0.000000 0.000000 0.000000 0.000000 0.048938 0.000000
# 6 0.000000 0.000000 0.000000 0.000000 0.000000 0.088241
#
#
# Mechanical properties :
#
#
# Convention : Reuss Voigt Hill
#
# Bulk Modulus (GPa) = 27.25933 33.66419 30.46176
# Shear Modulus (GPa) = 16.97120 19.81046 18.39083
#
# Velocity S-wave (km/s) = 3.05610 3.30186 3.18135
# Velocity P-wave (km/s) = 5.23971 5.75002 5.50079
#
# Compressibility (1/GPa) = 0.03668468
#
# Stress axis : x y z
#
# Youngs Moduli (GPa) = 43.01985 28.75667 86.75442
#
# Poissons Ratio (x) = 0.22348 0.30251
# Poissons Ratio (y) = 0.33432 0.44874
# Poissons Ratio (z) = 0.15001 0.14874
#
# Static dielectric constant tensor:
#      x y z
#    x 1.613180 0.000000 0.000000 
#    y 0.000000 1.656130 0.000000 
#    z 0.000000 0.000000 1.672700 
# 
# From -- ./inp_files/39156.got.cif
#   From: 2010.05.17/outbox.cif.g08.bks.cpg/sg67_20_cif.got.tgz:39156.got - 2010.06.03 18:28:57.
