data_PCOD9504948
_publ_section_title
;
Structure prediction by ZEFSAII (Michael W. Deem and Ramdas Pophale) SiO2 
 PCOD9504948
Probable space group: C M M A
;
_chemical_formula_sum "Si O2"
_cell_formula_units_Z 88
_cell_length_a 23.786754
_cell_length_b 20.702989
_cell_length_c 9.678214
_cell_angle_alpha 90.000000
_cell_angle_beta 90.000000
_cell_angle_gamma 90.000000
_cell_volume 4766.103326
_symmetry_space_group_name_H-M "C M M A"
_symmetry_group_IT_number 67
_symmetry_cell_setting 'orthorhombic'
loop_
_space_group_symop_operation_xyz
x,y,z
-x,1/2-y,z
x,-y,-z
-x,1/2+y,-z
-x,-y,-z
x,1/2+y,-z
-x,y,z
x,1/2-y,z
1/2+x,1/2+y,z
1/2-x,-y,z
1/2+x,1/2-y,-z
1/2-x,y,-z
1/2-x,1/2-y,-z
1/2+x,y,-z
1/2-x,1/2+y,z
1/2+x,-y,z
loop_
_atom_site_type_symbol
_atom_site_label
_atom_site_fract_x
_atom_site_fract_y
_atom_site_fract_z
Si Si1 0.000000 0.577992 0.482753
Si Si2 0.214856 0.325416 0.359358
Si Si3 0.000000 0.412351 0.836069
Si Si4 0.618074 0.482469 0.154539
Si Si5 0.404351 0.615139 0.309033
Si Si6 0.500000 0.827403 0.108396
Si Si7 0.269371 0.572385 0.840955
O O1 0.000000 0.500000 0.500000
O O2 0.000000 0.603545 0.326574
O O3 0.945232 0.602050 0.562941
O O4 0.220880 0.250000 0.325981
O O5 0.250000 0.337320 0.500000
O O6 0.148805 0.343530 0.358570
O O7 0.240802 0.371786 0.244780
O O8 0.944338 0.455071 0.854319
O O9 0.000000 0.358067 0.954683
O O10 0.616911 0.546344 0.248162
O O11 0.664146 0.429127 0.192895
O O12 0.636552 0.500000 0.000000
O O13 0.444653 0.647235 0.191655
O O14 0.500000 0.750000 0.104997
O O15 0.250000 0.500000 0.799824
O O16 0.250000 0.580383 0.000000
#
# Coordination Sequence:
#
# PCOD9504948 Si02
#       7
#     8  16   8  16  16   8  16
#     4  11  23  37  60 102 132 157 205 266 340 386
#     4  11  26  45  64  92 130 176 221 261 319 392
#     4  12  24  38  63  99 131 159 209 277 317 374
#     4  12  20  37  66  97 126 162 208 269 333 371
#     4  11  22  41  66  91 130 170 210 265 317 397
#     4  11  24  42  66  92 123 177 225 256 313 381
#     4  11  22  41  65  97 131 160 212 272 329 386
#
# _framework density 18.463719999999999
#
# number of rings (size 3 to 8) (size 9 to 14) (size 15 to 20)
#    0.000    0.727    7.273    1.364    2.545    0.727 
#    0.000    3.636    0.000    0.000    0.000    0.000 
#    0.000    0.000    0.000    0.000    0.000    0.000 
#
# Total GULP energy -245615.937801 kJ/mol
# GULP energy per Si atom -5582.180405 kJ/mol
# Density = 1.842170 g / cm^3
# Si number density = 18.463720 Si / 1000 Ang^3
#
#
#
# Elastic Constant Matrix: (Units=GPa)
#
#
# Indices 1 2 3 4 5 6 
#
# 1 143.1607 64.2281 47.5672 0.0000 0.0000 0.0000
# 2 64.2281 118.4341 72.0550 0.0000 0.0000 0.0000
# 3 47.5672 72.0550 127.0769 0.0000 0.0000 0.0000
# 4 0.0000 0.0000 0.0000 23.6730 0.0000 0.0000
# 5 0.0000 0.0000 0.0000 0.0000 19.0952 0.0000
# 6 0.0000 0.0000 0.0000 0.0000 0.0000 24.5624
#
#
#
# Elastic Compliance Matrix: (Units=1/GPa)
#
#
# Indices 1 2 3 4 5 6 
#
# 1 0.009306 -0.004469 -0.000949 0.000000 0.000000 0.000000
# 2 -0.004469 0.015037 -0.006853 0.000000 0.000000 0.000000
# 3 -0.000949 -0.006853 0.012110 0.000000 0.000000 0.000000
# 4 0.000000 0.000000 0.000000 0.042242 0.000000 0.000000
# 5 0.000000 0.000000 0.000000 0.000000 0.052369 0.000000
# 6 0.000000 0.000000 0.000000 0.000000 0.000000 0.040713
#
#
# Mechanical properties :
#
#
# Convention : Reuss Voigt Hill
#
# Bulk Modulus (GPa) = 83.96494 84.04137 84.00315
# Shear Modulus (GPa) = 24.96389 27.12088 26.04239
#
# Velocity S-wave (km/s) = 3.68101 3.83675 3.75969
# Velocity P-wave (km/s) = 7.97752 8.07734 8.02758
#
# Compressibility (1/GPa) = 0.01190973
#
# Stress axis : x y z
#
# Youngs Moduli (GPa) = 107.46292 66.50464 82.57336
#
# Poissons Ratio (x) = 0.29721 0.07838
# Poissons Ratio (y) = 0.48025 0.56589
# Poissons Ratio (z) = 0.10201 0.45577
#
# Static dielectric constant tensor:
#      x y z
#    x 1.695280 0.000000 0.000000 
#    y 0.000000 1.608060 0.000000 
#    z 0.000000 0.000000 1.648980 
# 
# From -- ./inp_files/12477.got.cif
#   From: 2010.05.17/outbox.cif.g08.bks.cpg/sg67_7_cif.got.tgz:12477.got - 2010.06.03 18:28:57.
