data_PCOD9504640
_publ_section_title
;
Structure prediction by ZEFSAII (Michael W. Deem and Ramdas Pophale) SiO2 
 PCOD9504640
Probable space group: C M M A
;
_chemical_formula_sum "Si O2"
_cell_formula_units_Z 96
_cell_length_a 15.332805
_cell_length_b 14.989220
_cell_length_c 20.291755
_cell_angle_alpha 90.000000
_cell_angle_beta 90.000000
_cell_angle_gamma 90.000000
_cell_volume 4663.588862
_symmetry_space_group_name_H-M "C M M A"
_symmetry_group_IT_number 67
_symmetry_cell_setting 'orthorhombic'
loop_
_space_group_symop_operation_xyz
x,y,z
-x,1/2-y,z
x,-y,-z
-x,1/2+y,-z
-x,-y,-z
x,1/2+y,-z
-x,y,z
x,1/2-y,z
1/2+x,1/2+y,z
1/2-x,-y,z
1/2+x,1/2-y,-z
1/2-x,y,-z
1/2-x,1/2-y,-z
1/2+x,y,-z
1/2-x,1/2+y,z
1/2+x,-y,z
loop_
_atom_site_type_symbol
_atom_site_label
_atom_site_fract_x
_atom_site_fract_y
_atom_site_fract_z
Si Si1 0.248617 0.856197 0.079254
Si Si2 0.596249 0.351662 0.645183
Si Si3 0.102672 0.154744 0.647462
Si Si4 0.156036 0.005717 0.261107
Si Si5 0.145640 0.397431 0.500694
Si Si6 0.101900 0.502011 0.880553
O O1 0.247548 0.750000 0.100889
O O2 0.336289 0.912575 0.099851
O O3 0.162214 0.914696 0.100635
O O4 0.250000 0.855586 0.000000
O O5 0.500000 0.391393 0.654624
O O6 0.597239 0.250000 0.665951
O O7 0.656372 0.409096 0.691500
O O8 0.615435 0.355492 0.567619
O O9 0.141864 0.250000 0.666735
O O10 0.114891 0.143526 0.569089
O O11 0.000000 0.155275 0.660244
O O12 0.141008 0.074899 0.688906
O O13 0.094075 0.005744 0.198858
O O14 0.250000 0.000000 0.228956
O O15 0.116443 0.500000 0.500000
O O16 0.250000 0.394605 0.500000
O O17 0.000000 0.501397 0.906106
#
# Coordination Sequence:
#
# PCOD9504640 Si02
#       6
#    16  16  16  16  16  16
#     4  10  23  45  72 107 147 182 223 276 328 384
#     4  11  24  40  60  86 115 154 206 264 327 392
#     4  11  24  40  60  86 115 154 206 264 327 392
#     4  12  24  42  63  89 126 168 211 263 323 382
#     4  11  22  37  58  83 112 151 200 261 331 391
#     4  11  23  43  70 101 141 187 231 275 331 395
#
# _framework density 20.585004999999999
#
# number of rings (size 3 to 8) (size 9 to 14) (size 15 to 20)
#    0.000    1.000    3.333    4.500    0.000    8.667 
#    0.000    1.667    0.000    0.000    0.000    0.000 
#    0.000    0.000    0.000    0.000    0.000    0.000 
#
# Total GULP energy -267764.033429 kJ/mol
# GULP energy per Si atom -5578.417363 kJ/mol
# Density = 2.053815 g / cm^3
# Si number density = 20.585005 Si / 1000 Ang^3
#
#
#
# Elastic Constant Matrix: (Units=GPa)
#
#
# Indices 1 2 3 4 5 6 
#
# 1 129.6613 44.4442 16.0790 0.0000 0.0000 0.0000
# 2 44.4442 137.4567 30.7287 0.0000 0.0000 0.0000
# 3 16.0790 30.7287 92.8523 0.0000 0.0000 0.0000
# 4 0.0000 0.0000 0.0000 -21.5522 0.0000 0.0000
# 5 0.0000 0.0000 0.0000 0.0000 18.1042 0.0000
# 6 0.0000 0.0000 0.0000 0.0000 0.0000 11.1987
#
#
#
# Elastic Compliance Matrix: (Units=1/GPa)
#
#
# Indices 1 2 3 4 5 6 
#
# 1 0.008707 -0.002676 -0.000622 0.000000 0.000000 0.000000
# 2 -0.002676 0.008679 -0.002409 0.000000 0.000000 0.000000
# 3 -0.000622 -0.002409 0.011675 0.000000 0.000000 0.000000
# 4 0.000000 0.000000 0.000000 -0.046399 0.000000 0.000000
# 5 0.000000 0.000000 0.000000 0.000000 0.055236 0.000000
# 6 0.000000 0.000000 0.000000 0.000000 0.000000 0.089296
#
#
# Mechanical properties :
#
#
# Convention : Reuss Voigt Hill
#
# Bulk Modulus (GPa) = 56.66901 60.27492 58.47196
# Shear Modulus (GPa) = 34.60462 19.46470 27.03466
#
# Velocity S-wave (km/s) = 4.10452 3.07836 3.62790
# Velocity P-wave (km/s) = 7.07473 6.47917 6.78349
#
# Compressibility (1/GPa) = 0.01764633
#
# Stress axis : x y z
#
# Youngs Moduli (GPa) = 114.85212 115.22357 85.65551
#
# Poissons Ratio (x) = 0.30835 0.05329
# Poissons Ratio (y) = 0.30736 0.20632
# Poissons Ratio (z) = 0.07145 0.27754
#
# Static dielectric constant tensor:
#      x y z
#    x 1.828780 0.000000 0.000000 
#    y 0.000000 1.763680 0.000000 
#    z 0.000000 0.000000 1.717810 
# 
# From -- ./inp_files/38463.got.cif
#   From: 2010.05.17/outbox.cif.g08.bks.cpg/sg67_20_cif.got.tgz:38463.got - 2010.06.03 18:28:57.
