data_PCOD9504336
_publ_section_title
;
Structure prediction by ZEFSAII (Michael W. Deem and Ramdas Pophale) SiO2 
 PCOD9504336
Probable space group: C M M A
;
_chemical_formula_sum "Si O2"
_cell_formula_units_Z 60
_cell_length_a 18.491825
_cell_length_b 14.103367
_cell_length_c 9.664167
_cell_angle_alpha 90.000000
_cell_angle_beta 90.000000
_cell_angle_gamma 90.000000
_cell_volume 2520.385708
_symmetry_space_group_name_H-M "C M M A"
_symmetry_group_IT_number 67
_symmetry_cell_setting 'orthorhombic'
loop_
_space_group_symop_operation_xyz
x,y,z
-x,1/2-y,z
x,-y,-z
-x,1/2+y,-z
-x,-y,-z
x,1/2+y,-z
-x,y,z
x,1/2-y,z
1/2+x,1/2+y,z
1/2-x,-y,z
1/2+x,1/2-y,-z
1/2-x,y,-z
1/2-x,1/2-y,-z
1/2+x,y,-z
1/2-x,1/2+y,z
1/2+x,-y,z
loop_
_atom_site_type_symbol
_atom_site_label
_atom_site_fract_x
_atom_site_fract_y
_atom_site_fract_z
Si Si1 0.858017 0.079456 0.386345
Si Si2 0.853853 0.750000 0.066568
Si Si3 0.500000 0.750000 0.765590
Si Si4 0.757590 0.750000 0.669851
Si Si5 0.081710 0.085769 0.103337
Si Si6 0.000000 0.613439 0.480366
O O1 0.798035 0.149182 0.326584
O O2 0.893759 0.039414 0.247874
O O3 0.923424 0.140958 0.452814
O O4 0.837052 0.000000 0.500000
O O5 0.703219 0.750000 0.804192
O O6 0.861235 0.659960 0.963078
O O7 0.929691 0.750000 0.144112
O O8 0.500000 0.842628 0.669825
O O9 0.750000 0.750000 0.500000
O O10 0.000000 0.127660 0.121982
O O11 0.076046 0.000000 0.000000
O O12 0.000000 0.500000 0.500000
#
# Coordination Sequence:
#
# PCOD9504336 Si02
#       6
#    16   8   4   8  16   8
#     4  11  25  46  75 111 152 202 255 318 385 466
#     4  12  27  48  75 110 157 206 257 327 400 472
#     4  12  24  42  76 108 142 204 256 326 388 452
#     4  12  29  49  72 105 158 201 260 313 390 482
#     4  11  25  45  78 117 151 190 258 328 389 460
#     4  10  22  37  72 108 149 191 267 319 382 447
#
# _framework density 23.805880999999999
#
# number of rings (size 3 to 8) (size 9 to 14) (size 15 to 20)
#    0.000    0.800    2.667    3.200   11.200    2.667 
#    0.000    2.667    0.000    0.000    0.000    0.000 
#    0.000    0.000    0.000    0.000    0.000    0.000 
#
# Total GULP energy -167219.911346 kJ/mol
# GULP energy per Si atom -5573.997045 kJ/mol
# Density = 2.375170 g / cm^3
# Si number density = 23.805881 Si / 1000 Ang^3
#
#
#
# Elastic Constant Matrix: (Units=GPa)
#
#
# Indices 1 2 3 4 5 6 
#
# 1 106.2506 36.8093 60.4338 0.0000 0.0000 0.0000
# 2 36.8093 121.8823 58.7266 0.0000 0.0000 0.0000
# 3 60.4338 58.7266 209.3158 0.0000 0.0000 0.0000
# 4 0.0000 0.0000 0.0000 50.6929 0.0000 0.0000
# 5 0.0000 0.0000 0.0000 0.0000 52.0257 0.0000
# 6 0.0000 0.0000 0.0000 0.0000 0.0000 43.2068
#
#
#
# Elastic Compliance Matrix: (Units=1/GPa)
#
#
# Indices 1 2 3 4 5 6 
#
# 1 0.011756 -0.002214 -0.002773 0.000000 0.000000 0.000000
# 2 -0.002214 0.009904 -0.002139 0.000000 0.000000 0.000000
# 3 -0.002773 -0.002139 0.006178 0.000000 0.000000 0.000000
# 4 0.000000 0.000000 0.000000 0.019727 0.000000 0.000000
# 5 0.000000 0.000000 0.000000 0.000000 0.019221 0.000000
# 6 0.000000 0.000000 0.000000 0.000000 0.000000 0.023145
#
#
# Mechanical properties :
#
#
# Convention : Reuss Voigt Hill
#
# Bulk Modulus (GPa) = 73.60972 83.26533 78.43752
# Shear Modulus (GPa) = 45.99270 47.95034 46.97152
#
# Velocity S-wave (km/s) = 4.40021 4.49288 4.44678
# Velocity P-wave (km/s) = 7.53682 7.87193 7.70620
#
# Compressibility (1/GPa) = 0.01358516
#
# Stress axis : x y z
#
# Youngs Moduli (GPa) = 85.06255 100.96694 161.85586
#
# Poissons Ratio (x) = 0.22357 0.44882
# Poissons Ratio (y) = 0.18836 0.34628
# Poissons Ratio (z) = 0.23587 0.21601
#
# Static dielectric constant tensor:
#      x y z
#    x 2.038460 0.000000 0.000000 
#    y 0.000000 2.015330 0.000000 
#    z 0.000000 0.000000 2.006580 
# 
# From -- ./inp_files/12052.got.cif
#   From: 2010.05.17/outbox.cif.g08.bks.cpg/sg67_7_cif.got.tgz:12052.got - 2010.06.03 18:28:57.
