data_PCOD9504488
_publ_section_title
;
Structure prediction by ZEFSAII (Michael W. Deem and Ramdas Pophale) SiO2 
 PCOD9504488
Probable space group: C M M A
;
_chemical_formula_sum "Si O2"
_cell_formula_units_Z 88
_cell_length_a 14.408302
_cell_length_b 9.263178
_cell_length_c 30.156038
_cell_angle_alpha 90.000000
_cell_angle_beta 90.000000
_cell_angle_gamma 90.000000
_cell_volume 4024.825855
_symmetry_space_group_name_H-M "C M M A"
_symmetry_group_IT_number 67
_symmetry_cell_setting 'orthorhombic'
loop_
_space_group_symop_operation_xyz
x,y,z
-x,1/2-y,z
x,-y,-z
-x,1/2+y,-z
-x,-y,-z
x,1/2+y,-z
-x,y,z
x,1/2-y,z
1/2+x,1/2+y,z
1/2-x,-y,z
1/2+x,1/2-y,-z
1/2-x,y,-z
1/2-x,1/2-y,-z
1/2+x,y,-z
1/2-x,1/2+y,z
1/2+x,-y,z
loop_
_atom_site_type_symbol
_atom_site_label
_atom_site_fract_x
_atom_site_fract_y
_atom_site_fract_z
Si Si1 0.850376 0.575933 0.542960
Si Si2 0.609315 0.911286 0.285913
Si Si3 0.250000 0.000000 0.212187
Si Si4 0.886715 0.914483 0.043427
Si Si5 0.108641 0.409769 0.630681
Si Si6 0.103952 0.419461 0.861006
O O1 0.896792 0.500000 0.500000
O O2 0.849234 0.750000 0.538682
O O3 0.750000 0.500000 0.543500
O O4 0.886260 0.521610 0.590213
O O5 0.500000 0.940751 0.273829
O O6 0.610595 0.750000 0.305304
O O7 0.679970 0.916364 0.244974
O O8 0.642660 0.023310 0.323329
O O9 0.323253 0.070705 0.178495
O O10 0.853022 0.750000 0.040065
O O11 0.863393 0.982227 0.091572
O O12 0.000000 0.911579 0.043420
O O13 0.857390 0.000000 0.000000
O O14 0.149156 0.250000 0.620219
O O15 0.000000 0.391396 0.638237
O O16 0.093906 0.250000 0.870355
O O17 0.000000 0.475406 0.849587
#
# Coordination Sequence:
#
# PCOD9504488 Si02
#       6
#    16  16   8  16  16  16
#     4  11  22  38  61  90 127 164 202 245 294 355
#     4  10  23  42  61  86 121 157 197 252 313 368
#     4  12  22  36  61  88 115 152 204 250 302 368
#     4   8  14  28  52  80 110 148 193 238 289 351
#     4  10  22  41  64  89 117 153 201 250 300 362
#     4   9  19  36  57  83 117 155 196 244 298 360
#
# _framework density 21.864301000000001
#
# number of rings (size 3 to 8) (size 9 to 14) (size 15 to 20)
#    0.000    2.182    0.000    4.909    1.273    2.909 
#    0.000    4.091    0.000    6.545    0.000    0.000 
#    0.000    0.000    0.000    0.000    0.000    0.727 
#
# Total GULP energy -245098.019751 kJ/mol
# GULP energy per Si atom -5570.409540 kJ/mol
# Density = 2.181454 g / cm^3
# Si number density = 21.864301 Si / 1000 Ang^3
#
#
#
# Elastic Constant Matrix: (Units=GPa)
#
#
# Indices 1 2 3 4 5 6 
#
# 1 101.6989 24.5740 40.4086 0.0000 0.0000 0.0000
# 2 24.5740 126.4495 65.4476 0.0000 0.0000 0.0000
# 3 40.4086 65.4476 161.8119 0.0000 0.0000 0.0000
# 4 0.0000 0.0000 0.0000 22.8633 0.0000 0.0000
# 5 0.0000 0.0000 0.0000 0.0000 749.4309 0.0000
# 6 0.0000 0.0000 0.0000 0.0000 0.0000 -7.7427
#
#
#
# Elastic Compliance Matrix: (Units=1/GPa)
#
#
# Indices 1 2 3 4 5 6 
#
# 1 0.010997 -0.000905 -0.002380 0.000000 0.000000 0.000000
# 2 -0.000905 0.010077 -0.003850 0.000000 0.000000 0.000000
# 3 -0.002380 -0.003850 0.008331 0.000000 0.000000 0.000000
# 4 0.000000 0.000000 0.000000 0.043738 0.000000 0.000000
# 5 0.000000 0.000000 0.000000 0.000000 0.001334 0.000000
# 6 0.000000 0.000000 0.000000 0.000000 0.000000 -0.129154
#
#
# Mechanical properties :
#
#
# Convention : Reuss Voigt Hill
#
# Bulk Modulus (GPa) = 66.07026 72.31340 69.19183
# Shear Modulus (GPa) = -141.40089 170.21231 14.40571
#
# Velocity S-wave (km/s) = -8.05062 8.83280 2.56963
# Velocity P-wave (km/s) = 7.49217 11.71196 6.36543
#
# Compressibility (1/GPa) = 0.01513540
#
# Stress axis : x y z
#
# Youngs Moduli (GPa) = 90.93037 99.23871 120.02710
#
# Poissons Ratio (x) = 0.08984 0.28569
# Poissons Ratio (y) = 0.08232 0.46206
# Poissons Ratio (z) = 0.21643 0.38203
#
# Static dielectric constant tensor:
#      x y z
#    x 1.901350 0.000000 0.000000 
#    y 0.000000 1.820830 0.000000 
#    z 0.000000 0.000000 1.853830 
# 
# From -- ./inp_files/45814.got.cif
#   From: 2010.05.17/outbox.cif.g08.bks.cpg/sg67_23_cif.got.tgz:45814.got - 2010.06.03 18:28:57.
