data_PCOD9504411
_publ_section_title
;
Structure prediction by ZEFSAII (Michael W. Deem and Ramdas Pophale) SiO2 
 PCOD9504411
Probable space group: C M M A
;
_chemical_formula_sum "Si O2"
_cell_formula_units_Z 96
_cell_length_a 17.323865
_cell_length_b 13.682410
_cell_length_c 16.554603
_cell_angle_alpha 90.000000
_cell_angle_beta 90.000000
_cell_angle_gamma 90.000000
_cell_volume 3923.974362
_symmetry_space_group_name_H-M "C M M A"
_symmetry_group_IT_number 67
_symmetry_cell_setting 'orthorhombic'
loop_
_space_group_symop_operation_xyz
x,y,z
-x,1/2-y,z
x,-y,-z
-x,1/2+y,-z
-x,-y,-z
x,1/2+y,-z
-x,y,z
x,1/2-y,z
1/2+x,1/2+y,z
1/2-x,-y,z
1/2+x,1/2-y,-z
1/2-x,y,-z
1/2-x,1/2-y,-z
1/2+x,y,-z
1/2-x,1/2+y,z
1/2+x,-y,z
loop_
_atom_site_type_symbol
_atom_site_label
_atom_site_fract_x
_atom_site_fract_y
_atom_site_fract_z
Si Si1 0.355649 0.497658 0.789997
Si Si2 0.326822 0.135798 0.945915
Si Si3 0.291193 0.638222 0.344157
Si Si4 0.585115 0.137003 0.105134
Si Si5 0.916889 0.631948 0.529294
Si Si6 0.891950 0.135067 0.652311
O O1 0.356737 0.424867 0.868478
O O2 0.307607 0.430552 0.730745
O O3 0.343580 0.594784 0.843224
O O4 0.409344 0.555665 0.722358
O O5 0.315981 0.250000 0.923846
O O6 0.250000 0.108699 0.000000
O O7 0.394621 0.126946 0.011917
O O8 0.315110 0.750000 0.326752
O O9 0.342446 0.602535 0.419464
O O10 0.200613 0.637517 0.357719
O O11 0.500000 0.091865 0.121902
O O12 0.580693 0.250000 0.124736
O O13 0.911755 0.750000 0.524516
O O14 0.918623 0.601510 0.436085
O O15 0.000000 0.608864 0.567889
O O16 0.914703 0.250000 0.668347
#
# Coordination Sequence:
#
# PCOD9504411 Si02
#       6
#    16  16  16  16  16  16
#     4  12  24  38  64  97 129 166 218 273 332 393
#     4  10  24  44  69  96 130 173 220 273 334 398
#     4  10  22  39  62  93 131 171 220 277 334 393
#     4  10  24  46  68  93 130 174 219 269 332 406
#     4   9  19  40  66  89 123 175 226 273 332 402
#     4  10  22  39  62  92 130 173 219 274 332 395
#
# _framework density 24.464991999999999
#
# number of rings (size 3 to 8) (size 9 to 14) (size 15 to 20)
#    0.000    1.833    0.000    2.500    4.667    6.000 
#    0.000    4.167    0.000    5.500    0.000    0.000 
#    0.000    0.000    0.000    0.000    0.000    0.000 
#
# Total GULP energy -267205.524629 kJ/mol
# GULP energy per Si atom -5566.781763 kJ/mol
# Density = 2.440931 g / cm^3
# Si number density = 24.464992 Si / 1000 Ang^3
#
#
#
# Elastic Constant Matrix: (Units=GPa)
#
#
# Indices 1 2 3 4 5 6 
#
# 1 108.3171 41.9935 50.1001 0.0000 0.0000 0.0000
# 2 41.9935 129.0479 52.9418 0.0000 0.0000 0.0000
# 3 50.1001 52.9418 158.1325 0.0000 0.0000 0.0000
# 4 0.0000 0.0000 0.0000 36.2249 0.0000 0.0000
# 5 0.0000 0.0000 0.0000 0.0000 18.4782 0.0000
# 6 0.0000 0.0000 0.0000 0.0000 0.0000 0.0597
#
#
#
# Elastic Compliance Matrix: (Units=1/GPa)
#
#
# Indices 1 2 3 4 5 6 
#
# 1 0.011530 -0.002612 -0.002778 0.000000 0.000000 0.000000
# 2 -0.002612 0.009575 -0.002378 0.000000 0.000000 0.000000
# 3 -0.002778 -0.002378 0.008000 0.000000 0.000000 0.000000
# 4 0.000000 0.000000 0.000000 0.027605 0.000000 0.000000
# 5 0.000000 0.000000 0.000000 0.000000 0.054118 0.000000
# 6 0.000000 0.000000 0.000000 0.000000 0.000000 16.756863
#
#
# Mechanical properties :
#
#
# Convention : Reuss Voigt Hill
#
# Bulk Modulus (GPa) = 73.70398 76.17424 74.93911
# Shear Modulus (GPa) = 0.29607 27.65005 13.97306
#
# Velocity S-wave (km/s) = 0.34826 3.36547 2.39246
# Velocity P-wave (km/s) = 5.50939 6.80481 6.19108
#
# Compressibility (1/GPa) = 0.01356779
#
# Stress axis : x y z
#
# Youngs Moduli (GPa) = 86.73062 104.44287 124.99683
#
# Poissons Ratio (x) = 0.27282 0.34730
# Poissons Ratio (y) = 0.22655 0.29724
# Poissons Ratio (z) = 0.24098 0.24836
#
# Static dielectric constant tensor:
#      x y z
#    x 2.447170 0.000000 0.000000 
#    y 0.000000 1.980830 0.000000 
#    z 0.000000 0.000000 1.941550 
# 
# From -- ./inp_files/29306.got.cif
#   From: 2010.05.17/outbox.cif.g08.bks.cpg/sg67_15_cif.got.tgz:29306.got - 2010.06.03 18:28:57.
