data_PCOD9504426
_publ_section_title
;
Structure prediction by ZEFSAII (Michael W. Deem and Ramdas Pophale) SiO2 
 PCOD9504426
Probable space group: C M M A
;
_chemical_formula_sum "Si O2"
_cell_formula_units_Z 88
_cell_length_a 21.993343
_cell_length_b 9.142325
_cell_length_c 21.970285
_cell_angle_alpha 90.000000
_cell_angle_beta 90.000000
_cell_angle_gamma 90.000000
_cell_volume 4417.571566
_symmetry_space_group_name_H-M "C M M A"
_symmetry_group_IT_number 67
_symmetry_cell_setting 'orthorhombic'
loop_
_space_group_symop_operation_xyz
x,y,z
-x,1/2-y,z
x,-y,-z
-x,1/2+y,-z
-x,-y,-z
x,1/2+y,-z
-x,y,z
x,1/2-y,z
1/2+x,1/2+y,z
1/2-x,-y,z
1/2+x,1/2-y,-z
1/2-x,y,-z
1/2-x,1/2-y,-z
1/2+x,y,-z
1/2-x,1/2+y,z
1/2+x,-y,z
loop_
_atom_site_type_symbol
_atom_site_label
_atom_site_fract_x
_atom_site_fract_y
_atom_site_fract_z
Si Si1 0.880023 0.581498 0.265198
Si Si2 0.500000 0.922087 0.298552
Si Si3 0.813562 0.925730 0.144765
Si Si4 0.893517 0.000000 0.500000
Si Si5 0.000000 0.400375 0.580744
Si Si6 0.185944 0.923484 0.394608
Si Si7 0.067951 0.073878 0.933984
O O1 0.896463 0.750000 0.251232
O O2 0.831547 0.535896 0.214258
O O3 0.851290 0.576052 0.332153
O O4 0.940288 0.486299 0.267081
O O5 0.500000 0.750000 0.296322
O O6 0.500000 0.972390 0.369878
O O7 0.806408 0.750000 0.140269
O O8 0.873335 0.968533 0.105795
O O9 0.750000 0.000000 0.126996
O O10 0.847645 0.974671 0.555533
O O11 0.942069 0.097880 0.536647
O O12 0.000000 0.250000 0.617904
O O13 0.190152 0.750000 0.414182
O O14 0.250000 0.000000 0.384056
O O15 0.069801 0.250000 0.940070
O O16 0.000000 0.036975 0.908878
O O17 0.072427 0.000000 0.000000
#
# Coordination Sequence:
#
# PCOD9504426 Si02
#       7
#    16   8  16   8   8  16  16
#     4  10  22  43  65  86 118 162 202 245 303 368
#     4  12  25  39  62  95 121 151 195 252 308 363
#     4  10  22  39  65  94 126 167 211 258 310 368
#     4  11  23  38  60  88 111 145 190 242 290 359
#     4  11  23  43  66  86 114 151 188 236 300 367
#     4  11  24  41  60  84 113 152 195 240 297 359
#     4   9  19  37  61  93 127 169 216 258 306 361
#
# _framework density 19.920448
#
# number of rings (size 3 to 8) (size 9 to 14) (size 15 to 20)
#    0.000    1.636    1.818    2.182    1.273    6.909 
#    0.000    1.818    0.000    0.000    0.000    0.000 
#    0.000    0.000    0.000    0.000    0.000    0.000 
#
# Total GULP energy -245247.819925 kJ/mol
# GULP energy per Si atom -5573.814089 kJ/mol
# Density = 1.987511 g / cm^3
# Si number density = 19.920448 Si / 1000 Ang^3
#
#
#
# Elastic Constant Matrix: (Units=GPa)
#
#
# Indices 1 2 3 4 5 6 
#
# 1 162.2514 56.5825 40.6916 0.0000 0.0000 0.0000
# 2 56.5825 44.8982 12.2734 0.0000 0.0000 0.0000
# 3 40.6916 12.2734 68.9405 0.0000 0.0000 0.0000
# 4 0.0000 0.0000 0.0000 31.1075 0.0000 0.0000
# 5 0.0000 0.0000 0.0000 0.0000 26.1911 0.0000
# 6 0.0000 0.0000 0.0000 0.0000 0.0000 73.3071
#
#
#
# Elastic Compliance Matrix: (Units=1/GPa)
#
#
# Indices 1 2 3 4 5 6 
#
# 1 0.012309 -0.014218 -0.004734 0.000000 0.000000 0.000000
# 2 -0.014218 0.039835 0.001300 0.000000 0.000000 0.000000
# 3 -0.004734 0.001300 0.017068 0.000000 0.000000 0.000000
# 4 0.000000 0.000000 0.000000 0.032147 0.000000 0.000000
# 5 0.000000 0.000000 0.000000 0.000000 0.038181 0.000000
# 6 0.000000 0.000000 0.000000 0.000000 0.000000 0.013641
#
#
# Mechanical properties :
#
#
# Convention : Reuss Voigt Hill
#
# Bulk Modulus (GPa) = 29.49104 55.02056 42.25580
# Shear Modulus (GPa) = 25.02665 37.22397 31.12531
#
# Velocity S-wave (km/s) = 3.54832 4.32746 3.95711
# Velocity P-wave (km/s) = 5.62352 7.25598 6.49127
#
# Compressibility (1/GPa) = 0.03390861
#
# Stress axis : x y z
#
# Youngs Moduli (GPa) = 81.24262 25.10343 58.58919
#
# Poissons Ratio (x) = 0.35692 0.27736
# Poissons Ratio (y) = 1.15510 -0.07618
# Poissons Ratio (z) = 0.38460 -0.03264
#
# Static dielectric constant tensor:
#      x y z
#    x 1.719880 0.000000 0.000000 
#    y 0.000000 1.708220 0.000000 
#    z 0.000000 0.000000 1.683210 
# 
# From -- ./inp_files/42426.got.cif
#   From: 2010.05.17/outbox.cif.g08.bks.cpg/sg67_22_cif.got.tgz:42426.got - 2010.06.03 18:28:57.
