data_PCOD9504829
_publ_section_title
;
Structure prediction by ZEFSAII (Michael W. Deem and Ramdas Pophale) SiO2 
 PCOD9504829
Probable space group: C M M A
;
_chemical_formula_sum "Si O2"
_cell_formula_units_Z 68
_cell_length_a 23.506345
_cell_length_b 24.064140
_cell_length_c 6.793511
_cell_angle_alpha 90.000000
_cell_angle_beta 90.000000
_cell_angle_gamma 90.000000
_cell_volume 3842.817276
_symmetry_space_group_name_H-M "C M M A"
_symmetry_group_IT_number 67
_symmetry_cell_setting 'orthorhombic'
loop_
_space_group_symop_operation_xyz
x,y,z
-x,1/2-y,z
x,-y,-z
-x,1/2+y,-z
-x,-y,-z
x,1/2+y,-z
-x,y,z
x,1/2-y,z
1/2+x,1/2+y,z
1/2-x,-y,z
1/2+x,1/2-y,-z
1/2-x,y,-z
1/2-x,1/2-y,-z
1/2+x,y,-z
1/2-x,1/2+y,z
1/2+x,-y,z
loop_
_atom_site_type_symbol
_atom_site_label
_atom_site_fract_x
_atom_site_fract_y
_atom_site_fract_z
Si Si1 0.000000 0.750000 0.155939
Si Si2 0.813967 0.342767 0.065151
Si Si3 0.406113 0.435969 0.952037
Si Si4 0.000000 0.120177 0.767797
Si Si5 0.870674 0.750000 0.190222
Si Si6 0.812777 0.250000 0.402030
Si Si7 0.000000 0.942965 0.620383
O O1 0.000000 0.813377 0.233357
O O2 0.933347 0.750000 0.090717
O O3 0.851963 0.397422 0.083077
O O4 0.816596 0.303938 0.260000
O O5 0.750000 0.355604 0.000000
O O6 0.839420 0.304031 0.893109
O O7 0.445694 0.438210 0.759915
O O8 0.392535 0.500000 0.000000
O O9 0.445705 0.407037 0.120181
O O10 0.000000 0.103702 0.542514
O O11 0.861091 0.750000 0.426625
O O12 0.750000 0.250000 0.500000
O O13 0.000000 0.000000 0.500000
#
# Coordination Sequence:
#
# PCOD9504829 Si02
#       7
#     4  16  16   8   8   8   8
#     4  12  24  36  66 100 136 158 184 272 322 368
#     4  11  23  40  64  91 123 167 213 258 306 372
#     4  11  23  40  64  91 123 167 213 258 306 372
#     4  11  22  42  62  93 132 161 199 252 326 378
#     4  11  22  42  62  93 132 161 199 252 326 378
#     4  11  21  41  66  90 118 169 214 247 320 385
#     4  11  21  41  66  90 118 169 214 247 320 385
#
# _framework density 17.695350000000001
#
# number of rings (size 3 to 8) (size 9 to 14) (size 15 to 20)
#    0.000    0.941    7.059    1.412    3.294    0.471 
#    0.000    4.706    0.000    0.000    0.000    0.000 
#    0.000    0.000    0.000    0.000    0.000    0.000 
#
# Total GULP energy -189488.167221 kJ/mol
# GULP energy per Si atom -5573.181389 kJ/mol
# Density = 1.765507 g / cm^3
# Si number density = 17.695350 Si / 1000 Ang^3
#
#
#
# Elastic Constant Matrix: (Units=GPa)
#
#
# Indices 1 2 3 4 5 6 
#
# 1 143.5340 63.9119 36.7794 0.0000 0.0000 0.0000
# 2 63.9119 183.7864 51.6443 0.0000 0.0000 0.0000
# 3 36.7794 51.6443 108.0076 0.0000 0.0000 0.0000
# 4 0.0000 0.0000 0.0000 1.1846 0.0000 0.0000
# 5 0.0000 0.0000 0.0000 0.0000 -0.8717 0.0000
# 6 0.0000 0.0000 0.0000 0.0000 0.0000 31.8713
#
#
#
# Elastic Compliance Matrix: (Units=1/GPa)
#
#
# Indices 1 2 3 4 5 6 
#
# 1 0.008509 -0.002478 -0.001713 0.000000 0.000000 0.000000
# 2 -0.002478 0.007007 -0.002507 0.000000 0.000000 0.000000
# 3 -0.001713 -0.002507 0.011040 0.000000 0.000000 0.000000
# 4 0.000000 0.000000 0.000000 0.844182 0.000000 0.000000
# 5 0.000000 0.000000 0.000000 0.000000 -1.147146 0.000000
# 6 0.000000 0.000000 0.000000 0.000000 0.000000 0.031376
#
#
# Mechanical properties :
#
#
# Convention : Reuss Voigt Hill
#
# Bulk Modulus (GPa) = 75.97578 82.22215 79.09896
# Shear Modulus (GPa) = -22.00231 25.30298 1.65033
#
# Velocity S-wave (km/s) = -3.53001 3.78553 0.96678
# Velocity P-wave (km/s) = 5.13946 8.10391 6.78555
#
# Compressibility (1/GPa) = 0.01316209
#
# Stress axis : x y z
#
# Youngs Moduli (GPa) = 117.52020 142.71142 90.57568
#
# Poissons Ratio (x) = 0.35361 0.15514
# Poissons Ratio (y) = 0.29119 0.22705
# Poissons Ratio (z) = 0.20129 0.35774
#
# Static dielectric constant tensor:
#      x y z
#    x 1.622320 0.000000 0.000000 
#    y 0.000000 1.452240 0.000000 
#    z 0.000000 0.000000 1.602390 
# 
# From -- ./inp_files/3482.got.cif
#   From: 2010.05.17/outbox.cif.g08.bks.cpg/sg67_2_cif.got.tgz:3482.got - 2010.06.03 18:28:57.
