data_PCOD9504062
_publ_section_title
;
Structure prediction by ZEFSAII (Michael W. Deem and Ramdas Pophale) SiO2 
 PCOD9504062
Probable space group: C M M A
;
_chemical_formula_sum "Si O2"
_cell_formula_units_Z 64
_cell_length_a 8.741443
_cell_length_b 18.785397
_cell_length_c 20.879069
_cell_angle_alpha 90.000000
_cell_angle_beta 90.000000
_cell_angle_gamma 90.000000
_cell_volume 3428.582761
_symmetry_space_group_name_H-M "C M M A"
_symmetry_group_IT_number 67
_symmetry_cell_setting 'orthorhombic'
loop_
_space_group_symop_operation_xyz
x,y,z
-x,1/2-y,z
x,-y,-z
-x,1/2+y,-z
-x,-y,-z
x,1/2+y,-z
-x,y,z
x,1/2-y,z
1/2+x,1/2+y,z
1/2-x,-y,z
1/2+x,1/2-y,-z
1/2-x,y,-z
1/2-x,1/2-y,-z
1/2+x,y,-z
1/2-x,1/2+y,z
1/2+x,-y,z
loop_
_atom_site_type_symbol
_atom_site_label
_atom_site_fract_x
_atom_site_fract_y
_atom_site_fract_z
Si Si1 0.183069 0.833402 0.430476
Si Si2 0.182548 0.078407 0.930879
Si Si3 0.816064 0.833186 0.814972
Si Si4 0.183515 0.920955 0.687621
O O1 0.221362 0.750000 0.418862
O O2 0.250000 0.852585 0.500000
O O3 0.252566 0.881371 0.374806
O O4 0.000000 0.840259 0.431541
O O5 0.234881 0.131785 0.875725
O O6 0.000000 0.073954 0.934719
O O7 0.250000 0.000000 0.916378
O O8 0.250000 0.099660 0.000000
O O9 0.778320 0.750000 0.808485
O O10 0.773918 0.875871 0.750753
O O11 0.000000 0.839293 0.823216
O O12 0.000000 0.923965 0.684083
O O13 0.250000 0.000000 0.692235
#
# Coordination Sequence:
#
# PCOD9504062 Si02
#       4
#    16  16  16  16
#     4  10  21  38  61  88 118 152 191 236 286 342
#     4  11  22  38  61  87 117 153 193 237 286 341
#     4  10  22  40  61  86 117 152 191 237 288 342
#     4  11  23  39  60  86 117 153 193 238 288 341
#
# _framework density 18.666605000000001
#
# number of rings (size 3 to 8) (size 9 to 14) (size 15 to 20)
#    0.000    1.500    0.000    6.000    0.000    8.000 
#    0.000    2.500    0.000    0.000    0.000    0.000 
#    0.000    0.000    0.000    0.000    0.000    0.000 
#
# Total GULP energy -178958.728453 kJ/mol
# GULP energy per Si atom -5592.460264 kJ/mol
# Density = 1.862412 g / cm^3
# Si number density = 18.666605 Si / 1000 Ang^3
#
#
#
# Elastic Constant Matrix: (Units=GPa)
#
#
# Indices 1 2 3 4 5 6 
#
# 1 90.6702 81.3354 83.1059 0.0000 0.0000 0.0000
# 2 81.3354 154.3343 136.2887 0.0000 0.0000 0.0000
# 3 83.1059 136.2887 175.0684 0.0000 0.0000 0.0000
# 4 0.0000 0.0000 0.0000 43.4968 0.0000 0.0000
# 5 0.0000 0.0000 0.0000 0.0000 25.8188 0.0000
# 6 0.0000 0.0000 0.0000 0.0000 0.0000 15.5057
#
#
#
# Elastic Compliance Matrix: (Units=1/GPa)
#
#
# Indices 1 2 3 4 5 6 
#
# 1 0.021988 -0.007584 -0.004533 0.000000 0.000000 0.000000
# 2 -0.007584 0.023348 -0.014576 0.000000 0.000000 0.000000
# 3 -0.004533 -0.014576 0.019211 0.000000 0.000000 0.000000
# 4 0.000000 0.000000 0.000000 0.022990 0.000000 0.000000
# 5 0.000000 0.000000 0.000000 0.000000 0.038731 0.000000
# 6 0.000000 0.000000 0.000000 0.000000 0.000000 0.064493
#
#
# Mechanical properties :
#
#
# Convention : Reuss Voigt Hill
#
# Bulk Modulus (GPa) = 89.60750 113.50366 101.55558
# Shear Modulus (GPa) = 20.17204 24.92044 22.54624
#
# Velocity S-wave (km/s) = 3.29089 3.65777 3.47917
# Velocity P-wave (km/s) = 7.90875 8.87563 8.40610
#
# Compressibility (1/GPa) = 0.01115978
#
# Stress axis : x y z
#
# Youngs Moduli (GPa) = 45.48012 42.83016 52.05335
#
# Poissons Ratio (x) = 0.32485 0.23597
# Poissons Ratio (y) = 0.34494 0.75872
# Poissons Ratio (z) = 0.20617 0.62428
#
# Static dielectric constant tensor:
#      x y z
#    x 1.588990 0.000000 0.000000 
#    y 0.000000 1.618820 0.000000 
#    z 0.000000 0.000000 1.610580 
# 
# From -- ./inp_files/31734.got.cif
#   From: 2010.05.17/outbox.cif.g08.bks.cpg/sg67_16_cif.got.tgz:31734.got - 2010.06.03 18:28:57.
