data_PCOD9504377
_publ_section_title
;
Structure prediction by ZEFSAII (Michael W. Deem and Ramdas Pophale) SiO2 
 PCOD9504377
Probable space group: C M M A
;
_chemical_formula_sum "Si O2"
_cell_formula_units_Z 80
_cell_length_a 15.697343
_cell_length_b 27.275125
_cell_length_c 8.820649
_cell_angle_alpha 90.000000
_cell_angle_beta 90.000000
_cell_angle_gamma 90.000000
_cell_volume 3776.534341
_symmetry_space_group_name_H-M "C M M A"
_symmetry_group_IT_number 67
_symmetry_cell_setting 'orthorhombic'
loop_
_space_group_symop_operation_xyz
x,y,z
-x,1/2-y,z
x,-y,-z
-x,1/2+y,-z
-x,-y,-z
x,1/2+y,-z
-x,y,z
x,1/2-y,z
1/2+x,1/2+y,z
1/2-x,-y,z
1/2+x,1/2-y,-z
1/2-x,y,-z
1/2-x,1/2-y,-z
1/2+x,y,-z
1/2-x,1/2+y,z
1/2+x,-y,z
loop_
_atom_site_type_symbol
_atom_site_label
_atom_site_fract_x
_atom_site_fract_y
_atom_site_fract_z
Si Si1 0.848056 0.982361 0.228729
Si Si2 0.834738 0.611091 0.399588
Si Si3 0.095175 0.303476 0.402357
Si Si4 0.277815 0.662033 0.159044
Si Si5 0.097391 0.426713 0.077265
O O1 0.869515 0.942365 0.356308
O O2 0.750000 0.000000 0.241141
O O3 0.899653 0.032537 0.210326
O O4 0.864959 0.953196 0.071708
O O5 0.750000 0.603302 0.500000
O O6 0.891767 0.649903 0.489381
O O7 0.801779 0.638558 0.248185
O O8 0.102159 0.250000 0.480413
O O9 0.168455 0.305992 0.276392
O O10 0.000000 0.306480 0.335666
O O11 0.341444 0.617401 0.119602
O O12 0.250000 0.684995 0.000000
O O13 0.000000 0.412087 0.049406
#
# Coordination Sequence:
#
# PCOD9504377 Si02
#       5
#    16  16  16  16  16
#     4  11  19  35  57  86 128 168 213 255 301 367
#     4  10  22  38  64  89 121 170 214 252 305 374
#     4  10  24  46  67  91 127 163 201 263 332 380
#     4  11  20  40  65  93 123 162 209 261 308 373
#     4  11  21  33  56  92 130 167 205 257 319 367
#
# _framework density 21.183444000000001
#
# number of rings (size 3 to 8) (size 9 to 14) (size 15 to 20)
#    0.000    1.400    4.000    3.000    0.000    6.000 
#    0.000    0.000    0.000    6.000    0.000    0.000 
#    0.000    0.000    0.000    0.000    0.000    0.000 
#
# Total GULP energy -223336.244647 kJ/mol
# GULP energy per Si atom -5583.406116 kJ/mol
# Density = 2.113523 g / cm^3
# Si number density = 21.183444 Si / 1000 Ang^3
#
#
#
# Elastic Constant Matrix: (Units=GPa)
#
#
# Indices 1 2 3 4 5 6 
#
# 1 63.9071 22.2865 6.4454 0.0000 0.0000 0.0000
# 2 22.2865 100.1895 19.5420 0.0000 0.0000 0.0000
# 3 6.4454 19.5420 68.0741 0.0000 0.0000 0.0000
# 4 0.0000 0.0000 0.0000 8.6922 0.0000 0.0000
# 5 0.0000 0.0000 0.0000 0.0000 -2.9263 0.0000
# 6 0.0000 0.0000 0.0000 0.0000 0.0000 24.4242
#
#
#
# Elastic Compliance Matrix: (Units=1/GPa)
#
#
# Indices 1 2 3 4 5 6 
#
# 1 0.016983 -0.003670 -0.000555 0.000000 0.000000 0.000000
# 2 -0.003670 0.011366 -0.002915 0.000000 0.000000 0.000000
# 3 -0.000555 -0.002915 0.015579 0.000000 0.000000 0.000000
# 4 0.000000 0.000000 0.000000 0.115045 0.000000 0.000000
# 5 0.000000 0.000000 0.000000 0.000000 -0.341724 0.000000
# 6 0.000000 0.000000 0.000000 0.000000 0.000000 0.040943
#
#
# Mechanical properties :
#
#
# Convention : Reuss Voigt Hill
#
# Bulk Modulus (GPa) = 33.72747 36.52429 35.12588
# Shear Modulus (GPa) = -42.50086 18.29781 -12.10153
#
# Velocity S-wave (km/s) = -4.48406 2.94220 -2.39272
# Velocity P-wave (km/s) = 3.29437 5.36856 2.99737
#
# Compressibility (1/GPa) = 0.02964942
#
# Stress axis : x y z
#
# Youngs Moduli (GPa) = 58.88111 87.98152 64.18778
#
# Poissons Ratio (x) = 0.32286 0.03560
# Poissons Ratio (y) = 0.21607 0.18713
# Poissons Ratio (z) = 0.03265 0.25650
#
# Static dielectric constant tensor:
#      x y z
#    x 1.748710 0.000000 0.000000 
#    y 0.000000 1.780990 0.000000 
#    z 0.000000 0.000000 1.829390 
# 
# From -- ./inp_files/10142.got.cif
#   From: 2010.05.17/outbox.cif.g08.bks.cpg/sg67_6_cif.got.tgz:10142.got - 2010.06.03 18:28:57.
