data_PCOD9504865
_publ_section_title
;
Structure prediction by ZEFSAII (Michael W. Deem and Ramdas Pophale) SiO2 
 PCOD9504865
Probable space group: C M M A
;
_chemical_formula_sum "Si O2"
_cell_formula_units_Z 64
_cell_length_a 15.251711
_cell_length_b 8.861410
_cell_length_c 22.316062
_cell_angle_alpha 90.000000
_cell_angle_beta 90.000000
_cell_angle_gamma 90.000000
_cell_volume 3016.052922
_symmetry_space_group_name_H-M "C M M A"
_symmetry_group_IT_number 67
_symmetry_cell_setting 'orthorhombic'
loop_
_space_group_symop_operation_xyz
x,y,z
-x,1/2-y,z
x,-y,-z
-x,1/2+y,-z
-x,-y,-z
x,1/2+y,-z
-x,y,z
x,1/2-y,z
1/2+x,1/2+y,z
1/2-x,-y,z
1/2+x,1/2-y,-z
1/2-x,y,-z
1/2-x,1/2-y,-z
1/2+x,y,-z
1/2-x,1/2+y,z
1/2+x,-y,z
loop_
_atom_site_type_symbol
_atom_site_label
_atom_site_fract_x
_atom_site_fract_y
_atom_site_fract_z
Si Si1 0.895783 0.579354 0.180921
Si Si2 0.102721 0.934290 0.309666
Si Si3 0.153270 0.071269 0.059229
Si Si4 0.107034 0.926731 0.438624
O O1 0.861182 0.750000 0.169163
O O2 0.860006 0.519728 0.244839
O O3 0.884143 0.476644 0.123204
O O4 0.000000 0.593635 0.189850
O O5 0.105366 0.750000 0.309559
O O6 0.139192 0.986997 0.373903
O O7 0.000000 0.978356 0.310570
O O8 0.155849 0.250000 0.052589
O O9 0.250000 0.000000 0.060541
O O10 0.108923 0.000000 0.000000
O O11 0.126994 0.750000 0.441046
O O12 0.000000 0.940552 0.437931
O O13 0.138809 0.000000 0.500000
#
# Coordination Sequence:
#
# PCOD9504865 Si02
#       4
#    16  16  16  16
#     4   9  17  31  51  73  97 126 159 194 233 277
#     4   7  11  21  37  56  81 115 151 184 221 267
#     4  11  22  37  55  73  95 122 154 191 232 278
#     4   8  12  18  29  47  73 108 148 184 218 258
#
# _framework density 21.219787
#
# number of rings (size 3 to 8) (size 9 to 14) (size 15 to 20)
#    0.000    3.250    0.000    6.000    0.000    1.000 
#    0.000    1.250    0.000    4.500    0.000    0.000 
#    0.000    1.000    0.000   11.500    0.000   13.500 
#
# Total GULP energy -178142.237670 kJ/mol
# GULP energy per Si atom -5566.944927 kJ/mol
# Density = 2.117149 g / cm^3
# Si number density = 21.219787 Si / 1000 Ang^3
#
#
#
# Elastic Constant Matrix: (Units=GPa)
#
#
# Indices 1 2 3 4 5 6 
#
# 1 29.3884 2.7609 12.9739 0.0000 0.0000 0.0000
# 2 2.7609 82.6958 81.9684 0.0000 0.0000 0.0000
# 3 12.9739 81.9684 268.4849 0.0000 0.0000 0.0000
# 4 0.0000 0.0000 0.0000 25.9246 0.0000 0.0000
# 5 0.0000 0.0000 0.0000 0.0000 -193.3222 0.0000
# 6 0.0000 0.0000 0.0000 0.0000 0.0000 6.8729
#
#
#
# Elastic Compliance Matrix: (Units=1/GPa)
#
#
# Indices 1 2 3 4 5 6 
#
# 1 0.034799 0.000724 -0.001903 0.000000 0.000000 0.000000
# 2 0.000724 0.017355 -0.005333 0.000000 0.000000 0.000000
# 3 -0.001903 -0.005333 0.005445 0.000000 0.000000 0.000000
# 4 0.000000 0.000000 0.000000 0.038573 0.000000 0.000000
# 5 0.000000 0.000000 0.000000 0.000000 -0.005173 0.000000
# 6 0.000000 0.000000 0.000000 0.000000 0.000000 0.145498
#
#
# Mechanical properties :
#
#
# Convention : Reuss Voigt Hill
#
# Bulk Modulus (GPa) = 22.43424 63.99727 43.21576
# Shear Modulus (GPa) = 18.91218 -13.24722 2.83248
#
# Velocity S-wave (km/s) = 2.98862 -2.50128 1.15660
# Velocity P-wave (km/s) = 4.74388 4.67791 4.71101
#
# Compressibility (1/GPa) = 0.04457471
#
# Stress axis : x y z
#
# Youngs Moduli (GPa) = 28.73646 57.62082 183.66023
#
# Poissons Ratio (x) = -0.04172 0.34944
# Poissons Ratio (y) = -0.02081 0.97954
# Poissons Ratio (z) = 0.05468 0.30732
#
# Static dielectric constant tensor:
#      x y z
#    x 1.854030 0.000000 0.000000 
#    y 0.000000 1.732390 0.000000 
#    z 0.000000 0.000000 1.893040 
# 
# From -- ./inp_files/32023.got.cif
#   From: 2010.05.17/outbox.cif.g08.bks.cpg/sg67_17_cif.got.tgz:32023.got - 2010.06.03 18:28:57.
