data_PCOD9504168
_publ_section_title
;
Structure prediction by ZEFSAII (Michael W. Deem and Ramdas Pophale) SiO2 
 PCOD9504168
Probable space group: C M M A
;
_chemical_formula_sum "Si O2"
_cell_formula_units_Z 64
_cell_length_a 23.645236
_cell_length_b 19.468224
_cell_length_c 7.142233
_cell_angle_alpha 90.000000
_cell_angle_beta 90.000000
_cell_angle_gamma 90.000000
_cell_volume 3287.789481
_symmetry_space_group_name_H-M "C M M A"
_symmetry_group_IT_number 67
_symmetry_cell_setting 'orthorhombic'
loop_
_space_group_symop_operation_xyz
x,y,z
-x,1/2-y,z
x,-y,-z
-x,1/2+y,-z
-x,-y,-z
x,1/2+y,-z
-x,y,z
x,1/2-y,z
1/2+x,1/2+y,z
1/2-x,-y,z
1/2+x,1/2-y,-z
1/2-x,y,-z
1/2-x,1/2-y,-z
1/2+x,y,-z
1/2-x,1/2+y,z
1/2+x,-y,z
loop_
_atom_site_type_symbol
_atom_site_label
_atom_site_fract_x
_atom_site_fract_y
_atom_site_fract_z
Si Si1 0.817237 0.919605 0.021267
Si Si2 0.000000 0.325423 0.033973
Si Si3 0.882486 0.435041 0.609018
Si Si4 0.000000 0.457576 0.805430
Si Si5 0.886576 0.330594 0.273207
O O1 0.843639 0.905247 0.224969
O O2 0.750000 0.914228 0.000000
O O3 0.844099 0.871098 0.863975
O O4 0.833056 0.000000 0.000000
O O5 0.054174 0.333718 0.164383
O O6 0.000000 0.250000 0.950850
O O7 0.000000 0.379308 0.870210
O O8 0.855057 0.500000 0.500000
O O9 0.941435 0.465579 0.693281
O O10 0.892279 0.373928 0.462720
O O11 0.000000 0.500000 0.000000
O O12 0.871987 0.250000 0.300767
#
# Coordination Sequence:
#
# PCOD9504168 Si02
#       5
#    16   8  16   8  16
#     4  11  24  45  68  92 128 175 222 268 324 381
#     4  10  21  39  63  90 130 171 203 254 325 392
#     4  12  23  40  67  98 130 169 215 270 330 384
#     4  12  22  37  68  97 129 167 218 266 326 387
#     4  11  24  43  66  99 133 169 217 269 325 395
#
# _framework density 19.465966999999999
#
# number of rings (size 3 to 8) (size 9 to 14) (size 15 to 20)
#    0.000    0.750    5.000    3.375    0.000    3.500 
#    0.000    1.250    0.000    0.000    0.000    0.000 
#    0.000    0.000    0.000    0.000    0.000    0.000 
#
# Total GULP energy -178768.773360 kJ/mol
# GULP energy per Si atom -5586.524167 kJ/mol
# Density = 1.942166 g / cm^3
# Si number density = 19.465967 Si / 1000 Ang^3
#
#
#
# Elastic Constant Matrix: (Units=GPa)
#
#
# Indices 1 2 3 4 5 6 
#
# 1 77.9901 30.5746 31.1920 0.0000 0.0000 0.0000
# 2 30.5746 98.5711 28.7586 0.0000 0.0000 0.0000
# 3 31.1920 28.7586 93.5603 0.0000 0.0000 0.0000
# 4 0.0000 0.0000 0.0000 45.3957 0.0000 0.0000
# 5 0.0000 0.0000 0.0000 0.0000 -18.1511 0.0000
# 6 0.0000 0.0000 0.0000 0.0000 0.0000 24.1075
#
#
#
# Elastic Compliance Matrix: (Units=1/GPa)
#
#
# Indices 1 2 3 4 5 6 
#
# 1 0.015953 -0.003731 -0.004172 0.000000 0.000000 0.000000
# 2 -0.003731 0.012017 -0.002450 0.000000 0.000000 0.000000
# 3 -0.004172 -0.002450 0.012832 0.000000 0.000000 0.000000
# 4 0.000000 0.000000 0.000000 0.022028 0.000000 0.000000
# 5 0.000000 0.000000 0.000000 0.000000 -0.055093 0.000000
# 6 0.000000 0.000000 0.000000 0.000000 0.000000 0.041481
#
#
# Mechanical properties :
#
#
# Convention : Reuss Voigt Hill
#
# Bulk Modulus (GPa) = 49.75901 50.13020 49.94461
# Shear Modulus (GPa) = 65.25408 22.24352 43.74880
#
# Velocity S-wave (km/s) = 5.79611 3.38403 4.74587
# Velocity P-wave (km/s) = 8.39111 6.40918 7.46620
#
# Compressibility (1/GPa) = 0.02009686
#
# Stress axis : x y z
#
# Youngs Moduli (GPa) = 62.68253 83.21494 77.92919
#
# Poissons Ratio (x) = 0.31050 0.32510
# Poissons Ratio (y) = 0.23388 0.19092
# Poissons Ratio (z) = 0.26150 0.20386
#
# Static dielectric constant tensor:
#      x y z
#    x 1.696620 0.000000 0.000000 
#    y 0.000000 1.851290 0.000000 
#    z 0.000000 0.000000 1.700660 
# 
# From -- ./inp_files/2861.got.cif
#   From: 2010.05.17/outbox.cif.g08.bks.cpg/sg67_2_cif.got.tgz:2861.got - 2010.06.03 18:28:57.
