data_PCOD9504284
_publ_section_title
;
Structure prediction by ZEFSAII (Michael W. Deem and Ramdas Pophale) SiO2 
 PCOD9504284
Probable space group: C M M A
;
_chemical_formula_sum "Si O2"
_cell_formula_units_Z 64
_cell_length_a 10.318085
_cell_length_b 22.542054
_cell_length_c 13.894120
_cell_angle_alpha 90.000000
_cell_angle_beta 90.000000
_cell_angle_gamma 90.000000
_cell_volume 3231.644892
_symmetry_space_group_name_H-M "C M M A"
_symmetry_group_IT_number 67
_symmetry_cell_setting 'orthorhombic'
loop_
_space_group_symop_operation_xyz
x,y,z
-x,1/2-y,z
x,-y,-z
-x,1/2+y,-z
-x,-y,-z
x,1/2+y,-z
-x,y,z
x,1/2-y,z
1/2+x,1/2+y,z
1/2-x,-y,z
1/2+x,1/2-y,-z
1/2-x,y,-z
1/2-x,1/2-y,-z
1/2+x,y,-z
1/2-x,1/2+y,z
1/2+x,-y,z
loop_
_atom_site_type_symbol
_atom_site_label
_atom_site_fract_x
_atom_site_fract_y
_atom_site_fract_z
Si Si1 0.250000 0.645056 0.500000
Si Si2 0.742413 0.619697 0.112287
Si Si3 0.000000 0.432961 0.544796
Si Si4 0.350601 0.250000 0.623994
Si Si5 0.500000 0.035519 0.892459
Si Si6 0.000000 0.418204 0.775883
Si Si7 0.646197 0.750000 0.146628
O O1 0.373543 0.603029 0.510965
O O2 0.277729 0.691243 0.413202
O O3 0.622612 0.576639 0.135340
O O4 0.710783 0.689015 0.116646
O O5 0.869769 0.609964 0.177261
O O6 0.750000 0.604386 0.000000
O O7 0.000000 0.500000 0.500000
O O8 0.000000 0.425239 0.661018
O O9 0.500000 0.250000 0.586229
O O10 0.356433 0.250000 0.737970
O O11 0.500000 0.983193 0.818216
O O12 0.500000 0.000000 0.000000
O O13 0.500000 0.750000 0.108192
#
# Coordination Sequence:
#
# PCOD9504284 Si02
#       7
#     8  16   8   8   8   8   8
#     4  11  23  46  72  98 137 179 236 280 364 409
#     4  12  24  45  70  98 143 182 228 292 344 420
#     4  12  28  47  68 102 148 186 232 293 350 421
#     4  10  21  41  73  99 128 177 225 302 337 425
#     4  12  24  45  70  97 134 185 241 279 333 419
#     4  12  28  43  72 108 136 187 238 288 352 402
#     4  11  24  41  65 103 134 173 235 276 364 405
#
# _framework density 19.804155999999999
#
# number of rings (size 3 to 8) (size 9 to 14) (size 15 to 20)
#    0.000    0.500    5.000    3.000    0.000    6.500 
#    0.000    2.500    0.000    0.000    0.000    0.000 
#    0.000    0.000    0.000    0.000    0.000    0.000 
#
# Total GULP energy -178449.224476 kJ/mol
# GULP energy per Si atom -5576.538265 kJ/mol
# Density = 1.975908 g / cm^3
# Si number density = 19.804156 Si / 1000 Ang^3
#
#
#
# Elastic Constant Matrix: (Units=GPa)
#
#
# Indices 1 2 3 4 5 6 
#
# 1 168.1251 86.9163 31.2986 0.0000 0.0000 0.0000
# 2 86.9163 156.8580 10.9422 0.0000 0.0000 0.0000
# 3 31.2986 10.9422 69.6752 0.0000 0.0000 0.0000
# 4 0.0000 0.0000 0.0000 12.6803 0.0000 0.0000
# 5 0.0000 0.0000 0.0000 0.0000 19.1417 0.0000
# 6 0.0000 0.0000 0.0000 0.0000 0.0000 51.9786
#
#
#
# Elastic Compliance Matrix: (Units=1/GPa)
#
#
# Indices 1 2 3 4 5 6 
#
# 1 0.009032 -0.004774 -0.003307 0.000000 0.000000 0.000000
# 2 -0.004774 0.008969 0.000736 0.000000 0.000000 0.000000
# 3 -0.003307 0.000736 0.015722 0.000000 0.000000 0.000000
# 4 0.000000 0.000000 0.000000 0.078863 0.000000 0.000000
# 5 0.000000 0.000000 0.000000 0.000000 0.052242 0.000000
# 6 0.000000 0.000000 0.000000 0.000000 0.000000 0.019239
#
#
# Mechanical properties :
#
#
# Convention : Reuss Voigt Hill
#
# Bulk Modulus (GPa) = 52.54156 72.55250 62.54703
# Shear Modulus (GPa) = 24.37824 34.46020 29.41922
#
# Velocity S-wave (km/s) = 3.51232 4.17591 3.85841
# Velocity P-wave (km/s) = 6.56023 7.74374 7.17643
#
# Compressibility (1/GPa) = 0.01903255
#
# Stress axis : x y z
#
# Youngs Moduli (GPa) = 110.72292 111.49477 63.60336
#
# Poissons Ratio (x) = 0.53225 0.21036
# Poissons Ratio (y) = 0.52856 -0.04680
# Poissons Ratio (z) = 0.36620 -0.08204
#
# Static dielectric constant tensor:
#      x y z
#    x 1.697800 0.000000 0.000000 
#    y 0.000000 1.680750 0.000000 
#    z 0.000000 0.000000 1.543290 
# 
# From -- ./inp_files/25844.got.cif
#   From: 2010.05.17/outbox.cif.g08.bks.cpg/sg67_13_cif.got.tgz:25844.got - 2010.06.03 18:28:57.
