data_PCOD9504322
_publ_section_title
;
Structure prediction by ZEFSAII (Michael W. Deem and Ramdas Pophale) SiO2 
 PCOD9504322
Probable space group: C M M A
;
_chemical_formula_sum "Si O2"
_cell_formula_units_Z 108
_cell_length_a 26.288188
_cell_length_b 27.915814
_cell_length_c 6.732178
_cell_angle_alpha 90.000000
_cell_angle_beta 90.000000
_cell_angle_gamma 90.000000
_cell_volume 4940.450340
_symmetry_space_group_name_H-M "C M M A"
_symmetry_group_IT_number 67
_symmetry_cell_setting 'orthorhombic'
loop_
_space_group_symop_operation_xyz
x,y,z
-x,1/2-y,z
x,-y,-z
-x,1/2+y,-z
-x,-y,-z
x,1/2+y,-z
-x,y,z
x,1/2-y,z
1/2+x,1/2+y,z
1/2-x,-y,z
1/2+x,1/2-y,-z
1/2-x,y,-z
1/2-x,1/2-y,-z
1/2+x,y,-z
1/2-x,1/2+y,z
1/2+x,-y,z
loop_
_atom_site_type_symbol
_atom_site_label
_atom_site_fract_x
_atom_site_fract_y
_atom_site_fract_z
Si Si1 0.138843 0.692696 0.110366
Si Si2 0.862454 0.446924 0.557025
Si Si3 0.940903 0.196119 0.554060
Si Si4 0.399984 0.126000 0.772735
Si Si5 0.558498 0.553860 0.910539
Si Si6 0.250000 0.078444 0.500000
Si Si7 0.750000 0.250000 0.500000
Si Si8 0.245004 0.334718 0.767345
O O1 0.145592 0.750000 0.072313
O O2 0.089110 0.685506 0.244249
O O3 0.184476 0.675155 0.253171
O O4 0.134291 0.659630 0.916077
O O5 0.879621 0.500000 0.500000
O O6 0.872605 0.410218 0.378645
O O7 0.897239 0.435292 0.748697
O O8 0.800903 0.447826 0.574367
O O9 0.925396 0.250000 0.493500
O O10 0.929989 0.161081 0.373298
O O11 0.000000 0.195345 0.599812
O O12 0.433776 0.092562 0.915393
O O13 0.500000 0.556656 0.832664
O O14 0.565552 0.500000 0.000000
O O15 0.261498 0.114940 0.680417
O O16 0.729287 0.208047 0.650165
O O17 0.250000 0.330719 0.000000
#
# Coordination Sequence:
#
# PCOD9504322 Si02
#       8
#    16  16  16  16  16   8   4  16
#     4  11  24  42  66 101 142 184 232 289 346 419
#     4  12  26  48  71 100 138 183 235 290 357 425
#     4  10  23  43  66  98 139 184 228 275 339 417
#     4  12  23  42  70 101 137 183 235 289 355 418
#     4  11  25  46  73 104 138 177 233 299 362 426
#     4  11  25  43  71 100 136 182 236 288 344 422
#     4  10  22  36  62  90 128 168 216 268 326 402
#     4  11  22  42  64  97 132 177 223 281 342 401
#
# _framework density 21.860357
#
# number of rings (size 3 to 8) (size 9 to 14) (size 15 to 20)
#    0.000    0.889    2.222    4.889    0.000    5.037 
#    0.000    1.481    0.000    0.000    0.000    0.000 
#    0.000    0.000    0.000    0.000    0.000    0.000 
#
# Total GULP energy -301211.869672 kJ/mol
# GULP energy per Si atom -5577.997587 kJ/mol
# Density = 2.181060 g / cm^3
# Si number density = 21.860357 Si / 1000 Ang^3
#
#
#
# Elastic Constant Matrix: (Units=GPa)
#
#
# Indices 1 2 3 4 5 6 
#
# 1 105.2393 28.3318 42.7259 0.0000 0.0000 0.0000
# 2 28.3318 113.3353 47.1842 0.0000 0.0000 0.0000
# 3 42.7259 47.1842 123.7308 0.0000 0.0000 0.0000
# 4 0.0000 0.0000 0.0000 -24.8813 0.0000 0.0000
# 5 0.0000 0.0000 0.0000 0.0000 14.6558 0.0000
# 6 0.0000 0.0000 0.0000 0.0000 0.0000 1.9433
#
#
#
# Elastic Compliance Matrix: (Units=1/GPa)
#
#
# Indices 1 2 3 4 5 6 
#
# 1 0.011240 -0.001419 -0.003340 0.000000 0.000000 0.000000
# 2 -0.001419 0.010668 -0.003578 0.000000 0.000000 0.000000
# 3 -0.003340 -0.003578 0.010600 0.000000 0.000000 0.000000
# 4 0.000000 0.000000 0.000000 -0.040191 0.000000 0.000000
# 5 0.000000 0.000000 0.000000 0.000000 0.068232 0.000000
# 6 0.000000 0.000000 0.000000 0.000000 0.000000 0.514600
#
#
# Mechanical properties :
#
#
# Convention : Reuss Voigt Hill
#
# Bulk Modulus (GPa) = 63.15897 64.30990 63.73444
# Shear Modulus (GPa) = 8.37378 13.28112 10.82745
#
# Velocity S-wave (km/s) = 1.95931 2.46751 2.22795
# Velocity P-wave (km/s) = 5.83723 6.13193 5.98639
#
# Compressibility (1/GPa) = 0.01583306
#
# Stress axis : x y z
#
# Youngs Moduli (GPa) = 88.96544 93.74016 94.34019
#
# Poissons Ratio (x) = 0.13304 0.31511
# Poissons Ratio (y) = 0.12627 0.33755
# Poissons Ratio (z) = 0.29716 0.33540
#
# Static dielectric constant tensor:
#      x y z
#    x 1.872530 0.000000 0.000000 
#    y 0.000000 1.790960 0.000000 
#    z 0.000000 0.000000 1.789740 
# 
# From -- ./inp_files/4968.got.cif
#   From: 2010.05.17/outbox.cif.g08.bks.cpg/sg67_3_cif.got.tgz:4968.got - 2010.06.03 18:28:57.
