data_PCOD9504418
_publ_section_title
;
Structure prediction by ZEFSAII (Michael W. Deem and Ramdas Pophale) SiO2 
 PCOD9504418
Probable space group: C M M A
;
_chemical_formula_sum "Si O2"
_cell_formula_units_Z 96
_cell_length_a 15.904063
_cell_length_b 21.429403
_cell_length_c 14.564670
_cell_angle_alpha 90.000000
_cell_angle_beta 90.000000
_cell_angle_gamma 90.000000
_cell_volume 4963.851821
_symmetry_space_group_name_H-M "C M M A"
_symmetry_group_IT_number 67
_symmetry_cell_setting 'orthorhombic'
loop_
_space_group_symop_operation_xyz
x,y,z
-x,1/2-y,z
x,-y,-z
-x,1/2+y,-z
-x,-y,-z
x,1/2+y,-z
-x,y,z
x,1/2-y,z
1/2+x,1/2+y,z
1/2-x,-y,z
1/2+x,1/2-y,-z
1/2-x,y,-z
1/2-x,1/2-y,-z
1/2+x,y,-z
1/2-x,1/2+y,z
1/2+x,-y,z
loop_
_atom_site_type_symbol
_atom_site_label
_atom_site_fract_x
_atom_site_fract_y
_atom_site_fract_z
Si Si1 0.273846 0.319845 0.277234
Si Si2 0.172182 0.581529 0.432067
Si Si3 0.091505 0.544998 0.604249
Si Si4 0.401934 0.871185 0.215791
Si Si5 0.595211 0.320153 0.111349
Si Si6 0.149967 0.071067 0.022434
O O1 0.282473 0.250000 0.315682
O O2 0.305967 0.369529 0.352801
O O3 0.178168 0.327326 0.239624
O O4 0.336205 0.326310 0.190865
O O5 0.250000 0.582238 0.500000
O O6 0.100780 0.586310 0.511612
O O7 0.155052 0.512806 0.392464
O O8 0.097941 0.585609 0.694454
O O9 0.000000 0.515245 0.603995
O O10 0.500000 0.848161 0.204031
O O11 0.374449 0.910328 0.126044
O O12 0.500000 0.323415 0.148432
O O13 0.605327 0.250000 0.070063
O O14 0.607987 0.375782 0.040103
O O15 0.250000 0.074367 0.000000
O O16 0.123284 0.000000 0.000000
#
# Coordination Sequence:
#
# PCOD9504418 Si02
#       6
#    16  16  16  16  16  16
#     4  11  25  43  66  93 127 172 219 267 321 378
#     4  11  21  37  64  91 124 162 208 258 318 380
#     4  10  22  39  63  95 129 167 212 261 320 388
#     4  11  24  42  64  94 129 171 216 262 326 390
#     4  10  23  44  68  94 127 170 219 265 317 388
#     4  11  24  41  68 101 133 170 214 270 333 391
#
# _framework density 19.339818999999999
#
# number of rings (size 3 to 8) (size 9 to 14) (size 15 to 20)
#    0.000    1.333    3.333    2.500    2.333    4.333 
#    0.000    0.000    0.000    0.000    0.000    0.000 
#    0.000    0.000    0.000    0.000    0.000    0.000 
#
# Total GULP energy -267275.574258 kJ/mol
# GULP energy per Si atom -5568.241130 kJ/mol
# Density = 1.929580 g / cm^3
# Si number density = 19.339819 Si / 1000 Ang^3
#
#
#
# Elastic Constant Matrix: (Units=GPa)
#
#
# Indices 1 2 3 4 5 6 
#
# 1 116.6011 46.4256 47.7694 0.0000 0.0000 0.0000
# 2 46.4256 116.6414 51.2509 0.0000 0.0000 0.0000
# 3 47.7694 51.2509 79.0619 0.0000 0.0000 0.0000
# 4 0.0000 0.0000 0.0000 27.4039 0.0000 0.0000
# 5 0.0000 0.0000 0.0000 0.0000 27.2487 0.0000
# 6 0.0000 0.0000 0.0000 0.0000 0.0000 247.8099
#
#
#
# Elastic Compliance Matrix: (Units=1/GPa)
#
#
# Indices 1 2 3 4 5 6 
#
# 1 0.011782 -0.002184 -0.005703 0.000000 0.000000 0.000000
# 2 -0.002184 0.012392 -0.006714 0.000000 0.000000 0.000000
# 3 -0.005703 -0.006714 0.020447 0.000000 0.000000 0.000000
# 4 0.000000 0.000000 0.000000 0.036491 0.000000 0.000000
# 5 0.000000 0.000000 0.000000 0.000000 0.036699 0.000000
# 6 0.000000 0.000000 0.000000 0.000000 0.000000 0.004035
#
#
# Mechanical properties :
#
#
# Convention : Reuss Voigt Hill
#
# Bulk Modulus (GPa) = 64.85320 67.02183 65.93752
# Shear Modulus (GPa) = 32.01264 71.61638 51.81451
#
# Velocity S-wave (km/s) = 4.07292 6.09187 5.18168
# Velocity P-wave (km/s) = 7.46488 9.17667 8.36468
#
# Compressibility (1/GPa) = 0.01541944
#
# Stress axis : x y z
#
# Youngs Moduli (GPa) = 84.87360 80.69462 48.90801
#
# Poissons Ratio (x) = 0.17620 0.27894
# Poissons Ratio (y) = 0.18533 0.32836
# Poissons Ratio (z) = 0.48407 0.54178
#
# Static dielectric constant tensor:
#      x y z
#    x 1.796620 0.000000 0.000000 
#    y 0.000000 1.663800 0.000000 
#    z 0.000000 0.000000 1.678880 
# 
# From -- ./inp_files/27206.got.cif
#   From: 2010.05.17/outbox.cif.g08.bks.cpg/sg67_14_cif.got.tgz:27206.got - 2010.06.03 18:28:57.
