data_PCOD9504338
_publ_section_title
;
Structure prediction by ZEFSAII (Michael W. Deem and Ramdas Pophale) SiO2 
 PCOD9504338
Probable space group: C M M A
;
_chemical_formula_sum "Si O2"
_cell_formula_units_Z 80
_cell_length_a 25.932344
_cell_length_b 14.165844
_cell_length_c 9.758118
_cell_angle_alpha 90.000000
_cell_angle_beta 90.000000
_cell_angle_gamma 90.000000
_cell_volume 3584.679188
_symmetry_space_group_name_H-M "C M M A"
_symmetry_group_IT_number 67
_symmetry_cell_setting 'orthorhombic'
loop_
_space_group_symop_operation_xyz
x,y,z
-x,1/2-y,z
x,-y,-z
-x,1/2+y,-z
-x,-y,-z
x,1/2+y,-z
-x,y,z
x,1/2-y,z
1/2+x,1/2+y,z
1/2-x,-y,z
1/2+x,1/2-y,-z
1/2-x,y,-z
1/2-x,1/2-y,-z
1/2+x,y,-z
1/2-x,1/2+y,z
1/2+x,-y,z
loop_
_atom_site_type_symbol
_atom_site_label
_atom_site_fract_x
_atom_site_fract_y
_atom_site_fract_z
Si Si1 0.439931 0.356715 0.710962
Si Si2 0.869426 0.003276 0.799495
Si Si3 0.203205 0.360255 0.899025
Si Si4 0.286443 0.138871 0.690044
Si Si5 0.639287 0.358546 0.455202
O O1 0.500000 0.367606 0.677848
O O2 0.432166 0.250000 0.766003
O O3 0.420045 0.439656 0.809874
O O4 0.404231 0.362907 0.574756
O O5 0.847888 0.078262 0.908101
O O6 0.873777 0.066850 0.661255
O O7 0.823953 0.927289 0.776957
O O8 0.192470 0.250000 0.917460
O O9 0.229250 0.376537 0.748552
O O10 0.250000 0.385008 0.000000
O O11 0.296609 0.250000 0.716684
O O12 0.306754 0.123148 0.535967
O O13 0.640499 0.250000 0.403879
#
# Coordination Sequence:
#
# PCOD9504338 Si02
#       5
#    16  16  16  16  16
#     4   9  18  33  53  79 114 151 182 219 275 342
#     4  11  19  30  52  78 107 139 179 226 267 316
#     4  10  22  38  53  72 101 140 184 226 272 325
#     4   9  18  32  49  71 102 139 177 220 268 320
#     4   9  18  31  48  76 110 141 178 223 272 323
#
# _framework density 22.317198999999999
#
# number of rings (size 3 to 8) (size 9 to 14) (size 15 to 20)
#    0.000    2.400    0.000    5.400    0.000    4.000 
#    0.000    7.000    0.000    3.600    0.000   12.600 
#    0.000   19.200    0.000   19.600    0.000    0.000 
#
# Total GULP energy -223432.427339 kJ/mol
# GULP energy per Si atom -5585.810683 kJ/mol
# Density = 2.226640 g / cm^3
# Si number density = 22.317199 Si / 1000 Ang^3
#
#
#
# Elastic Constant Matrix: (Units=GPa)
#
#
# Indices 1 2 3 4 5 6 
#
# 1 112.7830 56.2012 22.6758 0.0000 0.0000 0.0000
# 2 56.2012 116.7285 31.9043 0.0000 0.0000 0.0000
# 3 22.6758 31.9043 74.6414 0.0000 0.0000 0.0000
# 4 0.0000 0.0000 0.0000 23.7786 0.0000 0.0000
# 5 0.0000 0.0000 0.0000 0.0000 21.8471 0.0000
# 6 0.0000 0.0000 0.0000 0.0000 0.0000 38.9228
#
#
#
# Elastic Compliance Matrix: (Units=1/GPa)
#
#
# Indices 1 2 3 4 5 6 
#
# 1 0.011777 -0.005313 -0.001307 0.000000 0.000000 0.000000
# 2 -0.005313 0.012097 -0.003557 0.000000 0.000000 0.000000
# 3 -0.001307 -0.003557 0.015315 0.000000 0.000000 0.000000
# 4 0.000000 0.000000 0.000000 0.042055 0.000000 0.000000
# 5 0.000000 0.000000 0.000000 0.000000 0.045773 0.000000
# 6 0.000000 0.000000 0.000000 0.000000 0.000000 0.025692
#
#
# Mechanical properties :
#
#
# Convention : Reuss Voigt Hill
#
# Bulk Modulus (GPa) = 53.09084 58.41284 55.75184
# Shear Modulus (GPa) = 27.88014 29.80114 28.84064
#
# Velocity S-wave (km/s) = 3.53833 3.65820 3.59877
# Velocity P-wave (km/s) = 6.36662 6.63882 6.50415
#
# Compressibility (1/GPa) = 0.01883564
#
# Stress axis : x y z
#
# Youngs Moduli (GPa) = 84.91220 82.66489 65.29712
#
# Poissons Ratio (x) = 0.43920 0.08533
# Poissons Ratio (y) = 0.45114 0.23224
# Poissons Ratio (z) = 0.11096 0.29401
#
# Static dielectric constant tensor:
#      x y z
#    x 1.798440 0.000000 0.000000 
#    y 0.000000 1.850920 0.000000 
#    z 0.000000 0.000000 1.977880 
# 
# From -- ./inp_files/22751.got.cif
#   From: 2010.05.17/outbox.cif.g08.bks.cpg/sg67_12_cif.got.tgz:22751.got - 2010.06.03 18:28:57.
