data_PCOD9504217
_publ_section_title
;
Structure prediction by ZEFSAII (Michael W. Deem and Ramdas Pophale) SiO2 
 PCOD9504217
Probable space group: C M M A
;
_chemical_formula_sum "Si O2"
_cell_formula_units_Z 84
_cell_length_a 15.350646
_cell_length_b 13.583739
_cell_length_c 21.853015
_cell_angle_alpha 90.000000
_cell_angle_beta 90.000000
_cell_angle_gamma 90.000000
_cell_volume 4556.772522
_symmetry_space_group_name_H-M "C M M A"
_symmetry_group_IT_number 67
_symmetry_cell_setting 'orthorhombic'
loop_
_space_group_symop_operation_xyz
x,y,z
-x,1/2-y,z
x,-y,-z
-x,1/2+y,-z
-x,-y,-z
x,1/2+y,-z
-x,y,z
x,1/2-y,z
1/2+x,1/2+y,z
1/2-x,-y,z
1/2+x,1/2-y,-z
1/2-x,y,-z
1/2-x,1/2-y,-z
1/2+x,y,-z
1/2-x,1/2+y,z
1/2+x,-y,z
loop_
_atom_site_type_symbol
_atom_site_label
_atom_site_fract_x
_atom_site_fract_y
_atom_site_fract_z
Si Si1 0.000000 0.750000 0.047602
Si Si2 0.000000 0.136327 0.545164
Si Si3 0.350128 0.016344 0.386492
Si Si4 0.500000 0.363373 0.602143
Si Si5 0.317953 0.250000 0.052431
Si Si6 0.500000 0.473482 0.071789
Si Si7 0.663222 0.061044 0.138458
Si Si8 0.896714 0.634146 0.270631
O O1 0.909182 0.750000 0.015082
O O2 0.000000 0.646272 0.083043
O O3 0.000000 0.250000 0.565864
O O4 0.087235 0.082909 0.569938
O O5 0.000000 0.133221 0.471933
O O6 0.346373 0.073096 0.321972
O O7 0.250000 0.000000 0.407802
O O8 0.411346 0.919710 0.378196
O O9 0.500000 0.250000 0.621814
O O10 0.315290 0.345890 0.094997
O O11 0.250000 0.250000 0.000000
O O12 0.410814 0.503628 0.104172
O O13 0.500000 0.500000 0.000000
O O14 0.626206 0.098790 0.202745
O O15 0.750000 0.000000 0.148305
O O16 0.878224 0.750000 0.275906
O O17 0.000000 0.619535 0.281686
#
# Coordination Sequence:
#
# PCOD9504217 Si02
#       8
#     4   8  16   8   8   8  16  16
#     4   8  20  36  56  74 110 144 190 224 274 338
#     4  10  21  40  62  93 131 168 216 257 303 369
#     4  11  22  38  63  93 122 164 214 260 311 367
#     4  10  23  40  59  93 137 173 201 256 320 371
#     4  10  22  38  58  86 116 150 192 235 296 369
#     4  10  22  36  55  83 109 147 187 229 285 361
#     4  11  23  38  59  85 116 150 192 246 303 357
#     4  11  21  39  66  88 114 153 206 260 306 360
#
# _framework density 18.434100999999998
#
# number of rings (size 3 to 8) (size 9 to 14) (size 15 to 20)
#    0.000    1.524    3.810    2.286    5.333    3.048 
#    0.000    1.905    0.000    0.000    2.476    0.000 
#    0.000    0.000    0.000    0.000    0.000    0.000 
#
# Total GULP energy -234189.396827 kJ/mol
# GULP energy per Si atom -5575.938020 kJ/mol
# Density = 1.839214 g / cm^3
# Si number density = 18.434101 Si / 1000 Ang^3
#
#
#
# Elastic Constant Matrix: (Units=GPa)
#
#
# Indices 1 2 3 4 5 6 
#
# 1 140.3962 41.7862 17.5589 0.0000 0.0000 0.0000
# 2 41.7862 87.2038 9.7560 0.0000 0.0000 0.0000
# 3 17.5589 9.7560 72.9469 0.0000 0.0000 0.0000
# 4 0.0000 0.0000 0.0000 79.4947 0.0000 0.0000
# 5 0.0000 0.0000 0.0000 0.0000 24.6163 0.0000
# 6 0.0000 0.0000 0.0000 0.0000 0.0000 18.7247
#
#
#
# Elastic Compliance Matrix: (Units=1/GPa)
#
#
# Indices 1 2 3 4 5 6 
#
# 1 0.008470 -0.003889 -0.001519 0.000000 0.000000 0.000000
# 2 -0.003889 0.013427 -0.000860 0.000000 0.000000 0.000000
# 3 -0.001519 -0.000860 0.014189 0.000000 0.000000 0.000000
# 4 0.000000 0.000000 0.000000 0.012579 0.000000 0.000000
# 5 0.000000 0.000000 0.000000 0.000000 0.040624 0.000000
# 6 0.000000 0.000000 0.000000 0.000000 0.000000 0.053405
#
#
# Mechanical properties :
#
#
# Convention : Reuss Voigt Hill
#
# Bulk Modulus (GPa) = 42.45952 48.74990 45.60471
# Shear Modulus (GPa) = 30.65990 39.99686 35.32838
#
# Velocity S-wave (km/s) = 4.08268 4.66308 4.38250
# Velocity P-wave (km/s) = 6.73109 7.44952 7.09940
#
# Compressibility (1/GPa) = 0.02355184
#
# Stress axis : x y z
#
# Youngs Moduli (GPa) = 118.06291 74.47691 70.47645
#
# Poissons Ratio (x) = 0.28962 0.10703
# Poissons Ratio (y) = 0.45912 0.06059
# Poissons Ratio (z) = 0.17931 0.06403
#
# Static dielectric constant tensor:
#      x y z
#    x 1.664580 0.000000 0.000000 
#    y 0.000000 1.685610 0.000000 
#    z 0.000000 0.000000 1.615670 
# 
# From -- ./inp_files/38352.got.cif
#   From: 2010.05.17/outbox.cif.g08.bks.cpg/sg67_20_cif.got.tgz:38352.got - 2010.06.03 18:28:57.
