data_PCOD9504692
_publ_section_title
;
Structure prediction by ZEFSAII (Michael W. Deem and Ramdas Pophale) SiO2 
 PCOD9504692
Probable space group: C M M A
;
_chemical_formula_sum "Si O2"
_cell_formula_units_Z 56
_cell_length_a 15.589625
_cell_length_b 10.185994
_cell_length_c 17.815818
_cell_angle_alpha 90.000000
_cell_angle_beta 90.000000
_cell_angle_gamma 90.000000
_cell_volume 2829.077548
_symmetry_space_group_name_H-M "C M M A"
_symmetry_group_IT_number 67
_symmetry_cell_setting 'orthorhombic'
loop_
_space_group_symop_operation_xyz
x,y,z
-x,1/2-y,z
x,-y,-z
-x,1/2+y,-z
-x,-y,-z
x,1/2+y,-z
-x,y,z
x,1/2-y,z
1/2+x,1/2+y,z
1/2-x,-y,z
1/2+x,1/2-y,-z
1/2-x,y,-z
1/2-x,1/2-y,-z
1/2+x,y,-z
1/2-x,1/2+y,z
1/2+x,-y,z
loop_
_atom_site_type_symbol
_atom_site_label
_atom_site_fract_x
_atom_site_fract_y
_atom_site_fract_z
Si Si1 0.673605 0.097157 0.834380
Si Si2 0.500000 0.403357 0.929926
Si Si3 0.837236 0.750000 0.399636
Si Si4 0.401595 0.513186 0.323178
Si Si5 0.634186 0.250000 0.569682
O O1 0.698658 0.250000 0.842063
O O2 0.586147 0.075870 0.881096
O O3 0.650234 0.068060 0.747750
O O4 0.750000 0.000000 0.857634
O O5 0.500000 0.250000 0.953241
O O6 0.500000 0.500000 0.000000
O O7 0.862063 0.620862 0.353894
O O8 0.736384 0.750000 0.416555
O O9 0.882656 0.750000 0.481071
O O10 0.500000 0.491364 0.300290
O O11 0.399715 0.621105 0.388876
#
# Coordination Sequence:
#
# PCOD9504692 Si02
#       5
#    16   8   8  16   8
#     4  11  24  44  70 100 136 178 222 268 325 389
#     4  10  24  48  74 106 141 175 216 260 323 395
#     4  11  25  41  57  93 125 168 223 283 331 393
#     4  12  24  40  62  91 128 169 224 274 329 389
#     4  11  23  41  65  83 125 174 221 275 339 391
#
# _framework density 19.794436999999999
#
# number of rings (size 3 to 8) (size 9 to 14) (size 15 to 20)
#    0.000    0.857    2.857    4.286    2.000    7.429 
#    0.000    2.857    0.000    0.000    0.000    0.000 
#    0.000    0.000    0.000    0.000    0.000    0.000 
#
# Total GULP energy -156683.084875 kJ/mol
# GULP energy per Si atom -5595.824460 kJ/mol
# Density = 1.974938 g / cm^3
# Si number density = 19.794437 Si / 1000 Ang^3
#
#
#
# Elastic Constant Matrix: (Units=GPa)
#
#
# Indices 1 2 3 4 5 6 
#
# 1 126.2086 69.2230 25.6222 0.0000 0.0000 0.0000
# 2 69.2230 163.9792 69.7251 0.0000 0.0000 0.0000
# 3 25.6222 69.7251 98.3761 0.0000 0.0000 0.0000
# 4 0.0000 0.0000 0.0000 70.9864 0.0000 0.0000
# 5 0.0000 0.0000 0.0000 0.0000 14.6270 0.0000
# 6 0.0000 0.0000 0.0000 0.0000 0.0000 54.1786
#
#
#
# Elastic Compliance Matrix: (Units=1/GPa)
#
#
# Indices 1 2 3 4 5 6 
#
# 1 0.010333 -0.004606 0.000573 0.000000 0.000000 0.000000
# 2 -0.004606 0.010782 -0.006442 0.000000 0.000000 0.000000
# 3 0.000573 -0.006442 0.014582 0.000000 0.000000 0.000000
# 4 0.000000 0.000000 0.000000 0.014087 0.000000 0.000000
# 5 0.000000 0.000000 0.000000 0.000000 0.068367 0.000000
# 6 0.000000 0.000000 0.000000 0.000000 0.000000 0.018457
#
#
# Mechanical properties :
#
#
# Convention : Reuss Voigt Hill
#
# Bulk Modulus (GPa) = 67.80984 79.74494 73.77739
# Shear Modulus (GPa) = 30.77420 42.89131 36.83275
#
# Velocity S-wave (km/s) = 3.94723 4.65998 4.31834
# Velocity P-wave (km/s) = 7.42331 8.32634 7.88776
#
# Compressibility (1/GPa) = 0.01474712
#
# Stress axis : x y z
#
# Youngs Moduli (GPa) = 96.77503 92.74772 68.57871
#
# Poissons Ratio (x) = 0.42718 -0.03930
# Poissons Ratio (y) = 0.44573 0.44180
# Poissons Ratio (z) = -0.05546 0.59750
#
# Static dielectric constant tensor:
#      x y z
#    x 1.715560 0.000000 0.000000 
#    y 0.000000 1.650430 0.000000 
#    z 0.000000 0.000000 1.668300 
# 
# From -- ./inp_files/31661.got.cif
#   From: 2010.05.17/outbox.cif.g08.bks.cpg/sg67_16_cif.got.tgz:31661.got - 2010.06.03 18:28:57.
