data_PCOD9504486
_publ_section_title
;
Structure prediction by ZEFSAII (Michael W. Deem and Ramdas Pophale) SiO2 
 PCOD9504486
Probable space group: C M M A
;
_chemical_formula_sum "Si O2"
_cell_formula_units_Z 72
_cell_length_a 14.232009
_cell_length_b 26.042843
_cell_length_c 11.281628
_cell_angle_alpha 90.000000
_cell_angle_beta 90.000000
_cell_angle_gamma 90.000000
_cell_volume 4181.444894
_symmetry_space_group_name_H-M "C M M A"
_symmetry_group_IT_number 67
_symmetry_cell_setting 'orthorhombic'
loop_
_space_group_symop_operation_xyz
x,y,z
-x,1/2-y,z
x,-y,-z
-x,1/2+y,-z
-x,-y,-z
x,1/2+y,-z
-x,y,z
x,1/2-y,z
1/2+x,1/2+y,z
1/2-x,-y,z
1/2+x,1/2-y,-z
1/2-x,y,-z
1/2-x,1/2-y,-z
1/2+x,y,-z
1/2-x,1/2+y,z
1/2+x,-y,z
loop_
_atom_site_type_symbol
_atom_site_label
_atom_site_fract_x
_atom_site_fract_y
_atom_site_fract_z
Si Si1 0.000000 0.420782 0.564518
Si Si2 0.000000 0.475237 0.310873
Si Si3 0.192627 0.135713 0.613372
Si Si4 0.250000 0.624691 0.000000
Si Si5 0.388981 0.310955 0.158491
Si Si6 0.700921 0.944674 0.223494
O O1 0.000000 0.450458 0.440916
O O2 0.000000 0.463391 0.668894
O O3 0.906372 0.387518 0.572124
O O4 0.907294 0.456142 0.246773
O O5 0.250000 0.156405 0.500000
O O6 0.164969 0.174209 0.719627
O O7 0.253200 0.089244 0.671164
O O8 0.333588 0.659305 0.945347
O O9 0.214992 0.588318 0.894473
O O10 0.500000 0.325719 0.165820
O O11 0.384608 0.250000 0.139855
O O12 0.750000 0.000000 0.216279
#
# Coordination Sequence:
#
# PCOD9504486 Si02
#       6
#     8   8  16   8  16  16
#     4  11  20  34  54  85 119 156 187 226 276 338
#     4  11  22  32  58  82 120 159 192 231 270 332
#     4  11  21  36  58  85 119 149 188 232 286 345
#     4  10  24  40  60  80 116 152 192 238 288 338
#     4  10  22  41  64  86 109 145 194 244 296 348
#     4  11  22  37  53  85 119 155 191 229 275 336
#
# _framework density 17.218928999999999
#
# number of rings (size 3 to 8) (size 9 to 14) (size 15 to 20)
#    0.000    1.333    5.556    0.667    1.556    0.889 
#    0.000    1.111    0.000    0.000    0.000    0.000 
#    0.000    0.000    0.000    0.000    0.000    0.000 
#
# Total GULP energy -200928.959165 kJ/mol
# GULP energy per Si atom -5581.359977 kJ/mol
# Density = 1.717974 g / cm^3
# Si number density = 17.218929 Si / 1000 Ang^3
#
#
#
# Elastic Constant Matrix: (Units=GPa)
#
#
# Indices 1 2 3 4 5 6 
#
# 1 153.7451 38.5679 45.2997 0.0000 0.0000 0.0000
# 2 38.5679 63.9751 25.3419 0.0000 0.0000 0.0000
# 3 45.2997 25.3419 86.5846 0.0000 0.0000 0.0000
# 4 0.0000 0.0000 0.0000 10.9197 0.0000 0.0000
# 5 0.0000 0.0000 0.0000 0.0000 35.8608 0.0000
# 6 0.0000 0.0000 0.0000 0.0000 0.0000 24.0699
#
#
#
# Elastic Compliance Matrix: (Units=1/GPa)
#
#
# Indices 1 2 3 4 5 6 
#
# 1 0.008423 -0.003769 -0.003304 0.000000 0.000000 0.000000
# 2 -0.003769 0.019368 -0.003697 0.000000 0.000000 0.000000
# 3 -0.003304 -0.003697 0.014360 0.000000 0.000000 0.000000
# 4 0.000000 0.000000 0.000000 0.091577 0.000000 0.000000
# 5 0.000000 0.000000 0.000000 0.000000 0.027886 0.000000
# 6 0.000000 0.000000 0.000000 0.000000 0.000000 0.041546
#
#
# Mechanical properties :
#
#
# Convention : Reuss Voigt Hill
#
# Bulk Modulus (GPa) = 48.51646 58.08042 53.29844
# Shear Modulus (GPa) = 21.59183 27.17642 24.38413
#
# Velocity S-wave (km/s) = 3.54497 3.97708 3.76722
# Velocity P-wave (km/s) = 6.70769 7.40900 7.06705
#
# Compressibility (1/GPa) = 0.02061156
#
# Stress axis : x y z
#
# Youngs Moduli (GPa) = 118.71915 51.63217 69.63909
#
# Poissons Ratio (x) = 0.19462 0.23006
# Poissons Ratio (y) = 0.44750 0.25742
# Poissons Ratio (z) = 0.39221 0.19086
#
# Static dielectric constant tensor:
#      x y z
#    x 1.562180 0.000000 0.000000 
#    y 0.000000 1.563460 0.000000 
#    z 0.000000 0.000000 1.588950 
# 
# From -- ./inp_files/16625.got.cif
#   From: 2010.05.17/outbox.cif.g08.bks.cpg/sg67_9_cif.got.tgz:16625.got - 2010.06.03 18:28:57.
