data_PCOD9504500
_publ_section_title
;
Structure prediction by ZEFSAII (Michael W. Deem and Ramdas Pophale) SiO2 
 PCOD9504500
Probable space group: C M M A
;
_chemical_formula_sum "Si O2"
_cell_formula_units_Z 112
_cell_length_a 14.928970
_cell_length_b 31.756102
_cell_length_c 11.535713
_cell_angle_alpha 90.000000
_cell_angle_beta 90.000000
_cell_angle_gamma 90.000000
_cell_volume 5468.918811
_symmetry_space_group_name_H-M "C M M A"
_symmetry_group_IT_number 67
_symmetry_cell_setting 'orthorhombic'
loop_
_space_group_symop_operation_xyz
x,y,z
-x,1/2-y,z
x,-y,-z
-x,1/2+y,-z
-x,-y,-z
x,1/2+y,-z
-x,y,z
x,1/2-y,z
1/2+x,1/2+y,z
1/2-x,-y,z
1/2+x,1/2-y,-z
1/2-x,y,-z
1/2-x,1/2-y,-z
1/2+x,y,-z
1/2-x,1/2+y,z
1/2+x,-y,z
loop_
_atom_site_type_symbol
_atom_site_label
_atom_site_fract_x
_atom_site_fract_y
_atom_site_fract_z
Si Si1 0.105138 0.113837 0.961424
Si Si2 0.891018 0.296184 0.866071
Si Si3 0.607802 0.204484 0.403639
Si Si4 0.852118 0.117504 0.475312
Si Si5 0.101126 0.033067 0.595837
Si Si6 0.600669 0.407951 0.772578
Si Si7 0.220404 0.044150 0.823216
O O1 0.137719 0.160084 0.923118
O O2 0.167353 0.077340 0.905373
O O3 0.000000 0.107782 0.924200
O O4 0.104951 0.112994 0.100693
O O5 0.861762 0.250000 0.911636
O O6 0.865114 0.298336 0.730964
O O7 0.000000 0.296203 0.872188
O O8 0.500000 0.204729 0.404612
O O9 0.638473 0.250000 0.450098
O O10 0.636486 0.163158 0.469651
O O11 0.750000 0.105356 0.500000
O O12 0.902581 0.079379 0.538548
O O13 0.882258 0.119471 0.341920
O O14 0.158500 0.035534 0.711856
O O15 0.000000 0.019615 0.624606
O O16 0.136193 0.000000 0.500000
O O17 0.500000 0.426394 0.762905
O O18 0.685939 0.437994 0.775709
O O19 0.250000 0.000000 0.877993
#
# Coordination Sequence:
#
# PCOD9504500 Si02
#       7
#    16  16  16  16  16  16  16
#     4  10  22  41  66  95 128 170 217 267 323 382
#     4   8  15  32  62  96 125 157 205 264 321 380
#     4   9  18  34  59  91 125 162 208 260 315 379
#     4  12  23  39  63  90 127 169 208 257 320 387
#     4  11  24  42  67  97 127 161 211 272 326 382
#     4  11  25  43  61  88 130 172 213 262 316 380
#     4  12  25  42  66  93 128 166 220 265 320 383
#
# _framework density 20.479368000000001
#
# number of rings (size 3 to 8) (size 9 to 14) (size 15 to 20)
#    0.000    1.571    1.429    4.714    0.000    4.857 
#    0.000    2.143    0.000    4.714    0.000    0.000 
#    0.000    0.000    0.000    0.000    0.000    0.000 
#
# Total GULP energy -312521.084341 kJ/mol
# GULP energy per Si atom -5580.733649 kJ/mol
# Density = 2.043276 g / cm^3
# Si number density = 20.479368 Si / 1000 Ang^3
#
#
#
# Elastic Constant Matrix: (Units=GPa)
#
#
# Indices 1 2 3 4 5 6 
#
# 1 106.1264 31.6630 40.8940 0.0000 0.0000 0.0000
# 2 31.6630 170.4932 69.8862 0.0000 0.0000 0.0000
# 3 40.8940 69.8862 121.8079 0.0000 0.0000 0.0000
# 4 0.0000 0.0000 0.0000 -29.9124 0.0000 0.0000
# 5 0.0000 0.0000 0.0000 0.0000 8.7174 0.0000
# 6 0.0000 0.0000 0.0000 0.0000 0.0000 24.4679
#
#
#
# Elastic Compliance Matrix: (Units=1/GPa)
#
#
# Indices 1 2 3 4 5 6 
#
# 1 0.010884 -0.000684 -0.003261 0.000000 0.000000 0.000000
# 2 -0.000684 0.007712 -0.004195 0.000000 0.000000 0.000000
# 3 -0.003261 -0.004195 0.011711 0.000000 0.000000 0.000000
# 4 0.000000 0.000000 0.000000 -0.033431 0.000000 0.000000
# 5 0.000000 0.000000 0.000000 0.000000 0.114713 0.000000
# 6 0.000000 0.000000 0.000000 0.000000 0.000000 0.040870
#
#
# Mechanical properties :
#
#
# Convention : Reuss Voigt Hill
#
# Bulk Modulus (GPa) = 71.29731 75.92377 73.61054
# Shear Modulus (GPa) = 28.83255 17.72021 23.27638
#
# Velocity S-wave (km/s) = 3.75625 2.94474 3.37497
# Velocity P-wave (km/s) = 7.32819 6.97967 7.15605
#
# Compressibility (1/GPa) = 0.01402577
#
# Stress axis : x y z
#
# Youngs Moduli (GPa) = 91.88154 129.66875 85.38775
#
# Poissons Ratio (x) = 0.08875 0.27847
# Poissons Ratio (y) = 0.06289 0.35819
# Poissons Ratio (z) = 0.29964 0.54394
#
# Static dielectric constant tensor:
#      x y z
#    x 1.743560 0.000000 0.000000 
#    y 0.000000 1.797430 0.000000 
#    z 0.000000 0.000000 1.718790 
# 
# From -- ./inp_files/18601.got.cif
#   From: 2010.05.17/outbox.cif.g08.bks.cpg/sg67_10_cif.got.tgz:18601.got - 2010.06.03 18:28:57.
