data_PCOD9504446
_publ_section_title
;
Structure prediction by ZEFSAII (Michael W. Deem and Ramdas Pophale) SiO2 
 PCOD9504446
Probable space group: C M M A
;
_chemical_formula_sum "Si O2"
_cell_formula_units_Z 56
_cell_length_a 9.389211
_cell_length_b 13.622434
_cell_length_c 19.456481
_cell_angle_alpha 90.000000
_cell_angle_beta 90.000000
_cell_angle_gamma 90.000000
_cell_volume 2488.559939
_symmetry_space_group_name_H-M "C M M A"
_symmetry_group_IT_number 67
_symmetry_cell_setting 'orthorhombic'
loop_
_space_group_symop_operation_xyz
x,y,z
-x,1/2-y,z
x,-y,-z
-x,1/2+y,-z
-x,-y,-z
x,1/2+y,-z
-x,y,z
x,1/2-y,z
1/2+x,1/2+y,z
1/2-x,-y,z
1/2+x,1/2-y,-z
1/2-x,y,-z
1/2-x,1/2-y,-z
1/2+x,y,-z
1/2-x,1/2+y,z
1/2+x,-y,z
loop_
_atom_site_type_symbol
_atom_site_label
_atom_site_fract_x
_atom_site_fract_y
_atom_site_fract_z
Si Si1 0.344596 0.636181 0.195792
Si Si2 0.158280 0.631137 0.065711
Si Si3 0.831154 0.633015 0.571282
Si Si4 0.250000 0.500000 0.313061
O O1 0.500000 0.635554 0.162036
O O2 0.319240 0.750000 0.218779
O O3 0.230284 0.609209 0.138462
O O4 0.344925 0.560522 0.258627
O O5 0.151026 0.750000 0.063642
O O6 0.000000 0.590530 0.062539
O O7 0.250000 0.602788 0.000000
O O8 0.836218 0.750000 0.579299
O O9 0.750000 0.611635 0.500000
O O10 0.732442 0.586716 0.630947
O O11 0.000000 0.599301 0.573966
#
# Coordination Sequence:
#
# PCOD9504446 Si02
#       4
#    16  16  16   8
#     4  10  22  40  61  88 125 167 209 255 310 371
#     4   9  17  32  57  87 119 159 208 260 313 368
#     4  10  23  44  68  94 125 162 205 253 306 366
#     4  12  23  36  63  94 124 160 204 250 303 364
#
# _framework density 22.502973000000001
#
# number of rings (size 3 to 8) (size 9 to 14) (size 15 to 20)
#    0.000    2.000    0.000    3.000    0.000   11.429 
#    0.000    0.714    0.000   17.143    0.000    0.000 
#    0.000    0.000    0.000    0.000    0.000    0.000 
#
# Total GULP energy -155974.409190 kJ/mol
# GULP energy per Si atom -5570.514614 kJ/mol
# Density = 2.245176 g / cm^3
# Si number density = 22.502973 Si / 1000 Ang^3
#
#
#
# Elastic Constant Matrix: (Units=GPa)
#
#
# Indices 1 2 3 4 5 6 
#
# 1 121.8850 45.2973 72.3714 0.0000 0.0000 0.0000
# 2 45.2973 110.6980 30.4709 0.0000 0.0000 0.0000
# 3 72.3714 30.4709 153.6048 0.0000 0.0000 0.0000
# 4 0.0000 0.0000 0.0000 34.7541 0.0000 0.0000
# 5 0.0000 0.0000 0.0000 0.0000 -48.4948 0.0000
# 6 0.0000 0.0000 0.0000 0.0000 0.0000 -100.1424
#
#
#
# Elastic Compliance Matrix: (Units=1/GPa)
#
#
# Indices 1 2 3 4 5 6 
#
# 1 0.012716 -0.003760 -0.005246 0.000000 0.000000 0.000000
# 2 -0.003760 0.010667 -0.000345 0.000000 0.000000 0.000000
# 3 -0.005246 -0.000345 0.009050 0.000000 0.000000 0.000000
# 4 0.000000 0.000000 0.000000 0.028774 0.000000 0.000000
# 5 0.000000 0.000000 0.000000 0.000000 -0.020621 0.000000
# 6 0.000000 0.000000 0.000000 0.000000 0.000000 -0.009986
#
#
# Mechanical properties :
#
#
# Convention : Reuss Voigt Hill
#
# Bulk Modulus (GPa) = 72.81390 75.82966 74.32178
# Shear Modulus (GPa) = 92.80283 -6.90674 42.94804
#
# Velocity S-wave (km/s) = 6.42882 -1.75383 4.37343
# Velocity P-wave (km/s) = 9.35596 5.44698 7.65518
#
# Compressibility (1/GPa) = 0.01373364
#
# Stress axis : x y z
#
# Youngs Moduli (GPa) = 78.63934 93.74818 110.49685
#
# Poissons Ratio (x) = 0.35245 0.57961
# Poissons Ratio (y) = 0.29565 0.03809
# Poissons Ratio (z) = 0.41250 0.03231
#
# Static dielectric constant tensor:
#      x y z
#    x 1.856440 0.000000 0.000000 
#    y 0.000000 1.874880 0.000000 
#    z 0.000000 0.000000 1.788660 
# 
# From -- ./inp_files/36527.got.cif
#   From: 2010.05.17/outbox.cif.g08.bks.cpg/sg67_19_cif.got.tgz:36527.got - 2010.06.03 18:28:57.
