data_PCOD9504105
_publ_section_title
;
Structure prediction by ZEFSAII (Michael W. Deem and Ramdas Pophale) SiO2 
 PCOD9504105
Probable space group: C M M A
;
_chemical_formula_sum "Si O2"
_cell_formula_units_Z 112
_cell_length_a 29.205448
_cell_length_b 14.848350
_cell_length_c 11.870065
_cell_angle_alpha 90.000000
_cell_angle_beta 90.000000
_cell_angle_gamma 90.000000
_cell_volume 5147.485900
_symmetry_space_group_name_H-M "C M M A"
_symmetry_group_IT_number 67
_symmetry_cell_setting 'orthorhombic'
loop_
_space_group_symop_operation_xyz
x,y,z
-x,1/2-y,z
x,-y,-z
-x,1/2+y,-z
-x,-y,-z
x,1/2+y,-z
-x,y,z
x,1/2-y,z
1/2+x,1/2+y,z
1/2-x,-y,z
1/2+x,1/2-y,-z
1/2-x,y,-z
1/2-x,1/2-y,-z
1/2+x,y,-z
1/2-x,1/2+y,z
1/2+x,-y,z
loop_
_atom_site_type_symbol
_atom_site_label
_atom_site_fract_x
_atom_site_fract_y
_atom_site_fract_z
Si Si1 0.049492 0.414031 0.081934
Si Si2 0.650757 0.602140 0.047194
Si Si3 0.139437 0.145786 0.428718
Si Si4 0.450498 0.543880 0.343617
Si Si5 0.915973 0.348647 0.643993
Si Si6 0.342545 0.654223 0.804519
Si Si7 0.198069 0.965890 0.733865
O O1 0.098707 0.366231 0.070380
O O2 0.049551 0.450264 0.209070
O O3 0.000000 0.366685 0.064282
O O4 0.049813 0.500000 0.000000
O O5 0.682210 0.595911 0.158700
O O6 0.647770 0.500000 0.000000
O O7 0.668211 0.652492 0.936848
O O8 0.145008 0.250000 0.394998
O O9 0.092405 0.102770 0.381823
O O10 0.128572 0.144615 0.561804
O O11 0.179971 0.085644 0.376974
O O12 0.500000 0.577041 0.384107
O O13 0.443803 0.439276 0.375516
O O14 0.937009 0.250000 0.620125
O O15 0.896387 0.346931 0.771163
O O16 0.324280 0.750000 0.759326
O O17 0.327121 0.560319 0.753313
O O18 0.250000 0.000000 0.732163
#
# Coordination Sequence:
#
# PCOD9504105 Si02
#       7
#    16  16  16  16  16  16  16
#     4   9  16  29  55  87 121 161 202 245 303 375
#     4   9  17  34  57  85 120 155 197 250 314 373
#     4  11  24  42  63  90 130 173 218 269 323 383
#     4  11  21  37  64  95 128 169 216 265 322 385
#     4  10  21  39  63  91 129 172 213 261 316 377
#     4  10  21  38  63  92 123 163 211 263 320 385
#     4  11  23  41  66  92 122 164 212 265 327 394
#
# _framework density 21.758194
#
# number of rings (size 3 to 8) (size 9 to 14) (size 15 to 20)
#    0.000    1.857    2.857    2.143    0.000    5.429 
#    0.000    3.571    0.000    3.857    0.000    4.000 
#    0.000    0.000    0.000    0.000    0.000    0.000 
#
# Total GULP energy -311920.424545 kJ/mol
# GULP energy per Si atom -5570.007581 kJ/mol
# Density = 2.170867 g / cm^3
# Si number density = 21.758194 Si / 1000 Ang^3
#
#
#
# Elastic Constant Matrix: (Units=GPa)
#
#
# Indices 1 2 3 4 5 6 
#
# 1 98.1635 18.1658 7.0206 0.0000 0.0000 0.0000
# 2 18.1658 111.6226 8.6418 0.0000 0.0000 0.0000
# 3 7.0206 8.6418 70.0506 0.0000 0.0000 0.0000
# 4 0.0000 0.0000 0.0000 -10.8584 0.0000 0.0000
# 5 0.0000 0.0000 0.0000 0.0000 12.0762 0.0000
# 6 0.0000 0.0000 0.0000 0.0000 0.0000 -5.3587
#
#
#
# Elastic Compliance Matrix: (Units=1/GPa)
#
#
# Indices 1 2 3 4 5 6 
#
# 1 0.010554 -0.001651 -0.000854 0.000000 0.000000 0.000000
# 2 -0.001651 0.009304 -0.000982 0.000000 0.000000 0.000000
# 3 -0.000854 -0.000982 0.014482 0.000000 0.000000 0.000000
# 4 0.000000 0.000000 0.000000 -0.092094 0.000000 0.000000
# 5 0.000000 0.000000 0.000000 0.000000 0.082807 0.000000
# 6 0.000000 0.000000 0.000000 0.000000 0.000000 -0.186611
#
#
# Mechanical properties :
#
#
# Convention : Reuss Voigt Hill
#
# Bulk Modulus (GPa) = 36.54410 38.61033 37.57722
# Shear Modulus (GPa) = -34.37330 15.57238 -9.40046
#
# Velocity S-wave (km/s) = -3.97896 2.67816 -2.08082
# Velocity P-wave (km/s) = 2.06822 5.22945 3.39629
#
# Compressibility (1/GPa) = 0.02736420
#
# Stress axis : x y z
#
# Youngs Moduli (GPa) = 94.75281 107.48571 69.05049
#
# Poissons Ratio (x) = 0.17751 0.05897
# Poissons Ratio (y) = 0.15648 0.06782
# Poissons Ratio (z) = 0.08092 0.10558
#
# Static dielectric constant tensor:
#      x y z
#    x 1.915590 0.000000 0.000000 
#    y 0.000000 1.824770 0.000000 
#    z 0.000000 0.000000 1.864560 
# 
# From -- ./inp_files/23820.got.cif
#   From: 2010.05.17/outbox.cif.g08.bks.cpg/sg67_12_cif.got.tgz:23820.got - 2010.06.03 18:28:57.
