data_PCOD9504275
_publ_section_title
;
Structure prediction by ZEFSAII (Michael W. Deem and Ramdas Pophale) SiO2 
 PCOD9504275
Probable space group: C M M A
;
_chemical_formula_sum "Si O2"
_cell_formula_units_Z 52
_cell_length_a 8.753948
_cell_length_b 13.586869
_cell_length_c 16.835439
_cell_angle_alpha 90.000000
_cell_angle_beta 90.000000
_cell_angle_gamma 90.000000
_cell_volume 2002.385981
_symmetry_space_group_name_H-M "C M M A"
_symmetry_group_IT_number 67
_symmetry_cell_setting 'orthorhombic'
loop_
_space_group_symop_operation_xyz
x,y,z
-x,1/2-y,z
x,-y,-z
-x,1/2+y,-z
-x,-y,-z
x,1/2+y,-z
-x,y,z
x,1/2-y,z
1/2+x,1/2+y,z
1/2-x,-y,z
1/2+x,1/2-y,-z
1/2-x,y,-z
1/2-x,1/2-y,-z
1/2+x,y,-z
1/2-x,1/2+y,z
1/2+x,-y,z
loop_
_atom_site_type_symbol
_atom_site_label
_atom_site_fract_x
_atom_site_fract_y
_atom_site_fract_z
Si Si1 0.818547 0.869598 0.261935
Si Si2 0.000000 0.864644 0.662958
Si Si3 0.000000 0.362021 0.529402
Si Si4 0.330947 0.369035 0.081018
Si Si5 0.750000 0.000000 0.500000
O O1 0.823455 0.750000 0.272633
O O2 0.663704 0.904431 0.307068
O O3 0.776742 0.891069 0.169762
O O4 0.000000 0.898501 0.276592
O O5 0.000000 0.750000 0.688258
O O6 0.000000 0.863891 0.566846
O O7 0.145669 0.426229 0.550540
O O8 0.000000 0.250000 0.556115
O O9 0.500000 0.410489 0.077094
O O10 0.337078 0.250000 0.079447
O O11 0.250000 0.397115 0.000000
#
# Coordination Sequence:
#
# PCOD9504275 Si02
#       5
#    16   8   8  16   4
#     4   8  14  24  35  56  91 132 187 245 295 359
#     4   9  17  29  49  74 105 147 196 245 300 369
#     4  10  21  41  66  99 133 172 217 257 320 386
#     4   8  13  18  26  43  72 118 177 234 292 355
#     4  10  22  42  68  96 136 170 208 270 308 376
#
# _framework density 25.969017999999998
#
# number of rings (size 3 to 8) (size 9 to 14) (size 15 to 20)
#    0.000    3.385    0.000    2.308    2.154    0.000 
#    5.538    0.000    0.000    0.000    0.000    0.000 
#    0.000    0.000    0.000    4.154    0.615   10.154 
#
# Total GULP energy -145163.000608 kJ/mol
# GULP energy per Si atom -5583.192331 kJ/mol
# Density = 2.590991 g / cm^3
# Si number density = 25.969018 Si / 1000 Ang^3
#
#
#
# Elastic Constant Matrix: (Units=GPa)
#
#
# Indices 1 2 3 4 5 6 
#
# 1 197.6318 64.7423 115.8838 0.0000 0.0000 0.0000
# 2 64.7423 158.2959 -0.0109 0.0000 0.0000 0.0000
# 3 115.8838 -0.0109 182.4021 0.0000 0.0000 0.0000
# 4 0.0000 0.0000 0.0000 -33.2374 0.0000 0.0000
# 5 0.0000 0.0000 0.0000 0.0000 55.2904 0.0000
# 6 0.0000 0.0000 0.0000 0.0000 0.0000 42.2812
#
#
#
# Elastic Compliance Matrix: (Units=1/GPa)
#
#
# Indices 1 2 3 4 5 6 
#
# 1 0.010254 -0.004194 -0.006515 0.000000 0.000000 0.000000
# 2 -0.004194 0.008033 0.002665 0.000000 0.000000 0.000000
# 3 -0.006515 0.002665 0.009622 0.000000 0.000000 0.000000
# 4 0.000000 0.000000 0.000000 -0.030087 0.000000 0.000000
# 5 0.000000 0.000000 0.000000 0.000000 0.018086 0.000000
# 6 0.000000 0.000000 0.000000 0.000000 0.000000 0.023651
#
#
# Mechanical properties :
#
#
# Convention : Reuss Voigt Hill
#
# Bulk Modulus (GPa) = 84.59785 99.95112 92.27448
# Shear Modulus (GPa) = 83.91062 36.71449 60.31255
#
# Velocity S-wave (km/s) = 5.69052 3.76411 4.82444
# Velocity P-wave (km/s) = 8.70765 7.58047 8.16354
#
# Compressibility (1/GPa) = 0.01182063
#
# Stress axis : x y z
#
# Youngs Moduli (GPa) = 97.52352 124.48807 103.93356
#
# Poissons Ratio (x) = 0.52214 0.67710
# Poissons Ratio (y) = 0.40904 -0.27700
# Poissons Ratio (z) = 0.63534 -0.33178
#
# Static dielectric constant tensor:
#      x y z
#    x 2.142590 0.000000 0.000000 
#    y 0.000000 2.067750 0.000000 
#    z 0.000000 0.000000 2.062500 
# 
# From -- ./inp_files/36488.got.cif
#   From: 2010.05.17/outbox.cif.g08.bks.cpg/sg67_19_cif.got.tgz:36488.got - 2010.06.03 18:28:57.
