data_PCOD9504309
_publ_section_title
;
Structure prediction by ZEFSAII (Michael W. Deem and Ramdas Pophale) SiO2 
 PCOD9504309
Probable space group: C M M A
;
_chemical_formula_sum "Si O2"
_cell_formula_units_Z 104
_cell_length_a 15.097128
_cell_length_b 30.764294
_cell_length_c 13.424219
_cell_angle_alpha 90.000000
_cell_angle_beta 90.000000
_cell_angle_gamma 90.000000
_cell_volume 6234.911865
_symmetry_space_group_name_H-M "C M M A"
_symmetry_group_IT_number 67
_symmetry_cell_setting 'orthorhombic'
loop_
_space_group_symop_operation_xyz
x,y,z
-x,1/2-y,z
x,-y,-z
-x,1/2+y,-z
-x,-y,-z
x,1/2+y,-z
-x,y,z
x,1/2-y,z
1/2+x,1/2+y,z
1/2-x,-y,z
1/2+x,1/2-y,-z
1/2-x,y,-z
1/2-x,1/2-y,-z
1/2+x,y,-z
1/2-x,1/2+y,z
1/2+x,-y,z
loop_
_atom_site_type_symbol
_atom_site_label
_atom_site_fract_x
_atom_site_fract_y
_atom_site_fract_z
Si Si1 0.102750 0.994838 0.699888
Si Si2 0.761945 0.427119 0.687309
Si Si3 0.790664 0.618163 0.890267
Si Si4 0.396963 0.700431 0.432597
Si Si5 0.750000 0.635615 0.500000
Si Si6 0.599412 0.532612 0.075515
Si Si7 0.395688 0.799835 0.193027
O O1 0.169840 0.954889 0.675067
O O2 0.097143 0.991292 0.819113
O O3 0.000000 0.992405 0.662347
O O4 0.157060 0.038729 0.676665
O O5 0.763282 0.402148 0.794777
O O6 0.763244 0.393386 0.597633
O O7 0.858383 0.579044 0.910119
O O8 0.837224 0.662451 0.854766
O O9 0.750000 0.625711 0.000000
O O10 0.500000 0.693136 0.455791
O O11 0.374304 0.750000 0.460461
O O12 0.334351 0.666215 0.484166
O O13 0.387442 0.696912 0.312860
O O14 0.500000 0.540202 0.038294
O O15 0.646525 0.500000 0.000000
O O16 0.500000 0.806120 0.169277
O O17 0.371920 0.750000 0.165056
#
# Coordination Sequence:
#
# PCOD9504309 Si02
#       7
#    16  16  16  16   8  16  16
#     4   9  19  36  52  69 106 148 185 227 267 319
#     4  10  22  35  51  80 106 142 187 223 274 327
#     4  11  20  32  52  80 111 139 174 225 274 324
#     4   9  19  36  59  84 108 140 182 228 279 328
#     4  12  21  35  56  82 116 140 176 235 275 328
#     4   9  17  30  50  73  97 136 184 227 266 305
#     4   9  18  35  57  80 106 138 182 229 271 325
#
# _framework density 16.680267000000001
#
# number of rings (size 3 to 8) (size 9 to 14) (size 15 to 20)
#    0.000    2.308    1.538    2.538    0.000    4.923 
#    0.000    1.538    0.000    0.000    0.000    2.154 
#    0.000    0.000    0.000    0.000    0.000    0.000 
#
# Total GULP energy -289540.180015 kJ/mol
# GULP energy per Si atom -5568.080385 kJ/mol
# Density = 1.664230 g / cm^3
# Si number density = 16.680267 Si / 1000 Ang^3
#
#
#
# Elastic Constant Matrix: (Units=GPa)
#
#
# Indices 1 2 3 4 5 6 
#
# 1 93.6406 68.6589 41.9490 0.0000 0.0000 0.0000
# 2 68.6589 137.5686 62.2262 0.0000 0.0000 0.0000
# 3 41.9490 62.2262 74.0441 0.0000 0.0000 0.0000
# 4 0.0000 0.0000 0.0000 34.0567 0.0000 0.0000
# 5 0.0000 0.0000 0.0000 0.0000 23.7483 0.0000
# 6 0.0000 0.0000 0.0000 0.0000 0.0000 11.0593
#
#
#
# Elastic Compliance Matrix: (Units=1/GPa)
#
#
# Indices 1 2 3 4 5 6 
#
# 1 0.017609 -0.006898 -0.004179 0.000000 0.000000 0.000000
# 2 -0.006898 0.014429 -0.008218 0.000000 0.000000 0.000000
# 3 -0.004179 -0.008218 0.022780 0.000000 0.000000 0.000000
# 4 0.000000 0.000000 0.000000 0.029363 0.000000 0.000000
# 5 0.000000 0.000000 0.000000 0.000000 0.042108 0.000000
# 6 0.000000 0.000000 0.000000 0.000000 0.000000 0.090422
#
#
# Mechanical properties :
#
#
# Convention : Reuss Voigt Hill
#
# Bulk Modulus (GPa) = 61.62533 72.32462 66.97497
# Shear Modulus (GPa) = 19.17838 22.60081 20.88959
#
# Velocity S-wave (km/s) = 3.39450 3.68495 3.54270
# Velocity P-wave (km/s) = 7.23801 7.84593 7.54809
#
# Compressibility (1/GPa) = 0.01622709
#
# Stress axis : x y z
#
# Youngs Moduli (GPa) = 56.78868 69.30388 43.89911
#
# Poissons Ratio (x) = 0.47807 0.18346
# Poissons Ratio (y) = 0.39174 0.36077
# Poissons Ratio (z) = 0.23732 0.56955
#
# Static dielectric constant tensor:
#      x y z
#    x 1.590910 0.000000 0.000000 
#    y 0.000000 1.556820 0.000000 
#    z 0.000000 0.000000 1.564190 
# 
# From -- ./inp_files/18573.got.cif
#   From: 2010.05.17/outbox.cif.g08.bks.cpg/sg67_10_cif.got.tgz:18573.got - 2010.06.03 18:28:57.
