data_PCOD9504427
_publ_section_title
;
Structure prediction by ZEFSAII (Michael W. Deem and Ramdas Pophale) SiO2 
 PCOD9504427
Probable space group: C M M A
;
_chemical_formula_sum "Si O2"
_cell_formula_units_Z 88
_cell_length_a 28.656973
_cell_length_b 10.134536
_cell_length_c 16.112376
_cell_angle_alpha 90.000000
_cell_angle_beta 90.000000
_cell_angle_gamma 90.000000
_cell_volume 4679.438806
_symmetry_space_group_name_H-M "C M M A"
_symmetry_group_IT_number 67
_symmetry_cell_setting 'orthorhombic'
loop_
_space_group_symop_operation_xyz
x,y,z
-x,1/2-y,z
x,-y,-z
-x,1/2+y,-z
-x,-y,-z
x,1/2+y,-z
-x,y,z
x,1/2-y,z
1/2+x,1/2+y,z
1/2-x,-y,z
1/2+x,1/2-y,-z
1/2-x,y,-z
1/2-x,1/2-y,-z
1/2+x,y,-z
1/2-x,1/2+y,z
1/2+x,-y,z
loop_
_atom_site_type_symbol
_atom_site_label
_atom_site_fract_x
_atom_site_fract_y
_atom_site_fract_z
Si Si1 0.395994 0.404883 0.580034
Si Si2 0.500000 0.900227 0.424239
Si Si3 0.191521 0.250000 0.163177
Si Si4 0.154709 0.250000 0.986964
Si Si5 0.912836 0.500000 0.000000
Si Si6 0.300259 0.250000 0.197050
Si Si7 0.551596 0.591719 0.830275
Si Si8 0.646092 0.502580 0.254655
O O1 0.392632 0.500000 0.500000
O O2 0.389404 0.250000 0.558567
O O3 0.449211 0.416984 0.616344
O O4 0.360615 0.448396 0.651567
O O5 0.500000 0.750000 0.456482
O O6 0.500000 0.000000 0.500000
O O7 0.244688 0.250000 0.192761
O O8 0.164764 0.377870 0.198265
O O9 0.190394 0.250000 0.063425
O O10 0.178465 0.250000 0.896690
O O11 0.121385 0.124713 0.998380
O O12 0.943336 0.483784 0.917631
O O13 0.319567 0.120368 0.242532
O O14 0.500000 0.567031 0.794332
O O15 0.555548 0.750000 0.843985
O O16 0.595504 0.545785 0.776926
#
# Coordination Sequence:
#
# PCOD9504427 Si02
#       8
#    16   8   8   8   8   8  16  16
#     4  10  22  39  65  95 129 169 207 257 317 377
#     4   8  16  34  56  90 128 159 201 246 300 371
#     4  12  25  42  69  92 126 164 213 283 329 372
#     4  12  21  40  65  90 126 164 217 266 327 380
#     4  12  19  38  59  86 130 168 211 270 311 374
#     4  12  25  44  65  92 126 174 211 269 335 380
#     4  11  23  39  60  89 130 179 217 255 313 382
#     4  12  23  43  63  97 129 163 219 267 316 383
#
# _framework density 18.805674
#
# number of rings (size 3 to 8) (size 9 to 14) (size 15 to 20)
#    0.000    0.909    6.364    1.091    2.545    0.000 
#    0.000    4.091    0.000    3.273    0.000    0.000 
#    0.000    0.000    0.000    0.000    0.000    0.000 
#
# Total GULP energy -245634.359954 kJ/mol
# GULP energy per Si atom -5582.599090 kJ/mol
# Density = 1.876287 g / cm^3
# Si number density = 18.805674 Si / 1000 Ang^3
#
#
#
# Elastic Constant Matrix: (Units=GPa)
#
#
# Indices 1 2 3 4 5 6 
#
# 1 108.8286 37.7804 17.6143 0.0000 0.0000 0.0000
# 2 37.7804 115.0723 28.4083 0.0000 0.0000 0.0000
# 3 17.6143 28.4083 74.4805 0.0000 0.0000 0.0000
# 4 0.0000 0.0000 0.0000 25.3803 0.0000 0.0000
# 5 0.0000 0.0000 0.0000 0.0000 19.5645 0.0000
# 6 0.0000 0.0000 0.0000 0.0000 0.0000 3.0863
#
#
#
# Elastic Compliance Matrix: (Units=1/GPa)
#
#
# Indices 1 2 3 4 5 6 
#
# 1 0.010481 -0.003123 -0.001287 0.000000 0.000000 0.000000
# 2 -0.003123 0.010524 -0.003276 0.000000 0.000000 0.000000
# 3 -0.001287 -0.003276 0.014980 0.000000 0.000000 0.000000
# 4 0.000000 0.000000 0.000000 0.039401 0.000000 0.000000
# 5 0.000000 0.000000 0.000000 0.000000 0.051113 0.000000
# 6 0.000000 0.000000 0.000000 0.000000 0.000000 0.324007
#
#
# Mechanical properties :
#
#
# Convention : Reuss Voigt Hill
#
# Bulk Modulus (GPa) = 48.51280 51.77638 50.14459
# Shear Modulus (GPa) = 10.57640 23.91147 17.24394
#
# Velocity S-wave (km/s) = 2.37408 3.56968 3.03141
# Velocity P-wave (km/s) = 5.77650 6.67700 6.24300
#
# Compressibility (1/GPa) = 0.02061312
#
# Stress axis : x y z
#
# Youngs Moduli (GPa) = 95.40667 95.01824 66.75496
#
# Poissons Ratio (x) = 0.29678 0.08595
# Poissons Ratio (y) = 0.29799 0.21866
# Poissons Ratio (z) = 0.12283 0.31123
#
# Static dielectric constant tensor:
#      x y z
#    x 1.656760 0.000000 0.000000 
#    y 0.000000 1.632860 0.000000 
#    z 0.000000 0.000000 1.645700 
# 
# From -- ./inp_files/36234.got.cif
#   From: 2010.05.17/outbox.cif.g08.bks.cpg/sg67_19_cif.got.tgz:36234.got - 2010.06.03 18:28:57.
