data_PCOD9504772
_publ_section_title
;
Structure prediction by ZEFSAII (Michael W. Deem and Ramdas Pophale) SiO2 
 PCOD9504772
Probable space group: C M M A
;
_chemical_formula_sum "Si O2"
_cell_formula_units_Z 68
_cell_length_a 20.376072
_cell_length_b 14.355729
_cell_length_c 12.142511
_cell_angle_alpha 90.000000
_cell_angle_beta 90.000000
_cell_angle_gamma 90.000000
_cell_volume 3551.846785
_symmetry_space_group_name_H-M "C M M A"
_symmetry_group_IT_number 67
_symmetry_cell_setting 'orthorhombic'
loop_
_space_group_symop_operation_xyz
x,y,z
-x,1/2-y,z
x,-y,-z
-x,1/2+y,-z
-x,-y,-z
x,1/2+y,-z
-x,y,z
x,1/2-y,z
1/2+x,1/2+y,z
1/2-x,-y,z
1/2+x,1/2-y,-z
1/2-x,y,-z
1/2-x,1/2-y,-z
1/2+x,y,-z
1/2-x,1/2+y,z
1/2+x,-y,z
loop_
_atom_site_type_symbol
_atom_site_label
_atom_site_fract_x
_atom_site_fract_y
_atom_site_fract_z
Si Si1 0.695901 0.643755 0.674495
Si Si2 0.221163 0.396485 0.116626
Si Si3 0.573508 0.863232 0.066785
Si Si4 0.250000 0.500000 0.500000
Si Si5 0.428624 0.137007 0.187573
O O1 0.687379 0.750000 0.633079
O O2 0.749910 0.647048 0.772163
O O3 0.711760 0.570272 0.580384
O O4 0.630474 0.609412 0.735911
O O5 0.250000 0.500000 0.118439
O O6 0.250000 0.356206 0.000000
O O7 0.142207 0.394702 0.118689
O O8 0.500000 0.891400 0.106849
O O9 0.574383 0.750000 0.069886
O O10 0.578170 0.893466 0.938781
O O11 0.500000 0.108242 0.228800
O O12 0.427010 0.250000 0.183567
#
# Coordination Sequence:
#
# PCOD9504772 Si02
#       5
#    16  16  16   4  16
#     4  11  22  39  64  85 115 160 198 251 304 348
#     4  11  21  34  55  89 128 156 192 240 298 363
#     4   9  17  31  54  86 124 160 193 233 290 366
#     4  12  26  44  56  82 116 144 218 268 292 358
#     4   8  15  30  55  87 117 149 191 235 290 363
#
# _framework density 19.144969
#
# number of rings (size 3 to 8) (size 9 to 14) (size 15 to 20)
#    0.000    2.118    3.529    2.471    0.000    0.941 
#    0.000    4.118    0.000    1.412    0.000    3.294 
#    0.000    0.000    0.000    0.000    0.000    0.000 
#
# Total GULP energy -189663.023991 kJ/mol
# GULP energy per Si atom -5578.324235 kJ/mol
# Density = 1.910139 g / cm^3
# Si number density = 19.144969 Si / 1000 Ang^3
#
#
#
# Elastic Constant Matrix: (Units=GPa)
#
#
# Indices 1 2 3 4 5 6 
#
# 1 213.4572 36.6497 61.5862 0.0000 0.0000 0.0000
# 2 36.6497 87.0157 31.8413 0.0000 0.0000 0.0000
# 3 61.5862 31.8413 80.6606 0.0000 0.0000 0.0000
# 4 0.0000 0.0000 0.0000 -27.5828 0.0000 0.0000
# 5 0.0000 0.0000 0.0000 0.0000 13.9149 0.0000
# 6 0.0000 0.0000 0.0000 0.0000 0.0000 165.4368
#
#
#
# Elastic Compliance Matrix: (Units=1/GPa)
#
#
# Indices 1 2 3 4 5 6 
#
# 1 0.006083 -0.001008 -0.004247 0.000000 0.000000 0.000000
# 2 -0.001008 0.013600 -0.004599 0.000000 0.000000 0.000000
# 3 -0.004247 -0.004599 0.017455 0.000000 0.000000 0.000000
# 4 0.000000 0.000000 0.000000 -0.036255 0.000000 0.000000
# 5 0.000000 0.000000 0.000000 0.000000 0.071865 0.000000
# 6 0.000000 0.000000 0.000000 0.000000 0.000000 0.006045
#
#
# Mechanical properties :
#
#
# Convention : Reuss Voigt Hill
#
# Bulk Modulus (GPa) = 57.36899 71.25421 64.31160
# Shear Modulus (GPa) = 47.93368 47.09088 47.51228
#
# Velocity S-wave (km/s) = 5.00915 4.96492 4.98708
# Velocity P-wave (km/s) = 7.96781 8.37653 8.17473
#
# Compressibility (1/GPa) = 0.01743102
#
# Stress axis : x y z
#
# Youngs Moduli (GPa) = 164.38981 73.53156 57.28886
#
# Poissons Ratio (x) = 0.07413 0.24328
# Poissons Ratio (y) = 0.16573 0.26346
# Poissons Ratio (z) = 0.69810 0.33815
#
# Static dielectric constant tensor:
#      x y z
#    x 1.695740 0.000000 0.000000 
#    y 0.000000 1.770880 0.000000 
#    z 0.000000 0.000000 1.643930 
# 
# From -- ./inp_files/17701.got.cif
#   From: 2010.05.17/outbox.cif.g08.bks.cpg/sg67_9_cif.got.tgz:17701.got - 2010.06.03 18:28:57.
