data_PCOD9504998
_publ_section_title
;
Structure prediction by ZEFSAII (Michael W. Deem and Ramdas Pophale) SiO2 
 PCOD9504998
Probable space group: C M M A
;
_chemical_formula_sum "Si O2"
_cell_formula_units_Z 112
_cell_length_a 15.599227
_cell_length_b 15.816788
_cell_length_c 23.786163
_cell_angle_alpha 90.000000
_cell_angle_beta 90.000000
_cell_angle_gamma 90.000000
_cell_volume 5868.752062
_symmetry_space_group_name_H-M "C M M A"
_symmetry_group_IT_number 67
_symmetry_cell_setting 'orthorhombic'
loop_
_space_group_symop_operation_xyz
x,y,z
-x,1/2-y,z
x,-y,-z
-x,1/2+y,-z
-x,-y,-z
x,1/2+y,-z
-x,y,z
x,1/2-y,z
1/2+x,1/2+y,z
1/2-x,-y,z
1/2+x,1/2-y,-z
1/2-x,y,-z
1/2-x,1/2-y,-z
1/2+x,y,-z
1/2-x,1/2+y,z
1/2+x,-y,z
loop_
_atom_site_type_symbol
_atom_site_label
_atom_site_fract_x
_atom_site_fract_y
_atom_site_fract_z
Si Si1 0.902922 0.148180 0.063370
Si Si2 0.250000 0.897442 0.727369
Si Si3 0.901628 0.653123 0.645220
Si Si4 0.646584 0.500000 0.434823
Si Si5 0.250000 0.099949 0.144910
Si Si6 0.901628 0.346877 0.645220
Si Si7 0.902922 0.648180 0.063370
O O1 0.904903 0.250000 0.061519
O O2 0.833442 0.124046 0.109184
O O3 0.000000 0.118816 0.075695
O O4 0.879796 0.118919 1.000000
O O5 0.166412 0.865880 0.694105
O O6 0.250000 0.866146 0.791575
O O7 0.333588 0.865880 0.694105
O O8 0.250000 0.000000 0.725361
O O9 0.889023 0.750000 0.625501
O O10 0.885938 0.583458 0.597186
O O11 0.000000 0.645092 0.664866
O O12 0.621317 0.500000 0.500000
O O13 0.750000 0.500000 0.431243
O O14 0.614062 0.416542 0.402814
O O15 0.333442 0.124046 0.109184
O O16 0.250000 0.000000 0.150556
O O17 0.889023 0.250000 0.625501
O O18 0.000000 0.354908 0.664866
O O19 0.904903 0.750000 0.061519
O O20 0.000000 0.618816 0.075695
#
# Coordination Sequence:
#
# PCOD9504998 Si02
#       7
#    16  16  16  16  16  16  16
#     4   9  19  37  59  82 112 152 196 242 295 355
#     4  11  23  42  60  81 119 162 202 249 305 360
#     4  11  23  40  65  92 120 161 207 249 300 359
#     4  11  23  41  67  96 129 165 198 245 302 352
#     4  11  24  36  55  86 118 152 193 242 298 357
#     4  11  23  40  65  92 120 161 207 249 300 359
#     4   9  19  37  59  82 112 152 196 242 295 355
#
# _framework density 19.084125
#
# number of rings (size 3 to 8) (size 9 to 14) (size 15 to 20)
#    0.000    1.571    2.857    2.571    0.000    8.000 
#    0.000   10.000    0.000    0.000    0.000    0.000 
#    0.000    0.000    0.000    0.000    0.000    0.000 
#
# Total GULP energy -312771.617437 kJ/mol
# GULP energy per Si atom -5585.207454 kJ/mol
# Density = 1.904069 g / cm^3
# Si number density = 19.084125 Si / 1000 Ang^3
#
#
#
# Elastic Constant Matrix: (Units=GPa)
#
#
# Indices 1 2 3 4 5 6 
#
# 1 146.7789 51.1616 105.0381 0.0000 0.0000 0.0000
# 2 51.1616 104.3869 59.2375 0.0000 0.0000 0.0000
# 3 105.0381 59.2375 180.1451 0.0000 0.0000 0.0000
# 4 0.0000 0.0000 0.0000 106.8996 0.0000 0.0000
# 5 0.0000 0.0000 0.0000 0.0000 -14.9465 0.0000
# 6 0.0000 0.0000 0.0000 0.0000 0.0000 49.5536
#
#
#
# Elastic Compliance Matrix: (Units=1/GPa)
#
#
# Indices 1 2 3 4 5 6 
#
# 1 0.012154 -0.002379 -0.006304 0.000000 0.000000 0.000000
# 2 -0.002379 0.012243 -0.002639 0.000000 0.000000 0.000000
# 3 -0.006304 -0.002639 0.010095 0.000000 0.000000 0.000000
# 4 0.000000 0.000000 0.000000 0.009355 0.000000 0.000000
# 5 0.000000 0.000000 0.000000 0.000000 -0.066905 0.000000
# 6 0.000000 0.000000 0.000000 0.000000 0.000000 0.020180
#
#
# Mechanical properties :
#
#
# Convention : Reuss Voigt Hill
#
# Bulk Modulus (GPa) = 84.40714 95.79838 90.10276
# Shear Modulus (GPa) = 210.84575 42.69291 126.76933
#
# Velocity S-wave (km/s) = 10.52246 4.73492 8.15909
# Velocity P-wave (km/s) = 13.85476 8.95542 11.66521
#
# Compressibility (1/GPa) = 0.01184734
#
# Stress axis : x y z
#
# Youngs Moduli (GPa) = 82.27994 81.67758 99.06340
#
# Poissons Ratio (x) = 0.19433 0.62451
# Poissons Ratio (y) = 0.19576 0.26140
# Poissons Ratio (z) = 0.51870 0.21552
#
# Static dielectric constant tensor:
#      x y z
#    x 1.679110 0.000000 0.000000 
#    y 0.000000 1.676150 0.000000 
#    z 0.000000 0.000000 1.651830 
# 
# From -- ./inp_files/41971.got.cif
#   From: 2010.05.17/outbox.cif.g08.bks.cpg/sg67_21_cif.got.tgz:41971.got - 2010.06.03 18:28:57.
