data_PCOD9504231
_publ_section_title
;
Structure prediction by ZEFSAII (Michael W. Deem and Ramdas Pophale) SiO2 
 PCOD9504231
Probable space group: C M M A
;
_chemical_formula_sum "Si O2"
_cell_formula_units_Z 80
_cell_length_a 18.051304
_cell_length_b 30.691214
_cell_length_c 7.024096
_cell_angle_alpha 90.000000
_cell_angle_beta 90.000000
_cell_angle_gamma 90.000000
_cell_volume 3891.464618
_symmetry_space_group_name_H-M "C M M A"
_symmetry_group_IT_number 67
_symmetry_cell_setting 'orthorhombic'
loop_
_space_group_symop_operation_xyz
x,y,z
-x,1/2-y,z
x,-y,-z
-x,1/2+y,-z
-x,-y,-z
x,1/2+y,-z
-x,y,z
x,1/2-y,z
1/2+x,1/2+y,z
1/2-x,-y,z
1/2+x,1/2-y,-z
1/2-x,y,-z
1/2-x,1/2-y,-z
1/2+x,y,-z
1/2-x,1/2+y,z
1/2+x,-y,z
loop_
_atom_site_type_symbol
_atom_site_label
_atom_site_fract_x
_atom_site_fract_y
_atom_site_fract_z
Si Si1 0.086725 0.463926 0.270495
Si Si2 0.167607 0.799887 0.411978
Si Si3 0.086940 0.943047 0.183831
Si Si4 0.332221 0.360654 0.070492
Si Si5 0.088606 0.630650 0.674212
O O1 0.115326 0.513392 0.290075
O O2 0.116307 0.419313 0.362414
O O3 0.000000 0.467079 0.320937
O O4 0.089246 0.454013 0.042994
O O5 0.142112 0.750000 0.423036
O O6 0.250000 0.802267 0.500000
O O7 0.170191 0.817486 0.197024
O O8 0.117856 0.833259 0.530966
O O9 0.134966 0.899806 0.198025
O O10 0.000000 0.935310 0.230791
O O11 0.250000 0.371832 0.000000
O O12 0.383109 0.356760 0.884583
O O13 0.000000 0.628935 0.672571
#
# Coordination Sequence:
#
# PCOD9504231 Si02
#       5
#    16  16  16  16  16
#     4   7  12  27  53  83 118 159 196 230 286 358
#     4  11  25  44  64  85 117 161 206 257 319 376
#     4   8  14  28  53  86 120 156 198 238 285 353
#     4  11  21  37  63  92 122 161 208 250 304 372
#     4  10  21  40  65  93 125 160 203 256 306 364
#
# _framework density 20.557811999999998
#
# number of rings (size 3 to 8) (size 9 to 14) (size 15 to 20)
#    0.000    2.600    2.000    3.000    0.000    3.200 
#    0.000    9.000    0.000    4.800    0.000    0.000 
#    0.000    0.000    0.000    0.000    0.000    0.000 
#
# Total GULP energy -223231.497851 kJ/mol
# GULP energy per Si atom -5580.787446 kJ/mol
# Density = 2.051102 g / cm^3
# Si number density = 20.557812 Si / 1000 Ang^3
#
#
#
# Elastic Constant Matrix: (Units=GPa)
#
#
# Indices 1 2 3 4 5 6 
#
# 1 60.6873 55.5275 23.9730 0.0000 0.0000 0.0000
# 2 55.5275 182.6137 54.9292 0.0000 0.0000 0.0000
# 3 23.9730 54.9292 82.3638 0.0000 0.0000 0.0000
# 4 0.0000 0.0000 0.0000 35.4289 0.0000 0.0000
# 5 0.0000 0.0000 0.0000 0.0000 8.9155 0.0000
# 6 0.0000 0.0000 0.0000 0.0000 0.0000 22.9585
#
#
#
# Elastic Compliance Matrix: (Units=1/GPa)
#
#
# Indices 1 2 3 4 5 6 
#
# 1 0.023256 -0.006299 -0.002568 0.000000 0.000000 0.000000
# 2 -0.006299 0.008556 -0.003873 0.000000 0.000000 0.000000
# 3 -0.002568 -0.003873 0.015472 0.000000 0.000000 0.000000
# 4 0.000000 0.000000 0.000000 0.028226 0.000000 0.000000
# 5 0.000000 0.000000 0.000000 0.000000 0.112164 0.000000
# 6 0.000000 0.000000 0.000000 0.000000 0.000000 0.043557
#
#
# Mechanical properties :
#
#
# Convention : Reuss Voigt Hill
#
# Bulk Modulus (GPa) = 45.86342 66.05826 55.96084
# Shear Modulus (GPa) = 18.94098 26.20958 22.57528
#
# Velocity S-wave (km/s) = 3.03867 3.57448 3.31741
# Velocity P-wave (km/s) = 5.88806 7.01702 6.47718
#
# Compressibility (1/GPa) = 0.02180387
#
# Stress axis : x y z
#
# Youngs Moduli (GPa) = 43.00009 116.87280 64.63453
#
# Poissons Ratio (x) = 0.73617 0.16599
# Poissons Ratio (y) = 0.27085 0.25032
# Poissons Ratio (z) = 0.11043 0.45264
#
# Static dielectric constant tensor:
#      x y z
#    x 1.687000 0.000000 0.000000 
#    y 0.000000 1.751260 0.000000 
#    z 0.000000 0.000000 1.781140 
# 
# From -- ./inp_files/10127.got.cif
#   From: 2010.05.17/outbox.cif.g08.bks.cpg/sg67_6_cif.got.tgz:10127.got - 2010.06.03 18:28:57.
