data_PCOD9504108
_publ_section_title
;
Structure prediction by ZEFSAII (Michael W. Deem and Ramdas Pophale) SiO2 
 PCOD9504108
Probable space group: C M M A
;
_chemical_formula_sum "Si O2"
_cell_formula_units_Z 68
_cell_length_a 21.588340
_cell_length_b 8.324776
_cell_length_c 16.858524
_cell_angle_alpha 90.000000
_cell_angle_beta 90.000000
_cell_angle_gamma 90.000000
_cell_volume 3029.781813
_symmetry_space_group_name_H-M "C M M A"
_symmetry_group_IT_number 67
_symmetry_cell_setting 'orthorhombic'
loop_
_space_group_symop_operation_xyz
x,y,z
-x,1/2-y,z
x,-y,-z
-x,1/2+y,-z
-x,-y,-z
x,1/2+y,-z
-x,y,z
x,1/2-y,z
1/2+x,1/2+y,z
1/2-x,-y,z
1/2+x,1/2-y,-z
1/2-x,y,-z
1/2-x,1/2-y,-z
1/2+x,y,-z
1/2-x,1/2+y,z
1/2+x,-y,z
loop_
_atom_site_type_symbol
_atom_site_label
_atom_site_fract_x
_atom_site_fract_y
_atom_site_fract_z
Si Si1 0.889535 0.565148 0.911706
Si Si2 0.184942 0.561916 0.221873
Si Si3 0.637283 0.443362 0.392529
Si Si4 0.500000 0.438269 0.195124
Si Si5 0.000000 0.446639 0.624762
Si Si6 0.750000 0.500000 0.500000
O O1 0.905961 0.750000 0.917338
O O2 0.830144 0.536810 0.856929
O O3 0.941762 0.480651 0.859157
O O4 0.883482 0.500000 0.000000
O O5 0.185088 0.750000 0.202314
O O6 0.250000 0.500000 0.252360
O O7 0.140564 0.539430 0.297274
O O8 0.647073 0.250000 0.409388
O O9 0.566641 0.493043 0.412350
O O10 0.694443 0.536963 0.434306
O O11 0.500000 0.250000 0.208071
O O12 0.500000 0.508983 0.283764
O O13 0.000000 0.250000 0.624161
#
# Coordination Sequence:
#
# PCOD9504108 Si02
#       6
#    16  16  16   8   8   4
#     4  12  25  41  62  95 133 174 222 279 332 395
#     4  11  22  41  65  93 126 172 223 276 338 404
#     4  10  21  38  63  94 129 172 222 273 335 405
#     4  11  20  38  66  94 126 174 224 276 334 398
#     4   9  18  37  65  92 125 173 224 271 329 396
#     4  12  22  38  64 102 134 174 214 276 338 410
#
# _framework density 22.443860999999998
#
# number of rings (size 3 to 8) (size 9 to 14) (size 15 to 20)
#    0.000    1.176    3.529    3.882    0.000    0.941 
#    0.000    2.353    0.000    0.000    0.000    0.000 
#    0.000    0.000    0.000    0.000    0.000    0.000 
#
# Total GULP energy -189395.658157 kJ/mol
# GULP energy per Si atom -5570.460534 kJ/mol
# Density = 2.239278 g / cm^3
# Si number density = 22.443861 Si / 1000 Ang^3
#
#
#
# Elastic Constant Matrix: (Units=GPa)
#
#
# Indices 1 2 3 4 5 6 
#
# 1 148.5779 -0.0194 27.9568 0.0000 0.0000 0.0000
# 2 -0.0194 27.9397 14.9277 0.0000 0.0000 0.0000
# 3 27.9568 14.9277 159.5460 0.0000 0.0000 0.0000
# 4 0.0000 0.0000 0.0000 -10.3129 0.0000 0.0000
# 5 0.0000 0.0000 0.0000 0.0000 25.2455 0.0000
# 6 0.0000 0.0000 0.0000 0.0000 0.0000 17.0385
#
#
#
# Elastic Compliance Matrix: (Units=1/GPa)
#
#
# Indices 1 2 3 4 5 6 
#
# 1 0.006973 0.000692 -0.001287 0.000000 0.000000 0.000000
# 2 0.000692 0.037743 -0.003653 0.000000 0.000000 0.000000
# 3 -0.001287 -0.003653 0.006835 0.000000 0.000000 0.000000
# 4 0.000000 0.000000 0.000000 -0.096966 0.000000 0.000000
# 5 0.000000 0.000000 0.000000 0.000000 0.039611 0.000000
# 6 0.000000 0.000000 0.000000 0.000000 0.000000 0.058691
#
#
# Mechanical properties :
#
#
# Convention : Reuss Voigt Hill
#
# Bulk Modulus (GPa) = 23.22505 46.86598 35.04551
# Shear Modulus (GPa) = 66.02117 25.94080 45.98098
#
# Velocity S-wave (km/s) = 5.42955 3.40341 4.53118
# Velocity P-wave (km/s) = 7.04820 6.03084 6.55928
#
# Compressibility (1/GPa) = 0.04305695
#
# Stress axis : x y z
#
# Youngs Moduli (GPa) = 143.41754 26.49470 146.30602
#
# Poissons Ratio (x) = -0.01834 0.18823
# Poissons Ratio (y) = -0.09928 0.53441
# Poissons Ratio (z) = 0.18452 0.09678
#
# Static dielectric constant tensor:
#      x y z
#    x 1.927560 0.000000 0.000000 
#    y 0.000000 1.824190 0.000000 
#    z 0.000000 0.000000 1.922770 
# 
# From -- ./inp_files/34740.got.cif
#   From: 2010.05.17/outbox.cif.g08.bks.cpg/sg67_18_cif.got.tgz:34740.got - 2010.06.03 18:28:57.
