data_PCOD9504805
_publ_section_title
;
Structure prediction by ZEFSAII (Michael W. Deem and Ramdas Pophale) SiO2 
 PCOD9504805
Probable space group: C M M A
;
_chemical_formula_sum "Si O2"
_cell_formula_units_Z 80
_cell_length_a 17.049898
_cell_length_b 9.556113
_cell_length_c 25.373652
_cell_angle_alpha 90.000000
_cell_angle_beta 90.000000
_cell_angle_gamma 90.000000
_cell_volume 4134.148199
_symmetry_space_group_name_H-M "C M M A"
_symmetry_group_IT_number 67
_symmetry_cell_setting 'orthorhombic'
loop_
_space_group_symop_operation_xyz
x,y,z
-x,1/2-y,z
x,-y,-z
-x,1/2+y,-z
-x,-y,-z
x,1/2+y,-z
-x,y,z
x,1/2-y,z
1/2+x,1/2+y,z
1/2-x,-y,z
1/2+x,1/2-y,-z
1/2-x,y,-z
1/2-x,1/2-y,-z
1/2+x,y,-z
1/2-x,1/2+y,z
1/2+x,-y,z
loop_
_atom_site_type_symbol
_atom_site_label
_atom_site_fract_x
_atom_site_fract_y
_atom_site_fract_z
Si Si1 0.594400 0.087407 0.645866
Si Si2 0.175818 0.250000 0.938109
Si Si3 0.408845 0.984271 0.876330
Si Si4 0.364284 0.250000 0.943343
Si Si5 0.904770 0.911138 0.763772
Si Si6 0.334315 0.921492 0.551310
O O1 0.500000 0.091184 0.645945
O O2 0.620282 0.250000 0.634962
O O3 0.621088 0.046798 0.705109
O O4 0.621559 0.975064 0.603180
O O5 0.148179 0.380382 0.905026
O O6 0.269472 0.250000 0.940841
O O7 0.128188 0.250000 0.993443
O O8 0.500000 0.938883 0.875681
O O9 0.401182 0.121437 0.912102
O O10 0.382083 0.006994 0.816052
O O11 0.881001 0.750000 0.771084
O O12 0.000000 0.913415 0.763277
O O13 0.329945 0.750000 0.546478
O O14 0.370986 0.000000 0.500000
O O15 0.250000 0.000000 0.555433
#
# Coordination Sequence:
#
# PCOD9504805 Si02
#       6
#    16   8  16   8  16  16
#     4   9  18  35  60  86 114 150 192 235 283 344
#     4  11  25  39  53  83 121 149 182 239 310 345
#     4  11  21  37  62  87 109 145 198 245 286 344
#     4  11  23  41  59  75 113 161 190 227 292 377
#     4   8  15  32  58  84 110 145 186 228 280 338
#     4  11  22  38  59  83 116 156 197 240 290 340
#
# _framework density 19.351023999999999
#
# number of rings (size 3 to 8) (size 9 to 14) (size 15 to 20)
#    0.000    2.000    1.000    5.400    0.000    4.800 
#    1.800    2.000    0.000    0.000    0.000    0.000 
#    0.000    0.000    0.000    0.000    0.000    0.000 
#
# Total GULP energy -222826.777359 kJ/mol
# GULP energy per Si atom -5570.669434 kJ/mol
# Density = 1.930698 g / cm^3
# Si number density = 19.351024 Si / 1000 Ang^3
#
#
#
# Elastic Constant Matrix: (Units=GPa)
#
#
# Indices 1 2 3 4 5 6 
#
# 1 19.4156 7.8911 19.3203 0.0000 0.0000 0.0000
# 2 7.8911 108.7652 58.2823 0.0000 0.0000 0.0000
# 3 19.3203 58.2823 163.5943 0.0000 0.0000 0.0000
# 4 0.0000 0.0000 0.0000 81.8299 0.0000 0.0000
# 5 0.0000 0.0000 0.0000 0.0000 106.4889 0.0000
# 6 0.0000 0.0000 0.0000 0.0000 0.0000 2.0753
#
#
#
# Elastic Compliance Matrix: (Units=1/GPa)
#
#
# Indices 1 2 3 4 5 6 
#
# 1 0.058403 -0.000669 -0.006659 0.000000 0.000000 0.000000
# 2 -0.000669 0.011371 -0.003972 0.000000 0.000000 0.000000
# 3 -0.006659 -0.003972 0.008314 0.000000 0.000000 0.000000
# 4 0.000000 0.000000 0.000000 0.012220 0.000000 0.000000
# 5 0.000000 0.000000 0.000000 0.000000 0.009391 0.000000
# 6 0.000000 0.000000 0.000000 0.000000 0.000000 0.481851
#
#
# Mechanical properties :
#
#
# Convention : Reuss Voigt Hill
#
# Bulk Modulus (GPa) = 18.02182 51.41805 34.71994
# Shear Modulus (GPa) = 8.03024 51.83092 29.93058
#
# Velocity S-wave (km/s) = 2.03931 5.18100 3.93710
# Velocity P-wave (km/s) = 3.85725 7.90058 6.21682
#
# Compressibility (1/GPa) = 0.05548828
#
# Stress axis : x y z
#
# Youngs Moduli (GPa) = 17.12239 87.94210 120.27611
#
# Poissons Ratio (x) = 0.05883 0.80092
# Poissons Ratio (y) = 0.01145 0.47775
# Poissons Ratio (z) = 0.11402 0.34931
#
# Static dielectric constant tensor:
#      x y z
#    x 1.689870 0.000000 0.000000 
#    y 0.000000 1.198840 0.000000 
#    z 0.000000 0.000000 1.714800 
# 
# From -- ./inp_files/44454.got.cif
#   From: 2010.05.17/outbox.cif.g08.bks.cpg/sg67_23_cif.got.tgz:44454.got - 2010.06.03 18:28:57.
