data_PCOD9504804
_publ_section_title
;
Structure prediction by ZEFSAII (Michael W. Deem and Ramdas Pophale) SiO2 
 PCOD9504804
Probable space group: C M M A
;
_chemical_formula_sum "Si O2"
_cell_formula_units_Z 112
_cell_length_a 29.531820
_cell_length_b 18.620988
_cell_length_c 11.378931
_cell_angle_alpha 90.000000
_cell_angle_beta 90.000000
_cell_angle_gamma 90.000000
_cell_volume 6257.406902
_symmetry_space_group_name_H-M "C M M A"
_symmetry_group_IT_number 67
_symmetry_cell_setting 'orthorhombic'
loop_
_space_group_symop_operation_xyz
x,y,z
-x,1/2-y,z
x,-y,-z
-x,1/2+y,-z
-x,-y,-z
x,1/2+y,-z
-x,y,z
x,1/2-y,z
1/2+x,1/2+y,z
1/2-x,-y,z
1/2+x,1/2-y,-z
1/2-x,y,-z
1/2-x,1/2-y,-z
1/2+x,y,-z
1/2-x,1/2+y,z
1/2+x,-y,z
loop_
_atom_site_type_symbol
_atom_site_label
_atom_site_fract_x
_atom_site_fract_y
_atom_site_fract_z
Si Si1 0.053260 0.453159 0.120089
Si Si2 0.370470 0.666031 0.422135
Si Si3 0.143693 0.382984 0.166004
Si Si4 0.552819 0.949191 0.389233
Si Si5 0.299345 0.470880 0.177370
Si Si6 0.698003 0.827250 0.960022
Si Si7 0.799415 0.924112 0.445629
O O1 0.091539 0.391927 0.125908
O O2 0.059752 0.482460 0.256612
O O3 0.000000 0.432129 0.113898
O O4 0.061270 0.500000 0.000000
O O5 0.378154 0.750000 0.437848
O O6 0.348940 0.648663 0.295116
O O7 0.416257 0.619967 0.411042
O O8 0.336494 0.634420 0.519637
O O9 0.166099 0.462851 0.165288
O O10 0.168534 0.332018 0.076118
O O11 0.500000 0.930572 0.394738
O O12 0.563015 0.000000 0.500000
O O13 0.250000 0.500000 0.139913
O O14 0.313357 0.400342 0.106998
O O15 0.294602 0.442017 0.309527
O O16 0.691124 0.750000 0.898744
O O17 0.750000 0.831284 0.000000
O O18 0.750000 0.906978 0.500000
O O19 0.814972 0.000000 0.500000
#
# Coordination Sequence:
#
# PCOD9504804 Si02
#       7
#    16  16  16  16  16  16  16
#     4   9  18  33  56  88 114 141 188 240 285 334
#     4  11  23  37  58  85 116 150 186 235 295 350
#     4  11  21  37  59  83 112 153 189 235 285 342
#     4   9  19  36  60  88 118 150 190 240 291 346
#     4  12  21  36  60  80 108 150 201 235 280 343
#     4  11  24  37  53  81 118 148 182 235 291 345
#     4  11  21  38  56  80 107 147 194 240 276 332
#
# _framework density 17.898789000000001
#
# number of rings (size 3 to 8) (size 9 to 14) (size 15 to 20)
#    0.000    1.429    4.286    2.143    2.000    1.143 
#    0.000    0.000    0.000    1.286    0.000    0.000 
#    0.000    6.857    0.000    0.000    0.000    0.000 
#
# Total GULP energy -311977.551738 kJ/mol
# GULP energy per Si atom -5571.027710 kJ/mol
# Density = 1.785805 g / cm^3
# Si number density = 17.898789 Si / 1000 Ang^3
#
#
#
# Elastic Constant Matrix: (Units=GPa)
#
#
# Indices 1 2 3 4 5 6 
#
# 1 62.3478 26.7332 23.0361 0.0000 0.0000 0.0000
# 2 26.7332 109.4049 40.9595 0.0000 0.0000 0.0000
# 3 23.0361 40.9595 88.8750 0.0000 0.0000 0.0000
# 4 0.0000 0.0000 0.0000 0.9954 0.0000 0.0000
# 5 0.0000 0.0000 0.0000 0.0000 26.6705 0.0000
# 6 0.0000 0.0000 0.0000 0.0000 0.0000 10.5941
#
#
#
# Elastic Compliance Matrix: (Units=1/GPa)
#
#
# Indices 1 2 3 4 5 6 
#
# 1 0.018689 -0.003327 -0.003311 0.000000 0.000000 0.000000
# 2 -0.003327 0.011639 -0.004501 0.000000 0.000000 0.000000
# 3 -0.003311 -0.004501 0.014184 0.000000 0.000000 0.000000
# 4 0.000000 0.000000 0.000000 1.004636 0.000000 0.000000
# 5 0.000000 0.000000 0.000000 0.000000 0.037495 0.000000
# 6 0.000000 0.000000 0.000000 0.000000 0.000000 0.094392
#
#
# Mechanical properties :
#
#
# Convention : Reuss Voigt Hill
#
# Bulk Modulus (GPa) = 44.97761 49.12059 47.04910
# Shear Modulus (GPa) = 4.12976 18.97861 11.55418
#
# Velocity S-wave (km/s) = 1.52062 3.25980 2.54348
# Velocity P-wave (km/s) = 5.31662 6.45535 5.91346
#
# Compressibility (1/GPa) = 0.02223328
#
# Stress axis : x y z
#
# Youngs Moduli (GPa) = 53.50769 85.92071 70.49975
#
# Poissons Ratio (x) = 0.28587 0.23340
# Poissons Ratio (y) = 0.17803 0.31735
# Poissons Ratio (z) = 0.17715 0.38677
#
# Static dielectric constant tensor:
#      x y z
#    x 1.616390 0.000000 0.000000 
#    y 0.000000 1.595500 0.000000 
#    z 0.000000 0.000000 1.636650 
# 
# From -- ./inp_files/18611.got.cif
#   From: 2010.05.17/outbox.cif.g08.bks.cpg/sg67_10_cif.got.tgz:18611.got - 2010.06.03 18:28:57.
