data_PCOD9504794
_publ_section_title
;
Structure prediction by ZEFSAII (Michael W. Deem and Ramdas Pophale) SiO2 
 PCOD9504794
Probable space group: C M M A
;
_chemical_formula_sum "Si O2"
_cell_formula_units_Z 80
_cell_length_a 10.026028
_cell_length_b 15.393041
_cell_length_c 25.192520
_cell_angle_alpha 90.000000
_cell_angle_beta 90.000000
_cell_angle_gamma 90.000000
_cell_volume 3887.988317
_symmetry_space_group_name_H-M "C M M A"
_symmetry_group_IT_number 67
_symmetry_cell_setting 'orthorhombic'
loop_
_space_group_symop_operation_xyz
x,y,z
-x,1/2-y,z
x,-y,-z
-x,1/2+y,-z
-x,-y,-z
x,1/2+y,-z
-x,y,z
x,1/2-y,z
1/2+x,1/2+y,z
1/2-x,-y,z
1/2+x,1/2-y,-z
1/2-x,y,-z
1/2-x,1/2-y,-z
1/2+x,y,-z
1/2-x,1/2+y,z
1/2+x,-y,z
loop_
_atom_site_type_symbol
_atom_site_label
_atom_site_fract_x
_atom_site_fract_y
_atom_site_fract_z
Si Si1 0.345768 0.355958 0.264143
Si Si2 0.261024 0.849186 0.373788
Si Si3 0.655231 0.143746 0.950853
Si Si4 0.154828 0.356106 0.855337
Si Si5 0.000000 0.621950 0.442577
Si Si6 0.500000 0.415884 0.558683
O O1 0.500000 0.380413 0.272064
O O2 0.341685 0.250000 0.265045
O O3 0.264321 0.386434 0.315074
O O4 0.307578 0.382834 0.204647
O O5 0.305607 0.750000 0.367052
O O6 0.126978 0.849678 0.408716
O O7 0.370328 0.897203 0.407284
O O8 0.500000 0.114995 0.953872
O O9 0.651245 0.250000 0.951072
O O10 0.735686 0.115936 0.898159
O O11 0.750000 0.117796 0.000000
O O12 0.153230 0.250000 0.856387
O O13 0.000000 0.382238 0.866475
O O14 0.000000 0.642955 0.505299
O O15 0.000000 0.518620 0.447745
#
# Coordination Sequence:
#
# PCOD9504794 Si02
#       6
#    16  16  16  16   8   8
#     4   8  14  27  46  67  90 120 160 203 251 308
#     4  11  21  36  58  82 105 134 177 224 264 311
#     4   9  15  21  29  45  71 107 153 198 239 287
#     4   8  13  22  36  52  74 107 148 195 243 290
#     4  11  23  41  59  73 105 147 178 203 260 338
#     4  11  25  39  53  81 111 137 168 219 272 316
#
# _framework density 20.576194000000001
#
# number of rings (size 3 to 8) (size 9 to 14) (size 15 to 20)
#    0.000    2.600    1.000    3.600    0.000    6.400 
#    1.800    0.000    0.000    0.000    0.000    0.000 
#    0.000    0.000    0.000    0.000    0.000    6.000 
#
# Total GULP energy -223077.350600 kJ/mol
# GULP energy per Si atom -5576.933765 kJ/mol
# Density = 2.052936 g / cm^3
# Si number density = 20.576194 Si / 1000 Ang^3
#
#
#
# Elastic Constant Matrix: (Units=GPa)
#
#
# Indices 1 2 3 4 5 6 
#
# 1 136.4577 0.5628 86.6582 0.0000 0.0000 0.0000
# 2 0.5628 30.5385 1.6560 0.0000 0.0000 0.0000
# 3 86.6582 1.6560 178.4402 0.0000 0.0000 0.0000
# 4 0.0000 0.0000 0.0000 71.6224 0.0000 0.0000
# 5 0.0000 0.0000 0.0000 0.0000 70.7791 0.0000
# 6 0.0000 0.0000 0.0000 0.0000 0.0000 10.2899
#
#
#
# Elastic Compliance Matrix: (Units=1/GPa)
#
#
# Indices 1 2 3 4 5 6 
#
# 1 0.010596 0.000084 -0.005147 0.000000 0.000000 0.000000
# 2 0.000084 0.032763 -0.000345 0.000000 0.000000 0.000000
# 3 -0.005147 -0.000345 0.008107 0.000000 0.000000 0.000000
# 4 0.000000 0.000000 0.000000 0.013962 0.000000 0.000000
# 5 0.000000 0.000000 0.000000 0.000000 0.014128 0.000000
# 6 0.000000 0.000000 0.000000 0.000000 0.000000 0.097183
#
#
# Mechanical properties :
#
#
# Convention : Reuss Voigt Hill
#
# Bulk Modulus (GPa) = 24.60004 58.13229 41.36616
# Shear Modulus (GPa) = 24.86257 47.64224 36.25241
#
# Velocity S-wave (km/s) = 3.47986 4.81709 4.20201
# Velocity P-wave (km/s) = 5.30353 7.69757 6.60984
#
# Compressibility (1/GPa) = 0.04065034
#
# Stress axis : x y z
#
# Youngs Moduli (GPa) = 94.37083 30.52256 123.35222
#
# Poissons Ratio (x) = -0.00256 0.63488
# Poissons Ratio (y) = -0.00791 0.04252
# Poissons Ratio (z) = 0.48572 0.01052
#
# Static dielectric constant tensor:
#      x y z
#    x 1.681190 0.000000 0.000000 
#    y 0.000000 1.771670 0.000000 
#    z 0.000000 0.000000 1.772650 
# 
# From -- ./inp_files/43362.got.cif
#   From: 2010.05.17/outbox.cif.g08.bks.cpg/sg67_22_cif.got.tgz:43362.got - 2010.06.03 18:28:57.
