data_PCOD9504354
_publ_section_title
;
Structure prediction by ZEFSAII (Michael W. Deem and Ramdas Pophale) SiO2 
 PCOD9504354
Probable space group: C M M A
;
_chemical_formula_sum "Si O2"
_cell_formula_units_Z 52
_cell_length_a 18.593162
_cell_length_b 24.011432
_cell_length_c 6.707399
_cell_angle_alpha 90.000000
_cell_angle_beta 90.000000
_cell_angle_gamma 90.000000
_cell_volume 2994.507854
_symmetry_space_group_name_H-M "C M M A"
_symmetry_group_IT_number 67
_symmetry_cell_setting 'orthorhombic'
loop_
_space_group_symop_operation_xyz
x,y,z
-x,1/2-y,z
x,-y,-z
-x,1/2+y,-z
-x,-y,-z
x,1/2+y,-z
-x,y,z
x,1/2-y,z
1/2+x,1/2+y,z
1/2-x,-y,z
1/2+x,1/2-y,-z
1/2-x,y,-z
1/2-x,1/2-y,-z
1/2+x,y,-z
1/2-x,1/2+y,z
1/2+x,-y,z
loop_
_atom_site_type_symbol
_atom_site_label
_atom_site_fract_x
_atom_site_fract_y
_atom_site_fract_z
Si Si1 0.821211 0.554957 0.375254
Si Si2 0.335336 0.750000 0.978412
Si Si3 0.750000 0.000000 0.000000
Si Si4 0.422246 0.750000 0.366493
Si Si5 0.583328 0.339729 0.289481
O O1 0.845291 0.500000 0.500000
O O2 0.750000 0.574464 0.500000
O O3 0.880110 0.602159 0.346129
O O4 0.796597 0.536345 0.154261
O O5 0.368572 0.803941 0.865322
O O6 0.250000 0.750000 0.000000
O O7 0.362817 0.750000 0.202267
O O8 0.500000 0.750000 0.263369
O O9 0.417741 0.802662 0.511062
O O10 0.500000 0.344934 0.221186
#
# Coordination Sequence:
#
# PCOD9504354 Si02
#       5
#    16   8   4   8  16
#     4   9  20  36  57  81 111 147 194 236 284 343
#     4  11  24  34  57  89 112 150 191 234 280 346
#     4   8  18  36  54  80 112 148 180 248 288 324
#     4   9  20  39  56  77 116 153 177 226 291 333
#     4  10  22  38  57  83 118 149 189 241 285 344
#
# _framework density 17.365123000000001
#
# number of rings (size 3 to 8) (size 9 to 14) (size 15 to 20)
#    0.000    2.769    0.000    2.308    6.462    4.308 
#    0.000    0.769    0.000    0.000    0.000    0.000 
#    0.000    0.000    0.000    0.000    0.000    0.000 
#
# Total GULP energy -144854.775881 kJ/mol
# GULP energy per Si atom -5571.337534 kJ/mol
# Density = 1.732560 g / cm^3
# Si number density = 17.365123 Si / 1000 Ang^3
#
#
#
# Elastic Constant Matrix: (Units=GPa)
#
#
# Indices 1 2 3 4 5 6 
#
# 1 163.4465 77.7541 56.2003 0.0000 0.0000 0.0000
# 2 77.7541 125.3686 34.1675 0.0000 0.0000 0.0000
# 3 56.2003 34.1675 96.1605 0.0000 0.0000 0.0000
# 4 0.0000 0.0000 0.0000 -1.7119 0.0000 0.0000
# 5 0.0000 0.0000 0.0000 0.0000 22.2206 0.0000
# 6 0.0000 0.0000 0.0000 0.0000 0.0000-2021.6768
#
#
#
# Elastic Compliance Matrix: (Units=1/GPa)
#
#
# Indices 1 2 3 4 5 6 
#
# 1 0.009890 -0.005047 -0.003987 0.000000 0.000000 0.000000
# 2 -0.005047 0.011408 -0.001103 0.000000 0.000000 0.000000
# 3 -0.003987 -0.001103 0.013121 0.000000 0.000000 0.000000
# 4 0.000000 0.000000 0.000000 -0.584138 0.000000 0.000000
# 5 0.000000 0.000000 0.000000 0.000000 0.045003 0.000000
# 6 0.000000 0.000000 0.000000 0.000000 0.000000 -0.000495
#
#
# Mechanical properties :
#
#
# Convention : Reuss Voigt Hill
#
# Bulk Modulus (GPa) = 70.70155 80.13550 75.41853
# Shear Modulus (GPa) = -10.41188 -385.77670 -198.09429
#
# Velocity S-wave (km/s) = -2.45130 -14.92107 -10.69222
# Velocity P-wave (km/s) = 5.72636 15.83046 10.43581
#
# Compressibility (1/GPa) = 0.01414396
#
# Stress axis : x y z
#
# Youngs Moduli (GPa) = 101.11038 87.66084 76.21135
#
# Poissons Ratio (x) = 0.44246 0.30384
# Poissons Ratio (y) = 0.51034 0.08409
# Poissons Ratio (z) = 0.40311 0.09673
#
# Static dielectric constant tensor:
#      x y z
#    x 1.431860 0.000000 0.000000 
#    y 0.000000 1.603250 0.000000 
#    z 0.000000 0.000000 1.563590 
# 
# From -- ./inp_files/2001.got.cif
#   From: 2010.05.17/outbox.cif.g08.bks.cpg/sg67_2_cif.got.tgz:2001.got - 2010.06.03 18:28:57.
