data_PCOD9504941
_publ_section_title
;
Structure prediction by ZEFSAII (Michael W. Deem and Ramdas Pophale) SiO2 
 PCOD9504941
Probable space group: C M M A
;
_chemical_formula_sum "Si O2"
_cell_formula_units_Z 80
_cell_length_a 18.495400
_cell_length_b 16.919423
_cell_length_c 11.995626
_cell_angle_alpha 90.000000
_cell_angle_beta 90.000000
_cell_angle_gamma 90.000000
_cell_volume 3753.809191
_symmetry_space_group_name_H-M "C M M A"
_symmetry_group_IT_number 67
_symmetry_cell_setting 'orthorhombic'
loop_
_space_group_symop_operation_xyz
x,y,z
-x,1/2-y,z
x,-y,-z
-x,1/2+y,-z
-x,-y,-z
x,1/2+y,-z
-x,y,z
x,1/2-y,z
1/2+x,1/2+y,z
1/2-x,-y,z
1/2+x,1/2-y,-z
1/2-x,y,-z
1/2-x,1/2-y,-z
1/2+x,y,-z
1/2-x,1/2+y,z
1/2+x,-y,z
loop_
_atom_site_type_symbol
_atom_site_label
_atom_site_fract_x
_atom_site_fract_y
_atom_site_fract_z
Si Si1 0.500000 0.750000 0.842450
Si Si2 0.912484 0.071542 0.088255
Si Si3 0.872586 0.750000 0.706068
Si Si4 0.000000 0.250000 0.468609
Si Si5 0.606311 0.750000 0.047260
Si Si6 0.640660 0.981667 0.690013
Si Si7 0.000000 0.117462 0.652943
Si Si8 0.771988 0.117182 0.377436
O O1 0.500000 0.673578 0.762865
O O2 0.565394 0.750000 0.929801
O O3 0.873158 0.153740 0.050076
O O4 0.000000 0.088857 0.101232
O O5 0.879082 0.032079 0.199612
O O6 0.907265 0.000000 0.000000
O O7 0.915224 0.750000 0.821783
O O8 0.817732 0.821719 0.692718
O O9 0.929485 0.750000 0.607219
O O10 0.000000 0.325718 0.547508
O O11 0.569515 0.937195 0.653861
O O12 0.704361 0.916070 0.693216
O O13 0.673254 0.044867 0.604821
O O14 0.750000 0.147497 0.500000
#
# Coordination Sequence:
#
# PCOD9504941 Si02
#       8
#     4  16   8   4   8  16   8  16
#     4  11  23  40  70 102 139 189 228 288 372 443
#     4  11  22  40  70 103 141 185 232 300 368 425
#     4  12  25  46  71 101 142 183 233 306 362 428
#     4  11  27  40  66 110 135 179 238 308 364 423
#     4  12  22  40  67 107 136 177 246 287 355 441
#     4  11  22  41  67  99 129 184 233 288 354 426
#     4  11  24  44  68 101 144 179 242 304 353 430
#     4  11  25  45  67  94 137 192 235 283 367 445
#
# _framework density 21.311686000000002
#
# number of rings (size 3 to 8) (size 9 to 14) (size 15 to 20)
#    0.000    0.800    4.000    4.200    0.000    2.400 
#    0.000    6.000    0.000    2.400    0.000    0.000 
#    0.000    0.000    0.000    0.000    0.000    0.000 
#
# Total GULP energy -222728.480758 kJ/mol
# GULP energy per Si atom -5568.212019 kJ/mol
# Density = 2.126318 g / cm^3
# Si number density = 21.311686 Si / 1000 Ang^3
#
#
#
# Elastic Constant Matrix: (Units=GPa)
#
#
# Indices 1 2 3 4 5 6 
#
# 1 104.2265 60.8684 15.4523 0.0000 0.0000 0.0000
# 2 60.8684 131.7558 15.0369 0.0000 0.0000 0.0000
# 3 15.4523 15.0369 82.3864 0.0000 0.0000 0.0000
# 4 0.0000 0.0000 0.0000 -124.2426 0.0000 0.0000
# 5 0.0000 0.0000 0.0000 0.0000 15.9223 0.0000
# 6 0.0000 0.0000 0.0000 0.0000 0.0000 25.5767
#
#
#
# Elastic Compliance Matrix: (Units=1/GPa)
#
#
# Indices 1 2 3 4 5 6 
#
# 1 0.013296 -0.005983 -0.001402 0.000000 0.000000 0.000000
# 2 -0.005983 0.010443 -0.000784 0.000000 0.000000 0.000000
# 3 -0.001402 -0.000784 0.012544 0.000000 0.000000 0.000000
# 4 0.000000 0.000000 0.000000 -0.008049 0.000000 0.000000
# 5 0.000000 0.000000 0.000000 0.000000 0.062805 0.000000
# 6 0.000000 0.000000 0.000000 0.000000 0.000000 0.039098
#
#
# Mechanical properties :
#
#
# Convention : Reuss Voigt Hill
#
# Bulk Modulus (GPa) = 50.13443 55.67601 52.90522
# Shear Modulus (GPa) = 32.65345 -1.41466 15.61940
#
# Velocity S-wave (km/s) = 3.91856 -0.81562 2.71015
# Velocity P-wave (km/s) = 6.63694 5.02935 5.88826
#
# Compressibility (1/GPa) = 0.01994637
#
# Stress axis : x y z
#
# Youngs Moduli (GPa) = 75.20976 95.75715 79.71965
#
# Poissons Ratio (x) = 0.57287 0.11176
# Poissons Ratio (y) = 0.44995 0.06250
# Poissons Ratio (z) = 0.10544 0.07507
#
# Static dielectric constant tensor:
#      x y z
#    x 1.824170 0.000000 0.000000 
#    y 0.000000 1.882820 0.000000 
#    z 0.000000 0.000000 1.749480 
# 
# From -- ./inp_files/20618.got.cif
#   From: 2010.05.17/outbox.cif.g08.bks.cpg/sg67_11_cif.got.tgz:20618.got - 2010.06.03 18:28:57.
