data_PCOD9504192
_publ_section_title
;
Structure prediction by ZEFSAII (Michael W. Deem and Ramdas Pophale) SiO2 
 PCOD9504192
Probable space group: C M M A
;
_chemical_formula_sum "Si O2"
_cell_formula_units_Z 96
_cell_length_a 16.246876
_cell_length_b 21.409068
_cell_length_c 14.251558
_cell_angle_alpha 90.000000
_cell_angle_beta 90.000000
_cell_angle_gamma 90.000000
_cell_volume 4957.126161
_symmetry_space_group_name_H-M "C M M A"
_symmetry_group_IT_number 67
_symmetry_cell_setting 'orthorhombic'
loop_
_space_group_symop_operation_xyz
x,y,z
-x,1/2-y,z
x,-y,-z
-x,1/2+y,-z
-x,-y,-z
x,1/2+y,-z
-x,y,z
x,1/2-y,z
1/2+x,1/2+y,z
1/2-x,-y,z
1/2+x,1/2-y,-z
1/2-x,y,-z
1/2-x,1/2-y,-z
1/2+x,y,-z
1/2-x,1/2+y,z
1/2+x,-y,z
loop_
_atom_site_type_symbol
_atom_site_label
_atom_site_fract_x
_atom_site_fract_y
_atom_site_fract_z
Si Si1 0.736725 0.423350 0.390295
Si Si2 0.595383 0.681588 0.068348
Si Si3 0.647298 0.858778 0.869491
Si Si4 0.820781 0.905071 0.793175
Si Si5 0.597904 0.178583 0.329556
Si Si6 0.592942 0.007719 0.106476
O O1 0.750000 0.500000 0.378706
O O2 0.750000 0.411845 0.500000
O O3 0.804388 0.397522 0.316626
O O4 0.654365 0.381206 0.364137
O O5 0.500000 0.678928 0.040780
O O6 0.616616 0.750000 0.103905
O O7 0.611499 0.635076 0.153067
O O8 0.644587 0.669665 0.972734
O O9 0.737539 0.883871 0.844448
O O10 0.615446 0.819225 0.782231
O O11 0.591092 0.919793 0.873433
O O12 0.847440 0.974771 0.820146
O O13 0.500000 0.167820 0.346098
O O14 0.617984 0.250000 0.365560
O O15 0.500000 0.982270 0.109401
O O16 0.624576 0.000000 0.000000
#
# Coordination Sequence:
#
# PCOD9504192 Si02
#       6
#    16  16  16  16  16  16
#     4  10  23  45  68  93 122 159 211 269 327 382
#     4  11  23  37  52  77 117 158 195 235 287 361
#     4  11  21  34  56  84 118 161 205 246 293 359
#     4  11  22  36  57  84 113 153 197 249 302 358
#     4  10  21  39  65  96 129 167 213 265 322 383
#     4  11  21  33  53  82 121 162 201 245 302 366
#
# _framework density 19.366060000000001
#
# number of rings (size 3 to 8) (size 9 to 14) (size 15 to 20)
#    0.000    1.333    1.667    5.500    0.000    6.333 
#    0.000    4.167    0.000    2.000    0.000    0.000 
#    0.000    0.000    0.000    0.000    0.000    0.000 
#
# Total GULP energy -267297.760002 kJ/mol
# GULP energy per Si atom -5568.703333 kJ/mol
# Density = 1.932198 g / cm^3
# Si number density = 19.366060 Si / 1000 Ang^3
#
#
#
# Elastic Constant Matrix: (Units=GPa)
#
#
# Indices 1 2 3 4 5 6 
#
# 1 60.6516 29.6648 25.5992 0.0000 0.0000 0.0000
# 2 29.6648 109.7713 21.5499 0.0000 0.0000 0.0000
# 3 25.5992 21.5499 121.3290 0.0000 0.0000 0.0000
# 4 0.0000 0.0000 0.0000 8.2779 0.0000 0.0000
# 5 0.0000 0.0000 0.0000 0.0000 73.5735 0.0000
# 6 0.0000 0.0000 0.0000 0.0000 0.0000 23.8420
#
#
#
# Elastic Compliance Matrix: (Units=1/GPa)
#
#
# Indices 1 2 3 4 5 6 
#
# 1 0.020286 -0.004810 -0.003426 0.000000 0.000000 0.000000
# 2 -0.004810 0.010579 -0.000864 0.000000 0.000000 0.000000
# 3 -0.003426 -0.000864 0.009118 0.000000 0.000000 0.000000
# 4 0.000000 0.000000 0.000000 0.120804 0.000000 0.000000
# 5 0.000000 0.000000 0.000000 0.000000 0.013592 0.000000
# 6 0.000000 0.000000 0.000000 0.000000 0.000000 0.041943
#
#
# Mechanical properties :
#
#
# Convention : Reuss Voigt Hill
#
# Bulk Modulus (GPa) = 45.90489 49.48663 47.69576
# Shear Modulus (GPa) = 20.67968 35.46786 28.07377
#
# Velocity S-wave (km/s) = 3.27131 4.28418 3.81154
# Velocity P-wave (km/s) = 6.16635 7.07679 6.63720
#
# Compressibility (1/GPa) = 0.02178417
#
# Stress axis : x y z
#
# Youngs Moduli (GPa) = 49.29528 94.52463 109.66850
#
# Poissons Ratio (x) = 0.45462 0.37571
# Poissons Ratio (y) = 0.23709 0.09478
# Poissons Ratio (z) = 0.16888 0.08169
#
# Static dielectric constant tensor:
#      x y z
#    x 1.721010 0.000000 0.000000 
#    y 0.000000 1.748970 0.000000 
#    z 0.000000 0.000000 1.658810 
# 
# From -- ./inp_files/27229.got.cif
#   From: 2010.05.17/outbox.cif.g08.bks.cpg/sg67_14_cif.got.tgz:27229.got - 2010.06.03 18:28:57.
