data_PCOD9504464
_publ_section_title
;
Structure prediction by ZEFSAII (Michael W. Deem and Ramdas Pophale) SiO2 
 PCOD9504464
Probable space group: C M M A
;
_chemical_formula_sum "Si O2"
_cell_formula_units_Z 68
_cell_length_a 20.263701
_cell_length_b 18.844480
_cell_length_c 8.957052
_cell_angle_alpha 90.000000
_cell_angle_beta 90.000000
_cell_angle_gamma 90.000000
_cell_volume 3420.330098
_symmetry_space_group_name_H-M "C M M A"
_symmetry_group_IT_number 67
_symmetry_cell_setting 'orthorhombic'
loop_
_space_group_symop_operation_xyz
x,y,z
-x,1/2-y,z
x,-y,-z
-x,1/2+y,-z
-x,-y,-z
x,1/2+y,-z
-x,y,z
x,1/2-y,z
1/2+x,1/2+y,z
1/2-x,-y,z
1/2+x,1/2-y,-z
1/2-x,y,-z
1/2-x,1/2-y,-z
1/2+x,y,-z
1/2-x,1/2+y,z
1/2+x,-y,z
loop_
_atom_site_type_symbol
_atom_site_label
_atom_site_fract_x
_atom_site_fract_y
_atom_site_fract_z
Si Si1 0.250000 0.500000 0.500000
Si Si2 0.500000 0.091561 0.340702
Si Si3 0.127309 0.834572 0.198409
Si Si4 0.264903 0.866455 0.339859
Si Si5 0.890224 0.669996 0.845589
Si Si6 0.000000 0.074697 0.303443
O O1 0.288092 0.445223 0.606447
O O2 0.435041 0.131145 0.280677
O O3 0.500000 0.090689 0.520031
O O4 0.500000 0.010038 0.285948
O O5 0.130394 0.750000 0.228517
O O6 0.195473 0.868757 0.254874
O O7 0.119303 0.843743 0.020963
O O8 0.250000 0.830590 0.500000
O O9 0.320331 0.832817 0.238636
O O10 0.917468 0.750000 0.828803
O O11 0.937510 0.612188 0.772678
#
# Coordination Sequence:
#
# PCOD9504464 Si02
#       6
#     4   8  16  16  16   8
#     4   8  24  40  60  94 136 160 200 266 304 360
#     4  11  26  43  64  90 126 165 210 257 308 372
#     4  11  24  42  64  94 128 162 206 260 311 367
#     4  10  22  40  66  90 128 162 206 250 311 363
#     4  11  24  42  64  94 128 162 206 260 311 367
#     4  11  26  43  64  90 126 165 210 257 308 372
#
# _framework density 19.881122000000001
#
# number of rings (size 3 to 8) (size 9 to 14) (size 15 to 20)
#    0.706    0.706    0.000    4.235    3.294   11.294 
#    0.000    1.176    0.000    0.000    0.000    0.000 
#    0.000    0.000    0.000    0.000    0.000    0.000 
#
# Total GULP energy -189831.628651 kJ/mol
# GULP energy per Si atom -5583.283196 kJ/mol
# Density = 1.983587 g / cm^3
# Si number density = 19.881122 Si / 1000 Ang^3
#
#
#
# Elastic Constant Matrix: (Units=GPa)
#
#
# Indices 1 2 3 4 5 6 
#
# 1 129.8999 32.7299 41.3143 0.0000 0.0000 0.0000
# 2 32.7299 108.7486 55.6854 0.0000 0.0000 0.0000
# 3 41.3143 55.6854 95.2117 0.0000 0.0000 0.0000
# 4 0.0000 0.0000 0.0000 29.8284 0.0000 0.0000
# 5 0.0000 0.0000 0.0000 0.0000 31.8101 0.0000
# 6 0.0000 0.0000 0.0000 0.0000 0.0000 17.3081
#
#
#
# Elastic Compliance Matrix: (Units=1/GPa)
#
#
# Indices 1 2 3 4 5 6 
#
# 1 0.009008 -0.001013 -0.003316 0.000000 0.000000 0.000000
# 2 -0.001013 0.013241 -0.007304 0.000000 0.000000 0.000000
# 3 -0.003316 -0.007304 0.016214 0.000000 0.000000 0.000000
# 4 0.000000 0.000000 0.000000 0.033525 0.000000 0.000000
# 5 0.000000 0.000000 0.000000 0.000000 0.031437 0.000000
# 6 0.000000 0.000000 0.000000 0.000000 0.000000 0.057776
#
#
# Mechanical properties :
#
#
# Convention : Reuss Voigt Hill
#
# Bulk Modulus (GPa) = 65.80955 65.92437 65.86696
# Shear Modulus (GPa) = 26.38055 29.39802 27.88929
#
# Velocity S-wave (km/s) = 3.64664 3.84955 3.74946
# Velocity P-wave (km/s) = 7.13470 7.27942 7.20742
#
# Compressibility (1/GPa) = 0.01519536
#
# Stress axis : x y z
#
# Youngs Moduli (GPa) = 111.00936 75.52504 61.67527
#
# Poissons Ratio (x) = 0.07651 0.20454
# Poissons Ratio (y) = 0.11245 0.45050
# Poissons Ratio (z) = 0.36815 0.55166
#
# Static dielectric constant tensor:
#      x y z
#    x 1.663240 0.000000 0.000000 
#    y 0.000000 1.722020 0.000000 
#    z 0.000000 0.000000 1.670250 
# 
# From -- ./inp_files/9489.got.cif
#   From: 2010.05.17/outbox.cif.g08.bks.cpg/sg67_5_cif.got.tgz:9489.got - 2010.06.03 18:28:57.
