data_PCOD9504358
_publ_section_title
;
Structure prediction by ZEFSAII (Michael W. Deem and Ramdas Pophale) SiO2 
 PCOD9504358
Probable space group: C M M A
;
_chemical_formula_sum "Si O2"
_cell_formula_units_Z 96
_cell_length_a 20.278190
_cell_length_b 17.082171
_cell_length_c 15.210076
_cell_angle_alpha 90.000000
_cell_angle_beta 90.000000
_cell_angle_gamma 90.000000
_cell_volume 5268.702020
_symmetry_space_group_name_H-M "C M M A"
_symmetry_group_IT_number 67
_symmetry_cell_setting 'orthorhombic'
loop_
_space_group_symop_operation_xyz
x,y,z
-x,1/2-y,z
x,-y,-z
-x,1/2+y,-z
-x,-y,-z
x,1/2+y,-z
-x,y,z
x,1/2-y,z
1/2+x,1/2+y,z
1/2-x,-y,z
1/2+x,1/2-y,-z
1/2-x,y,-z
1/2-x,1/2-y,-z
1/2+x,y,-z
1/2-x,1/2+y,z
1/2+x,-y,z
loop_
_atom_site_type_symbol
_atom_site_label
_atom_site_fract_x
_atom_site_fract_y
_atom_site_fract_z
Si Si1 0.927335 0.343195 0.894354
Si Si2 0.176669 0.342908 0.039180
Si Si3 0.200323 0.340858 0.377550
Si Si4 0.683335 0.050973 0.789817
Si Si5 0.647431 0.341927 0.439115
Si Si6 0.922530 0.929088 0.282594
O O1 0.928337 0.250000 0.902576
O O2 0.914950 0.363152 0.792977
O O3 0.000000 0.374702 0.916989
O O4 0.872505 0.370788 0.962298
O O5 0.164706 0.250000 0.059687
O O6 0.169872 0.398026 0.123524
O O7 0.250000 0.347934 0.000000
O O8 0.185068 0.250000 0.361406
O O9 0.194427 0.390568 0.290843
O O10 0.276708 0.345024 0.406715
O O11 0.153883 0.367085 0.458831
O O12 0.750000 0.000000 0.802459
O O13 0.622793 0.997361 0.757494
O O14 0.626911 0.250000 0.435329
O O15 0.604712 0.395429 0.374561
O O16 0.000000 0.949176 0.289663
#
# Coordination Sequence:
#
# PCOD9504358 Si02
#       6
#    16  16  16  16  16  16
#     4   9  19  37  59  81 109 149 194 236 284 343
#     4  10  22  38  58  83 111 147 196 250 294 333
#     4   9  19  37  61  85 109 145 194 238 280 334
#     4  12  23  37  56  84 118 157 190 234 291 354
#     4   9  18  36  61  86 111 145 191 239 281 335
#     4  11  23  37  56  88 123 154 187 236 295 347
#
# _framework density 18.220806
#
# number of rings (size 3 to 8) (size 9 to 14) (size 15 to 20)
#    0.000    2.000    1.667    3.000    0.000    4.667 
#    0.000    3.333    0.000    2.500    0.000    0.000 
#    0.000    0.000    0.000    0.000    0.000    0.000 
#
# Total GULP energy -267716.981852 kJ/mol
# GULP energy per Si atom -5577.437122 kJ/mol
# Density = 1.817933 g / cm^3
# Si number density = 18.220806 Si / 1000 Ang^3
#
#
#
# Elastic Constant Matrix: (Units=GPa)
#
#
# Indices 1 2 3 4 5 6 
#
# 1 59.4996 13.2209 5.3745 0.0000 0.0000 0.0000
# 2 13.2209 20.9245 4.8850 0.0000 0.0000 0.0000
# 3 5.3745 4.8850 47.5097 0.0000 0.0000 0.0000
# 4 0.0000 0.0000 0.0000 21.2719 0.0000 0.0000
# 5 0.0000 0.0000 0.0000 0.0000 31.5561 0.0000
# 6 0.0000 0.0000 0.0000 0.0000 0.0000 8.5156
#
#
#
# Elastic Compliance Matrix: (Units=1/GPa)
#
#
# Indices 1 2 3 4 5 6 
#
# 1 0.019595 -0.012155 -0.000967 0.000000 0.000000 0.000000
# 2 -0.012155 0.056506 -0.004435 0.000000 0.000000 0.000000
# 3 -0.000967 -0.004435 0.021614 0.000000 0.000000 0.000000
# 4 0.000000 0.000000 0.000000 0.047010 0.000000 0.000000
# 5 0.000000 0.000000 0.000000 0.000000 0.031690 0.000000
# 6 0.000000 0.000000 0.000000 0.000000 0.000000 0.117432
#
#
# Mechanical properties :
#
#
# Convention : Reuss Voigt Hill
#
# Bulk Modulus (GPa) = 15.97419 19.43273 17.70346
# Shear Modulus (GPa) = 14.29274 19.23227 16.76251
#
# Velocity S-wave (km/s) = 2.80379 3.25239 3.03638
# Velocity P-wave (km/s) = 4.38949 4.97919 4.69361
#
# Compressibility (1/GPa) = 0.06260098
#
# Stress axis : x y z
#
# Youngs Moduli (GPa) = 51.03331 17.69714 46.26684
#
# Poissons Ratio (x) = 0.21511 0.04473
# Poissons Ratio (y) = 0.62032 0.20520
# Poissons Ratio (z) = 0.04934 0.07849
#
# Static dielectric constant tensor:
#      x y z
#    x 1.649090 0.000000 0.000000 
#    y 0.000000 1.652060 0.000000 
#    z 0.000000 0.000000 1.615810 
# 
# From -- ./inp_files/27219.got.cif
#   From: 2010.05.17/outbox.cif.g08.bks.cpg/sg67_14_cif.got.tgz:27219.got - 2010.06.03 18:28:57.
