data_PCOD9504203
_publ_section_title
;
Structure prediction by ZEFSAII (Michael W. Deem and Ramdas Pophale) SiO2 
 PCOD9504203
Probable space group: C M M A
;
_chemical_formula_sum "Si O2"
_cell_formula_units_Z 88
_cell_length_a 14.561504
_cell_length_b 16.341815
_cell_length_c 14.224833
_cell_angle_alpha 90.000000
_cell_angle_beta 90.000000
_cell_angle_gamma 90.000000
_cell_volume 3384.961239
_symmetry_space_group_name_H-M "C M M A"
_symmetry_group_IT_number 67
_symmetry_cell_setting 'orthorhombic'
loop_
_space_group_symop_operation_xyz
x,y,z
-x,1/2-y,z
x,-y,-z
-x,1/2+y,-z
-x,-y,-z
x,1/2+y,-z
-x,y,z
x,1/2-y,z
1/2+x,1/2+y,z
1/2-x,-y,z
1/2+x,1/2-y,-z
1/2-x,y,-z
1/2-x,1/2-y,-z
1/2+x,y,-z
1/2-x,1/2+y,z
1/2+x,-y,z
loop_
_atom_site_type_symbol
_atom_site_label
_atom_site_fract_x
_atom_site_fract_y
_atom_site_fract_z
Si Si1 0.891215 0.250000 0.904311
Si Si2 0.825493 0.655461 0.803293
Si Si3 0.250000 0.000000 0.267802
Si Si4 0.893953 0.250000 0.680152
Si Si5 0.894543 0.908043 0.992931
Si Si6 0.390072 0.840602 0.411879
Si Si7 0.388760 0.422386 0.402182
O O1 0.891506 0.250000 0.792177
O O2 0.000000 0.250000 0.933023
O O3 0.851412 0.166204 0.947079
O O4 0.798912 0.750000 0.821681
O O5 0.754754 0.580597 0.795392
O O6 0.891437 0.625446 0.886487
O O7 0.865881 0.654799 0.697600
O O8 0.336789 0.014117 0.336074
O O9 0.857061 0.165241 0.641366
O O10 0.000000 0.250000 0.648674
O O11 0.000000 0.916281 0.026618
O O12 0.855840 0.000000 0.000000
O O13 0.500000 0.841122 0.417912
O O14 0.357937 0.750000 0.443786
O O15 0.362673 0.908929 0.488638
O O16 0.500000 0.433088 0.394891
#
# Coordination Sequence:
#
# PCOD9504203 Si02
#       7
#     8  16   8   8  16  16  16
#     4   9  18  34  62 100 133 177 235 284 348 421
#     4  11  25  45  67  96 142 188 232 296 363 430
#     4  12  30  45  69 108 144 188 249 298 357 436
#     4   9  18  36  68 101 134 182 237 293 350 415
#     4  10  21  39  68 104 140 183 236 290 352 427
#     4   9  18  37  70 107 140 186 241 290 352 426
#     4  10  22  43  70 102 144 189 239 297 355 419
#
# _framework density 25.997343000000001
#
# number of rings (size 3 to 8) (size 9 to 14) (size 15 to 20)
#    0.000    2.000    1.818    0.545    3.818    4.364 
#    0.000    4.091    0.000    2.182    0.000    0.000 
#    0.000    0.000    0.000    0.000    0.000    0.000 
#
# Total GULP energy -246084.944003 kJ/mol
# GULP energy per Si atom -5592.839636 kJ/mol
# Density = 2.593817 g / cm^3
# Si number density = 25.997343 Si / 1000 Ang^3
#
#
#
# Elastic Constant Matrix: (Units=GPa)
#
#
# Indices 1 2 3 4 5 6 
#
# 1 66.7376 22.7732 14.1255 0.0000 0.0000 0.0000
# 2 22.7732 232.6939 72.4135 0.0000 0.0000 0.0000
# 3 14.1255 72.4135 120.7129 0.0000 0.0000 0.0000
# 4 0.0000 0.0000 0.0000 58.1498 0.0000 0.0000
# 5 0.0000 0.0000 0.0000 0.0000 -7.2855 0.0000
# 6 0.0000 0.0000 0.0000 0.0000 0.0000 28.1392
#
#
#
# Elastic Compliance Matrix: (Units=1/GPa)
#
#
# Indices 1 2 3 4 5 6 
#
# 1 0.015624 -0.001181 -0.001120 0.000000 0.000000 0.000000
# 2 -0.001181 0.005373 -0.003085 0.000000 0.000000 0.000000
# 3 -0.001120 -0.003085 0.010266 0.000000 0.000000 0.000000
# 4 0.000000 0.000000 0.000000 0.017197 0.000000 0.000000
# 5 0.000000 0.000000 0.000000 0.000000 -0.137258 0.000000
# 6 0.000000 0.000000 0.000000 0.000000 0.000000 0.035538
#
#
# Mechanical properties :
#
#
# Convention : Reuss Voigt Hill
#
# Bulk Modulus (GPa) = 48.80060 70.97430 59.88745
# Shear Modulus (GPa) = -140.21734 36.52284 -51.84725
#
# Velocity S-wave (km/s) = -7.35203 3.75222 -4.47064
# Velocity P-wave (km/s) = 7.29778 6.79206 1.88753
#
# Compressibility (1/GPa) = 0.02049155
#
# Stress axis : x y z
#
# Youngs Moduli (GPa) = 64.00420 186.11256 97.41006
#
# Poissons Ratio (x) = 0.21971 0.10911
# Poissons Ratio (y) = 0.07556 0.30052
# Poissons Ratio (z) = 0.07169 0.57417
#
# Static dielectric constant tensor:
#      x y z
#    x 2.075440 0.000000 0.000000 
#    y 0.000000 2.092570 0.000000 
#    z 0.000000 0.000000 1.996660 
# 
# From -- ./inp_files/28535.got.cif
#   From: 2010.05.17/outbox.cif.g08.bks.cpg/sg67_15_cif.got.tgz:28535.got - 2010.06.03 18:28:57.
