data_PCOD9504778
_publ_section_title
;
Structure prediction by ZEFSAII (Michael W. Deem and Ramdas Pophale) SiO2 
 PCOD9504778
Probable space group: C M M A
;
_chemical_formula_sum "Si O2"
_cell_formula_units_Z 80
_cell_length_a 25.701954
_cell_length_b 18.257146
_cell_length_c 9.304773
_cell_angle_alpha 90.000000
_cell_angle_beta 90.000000
_cell_angle_gamma 90.000000
_cell_volume 4366.211941
_symmetry_space_group_name_H-M "C M M A"
_symmetry_group_IT_number 67
_symmetry_cell_setting 'orthorhombic'
loop_
_space_group_symop_operation_xyz
x,y,z
-x,1/2-y,z
x,-y,-z
-x,1/2+y,-z
-x,-y,-z
x,1/2+y,-z
-x,y,z
x,1/2-y,z
1/2+x,1/2+y,z
1/2-x,-y,z
1/2+x,1/2-y,-z
1/2-x,y,-z
1/2-x,1/2-y,-z
1/2+x,y,-z
1/2-x,1/2+y,z
1/2+x,-y,z
loop_
_atom_site_type_symbol
_atom_site_label
_atom_site_fract_x
_atom_site_fract_y
_atom_site_fract_z
Si Si1 0.155786 0.835950 0.998384
Si Si2 0.876880 0.925236 0.567388
Si Si3 0.815836 0.336793 0.673867
Si Si4 0.059776 0.162873 0.201043
Si Si5 0.719813 0.426637 0.773002
O O1 0.167685 0.750000 0.972769
O O2 0.099060 0.851102 0.931335
O O3 0.196648 0.883739 0.908814
O O4 0.159814 0.848796 0.167464
O O5 0.851874 0.873975 0.445187
O O6 0.917913 0.881431 0.663762
O O7 0.828702 0.946219 0.671398
O O8 0.898092 0.000000 0.500000
O O9 0.810849 0.250000 0.648502
O O10 0.759428 0.374700 0.685590
O O11 0.062721 0.250000 0.231301
O O12 0.000000 0.144382 0.169962
O O13 0.750000 0.500000 0.813036
#
# Coordination Sequence:
#
# PCOD9504778 Si02
#       5
#    16  16  16  16  16
#     4   9  20  37  56  83 113 145 192 237 281 337
#     4  11  22  37  54  82 118 148 191 234 277 335
#     4  11  22  35  55  82 115 151 187 234 283 333
#     4   9  19  39  64  83 106 147 193 237 290 345
#     4  11  21  35  53  81 115 157 192 223 272 339
#
# _framework density 18.322519
#
# number of rings (size 3 to 8) (size 9 to 14) (size 15 to 20)
#    0.000    1.800    2.000    2.400    0.000    6.800 
#    0.000    1.000    0.000    4.800    0.000    0.000 
#    0.000    0.000    0.000    0.000    0.000    0.000 
#
# Total GULP energy -223520.706997 kJ/mol
# GULP energy per Si atom -5588.017675 kJ/mol
# Density = 1.828082 g / cm^3
# Si number density = 18.322519 Si / 1000 Ang^3
#
#
#
# Elastic Constant Matrix: (Units=GPa)
#
#
# Indices 1 2 3 4 5 6 
#
# 1 89.7216 32.1750 17.8942 0.0000 0.0000 0.0000
# 2 32.1750 54.5594 17.6880 0.0000 0.0000 0.0000
# 3 17.8942 17.6880 51.6882 0.0000 0.0000 0.0000
# 4 0.0000 0.0000 0.0000 11.8935 0.0000 0.0000
# 5 0.0000 0.0000 0.0000 0.0000 17.3623 0.0000
# 6 0.0000 0.0000 0.0000 0.0000 0.0000 22.9568
#
#
#
# Elastic Compliance Matrix: (Units=1/GPa)
#
#
# Indices 1 2 3 4 5 6 
#
# 1 0.014381 -0.007724 -0.002336 0.000000 0.000000 0.000000
# 2 -0.007724 0.024764 -0.005800 0.000000 0.000000 0.000000
# 3 -0.002336 -0.005800 0.022140 0.000000 0.000000 0.000000
# 4 0.000000 0.000000 0.000000 0.084080 0.000000 0.000000
# 5 0.000000 0.000000 0.000000 0.000000 0.057596 0.000000
# 6 0.000000 0.000000 0.000000 0.000000 0.000000 0.043560
#
#
# Mechanical properties :
#
#
# Convention : Reuss Voigt Hill
#
# Bulk Modulus (GPa) = 33.82276 36.83154 35.32715
# Shear Modulus (GPa) = 17.35529 18.98997 18.17263
#
# Velocity S-wave (km/s) = 3.08102 3.22285 3.15273
# Velocity P-wave (km/s) = 5.58181 5.83048 5.70750
#
# Compressibility (1/GPa) = 0.02956589
#
# Stress axis : x y z
#
# Youngs Moduli (GPa) = 69.53513 40.38114 45.16646
#
# Poissons Ratio (x) = 0.31189 0.10549
# Poissons Ratio (y) = 0.53707 0.26199
# Poissons Ratio (z) = 0.16241 0.23423
#
# Static dielectric constant tensor:
#      x y z
#    x 1.606210 0.000000 0.000000 
#    y 0.000000 1.629960 0.000000 
#    z 0.000000 0.000000 1.622490 
# 
# From -- ./inp_files/9883.got.cif
#   From: 2010.05.17/outbox.cif.g08.bks.cpg/sg67_5_cif.got.tgz:9883.got - 2010.06.03 18:28:57.
