data_PCOD9504517
_publ_section_title
;
Structure prediction by ZEFSAII (Michael W. Deem and Ramdas Pophale) SiO2 
 PCOD9504517
Probable space group: C M M A
;
_chemical_formula_sum "Si O2"
_cell_formula_units_Z 80
_cell_length_a 12.481544
_cell_length_b 26.401740
_cell_length_c 11.601547
_cell_angle_alpha 90.000000
_cell_angle_beta 90.000000
_cell_angle_gamma 90.000000
_cell_volume 3823.109752
_symmetry_space_group_name_H-M "C M M A"
_symmetry_group_IT_number 67
_symmetry_cell_setting 'orthorhombic'
loop_
_space_group_symop_operation_xyz
x,y,z
-x,1/2-y,z
x,-y,-z
-x,1/2+y,-z
-x,-y,-z
x,1/2+y,-z
-x,y,z
x,1/2-y,z
1/2+x,1/2+y,z
1/2-x,-y,z
1/2+x,1/2-y,-z
1/2-x,y,-z
1/2-x,1/2-y,-z
1/2+x,y,-z
1/2-x,1/2+y,z
1/2+x,-y,z
loop_
_atom_site_type_symbol
_atom_site_label
_atom_site_fract_x
_atom_site_fract_y
_atom_site_fract_z
Si Si1 0.193489 0.049334 0.164715
Si Si2 0.222116 0.104427 0.618859
Si Si3 0.000000 0.412796 0.552633
Si Si4 0.376651 0.692081 0.312683
Si Si5 0.871657 0.150790 0.053030
Si Si6 0.500000 0.976903 0.328690
O O1 0.269552 0.077085 0.258409
O O2 0.145040 0.090853 0.078523
O O3 0.100768 0.029837 0.248023
O O4 0.250000 0.000000 0.116770
O O5 0.250000 0.073543 0.500000
O O6 0.101135 0.117743 0.595183
O O7 0.300294 0.151856 0.627153
O O8 0.000000 0.430614 0.420003
O O9 0.000000 0.468333 0.613122
O O10 0.500000 0.685984 0.349852
O O11 0.344241 0.750000 0.331179
O O12 0.373774 0.679029 0.176202
O O13 0.000000 0.157383 0.007983
O O14 0.750000 0.164947 0.000000
#
# Coordination Sequence:
#
# PCOD9504517 Si02
#       6
#    16  16   8  16  16   8
#     4  11  21  37  56  82 118 165 203 241 286 350
#     4  11  22  33  56  85 120 157 199 240 286 346
#     4  11  22  32  53  87 125 163 205 246 281 330
#     4   9  21  43  67  86 110 150 194 241 307 378
#     4  10  22  42  66  89 115 150 197 253 310 371
#     4  11  20  34  54  80 122 172 211 234 283 339
#
# _framework density 20.925373
#
# number of rings (size 3 to 8) (size 9 to 14) (size 15 to 20)
#    0.000    1.600    5.000    0.000    2.800    1.600 
#    9.000    1.500    0.000    0.000    0.000    0.000 
#    0.000    0.000    0.000    0.000    0.000    0.000 
#
# Total GULP energy -222686.234891 kJ/mol
# GULP energy per Si atom -5567.155872 kJ/mol
# Density = 2.087775 g / cm^3
# Si number density = 20.925373 Si / 1000 Ang^3
#
#
#
# Elastic Constant Matrix: (Units=GPa)
#
#
# Indices 1 2 3 4 5 6 
#
# 1 157.9498 24.4723 45.3160 0.0000 0.0000 0.0000
# 2 24.4723 86.8143 13.8044 0.0000 0.0000 0.0000
# 3 45.3160 13.8044 56.6417 0.0000 0.0000 0.0000
# 4 0.0000 0.0000 0.0000 10.7694 0.0000 0.0000
# 5 0.0000 0.0000 0.0000 0.0000 1.7061 0.0000
# 6 0.0000 0.0000 0.0000 0.0000 0.0000 27.5966
#
#
#
# Elastic Compliance Matrix: (Units=1/GPa)
#
#
# Indices 1 2 3 4 5 6 
#
# 1 0.008366 -0.001346 -0.006365 0.000000 0.000000 0.000000
# 2 -0.001346 0.012200 -0.001896 0.000000 0.000000 0.000000
# 3 -0.006365 -0.001896 0.023209 0.000000 0.000000 0.000000
# 4 0.000000 0.000000 0.000000 0.092855 0.000000 0.000000
# 5 0.000000 0.000000 0.000000 0.000000 0.586146 0.000000
# 6 0.000000 0.000000 0.000000 0.000000 0.000000 0.036236
#
#
# Mechanical properties :
#
#
# Convention : Reuss Voigt Hill
#
# Bulk Modulus (GPa) = 40.71645 52.06569 46.39107
# Shear Modulus (GPa) = 6.35798 22.53530 14.44664
#
# Velocity S-wave (km/s) = 1.74499 3.28523 2.63038
# Velocity P-wave (km/s) = 4.85388 6.27104 5.60741
#
# Compressibility (1/GPa) = 0.02456010
#
# Stress axis : x y z
#
# Youngs Moduli (GPa) = 119.53419 81.96825 43.08626
#
# Poissons Ratio (x) = 0.11034 0.27424
# Poissons Ratio (y) = 0.16091 0.08170
# Poissons Ratio (z) = 0.76083 0.15544
#
# Static dielectric constant tensor:
#      x y z
#    x 1.705050 0.000000 0.000000 
#    y 0.000000 1.770560 0.000000 
#    z 0.000000 0.000000 1.789520 
# 
# From -- ./inp_files/16820.got.cif
#   From: 2010.05.17/outbox.cif.g08.bks.cpg/sg67_9_cif.got.tgz:16820.got - 2010.06.03 18:28:57.
