data_PCOD9504594
_publ_section_title
;
Structure prediction by ZEFSAII (Michael W. Deem and Ramdas Pophale) SiO2 
 PCOD9504594
Probable space group: C M M A
;
_chemical_formula_sum "Si O2"
_cell_formula_units_Z 88
_cell_length_a 31.411371
_cell_length_b 25.587552
_cell_length_c 5.132951
_cell_angle_alpha 90.000000
_cell_angle_beta 90.000000
_cell_angle_gamma 90.000000
_cell_volume 4125.558493
_symmetry_space_group_name_H-M "C M M A"
_symmetry_group_IT_number 67
_symmetry_cell_setting 'orthorhombic'
loop_
_space_group_symop_operation_xyz
x,y,z
-x,1/2-y,z
x,-y,-z
-x,1/2+y,-z
-x,-y,-z
x,1/2+y,-z
-x,y,z
x,1/2-y,z
1/2+x,1/2+y,z
1/2-x,-y,z
1/2+x,1/2-y,-z
1/2-x,y,-z
1/2-x,1/2-y,-z
1/2+x,y,-z
1/2-x,1/2+y,z
1/2+x,-y,z
loop_
_atom_site_type_symbol
_atom_site_label
_atom_site_fract_x
_atom_site_fract_y
_atom_site_fract_z
Si Si1 0.092657 0.057290 0.118598
Si Si2 0.572105 0.250000 0.450782
Si Si3 0.370132 0.250000 0.951020
Si Si4 0.500000 0.100686 0.838452
Si Si5 0.642225 0.000000 0.500000
Si Si6 0.500000 0.666498 0.661373
Si Si7 0.333894 0.135972 0.916624
Si Si8 0.203309 0.084398 0.605176
O O1 0.121961 0.104648 0.018798
O O2 0.043368 0.070122 0.106041
O O3 0.110496 0.045281 0.405703
O O4 0.100936 0.000000 0.000000
O O5 0.592099 0.250000 0.737065
O O6 0.541621 0.299540 0.403382
O O7 0.609246 0.250000 0.237426
O O8 0.343598 0.197123 0.912144
O O9 0.500000 0.118313 0.538277
O O10 0.500000 0.149341 0.038593
O O11 0.676280 0.967826 0.672986
O O12 0.318064 0.114632 0.638829
O O13 0.300505 0.120147 0.140207
O O14 0.250000 0.071352 0.500000
#
# Coordination Sequence:
#
# PCOD9504594 Si02
#       8
#    16   8   8   8   8   8  16  16
#     4  11  23  42  63  94 134 176 225 267 329 378
#     4  11  22  40  68  88 127 170 236 282 313 376
#     4  12  24  43  69  98 126 178 216 266 336 393
#     4  12  27  38  64  92 139 180 214 268 329 398
#     4  10  23  41  68  94 134 172 226 281 321 394
#     4  11  24  42  58  96 125 173 229 283 326 360
#     4  11  24  42  67  97 135 168 220 273 327 400
#     4  11  23  43  68  99 130 170 216 272 338 399
#
# _framework density 21.330446999999999
#
# number of rings (size 3 to 8) (size 9 to 14) (size 15 to 20)
#    0.000    0.909    1.818    5.455    2.545    3.273 
#    0.000    4.545    0.000    0.000    0.000    0.000 
#    0.000    0.000    0.000    0.000    0.000    0.000 
#
# Total GULP energy -245655.790087 kJ/mol
# GULP energy per Si atom -5583.086138 kJ/mol
# Density = 2.128190 g / cm^3
# Si number density = 21.330447 Si / 1000 Ang^3
#
#
#
# Elastic Constant Matrix: (Units=GPa)
#
#
# Indices 1 2 3 4 5 6 
#
# 1 100.9316 35.8892 4.5923 0.0000 0.0000 0.0000
# 2 35.8892 95.3858 2.1893 0.0000 0.0000 0.0000
# 3 4.5923 2.1893 60.3578 0.0000 0.0000 0.0000
# 4 0.0000 0.0000 0.0000 13.5444 0.0000 0.0000
# 5 0.0000 0.0000 0.0000 0.0000 35.4445 0.0000
# 6 0.0000 0.0000 0.0000 0.0000 0.0000 19.0271
#
#
#
# Elastic Compliance Matrix: (Units=1/GPa)
#
#
# Indices 1 2 3 4 5 6 
#
# 1 0.011469 -0.004299 -0.000717 0.000000 0.000000 0.000000
# 2 -0.004299 0.012104 -0.000112 0.000000 0.000000 0.000000
# 3 -0.000717 -0.000112 0.016626 0.000000 0.000000 0.000000
# 4 0.000000 0.000000 0.000000 0.073831 0.000000 0.000000
# 5 0.000000 0.000000 0.000000 0.000000 0.028213 0.000000
# 6 0.000000 0.000000 0.000000 0.000000 0.000000 0.052557
#
#
# Mechanical properties :
#
#
# Convention : Reuss Voigt Hill
#
# Bulk Modulus (GPa) = 33.39537 38.00186 35.69861
# Shear Modulus (GPa) = 23.25188 27.87014 25.56101
#
# Velocity S-wave (km/s) = 3.30522 3.61860 3.46545
# Velocity P-wave (km/s) = 5.50056 5.94251 5.72580
#
# Compressibility (1/GPa) = 0.02994427
#
# Stress axis : x y z
#
# Youngs Moduli (GPa) = 87.19266 82.61919 60.14509
#
# Poissons Ratio (x) = 0.35516 0.04311
# Poissons Ratio (y) = 0.37482 0.00673
# Poissons Ratio (z) = 0.06249 0.00925
#
# Static dielectric constant tensor:
#      x y z
#    x 1.740190 0.000000 0.000000 
#    y 0.000000 1.765230 0.000000 
#    z 0.000000 0.000000 1.921420 
# 
# From -- ./inp_files/4805.got.cif
#   From: 2010.05.17/outbox.cif.g08.bks.cpg/sg67_3_cif.got.tgz:4805.got - 2010.06.03 18:28:57.
