data_PCOD9504857
_publ_section_title
;
Structure prediction by ZEFSAII (Michael W. Deem and Ramdas Pophale) SiO2 
 PCOD9504857
Probable space group: C M M A
;
_chemical_formula_sum "Si O2"
_cell_formula_units_Z 112
_cell_length_a 17.016551
_cell_length_b 14.360468
_cell_length_c 23.007453
_cell_angle_alpha 90.000000
_cell_angle_beta 90.000000
_cell_angle_gamma 90.000000
_cell_volume 5622.230888
_symmetry_space_group_name_H-M "C M M A"
_symmetry_group_IT_number 67
_symmetry_cell_setting 'orthorhombic'
loop_
_space_group_symop_operation_xyz
x,y,z
-x,1/2-y,z
x,-y,-z
-x,1/2+y,-z
-x,-y,-z
x,1/2+y,-z
-x,y,z
x,1/2-y,z
1/2+x,1/2+y,z
1/2-x,-y,z
1/2+x,1/2-y,-z
1/2-x,y,-z
1/2-x,1/2-y,-z
1/2+x,y,-z
1/2-x,1/2+y,z
1/2+x,-y,z
loop_
_atom_site_type_symbol
_atom_site_label
_atom_site_fract_x
_atom_site_fract_y
_atom_site_fract_z
Si Si1 0.162786 0.390866 0.014506
Si Si2 0.655416 0.013102 0.404629
Si Si3 0.154913 0.144092 0.488770
Si Si4 0.161607 0.470421 0.806353
Si Si5 0.405653 0.358883 0.300727
Si Si6 0.092324 0.645657 0.859586
Si Si7 0.087678 0.145155 0.898991
O O1 0.138616 0.371358 0.080285
O O2 0.162121 0.500000 0.000000
O O3 0.250000 0.355831 0.000000
O O4 0.102139 0.351450 0.967533
O O5 0.629425 0.082797 0.456396
O O6 0.623699 0.065140 0.347941
O O7 0.750000 0.000000 0.399374
O O8 0.632564 0.911291 0.429970
O O9 0.127272 0.250000 0.489036
O O10 0.250000 0.145351 0.500000
O O11 0.250000 0.500000 0.793556
O O12 0.127351 0.398660 0.759776
O O13 0.113771 0.566053 0.813725
O O14 0.152061 0.418492 0.868193
O O15 0.500000 0.359388 0.299527
O O16 0.381119 0.250000 0.311462
O O17 0.110734 0.750000 0.838571
O O18 0.000000 0.640514 0.872832
O O19 0.092324 0.250000 0.875927
O O20 0.000000 0.107894 0.886692
#
# Coordination Sequence:
#
# PCOD9504857 Si02
#       7
#    16  16  16  16  16  16  16
#     4  11  22  36  57  88 119 152 188 232 284 340
#     4   9  17  32  56  89 123 159 204 251 292 339
#     4   8  14  27  52  87 127 166 202 242 290 341
#     4  12  25  42  63  86 111 144 192 245 296 347
#     4  11  24  42  63  86 116 156 199 247 301 354
#     4  11  24  41  61  85 115 151 186 227 290 361
#     4  11  23  39  62  89 116 149 188 234 290 350
#
# _framework density 19.920918
#
# number of rings (size 3 to 8) (size 9 to 14) (size 15 to 20)
#    0.000    1.571    1.429    5.143    0.000    6.857 
#    0.000    2.143    0.000    2.143    0.000    0.000 
#    0.000    0.000    0.000    0.000    0.000    0.000 
#
# Total GULP energy -312392.993550 kJ/mol
# GULP energy per Si atom -5578.446313 kJ/mol
# Density = 1.987558 g / cm^3
# Si number density = 19.920918 Si / 1000 Ang^3
#
#
#
# Elastic Constant Matrix: (Units=GPa)
#
#
# Indices 1 2 3 4 5 6 
#
# 1 63.3364 30.6715 13.2630 0.0000 0.0000 0.0000
# 2 30.6715 144.5747 28.1679 0.0000 0.0000 0.0000
# 3 13.2630 28.1679 68.1845 0.0000 0.0000 0.0000
# 4 0.0000 0.0000 0.0000 -13.9861 0.0000 0.0000
# 5 0.0000 0.0000 0.0000 0.0000 117.3066 0.0000
# 6 0.0000 0.0000 0.0000 0.0000 0.0000 25.7227
#
#
#
# Elastic Compliance Matrix: (Units=1/GPa)
#
#
# Indices 1 2 3 4 5 6 
#
# 1 0.017863 -0.003385 -0.002076 0.000000 0.000000 0.000000
# 2 -0.003385 0.008164 -0.002714 0.000000 0.000000 0.000000
# 3 -0.002076 -0.002714 0.016191 0.000000 0.000000 0.000000
# 4 0.000000 0.000000 0.000000 -0.071500 0.000000 0.000000
# 5 0.000000 0.000000 0.000000 0.000000 0.008525 0.000000
# 6 0.000000 0.000000 0.000000 0.000000 0.000000 0.038876
#
#
# Mechanical properties :
#
#
# Convention : Reuss Voigt Hill
#
# Bulk Modulus (GPa) = 38.65933 46.70003 42.67968
# Shear Modulus (GPa) = 116.03132 39.40821 77.71977
#
# Velocity S-wave (km/s) = 7.64018 4.45256 6.25291
# Velocity P-wave (km/s) = 9.86298 7.06593 8.57921
#
# Compressibility (1/GPa) = 0.02586698
#
# Stress axis : x y z
#
# Youngs Moduli (GPa) = 55.98246 122.49238 61.76206
#
# Poissons Ratio (x) = 0.41464 0.12823
# Poissons Ratio (y) = 0.18950 0.16763
# Poissons Ratio (z) = 0.11623 0.33246
#
# Static dielectric constant tensor:
#      x y z
#    x 1.708430 0.000000 0.000000 
#    y 0.000000 1.744180 0.000000 
#    z 0.000000 0.000000 1.710520 
# 
# From -- ./inp_files/41957.got.cif
#   From: 2010.05.17/outbox.cif.g08.bks.cpg/sg67_21_cif.got.tgz:41957.got - 2010.06.03 18:28:57.
