data_PCOD9504760
_publ_section_title
;
Structure prediction by ZEFSAII (Michael W. Deem and Ramdas Pophale) SiO2 
 PCOD9504760
Probable space group: C M M A
;
_chemical_formula_sum "Si O2"
_cell_formula_units_Z 112
_cell_length_a 28.667944
_cell_length_b 18.322670
_cell_length_c 11.808916
_cell_angle_alpha 90.000000
_cell_angle_beta 90.000000
_cell_angle_gamma 90.000000
_cell_volume 6202.908011
_symmetry_space_group_name_H-M "C M M A"
_symmetry_group_IT_number 67
_symmetry_cell_setting 'orthorhombic'
loop_
_space_group_symop_operation_xyz
x,y,z
-x,1/2-y,z
x,-y,-z
-x,1/2+y,-z
-x,-y,-z
x,1/2+y,-z
-x,y,z
x,1/2-y,z
1/2+x,1/2+y,z
1/2-x,-y,z
1/2+x,1/2-y,-z
1/2-x,y,-z
1/2-x,1/2-y,-z
1/2+x,y,-z
1/2-x,1/2+y,z
1/2+x,-y,z
loop_
_atom_site_type_symbol
_atom_site_label
_atom_site_fract_x
_atom_site_fract_y
_atom_site_fract_z
Si Si1 0.853672 0.161136 0.895272
Si Si2 0.232610 0.418339 0.320810
Si Si3 0.406204 0.834004 0.246184
Si Si4 0.805539 0.666771 0.881096
Si Si5 0.367081 0.920356 0.447738
Si Si6 0.324132 0.336952 0.355009
Si Si7 0.051319 0.838882 0.987200
O O1 0.854277 0.250000 0.896251
O O2 0.840174 0.137581 0.769946
O O3 0.816465 0.140844 0.992248
O O4 0.904839 0.136186 0.937302
O O5 0.250000 0.500000 0.313945
O O6 0.225232 0.383876 0.197133
O O7 0.183622 0.420669 0.386465
O O8 0.273214 0.370503 0.377385
O O9 0.416887 0.750000 0.280100
O O10 0.355795 0.830983 0.182709
O O11 0.401632 0.887356 0.353079
O O12 0.440055 0.858130 0.144511
O O13 0.787178 0.750000 0.882807
O O14 0.360198 0.865465 0.552157
O O15 0.377389 0.000000 0.500000
O O16 0.321376 0.250000 0.356549
O O17 0.052456 0.750000 0.989953
O O18 0.000000 0.862819 0.024896
#
# Coordination Sequence:
#
# PCOD9504760 Si02
#       7
#    16  16  16  16  16  16  16
#     4   8  16  31  48  74 105 129 162 202 245 309
#     4  11  21  33  48  67  98 127 175 225 253 286
#     4   8  15  28  49  76  99 124 167 207 245 302
#     4   8  15  30  50  67  94 130 163 205 250 291
#     4  11  21  34  50  65  97 137 171 221 258 284
#     4  11  22  33  50  71  97 137 174 205 251 304
#     4   8  13  26  54  85 107 126 153 203 259 300
#
# _framework density 18.056047
#
# number of rings (size 3 to 8) (size 9 to 14) (size 15 to 20)
#    0.000    2.714    1.429    3.000    0.000    2.857 
#    0.000    3.571    0.000    1.286    0.000    5.000 
#    0.000    0.000    0.000    0.000    0.000    0.000 
#
# Total GULP energy -312173.296240 kJ/mol
# GULP energy per Si atom -5574.523147 kJ/mol
# Density = 1.801495 g / cm^3
# Si number density = 18.056047 Si / 1000 Ang^3
#
#
#
# Elastic Constant Matrix: (Units=GPa)
#
#
# Indices 1 2 3 4 5 6 
#
# 1 34.0165 8.0864 15.1459 0.0000 0.0000 0.0000
# 2 8.0864 56.0129 27.3266 0.0000 0.0000 0.0000
# 3 15.1459 27.3266 97.4482 0.0000 0.0000 0.0000
# 4 0.0000 0.0000 0.0000 -23.7302 0.0000 0.0000
# 5 0.0000 0.0000 0.0000 0.0000 17.5882 0.0000
# 6 0.0000 0.0000 0.0000 0.0000 0.0000 8.9074
#
#
#
# Elastic Compliance Matrix: (Units=1/GPa)
#
#
# Indices 1 2 3 4 5 6 
#
# 1 0.031890 -0.002532 -0.004246 0.000000 0.000000 0.000000
# 2 -0.002532 0.020884 -0.005463 0.000000 0.000000 0.000000
# 3 -0.004246 -0.005463 0.012454 0.000000 0.000000 0.000000
# 4 0.000000 0.000000 0.000000 -0.042140 0.000000 0.000000
# 5 0.000000 0.000000 0.000000 0.000000 0.056856 0.000000
# 6 0.000000 0.000000 0.000000 0.000000 0.000000 0.112266
#
#
# Mechanical properties :
#
#
# Convention : Reuss Voigt Hill
#
# Bulk Modulus (GPa) = 24.54295 32.06614 28.30455
# Shear Modulus (GPa) = 21.71327 9.68100 15.69713
#
# Velocity S-wave (km/s) = 3.47154 2.31803 2.95168
# Velocity P-wave (km/s) = 5.44894 4.99621 5.22748
#
# Compressibility (1/GPa) = 0.04074490
#
# Stress axis : x y z
#
# Youngs Moduli (GPa) = 31.35764 47.88447 80.29735
#
# Poissons Ratio (x) = 0.12125 0.34098
# Poissons Ratio (y) = 0.07940 0.43864
# Poissons Ratio (z) = 0.13316 0.26158
#
# Static dielectric constant tensor:
#      x y z
#    x 1.630650 0.000000 0.000000 
#    y 0.000000 1.638500 0.000000 
#    z 0.000000 0.000000 1.643660 
# 
# From -- ./inp_files/23153.got.cif
#   From: 2010.05.17/outbox.cif.g08.bks.cpg/sg67_12_cif.got.tgz:23153.got - 2010.06.03 18:28:57.
