data_PCOD9504560
_publ_section_title
;
Structure prediction by ZEFSAII (Michael W. Deem and Ramdas Pophale) SiO2 
 PCOD9504560
Probable space group: C M M A
;
_chemical_formula_sum "Si O2"
_cell_formula_units_Z 88
_cell_length_a 14.436518
_cell_length_b 20.737565
_cell_length_c 16.964566
_cell_angle_alpha 90.000000
_cell_angle_beta 90.000000
_cell_angle_gamma 90.000000
_cell_volume 5078.821749
_symmetry_space_group_name_H-M "C M M A"
_symmetry_group_IT_number 67
_symmetry_cell_setting 'orthorhombic'
loop_
_space_group_symop_operation_xyz
x,y,z
-x,1/2-y,z
x,-y,-z
-x,1/2+y,-z
-x,-y,-z
x,1/2+y,-z
-x,y,z
x,1/2-y,z
1/2+x,1/2+y,z
1/2-x,-y,z
1/2+x,1/2-y,-z
1/2-x,y,-z
1/2-x,1/2-y,-z
1/2+x,y,-z
1/2-x,1/2+y,z
1/2+x,-y,z
loop_
_atom_site_type_symbol
_atom_site_label
_atom_site_fract_x
_atom_site_fract_y
_atom_site_fract_z
Si Si1 0.250000 0.500000 0.709836
Si Si2 0.396272 0.173279 0.883259
Si Si3 0.279402 0.133743 0.207627
Si Si4 0.389419 0.463080 0.419864
Si Si5 0.388429 0.325112 0.058175
Si Si6 0.389106 0.177549 0.360397
O O1 0.260287 0.562242 0.762980
O O2 0.337937 0.501543 0.651564
O O3 0.500000 0.148518 0.865414
O O4 0.403866 0.250000 0.893296
O O5 0.319821 0.161270 0.817869
O O6 0.365471 0.149927 0.970366
O O7 0.342764 0.137729 0.130076
O O8 0.332074 0.169346 0.279253
O O9 0.363178 0.500000 0.500000
O O10 0.500000 0.467956 0.411734
O O11 0.366365 0.386105 0.413075
O O12 0.500000 0.326126 0.063895
O O13 0.357959 0.250000 0.065451
O O14 0.500000 0.174083 0.344279
O O15 0.371041 0.250000 0.392811
#
# Coordination Sequence:
#
# PCOD9504560 Si02
#       6
#     8  16  16  16  16  16
#     4  10  23  34  47  72 100 128 164 200 229 284
#     4   9  18  31  47  68  93 125 165 203 241 289
#     4  11  19  30  47  67  97 134 161 194 246 289
#     4   9  18  35  58  77  97 131 165 192 233 291
#     4   9  17  30  50  73  92 116 159 211 255 293
#     4   9  17  29  50  82 107 120 150 203 252 289
#
# _framework density 17.326854000000001
#
# number of rings (size 3 to 8) (size 9 to 14) (size 15 to 20)
#    0.000    2.545    0.000    4.091    0.000    4.364 
#    0.000    1.818    0.000   13.091    0.000    2.545 
#    0.000    0.000    0.000    0.000    0.000    0.000 
#
# Total GULP energy -245083.491392 kJ/mol
# GULP energy per Si atom -5570.079350 kJ/mol
# Density = 1.728742 g / cm^3
# Si number density = 17.326854 Si / 1000 Ang^3
#
#
#
# Elastic Constant Matrix: (Units=GPa)
#
#
# Indices 1 2 3 4 5 6 
#
# 1 54.7352 30.2178 38.4562 0.0000 0.0000 0.0000
# 2 30.2178 89.8244 54.6491 0.0000 0.0000 0.0000
# 3 38.4562 54.6491 87.6903 0.0000 0.0000 0.0000
# 4 0.0000 0.0000 0.0000 18.1282 0.0000 0.0000
# 5 0.0000 0.0000 0.0000 0.0000 29.5013 0.0000
# 6 0.0000 0.0000 0.0000 0.0000 0.0000 -66.8266
#
#
#
# Elastic Compliance Matrix: (Units=1/GPa)
#
#
# Indices 1 2 3 4 5 6 
#
# 1 0.026904 -0.003016 -0.009919 0.000000 0.000000 0.000000
# 2 -0.003016 0.018270 -0.010063 0.000000 0.000000 0.000000
# 3 -0.009919 -0.010063 0.022025 0.000000 0.000000 0.000000
# 4 0.000000 0.000000 0.000000 0.055163 0.000000 0.000000
# 5 0.000000 0.000000 0.000000 0.000000 0.033897 0.000000
# 6 0.000000 0.000000 0.000000 0.000000 0.000000 -0.014964
#
#
# Mechanical properties :
#
#
# Convention : Reuss Voigt Hill
#
# Bulk Modulus (GPa) = 47.16440 53.21068 50.18754
# Shear Modulus (GPa) = 25.72571 3.42238 14.57405
#
# Velocity S-wave (km/s) = 3.85740 1.40694 2.90336
# Velocity P-wave (km/s) = 6.86432 5.78065 6.34566
#
# Compressibility (1/GPa) = 0.02120243
#
# Stress axis : x y z
#
# Youngs Moduli (GPa) = 37.16953 54.73475 45.40262
#
# Poissons Ratio (x) = 0.16508 0.45035
# Poissons Ratio (y) = 0.11210 0.45690
# Poissons Ratio (z) = 0.36868 0.55081
#
# Static dielectric constant tensor:
#      x y z
#    x 1.617080 0.000000 0.000000 
#    y 0.000000 1.599340 0.000000 
#    z 0.000000 0.000000 1.593810 
# 
# From -- ./inp_files/27090.got.cif
#   From: 2010.05.17/outbox.cif.g08.bks.cpg/sg67_14_cif.got.tgz:27090.got - 2010.06.03 18:28:57.
