data_PCOD9504416
_publ_section_title
;
Structure prediction by ZEFSAII (Michael W. Deem and Ramdas Pophale) SiO2 
 PCOD9504416
Probable space group: C M M A
;
_chemical_formula_sum "Si O2"
_cell_formula_units_Z 112
_cell_length_a 24.083927
_cell_length_b 14.064861
_cell_length_c 14.412888
_cell_angle_alpha 90.000000
_cell_angle_beta 90.000000
_cell_angle_gamma 90.000000
_cell_volume 4882.179676
_symmetry_space_group_name_H-M "C M M A"
_symmetry_group_IT_number 67
_symmetry_cell_setting 'orthorhombic'
loop_
_space_group_symop_operation_xyz
x,y,z
-x,1/2-y,z
x,-y,-z
-x,1/2+y,-z
-x,-y,-z
x,1/2+y,-z
-x,y,z
x,1/2-y,z
1/2+x,1/2+y,z
1/2-x,-y,z
1/2+x,1/2-y,-z
1/2-x,y,-z
1/2-x,1/2-y,-z
1/2+x,y,-z
1/2-x,1/2+y,z
1/2+x,-y,z
loop_
_atom_site_type_symbol
_atom_site_label
_atom_site_fract_x
_atom_site_fract_y
_atom_site_fract_z
Si Si1 0.435809 0.064085 0.886465
Si Si2 0.764170 0.388944 0.898304
Si Si3 0.607998 0.358849 0.067456
Si Si4 0.272358 0.142068 0.698791
Si Si5 0.563428 0.489108 0.689162
Si Si6 0.653037 0.362171 0.357700
Si Si7 0.626664 0.361166 0.573458
O O1 0.500000 0.088537 0.908415
O O2 0.425302 0.078525 0.778050
O O3 0.427420 0.949832 0.898520
O O4 0.395121 0.119459 0.956216
O O5 0.750000 0.500000 0.900208
O O6 0.830187 0.370849 0.890613
O O7 0.729244 0.354569 0.810025
O O8 0.750000 0.350883 0.000000
O O9 0.589575 0.250000 0.084251
O O10 0.269248 0.250000 0.662253
O O11 0.213006 0.098910 0.672512
O O12 0.325645 0.104508 0.645200
O O13 0.500000 0.519811 0.695630
O O14 0.604074 0.578575 0.688366
O O15 0.575066 0.427097 0.598039
O O16 0.649048 0.250000 0.333559
O O17 0.647083 0.371443 0.468538
O O18 0.614366 0.250000 0.589082
#
# Coordination Sequence:
#
# PCOD9504416 Si02
#       7
#    16  16  16  16  16  16  16
#     4  10  23  42  63  91 127 168 217 274 327 380
#     4  11  24  38  57  89 130 169 203 251 311 379
#     4  11  23  40  65  92 124 168 218 268 318 377
#     4  10  22  39  63  94 127 164 212 265 321 387
#     4  11  25  42  63  93 129 170 217 267 325 391
#     4  10  22  42  66  95 128 163 212 271 331 392
#     4  10  23  41  65  93 126 170 214 268 329 388
#
# _framework density 22.940574000000002
#
# number of rings (size 3 to 8) (size 9 to 14) (size 15 to 20)
#    0.000    1.571    0.000    4.714    6.000    8.000 
#    0.000    5.714    0.000    0.000    0.000    0.000 
#    0.000    0.000    0.000    0.000    0.000    0.000 
#
# Total GULP energy -312931.371531 kJ/mol
# GULP energy per Si atom -5588.060206 kJ/mol
# Density = 2.288836 g / cm^3
# Si number density = 22.940574 Si / 1000 Ang^3
#
#
#
# Elastic Constant Matrix: (Units=GPa)
#
#
# Indices 1 2 3 4 5 6 
#
# 1 76.4060 -8.6961 19.0653 0.0000 0.0000 0.0000
# 2 -8.6961 75.3481 -7.9560 0.0000 0.0000 0.0000
# 3 19.0653 -7.9560 84.0071 0.0000 0.0000 0.0000
# 4 0.0000 0.0000 0.0000 111.6490 0.0000 0.0000
# 5 0.0000 0.0000 0.0000 0.0000 31.6163 0.0000
# 6 0.0000 0.0000 0.0000 0.0000 0.0000 11.8108
#
#
#
# Elastic Compliance Matrix: (Units=1/GPa)
#
#
# Indices 1 2 3 4 5 6 
#
# 1 0.013997 0.001293 -0.003054 0.000000 0.000000 0.000000
# 2 0.001293 0.013525 0.000987 0.000000 0.000000 0.000000
# 3 -0.003054 0.000987 0.012690 0.000000 0.000000 0.000000
# 4 0.000000 0.000000 0.000000 0.008957 0.000000 0.000000
# 5 0.000000 0.000000 0.000000 0.000000 0.031629 0.000000
# 6 0.000000 0.000000 0.000000 0.000000 0.000000 0.084668
#
#
# Mechanical properties :
#
#
# Convention : Reuss Voigt Hill
#
# Bulk Modulus (GPa) = 25.86293 26.73196 26.29744
# Shear Modulus (GPa) = 27.79280 46.57177 37.18228
#
# Velocity S-wave (km/s) = 3.48446 4.51056 4.03029
# Velocity P-wave (km/s) = 5.24280 6.22935 5.75725
#
# Compressibility (1/GPa) = 0.03866538
#
# Stress axis : x y z
#
# Youngs Moduli (GPa) = 71.44265 73.93594 78.79951
#
# Poissons Ratio (x) = -0.09560 0.24067
# Poissons Ratio (y) = -0.09237 -0.07781
# Poissons Ratio (z) = 0.21820 -0.07301
#
# Static dielectric constant tensor:
#      x y z
#    x 1.829230 0.000000 0.000000 
#    y 0.000000 1.717340 0.000000 
#    z 0.000000 0.000000 1.906350 
# 
# From -- ./inp_files/30131.got.cif
#   From: 2010.05.17/outbox.cif.g08.bks.cpg/sg67_16_cif.got.tgz:30131.got - 2010.06.03 18:28:57.
