data_PCOD9504954
_publ_section_title
;
Structure prediction by ZEFSAII (Michael W. Deem and Ramdas Pophale) SiO2 
 PCOD9504954
Probable space group: C M M A
;
_chemical_formula_sum "Si O2"
_cell_formula_units_Z 96
_cell_length_a 21.914044
_cell_length_b 14.625290
_cell_length_c 13.729708
_cell_angle_alpha 90.000000
_cell_angle_beta 90.000000
_cell_angle_gamma 90.000000
_cell_volume 4400.361097
_symmetry_space_group_name_H-M "C M M A"
_symmetry_group_IT_number 67
_symmetry_cell_setting 'orthorhombic'
loop_
_space_group_symop_operation_xyz
x,y,z
-x,1/2-y,z
x,-y,-z
-x,1/2+y,-z
-x,-y,-z
x,1/2+y,-z
-x,y,z
x,1/2-y,z
1/2+x,1/2+y,z
1/2-x,-y,z
1/2+x,1/2-y,-z
1/2-x,y,-z
1/2-x,1/2-y,-z
1/2+x,y,-z
1/2-x,1/2+y,z
1/2+x,-y,z
loop_
_atom_site_type_symbol
_atom_site_label
_atom_site_fract_x
_atom_site_fract_y
_atom_site_fract_z
Si Si1 0.932583 0.250000 0.832088
Si Si2 0.261523 0.639478 0.245794
Si Si3 0.069215 0.854388 0.440304
Si Si4 0.311728 0.898994 0.452367
Si Si5 0.374466 0.072603 0.255321
Si Si6 0.648315 0.432626 0.904924
Si Si7 0.930798 0.750000 0.938071
O O1 0.897583 0.339150 0.801250
O O2 0.000000 0.250000 0.788750
O O3 0.937739 0.250000 0.946744
O O4 0.256903 0.750000 0.242837
O O5 0.303740 0.609981 0.336814
O O6 0.196956 0.593294 0.270489
O O7 0.287869 0.601546 0.143567
O O8 0.071312 0.750000 0.400716
O O9 0.123397 0.858125 0.517996
O O10 0.088788 0.925178 0.355984
O O11 0.000000 0.871392 0.473917
O O12 0.250000 0.856019 0.500000
O O13 0.312648 0.000000 0.500000
O O14 0.382585 0.989938 0.182026
O O15 0.608022 0.341553 0.917655
O O16 0.653471 0.500000 0.000000
O O17 0.000000 0.750000 0.895288
#
# Coordination Sequence:
#
# PCOD9504954 Si02
#       7
#     8  16  16  16  16  16   8
#     4  11  22  41  69 101 137 181 243 306 358 431
#     4  12  25  44  74 105 146 195 244 302 374 449
#     4  11  23  41  68 104 142 181 238 305 364 431
#     4  11  24  43  69 102 143 191 249 299 362 443
#     4  12  23  41  69 107 142 188 238 295 371 434
#     4  12  27  48  72 106 146 188 238 303 369 438
#     4  11  26  51  73 100 140 193 249 295 363 446
#
# _framework density 21.816392
#
# number of rings (size 3 to 8) (size 9 to 14) (size 15 to 20)
#    0.000    0.500    5.833    2.500    2.333    4.000 
#    0.000    2.500    0.000    0.000    0.000    0.000 
#    0.000    0.000    0.000    0.000    0.000    0.000 
#
# Total GULP energy -268239.146642 kJ/mol
# GULP energy per Si atom -5588.315555 kJ/mol
# Density = 2.176674 g / cm^3
# Si number density = 21.816392 Si / 1000 Ang^3
#
#
#
# Elastic Constant Matrix: (Units=GPa)
#
#
# Indices 1 2 3 4 5 6 
#
# 1 166.7087 42.7489 60.5085 0.0000 0.0000 0.0000
# 2 42.7489 136.3070 46.2883 0.0000 0.0000 0.0000
# 3 60.5085 46.2883 112.3107 0.0000 0.0000 0.0000
# 4 0.0000 0.0000 0.0000 19.5187 0.0000 0.0000
# 5 0.0000 0.0000 0.0000 0.0000 38.3575 0.0000
# 6 0.0000 0.0000 0.0000 0.0000 0.0000 -15.6293
#
#
#
# Elastic Compliance Matrix: (Units=1/GPa)
#
#
# Indices 1 2 3 4 5 6 
#
# 1 0.007610 -0.001156 -0.003624 0.000000 0.000000 0.000000
# 2 -0.001156 0.008706 -0.002965 0.000000 0.000000 0.000000
# 3 -0.003624 -0.002965 0.012078 0.000000 0.000000 0.000000
# 4 0.000000 0.000000 0.000000 0.051233 0.000000 0.000000
# 5 0.000000 0.000000 0.000000 0.000000 0.026071 0.000000
# 6 0.000000 0.000000 0.000000 0.000000 0.000000 -0.063982
#
#
# Mechanical properties :
#
#
# Convention : Reuss Voigt Hill
#
# Bulk Modulus (GPa) = 77.49282 79.37976 78.43629
# Shear Modulus (GPa) = 81.29213 26.16810 53.73012
#
# Velocity S-wave (km/s) = 6.11088 3.46709 4.96808
# Velocity P-wave (km/s) = 9.24056 7.24514 8.30301
#
# Compressibility (1/GPa) = 0.01290442
#
# Stress axis : x y z
#
# Youngs Moduli (GPa) = 131.40319 114.86415 82.79401
#
# Poissons Ratio (x) = 0.13281 0.30001
# Poissons Ratio (y) = 0.15193 0.24550
# Poissons Ratio (z) = 0.47614 0.34059
#
# Static dielectric constant tensor:
#      x y z
#    x 1.843910 0.000000 0.000000 
#    y 0.000000 1.847000 0.000000 
#    z 0.000000 0.000000 1.811200 
# 
# From -- ./inp_files/29337.got.cif
#   From: 2010.05.17/outbox.cif.g08.bks.cpg/sg67_15_cif.got.tgz:29337.got - 2010.06.03 18:28:57.
