data_PCOD9504951
_publ_section_title
;
Structure prediction by ZEFSAII (Michael W. Deem and Ramdas Pophale) SiO2 
 PCOD9504951
Probable space group: C M M A
;
_chemical_formula_sum "Si O2"
_cell_formula_units_Z 84
_cell_length_a 23.080366
_cell_length_b 15.020908
_cell_length_c 12.580473
_cell_angle_alpha 90.000000
_cell_angle_beta 90.000000
_cell_angle_gamma 90.000000
_cell_volume 4361.499706
_symmetry_space_group_name_H-M "C M M A"
_symmetry_group_IT_number 67
_symmetry_cell_setting 'orthorhombic'
loop_
_space_group_symop_operation_xyz
x,y,z
-x,1/2-y,z
x,-y,-z
-x,1/2+y,-z
-x,-y,-z
x,1/2+y,-z
-x,y,z
x,1/2-y,z
1/2+x,1/2+y,z
1/2-x,-y,z
1/2+x,1/2-y,-z
1/2-x,y,-z
1/2-x,1/2-y,-z
1/2+x,y,-z
1/2-x,1/2+y,z
1/2+x,-y,z
loop_
_atom_site_type_symbol
_atom_site_label
_atom_site_fract_x
_atom_site_fract_y
_atom_site_fract_z
Si Si1 0.127660 0.143764 0.728276
Si Si2 0.500000 0.602043 0.316399
Si Si3 0.372342 0.356238 0.728279
Si Si4 0.182443 0.642036 0.500002
Si Si5 0.181206 0.000003 0.120311
Si Si6 0.500000 0.250000 0.500012
Si Si7 0.500000 0.602055 0.683590
O O1 0.136305 0.250000 0.737432
O O2 0.149097 0.116919 0.608576
O O3 0.161940 0.086441 0.813657
O O4 0.060249 0.120182 0.742786
O O5 0.439750 0.620165 0.257204
O O6 0.500000 0.672958 0.409607
O O7 0.500000 0.499995 0.352621
O O8 0.363706 0.250000 0.737428
O O9 0.350904 0.383083 0.608580
O O10 0.338056 0.413549 0.813663
O O11 0.182751 0.750000 0.500004
O O12 0.250000 0.612760 0.500000
O O13 0.250000 0.000000 0.115211
O O14 0.157806 0.000000 0.000000
O O15 0.500000 0.327041 0.409629
#
# Coordination Sequence:
#
# PCOD9504951 Si02
#       7
#    16   8  16  16  16   4   8
#     4  11  22  41  67  96 133 171 216 270 333 402
#     4  12  23  39  63  97 136 179 219 261 328 396
#     4  11  22  41  67  96 133 171 216 270 333 402
#     4   9  19  34  57  91 128 166 206 254 318 390
#     4  11  26  46  68  95 126 170 229 281 329 388
#     4  12  22  36  60 102 144 176 218 256 304 410
#     4  12  23  39  63  97 136 179 219 261 328 396
#
# _framework density 19.259429000000001
#
# number of rings (size 3 to 8) (size 9 to 14) (size 15 to 20)
#    0.000    1.143    3.810    2.571    2.667    3.810 
#    0.000    5.714    0.000    2.286    0.000    0.000 
#    0.000    0.000    0.000    0.000    0.000    0.000 
#
# Total GULP energy -234062.974118 kJ/mol
# GULP energy per Si atom -5572.927955 kJ/mol
# Density = 1.921559 g / cm^3
# Si number density = 19.259429 Si / 1000 Ang^3
#
#
#
# Elastic Constant Matrix: (Units=GPa)
#
#
# Indices 1 2 3 4 5 6 
#
# 1 123.3275 23.1764 50.4804 0.0000 0.0000 0.0000
# 2 23.1764 163.2044 61.3591 0.0000 0.0000 0.0000
# 3 50.4804 61.3591 136.2539 0.0000 0.0000 0.0000
# 4 0.0000 0.0000 0.0000 11.2459 0.0000 0.0000
# 5 0.0000 0.0000 0.0000 0.0000 -5.3584 0.0000
# 6 0.0000 0.0000 0.0000 0.0000 0.0000 -35.2619
#
#
#
# Elastic Compliance Matrix: (Units=1/GPa)
#
#
# Indices 1 2 3 4 5 6 
#
# 1 0.009558 -0.000031 -0.003527 0.000000 0.000000 0.000000
# 2 -0.000031 0.007376 -0.003310 0.000000 0.000000 0.000000
# 3 -0.003527 -0.003310 0.010137 0.000000 0.000000 0.000000
# 4 0.000000 0.000000 0.000000 0.088921 0.000000 0.000000
# 5 0.000000 0.000000 0.000000 0.000000 -0.186622 0.000000
# 6 0.000000 0.000000 0.000000 0.000000 0.000000 -0.028359
#
#
# Mechanical properties :
#
#
# Convention : Reuss Voigt Hill
#
# Bulk Modulus (GPa) = 74.99649 76.97973 75.98811
# Shear Modulus (GPa) = -61.87547 13.30977 -24.28285
#
# Velocity S-wave (km/s) = -5.67425 2.63169 -3.55467
# Velocity P-wave (km/s) = 1.97606 7.02076 4.76373
#
# Compressibility (1/GPa) = 0.01333396
#
# Stress axis : x y z
#
# Youngs Moduli (GPa) = 104.62373 135.57076 98.65221
#
# Poissons Ratio (x) = 0.00424 0.34795
# Poissons Ratio (y) = 0.00327 0.32655
# Poissons Ratio (z) = 0.36901 0.44876
#
# Static dielectric constant tensor:
#      x y z
#    x 2.100400 0.000000 0.000000 
#    y 0.000000 1.661920 0.000000 
#    z 0.000000 0.000000 1.632170 
# 
# From -- ./inp_files/21814.got.cif
#   From: 2010.05.17/outbox.cif.g08.bks.cpg/sg67_11_cif.got.tgz:21814.got - 2010.06.03 18:28:57.
