data_PCOD9504967
_publ_section_title
;
Structure prediction by ZEFSAII (Michael W. Deem and Ramdas Pophale) SiO2 
 PCOD9504967
Probable space group: C M M A
;
_chemical_formula_sum "Si O2"
_cell_formula_units_Z 72
_cell_length_a 14.326331
_cell_length_b 25.968259
_cell_length_c 9.947396
_cell_angle_alpha 90.000000
_cell_angle_beta 90.000000
_cell_angle_gamma 90.000000
_cell_volume 3700.728480
_symmetry_space_group_name_H-M "C M M A"
_symmetry_group_IT_number 67
_symmetry_cell_setting 'orthorhombic'
loop_
_space_group_symop_operation_xyz
x,y,z
-x,1/2-y,z
x,-y,-z
-x,1/2+y,-z
-x,-y,-z
x,1/2+y,-z
-x,y,z
x,1/2-y,z
1/2+x,1/2+y,z
1/2-x,-y,z
1/2+x,1/2-y,-z
1/2-x,y,-z
1/2-x,1/2-y,-z
1/2+x,y,-z
1/2-x,1/2+y,z
1/2+x,-y,z
loop_
_atom_site_type_symbol
_atom_site_label
_atom_site_fract_x
_atom_site_fract_y
_atom_site_fract_z
Si Si1 0.356468 0.518663 0.646193
Si Si2 0.000000 0.353235 0.195488
Si Si3 0.796769 0.689962 0.854708
Si Si4 0.677453 0.362944 0.377215
Si Si5 0.000000 0.525776 0.853613
Si Si6 0.500000 0.189021 0.504668
O O1 0.391394 0.500000 0.500000
O O2 0.250000 0.500000 0.654621
O O3 0.361138 0.580194 0.652090
O O4 0.412312 0.493586 0.767176
O O5 0.904118 0.327934 0.144364
O O6 0.000000 0.412519 0.150641
O O7 0.000000 0.343912 0.357061
O O8 0.794355 0.750000 0.816007
O O9 0.736247 0.658503 0.747310
O O10 0.750000 0.684035 0.000000
O O11 0.750000 0.367631 0.500000
O O12 0.592339 0.326456 0.421808
O O13 0.000000 0.500000 0.000000
O O14 0.500000 0.250000 0.535842
#
# Coordination Sequence:
#
# PCOD9504967 Si02
#       6
#    16   8  16  16   8   8
#     4  11  22  44  68  97 130 175 217 271 331 384
#     4  12  24  45  68  99 133 176 224 274 337 394
#     4  11  26  45  70  99 138 180 219 274 335 401
#     4  12  23  42  70 101 134 175 228 274 329 394
#     4  12  28  43  65  99 134 174 219 270 332 398
#     4  12  25  40  70 104 135 174 222 284 332 388
#
# _framework density 19.455628999999998
#
# number of rings (size 3 to 8) (size 9 to 14) (size 15 to 20)
#    0.000    0.444    4.444    5.333    3.111    2.222 
#    0.000    1.111    0.000    0.000    0.000    0.000 
#    0.000    0.000    0.000    0.000    0.000    0.000 
#
# Total GULP energy -201454.073608 kJ/mol
# GULP energy per Si atom -5595.946489 kJ/mol
# Density = 1.941135 g / cm^3
# Si number density = 19.455629 Si / 1000 Ang^3
#
#
#
# Elastic Constant Matrix: (Units=GPa)
#
#
# Indices 1 2 3 4 5 6 
#
# 1 110.1068 17.3909 29.7870 0.0000 0.0000 0.0000
# 2 17.3909 137.3702 51.0229 0.0000 0.0000 0.0000
# 3 29.7870 51.0229 87.5046 0.0000 0.0000 0.0000
# 4 0.0000 0.0000 0.0000 405.1277 0.0000 0.0000
# 5 0.0000 0.0000 0.0000 0.0000 30.7511 0.0000
# 6 0.0000 0.0000 0.0000 0.0000 0.0000 13.9570
#
#
#
# Elastic Compliance Matrix: (Units=1/GPa)
#
#
# Indices 1 2 3 4 5 6 
#
# 1 0.010003 -0.000002 -0.003404 0.000000 0.000000 0.000000
# 2 -0.000002 0.009292 -0.005417 0.000000 0.000000 0.000000
# 3 -0.003404 -0.005417 0.015745 0.000000 0.000000 0.000000
# 4 0.000000 0.000000 0.000000 0.002468 0.000000 0.000000
# 5 0.000000 0.000000 0.000000 0.000000 0.032519 0.000000
# 6 0.000000 0.000000 0.000000 0.000000 0.000000 0.071649
#
#
# Mechanical properties :
#
#
# Convention : Reuss Voigt Hill
#
# Bulk Modulus (GPa) = 57.49109 59.04259 58.26684
# Shear Modulus (GPa) = 30.28069 105.75255 68.01662
#
# Velocity S-wave (km/s) = 3.94940 7.38063 5.91910
# Velocity P-wave (km/s) = 7.10007 10.15110 8.75945
#
# Compressibility (1/GPa) = 0.01739400
#
# Stress axis : x y z
#
# Youngs Moduli (GPa) = 99.96712 107.61931 63.51022
#
# Poissons Ratio (x) = 0.00022 0.21619
# Poissons Ratio (y) = 0.00021 0.34406
# Poissons Ratio (z) = 0.34028 0.58301
#
# Static dielectric constant tensor:
#      x y z
#    x 1.662760 0.000000 0.000000 
#    y 0.000000 1.667480 0.000000 
#    z 0.000000 0.000000 1.645180 
# 
# From -- ./inp_files/8337.got.cif
#   From: 2010.05.17/outbox.cif.g08.bks.cpg/sg67_5_cif.got.tgz:8337.got - 2010.06.03 18:28:57.
