data_PCOD9504905
_publ_section_title
;
Structure prediction by ZEFSAII (Michael W. Deem and Ramdas Pophale) SiO2 
 PCOD9504905
Probable space group: C M M A
;
_chemical_formula_sum "Si O2"
_cell_formula_units_Z 104
_cell_length_a 8.858907
_cell_length_b 25.586371
_cell_length_c 31.298466
_cell_angle_alpha 90.000000
_cell_angle_beta 90.000000
_cell_angle_gamma 90.000000
_cell_volume 7094.338193
_symmetry_space_group_name_H-M "C M M A"
_symmetry_group_IT_number 67
_symmetry_cell_setting 'orthorhombic'
loop_
_space_group_symop_operation_xyz
x,y,z
-x,1/2-y,z
x,-y,-z
-x,1/2+y,-z
-x,-y,-z
x,1/2+y,-z
-x,y,z
x,1/2-y,z
1/2+x,1/2+y,z
1/2-x,-y,z
1/2+x,1/2-y,-z
1/2-x,y,-z
1/2-x,1/2-y,-z
1/2+x,y,-z
1/2-x,1/2+y,z
1/2+x,-y,z
loop_
_atom_site_type_symbol
_atom_site_label
_atom_site_fract_x
_atom_site_fract_y
_atom_site_fract_z
Si Si1 0.175647 0.313377 0.868126
Si Si2 0.317196 0.250000 0.547667
Si Si3 0.818879 0.687264 0.685410
Si Si4 0.317456 0.942566 0.453603
Si Si5 0.181099 0.151356 0.598674
Si Si6 0.823478 0.813345 0.780595
Si Si7 0.324082 0.686639 0.043978
O O1 0.194011 0.250000 0.867564
O O2 0.240312 0.332612 0.822939
O O3 0.254669 0.332408 0.911412
O O4 0.000000 0.324760 0.870814
O O5 0.500000 0.250000 0.547237
O O6 0.250000 0.250000 0.500000
O O7 0.254511 0.199359 0.572386
O O8 0.795906 0.750000 0.681898
O O9 0.728415 0.659940 0.647750
O O10 0.772151 0.670139 0.733274
O O11 0.000000 0.678729 0.680921
O O12 0.500000 0.943672 0.455056
O O13 0.250000 0.927230 0.500000
O O14 0.255105 0.901075 0.419893
O O15 0.250000 0.000000 0.444680
O O16 0.000000 0.151235 0.593627
O O17 0.811794 0.750000 0.780183
O O18 0.000000 0.825898 0.784518
O O19 0.500000 0.675253 0.043149
O O20 0.305727 0.750000 0.044129
O O21 0.250000 0.667550 0.000000
#
# Coordination Sequence:
#
# PCOD9504905 Si02
#       7
#    16   8  16  16  16  16  16
#     4   9  15  21  29  42  59  80 109 146 187 233
#     4  12  24  38  52  70  96 124 152 182 217 258
#     4   9  17  30  46  63  86 115 144 174 212 255
#     4  11  22  39  59  78  98 121 149 183 217 256
#     4  12  23  35  51  74  98 123 151 181 218 262
#     4   8  14  24  37  51  68  94 125 157 194 239
#     4   9  15  21  28  37  51  72 100 138 185 236
#
# _framework density 14.659577000000001
#
# number of rings (size 3 to 8) (size 9 to 14) (size 15 to 20)
#    0.000    2.154    0.769    6.231    0.000    4.308 
#    0.000    1.538    0.000    0.000    0.000    0.000 
#    0.000    0.000    0.000    0.000    0.000    0.000 
#
# Total GULP energy -289809.254116 kJ/mol
# GULP energy per Si atom -5573.254887 kJ/mol
# Density = 1.462621 g / cm^3
# Si number density = 14.659577 Si / 1000 Ang^3
#
#
#
# Elastic Constant Matrix: (Units=GPa)
#
#
# Indices 1 2 3 4 5 6 
#
# 1 70.1321 23.3209 74.5633 0.0000 0.0000 0.0000
# 2 23.3209 23.1626 33.7950 0.0000 0.0000 0.0000
# 3 74.5633 33.7950 163.0602 0.0000 0.0000 0.0000
# 4 0.0000 0.0000 0.0000 3.3696 0.0000 0.0000
# 5 0.0000 0.0000 0.0000 0.0000 32.5980 0.0000
# 6 0.0000 0.0000 0.0000 0.0000 0.0000 12.6684
#
#
#
# Elastic Compliance Matrix: (Units=1/GPa)
#
#
# Indices 1 2 3 4 5 6 
#
# 1 0.031050 -0.015118 -0.011065 0.000000 0.000000 0.000000
# 2 -0.015118 0.069248 -0.007439 0.000000 0.000000 0.000000
# 3 -0.011065 -0.007439 0.012734 0.000000 0.000000 0.000000
# 4 0.000000 0.000000 0.000000 0.296773 0.000000 0.000000
# 5 0.000000 0.000000 0.000000 0.000000 0.030677 0.000000
# 6 0.000000 0.000000 0.000000 0.000000 0.000000 0.078936
#
#
# Mechanical properties :
#
#
# Convention : Reuss Voigt Hill
#
# Bulk Modulus (GPa) = 21.83959 57.74592 39.79276
# Shear Modulus (GPa) = 8.30667 18.03891 13.17279
#
# Velocity S-wave (km/s) = 2.38300 3.51168 3.00088
# Velocity P-wave (km/s) = 4.74360 7.47792 6.26183
#
# Compressibility (1/GPa) = 0.04578840
#
# Stress axis : x y z
#
# Youngs Moduli (GPa) = 32.20567 14.44081 78.52794
#
# Poissons Ratio (x) = 0.21832 0.86893
# Poissons Ratio (y) = 0.48689 0.58416
# Poissons Ratio (z) = 0.35636 0.10742
#
# Static dielectric constant tensor:
#      x y z
#    x 1.487980 0.000000 0.000000 
#    y 0.000000 1.455990 0.000000 
#    z 0.000000 0.000000 1.518940 
# 
# From -- ./inp_files/45401.got.cif
#   From: 2010.05.17/outbox.cif.g08.bks.cpg/sg67_23_cif.got.tgz:45401.got - 2010.06.03 18:28:57.
