data_PCOD9504842
_publ_section_title
;
Structure prediction by ZEFSAII (Michael W. Deem and Ramdas Pophale) SiO2 
 PCOD9504842
Probable space group: C M M A
;
_chemical_formula_sum "Si O2"
_cell_formula_units_Z 80
_cell_length_a 10.061295
_cell_length_b 14.876600
_cell_length_c 25.251559
_cell_angle_alpha 90.000000
_cell_angle_beta 90.000000
_cell_angle_gamma 90.000000
_cell_volume 3779.599343
_symmetry_space_group_name_H-M "C M M A"
_symmetry_group_IT_number 67
_symmetry_cell_setting 'orthorhombic'
loop_
_space_group_symop_operation_xyz
x,y,z
-x,1/2-y,z
x,-y,-z
-x,1/2+y,-z
-x,-y,-z
x,1/2+y,-z
-x,y,z
x,1/2-y,z
1/2+x,1/2+y,z
1/2-x,-y,z
1/2+x,1/2-y,-z
1/2-x,y,-z
1/2-x,1/2-y,-z
1/2+x,y,-z
1/2-x,1/2+y,z
1/2+x,-y,z
loop_
_atom_site_type_symbol
_atom_site_label
_atom_site_fract_x
_atom_site_fract_y
_atom_site_fract_z
Si Si1 0.338921 0.410031 0.257915
Si Si2 0.238397 0.890177 0.372380
Si Si3 0.652188 0.140308 0.954293
Si Si4 0.349824 0.356634 0.835126
Si Si5 0.000000 0.608511 0.446383
Si Si6 0.500000 0.389212 0.567717
O O1 0.500000 0.420336 0.255161
O O2 0.250000 0.500000 0.261981
O O3 0.302483 0.361494 0.313321
O O4 0.270671 0.370182 0.205558
O O5 0.127729 0.862338 0.414049
O O6 0.375783 0.860510 0.397326
O O7 0.250000 0.000000 0.371866
O O8 0.500000 0.116609 0.966312
O O9 0.659805 0.250000 0.953733
O O10 0.681301 0.108985 0.894296
O O11 0.750000 0.108373 0.000000
O O12 0.500000 0.390597 0.819092
O O13 0.364075 0.250000 0.839590
O O14 0.000000 0.639989 0.506741
O O15 0.000000 0.498668 0.440416
#
# Coordination Sequence:
#
# PCOD9504842 Si02
#       6
#    16  16  16  16   8   8
#     4  11  22  34  51  72 101 139 175 212 252 302
#     4   9  17  26  39  61  89 124 161 199 244 300
#     4   8  14  26  46  73 102 131 161 198 246 295
#     4   9  19  35  54  77 106 136 169 210 252 297
#     4   9  14  26  36  58  89 119 156 197 246 296
#     4   9  16  22  40  58  85 123 156 195 248 298
#
# _framework density 21.166264999999999
#
# number of rings (size 3 to 8) (size 9 to 14) (size 15 to 20)
#    0.000    2.800    1.000    2.400    5.600    3.600 
#    0.000    2.000    0.000    0.600    0.000    4.200 
#    0.000    4.800    0.000    0.000    0.000    0.000 
#
# Total GULP energy -222821.563506 kJ/mol
# GULP energy per Si atom -5570.539088 kJ/mol
# Density = 2.111809 g / cm^3
# Si number density = 21.166265 Si / 1000 Ang^3
#
#
#
# Elastic Constant Matrix: (Units=GPa)
#
#
# Indices 1 2 3 4 5 6 
#
# 1 233.6830 12.3504 148.2638 0.0000 0.0000 0.0000
# 2 12.3504 42.3301 12.4063 0.0000 0.0000 0.0000
# 3 148.2638 12.4063 207.7577 0.0000 0.0000 0.0000
# 4 0.0000 0.0000 0.0000 8.1030 0.0000 0.0000
# 5 0.0000 0.0000 0.0000 0.0000 36.9588 0.0000
# 6 0.0000 0.0000 0.0000 0.0000 0.0000 15.2918
#
#
#
# Elastic Compliance Matrix: (Units=1/GPa)
#
#
# Indices 1 2 3 4 5 6 
#
# 1 0.007838 -0.000659 -0.005554 0.000000 0.000000 0.000000
# 2 -0.000659 0.024100 -0.000969 0.000000 0.000000 0.000000
# 3 -0.005554 -0.000969 0.008835 0.000000 0.000000 0.000000
# 4 0.000000 0.000000 0.000000 0.123411 0.000000 0.000000
# 5 0.000000 0.000000 0.000000 0.000000 0.027057 0.000000
# 6 0.000000 0.000000 0.000000 0.000000 0.000000 0.065394
#
#
# Mechanical properties :
#
#
# Convention : Reuss Voigt Hill
#
# Bulk Modulus (GPa) = 37.86604 92.20131 65.03367
# Shear Modulus (GPa) = 17.86977 32.78742 25.32859
#
# Velocity S-wave (km/s) = 2.90876 3.94006 3.46301
# Velocity P-wave (km/s) = 5.40461 8.02208 6.83972
#
# Compressibility (1/GPa) = 0.02640889
#
# Stress axis : x y z
#
# Youngs Moduli (GPa) = 127.58233 41.49362 113.18828
#
# Poissons Ratio (x) = 0.02735 0.62867
# Poissons Ratio (y) = 0.08408 0.10966
# Poissons Ratio (z) = 0.70862 0.04020
#
# Static dielectric constant tensor:
#      x y z
#    x 1.669150 0.000000 0.000000 
#    y 0.000000 1.893000 0.000000 
#    z 0.000000 0.000000 1.782200 
# 
# From -- ./inp_files/43363.got.cif
#   From: 2010.05.17/outbox.cif.g08.bks.cpg/sg67_22_cif.got.tgz:43363.got - 2010.06.03 18:28:57.
