data_PCOD9504441
_publ_section_title
;
Structure prediction by ZEFSAII (Michael W. Deem and Ramdas Pophale) SiO2 
 PCOD9504441
Probable space group: C M M A
;
_chemical_formula_sum "Si O2"
_cell_formula_units_Z 68
_cell_length_a 13.811060
_cell_length_b 9.977528
_cell_length_c 22.513015
_cell_angle_alpha 90.000000
_cell_angle_beta 90.000000
_cell_angle_gamma 90.000000
_cell_volume 3102.298822
_symmetry_space_group_name_H-M "C M M A"
_symmetry_group_IT_number 67
_symmetry_cell_setting 'orthorhombic'
loop_
_space_group_symop_operation_xyz
x,y,z
-x,1/2-y,z
x,-y,-z
-x,1/2+y,-z
-x,-y,-z
x,1/2+y,-z
-x,y,z
x,1/2-y,z
1/2+x,1/2+y,z
1/2-x,-y,z
1/2+x,1/2-y,-z
1/2-x,y,-z
1/2-x,1/2-y,-z
1/2+x,y,-z
1/2-x,1/2+y,z
1/2+x,-y,z
loop_
_atom_site_type_symbol
_atom_site_label
_atom_site_fract_x
_atom_site_fract_y
_atom_site_fract_z
Si Si1 0.250000 0.500000 0.500000
Si Si2 0.385926 0.899923 0.399505
Si Si3 0.117392 0.097904 0.707083
Si Si4 0.117817 0.903326 0.813050
Si Si5 0.882364 0.402163 0.052502
O O1 0.319695 0.415560 0.542908
O O2 0.500000 0.916591 0.414497
O O3 0.375229 0.750000 0.373918
O O4 0.359482 0.012599 0.351516
O O5 0.154313 0.250000 0.705722
O O6 0.000000 0.104865 0.708571
O O7 0.146553 0.012503 0.764570
O O8 0.150152 0.750000 0.800884
O O9 0.145530 0.940608 0.880396
O O10 0.000000 0.899169 0.811502
O O11 0.849961 0.250000 0.042001
O O12 0.000000 0.400689 0.052260
O O13 0.852806 0.500000 0.000000
#
# Coordination Sequence:
#
# PCOD9504441 Si02
#       5
#     4  16  16  16  16
#     4  12  24  40  64  92 114 144 188 230 266 322
#     4  10  22  40  61  85 115 150 185 225 277 333
#     4   9  17  29  47  71  97 128 171 222 270 319
#     4   8  13  22  36  54  80 118 164 212 265 323
#     4   8  13  19  27  43  71 110 156 206 259 315
#
# _framework density 21.919229000000001
#
# number of rings (size 3 to 8) (size 9 to 14) (size 15 to 20)
#    0.000    3.059    0.000    2.824    0.000    5.647 
#    0.000    7.059    0.000    0.000    0.000    0.000 
#    0.000    0.000    0.000    1.059    0.000   18.588 
#
# Total GULP energy -189963.908703 kJ/mol
# GULP energy per Si atom -5587.173785 kJ/mol
# Density = 2.186934 g / cm^3
# Si number density = 21.919229 Si / 1000 Ang^3
#
#
#
# Elastic Constant Matrix: (Units=GPa)
#
#
# Indices 1 2 3 4 5 6 
#
# 1 102.0197 37.3051 35.6763 0.0000 0.0000 0.0000
# 2 37.3051 174.5757 126.3526 0.0000 0.0000 0.0000
# 3 35.6763 126.3526 184.3759 0.0000 0.0000 0.0000
# 4 0.0000 0.0000 0.0000 41.1346 0.0000 0.0000
# 5 0.0000 0.0000 0.0000 0.0000 -25.6297 0.0000
# 6 0.0000 0.0000 0.0000 0.0000 0.0000 -10.4758
#
#
#
# Elastic Compliance Matrix: (Units=1/GPa)
#
#
# Indices 1 2 3 4 5 6 
#
# 1 0.010725 -0.001567 -0.001001 0.000000 0.000000 0.000000
# 2 -0.001567 0.011594 -0.007642 0.000000 0.000000 0.000000
# 3 -0.001001 -0.007642 0.010855 0.000000 0.000000 0.000000
# 4 0.000000 0.000000 0.000000 0.024310 0.000000 0.000000
# 5 0.000000 0.000000 0.000000 0.000000 -0.039017 0.000000
# 6 0.000000 0.000000 0.000000 0.000000 0.000000 -0.095458
#
#
# Mechanical properties :
#
#
# Convention : Reuss Voigt Hill
#
# Bulk Modulus (GPa) = 78.41492 95.51548 86.96520
# Shear Modulus (GPa) = -95.57014 18.44831 -38.56091
#
# Velocity S-wave (km/s) = -6.61027 2.90427 -4.19887
# Velocity P-wave (km/s) = 4.73379 7.41061 4.03164
#
# Compressibility (1/GPa) = 0.01275267
#
# Stress axis : x y z
#
# Youngs Moduli (GPa) = 93.23792 86.24867 92.12530
#
# Poissons Ratio (x) = 0.13516 0.09225
# Poissons Ratio (y) = 0.14612 0.70406
# Poissons Ratio (z) = 0.09336 0.65915
#
# Static dielectric constant tensor:
#      x y z
#    x 1.850090 0.000000 0.000000 
#    y 0.000000 1.770390 0.000000 
#    z 0.000000 0.000000 1.758530 
# 
# From -- ./inp_files/42098.got.cif
#   From: 2010.05.17/outbox.cif.g08.bks.cpg/sg67_22_cif.got.tgz:42098.got - 2010.06.03 18:28:57.
