data_PCOD9504018
_publ_section_title
;
Structure prediction by ZEFSAII (Michael W. Deem and Ramdas Pophale) SiO2 
 PCOD9504018
Probable space group: C M M A
;
_chemical_formula_sum "Si O2"
_cell_formula_units_Z 64
_cell_length_a 8.546286
_cell_length_b 27.791981
_cell_length_c 11.381996
_cell_angle_alpha 90.000000
_cell_angle_beta 90.000000
_cell_angle_gamma 90.000000
_cell_volume 2703.431409
_symmetry_space_group_name_H-M "C M M A"
_symmetry_group_IT_number 67
_symmetry_cell_setting 'orthorhombic'
loop_
_space_group_symop_operation_xyz
x,y,z
-x,1/2-y,z
x,-y,-z
-x,1/2+y,-z
-x,-y,-z
x,1/2+y,-z
-x,y,z
x,1/2-y,z
1/2+x,1/2+y,z
1/2-x,-y,z
1/2+x,1/2-y,-z
1/2-x,y,-z
1/2-x,1/2-y,-z
1/2+x,y,-z
1/2-x,1/2+y,z
1/2+x,-y,z
loop_
_atom_site_type_symbol
_atom_site_label
_atom_site_fract_x
_atom_site_fract_y
_atom_site_fract_z
Si Si1 0.825698 0.692936 0.615108
Si Si2 0.680397 0.094968 0.876510
Si Si3 0.820692 0.305363 0.854133
Si Si4 0.312639 0.054400 0.369822
O O1 0.847002 0.750000 0.597039
O O2 0.750000 0.671564 0.500000
O O3 0.695953 0.690152 0.714607
O O4 0.000000 0.673514 0.643740
O O5 0.500000 0.081751 0.870050
O O6 0.702581 0.152766 0.889839
O O7 0.758617 0.080841 0.751363
O O8 0.750000 0.074759 0.000000
O O9 0.776060 0.250000 0.880806
O O10 0.000000 0.313618 0.890010
O O11 0.500000 0.055768 0.374041
O O12 0.250000 0.069380 0.500000
O O13 0.250000 0.000000 0.355556
#
# Coordination Sequence:
#
# PCOD9504018 Si02
#       4
#    16  16  16  16
#     4   9  16  27  45  71 104 145 196 256 320 384
#     4  12  26  45  68  99 138 182 232 287 347 410
#     4  10  21  38  59  85 121 169 225 283 341 402
#     4  11  23  45  76 111 146 182 225 275 337 409
#
# _framework density 23.673615999999999
#
# number of rings (size 3 to 8) (size 9 to 14) (size 15 to 20)
#    0.000    1.500    0.000    6.750    0.000    6.500 
#    0.000    7.500    0.000    0.000    0.000    0.000 
#    0.000    0.000    0.000    0.000    0.000    0.000 
#
# Total GULP energy -178526.550159 kJ/mol
# GULP energy per Si atom -5578.954692 kJ/mol
# Density = 2.361973 g / cm^3
# Si number density = 23.673616 Si / 1000 Ang^3
#
#
#
# Elastic Constant Matrix: (Units=GPa)
#
#
# Indices 1 2 3 4 5 6 
#
# 1 181.2807 35.5430 89.8723 0.0000 0.0000 0.0000
# 2 35.5430 95.9002 37.0621 0.0000 0.0000 0.0000
# 3 89.8723 37.0621 217.5523 0.0000 0.0000 0.0000
# 4 0.0000 0.0000 0.0000 -10.1788 0.0000 0.0000
# 5 0.0000 0.0000 0.0000 0.0000 40.0977 0.0000
# 6 0.0000 0.0000 0.0000 0.0000 0.0000 24.8058
#
#
#
# Elastic Compliance Matrix: (Units=1/GPa)
#
#
# Indices 1 2 3 4 5 6 
#
# 1 0.007164 -0.001618 -0.002684 0.000000 0.000000 0.000000
# 2 -0.001618 0.011528 -0.001295 0.000000 0.000000 0.000000
# 3 -0.002684 -0.001295 0.005926 0.000000 0.000000 0.000000
# 4 0.000000 0.000000 0.000000 -0.098243 0.000000 0.000000
# 5 0.000000 0.000000 0.000000 0.000000 0.024939 0.000000
# 6 0.000000 0.000000 0.000000 0.000000 0.000000 0.040313
#
#
# Mechanical properties :
#
#
# Convention : Reuss Voigt Hill
#
# Bulk Modulus (GPa) = 74.49753 91.07644 82.78698
# Shear Modulus (GPa) = 685.30561 33.09532 359.20046
#
# Velocity S-wave (km/s) = 17.03259 3.74302 12.33125
# Velocity P-wave (km/s) = 20.45359 7.56541 15.42052
#
# Compressibility (1/GPa) = 0.01342326
#
# Stress axis : x y z
#
# Youngs Moduli (GPa) = 139.58451 86.74663 168.74692
#
# Poissons Ratio (x) = 0.14035 0.45290
# Poissons Ratio (y) = 0.22584 0.21861
# Poissons Ratio (z) = 0.37463 0.11238
#
# Static dielectric constant tensor:
#      x y z
#    x 1.890540 0.000000 0.000000 
#    y 0.000000 1.933410 0.000000 
#    z 0.000000 0.000000 2.072360 
# 
# From -- ./inp_files/15803.got.cif
#   From: 2010.05.17/outbox.cif.g08.bks.cpg/sg67_8_cif.got.tgz:15803.got - 2010.06.03 18:28:57.
