data_PCOD9504186
_publ_section_title
;
Structure prediction by ZEFSAII (Michael W. Deem and Ramdas Pophale) SiO2 
 PCOD9504186
Probable space group: C M M A
;
_chemical_formula_sum "Si O2"
_cell_formula_units_Z 116
_cell_length_a 21.737021
_cell_length_b 16.677590
_cell_length_c 16.838417
_cell_angle_alpha 90.000000
_cell_angle_beta 90.000000
_cell_angle_gamma 90.000000
_cell_volume 6104.281858
_symmetry_space_group_name_H-M "C M M A"
_symmetry_group_IT_number 67
_symmetry_cell_setting 'orthorhombic'
loop_
_space_group_symop_operation_xyz
x,y,z
-x,1/2-y,z
x,-y,-z
-x,1/2+y,-z
-x,-y,-z
x,1/2+y,-z
-x,y,z
x,1/2-y,z
1/2+x,1/2+y,z
1/2-x,-y,z
1/2+x,1/2-y,-z
1/2-x,y,-z
1/2-x,1/2-y,-z
1/2+x,y,-z
1/2-x,1/2+y,z
1/2+x,-y,z
loop_
_atom_site_type_symbol
_atom_site_label
_atom_site_fract_x
_atom_site_fract_y
_atom_site_fract_z
Si Si1 0.197710 0.347356 0.064216
Si Si2 0.678416 0.096459 0.496761
Si Si3 0.387977 0.624269 0.339632
Si Si4 0.572621 0.527342 0.756384
Si Si5 0.571016 0.559218 0.075015
Si Si6 0.000000 0.750000 0.667058
Si Si7 0.848365 0.346120 0.675603
Si Si8 0.729218 0.657009 0.236010
O O1 0.193648 0.250000 0.064114
O O2 0.127958 0.380778 0.058134
O O3 0.223290 0.378230 0.148751
O O4 0.250000 0.369915 0.000000
O O5 0.750000 0.123646 0.500000
O O6 0.641154 0.126355 0.573021
O O7 0.647791 0.126380 0.415479
O O8 0.678394 0.000000 0.500000
O O9 0.405186 0.535386 0.310410
O O10 0.446433 0.680477 0.333193
O O11 0.335536 0.652235 0.279053
O O12 0.500000 0.536819 0.751434
O O13 0.585283 0.489089 0.843305
O O14 0.604588 0.610758 0.734731
O O15 0.500000 0.592326 0.083879
O O16 0.569392 0.500000 0.000000
O O17 0.853297 0.250000 0.677966
O O18 0.781825 0.376261 0.707201
O O19 0.745685 0.750000 0.224353
#
# Coordination Sequence:
#
# PCOD9504186 Si02
#       8
#    16  16  16  16  16   4  16  16
#     4  10  22  40  63  98 136 167 208 276 339 393
#     4  11  23  40  66  96 129 170 223 277 332 388
#     4  12  22  42  65  98 132 165 218 270 335 394
#     4  11  24  45  66  93 133 174 219 279 327 392
#     4  10  23  43  65  93 129 173 221 267 323 397
#     4  12  28  40  68 104 126 176 208 272 350 400
#     4  11  25  43  65  95 128 182 226 273 336 397
#     4  10  21  39  64  94 131 165 216 276 324 390
#
# _framework density 19.003053999999999
#
# number of rings (size 3 to 8) (size 9 to 14) (size 15 to 20)
#    0.000    1.241    5.517    0.000    2.897    1.655 
#    1.241    1.034    0.000    2.483    0.000    0.000 
#    0.000    0.000    0.000    0.000    0.000    0.000 
#
# Total GULP energy -323087.216871 kJ/mol
# GULP energy per Si atom -5570.469256 kJ/mol
# Density = 1.895980 g / cm^3
# Si number density = 19.003054 Si / 1000 Ang^3
#
#
#
# Elastic Constant Matrix: (Units=GPa)
#
#
# Indices 1 2 3 4 5 6 
#
# 1 98.2881 34.6951 79.4107 0.0000 0.0000 0.0000
# 2 34.6951 64.4069 27.5388 0.0000 0.0000 0.0000
# 3 79.4107 27.5388 144.2177 0.0000 0.0000 0.0000
# 4 0.0000 0.0000 0.0000 20.4553 0.0000 0.0000
# 5 0.0000 0.0000 0.0000 0.0000 -0.8027 0.0000
# 6 0.0000 0.0000 0.0000 0.0000 0.0000 40.6842
#
#
#
# Elastic Compliance Matrix: (Units=1/GPa)
#
#
# Indices 1 2 3 4 5 6 
#
# 1 0.020785 -0.006863 -0.010134 0.000000 0.000000 0.000000
# 2 -0.006863 0.019173 0.000118 0.000000 0.000000 0.000000
# 3 -0.010134 0.000118 0.012492 0.000000 0.000000 0.000000
# 4 0.000000 0.000000 0.000000 0.048887 0.000000 0.000000
# 5 0.000000 0.000000 0.000000 0.000000 -1.245844 0.000000
# 6 0.000000 0.000000 0.000000 0.000000 0.000000 0.024580
#
#
# Mechanical properties :
#
#
# Convention : Reuss Voigt Hill
#
# Bulk Modulus (GPa) = 53.50337 65.57801 59.54069
# Shear Modulus (GPa) = -4.62989 23.08524 9.22768
#
# Velocity S-wave (km/s) = -1.56259 3.48920 2.20600
# Velocity P-wave (km/s) = 4.99607 7.12859 6.15539
#
# Compressibility (1/GPa) = 0.01869041
#
# Stress axis : x y z
#
# Youngs Moduli (GPa) = 48.11263 52.15674 80.05409
#
# Poissons Ratio (x) = 0.35797 0.81127
# Poissons Ratio (y) = 0.33021 -0.00945
# Poissons Ratio (z) = 0.48758 -0.00615
#
# Static dielectric constant tensor:
#      x y z
#    x 1.655510 0.000000 0.000000 
#    y 0.000000 1.682910 0.000000 
#    z 0.000000 0.000000 1.684010 
# 
# From -- ./inp_files/34342.got.cif
#   From: 2010.05.17/outbox.cif.g08.bks.cpg/sg67_18_cif.got.tgz:34342.got - 2010.06.03 18:28:57.
