data_PCOD9504930
_publ_section_title
;
Structure prediction by ZEFSAII (Michael W. Deem and Ramdas Pophale) SiO2 
 PCOD9504930
Probable space group: C M M A
;
_chemical_formula_sum "Si O2"
_cell_formula_units_Z 96
_cell_length_a 17.730792
_cell_length_b 11.663449
_cell_length_c 25.621271
_cell_angle_alpha 90.000000
_cell_angle_beta 90.000000
_cell_angle_gamma 90.000000
_cell_volume 5298.534908
_symmetry_space_group_name_H-M "C M M A"
_symmetry_group_IT_number 67
_symmetry_cell_setting 'orthorhombic'
loop_
_space_group_symop_operation_xyz
x,y,z
-x,1/2-y,z
x,-y,-z
-x,1/2+y,-z
-x,-y,-z
x,1/2+y,-z
-x,y,z
x,1/2-y,z
1/2+x,1/2+y,z
1/2-x,-y,z
1/2+x,1/2-y,-z
1/2-x,y,-z
1/2-x,1/2-y,-z
1/2+x,y,-z
1/2-x,1/2+y,z
1/2+x,-y,z
loop_
_atom_site_type_symbol
_atom_site_label
_atom_site_fract_x
_atom_site_fract_y
_atom_site_fract_z
Si Si1 0.913562 0.750000 0.213523
Si Si2 0.090369 0.616969 0.348955
Si Si3 0.091579 0.381903 0.528844
Si Si4 0.085428 0.750000 0.089746
Si Si5 0.660126 0.485577 0.060161
Si Si6 0.839211 0.983229 0.251564
Si Si7 0.086128 0.113391 0.157230
O O1 0.920611 0.750000 0.151719
O O2 0.867382 0.861879 0.229050
O O3 0.000000 0.750000 0.234773
O O4 0.109405 0.750000 0.334743
O O5 0.110181 0.604218 0.409820
O O6 0.128891 0.525780 0.310488
O O7 0.000000 0.605227 0.344524
O O8 0.117142 0.500000 0.500000
O O9 0.115924 0.250000 0.513027
O O10 0.000000 0.380048 0.524420
O O11 0.132342 0.859948 0.074057
O O12 0.000000 0.750000 0.067929
O O13 0.750000 0.500000 0.062624
O O14 0.624741 0.566480 0.104658
O O15 0.636109 0.500000 0.000000
O O16 0.750000 0.000000 0.252330
O O17 0.874012 0.072925 0.210526
O O18 0.085817 0.250000 0.155391
O O19 0.000000 0.069224 0.158386
#
# Coordination Sequence:
#
# PCOD9504930 Si02
#       7
#     8  16  16   8  16  16  16
#     4  11  22  40  65  89 113 150 203 252 290 345
#     4   9  17  32  57  85 113 151 202 254 293 340
#     4   8  14  26  48  80 115 150 196 253 305 349
#     4  11  24  41  67  95 115 150 205 246 280 350
#     4  11  26  42  64  90 122 153 192 242 297 352
#     4  12  24  36  61  88 118 152 195 248 298 353
#     4  11  25  42  60  85 121 157 188 235 303 366
#
# _framework density 18.118216
#
# number of rings (size 3 to 8) (size 9 to 14) (size 15 to 20)
#    0.000    1.667    2.500    3.500    3.500    2.000 
#    0.000    0.833    0.000    3.500    0.000    2.333 
#    0.000    0.000    0.000    0.000    0.000    0.000 
#
# Total GULP energy -267578.448939 kJ/mol
# GULP energy per Si atom -5574.551020 kJ/mol
# Density = 1.807698 g / cm^3
# Si number density = 18.118216 Si / 1000 Ang^3
#
#
#
# Elastic Constant Matrix: (Units=GPa)
#
#
# Indices 1 2 3 4 5 6 
#
# 1 89.5153 41.4920 42.9454 0.0000 0.0000 0.0000
# 2 41.4920 112.9266 58.1736 0.0000 0.0000 0.0000
# 3 42.9454 58.1736 125.8556 0.0000 0.0000 0.0000
# 4 0.0000 0.0000 0.0000 63.8927 0.0000 0.0000
# 5 0.0000 0.0000 0.0000 0.0000 36.7158 0.0000
# 6 0.0000 0.0000 0.0000 0.0000 0.0000 36.7094
#
#
#
# Elastic Compliance Matrix: (Units=1/GPa)
#
#
# Indices 1 2 3 4 5 6 
#
# 1 0.014406 -0.003624 -0.003241 0.000000 0.000000 0.000000
# 2 -0.003624 0.012534 -0.004557 0.000000 0.000000 0.000000
# 3 -0.003241 -0.004557 0.011158 0.000000 0.000000 0.000000
# 4 0.000000 0.000000 0.000000 0.015651 0.000000 0.000000
# 5 0.000000 0.000000 0.000000 0.000000 0.027236 0.000000
# 6 0.000000 0.000000 0.000000 0.000000 0.000000 0.027241
#
#
# Mechanical properties :
#
#
# Convention : Reuss Voigt Hill
#
# Bulk Modulus (GPa) = 65.55277 68.16883 66.86080
# Shear Modulus (GPa) = 36.72309 39.84268 38.28288
#
# Velocity S-wave (km/s) = 4.50695 4.69448 4.60167
# Velocity P-wave (km/s) = 7.95881 8.19087 8.07567
#
# Compressibility (1/GPa) = 0.01525489
#
# Stress axis : x y z
#
# Youngs Moduli (GPa) = 69.41753 79.78095 89.62268
#
# Poissons Ratio (x) = 0.28909 0.29044
# Poissons Ratio (y) = 0.25154 0.40843
# Poissons Ratio (z) = 0.22496 0.36358
#
# Static dielectric constant tensor:
#      x y z
#    x 1.607460 0.000000 0.000000 
#    y 0.000000 1.631030 0.000000 
#    z 0.000000 0.000000 1.670300 
# 
# From -- ./inp_files/42182.got.cif
#   From: 2010.05.17/outbox.cif.g08.bks.cpg/sg67_22_cif.got.tgz:42182.got - 2010.06.03 18:28:57.
