data_PCOD9504717
_publ_section_title
;
Structure prediction by ZEFSAII (Michael W. Deem and Ramdas Pophale) SiO2 
 PCOD9504717
Probable space group: C M M A
;
_chemical_formula_sum "Si O2"
_cell_formula_units_Z 112
_cell_length_a 25.263720
_cell_length_b 22.798307
_cell_length_c 11.686694
_cell_angle_alpha 90.000000
_cell_angle_beta 90.000000
_cell_angle_gamma 90.000000
_cell_volume 6731.185663
_symmetry_space_group_name_H-M "C M M A"
_symmetry_group_IT_number 67
_symmetry_cell_setting 'orthorhombic'
loop_
_space_group_symop_operation_xyz
x,y,z
-x,1/2-y,z
x,-y,-z
-x,1/2+y,-z
-x,-y,-z
x,1/2+y,-z
-x,y,z
x,1/2-y,z
1/2+x,1/2+y,z
1/2-x,-y,z
1/2+x,1/2-y,-z
1/2-x,y,-z
1/2-x,1/2-y,-z
1/2+x,y,-z
1/2-x,1/2+y,z
1/2+x,-y,z
loop_
_atom_site_type_symbol
_atom_site_label
_atom_site_fract_x
_atom_site_fract_y
_atom_site_fract_z
Si Si1 0.093303 0.870752 0.764686
Si Si2 0.000000 0.319012 0.657898
Si Si3 0.938911 0.318810 0.998501
Si Si4 0.686995 0.318582 0.633876
Si Si5 0.400233 0.879732 0.779072
Si Si6 0.000000 0.680812 0.615778
Si Si7 0.812580 0.318668 0.635927
Si Si8 0.936281 0.997133 0.863568
O O1 0.082218 0.830731 0.875325
O O2 0.150707 0.858945 0.712163
O O3 0.050933 0.850524 0.669808
O O4 0.082723 0.936373 0.808316
O O5 0.948646 0.350472 0.709341
O O6 0.000000 0.323017 0.520939
O O7 0.000000 0.250000 0.689781
O O8 0.939346 0.250000 0.974139
O O9 0.000000 0.340880 0.991689
O O10 0.904253 0.351637 0.904975
O O11 0.673863 0.250000 0.656135
O O12 0.749687 0.325938 0.653211
O O13 0.676636 0.328899 0.498893
O O14 0.347332 0.860734 0.714227
O O15 0.410217 0.948342 0.797778
O O16 0.000000 0.750000 0.647267
O O17 0.825814 0.250000 0.659446
O O18 0.000000 0.001183 0.852849
O O19 0.924318 0.000000 0.000000
#
# Coordination Sequence:
#
# PCOD9504717 Si02
#       8
#    16   8  16  16  16   8  16  16
#     4  12  21  36  57  83 114 151 196 233 283 341
#     4  11  22  34  53  84 118 146 178 235 302 351
#     4  11  20  31  52  84 115 143 184 238 293 349
#     4   9  19  38  63  88 116 151 189 235 292 346
#     4  12  21  36  57  83 114 151 196 233 283 341
#     4  11  22  34  53  84 118 146 178 235 302 351
#     4   9  19  38  63  88 116 151 189 235 292 346
#     4  11  22  40  57  78 113 163 200 232 277 336
#
# _framework density 16.638971000000002
#
# number of rings (size 3 to 8) (size 9 to 14) (size 15 to 20)
#    0.000    1.286    4.286    4.286    0.000    2.286 
#    0.000    5.000    0.000    5.143    0.000    0.000 
#    0.000    0.000    0.000    0.000    0.000    0.000 
#
# Total GULP energy -312788.002228 kJ/mol
# GULP energy per Si atom -5585.500040 kJ/mol
# Density = 1.660110 g / cm^3
# Si number density = 16.638971 Si / 1000 Ang^3
#
#
#
# Elastic Constant Matrix: (Units=GPa)
#
#
# Indices 1 2 3 4 5 6 
#
# 1 62.9716 33.9796 35.3863 0.0000 0.0000 0.0000
# 2 33.9796 92.5736 32.8346 0.0000 0.0000 0.0000
# 3 35.3863 32.8346 68.1251 0.0000 0.0000 0.0000
# 4 0.0000 0.0000 0.0000 3.0293 0.0000 0.0000
# 5 0.0000 0.0000 0.0000 0.0000 28.3286 0.0000
# 6 0.0000 0.0000 0.0000 0.0000 0.0000 23.5781
#
#
#
# Elastic Compliance Matrix: (Units=1/GPa)
#
#
# Indices 1 2 3 4 5 6 
#
# 1 0.024475 -0.005397 -0.010112 0.000000 0.000000 0.000000
# 2 -0.005397 0.014220 -0.004050 0.000000 0.000000 0.000000
# 3 -0.010112 -0.004050 0.021883 0.000000 0.000000 0.000000
# 4 0.000000 0.000000 0.000000 0.330109 0.000000 0.000000
# 5 0.000000 0.000000 0.000000 0.000000 0.035300 0.000000
# 6 0.000000 0.000000 0.000000 0.000000 0.000000 0.042412
#
#
# Mechanical properties :
#
#
# Convention : Reuss Voigt Hill
#
# Bulk Modulus (GPa) = 46.59855 47.56350 47.08102
# Shear Modulus (GPa) = 9.71496 19.08518 14.40007
#
# Velocity S-wave (km/s) = 2.41896 3.39044 2.94503
# Velocity P-wave (km/s) = 5.98901 6.63132 6.31833
#
# Compressibility (1/GPa) = 0.02145989
#
# Stress axis : x y z
#
# Youngs Moduli (GPa) = 40.85870 70.32455 45.69699
#
# Poissons Ratio (x) = 0.37955 0.46207
# Poissons Ratio (y) = 0.22052 0.18508
# Poissons Ratio (z) = 0.41315 0.28483
#
# Static dielectric constant tensor:
#      x y z
#    x 1.551340 0.000000 0.000000 
#    y 0.000000 1.553720 0.000000 
#    z 0.000000 0.000000 1.549520 
# 
# From -- ./inp_files/22302.got.cif
#   From: 2010.05.17/outbox.cif.g08.bks.cpg/sg67_12_cif.got.tgz:22302.got - 2010.06.03 18:28:57.
