data_PCOD9504686
_publ_section_title
;
Structure prediction by ZEFSAII (Michael W. Deem and Ramdas Pophale) SiO2 
 PCOD9504686
Probable space group: C M M A
;
_chemical_formula_sum "Si O2"
_cell_formula_units_Z 48
_cell_length_a 13.786501
_cell_length_b 16.548350
_cell_length_c 9.802917
_cell_angle_alpha 90.000000
_cell_angle_beta 90.000000
_cell_angle_gamma 90.000000
_cell_volume 2236.475165
_symmetry_space_group_name_H-M "C M M A"
_symmetry_group_IT_number 67
_symmetry_cell_setting 'orthorhombic'
loop_
_space_group_symop_operation_xyz
x,y,z
-x,1/2-y,z
x,-y,-z
-x,1/2+y,-z
-x,-y,-z
x,1/2+y,-z
-x,y,z
x,1/2-y,z
1/2+x,1/2+y,z
1/2-x,-y,z
1/2+x,1/2-y,-z
1/2-x,y,-z
1/2-x,1/2-y,-z
1/2+x,y,-z
1/2-x,1/2+y,z
1/2+x,-y,z
loop_
_atom_site_type_symbol
_atom_site_label
_atom_site_fract_x
_atom_site_fract_y
_atom_site_fract_z
Si Si1 0.105069 0.250000 0.109233
Si Si2 0.334691 0.750000 0.387923
Si Si3 0.861219 0.913089 0.050160
Si Si4 0.000000 0.882130 0.587038
Si Si5 0.000000 0.051058 0.717500
O O1 0.188689 0.250000 0.224911
O O2 0.000000 0.250000 0.181530
O O3 0.106347 0.330173 0.019500
O O4 0.250000 0.750000 0.500000
O O5 0.402911 0.671551 0.404586
O O6 0.904370 0.915776 0.203325
O O7 0.750000 0.914868 0.000000
O O8 0.899284 0.000000 0.000000
O O9 0.000000 0.918292 0.435987
O O10 0.000000 0.953379 0.700000
#
# Coordination Sequence:
#
# PCOD9504686 Si02
#       5
#     8   8  16   8   8
#     4  12  23  42  70 100 137 188 237 296 367 427
#     4  11  25  43  68  98 140 178 235 295 354 435
#     4  11  25  42  69 101 137 181 234 301 362 429
#     4  10  24  45  68 102 133 191 234 284 362 439
#     4  11  23  45  70  94 144 180 236 295 358 429
#
# _framework density 21.462343000000001
#
# number of rings (size 3 to 8) (size 9 to 14) (size 15 to 20)
#    0.000    1.000    3.333    3.000    4.667    2.667 
#    0.000    1.667    0.000    0.000    0.000    0.000 
#    0.000    0.000    0.000    0.000    0.000    0.000 
#
# Total GULP energy -133700.637922 kJ/mol
# GULP energy per Si atom -5570.859913 kJ/mol
# Density = 2.141349 g / cm^3
# Si number density = 21.462343 Si / 1000 Ang^3
#
#
#
# Elastic Constant Matrix: (Units=GPa)
#
#
# Indices 1 2 3 4 5 6 
#
# 1 144.6293 51.0214 48.5364 0.0000 0.0000 0.0000
# 2 51.0214 180.0363 76.8743 0.0000 0.0000 0.0000
# 3 48.5364 76.8743 151.9929 0.0000 0.0000 0.0000
# 4 0.0000 0.0000 0.0000 37.7948 0.0000 0.0000
# 5 0.0000 0.0000 0.0000 0.0000 20.4223 0.0000
# 6 0.0000 0.0000 0.0000 0.0000 0.0000 17.4002
#
#
#
# Elastic Compliance Matrix: (Units=1/GPa)
#
#
# Indices 1 2 3 4 5 6 
#
# 1 0.008054 -0.001510 -0.001808 0.000000 0.000000 0.000000
# 2 -0.001510 0.007368 -0.003244 0.000000 0.000000 0.000000
# 3 -0.001808 -0.003244 0.008797 0.000000 0.000000 0.000000
# 4 0.000000 0.000000 0.000000 0.026459 0.000000 0.000000
# 5 0.000000 0.000000 0.000000 0.000000 0.048966 0.000000
# 6 0.000000 0.000000 0.000000 0.000000 0.000000 0.057471
#
#
# Mechanical properties :
#
#
# Convention : Reuss Voigt Hill
#
# Bulk Modulus (GPa) = 90.13872 92.16920 91.15396
# Shear Modulus (GPa) = 28.74604 35.13855 31.94230
#
# Velocity S-wave (km/s) = 3.66371 4.05065 3.86203
# Velocity P-wave (km/s) = 7.74511 8.05697 7.90258
#
# Compressibility (1/GPa) = 0.01109401
#
# Stress axis : x y z
#
# Youngs Moduli (GPa) = 124.16517 135.72796 113.67069
#
# Poissons Ratio (x) = 0.20501 0.20550
# Poissons Ratio (y) = 0.18754 0.36875
# Poissons Ratio (z) = 0.22448 0.44031
#
# Static dielectric constant tensor:
#      x y z
#    x 1.684940 0.000000 0.000000 
#    y 0.000000 1.824590 0.000000 
#    z 0.000000 0.000000 1.790730 
# 
# From -- ./inp_files/7406.got.cif
#   From: 2010.05.17/outbox.cif.g08.bks.cpg/sg67_4_cif.got.tgz:7406.got - 2010.06.03 18:28:57.
