data_PCOD9504914
_publ_section_title
;
Structure prediction by ZEFSAII (Michael W. Deem and Ramdas Pophale) SiO2 
 PCOD9504914
Probable space group: C M M A
;
_chemical_formula_sum "Si O2"
_cell_formula_units_Z 80
_cell_length_a 18.356978
_cell_length_b 8.826596
_cell_length_c 26.596707
_cell_angle_alpha 90.000000
_cell_angle_beta 90.000000
_cell_angle_gamma 90.000000
_cell_volume 4309.454557
_symmetry_space_group_name_H-M "C M M A"
_symmetry_group_IT_number 67
_symmetry_cell_setting 'orthorhombic'
loop_
_space_group_symop_operation_xyz
x,y,z
-x,1/2-y,z
x,-y,-z
-x,1/2+y,-z
-x,-y,-z
x,1/2+y,-z
-x,y,z
x,1/2-y,z
1/2+x,1/2+y,z
1/2-x,-y,z
1/2+x,1/2-y,-z
1/2-x,y,-z
1/2-x,1/2-y,-z
1/2+x,y,-z
1/2-x,1/2+y,z
1/2+x,-y,z
loop_
_atom_site_type_symbol
_atom_site_label
_atom_site_fract_x
_atom_site_fract_y
_atom_site_fract_z
Si Si1 0.088645 0.425488 0.948133
Si Si2 0.415507 0.432026 0.843405
Si Si3 0.413118 0.428957 0.352727
Si Si4 0.169370 0.567305 0.742492
Si Si5 0.330735 0.068168 0.553472
O O1 0.108104 0.250000 0.947479
O O2 0.112253 0.503546 0.896386
O O3 0.000000 0.437220 0.948481
O O4 0.114637 0.500000 0.000000
O O5 0.500000 0.480495 0.836401
O O6 0.415258 0.250000 0.846588
O O7 0.368406 0.476637 0.795241
O O8 0.500000 0.445057 0.350399
O O9 0.395272 0.250000 0.355457
O O10 0.376929 0.501342 0.303528
O O11 0.381489 0.512644 0.401517
O O12 0.171295 0.750000 0.739334
O O13 0.250000 0.500000 0.739998
O O14 0.327044 0.250000 0.550948
O O15 0.355663 0.000000 0.500000
O O16 0.250000 0.000000 0.562304
#
# Coordination Sequence:
#
# PCOD9504914 Si02
#       5
#    16  16  16  16  16
#     4   9  16  26  44  72 105 139 175 217 266 321
#     4   9  18  33  53  77 106 140 179 224 273 325
#     4  11  24  41  61  86 116 149 188 234 282 332
#     4  11  23  39  59  82 111 147 187 230 279 335
#     4  11  22  39  63  89 120 155 193 233 276 329
#
# _framework density 18.563834
#
# number of rings (size 3 to 8) (size 9 to 14) (size 15 to 20)
#    0.000    1.800    0.000    5.400    0.000    6.800 
#    0.000    2.000    0.000    0.600    0.000    4.200 
#    0.000    0.000    0.000    0.000    0.000    0.000 
#
# Total GULP energy -223459.551414 kJ/mol
# GULP energy per Si atom -5586.488785 kJ/mol
# Density = 1.852158 g / cm^3
# Si number density = 18.563834 Si / 1000 Ang^3
#
#
#
# Elastic Constant Matrix: (Units=GPa)
#
#
# Indices 1 2 3 4 5 6 
#
# 1 58.0790 51.1092 74.0774 0.0000 0.0000 0.0000
# 2 51.1092 117.5644 88.1641 0.0000 0.0000 0.0000
# 3 74.0774 88.1641 195.4372 0.0000 0.0000 0.0000
# 4 0.0000 0.0000 0.0000 39.1567 0.0000 0.0000
# 5 0.0000 0.0000 0.0000 0.0000 156.8177 0.0000
# 6 0.0000 0.0000 0.0000 0.0000 0.0000 15.5237
#
#
#
# Elastic Compliance Matrix: (Units=1/GPa)
#
#
# Indices 1 2 3 4 5 6 
#
# 1 0.038495 -0.008755 -0.010641 0.000000 0.000000 0.000000
# 2 -0.008755 0.014846 -0.003379 0.000000 0.000000 0.000000
# 3 -0.010641 -0.003379 0.010674 0.000000 0.000000 0.000000
# 4 0.000000 0.000000 0.000000 0.025538 0.000000 0.000000
# 5 0.000000 0.000000 0.000000 0.000000 0.006377 0.000000
# 6 0.000000 0.000000 0.000000 0.000000 0.000000 0.064417
#
#
# Mechanical properties :
#
#
# Convention : Reuss Voigt Hill
#
# Bulk Modulus (GPa) = 54.15634 88.64243 71.39938
# Shear Modulus (GPa) = 23.57905 52.81496 38.19700
#
# Velocity S-wave (km/s) = 3.56780 5.33968 4.54100
# Velocity P-wave (km/s) = 6.79769 9.26661 8.12646
#
# Compressibility (1/GPa) = 0.01846506
#
# Stress axis : x y z
#
# Youngs Moduli (GPa) = 25.97753 67.35933 93.68191
#
# Poissons Ratio (x) = 0.58971 0.99691
# Poissons Ratio (y) = 0.22743 0.31653
# Poissons Ratio (z) = 0.27644 0.22759
#
# Static dielectric constant tensor:
#      x y z
#    x 1.622120 0.000000 0.000000 
#    y 0.000000 1.622880 0.000000 
#    z 0.000000 0.000000 1.625480 
# 
# From -- ./inp_files/44418.got.cif
#   From: 2010.05.17/outbox.cif.g08.bks.cpg/sg67_23_cif.got.tgz:44418.got - 2010.06.03 18:28:57.
