data_PCOD9504514
_publ_section_title
;
Structure prediction by ZEFSAII (Michael W. Deem and Ramdas Pophale) SiO2 
 PCOD9504514
Probable space group: C M M A
;
_chemical_formula_sum "Si O2"
_cell_formula_units_Z 64
_cell_length_a 24.418242
_cell_length_b 18.480373
_cell_length_c 7.067396
_cell_angle_alpha 90.000000
_cell_angle_beta 90.000000
_cell_angle_gamma 90.000000
_cell_volume 3189.220540
_symmetry_space_group_name_H-M "C M M A"
_symmetry_group_IT_number 67
_symmetry_cell_setting 'orthorhombic'
loop_
_space_group_symop_operation_xyz
x,y,z
-x,1/2-y,z
x,-y,-z
-x,1/2+y,-z
-x,-y,-z
x,1/2+y,-z
-x,y,z
x,1/2-y,z
1/2+x,1/2+y,z
1/2-x,-y,z
1/2+x,1/2-y,-z
1/2-x,y,-z
1/2-x,1/2-y,-z
1/2+x,y,-z
1/2-x,1/2+y,z
1/2+x,-y,z
loop_
_atom_site_type_symbol
_atom_site_label
_atom_site_fract_x
_atom_site_fract_y
_atom_site_fract_z
Si Si1 0.733684 0.168047 0.276650
Si Si2 0.137001 0.579367 0.417694
Si Si3 0.854866 0.836075 0.802496
Si Si4 0.437559 0.581987 0.924491
O O1 0.716121 0.250000 0.221207
O O2 0.750000 0.172483 0.500000
O O3 0.685546 0.109767 0.283474
O O4 0.789850 0.147910 0.169884
O O5 0.149625 0.500000 0.500000
O O6 0.131286 0.631755 0.596740
O O7 0.083040 0.579464 0.290705
O O8 0.859688 0.750000 0.800405
O O9 0.895682 0.870677 0.952676
O O10 0.500000 0.607785 0.941012
O O11 0.434788 0.500000 0.000000
#
# Coordination Sequence:
#
# PCOD9504514 Si02
#       4
#    16  16  16  16
#     4   8  17  35  60  90 128 162 191 245 317 382
#     4  11  21  38  65  97 123 167 210 257 315 381
#     4  10  22  42  65  94 130 166 204 258 324 379
#     4  11  25  44  62  87 124 168 218 265 312 366
#
# _framework density 20.067598
#
# number of rings (size 3 to 8) (size 9 to 14) (size 15 to 20)
#    0.000    2.000    2.500    2.250    0.000    9.500 
#    0.000    3.750    0.000    0.000    0.000    0.000 
#    0.000    0.000    0.000    0.000    0.000    0.000 
#
# Total GULP energy -178753.172401 kJ/mol
# GULP energy per Si atom -5586.036638 kJ/mol
# Density = 2.002192 g / cm^3
# Si number density = 20.067598 Si / 1000 Ang^3
#
#
#
# Elastic Constant Matrix: (Units=GPa)
#
#
# Indices 1 2 3 4 5 6 
#
# 1 144.9061 75.9046 66.4302 0.0000 0.0000 0.0000
# 2 75.9046 89.0655 47.0219 0.0000 0.0000 0.0000
# 3 66.4302 47.0219 90.7391 0.0000 0.0000 0.0000
# 4 0.0000 0.0000 0.0000 25.0151 0.0000 0.0000
# 5 0.0000 0.0000 0.0000 0.0000 13.0466 0.0000
# 6 0.0000 0.0000 0.0000 0.0000 0.0000 6.1998
#
#
#
# Elastic Compliance Matrix: (Units=1/GPa)
#
#
# Indices 1 2 3 4 5 6 
#
# 1 0.014352 -0.009201 -0.005739 0.000000 0.000000 0.000000
# 2 -0.009201 0.021355 -0.004330 0.000000 0.000000 0.000000
# 3 -0.005739 -0.004330 0.017466 0.000000 0.000000 0.000000
# 4 0.000000 0.000000 0.000000 0.039976 0.000000 0.000000
# 5 0.000000 0.000000 0.000000 0.000000 0.076648 0.000000
# 6 0.000000 0.000000 0.000000 0.000000 0.000000 0.161297
#
#
# Mechanical properties :
#
#
# Convention : Reuss Voigt Hill
#
# Bulk Modulus (GPa) = 68.34111 78.15824 73.24967
# Shear Modulus (GPa) = 13.35070 17.87588 15.61329
#
# Velocity S-wave (km/s) = 2.58211 2.98784 2.79235
# Velocity P-wave (km/s) = 6.55890 7.13687 6.85398
#
# Compressibility (1/GPa) = 0.01463248
#
# Stress axis : x y z
#
# Youngs Moduli (GPa) = 69.67859 46.82637 57.25422
#
# Poissons Ratio (x) = 0.43086 0.32856
# Poissons Ratio (y) = 0.64113 0.24793
# Poissons Ratio (z) = 0.39986 0.20278
#
# Static dielectric constant tensor:
#      x y z
#    x 1.709940 0.000000 0.000000 
#    y 0.000000 1.675180 0.000000 
#    z 0.000000 0.000000 1.709600 
# 
# From -- ./inp_files/9357.got.cif
#   From: 2010.05.17/outbox.cif.g08.bks.cpg/sg67_5_cif.got.tgz:9357.got - 2010.06.03 18:28:57.
