data_PCOD9504912
_publ_section_title
;
Structure prediction by ZEFSAII (Michael W. Deem and Ramdas Pophale) SiO2 
 PCOD9504912
Probable space group: C M M A
;
_chemical_formula_sum "Si O2"
_cell_formula_units_Z 72
_cell_length_a 8.617637
_cell_length_b 16.335860
_cell_length_c 25.656013
_cell_angle_alpha 90.000000
_cell_angle_beta 90.000000
_cell_angle_gamma 90.000000
_cell_volume 3611.764011
_symmetry_space_group_name_H-M "C M M A"
_symmetry_group_IT_number 67
_symmetry_cell_setting 'orthorhombic'
loop_
_space_group_symop_operation_xyz
x,y,z
-x,1/2-y,z
x,-y,-z
-x,1/2+y,-z
-x,-y,-z
x,1/2+y,-z
-x,y,z
x,1/2-y,z
1/2+x,1/2+y,z
1/2-x,-y,z
1/2+x,1/2-y,-z
1/2-x,y,-z
1/2-x,1/2-y,-z
1/2+x,y,-z
1/2-x,1/2+y,z
1/2+x,-y,z
loop_
_atom_site_type_symbol
_atom_site_label
_atom_site_fract_x
_atom_site_fract_y
_atom_site_fract_z
Si Si1 0.815368 0.090887 0.765228
Si Si2 0.313953 0.593969 0.122712
Si Si3 0.173273 0.346237 0.339980
Si Si4 0.686823 0.750000 0.941270
Si Si5 0.815580 0.591877 0.446961
O O1 0.736314 0.120038 0.818734
O O2 0.766404 0.135291 0.712536
O O3 0.000000 0.091207 0.772063
O O4 0.750000 0.000000 0.758393
O O5 0.500000 0.590582 0.118590
O O6 0.250000 0.500000 0.114020
O O7 0.247734 0.666020 0.085978
O O8 0.156309 0.250000 0.342706
O O9 0.258568 0.372021 0.392589
O O10 0.000000 0.384709 0.337428
O O11 0.500000 0.750000 0.939891
O O12 0.750000 0.750000 0.000000
O O13 0.750000 0.500000 0.446728
O O14 0.750000 0.632273 0.500000
O O15 0.000000 0.591433 0.449703
#
# Coordination Sequence:
#
# PCOD9504912 Si02
#       5
#    16  16  16   8  16
#     4  11  22  39  63  91 124 162 207 257 311 373
#     4  11  23  43  69 100 136 178 225 276 333 393
#     4  11  24  40  58  84 119 157 199 248 306 368
#     4  12  26  46  70 102 138 180 227 276 331 390
#     4  11  22  39  62  85 112 148 195 245 300 363
#
# _framework density 19.934857000000001
#
# number of rings (size 3 to 8) (size 9 to 14) (size 15 to 20)
#    0.000    0.889    0.000   10.333    1.556    2.667 
#    0.000    2.222    0.000    0.000    0.000    0.000 
#    0.000    0.000    0.000    0.000    0.000    0.000 
#
# Total GULP energy -201136.554166 kJ/mol
# GULP energy per Si atom -5587.126505 kJ/mol
# Density = 1.988948 g / cm^3
# Si number density = 19.934857 Si / 1000 Ang^3
#
#
#
# Elastic Constant Matrix: (Units=GPa)
#
#
# Indices 1 2 3 4 5 6 
#
# 1 221.1857 52.4330 79.7894 0.0000 0.0000 0.0000
# 2 52.4330 77.4101 90.7859 0.0000 0.0000 0.0000
# 3 79.7894 90.7859 188.9899 0.0000 0.0000 0.0000
# 4 0.0000 0.0000 0.0000 43.2066 0.0000 0.0000
# 5 0.0000 0.0000 0.0000 0.0000 37.0049 0.0000
# 6 0.0000 0.0000 0.0000 0.0000 0.0000 20.2711
#
#
#
# Elastic Compliance Matrix: (Units=1/GPa)
#
#
# Indices 1 2 3 4 5 6 
#
# 1 0.005506 -0.002298 -0.001221 0.000000 0.000000 0.000000
# 2 -0.002298 0.030546 -0.013703 0.000000 0.000000 0.000000
# 3 -0.001221 -0.013703 0.012389 0.000000 0.000000 0.000000
# 4 0.000000 0.000000 0.000000 0.023145 0.000000 0.000000
# 5 0.000000 0.000000 0.000000 0.000000 0.027023 0.000000
# 6 0.000000 0.000000 0.000000 0.000000 0.000000 0.049331
#
#
# Mechanical properties :
#
#
# Convention : Reuss Voigt Hill
#
# Bulk Modulus (GPa) = 71.44128 103.73357 87.58743
# Shear Modulus (GPa) = 26.73079 37.73501 32.23290
#
# Velocity S-wave (km/s) = 3.66581 4.35549 4.02545
# Velocity P-wave (km/s) = 7.33708 8.80017 8.10172
#
# Compressibility (1/GPa) = 0.01399751
#
# Stress axis : x y z
#
# Youngs Moduli (GPa) = 181.61381 32.73787 80.71391
#
# Poissons Ratio (x) = 0.07522 0.09854
# Poissons Ratio (y) = 0.41730 1.10605
# Poissons Ratio (z) = 0.22173 0.44862
#
# Static dielectric constant tensor:
#      x y z
#    x 1.709620 0.000000 0.000000 
#    y 0.000000 1.645880 0.000000 
#    z 0.000000 0.000000 1.765340 
# 
# From -- ./inp_files/43113.got.cif
#   From: 2010.05.17/outbox.cif.g08.bks.cpg/sg67_22_cif.got.tgz:43113.got - 2010.06.03 18:28:57.
