data_PCOD9504270
_publ_section_title
;
Structure prediction by ZEFSAII (Michael W. Deem and Ramdas Pophale) SiO2 
 PCOD9504270
Probable space group: C M M A
;
_chemical_formula_sum "Si O2"
_cell_formula_units_Z 100
_cell_length_a 19.749088
_cell_length_b 16.001593
_cell_length_c 16.229728
_cell_angle_alpha 90.000000
_cell_angle_beta 90.000000
_cell_angle_gamma 90.000000
_cell_volume 5128.867816
_symmetry_space_group_name_H-M "C M M A"
_symmetry_group_IT_number 67
_symmetry_cell_setting 'orthorhombic'
loop_
_space_group_symop_operation_xyz
x,y,z
-x,1/2-y,z
x,-y,-z
-x,1/2+y,-z
-x,-y,-z
x,1/2+y,-z
-x,y,z
x,1/2-y,z
1/2+x,1/2+y,z
1/2-x,-y,z
1/2+x,1/2-y,-z
1/2-x,y,-z
1/2-x,1/2-y,-z
1/2+x,y,-z
1/2-x,1/2+y,z
1/2+x,-y,z
loop_
_atom_site_type_symbol
_atom_site_label
_atom_site_fract_x
_atom_site_fract_y
_atom_site_fract_z
Si Si1 0.918769 0.564774 0.925997
Si Si2 0.077884 0.750000 0.910715
Si Si3 0.664175 0.155248 0.321002
Si Si4 0.500000 0.250000 0.523189
Si Si5 0.421464 0.250000 0.710767
Si Si6 0.675304 0.987623 0.790605
Si Si7 0.682276 0.614524 0.355835
Si Si8 0.397526 0.905632 0.512176
O O1 0.893737 0.660419 0.939234
O O2 0.880976 0.529097 0.846656
O O3 0.000000 0.568584 0.912114
O O4 0.906270 0.500000 0.000000
O O5 0.076923 0.750000 0.810176
O O6 0.000000 0.750000 0.939017
O O7 0.640538 0.250000 0.314995
O O8 0.659009 0.106755 0.234570
O O9 0.743853 0.153583 0.344219
O O10 0.623331 0.110148 0.393764
O O11 0.442142 0.174262 0.513963
O O12 0.500000 0.250000 0.675679
O O13 0.378111 0.172083 0.679660
O O14 0.750000 0.000000 0.829089
O O15 0.680022 0.034398 0.702903
O O16 0.666461 0.596316 0.450267
O O17 0.425680 0.000000 0.500000
#
# Coordination Sequence:
#
# PCOD9504270 Si02
#       8
#    16   8  16   4   8  16  16  16
#     4  10  21  41  66  94 128 162 201 247 304 374
#     4   9  18  35  61  93 119 155 196 246 305 355
#     4  11  23  42  61  85 122 166 211 255 309 371
#     4  12  28  44  54  86 124 164 214 262 326 366
#     4  11  21  33  58  92 124 151 199 258 312 360
#     4  10  22  40  62  93 124 157 202 257 312 367
#     4  11  22  36  63  91 117 158 208 260 308 362
#     4  12  25  43  61  85 122 165 213 266 312 370
#
# _framework density 19.497479999999999
#
# number of rings (size 3 to 8) (size 9 to 14) (size 15 to 20)
#    0.000    1.280    4.800    1.200    2.240    1.600 
#    2.880    0.000    0.000    0.960    0.000    0.000 
#    0.000    0.000    0.000    0.000    0.000    0.000 
#
# Total GULP energy -278436.925350 kJ/mol
# GULP energy per Si atom -5568.738507 kJ/mol
# Density = 1.945310 g / cm^3
# Si number density = 19.497480 Si / 1000 Ang^3
#
#
#
# Elastic Constant Matrix: (Units=GPa)
#
#
# Indices 1 2 3 4 5 6 
#
# 1 48.6191 37.1032 6.6187 0.0000 0.0000 0.0000
# 2 37.1032 183.3099 36.9334 0.0000 0.0000 0.0000
# 3 6.6187 36.9334 38.8071 0.0000 0.0000 0.0000
# 4 0.0000 0.0000 0.0000 23.4441 0.0000 0.0000
# 5 0.0000 0.0000 0.0000 0.0000 2.3537 0.0000
# 6 0.0000 0.0000 0.0000 0.0000 0.0000 9.7808
#
#
#
# Elastic Compliance Matrix: (Units=1/GPa)
#
#
# Indices 1 2 3 4 5 6 
#
# 1 0.024339 -0.005060 0.000665 0.000000 0.000000 0.000000
# 2 -0.005060 0.007802 -0.006562 0.000000 0.000000 0.000000
# 3 0.000665 -0.006562 0.031900 0.000000 0.000000 0.000000
# 4 0.000000 0.000000 0.000000 0.042655 0.000000 0.000000
# 5 0.000000 0.000000 0.000000 0.000000 0.424867 0.000000
# 6 0.000000 0.000000 0.000000 0.000000 0.000000 0.102241
#
#
# Mechanical properties :
#
#
# Convention : Reuss Voigt Hill
#
# Bulk Modulus (GPa) = 23.73816 48.00522 35.87169
# Shear Modulus (GPa) = 7.46535 19.78776 13.62655
#
# Velocity S-wave (km/s) = 1.95887 3.18919 2.64652
# Velocity P-wave (km/s) = 4.16145 6.18352 5.27037
#
# Compressibility (1/GPa) = 0.04212627
#
# Stress axis : x y z
#
# Youngs Moduli (GPa) = 41.08579 128.17910 31.34791
#
# Poissons Ratio (x) = 0.64864 -0.02084
# Poissons Ratio (y) = 0.20791 0.20570
# Poissons Ratio (z) = -0.02732 0.84109
#
# Static dielectric constant tensor:
#      x y z
#    x 1.684180 0.000000 0.000000 
#    y 0.000000 1.791630 0.000000 
#    z 0.000000 0.000000 1.732820 
# 
# From -- ./inp_files/35052.got.cif
#   From: 2010.05.17/outbox.cif.g08.bks.cpg/sg67_18_cif.got.tgz:35052.got - 2010.06.03 18:28:57.
