data_PCOD9504479
_publ_section_title
;
Structure prediction by ZEFSAII (Michael W. Deem and Ramdas Pophale) SiO2 
 PCOD9504479
Probable space group: C M M A
;
_chemical_formula_sum "Si O2"
_cell_formula_units_Z 112
_cell_length_a 13.038400
_cell_length_b 13.158135
_cell_length_c 25.055622
_cell_angle_alpha 90.000000
_cell_angle_beta 90.000000
_cell_angle_gamma 90.000000
_cell_volume 4298.568252
_symmetry_space_group_name_H-M "C M M A"
_symmetry_group_IT_number 67
_symmetry_cell_setting 'orthorhombic'
loop_
_space_group_symop_operation_xyz
x,y,z
-x,1/2-y,z
x,-y,-z
-x,1/2+y,-z
-x,-y,-z
x,1/2+y,-z
-x,y,z
x,1/2-y,z
1/2+x,1/2+y,z
1/2-x,-y,z
1/2+x,1/2-y,-z
1/2-x,y,-z
1/2-x,1/2-y,-z
1/2+x,y,-z
1/2-x,1/2+y,z
1/2+x,-y,z
loop_
_atom_site_type_symbol
_atom_site_label
_atom_site_fract_x
_atom_site_fract_y
_atom_site_fract_z
Si Si1 0.374934 0.865492 0.909647
Si Si2 0.880218 0.628913 0.972433
Si Si3 0.833367 0.367317 0.698193
Si Si4 0.324402 0.373124 0.420245
Si Si5 0.124176 0.063561 0.143803
Si Si6 0.381927 0.581863 0.261429
Si Si7 0.608422 0.373246 0.537426
O O1 0.500000 0.863523 0.912188
O O2 0.342294 0.750000 0.900689
O O3 0.348624 0.944892 0.863620
O O4 0.343251 0.906674 0.968818
O O5 0.875609 0.750000 0.979958
O O6 0.840838 0.610641 0.912502
O O7 0.000000 0.598834 0.969615
O O8 0.863276 0.250000 0.709332
O O9 0.864753 0.398197 0.637969
O O10 0.708772 0.374654 0.701863
O O11 0.875800 0.458572 0.734324
O O12 0.325902 0.250000 0.420456
O O13 0.379906 0.402722 0.475119
O O14 0.206282 0.404460 0.428958
O O15 0.151054 0.108919 0.200839
O O16 0.000000 0.070815 0.144087
O O17 0.500000 0.613122 0.271766
O O18 0.500000 0.406107 0.559918
O O19 0.610218 0.250000 0.537069
#
# Coordination Sequence:
#
# PCOD9504479 Si02
#       7
#    16  16  16  16  16  16  16
#     4   8  13  21  36  63  99 135 170 213 272 343
#     4   8  13  21  36  63  99 135 170 213 272 343
#     4  10  22  41  62  84 116 158 201 246 296 346
#     4   8  15  28  48  77 112 149 187 229 281 340
#     4   9  16  27  44  67 100 140 179 226 284 338
#     4  10  23  40  58  85 116 150 201 256 298 343
#     4   8  13  23  44  79 117 145 178 227 279 338
#
# _framework density 26.055187
#
# number of rings (size 3 to 8) (size 9 to 14) (size 15 to 20)
#    0.000    3.286    0.000    2.143    0.000    4.571 
#    0.000    5.714    0.000    6.857    0.000   16.000 
#    0.000   13.714    0.000    1.143    0.000    0.000 
#
# Total GULP energy -313181.344231 kJ/mol
# GULP energy per Si atom -5592.524004 kJ/mol
# Density = 2.599588 g / cm^3
# Si number density = 26.055187 Si / 1000 Ang^3
#
#
#
# Elastic Constant Matrix: (Units=GPa)
#
#
# Indices 1 2 3 4 5 6 
#
# 1 95.2184 -2.3018 3.0539 0.0000 0.0000 0.0000
# 2 -2.3018 82.2399 11.7732 0.0000 0.0000 0.0000
# 3 3.0539 11.7732 98.4976 0.0000 0.0000 0.0000
# 4 0.0000 0.0000 0.0000 19.6529 0.0000 0.0000
# 5 0.0000 0.0000 0.0000 0.0000 -5.8482 0.0000
# 6 0.0000 0.0000 0.0000 0.0000 0.0000 25.6870
#
#
#
# Elastic Compliance Matrix: (Units=1/GPa)
#
#
# Indices 1 2 3 4 5 6 
#
# 1 0.010522 0.000347 -0.000368 0.000000 0.000000 0.000000
# 2 0.000347 0.012383 -0.001491 0.000000 0.000000 0.000000
# 3 -0.000368 -0.001491 0.010342 0.000000 0.000000 0.000000
# 4 0.000000 0.000000 0.000000 0.050883 0.000000 0.000000
# 5 0.000000 0.000000 0.000000 0.000000 -0.170992 0.000000
# 6 0.000000 0.000000 0.000000 0.000000 0.000000 0.038930
#
#
# Mechanical properties :
#
#
# Convention : Reuss Voigt Hill
#
# Bulk Modulus (GPa) = 33.08592 33.44516 33.26554
# Shear Modulus (GPa) = -143.53742 25.46037 -59.03853
#
# Velocity S-wave (km/s) = -7.43030 3.12936 -4.76531
# Velocity P-wave (km/s) = 7.80298 5.09130 4.18122
#
# Compressibility (1/GPa) = 0.03022434
#
# Stress axis : x y z
#
# Youngs Moduli (GPa) = 95.03572 80.75788 96.69185
#
# Poissons Ratio (x) = -0.02804 0.03556
# Poissons Ratio (y) = -0.03299 0.14415
# Poissons Ratio (z) = 0.03495 0.12040
#
# Static dielectric constant tensor:
#      x y z
#    x 2.106840 0.000000 0.000000 
#    y 0.000000 2.060320 0.000000 
#    z 0.000000 0.000000 1.937700 
# 
# From -- ./inp_files/42022.got.cif
#   From: 2010.05.17/outbox.cif.g08.bks.cpg/sg67_22_cif.got.tgz:42022.got - 2010.06.03 18:28:57.
