data_PCOD9504725
_publ_section_title
;
Structure prediction by ZEFSAII (Michael W. Deem and Ramdas Pophale) SiO2 
 PCOD9504725
Probable space group: C M M A
;
_chemical_formula_sum "Si O2"
_cell_formula_units_Z 80
_cell_length_a 9.813946
_cell_length_b 27.235792
_cell_length_c 19.789026
_cell_angle_alpha 90.000000
_cell_angle_beta 90.000000
_cell_angle_gamma 90.000000
_cell_volume 5289.420474
_symmetry_space_group_name_H-M "C M M A"
_symmetry_group_IT_number 67
_symmetry_cell_setting 'orthorhombic'
loop_
_space_group_symop_operation_xyz
x,y,z
-x,1/2-y,z
x,-y,-z
-x,1/2+y,-z
-x,-y,-z
x,1/2+y,-z
-x,y,z
x,1/2-y,z
1/2+x,1/2+y,z
1/2-x,-y,z
1/2+x,1/2-y,-z
1/2-x,y,-z
1/2-x,1/2-y,-z
1/2+x,y,-z
1/2-x,1/2+y,z
1/2+x,-y,z
loop_
_atom_site_type_symbol
_atom_site_label
_atom_site_fract_x
_atom_site_fract_y
_atom_site_fract_z
Si Si1 0.843239 0.309736 0.061804
Si Si2 0.000000 0.690279 0.402456
Si Si3 0.668152 0.948837 0.433468
Si Si4 0.164067 0.193764 0.211911
Si Si5 0.500000 0.192051 0.559658
Si Si6 0.727508 0.643276 0.349496
O O1 0.845057 0.250000 0.060749
O O2 0.790430 0.322196 0.136968
O O3 0.000000 0.326021 0.054042
O O4 0.750000 0.326569 0.000000
O O5 0.000000 0.676945 0.481884
O O6 0.872527 0.664811 0.368127
O O7 0.000000 0.750000 0.396375
O O8 0.500000 0.953105 0.442577
O O9 0.750000 0.928418 0.500000
O O10 0.699473 0.912556 0.371467
O O11 0.750000 0.000000 0.422633
O O12 0.211939 0.250000 0.226089
O O13 0.199608 0.157407 0.272274
O O14 0.000000 0.196346 0.208293
O O15 0.500000 0.250000 0.560708
O O16 0.372883 0.172661 0.600976
#
# Coordination Sequence:
#
# PCOD9504725 Si02
#       6
#    16   8  16  16   8  16
#     4   8  14  25  42  63  89 123 161 195 227 271
#     4  11  24  34  45  71 102 132 165 204 247 285
#     4  11  23  38  58  76  93 122 163 214 265 307
#     4   9  16  29  48  68  94 130 165 195 234 291
#     4  11  20  34  51  67  92 130 167 198 231 295
#     4  12  22  34  52  71  97 128 166 207 252 296
#
# _framework density 15.124530999999999
#
# number of rings (size 3 to 8) (size 9 to 14) (size 15 to 20)
#    0.000    1.800    2.000    6.000    2.800    1.600 
#    1.800    0.000    0.000    0.000    0.000    0.000 
#    0.000    0.800    0.000    6.400    0.000    0.400 
#
# Total GULP energy -222759.040331 kJ/mol
# GULP energy per Si atom -5568.976008 kJ/mol
# Density = 1.509011 g / cm^3
# Si number density = 15.124531 Si / 1000 Ang^3
#
#
#
# Elastic Constant Matrix: (Units=GPa)
#
#
# Indices 1 2 3 4 5 6 
#
# 1 98.6814 24.8770 35.2872 0.0000 0.0000 0.0000
# 2 24.8770 46.2590 48.3142 0.0000 0.0000 0.0000
# 3 35.2872 48.3142 132.9304 0.0000 0.0000 0.0000
# 4 0.0000 0.0000 0.0000 9.2988 0.0000 0.0000
# 5 0.0000 0.0000 0.0000 0.0000 19.0193 0.0000
# 6 0.0000 0.0000 0.0000 0.0000 0.0000 9.5701
#
#
#
# Elastic Compliance Matrix: (Units=1/GPa)
#
#
# Indices 1 2 3 4 5 6 
#
# 1 0.011869 -0.004984 -0.001339 0.000000 0.000000 0.000000
# 2 -0.004984 0.036938 -0.012102 0.000000 0.000000 0.000000
# 3 -0.001339 -0.012102 0.012277 0.000000 0.000000 0.000000
# 4 0.000000 0.000000 0.000000 0.107540 0.000000 0.000000
# 5 0.000000 0.000000 0.000000 0.000000 0.052578 0.000000
# 6 0.000000 0.000000 0.000000 0.000000 0.000000 0.104492
#
#
# Mechanical properties :
#
#
# Convention : Reuss Voigt Hill
#
# Bulk Modulus (GPa) = 41.26695 54.98085 48.12390
# Shear Modulus (GPa) = 13.49081 18.87046 16.18064
#
# Velocity S-wave (km/s) = 2.98985 3.53607 3.27437
# Velocity P-wave (km/s) = 6.26601 7.28716 6.79580
#
# Compressibility (1/GPa) = 0.02423247
#
# Stress axis : x y z
#
# Youngs Moduli (GPa) = 84.25323 27.07275 81.45476
#
# Poissons Ratio (x) = 0.13494 0.10908
# Poissons Ratio (y) = 0.41994 0.98577
# Poissons Ratio (z) = 0.11283 0.32763
#
# Static dielectric constant tensor:
#      x y z
#    x 1.494730 0.000000 0.000000 
#    y 0.000000 1.521600 0.000000 
#    z 0.000000 0.000000 1.510880 
# 
# From -- ./inp_files/32317.got.cif
#   From: 2010.05.17/outbox.cif.g08.bks.cpg/sg67_17_cif.got.tgz:32317.got - 2010.06.03 18:28:57.
