data_PCOD9504602
_publ_section_title
;
Structure prediction by ZEFSAII (Michael W. Deem and Ramdas Pophale) SiO2 
 PCOD9504602
Probable space group: C M M A
;
_chemical_formula_sum "Si O2"
_cell_formula_units_Z 40
_cell_length_a 20.316714
_cell_length_b 13.785073
_cell_length_c 6.501983
_cell_angle_alpha 90.000000
_cell_angle_beta 90.000000
_cell_angle_gamma 90.000000
_cell_volume 1820.993380
_symmetry_space_group_name_H-M "C M M A"
_symmetry_group_IT_number 67
_symmetry_cell_setting 'orthorhombic'
loop_
_space_group_symop_operation_xyz
x,y,z
-x,1/2-y,z
x,-y,-z
-x,1/2+y,-z
-x,-y,-z
x,1/2+y,-z
-x,y,z
x,1/2-y,z
1/2+x,1/2+y,z
1/2-x,-y,z
1/2+x,1/2-y,-z
1/2-x,y,-z
1/2-x,1/2-y,-z
1/2+x,y,-z
1/2-x,1/2+y,z
1/2+x,-y,z
loop_
_atom_site_type_symbol
_atom_site_label
_atom_site_fract_x
_atom_site_fract_y
_atom_site_fract_z
Si Si1 0.146382 0.500000 0.500000
Si Si2 0.923758 0.863937 0.173865
Si Si3 0.689700 0.363281 0.846558
O O1 0.102172 0.569490 0.357300
O O2 0.187594 0.431805 0.348588
O O3 0.917279 0.750000 0.231027
O O4 0.000000 0.883332 0.127270
O O5 0.877051 0.878656 0.976903
O O6 0.694001 0.250000 0.787054
O O7 0.750000 0.383380 0.000000
#
# Coordination Sequence:
#
# PCOD9504602 Si02
#       3
#     8  16  16
#     4  12  23  39  68  98 123 165 222 270 315 381
#     4  10  23  42  63  93 134 174 213 263 322 381
#     4  10  24  45  66  93 132 172 211 263 325 385
#
# _framework density 21.966034000000001
#
# number of rings (size 3 to 8) (size 9 to 14) (size 15 to 20)
#    0.000    1.600    0.000    3.000    0.000   11.200 
#    0.000   10.000    0.000    3.600    0.000    0.000 
#    0.000    0.000    0.000    0.000    0.000    0.000 
#
# Total GULP energy -112110.425361 kJ/mol
# GULP energy per Si atom -5605.521268 kJ/mol
# Density = 2.191604 g / cm^3
# Si number density = 21.966034 Si / 1000 Ang^3
#
#
#
# Elastic Constant Matrix: (Units=GPa)
#
#
# Indices 1 2 3 4 5 6 
#
# 1 166.4728 88.4810 97.6278 0.0000 0.0000 0.0000
# 2 88.4810 168.5521 115.3911 0.0000 0.0000 0.0000
# 3 97.6278 115.3911 151.0331 0.0000 0.0000 0.0000
# 4 0.0000 0.0000 0.0000 49.6331 0.0000 0.0000
# 5 0.0000 0.0000 0.0000 0.0000 22.4905 0.0000
# 6 0.0000 0.0000 0.0000 0.0000 0.0000 -0.8816
#
#
#
# Elastic Compliance Matrix: (Units=1/GPa)
#
#
# Indices 1 2 3 4 5 6 
#
# 1 0.009904 -0.001712 -0.005095 0.000000 0.000000 0.000000
# 2 -0.001712 0.012735 -0.008623 0.000000 0.000000 0.000000
# 3 -0.005095 -0.008623 0.016502 0.000000 0.000000 0.000000
# 4 0.000000 0.000000 0.000000 0.020148 0.000000 0.000000
# 5 0.000000 0.000000 0.000000 0.000000 0.044463 0.000000
# 6 0.000000 0.000000 0.000000 0.000000 0.000000 -1.134316
#
#
# Mechanical properties :
#
#
# Convention : Reuss Voigt Hill
#
# Bulk Modulus (GPa) = 120.72912 121.00642 120.86777
# Shear Modulus (GPa) = -5.01533 26.55228 10.76847
#
# Velocity S-wave (km/s) = -1.51267 3.48053 2.21652
# Velocity P-wave (km/s) = 7.21319 8.44747 7.85461
#
# Compressibility (1/GPa) = 0.00828301
#
# Stress axis : x y z
#
# Youngs Moduli (GPa) = 100.96553 78.52493 60.59715
#
# Poissons Ratio (x) = 0.13440 0.30872
# Poissons Ratio (y) = 0.17281 0.52254
# Poissons Ratio (z) = 0.51438 0.67714
#
# Static dielectric constant tensor:
#      x y z
#    x 1.784440 0.000000 0.000000 
#    y 0.000000 1.817980 0.000000 
#    z 0.000000 0.000000 1.747610 
# 
# From -- ./inp_files/1077.got.cif
#   From: 2010.05.17/outbox.cif.g08.bks.cpg/sg67_1_cif.got.tgz:1077.got - 2010.06.03 18:28:57.
