data_PCOD9504002
_publ_section_title
;
Structure prediction by ZEFSAII (Michael W. Deem and Ramdas Pophale) SiO2 
 PCOD9504002
Probable space group: C M M A
;
_chemical_formula_sum "Si O2"
_cell_formula_units_Z 96
_cell_length_a 17.150359
_cell_length_b 14.564144
_cell_length_c 21.817747
_cell_angle_alpha 90.000000
_cell_angle_beta 90.000000
_cell_angle_gamma 90.000000
_cell_volume 5449.643350
_symmetry_space_group_name_H-M "C M M A"
_symmetry_group_IT_number 67
_symmetry_cell_setting 'orthorhombic'
loop_
_space_group_symop_operation_xyz
x,y,z
-x,1/2-y,z
x,-y,-z
-x,1/2+y,-z
-x,-y,-z
x,1/2+y,-z
-x,y,z
x,1/2-y,z
1/2+x,1/2+y,z
1/2-x,-y,z
1/2+x,1/2-y,-z
1/2-x,y,-z
1/2-x,1/2-y,-z
1/2+x,y,-z
1/2-x,1/2+y,z
1/2+x,-y,z
loop_
_atom_site_type_symbol
_atom_site_label
_atom_site_fract_x
_atom_site_fract_y
_atom_site_fract_z
Si Si1 0.907190 0.000000 0.232715
Si Si2 0.342946 0.500000 0.904324
Si Si3 0.906309 0.356519 0.000000
Si Si4 0.155192 1.000000 0.430406
Si Si5 0.655587 0.644021 0.328672
Si Si6 0.655587 0.144021 0.328672
O O1 0.871242 1.000000 0.165263
O O2 0.878619 0.087907 0.271652
O O3 0.000000 0.000000 0.228668
O O4 0.878620 0.912094 0.271652
O O5 0.250000 0.500000 0.907260
O O6 0.374822 0.588251 0.941243
O O7 0.374822 0.411749 0.941242
O O8 0.882900 0.250000 1.000000
O O9 0.000000 0.361641 0.000000
O O10 0.132447 0.911421 0.390103
O O11 0.126276 0.000000 0.500000
O O12 0.250000 0.000000 0.432875
O O13 0.132448 0.088579 0.390102
O O14 0.631929 0.750000 0.329821
O O15 0.750000 0.639963 0.324704
O O16 0.631929 0.250000 0.329821
#
# Coordination Sequence:
#
# PCOD9504002 Si02
#       6
#    16  16  16  16  16  16
#     4  11  22  36  54  75 103 137 175 218 262 310
#     4  11  22  37  58  81 108 140 175 216 259 306
#     4  10  21  38  59  83 112 142 173 211 254 303
#     4   8  14  26  47  77 108 134 165 209 261 313
#     4   9  18  33  52  75 104 136 172 215 261 310
#     4   9  18  33  52  75 104 136 172 215 261 310
#
# _framework density 17.615831
#
# number of rings (size 3 to 8) (size 9 to 14) (size 15 to 20)
#    0.000    2.333    0.000    5.500    0.000    4.000 
#    0.000    3.333    0.000    8.000    0.000    9.333 
#    0.000    0.000    0.000    0.000    0.000    0.000 
#
# Total GULP energy -267862.945019 kJ/mol
# GULP energy per Si atom -5580.478021 kJ/mol
# Density = 1.757574 g / cm^3
# Si number density = 17.615831 Si / 1000 Ang^3
#
#
#
# Elastic Constant Matrix: (Units=GPa)
#
#
# Indices 1 2 3 4 5 6 
#
# 1 60.9540 53.0449 44.5646 0.0000 0.0000 0.0000
# 2 53.0449 200.0323 104.5840 0.0000 0.0000 0.0000
# 3 44.5646 104.5840 192.0804 0.0000 0.0000 0.0000
# 4 0.0000 0.0000 0.0000 4.6107 0.0000 0.0000
# 5 0.0000 0.0000 0.0000 0.0000 -300.0376 0.0000
# 6 0.0000 0.0000 0.0000 0.0000 0.0000 16.6844
#
#
#
# Elastic Compliance Matrix: (Units=1/GPa)
#
#
# Indices 1 2 3 4 5 6 
#
# 1 0.022309 -0.004487 -0.002733 0.000000 0.000000 0.000000
# 2 -0.004487 0.007891 -0.003256 0.000000 0.000000 0.000000
# 3 -0.002733 -0.003256 0.007613 0.000000 0.000000 0.000000
# 4 0.000000 0.000000 0.000000 0.216888 0.000000 0.000000
# 5 0.000000 0.000000 0.000000 0.000000 -0.003333 0.000000
# 6 0.000000 0.000000 0.000000 0.000000 0.000000 0.059936
#
#
# Mechanical properties :
#
#
# Convention : Reuss Voigt Hill
#
# Bulk Modulus (GPa) = 59.30536 95.27264 77.28900
# Shear Modulus (GPa) = 14.79835 -39.02363 -12.11264
#
# Velocity S-wave (km/s) = 2.90152 -4.71176 -2.62506
# Velocity P-wave (km/s) = 6.70553 4.95984 5.89763
#
# Compressibility (1/GPa) = 0.01686188
#
# Stress axis : x y z
#
# Youngs Moduli (GPa) = 44.82578 126.72334 131.35855
#
# Poissons Ratio (x) = 0.56862 0.35896
# Poissons Ratio (y) = 0.20114 0.42765
# Poissons Ratio (z) = 0.12250 0.41255
#
# Static dielectric constant tensor:
#      x y z
#    x 1.592370 0.000000 0.000000 
#    y 0.000000 1.587850 0.000000 
#    z 0.000000 0.000000 1.574640 
# 
# From -- ./inp_files/38469.got.cif
#   From: 2010.05.17/outbox.cif.g08.bks.cpg/sg67_20_cif.got.tgz:38469.got - 2010.06.03 18:28:57.
