data_PCOD9504014
_publ_section_title
;
Structure prediction by ZEFSAII (Michael W. Deem and Ramdas Pophale) SiO2 
 PCOD9504014
Probable space group: C M M A
;
_chemical_formula_sum "Si O2"
_cell_formula_units_Z 96
_cell_length_a 15.938994
_cell_length_b 14.376839
_cell_length_c 21.218419
_cell_angle_alpha 90.000000
_cell_angle_beta 90.000000
_cell_angle_gamma 90.000000
_cell_volume 4862.250589
_symmetry_space_group_name_H-M "C M M A"
_symmetry_group_IT_number 67
_symmetry_cell_setting 'orthorhombic'
loop_
_space_group_symop_operation_xyz
x,y,z
-x,1/2-y,z
x,-y,-z
-x,1/2+y,-z
-x,-y,-z
x,1/2+y,-z
-x,y,z
x,1/2-y,z
1/2+x,1/2+y,z
1/2-x,-y,z
1/2+x,1/2-y,-z
1/2-x,y,-z
1/2-x,1/2-y,-z
1/2+x,y,-z
1/2-x,1/2+y,z
1/2+x,-y,z
loop_
_atom_site_type_symbol
_atom_site_label
_atom_site_fract_x
_atom_site_fract_y
_atom_site_fract_z
Si Si1 0.099875 0.355562 0.491263
Si Si2 0.855870 0.361183 0.852579
Si Si3 0.166453 0.639173 0.829303
Si Si4 0.000000 0.363247 0.949063
Si Si5 0.347394 0.985010 0.602718
Si Si6 0.500000 0.862800 0.092898
Si Si7 0.596083 0.502814 0.741911
O O1 0.128293 0.250000 0.480825
O O2 0.118565 0.423414 0.432957
O O3 0.139897 0.401629 0.553209
O O4 0.000000 0.355690 0.500999
O O5 0.864587 0.250000 0.845315
O O6 0.756686 0.380950 0.860606
O O7 0.917196 0.390065 0.909507
O O8 0.885463 0.413046 0.789611
O O9 0.162145 0.750000 0.818198
O O10 0.156013 0.580756 0.765292
O O11 0.086157 0.611065 0.871666
O O12 0.000000 0.250000 0.951447
O O13 0.000000 0.395838 0.020959
O O14 0.390143 0.970537 0.669753
O O15 0.250000 0.000000 0.614049
O O16 0.500000 0.750000 0.092225
O O17 0.500000 0.472211 0.749628
#
# Coordination Sequence:
#
# PCOD9504014 Si02
#       7
#    16  16  16   8  16   8  16
#     4  10  21  40  63  87 118 154 193 237 286 343
#     4  10  21  38  59  85 118 154 197 247 297 353
#     4  10  21  38  59  85 118 154 197 247 297 353
#     4   9  18  35  59  87 118 153 195 241 296 357
#     4  11  23  38  59  88 119 152 194 240 289 346
#     4   9  18  35  59  87 118 153 195 241 296 357
#     4  12  23  39  62  84 117 158 197 244 294 350
#
# _framework density 19.743943999999999
#
# number of rings (size 3 to 8) (size 9 to 14) (size 15 to 20)
#    0.000    1.667    1.667    4.500    0.000    3.333 
#    0.000    5.000    0.000    2.000    0.000    0.000 
#    0.000    0.000    0.000    0.000    0.000    0.000 
#
# Total GULP energy -268144.881705 kJ/mol
# GULP energy per Si atom -5586.351702 kJ/mol
# Density = 1.969901 g / cm^3
# Si number density = 19.743944 Si / 1000 Ang^3
#
#
#
# Elastic Constant Matrix: (Units=GPa)
#
#
# Indices 1 2 3 4 5 6 
#
# 1 86.9166 -21.4019 6.2591 0.0000 0.0000 0.0000
# 2 -21.4019 52.5636 -4.3171 0.0000 0.0000 0.0000
# 3 6.2591 -4.3171 108.4739 0.0000 0.0000 0.0000
# 4 0.0000 0.0000 0.0000 10.7052 0.0000 0.0000
# 5 0.0000 0.0000 0.0000 0.0000 20.2073 0.0000
# 6 0.0000 0.0000 0.0000 0.0000 0.0000 14.3178
#
#
#
# Elastic Compliance Matrix: (Units=1/GPa)
#
#
# Indices 1 2 3 4 5 6 
#
# 1 0.012818 0.005175 -0.000534 0.000000 0.000000 0.000000
# 2 0.005175 0.021176 0.000544 0.000000 0.000000 0.000000
# 3 -0.000534 0.000544 0.009271 0.000000 0.000000 0.000000
# 4 0.000000 0.000000 0.000000 0.093413 0.000000 0.000000
# 5 0.000000 0.000000 0.000000 0.000000 0.049487 0.000000
# 6 0.000000 0.000000 0.000000 0.000000 0.000000 0.069843
#
#
# Mechanical properties :
#
#
# Convention : Reuss Voigt Hill
#
# Bulk Modulus (GPa) = 18.64383 23.22605 20.93494
# Shear Modulus (GPa) = 18.97416 26.87366 22.92391
#
# Velocity S-wave (km/s) = 3.10338 3.69332 3.41113
# Velocity P-wave (km/s) = 4.72278 5.47510 5.11279
#
# Compressibility (1/GPa) = 0.05363704
#
# Stress axis : x y z
#
# Youngs Moduli (GPa) = 78.01521 47.22241 107.86028
#
# Poissons Ratio (x) = -0.24438 0.05756
# Poissons Ratio (y) = -0.40374 -0.05869
# Poissons Ratio (z) = 0.04163 -0.02570
#
# Static dielectric constant tensor:
#      x y z
#    x 1.704520 0.000000 0.000000 
#    y 0.000000 1.727220 0.000000 
#    z 0.000000 0.000000 1.663720 
# 
# From -- ./inp_files/38544.got.cif
#   From: 2010.05.17/outbox.cif.g08.bks.cpg/sg67_20_cif.got.tgz:38544.got - 2010.06.03 18:28:57.
