data_PCOD9504719
_publ_section_title
;
Structure prediction by ZEFSAII (Michael W. Deem and Ramdas Pophale) SiO2 
 PCOD9504719
Probable space group: C M M A
;
_chemical_formula_sum "Si O2"
_cell_formula_units_Z 112
_cell_length_a 17.454964
_cell_length_b 30.284000
_cell_length_c 12.490489
_cell_angle_alpha 90.000000
_cell_angle_beta 90.000000
_cell_angle_gamma 90.000000
_cell_volume 6602.549049
_symmetry_space_group_name_H-M "C M M A"
_symmetry_group_IT_number 67
_symmetry_cell_setting 'orthorhombic'
loop_
_space_group_symop_operation_xyz
x,y,z
-x,1/2-y,z
x,-y,-z
-x,1/2+y,-z
-x,-y,-z
x,1/2+y,-z
-x,y,z
x,1/2-y,z
1/2+x,1/2+y,z
1/2-x,-y,z
1/2+x,1/2-y,-z
1/2-x,y,-z
1/2-x,1/2-y,-z
1/2+x,y,-z
1/2-x,1/2+y,z
1/2+x,-y,z
loop_
_atom_site_type_symbol
_atom_site_label
_atom_site_fract_x
_atom_site_fract_y
_atom_site_fract_z
Si Si1 0.407092 0.798626 0.286586
Si Si2 0.659989 0.053551 0.834271
Si Si3 0.159651 0.047145 0.793789
Si Si4 0.091059 0.893529 0.033408
Si Si5 0.592978 0.201329 0.964714
Si Si6 0.161601 0.548241 0.461692
Si Si7 0.091537 0.607647 0.634953
O O1 0.500000 0.797979 0.290995
O O2 0.380257 0.750000 0.322131
O O3 0.381735 0.841714 0.350735
O O4 0.387324 0.804072 0.160984
O O5 0.751963 0.053432 0.828237
O O6 0.627835 0.078905 0.730613
O O7 0.635551 0.002275 0.828597
O O8 0.630611 0.078064 0.939753
O O9 0.110529 0.083460 0.855057
O O10 0.156408 0.050515 0.665777
O O11 0.118210 0.842617 0.025939
O O12 0.000000 0.894057 0.013997
O O13 0.500000 0.202359 0.970145
O O14 0.620277 0.250000 0.000437
O O15 0.133634 0.500000 0.500000
O O16 0.250000 0.551364 0.500000
O O17 0.115987 0.585913 0.523758
O O18 0.000000 0.606494 0.646811
#
# Coordination Sequence:
#
# PCOD9504719 Si02
#       7
#    16  16  16  16  16  16  16
#     4   8  14  27  49  78 107 132 167 218 271 317
#     4  11  20  38  54  76 104 146 183 211 256 321
#     4  11  23  37  55  73 107 153 184 205 256 332
#     4  11  22  34  53  83 114 137 171 223 269 311
#     4   8  14  27  49  75 104 137 170 210 264 320
#     4  11  20  39  56  74 103 144 187 219 257 313
#     4  11  20  31  56  85 105 130 175 233 273 297
#
# _framework density 16.963145000000001
#
# number of rings (size 3 to 8) (size 9 to 14) (size 15 to 20)
#    0.000    1.857    4.286    3.000    0.000    3.714 
#    0.000    0.000    0.000    3.857    0.000    4.000 
#    0.000    0.000    0.000    0.000    0.000    0.000 
#
# Total GULP energy -312344.893170 kJ/mol
# GULP energy per Si atom -5577.587378 kJ/mol
# Density = 1.692454 g / cm^3
# Si number density = 16.963145 Si / 1000 Ang^3
#
#
#
# Elastic Constant Matrix: (Units=GPa)
#
#
# Indices 1 2 3 4 5 6 
#
# 1 22.2084 31.6011 11.4690 0.0000 0.0000 0.0000
# 2 31.6011 181.1698 62.2603 0.0000 0.0000 0.0000
# 3 11.4690 62.2603 91.8286 0.0000 0.0000 0.0000
# 4 0.0000 0.0000 0.0000 16.6307 0.0000 0.0000
# 5 0.0000 0.0000 0.0000 0.0000 20.8206 0.0000
# 6 0.0000 0.0000 0.0000 0.0000 0.0000 -112.1055
#
#
#
# Elastic Compliance Matrix: (Units=1/GPa)
#
#
# Indices 1 2 3 4 5 6 
#
# 1 0.059913 -0.010272 -0.000518 0.000000 0.000000 0.000000
# 2 -0.010272 0.008958 -0.004790 0.000000 0.000000 0.000000
# 3 -0.000518 -0.004790 0.014202 0.000000 0.000000 0.000000
# 4 0.000000 0.000000 0.000000 0.060130 0.000000 0.000000
# 5 0.000000 0.000000 0.000000 0.000000 0.048029 0.000000
# 6 0.000000 0.000000 0.000000 0.000000 0.000000 -0.008920
#
#
# Mechanical properties :
#
#
# Convention : Reuss Voigt Hill
#
# Bulk Modulus (GPa) = 19.26374 56.20751 37.73563
# Shear Modulus (GPa) = 21.66591 -2.27241 9.69675
#
# Velocity S-wave (km/s) = 3.57772 -1.15867 2.39349
# Velocity P-wave (km/s) = 5.33363 5.60509 5.47104
#
# Compressibility (1/GPa) = 0.05191100
#
# Stress axis : x y z
#
# Youngs Moduli (GPa) = 16.69098 111.63527 70.41025
#
# Poissons Ratio (x) = 1.14676 0.03648
# Poissons Ratio (y) = 0.17146 0.33729
# Poissons Ratio (z) = 0.00865 0.53478
#
# Static dielectric constant tensor:
#      x y z
#    x 1.577070 0.000000 0.000000 
#    y 0.000000 1.604040 0.000000 
#    z 0.000000 0.000000 1.550590 
# 
# From -- ./inp_files/18618.got.cif
#   From: 2010.05.17/outbox.cif.g08.bks.cpg/sg67_10_cif.got.tgz:18618.got - 2010.06.03 18:28:57.
