data_PCOD9504499
_publ_section_title
;
Structure prediction by ZEFSAII (Michael W. Deem and Ramdas Pophale) SiO2 
 PCOD9504499
Probable space group: C M M A
;
_chemical_formula_sum "Si O2"
_cell_formula_units_Z 72
_cell_length_a 9.923326
_cell_length_b 17.015760
_cell_length_c 20.692606
_cell_angle_alpha 90.000000
_cell_angle_beta 90.000000
_cell_angle_gamma 90.000000
_cell_volume 3494.007227
_symmetry_space_group_name_H-M "C M M A"
_symmetry_group_IT_number 67
_symmetry_cell_setting 'orthorhombic'
loop_
_space_group_symop_operation_xyz
x,y,z
-x,1/2-y,z
x,-y,-z
-x,1/2+y,-z
-x,-y,-z
x,1/2+y,-z
-x,y,z
x,1/2-y,z
1/2+x,1/2+y,z
1/2-x,-y,z
1/2+x,1/2-y,-z
1/2-x,y,-z
1/2-x,1/2-y,-z
1/2+x,y,-z
1/2-x,1/2+y,z
1/2+x,-y,z
loop_
_atom_site_type_symbol
_atom_site_label
_atom_site_fract_x
_atom_site_fract_y
_atom_site_fract_z
Si Si1 0.500000 0.844681 0.984351
Si Si2 0.000000 0.616997 0.352453
Si Si3 0.500000 0.896925 0.800666
Si Si4 0.000000 0.561380 0.884421
Si Si5 0.000000 0.460133 0.428560
Si Si6 0.765172 0.339309 0.880138
Si Si7 0.271585 0.334503 0.577335
O O1 0.500000 0.750000 0.002886
O O2 0.363942 0.855387 0.941710
O O3 0.500000 0.912924 0.038558
O O4 0.000000 0.530690 0.380471
O O5 0.866586 0.656346 0.383027
O O6 0.000000 0.603762 0.276090
O O7 0.368661 0.849401 0.822119
O O8 0.500000 0.977570 0.845676
O O9 0.140826 0.603471 0.867586
O O10 0.000000 0.500000 0.500000
O O11 0.870775 0.406863 0.414824
O O12 0.716394 0.250000 0.886612
O O13 0.332472 0.250000 0.595186
O O14 0.250000 0.333152 0.500000
#
# Coordination Sequence:
#
# PCOD9504499 Si02
#       7
#     8   8   8   8   8  16  16
#     4   9  19  38  65  99 134 176 222 279 347 406
#     4  12  26  44  71  91 132 180 222 264 337 409
#     4  11  27  46  59  90 133 184 220 268 338 408
#     4  12  22  37  66  97 132 165 228 284 335 374
#     4  12  23  40  66  99 133 168 198 257 333 392
#     4  10  22  41  66  93 131 176 228 277 329 406
#     4  11  23  41  67 101 131 160 211 268 318 384
#
# _framework density 20.606712000000002
#
# number of rings (size 3 to 8) (size 9 to 14) (size 15 to 20)
#    0.000    1.111    2.222    4.667    0.000   10.667 
#    0.000    4.444    0.000    5.333    0.000    0.000 
#    0.000    0.000    0.000    0.000    0.000    0.000 
#
# Total GULP energy -200700.973541 kJ/mol
# GULP energy per Si atom -5575.027043 kJ/mol
# Density = 2.055981 g / cm^3
# Si number density = 20.606712 Si / 1000 Ang^3
#
#
#
# Elastic Constant Matrix: (Units=GPa)
#
#
# Indices 1 2 3 4 5 6 
#
# 1 115.6056 34.5492 29.0029 0.0000 0.0000 0.0000
# 2 34.5492 98.2801 32.1500 0.0000 0.0000 0.0000
# 3 29.0029 32.1500 138.8127 0.0000 0.0000 0.0000
# 4 0.0000 0.0000 0.0000 29.7003 0.0000 0.0000
# 5 0.0000 0.0000 0.0000 0.0000 31.3000 0.0000
# 6 0.0000 0.0000 0.0000 0.0000 0.0000 37.3426
#
#
#
# Elastic Compliance Matrix: (Units=1/GPa)
#
#
# Indices 1 2 3 4 5 6 
#
# 1 0.009899 -0.003033 -0.001366 0.000000 0.000000 0.000000
# 2 -0.003033 0.011938 -0.002131 0.000000 0.000000 0.000000
# 3 -0.001366 -0.002131 0.007983 0.000000 0.000000 0.000000
# 4 0.000000 0.000000 0.000000 0.033670 0.000000 0.000000
# 5 0.000000 0.000000 0.000000 0.000000 0.031949 0.000000
# 6 0.000000 0.000000 0.000000 0.000000 0.000000 0.026779
#
#
# Mechanical properties :
#
#
# Convention : Reuss Voigt Hill
#
# Bulk Modulus (GPa) = 59.66547 60.45585 60.06066
# Shear Modulus (GPa) = 35.49484 36.80166 36.14825
#
# Velocity S-wave (km/s) = 4.15479 4.23058 4.19286
# Velocity P-wave (km/s) = 7.21343 7.29832 7.25600
#
# Compressibility (1/GPa) = 0.01676011
#
# Stress axis : x y z
#
# Youngs Moduli (GPa) = 101.01802 83.76281 125.26713
#
# Poissons Ratio (x) = 0.25407 0.17109
# Poissons Ratio (y) = 0.30640 0.26698
# Poissons Ratio (z) = 0.13797 0.17852
#
# Static dielectric constant tensor:
#      x y z
#    x 1.685960 0.000000 0.000000 
#    y 0.000000 1.747480 0.000000 
#    z 0.000000 0.000000 1.805020 
# 
# From -- ./inp_files/40558.got.cif
#   From: 2010.05.17/outbox.cif.g08.bks.cpg/sg67_21_cif.got.tgz:40558.got - 2010.06.03 18:28:57.
