data_PCOD9504263
_publ_section_title
;
Structure prediction by ZEFSAII (Michael W. Deem and Ramdas Pophale) SiO2 
 PCOD9504263
Probable space group: C M M A
;
_chemical_formula_sum "Si O2"
_cell_formula_units_Z 64
_cell_length_a 13.796237
_cell_length_b 17.677244
_cell_length_c 12.393575
_cell_angle_alpha 90.000000
_cell_angle_beta 90.000000
_cell_angle_gamma 90.000000
_cell_volume 3022.538226
_symmetry_space_group_name_H-M "C M M A"
_symmetry_group_IT_number 67
_symmetry_cell_setting 'orthorhombic'
loop_
_space_group_symop_operation_xyz
x,y,z
-x,1/2-y,z
x,-y,-z
-x,1/2+y,-z
-x,-y,-z
x,1/2+y,-z
-x,y,z
x,1/2-y,z
1/2+x,1/2+y,z
1/2-x,-y,z
1/2+x,1/2-y,-z
1/2-x,y,-z
1/2-x,1/2-y,-z
1/2+x,y,-z
1/2-x,1/2+y,z
1/2+x,-y,z
loop_
_atom_site_type_symbol
_atom_site_label
_atom_site_fract_x
_atom_site_fract_y
_atom_site_fract_z
Si Si1 0.382008 0.750000 0.722339
Si Si2 0.113892 0.946375 0.653951
Si Si3 0.384541 0.117027 0.436291
Si Si4 0.614949 0.250000 0.022468
Si Si5 0.750000 0.500000 0.833211
Si Si6 0.250000 0.620098 0.000000
O O1 0.500000 0.750000 0.724742
O O2 0.349707 0.822529 0.651546
O O3 0.355105 0.750000 0.849040
O O4 0.151555 0.889877 0.560164
O O5 0.000000 0.932172 0.672362
O O6 0.123755 0.032143 0.608699
O O7 0.175231 0.953004 0.761230
O O8 0.500000 0.132157 0.447699
O O9 0.500000 0.250000 0.015370
O O10 0.663445 0.176539 0.969196
O O11 0.706375 0.564342 0.909983
#
# Coordination Sequence:
#
# PCOD9504263 Si02
#       6
#     8  16  16   8   8   8
#     4   9  15  27  53  82 107 143 184 223 275 337
#     4   9  18  33  52  76 110 148 181 223 283 341
#     4   8  15  28  48  78 110 139 181 227 268 335
#     4  10  21  41  64  81 111 156 191 233 296 347
#     4  11  22  37  58  82 114 151 190 243 292 332
#     4  10  24  40  56  86 114 142 200 254 280 326
#
# _framework density 21.174256
#
# number of rings (size 3 to 8) (size 9 to 14) (size 15 to 20)
#    0.000    2.750    0.000    3.000    0.000    6.000 
#    0.000    5.000    0.000    4.500    0.000    0.000 
#    0.000    0.000    0.000    0.000    0.000    0.000 
#
# Total GULP energy -178319.516508 kJ/mol
# GULP energy per Si atom -5572.484891 kJ/mol
# Density = 2.112606 g / cm^3
# Si number density = 21.174256 Si / 1000 Ang^3
#
#
#
# Elastic Constant Matrix: (Units=GPa)
#
#
# Indices 1 2 3 4 5 6 
#
# 1 64.7696 8.3185 13.0613 0.0000 0.0000 0.0000
# 2 8.3185 56.1297 14.2863 0.0000 0.0000 0.0000
# 3 13.0613 14.2863 64.0051 0.0000 0.0000 0.0000
# 4 0.0000 0.0000 0.0000 36.8890 0.0000 0.0000
# 5 0.0000 0.0000 0.0000 0.0000 30.6578 0.0000
# 6 0.0000 0.0000 0.0000 0.0000 0.0000 17.4520
#
#
#
# Elastic Compliance Matrix: (Units=1/GPa)
#
#
# Indices 1 2 3 4 5 6 
#
# 1 0.016246 -0.001658 -0.002945 0.000000 0.000000 0.000000
# 2 -0.001658 0.019058 -0.003916 0.000000 0.000000 0.000000
# 3 -0.002945 -0.003916 0.017099 0.000000 0.000000 0.000000
# 4 0.000000 0.000000 0.000000 0.027108 0.000000 0.000000
# 5 0.000000 0.000000 0.000000 0.000000 0.032618 0.000000
# 6 0.000000 0.000000 0.000000 0.000000 0.000000 0.057300
#
#
# Mechanical properties :
#
#
# Convention : Reuss Voigt Hill
#
# Bulk Modulus (GPa) = 28.27618 28.47075 28.37347
# Shear Modulus (GPa) = 25.21995 26.94899 26.08447
#
# Velocity S-wave (km/s) = 3.45493 3.57140 3.51364
# Velocity P-wave (km/s) = 5.41280 5.52102 5.46718
#
# Compressibility (1/GPa) = 0.03536546
#
# Stress axis : x y z
#
# Youngs Moduli (GPa) = 61.55281 52.47087 58.48379
#
# Poissons Ratio (x) = 0.08700 0.17225
# Poissons Ratio (y) = 0.10206 0.22900
# Poissons Ratio (z) = 0.18129 0.20545
#
# Static dielectric constant tensor:
#      x y z
#    x 1.800050 0.000000 0.000000 
#    y 0.000000 1.750100 0.000000 
#    z 0.000000 0.000000 1.851700 
# 
# From -- ./inp_files/17596.got.cif
#   From: 2010.05.17/outbox.cif.g08.bks.cpg/sg67_9_cif.got.tgz:17596.got - 2010.06.03 18:28:57.
