data_PCOD9504401
_publ_section_title
;
Structure prediction by ZEFSAII (Michael W. Deem and Ramdas Pophale) SiO2 
 PCOD9504401
Probable space group: C M M A
;
_chemical_formula_sum "Si O2"
_cell_formula_units_Z 96
_cell_length_a 14.273046
_cell_length_b 15.801278
_cell_length_c 19.988707
_cell_angle_alpha 90.000000
_cell_angle_beta 90.000000
_cell_angle_gamma 90.000000
_cell_volume 4508.100418
_symmetry_space_group_name_H-M "C M M A"
_symmetry_group_IT_number 67
_symmetry_cell_setting 'orthorhombic'
loop_
_space_group_symop_operation_xyz
x,y,z
-x,1/2-y,z
x,-y,-z
-x,1/2+y,-z
-x,-y,-z
x,1/2+y,-z
-x,y,z
x,1/2-y,z
1/2+x,1/2+y,z
1/2-x,-y,z
1/2+x,1/2-y,-z
1/2-x,y,-z
1/2-x,1/2-y,-z
1/2+x,y,-z
1/2-x,1/2+y,z
1/2+x,-y,z
loop_
_atom_site_type_symbol
_atom_site_label
_atom_site_fract_x
_atom_site_fract_y
_atom_site_fract_z
Si Si1 0.889488 0.514312 0.719569
Si Si2 0.394149 0.656984 0.170062
Si Si3 0.387236 0.650492 0.799220
Si Si4 0.603707 0.349245 0.460925
Si Si5 0.723749 0.652802 0.929003
Si Si6 0.788674 0.412128 0.409915
O O1 0.878938 0.579434 0.780655
O O2 0.856916 0.421143 0.745219
O O3 0.838795 0.560903 0.658267
O O4 0.000000 0.506903 0.703716
O O5 0.500000 0.651685 0.144469
O O6 0.384476 0.750000 0.204013
O O7 0.320309 0.654437 0.111390
O O8 0.500000 0.650108 0.799370
O O9 0.357534 0.750000 0.787983
O O10 0.349371 0.622027 0.872477
O O11 0.500000 0.387108 0.445154
O O12 0.592317 0.250000 0.464290
O O13 0.690137 0.361966 0.409357
O O14 0.640874 0.376684 0.534267
O O15 0.692599 0.750000 0.943472
O O16 0.750000 0.611579 0.000000
O O17 0.750000 0.500000 0.435435
#
# Coordination Sequence:
#
# PCOD9504401 Si02
#       6
#    16  16  16  16  16  16
#     4  10  22  39  60  89 122 161 212 261 314 378
#     4   9  19  35  55  81 117 157 197 251 313 373
#     4   9  19  37  59  83 118 164 211 264 322 381
#     4  10  22  43  68  95 130 165 202 252 307 370
#     4   9  18  33  57  87 117 156 204 255 316 383
#     4  11  23  37  63  96 123 161 206 252 307 365
#
# _framework density 21.295000000000002
#
# number of rings (size 3 to 8) (size 9 to 14) (size 15 to 20)
#    0.000    2.333    0.000    2.500    2.333    4.000 
#    0.000    8.333    0.000    5.000    0.000    0.000 
#    0.000    0.000    0.000    0.000    0.000    0.000 
#
# Total GULP energy -267326.804581 kJ/mol
# GULP energy per Si atom -5569.308429 kJ/mol
# Density = 2.124653 g / cm^3
# Si number density = 21.295000 Si / 1000 Ang^3
#
#
#
# Elastic Constant Matrix: (Units=GPa)
#
#
# Indices 1 2 3 4 5 6 
#
# 1 110.4257 36.5205 49.9638 0.0000 0.0000 0.0000
# 2 36.5205 93.6344 35.1852 0.0000 0.0000 0.0000
# 3 49.9638 35.1852 106.4231 0.0000 0.0000 0.0000
# 4 0.0000 0.0000 0.0000 22.9638 0.0000 0.0000
# 5 0.0000 0.0000 0.0000 0.0000 9.1643 0.0000
# 6 0.0000 0.0000 0.0000 0.0000 0.0000 22.5899
#
#
#
# Elastic Compliance Matrix: (Units=1/GPa)
#
#
# Indices 1 2 3 4 5 6 
#
# 1 0.012182 -0.002971 -0.004737 0.000000 0.000000 0.000000
# 2 -0.002971 0.012920 -0.002876 0.000000 0.000000 0.000000
# 3 -0.004737 -0.002876 0.012571 0.000000 0.000000 0.000000
# 4 0.000000 0.000000 0.000000 0.043547 0.000000 0.000000
# 5 0.000000 0.000000 0.000000 0.000000 0.109119 0.000000
# 6 0.000000 0.000000 0.000000 0.000000 0.000000 0.044268
#
#
# Mechanical properties :
#
#
# Convention : Reuss Voigt Hill
#
# Bulk Modulus (GPa) = 60.59285 61.53580 61.06433
# Shear Modulus (GPa) = 19.13682 23.53119 21.33400
#
# Velocity S-wave (km/s) = 3.00101 3.32778 3.16861
# Velocity P-wave (km/s) = 6.36583 6.61249 6.49033
#
# Compressibility (1/GPa) = 0.01650360
#
# Stress axis : x y z
#
# Youngs Moduli (GPa) = 82.08980 77.40151 79.54638
#
# Poissons Ratio (x) = 0.22999 0.37679
# Poissons Ratio (y) = 0.24392 0.22881
# Poissons Ratio (z) = 0.38884 0.22264
#
# Static dielectric constant tensor:
#      x y z
#    x 2.944530 0.000000 0.000000 
#    y 0.000000 1.741720 0.000000 
#    z 0.000000 0.000000 1.875250 
# 
# From -- ./inp_files/38487.got.cif
#   From: 2010.05.17/outbox.cif.g08.bks.cpg/sg67_20_cif.got.tgz:38487.got - 2010.06.03 18:28:57.
