data_PCOD9504095
_publ_section_title
;
Structure prediction by ZEFSAII (Michael W. Deem and Ramdas Pophale) SiO2 
 PCOD9504095
Probable space group: C M M A
;
_chemical_formula_sum "Si O2"
_cell_formula_units_Z 88
_cell_length_a 24.790520
_cell_length_b 8.922863
_cell_length_c 19.995697
_cell_angle_alpha 90.000000
_cell_angle_beta 90.000000
_cell_angle_gamma 90.000000
_cell_volume 4423.096439
_symmetry_space_group_name_H-M "C M M A"
_symmetry_group_IT_number 67
_symmetry_cell_setting 'orthorhombic'
loop_
_space_group_symop_operation_xyz
x,y,z
-x,1/2-y,z
x,-y,-z
-x,1/2+y,-z
-x,-y,-z
x,1/2+y,-z
-x,y,z
x,1/2-y,z
1/2+x,1/2+y,z
1/2-x,-y,z
1/2+x,1/2-y,-z
1/2-x,y,-z
1/2-x,1/2-y,-z
1/2+x,y,-z
1/2-x,1/2+y,z
1/2+x,-y,z
loop_
_atom_site_type_symbol
_atom_site_label
_atom_site_fract_x
_atom_site_fract_y
_atom_site_fract_z
Si Si1 0.191094 0.426857 0.435259
Si Si2 0.336066 0.081417 0.300099
Si Si3 0.669699 0.923464 0.065461
Si Si4 0.060169 0.575393 0.751017
Si Si5 0.440689 0.926974 0.893081
Si Si6 0.750000 0.000000 0.814322
O O1 0.162095 0.500000 0.500000
O O2 0.193356 0.250000 0.444356
O O3 0.250000 0.500000 0.434839
O O4 0.171678 0.467929 0.361354
O O5 0.332847 0.250000 0.326715
O O6 0.292447 0.071121 0.239449
O O7 0.395020 0.038345 0.274470
O O8 0.657514 0.750000 0.052432
O O9 0.614377 0.016689 0.074342
O O10 0.707831 0.928521 0.131723
O O11 0.694887 0.000000 0.000000
O O12 0.076192 0.750000 0.742936
O O13 0.056194 0.532975 0.828517
O O14 0.000000 0.556168 0.721691
O O15 0.500000 0.940036 0.926926
O O16 0.434901 0.750000 0.875963
#
# Coordination Sequence:
#
# PCOD9504095 Si02
#       6
#    16  16  16  16  16   8
#     4  11  22  38  60  90 132 174 216 259 310 369
#     4  12  24  39  65  96 129 168 211 259 310 368
#     4  12  27  45  65  88 121 163 208 256 316 378
#     4  10  21  38  62  93 127 162 204 256 314 372
#     4  10  21  39  64  92 121 154 199 256 315 373
#     4  12  27  42  65  92 124 162 210 256 307 374
#
# _framework density 19.895562999999999
#
# number of rings (size 3 to 8) (size 9 to 14) (size 15 to 20)
#    0.000    0.909    2.727    5.182    0.000    6.909 
#    0.000    0.000    0.000    0.545    0.000    0.000 
#    0.000    0.000    0.000    0.000    0.000    0.000 
#
# Total GULP energy -245033.414952 kJ/mol
# GULP energy per Si atom -5568.941249 kJ/mol
# Density = 1.985028 g / cm^3
# Si number density = 19.895563 Si / 1000 Ang^3
#
#
#
# Elastic Constant Matrix: (Units=GPa)
#
#
# Indices 1 2 3 4 5 6 
#
# 1 106.2293 24.2401 18.0185 0.0000 0.0000 0.0000
# 2 24.2401 125.3364 19.9860 0.0000 0.0000 0.0000
# 3 18.0185 19.9860 93.3694 0.0000 0.0000 0.0000
# 4 0.0000 0.0000 0.0000 26.8231 0.0000 0.0000
# 5 0.0000 0.0000 0.0000 0.0000 6.8271 0.0000
# 6 0.0000 0.0000 0.0000 0.0000 0.0000 -18.4246
#
#
#
# Elastic Compliance Matrix: (Units=1/GPa)
#
#
# Indices 1 2 3 4 5 6 
#
# 1 0.010068 -0.001695 -0.001580 0.000000 0.000000 0.000000
# 2 -0.001695 0.008546 -0.001502 0.000000 0.000000 0.000000
# 3 -0.001580 -0.001502 0.011337 0.000000 0.000000 0.000000
# 4 0.000000 0.000000 0.000000 0.037281 0.000000 0.000000
# 5 0.000000 0.000000 0.000000 0.000000 0.146474 0.000000
# 6 0.000000 0.000000 0.000000 0.000000 0.000000 -0.054275
#
#
# Mechanical properties :
#
#
# Convention : Reuss Voigt Hill
#
# Bulk Modulus (GPa) = 49.02941 49.93602 49.48271
# Shear Modulus (GPa) = 28.44383 20.55783 24.50083
#
# Velocity S-wave (km/s) = 3.78518 3.21797 3.51304
# Velocity P-wave (km/s) = 6.61818 6.24184 6.43277
#
# Compressibility (1/GPa) = 0.02039592
#
# Stress axis : x y z
#
# Youngs Moduli (GPa) = 99.32004 117.01488 88.20973
#
# Poissons Ratio (x) = 0.19837 0.13938
# Poissons Ratio (y) = 0.16837 0.13250
# Poissons Ratio (z) = 0.15694 0.17577
#
# Static dielectric constant tensor:
#      x y z
#    x 1.778350 0.000000 0.000000 
#    y 0.000000 1.687440 0.000000 
#    z 0.000000 0.000000 1.783780 
# 
# From -- ./inp_files/39566.got.cif
#   From: 2010.05.17/outbox.cif.g08.bks.cpg/sg67_20_cif.got.tgz:39566.got - 2010.06.03 18:28:57.
