data_PCOD9504723
_publ_section_title
;
Structure prediction by ZEFSAII (Michael W. Deem and Ramdas Pophale) SiO2 
 PCOD9504723
Probable space group: C M M A
;
_chemical_formula_sum "Si O2"
_cell_formula_units_Z 100
_cell_length_a 30.327236
_cell_length_b 15.287211
_cell_length_c 11.747978
_cell_angle_alpha 90.000000
_cell_angle_beta 90.000000
_cell_angle_gamma 90.000000
_cell_volume 5446.584118
_symmetry_space_group_name_H-M "C M M A"
_symmetry_group_IT_number 67
_symmetry_cell_setting 'orthorhombic'
loop_
_space_group_symop_operation_xyz
x,y,z
-x,1/2-y,z
x,-y,-z
-x,1/2+y,-z
-x,-y,-z
x,1/2+y,-z
-x,y,z
x,1/2-y,z
1/2+x,1/2+y,z
1/2-x,-y,z
1/2+x,1/2-y,-z
1/2-x,y,-z
1/2-x,1/2-y,-z
1/2+x,y,-z
1/2-x,1/2+y,z
1/2+x,-y,z
loop_
_atom_site_type_symbol
_atom_site_label
_atom_site_fract_x
_atom_site_fract_y
_atom_site_fract_z
Si Si1 0.549932 0.604296 0.135547
Si Si2 0.436574 0.601083 0.868692
Si Si3 0.844227 0.848539 0.226431
Si Si4 0.301586 0.500560 0.636091
Si Si5 0.302548 0.102296 0.998638
Si Si6 0.500000 0.250000 0.211320
Si Si7 0.646096 0.849337 0.228959
O O1 0.500000 0.636471 0.165568
O O2 0.548461 0.498895 0.141980
O O3 0.593660 0.633930 0.204461
O O4 0.558527 0.626466 0.002172
O O5 0.387696 0.605815 0.821918
O O6 0.462754 0.672716 0.798406
O O7 0.852359 0.750000 0.265309
O O8 0.822367 0.909582 0.319631
O O9 0.814618 0.849483 0.114170
O O10 0.302951 0.500000 0.500000
O O11 0.250000 0.500000 0.673280
O O12 0.330106 0.421310 0.690847
O O13 0.327708 0.142561 0.890962
O O14 0.250000 0.103431 0.000000
O O15 0.316705 0.000000 0.000000
O O16 0.650981 0.750000 0.272135
#
# Coordination Sequence:
#
# PCOD9504723 Si02
#       7
#    16  16  16  16  16   4  16
#     4  11  21  36  56  87 132 178 205 241 304 371
#     4  11  20  33  53  87 130 164 203 246 292 369
#     4  12  23  37  62  93 125 162 201 252 316 377
#     4  11  26  48  69  88 117 162 217 272 322 374
#     4  11  21  36  58  86 127 167 197 241 312 389
#     4  12  20  30  56  92 130 164 210 250 292 366
#     4  12  25  39  63  95 130 165 208 260 315 378
#
# _framework density 18.360130999999999
#
# number of rings (size 3 to 8) (size 9 to 14) (size 15 to 20)
#    0.000    0.640    7.200    1.920    1.120    4.160 
#    0.000    1.600    0.000    0.480    0.000    0.000 
#    0.000    0.000    0.000    0.000    0.000    0.000 
#
# Total GULP energy -278518.334853 kJ/mol
# GULP energy per Si atom -5570.366697 kJ/mol
# Density = 1.831834 g / cm^3
# Si number density = 18.360131 Si / 1000 Ang^3
#
#
#
# Elastic Constant Matrix: (Units=GPa)
#
#
# Indices 1 2 3 4 5 6 
#
# 1 138.5352 35.5664 33.7673 0.0000 0.0000 0.0000
# 2 35.5664 94.0735 20.6387 0.0000 0.0000 0.0000
# 3 33.7673 20.6387 53.1092 0.0000 0.0000 0.0000
# 4 0.0000 0.0000 0.0000 6.2499 0.0000 0.0000
# 5 0.0000 0.0000 0.0000 0.0000 36.1290 0.0000
# 6 0.0000 0.0000 0.0000 0.0000 0.0000 42.1382
#
#
#
# Elastic Compliance Matrix: (Units=1/GPa)
#
#
# Indices 1 2 3 4 5 6 
#
# 1 0.008992 -0.002345 -0.004806 0.000000 0.000000 0.000000
# 2 -0.002345 0.012232 -0.003263 0.000000 0.000000 0.000000
# 3 -0.004806 -0.003263 0.023153 0.000000 0.000000 0.000000
# 4 0.000000 0.000000 0.000000 0.160002 0.000000 0.000000
# 5 0.000000 0.000000 0.000000 0.000000 0.027679 0.000000
# 6 0.000000 0.000000 0.000000 0.000000 0.000000 0.023731
#
#
# Mechanical properties :
#
#
# Convention : Reuss Voigt Hill
#
# Bulk Modulus (GPa) = 42.46314 51.74031 47.10173
# Shear Modulus (GPa) = 17.57682 29.95313 23.76497
#
# Velocity S-wave (km/s) = 3.09744 4.04347 3.60165
# Velocity P-wave (km/s) = 5.99753 7.07400 6.55789
#
# Compressibility (1/GPa) = 0.02354983
#
# Stress axis : x y z
#
# Youngs Moduli (GPa) = 111.21181 81.75006 43.19184
#
# Poissons Ratio (x) = 0.19172 0.20757
# Poissons Ratio (y) = 0.26082 0.14091
# Poissons Ratio (z) = 0.53445 0.26671
#
# Static dielectric constant tensor:
#      x y z
#    x 1.591580 0.000000 0.000000 
#    y 0.000000 1.660650 0.000000 
#    z 0.000000 0.000000 1.603120 
# 
# From -- ./inp_files/23734.got.cif
#   From: 2010.05.17/outbox.cif.g08.bks.cpg/sg67_12_cif.got.tgz:23734.got - 2010.06.03 18:28:57.
