data_PCOD9504202
_publ_section_title
;
Structure prediction by ZEFSAII (Michael W. Deem and Ramdas Pophale) SiO2 
 PCOD9504202
Probable space group: C M M A
;
_chemical_formula_sum "Si O2"
_cell_formula_units_Z 112
_cell_length_a 16.757630
_cell_length_b 22.618387
_cell_length_c 14.464920
_cell_angle_alpha 90.000000
_cell_angle_beta 90.000000
_cell_angle_gamma 90.000000
_cell_volume 5482.646736
_symmetry_space_group_name_H-M "C M M A"
_symmetry_group_IT_number 67
_symmetry_cell_setting 'orthorhombic'
loop_
_space_group_symop_operation_xyz
x,y,z
-x,1/2-y,z
x,-y,-z
-x,1/2+y,-z
-x,-y,-z
x,1/2+y,-z
-x,y,z
x,1/2-y,z
1/2+x,1/2+y,z
1/2-x,-y,z
1/2+x,1/2-y,-z
1/2-x,y,-z
1/2-x,1/2-y,-z
1/2+x,y,-z
1/2-x,1/2+y,z
1/2+x,-y,z
loop_
_atom_site_type_symbol
_atom_site_label
_atom_site_fract_x
_atom_site_fract_y
_atom_site_fract_z
Si Si1 0.094604 0.877877 0.835063
Si Si2 0.904245 0.400934 0.443819
Si Si3 0.808686 0.181173 0.324987
Si Si4 0.156061 0.984717 0.720878
Si Si5 0.089900 0.184404 0.797747
Si Si6 0.145163 0.392252 0.652047
Si Si7 0.156009 0.180096 0.983140
O O1 0.145237 0.833196 0.770222
O O2 0.126708 0.942608 0.803683
O O3 0.111794 0.858222 0.939399
O O4 0.000000 0.874935 0.814857
O O5 0.870367 0.339210 0.404291
O O6 0.870388 0.449486 0.371844
O O7 0.870025 0.408007 0.546319
O O8 0.000000 0.403460 0.444275
O O9 0.787376 0.250000 0.331968
O O10 0.733152 0.136573 0.333824
O O11 0.250000 0.000000 0.722357
O O12 0.122496 0.050427 0.712367
O O13 0.123269 0.250000 0.788966
O O14 0.091018 0.157558 0.696775
O O15 0.000000 0.185961 0.832760
O O16 0.140231 0.155773 0.879958
O O17 0.130787 0.250000 0.988145
O O18 0.250000 0.178475 0.000000
#
# Coordination Sequence:
#
# PCOD9504202 Si02
#       7
#    16  16  16  16  16  16  16
#     4  11  23  41  67 100 130 165 215 270 330 386
#     4  11  25  41  62  94 125 165 219 270 323 387
#     4  11  23  39  61  92 129 167 212 265 323 394
#     4  11  23  42  67  91 123 166 211 271 317 389
#     4  10  22  39  60  92 128 162 207 259 313 375
#     4  12  23  40  66  88 125 171 217 264 318 380
#     4  10  21  39  67  97 129 171 216 259 312 385
#
# _framework density 20.428090000000001
#
# number of rings (size 3 to 8) (size 9 to 14) (size 15 to 20)
#    0.000    1.143    2.857    5.143    0.000    8.857 
#    0.000    0.714    0.000    1.714    0.000    0.000 
#    0.000    0.000    0.000    0.000    0.000    0.000 
#
# Total GULP energy -312395.849298 kJ/mol
# GULP energy per Si atom -5578.497309 kJ/mol
# Density = 2.038159 g / cm^3
# Si number density = 20.428090 Si / 1000 Ang^3
#
#
#
# Elastic Constant Matrix: (Units=GPa)
#
#
# Indices 1 2 3 4 5 6 
#
# 1 117.1155 20.9836 9.0943 0.0000 0.0000 0.0000
# 2 20.9836 105.9640 18.1367 0.0000 0.0000 0.0000
# 3 9.0943 18.1367 36.6521 0.0000 0.0000 0.0000
# 4 0.0000 0.0000 0.0000 20.2154 0.0000 0.0000
# 5 0.0000 0.0000 0.0000 0.0000 32.1868 0.0000
# 6 0.0000 0.0000 0.0000 0.0000 0.0000 18.3150
#
#
#
# Elastic Compliance Matrix: (Units=1/GPa)
#
#
# Indices 1 2 3 4 5 6 
#
# 1 0.008924 -0.001517 -0.001464 0.000000 0.000000 0.000000
# 2 -0.001517 0.010568 -0.004853 0.000000 0.000000 0.000000
# 3 -0.001464 -0.004853 0.030048 0.000000 0.000000 0.000000
# 4 0.000000 0.000000 0.000000 0.049467 0.000000 0.000000
# 5 0.000000 0.000000 0.000000 0.000000 0.031069 0.000000
# 6 0.000000 0.000000 0.000000 0.000000 0.000000 0.054600
#
#
# Mechanical properties :
#
#
# Convention : Reuss Voigt Hill
#
# Bulk Modulus (GPa) = 29.52184 39.57342 34.54763
# Shear Modulus (GPa) = 23.62560 28.24456 25.93508
#
# Velocity S-wave (km/s) = 3.40446 3.72241 3.56698
# Velocity P-wave (km/s) = 5.47145 6.15542 5.82349
#
# Compressibility (1/GPa) = 0.03387323
#
# Stress axis : x y z
#
# Youngs Moduli (GPa) = 112.05755 94.62380 33.27979
#
# Poissons Ratio (x) = 0.14351 0.04871
# Poissons Ratio (y) = 0.16995 0.16151
# Poissons Ratio (z) = 0.16403 0.45923
#
# Static dielectric constant tensor:
#      x y z
#    x 1.769740 0.000000 0.000000 
#    y 0.000000 1.756000 0.000000 
#    z 0.000000 0.000000 1.712710 
# 
# From -- ./inp_files/27529.got.cif
#   From: 2010.05.17/outbox.cif.g08.bks.cpg/sg67_14_cif.got.tgz:27529.got - 2010.06.03 18:28:57.
