data_PCOD9504809
_publ_section_title
;
Structure prediction by ZEFSAII (Michael W. Deem and Ramdas Pophale) SiO2 
 PCOD9504809
Probable space group: C M M A
;
_chemical_formula_sum "Si O2"
_cell_formula_units_Z 112
_cell_length_a 15.264231
_cell_length_b 22.819926
_cell_length_c 16.242411
_cell_angle_alpha 90.000000
_cell_angle_beta 90.000000
_cell_angle_gamma 90.000000
_cell_volume 5657.696639
_symmetry_space_group_name_H-M "C M M A"
_symmetry_group_IT_number 67
_symmetry_cell_setting 'orthorhombic'
loop_
_space_group_symop_operation_xyz
x,y,z
-x,1/2-y,z
x,-y,-z
-x,1/2+y,-z
-x,-y,-z
x,1/2+y,-z
-x,y,z
x,1/2-y,z
1/2+x,1/2+y,z
1/2-x,-y,z
1/2+x,1/2-y,-z
1/2-x,y,-z
1/2-x,1/2-y,-z
1/2+x,y,-z
1/2-x,1/2+y,z
1/2+x,-y,z
loop_
_atom_site_type_symbol
_atom_site_label
_atom_site_fract_x
_atom_site_fract_y
_atom_site_fract_z
Si Si1 0.755918 0.819024 0.731342
Si Si2 0.601466 0.999695 0.600358
Si Si3 0.597566 0.862933 0.840325
Si Si4 0.647582 0.817396 0.011745
Si Si5 0.403884 0.887921 0.169346
Si Si6 0.145396 0.992100 0.095215
Si Si7 0.249887 0.908177 0.598533
O O1 0.771653 0.750000 0.735392
O O2 0.667125 0.836073 0.778273
O O3 0.830747 0.855874 0.777662
O O4 0.750963 0.845359 0.640270
O O5 0.500000 0.999759 0.629197
O O6 0.662656 0.944371 0.624634
O O7 0.598350 0.000000 0.500000
O O8 0.662819 0.054984 0.623936
O O9 0.500000 0.862492 0.806316
O O10 0.603271 0.825376 0.923978
O O11 0.621995 0.928690 0.869252
O O12 0.644096 0.750000 0.039465
O O13 0.750000 0.833735 0.000000
O O14 0.605376 0.858971 0.079022
O O15 0.500000 0.876863 0.203673
O O16 0.390327 0.956665 0.153588
O O17 0.250000 0.000000 0.093959
O O18 0.114701 0.000000 0.000000
O O19 0.250000 0.905848 0.500000
#
# Coordination Sequence:
#
# PCOD9504809 Si02
#       7
#    16  16  16  16  16  16  16
#     4  12  27  45  61  85 128 168 209 271 317 358
#     4   8  15  33  65 101 131 153 184 244 311 373
#     4  12  25  41  63  90 121 163 209 254 313 376
#     4  11  21  38  61  85 119 163 209 253 298 359
#     4  12  25  41  63  90 121 163 209 254 313 376
#     4  11  21  39  64  90 125 161 197 254 317 370
#     4   9  20  39  66  97 125 163 211 252 309 383
#
# _framework density 19.796042
#
# number of rings (size 3 to 8) (size 9 to 14) (size 15 to 20)
#    0.000    1.286    4.286    2.571    0.000    7.143 
#    0.000    0.000    0.000    0.000    0.000    6.000 
#    0.000    0.000    0.000    0.000    0.000    0.000 
#
# Total GULP energy -313062.731107 kJ/mol
# GULP energy per Si atom -5590.405913 kJ/mol
# Density = 1.975099 g / cm^3
# Si number density = 19.796042 Si / 1000 Ang^3
#
#
#
# Elastic Constant Matrix: (Units=GPa)
#
#
# Indices 1 2 3 4 5 6 
#
# 1 141.9587 22.4837 14.4888 0.0000 0.0000 0.0000
# 2 22.4837 87.5563 24.9858 0.0000 0.0000 0.0000
# 3 14.4888 24.9858 40.9240 0.0000 0.0000 0.0000
# 4 0.0000 0.0000 0.0000 25.8329 0.0000 0.0000
# 5 0.0000 0.0000 0.0000 0.0000 -20.7360 0.0000
# 6 0.0000 0.0000 0.0000 0.0000 0.0000 -29.4421
#
#
#
# Elastic Compliance Matrix: (Units=1/GPa)
#
#
# Indices 1 2 3 4 5 6 
#
# 1 0.007448 -0.001405 -0.001779 0.000000 0.000000 0.000000
# 2 -0.001405 0.014096 -0.008109 0.000000 0.000000 0.000000
# 3 -0.001779 -0.008109 0.030016 0.000000 0.000000 0.000000
# 4 0.000000 0.000000 0.000000 0.038710 0.000000 0.000000
# 5 0.000000 0.000000 0.000000 0.000000 -0.048225 0.000000
# 6 0.000000 0.000000 0.000000 0.000000 0.000000 -0.033965
#
#
# Mechanical properties :
#
#
# Convention : Reuss Voigt Hill
#
# Bulk Modulus (GPa) = 34.51294 43.81729 39.16511
# Shear Modulus (GPa) = 123.99288 9.02967 66.51127
#
# Velocity S-wave (km/s) = 7.92283 2.13805 5.80269
# Velocity P-wave (km/s) = 10.05818 5.31765 8.04501
#
# Compressibility (1/GPa) = 0.02897464
#
# Stress axis : x y z
#
# Youngs Moduli (GPa) = 134.25667 70.94215 33.31532
#
# Poissons Ratio (x) = 0.09967 0.05928
# Poissons Ratio (y) = 0.18862 0.27015
# Poissons Ratio (z) = 0.23888 0.57525
#
# Static dielectric constant tensor:
#      x y z
#    x 1.721800 0.000000 0.000000 
#    y 0.000000 1.670200 0.000000 
#    z 0.000000 0.000000 1.697830 
# 
# From -- ./inp_files/27471.got.cif
#   From: 2010.05.17/outbox.cif.g08.bks.cpg/sg67_14_cif.got.tgz:27471.got - 2010.06.03 18:28:57.
