data_PCOD9504382
_publ_section_title
;
Structure prediction by ZEFSAII (Michael W. Deem and Ramdas Pophale) SiO2 
 PCOD9504382
Probable space group: C M M A
;
_chemical_formula_sum "Si O2"
_cell_formula_units_Z 68
_cell_length_a 19.678645
_cell_length_b 9.383193
_cell_length_c 18.924024
_cell_angle_alpha 90.000000
_cell_angle_beta 90.000000
_cell_angle_gamma 90.000000
_cell_volume 3494.293100
_symmetry_space_group_name_H-M "C M M A"
_symmetry_group_IT_number 67
_symmetry_cell_setting 'orthorhombic'
loop_
_space_group_symop_operation_xyz
x,y,z
-x,1/2-y,z
x,-y,-z
-x,1/2+y,-z
-x,-y,-z
x,1/2+y,-z
-x,y,z
x,1/2-y,z
1/2+x,1/2+y,z
1/2-x,-y,z
1/2+x,1/2-y,-z
1/2-x,y,-z
1/2-x,1/2-y,-z
1/2+x,y,-z
1/2-x,1/2+y,z
1/2+x,-y,z
loop_
_atom_site_type_symbol
_atom_site_label
_atom_site_fract_x
_atom_site_fract_y
_atom_site_fract_z
Si Si1 0.679118 0.082957 0.300570
Si Si2 0.921586 0.921072 0.426332
Si Si3 0.858648 0.250000 0.941651
Si Si4 0.618871 0.989652 0.154651
Si Si5 0.199275 0.250000 0.092821
Si Si6 0.000000 0.750000 0.839468
O O1 0.693843 0.250000 0.308585
O O2 0.631523 0.036325 0.365976
O O3 0.750000 0.000000 0.298357
O O4 0.636014 0.061438 0.229133
O O5 0.917104 0.750000 0.435936
O O6 0.000000 0.953473 0.405578
O O7 0.907982 0.000000 0.500000
O O8 0.890347 0.389912 0.905545
O O9 0.778214 0.250000 0.924936
O O10 0.853842 0.250000 0.026462
O O11 0.683451 0.893001 0.134469
O O12 0.558752 0.876186 0.160166
#
# Coordination Sequence:
#
# PCOD9504382 Si02
#       6
#    16  16   8  16   8   4
#     4  11  24  40  65  95 129 169 211 267 324 377
#     4   9  20  41  64  93 126 164 211 255 308 378
#     4  11  20  39  69  95 120 168 206 264 330 376
#     4  11  23  42  60  90 130 162 217 264 317 378
#     4  10  22  38  65  97 128 156 209 265 322 385
#     4  10  28  44  58  90 124 172 214 264 318 388
#
# _framework density 19.460303
#
# number of rings (size 3 to 8) (size 9 to 14) (size 15 to 20)
#    0.000    1.647    1.176    2.824    4.941    3.765 
#    0.000   11.765    0.000    0.000    0.000    0.000 
#    0.000    0.000    0.000    0.000    0.000    0.000 
#
# Total GULP energy -189329.719182 kJ/mol
# GULP energy per Si atom -5568.521152 kJ/mol
# Density = 1.941601 g / cm^3
# Si number density = 19.460303 Si / 1000 Ang^3
#
#
#
# Elastic Constant Matrix: (Units=GPa)
#
#
# Indices 1 2 3 4 5 6 
#
# 1 93.6638 35.4884 38.2296 0.0000 0.0000 0.0000
# 2 35.4884 83.3050 21.3027 0.0000 0.0000 0.0000
# 3 38.2296 21.3027 91.5959 0.0000 0.0000 0.0000
# 4 0.0000 0.0000 0.0000 27.0519 0.0000 0.0000
# 5 0.0000 0.0000 0.0000 0.0000 -37.0248 0.0000
# 6 0.0000 0.0000 0.0000 0.0000 0.0000 9.8081
#
#
#
# Elastic Compliance Matrix: (Units=1/GPa)
#
#
# Indices 1 2 3 4 5 6 
#
# 1 0.014560 -0.004943 -0.004928 0.000000 0.000000 0.000000
# 2 -0.004943 0.014441 -0.001296 0.000000 0.000000 0.000000
# 3 -0.004928 -0.001296 0.013275 0.000000 0.000000 0.000000
# 4 0.000000 0.000000 0.000000 0.036966 0.000000 0.000000
# 5 0.000000 0.000000 0.000000 0.000000 -0.027009 0.000000
# 6 0.000000 0.000000 0.000000 0.000000 0.000000 0.101956
#
#
# Mechanical properties :
#
#
# Convention : Reuss Voigt Hill
#
# Bulk Modulus (GPa) = 50.13773 50.95624 50.54698
# Shear Modulus (GPa) = 27.29699 11.53665 19.41682
#
# Velocity S-wave (km/s) = 3.74933 2.43745 3.16217
# Velocity P-wave (km/s) = 6.67558 5.84492 6.27401
#
# Compressibility (1/GPa) = 0.01994506
#
# Stress axis : x y z
#
# Youngs Moduli (GPa) = 68.67904 69.24708 75.32679
#
# Poissons Ratio (x) = 0.34227 0.37118
# Poissons Ratio (y) = 0.33946 0.09760
# Poissons Ratio (z) = 0.33842 0.08972
#
# Static dielectric constant tensor:
#      x y z
#    x 1.664940 0.000000 0.000000 
#    y 0.000000 1.658250 0.000000 
#    z 0.000000 0.000000 1.689580 
# 
# From -- ./inp_files/34718.got.cif
#   From: 2010.05.17/outbox.cif.g08.bks.cpg/sg67_18_cif.got.tgz:34718.got - 2010.06.03 18:28:57.
