data_PCOD9504936
_publ_section_title
;
Structure prediction by ZEFSAII (Michael W. Deem and Ramdas Pophale) SiO2 
 PCOD9504936
Probable space group: C M M A
;
_chemical_formula_sum "Si O2"
_cell_formula_units_Z 72
_cell_length_a 8.345801
_cell_length_b 16.228260
_cell_length_c 25.930577
_cell_angle_alpha 90.000000
_cell_angle_beta 90.000000
_cell_angle_gamma 90.000000
_cell_volume 3511.981042
_symmetry_space_group_name_H-M "C M M A"
_symmetry_group_IT_number 67
_symmetry_cell_setting 'orthorhombic'
loop_
_space_group_symop_operation_xyz
x,y,z
-x,1/2-y,z
x,-y,-z
-x,1/2+y,-z
-x,-y,-z
x,1/2+y,-z
-x,y,z
x,1/2-y,z
1/2+x,1/2+y,z
1/2-x,-y,z
1/2+x,1/2-y,-z
1/2-x,y,-z
1/2-x,1/2-y,-z
1/2+x,y,-z
1/2-x,1/2+y,z
1/2+x,-y,z
loop_
_atom_site_type_symbol
_atom_site_label
_atom_site_fract_x
_atom_site_fract_y
_atom_site_fract_z
Si Si1 0.190605 0.250000 0.058630
Si Si2 0.695076 0.156700 0.224419
Si Si3 0.191689 0.587893 0.118271
Si Si4 0.691518 0.595360 0.553760
Si Si5 0.193962 0.094406 0.665379
O O1 0.251703 0.332586 0.086787
O O2 0.000000 0.250000 0.059855
O O3 0.250000 0.250000 0.000000
O O4 0.500000 0.152803 0.225778
O O5 0.739751 0.250000 0.211309
O O6 0.750036 0.099389 0.177617
O O7 0.752284 0.135525 0.281873
O O8 0.250000 0.500000 0.097824
O O9 0.000000 0.588314 0.118498
O O10 0.500000 0.595281 0.552459
O O11 0.750000 0.500000 0.553942
O O12 0.750000 0.633523 0.500000
O O13 0.744597 0.630185 0.609497
O O14 0.000000 0.097098 0.665914
O O15 0.250000 0.000000 0.666966
#
# Coordination Sequence:
#
# PCOD9504936 Si02
#       5
#     8  16  16  16  16
#     4  12  26  46  70  98 132 170 211 256 301 354
#     4   9  17  32  55  80 110 148 189 236 289 350
#     4  11  22  40  66  97 130 168 209 254 307 363
#     4   9  15  23  37  59  87 122 164 215 272 334
#     4   9  17  28  45  70  98 130 174 223 278 340
#
# _framework density 20.501248
#
# number of rings (size 3 to 8) (size 9 to 14) (size 15 to 20)
#    0.000    2.222    1.111    3.667    0.000    1.333 
#    0.000    3.333    0.000    0.667    0.000    0.000 
#    0.000    0.000    0.000    0.000    0.000    6.000 
#
# Total GULP energy -200782.322998 kJ/mol
# GULP energy per Si atom -5577.286750 kJ/mol
# Density = 2.045459 g / cm^3
# Si number density = 20.501248 Si / 1000 Ang^3
#
#
#
# Elastic Constant Matrix: (Units=GPa)
#
#
# Indices 1 2 3 4 5 6 
#
# 1 47.2908 18.3376 31.9022 0.0000 0.0000 0.0000
# 2 18.3376 105.8964 61.6491 0.0000 0.0000 0.0000
# 3 31.9022 61.6491 162.9038 0.0000 0.0000 0.0000
# 4 0.0000 0.0000 0.0000 79.0347 0.0000 0.0000
# 5 0.0000 0.0000 0.0000 0.0000 30.0517 0.0000
# 6 0.0000 0.0000 0.0000 0.0000 0.0000 19.9347
#
#
#
# Elastic Compliance Matrix: (Units=1/GPa)
#
#
# Indices 1 2 3 4 5 6 
#
# 1 0.024650 -0.001870 -0.004120 0.000000 0.000000 0.000000
# 2 -0.001870 0.012253 -0.004271 0.000000 0.000000 0.000000
# 3 -0.004120 -0.004271 0.008562 0.000000 0.000000 0.000000
# 4 0.000000 0.000000 0.000000 0.012653 0.000000 0.000000
# 5 0.000000 0.000000 0.000000 0.000000 0.033276 0.000000
# 6 0.000000 0.000000 0.000000 0.000000 0.000000 0.050164
#
#
# Mechanical properties :
#
#
# Convention : Reuss Voigt Hill
#
# Bulk Modulus (GPa) = 40.09042 59.98542 50.03792
# Shear Modulus (GPa) = 29.34385 39.41769 34.38077
#
# Velocity S-wave (km/s) = 3.78738 4.38961 4.09957
# Velocity P-wave (km/s) = 6.22280 7.41718 6.84609
#
# Compressibility (1/GPa) = 0.02494362
#
# Stress axis : x y z
#
# Youngs Moduli (GPa) = 40.56791 81.60981 116.80039
#
# Poissons Ratio (x) = 0.15263 0.48116
# Poissons Ratio (y) = 0.07587 0.49884
# Poissons Ratio (z) = 0.16712 0.34855
#
# Static dielectric constant tensor:
#      x y z
#    x 1.709560 0.000000 0.000000 
#    y 0.000000 1.707910 0.000000 
#    z 0.000000 0.000000 1.795130 
# 
# From -- ./inp_files/43117.got.cif
#   From: 2010.05.17/outbox.cif.g08.bks.cpg/sg67_22_cif.got.tgz:43117.got - 2010.06.03 18:28:57.
