data_PCOD9504505
_publ_section_title
;
Structure prediction by ZEFSAII (Michael W. Deem and Ramdas Pophale) SiO2 
 PCOD9504505
Probable space group: C M M A
;
_chemical_formula_sum "Si O2"
_cell_formula_units_Z 104
_cell_length_a 21.473927
_cell_length_b 25.958007
_cell_length_c 8.273886
_cell_angle_alpha 90.000000
_cell_angle_beta 90.000000
_cell_angle_gamma 90.000000
_cell_volume 4612.032408
_symmetry_space_group_name_H-M "C M M A"
_symmetry_group_IT_number 67
_symmetry_cell_setting 'orthorhombic'
loop_
_space_group_symop_operation_xyz
x,y,z
-x,1/2-y,z
x,-y,-z
-x,1/2+y,-z
-x,-y,-z
x,1/2+y,-z
-x,y,z
x,1/2-y,z
1/2+x,1/2+y,z
1/2-x,-y,z
1/2+x,1/2-y,-z
1/2-x,y,-z
1/2-x,1/2-y,-z
1/2+x,y,-z
1/2-x,1/2+y,z
1/2+x,-y,z
loop_
_atom_site_type_symbol
_atom_site_label
_atom_site_fract_x
_atom_site_fract_y
_atom_site_fract_z
Si Si1 0.072334 0.309235 0.503638
Si Si2 0.155173 0.101064 0.351397
Si Si3 0.068428 0.622076 0.937322
Si Si4 0.096190 0.034653 0.840047
Si Si5 0.397845 0.000000 0.500000
Si Si6 0.718807 0.594110 0.825948
Si Si7 0.631053 0.692852 0.850489
O O1 0.080524 0.250000 0.446300
O O2 0.122843 0.348453 0.428609
O O3 0.086517 0.308713 0.694791
O O4 0.000000 0.324292 0.476139
O O5 0.118025 0.096803 0.181914
O O6 0.139677 0.051702 0.458375
O O7 0.227560 0.100122 0.307019
O O8 0.000000 0.622101 0.865864
O O9 0.068289 0.588848 0.101834
O O10 0.092204 0.677878 0.990174
O O11 0.069951 0.012808 0.672327
O O12 0.169063 0.047893 0.807742
O O13 0.087456 0.000000 0.000000
O O14 0.682049 0.648237 0.831255
O O15 0.750000 0.586450 0.000000
O O16 0.658164 0.750000 0.861720
#
# Coordination Sequence:
#
# PCOD9504505 Si02
#       7
#    16  16  16  16   8  16  16
#     4  10  23  45  69  96 136 181 234 294 344 413
#     4  12  24  43  66 101 137 181 233 287 358 422
#     4  11  23  43  66  93 134 178 233 291 341 421
#     4  11  23  45  66  96 133 180 229 283 350 409
#     4  12  26  43  67 102 136 180 231 283 352 426
#     4  11  22  42  66  98 139 177 220 289 348 415
#     4  10  22  41  68  99 132 180 229 283 358 415
#
# _framework density 22.549713000000001
#
# number of rings (size 3 to 8) (size 9 to 14) (size 15 to 20)
#    0.000    1.077    4.615    2.769    0.000    8.000 
#    0.000    4.231    0.000    0.000    0.000    0.000 
#    0.000    0.000    0.000    0.000    0.000    0.000 
#
# Total GULP energy -290455.415266 kJ/mol
# GULP energy per Si atom -5585.681063 kJ/mol
# Density = 2.249839 g / cm^3
# Si number density = 22.549713 Si / 1000 Ang^3
#
#
#
# Elastic Constant Matrix: (Units=GPa)
#
#
# Indices 1 2 3 4 5 6 
#
# 1 117.7404 14.8161 21.3574 0.0000 0.0000 0.0000
# 2 14.8161 86.0194 34.0572 0.0000 0.0000 0.0000
# 3 21.3574 34.0572 122.1189 0.0000 0.0000 0.0000
# 4 0.0000 0.0000 0.0000 38.7778 0.0000 0.0000
# 5 0.0000 0.0000 0.0000 0.0000 -13.6410 0.0000
# 6 0.0000 0.0000 0.0000 0.0000 0.0000 -26.1450
#
#
#
# Elastic Compliance Matrix: (Units=1/GPa)
#
#
# Indices 1 2 3 4 5 6 
#
# 1 0.008851 -0.001025 -0.001262 0.000000 0.000000 0.000000
# 2 -0.001025 0.013187 -0.003498 0.000000 0.000000 0.000000
# 3 -0.001262 -0.003498 0.009385 0.000000 0.000000 0.000000
# 4 0.000000 0.000000 0.000000 0.025788 0.000000 0.000000
# 5 0.000000 0.000000 0.000000 0.000000 -0.073309 0.000000
# 6 0.000000 0.000000 0.000000 0.000000 0.000000 -0.038248
#
#
# Mechanical properties :
#
#
# Convention : Reuss Voigt Hill
#
# Bulk Modulus (GPa) = 50.37167 51.81554 51.09361
# Shear Modulus (GPa) = -138.28430 16.84156 -60.72137
#
# Velocity S-wave (km/s) = -7.83947 2.73585 -5.19483
# Velocity P-wave (km/s) = 7.71729 5.74526 3.64338
#
# Compressibility (1/GPa) = 0.01985243
#
# Stress axis : x y z
#
# Youngs Moduli (GPa) = 112.97935 75.83281 106.55142
#
# Poissons Ratio (x) = 0.07771 0.13449
# Poissons Ratio (y) = 0.11578 0.37276
# Poissons Ratio (z) = 0.14260 0.26529
#
# Static dielectric constant tensor:
#      x y z
#    x 1.834320 0.000000 0.000000 
#    y 0.000000 1.843730 0.000000 
#    z 0.000000 0.000000 1.882500 
# 
# From -- ./inp_files/11566.got.cif
#   From: 2010.05.17/outbox.cif.g08.bks.cpg/sg67_6_cif.got.tgz:11566.got - 2010.06.03 18:28:57.
