data_PCOD9504144
_publ_section_title
;
Structure prediction by ZEFSAII (Michael W. Deem and Ramdas Pophale) SiO2 
 PCOD9504144
Probable space group: C M M A
;
_chemical_formula_sum "Si O2"
_cell_formula_units_Z 52
_cell_length_a 13.832769
_cell_length_b 12.937631
_cell_length_c 13.787934
_cell_angle_alpha 90.000000
_cell_angle_beta 90.000000
_cell_angle_gamma 90.000000
_cell_volume 2467.533632
_symmetry_space_group_name_H-M "C M M A"
_symmetry_group_IT_number 67
_symmetry_cell_setting 'orthorhombic'
loop_
_space_group_symop_operation_xyz
x,y,z
-x,1/2-y,z
x,-y,-z
-x,1/2+y,-z
-x,-y,-z
x,1/2+y,-z
-x,y,z
x,1/2-y,z
1/2+x,1/2+y,z
1/2-x,-y,z
1/2+x,1/2-y,-z
1/2-x,y,-z
1/2-x,1/2-y,-z
1/2+x,y,-z
1/2-x,1/2+y,z
1/2+x,-y,z
loop_
_atom_site_type_symbol
_atom_site_label
_atom_site_fract_x
_atom_site_fract_y
_atom_site_fract_z
Si Si1 0.606880 0.124415 0.563369
Si Si2 0.750000 0.000000 0.000000
Si Si3 0.310458 0.624405 0.645980
Si Si4 0.387664 0.374522 0.143378
O O1 0.500000 0.090290 0.593041
O O2 0.606070 0.250000 0.565612
O O3 0.630568 0.096933 0.451444
O O4 0.698461 0.093943 0.628821
O O5 0.818092 0.929893 0.067524
O O6 0.310970 0.750000 0.646643
O O7 0.356403 0.594259 0.747765
O O8 0.500000 0.401011 0.127555
O O9 0.378337 0.250000 0.135614
#
# Coordination Sequence:
#
# PCOD9504144 Si02
#       4
#    16   4  16  16
#     4   8  12  20  39  72 111 144 177 220 265 315
#     4  12  24  40  60  86 112 140 188 252 296 330
#     4   8  14  25  45  75 109 145 183 220 266 331
#     4  10  21  39  62  85 112 149 189 231 285 343
#
# _framework density 21.073675000000001
#
# number of rings (size 3 to 8) (size 9 to 14) (size 15 to 20)
#    0.000    3.077    0.000    3.692    0.000    3.692 
#    0.000    3.077    0.000   11.077    0.000   10.769 
#    0.000    0.000    0.000    0.000    0.000    0.615 
#
# Total GULP energy -145413.096704 kJ/mol
# GULP energy per Si atom -5592.811412 kJ/mol
# Density = 2.102571 g / cm^3
# Si number density = 21.073675 Si / 1000 Ang^3
#
#
#
# Elastic Constant Matrix: (Units=GPa)
#
#
# Indices 1 2 3 4 5 6 
#
# 1 215.3738 58.1281 95.1461 0.0000 0.0000 0.0000
# 2 58.1281 75.0940 45.7742 0.0000 0.0000 0.0000
# 3 95.1461 45.7742 133.2377 0.0000 0.0000 0.0000
# 4 0.0000 0.0000 0.0000 34.2497 0.0000 0.0000
# 5 0.0000 0.0000 0.0000 0.0000 25.6364 0.0000
# 6 0.0000 0.0000 0.0000 0.0000 0.0000 37.1784
#
#
#
# Elastic Compliance Matrix: (Units=1/GPa)
#
#
# Indices 1 2 3 4 5 6 
#
# 1 0.007325 -0.003139 -0.004152 0.000000 0.000000 0.000000
# 2 -0.003139 0.018189 -0.004008 0.000000 0.000000 0.000000
# 3 -0.004152 -0.004008 0.011847 0.000000 0.000000 0.000000
# 4 0.000000 0.000000 0.000000 0.029197 0.000000 0.000000
# 5 0.000000 0.000000 0.000000 0.000000 0.039007 0.000000
# 6 0.000000 0.000000 0.000000 0.000000 0.000000 0.026897
#
#
# Mechanical properties :
#
#
# Convention : Reuss Voigt Hill
#
# Bulk Modulus (GPa) = 67.73224 91.31136 79.52180
# Shear Modulus (GPa) = 31.25377 34.39005 32.82191
#
# Velocity S-wave (km/s) = 3.85524 4.04406 3.95078
# Velocity P-wave (km/s) = 7.21302 8.07648 7.65693
#
# Compressibility (1/GPa) = 0.01476402
#
# Stress axis : x y z
#
# Youngs Moduli (GPa) = 136.52756 54.97816 84.40743
#
# Poissons Ratio (x) = 0.17256 0.35048
# Poissons Ratio (y) = 0.42852 0.33827
# Poissons Ratio (z) = 0.56689 0.22033
#
# Static dielectric constant tensor:
#      x y z
#    x 1.724100 0.000000 0.000000 
#    y 0.000000 1.883280 0.000000 
#    z 0.000000 0.000000 1.678890 
# 
# From -- ./inp_files/17224.got.cif
#   From: 2010.05.17/outbox.cif.g08.bks.cpg/sg67_9_cif.got.tgz:17224.got - 2010.06.03 18:28:57.
