data_PCOD9504355
_publ_section_title
;
Structure prediction by ZEFSAII (Michael W. Deem and Ramdas Pophale) SiO2 
 PCOD9504355
Probable space group: C M M A
;
_chemical_formula_sum "Si O2"
_cell_formula_units_Z 88
_cell_length_a 19.006340
_cell_length_b 10.589184
_cell_length_c 23.078942
_cell_angle_alpha 90.000000
_cell_angle_beta 90.000000
_cell_angle_gamma 90.000000
_cell_volume 4644.905519
_symmetry_space_group_name_H-M "C M M A"
_symmetry_group_IT_number 67
_symmetry_cell_setting 'orthorhombic'
loop_
_space_group_symop_operation_xyz
x,y,z
-x,1/2-y,z
x,-y,-z
-x,1/2+y,-z
-x,-y,-z
x,1/2+y,-z
-x,y,z
x,1/2-y,z
1/2+x,1/2+y,z
1/2-x,-y,z
1/2+x,1/2-y,-z
1/2-x,y,-z
1/2-x,1/2-y,-z
1/2+x,y,-z
1/2-x,1/2+y,z
1/2+x,-y,z
loop_
_atom_site_type_symbol
_atom_site_label
_atom_site_fract_x
_atom_site_fract_y
_atom_site_fract_z
Si Si1 0.343537 0.608454 0.548410
Si Si2 0.164673 0.250000 0.932628
Si Si3 0.704152 0.388865 0.323686
Si Si4 0.414431 0.499559 0.885271
Si Si5 0.079425 0.604748 0.238451
Si Si6 0.500000 0.612155 0.544401
Si Si7 0.831226 0.750000 0.927959
O O1 0.333176 0.500000 0.500000
O O2 0.333961 0.750000 0.522874
O O3 0.299359 0.600830 0.606822
O O4 0.423959 0.602642 0.572793
O O5 0.122524 0.375911 0.912739
O O6 0.247202 0.250000 0.911673
O O7 0.166887 0.250000 0.002287
O O8 0.731935 0.250000 0.309507
O O9 0.750000 0.500000 0.299173
O O10 0.629590 0.403416 0.293078
O O11 0.500000 0.496481 0.896577
O O12 0.405041 0.516098 0.815956
O O13 0.373363 0.374592 0.906388
O O14 0.084314 0.750000 0.216551
O O15 0.000000 0.582532 0.257435
O O16 0.500000 0.750000 0.515017
O O17 0.500000 0.500000 0.500000
#
# Coordination Sequence:
#
# PCOD9504355 Si02
#       7
#    16   8  16  16  16   8   8
#     4   9  18  32  53  80 109 144 183 229 283 341
#     4  11  23  41  61  89 129 169 206 239 296 371
#     4  10  22  38  57  84 114 148 191 236 286 345
#     4  11  22  40  64  91 120 159 209 256 302 352
#     4   9  19  39  64  86 110 148 198 247 290 345
#     4   8  14  26  46  74 102 132 174 220 267 325
#     4  11  25  39  59  93 131 165 198 249 306 357
#
# _framework density 18.945488000000001
#
# number of rings (size 3 to 8) (size 9 to 14) (size 15 to 20)
#    0.000    2.182    0.909    1.636    1.273    6.182 
#    1.636    1.818    0.000    0.000    0.000    0.000 
#    0.000    0.000    0.000    0.000    0.000    0.000 
#
# Total GULP energy -244998.388957 kJ/mol
# GULP energy per Si atom -5568.145204 kJ/mol
# Density = 1.890237 g / cm^3
# Si number density = 18.945488 Si / 1000 Ang^3
#
#
#
# Elastic Constant Matrix: (Units=GPa)
#
#
# Indices 1 2 3 4 5 6 
#
# 1 95.6822 77.6409 26.2541 0.0000 0.0000 0.0000
# 2 77.6409 162.1816 50.8169 0.0000 0.0000 0.0000
# 3 26.2541 50.8169 57.3958 0.0000 0.0000 0.0000
# 4 0.0000 0.0000 0.0000 9.1357 0.0000 0.0000
# 5 0.0000 0.0000 0.0000 0.0000 -55.6260 0.0000
# 6 0.0000 0.0000 0.0000 0.0000 0.0000 29.7943
#
#
#
# Elastic Compliance Matrix: (Units=1/GPa)
#
#
# Indices 1 2 3 4 5 6 
#
# 1 0.017116 -0.007945 -0.000795 0.000000 0.000000 0.000000
# 2 -0.007945 0.012221 -0.007186 0.000000 0.000000 0.000000
# 3 -0.000795 -0.007186 0.024149 0.000000 0.000000 0.000000
# 4 0.000000 0.000000 0.000000 0.109460 0.000000 0.000000
# 5 0.000000 0.000000 0.000000 0.000000 -0.017977 0.000000
# 6 0.000000 0.000000 0.000000 0.000000 0.000000 0.033563
#
#
# Mechanical properties :
#
#
# Convention : Reuss Voigt Hill
#
# Bulk Modulus (GPa) = 46.22328 69.40927 57.81628
# Shear Modulus (GPa) = 22.97833 7.36399 15.17116
#
# Velocity S-wave (km/s) = 3.48640 1.97367 2.83287
# Velocity P-wave (km/s) = 6.37634 6.47377 6.42524
#
# Compressibility (1/GPa) = 0.02163412
#
# Stress axis : x y z
#
# Youngs Moduli (GPa) = 58.42382 81.82636 41.40973
#
# Poissons Ratio (x) = 0.65010 0.03293
# Poissons Ratio (y) = 0.46417 0.29757
# Poissons Ratio (z) = 0.04645 0.58801
#
# Static dielectric constant tensor:
#      x y z
#    x 1.723480 0.000000 0.000000 
#    y 0.000000 1.668610 0.000000 
#    z 0.000000 0.000000 1.629590 
# 
# From -- ./inp_files/42415.got.cif
#   From: 2010.05.17/outbox.cif.g08.bks.cpg/sg67_22_cif.got.tgz:42415.got - 2010.06.03 18:28:57.
