data_PCOD9504523
_publ_section_title
;
Structure prediction by ZEFSAII (Michael W. Deem and Ramdas Pophale) SiO2 
 PCOD9504523
Probable space group: C M M A
;
_chemical_formula_sum "Si O2"
_cell_formula_units_Z 60
_cell_length_a 9.386602
_cell_length_b 17.048956
_cell_length_c 17.554342
_cell_angle_alpha 90.000000
_cell_angle_beta 90.000000
_cell_angle_gamma 90.000000
_cell_volume 2809.252325
_symmetry_space_group_name_H-M "C M M A"
_symmetry_group_IT_number 67
_symmetry_cell_setting 'orthorhombic'
loop_
_space_group_symop_operation_xyz
x,y,z
-x,1/2-y,z
x,-y,-z
-x,1/2+y,-z
-x,-y,-z
x,1/2+y,-z
-x,y,z
x,1/2-y,z
1/2+x,1/2+y,z
1/2-x,-y,z
1/2+x,1/2-y,-z
1/2-x,y,-z
1/2-x,1/2-y,-z
1/2+x,y,-z
1/2-x,1/2+y,z
1/2+x,-y,z
loop_
_atom_site_type_symbol
_atom_site_label
_atom_site_fract_x
_atom_site_fract_y
_atom_site_fract_z
Si Si1 0.839825 0.157743 0.207623
Si Si2 0.844212 0.383973 0.371002
Si Si3 0.327982 0.084313 0.076115
Si Si4 0.750000 0.500000 0.500000
Si Si5 0.337621 0.750000 0.576415
O O1 0.828061 0.250000 0.231353
O O2 0.835643 0.099558 0.280851
O O3 0.719255 0.136488 0.147581
O O4 0.000000 0.149057 0.174122
O O5 0.835064 0.446662 0.439127
O O6 0.711359 0.327485 0.381711
O O7 0.000000 0.344971 0.379713
O O8 0.500000 0.077523 0.068341
O O9 0.250000 0.000000 0.087740
O O10 0.250000 0.116206 0.000000
O O11 0.500000 0.750000 0.559734
O O12 0.250000 0.750000 0.500000
#
# Coordination Sequence:
#
# PCOD9504523 Si02
#       5
#    16  16  16   4   8
#     4  10  22  42  67  95 131 174 218 272 332 390
#     4  11  24  44  65  93 131 170 215 272 331 388
#     4  11  23  42  68  99 136 177 220 267 323 389
#     4  12  26  38  68 102 132 170 222 272 330 398
#     4  12  24  40  66  90 119 164 215 266 326 392
#
# _framework density 21.357994999999999
#
# number of rings (size 3 to 8) (size 9 to 14) (size 15 to 20)
#    0.000    1.067    2.667    4.800    1.867    3.200 
#    0.000    0.000    0.000    0.000    0.000    0.000 
#    0.000    0.000    0.000    0.000    0.000    0.000 
#
# Total GULP energy -167166.465970 kJ/mol
# GULP energy per Si atom -5572.215532 kJ/mol
# Density = 2.130938 g / cm^3
# Si number density = 21.357995 Si / 1000 Ang^3
#
#
#
# Elastic Constant Matrix: (Units=GPa)
#
#
# Indices 1 2 3 4 5 6 
#
# 1 198.2511 29.6813 63.1086 0.0000 0.0000 0.0000
# 2 29.6813 46.8205 33.9699 0.0000 0.0000 0.0000
# 3 63.1086 33.9699 125.9769 0.0000 0.0000 0.0000
# 4 0.0000 0.0000 0.0000 29.3712 0.0000 0.0000
# 5 0.0000 0.0000 0.0000 0.0000 30.9702 0.0000
# 6 0.0000 0.0000 0.0000 0.0000 0.0000 26.0555
#
#
#
# Elastic Compliance Matrix: (Units=1/GPa)
#
#
# Indices 1 2 3 4 5 6 
#
# 1 0.006158 -0.002071 -0.002527 0.000000 0.000000 0.000000
# 2 -0.002071 0.027249 -0.006310 0.000000 0.000000 0.000000
# 3 -0.002527 -0.006310 0.010905 0.000000 0.000000 0.000000
# 4 0.000000 0.000000 0.000000 0.034047 0.000000 0.000000
# 5 0.000000 0.000000 0.000000 0.000000 0.032289 0.000000
# 6 0.000000 0.000000 0.000000 0.000000 0.000000 0.038380
#
#
# Mechanical properties :
#
#
# Convention : Reuss Voigt Hill
#
# Bulk Modulus (GPa) = 44.45000 69.39647 56.92323
# Shear Modulus (GPa) = 28.03574 33.56531 30.80052
#
# Velocity S-wave (km/s) = 3.62699 3.96859 3.80163
# Velocity P-wave (km/s) = 6.19654 7.31862 6.78083
#
# Compressibility (1/GPa) = 0.02249719
#
# Stress axis : x y z
#
# Youngs Moduli (GPa) = 162.37804 36.69808 91.69825
#
# Poissons Ratio (x) = 0.07600 0.23169
# Poissons Ratio (y) = 0.33627 0.57865
# Poissons Ratio (z) = 0.41028 0.23158
#
# Static dielectric constant tensor:
#      x y z
#    x 1.749760 0.000000 0.000000 
#    y 0.000000 1.790610 0.000000 
#    z 0.000000 0.000000 1.836020 
# 
# From -- ./inp_files/31653.got.cif
#   From: 2010.05.17/outbox.cif.g08.bks.cpg/sg67_16_cif.got.tgz:31653.got - 2010.06.03 18:28:57.
