data_PCOD9504607
_publ_section_title
;
Structure prediction by ZEFSAII (Michael W. Deem and Ramdas Pophale) SiO2 
 PCOD9504607
Probable space group: C M M A
;
_chemical_formula_sum "Si O2"
_cell_formula_units_Z 96
_cell_length_a 15.006592
_cell_length_b 15.588764
_cell_length_c 20.562026
_cell_angle_alpha 90.000000
_cell_angle_beta 90.000000
_cell_angle_gamma 90.000000
_cell_volume 4810.161537
_symmetry_space_group_name_H-M "C M M A"
_symmetry_group_IT_number 67
_symmetry_cell_setting 'orthorhombic'
loop_
_space_group_symop_operation_xyz
x,y,z
-x,1/2-y,z
x,-y,-z
-x,1/2+y,-z
-x,-y,-z
x,1/2+y,-z
-x,y,z
x,1/2-y,z
1/2+x,1/2+y,z
1/2-x,-y,z
1/2+x,1/2-y,-z
1/2-x,y,-z
1/2-x,1/2-y,-z
1/2+x,y,-z
1/2-x,1/2+y,z
1/2+x,-y,z
loop_
_atom_site_type_symbol
_atom_site_label
_atom_site_fract_x
_atom_site_fract_y
_atom_site_fract_z
Si Si1 0.594848 0.431945 0.857900
Si Si2 0.262257 0.842778 0.224253
Si Si3 0.596178 0.133941 0.132989
Si Si4 0.393474 0.498326 0.578212
Si Si5 0.752998 0.856031 0.377604
Si Si6 0.653999 0.846801 0.012278
O O1 0.500000 0.403469 0.830261
O O2 0.673335 0.408858 0.809897
O O3 0.596465 0.532277 0.866908
O O4 0.605522 0.393168 0.929588
O O5 0.307756 0.750000 0.219602
O O6 0.174284 0.839204 0.180462
O O7 0.243915 0.859754 0.299314
O O8 0.500000 0.161965 0.156699
O O9 0.608659 0.157908 0.057641
O O10 0.393305 0.500000 0.500000
O O11 0.500000 0.496760 0.598779
O O12 0.334262 0.413725 0.600184
O O13 0.337797 0.585046 0.598988
O O14 0.752416 0.750000 0.394357
O O15 0.670138 0.750000 0.036454
O O16 0.750000 0.888718 0.000000
#
# Coordination Sequence:
#
# PCOD9504607 Si02
#       6
#    16  16  16  16  16  16
#     4  11  24  39  59  85 112 150 200 254 314 376
#     4  11  24  41  60  87 121 160 203 250 305 367
#     4  11  24  39  59  85 112 150 200 254 314 376
#     4  10  23  43  70 105 141 176 219 270 320 378
#     4  10  23  42  67  98 138 183 224 269 324 386
#     4  11  22  37  58  81 110 149 194 255 321 373
#
# _framework density 19.957749
#
# number of rings (size 3 to 8) (size 9 to 14) (size 15 to 20)
#    0.000    1.333    1.667    3.500    4.667    8.667 
#    0.000    5.000    0.000    0.000    0.000    0.000 
#    0.000    0.000    0.000    0.000    0.000    0.000 
#
# Total GULP energy -267490.263409 kJ/mol
# GULP energy per Si atom -5572.713821 kJ/mol
# Density = 1.991232 g / cm^3
# Si number density = 19.957749 Si / 1000 Ang^3
#
#
#
# Elastic Constant Matrix: (Units=GPa)
#
#
# Indices 1 2 3 4 5 6 
#
# 1 135.4623 60.7844 23.2198 0.0000 0.0000 0.0000
# 2 60.7844 151.1955 42.6456 0.0000 0.0000 0.0000
# 3 23.2198 42.6456 82.6287 0.0000 0.0000 0.0000
# 4 0.0000 0.0000 0.0000 22.5630 0.0000 0.0000
# 5 0.0000 0.0000 0.0000 0.0000 82.9529 0.0000
# 6 0.0000 0.0000 0.0000 0.0000 0.0000 25.1202
#
#
#
# Elastic Compliance Matrix: (Units=1/GPa)
#
#
# Indices 1 2 3 4 5 6 
#
# 1 0.009050 -0.003419 -0.000779 0.000000 0.000000 0.000000
# 2 -0.003419 0.009032 -0.003701 0.000000 0.000000 0.000000
# 3 -0.000779 -0.003701 0.014231 0.000000 0.000000 0.000000
# 4 0.000000 0.000000 0.000000 0.044320 0.000000 0.000000
# 5 0.000000 0.000000 0.000000 0.000000 0.012055 0.000000
# 6 0.000000 0.000000 0.000000 0.000000 0.000000 0.039809
#
#
# Mechanical properties :
#
#
# Convention : Reuss Voigt Hill
#
# Bulk Modulus (GPa) = 60.54506 69.17623 64.86064
# Shear Modulus (GPa) = 33.37812 42.30302 37.84057
#
# Velocity S-wave (km/s) = 4.09398 4.60894 4.35907
# Velocity P-wave (km/s) = 7.26292 7.94101 7.60952
#
# Compressibility (1/GPa) = 0.01651662
#
# Stress axis : x y z
#
# Youngs Moduli (GPa) = 110.50265 110.71558 70.26778
#
# Poissons Ratio (x) = 0.37848 0.05472
# Poissons Ratio (y) = 0.37775 0.26006
# Poissons Ratio (z) = 0.08605 0.40975
#
# Static dielectric constant tensor:
#      x y z
#    x 1.696240 0.000000 0.000000 
#    y 0.000000 1.749130 0.000000 
#    z 0.000000 0.000000 1.670410 
# 
# From -- ./inp_files/38375.got.cif
#   From: 2010.05.17/outbox.cif.g08.bks.cpg/sg67_20_cif.got.tgz:38375.got - 2010.06.03 18:28:57.
