data_PCOD9504529
_publ_section_title
;
Structure prediction by ZEFSAII (Michael W. Deem and Ramdas Pophale) SiO2 
 PCOD9504529
Probable space group: C M M A
;
_chemical_formula_sum "Si O2"
_cell_formula_units_Z 64
_cell_length_a 18.625826
_cell_length_b 9.498606
_cell_length_c 18.796214
_cell_angle_alpha 90.000000
_cell_angle_beta 90.000000
_cell_angle_gamma 90.000000
_cell_volume 3325.414576
_symmetry_space_group_name_H-M "C M M A"
_symmetry_group_IT_number 67
_symmetry_cell_setting 'orthorhombic'
loop_
_space_group_symop_operation_xyz
x,y,z
-x,1/2-y,z
x,-y,-z
-x,1/2+y,-z
-x,-y,-z
x,1/2+y,-z
-x,y,z
x,1/2-y,z
1/2+x,1/2+y,z
1/2-x,-y,z
1/2+x,1/2-y,-z
1/2-x,y,-z
1/2-x,1/2-y,-z
1/2+x,y,-z
1/2-x,1/2+y,z
1/2+x,-y,z
loop_
_atom_site_type_symbol
_atom_site_label
_atom_site_fract_x
_atom_site_fract_y
_atom_site_fract_z
Si Si1 0.834993 0.027127 0.344172
Si Si2 0.668310 0.750000 0.467174
Si Si3 0.675688 0.087865 0.815098
Si Si4 0.585255 0.250000 0.386893
Si Si5 0.586435 0.915110 0.928388
O O1 0.845611 0.119578 0.414653
O O2 0.849793 0.092098 0.267052
O O3 0.750000 0.000000 0.344632
O O4 0.880352 0.886161 0.350626
O O5 0.750000 0.750000 0.500000
O O6 0.614345 0.750000 0.532558
O O7 0.685024 0.250000 0.839153
O O8 0.750000 0.000000 0.817456
O O9 0.621018 0.000361 0.863501
O O10 0.500000 0.250000 0.383555
O O11 0.500000 0.917764 0.922946
O O12 0.608444 0.750000 0.930391
O O13 0.606653 0.000000 0.000000
#
# Coordination Sequence:
#
# PCOD9504529 Si02
#       5
#    16   8  16   8  16
#     4  11  23  42  67  95 128 177 227 269 337 420
#     4  12  22  42  70  98 123 179 232 277 338 417
#     4  11  24  41  65  98 134 170 220 280 329 395
#     4  12  28  42  64 100 135 165 221 293 344 394
#     4  10  22  42  69  98 132 177 225 270 329 405
#
# _framework density 19.245722000000001
#
# number of rings (size 3 to 8) (size 9 to 14) (size 15 to 20)
#    0.000    1.000    3.750    2.250    7.000    5.000 
#    0.000    2.500    0.000    0.000    0.000    0.000 
#    0.000    0.000    0.000    0.000    0.000    0.000 
#
# Total GULP energy -178710.521510 kJ/mol
# GULP energy per Si atom -5584.703797 kJ/mol
# Density = 1.920192 g / cm^3
# Si number density = 19.245722 Si / 1000 Ang^3
#
#
#
# Elastic Constant Matrix: (Units=GPa)
#
#
# Indices 1 2 3 4 5 6 
#
# 1 89.9459 58.4001 32.8150 0.0000 0.0000 0.0000
# 2 58.4001 190.1667 57.3966 0.0000 0.0000 0.0000
# 3 32.8150 57.3966 104.6295 0.0000 0.0000 0.0000
# 4 0.0000 0.0000 0.0000 502.4628 0.0000 0.0000
# 5 0.0000 0.0000 0.0000 0.0000 55.3023 0.0000
# 6 0.0000 0.0000 0.0000 0.0000 0.0000 24.8877
#
#
#
# Elastic Compliance Matrix: (Units=1/GPa)
#
#
# Indices 1 2 3 4 5 6 
#
# 1 0.014416 -0.003670 -0.002508 0.000000 0.000000 0.000000
# 2 -0.003670 0.007236 -0.002819 0.000000 0.000000 0.000000
# 3 -0.002508 -0.002819 0.011890 0.000000 0.000000 0.000000
# 4 0.000000 0.000000 0.000000 0.001990 0.000000 0.000000
# 5 0.000000 0.000000 0.000000 0.000000 0.018082 0.000000
# 6 0.000000 0.000000 0.000000 0.000000 0.000000 0.040180
#
#
# Mechanical properties :
#
#
# Convention : Reuss Voigt Hill
#
# Bulk Modulus (GPa) = 64.31225 75.77394 70.04310
# Shear Modulus (GPa) = 42.74541 132.27259 87.50900
#
# Velocity S-wave (km/s) = 4.71790 8.29925 6.75041
# Velocity P-wave (km/s) = 7.94777 11.45836 9.86055
#
# Compressibility (1/GPa) = 0.01554914
#
# Stress axis : x y z
#
# Youngs Moduli (GPa) = 69.36888 138.19131 84.10233
#
# Poissons Ratio (x) = 0.50718 0.21092
# Poissons Ratio (y) = 0.25459 0.23705
# Poissons Ratio (z) = 0.17397 0.38950
#
# Static dielectric constant tensor:
#      x y z
#    x 1.618760 0.000000 0.000000 
#    y 0.000000 1.684510 0.000000 
#    z 0.000000 0.000000 1.664130 
# 
# From -- ./inp_files/34668.got.cif
#   From: 2010.05.17/outbox.cif.g08.bks.cpg/sg67_18_cif.got.tgz:34668.got - 2010.06.03 18:28:57.
