data_PCOD9504525
_publ_section_title
;
Structure prediction by ZEFSAII (Michael W. Deem and Ramdas Pophale) SiO2 
 PCOD9504525
Probable space group: C M M A
;
_chemical_formula_sum "Si O2"
_cell_formula_units_Z 64
_cell_length_a 10.647992
_cell_length_b 16.347527
_cell_length_c 17.814251
_cell_angle_alpha 90.000000
_cell_angle_beta 90.000000
_cell_angle_gamma 90.000000
_cell_volume 3100.897041
_symmetry_space_group_name_H-M "C M M A"
_symmetry_group_IT_number 67
_symmetry_cell_setting 'orthorhombic'
loop_
_space_group_symop_operation_xyz
x,y,z
-x,1/2-y,z
x,-y,-z
-x,1/2+y,-z
-x,-y,-z
x,1/2+y,-z
-x,y,z
x,1/2-y,z
1/2+x,1/2+y,z
1/2-x,-y,z
1/2+x,1/2-y,-z
1/2-x,y,-z
1/2-x,1/2-y,-z
1/2+x,y,-z
1/2-x,1/2+y,z
1/2+x,-y,z
loop_
_atom_site_type_symbol
_atom_site_label
_atom_site_fract_x
_atom_site_fract_y
_atom_site_fract_z
Si Si1 0.500000 0.082085 0.055430
Si Si2 0.756702 0.592020 0.162576
Si Si3 0.000000 0.157249 0.093793
Si Si4 0.855454 0.843103 0.696368
Si Si5 0.635813 0.590047 0.460756
O O1 0.376932 0.091478 0.107825
O O2 0.500000 0.154641 0.995806
O O3 0.500000 0.000000 0.000000
O O4 0.750000 0.500000 0.191794
O O5 0.628802 0.613484 0.118212
O O6 0.744361 0.646637 0.236953
O O7 0.000000 0.250000 0.122490
O O8 0.848940 0.750000 0.667580
O O9 0.839661 0.906514 0.628160
O O10 0.000000 0.855147 0.725277
O O11 0.629556 0.500000 0.500000
O O12 0.500000 0.628597 0.472041
O O13 0.750000 0.634649 0.500000
#
# Coordination Sequence:
#
# PCOD9504525 Si02
#       5
#     8  16   8  16  16
#     4  12  26  46  64 106 142 175 226 292 358 407
#     4  12  24  42  70  98 137 181 231 280 346 426
#     4  12  26  46  74 102 134 179 234 286 345 421
#     4  10  22  42  67  96 136 180 226 281 347 410
#     4   9  19  37  61  93 127 166 219 271 323 402
#
# _framework density 20.639189999999999
#
# number of rings (size 3 to 8) (size 9 to 14) (size 15 to 20)
#    0.000    1.250    3.750    1.500    3.500    3.500 
#    2.250    0.000    0.000    0.000    0.000    0.000 
#    0.000    0.000    0.000    0.000    0.000    0.000 
#
# Total GULP energy -178214.148511 kJ/mol
# GULP energy per Si atom -5569.192141 kJ/mol
# Density = 2.059221 g / cm^3
# Si number density = 20.639190 Si / 1000 Ang^3
#
#
#
# Elastic Constant Matrix: (Units=GPa)
#
#
# Indices 1 2 3 4 5 6 
#
# 1 167.1032 19.9899 66.7902 0.0000 0.0000 0.0000
# 2 19.9899 87.4428 33.3362 0.0000 0.0000 0.0000
# 3 66.7902 33.3362 133.1563 0.0000 0.0000 0.0000
# 4 0.0000 0.0000 0.0000 27.2098 0.0000 0.0000
# 5 0.0000 0.0000 0.0000 0.0000 34.0048 0.0000
# 6 0.0000 0.0000 0.0000 0.0000 0.0000 12.1831
#
#
#
# Elastic Compliance Matrix: (Units=1/GPa)
#
#
# Indices 1 2 3 4 5 6 
#
# 1 0.007493 -0.000310 -0.003681 0.000000 0.000000 0.000000
# 2 -0.000310 0.012656 -0.003013 0.000000 0.000000 0.000000
# 3 -0.003681 -0.003013 0.010110 0.000000 0.000000 0.000000
# 4 0.000000 0.000000 0.000000 0.036751 0.000000 0.000000
# 5 0.000000 0.000000 0.000000 0.000000 0.029408 0.000000
# 6 0.000000 0.000000 0.000000 0.000000 0.000000 0.082081
#
#
# Mechanical properties :
#
#
# Convention : Reuss Voigt Hill
#
# Bulk Modulus (GPa) = 61.53155 69.77052 65.65103
# Shear Modulus (GPa) = 25.26245 32.51862 28.89054
#
# Velocity S-wave (km/s) = 3.50237 3.97366 3.74544
# Velocity P-wave (km/s) = 6.79950 7.41158 7.11213
#
# Compressibility (1/GPa) = 0.01625183
#
# Stress axis : x y z
#
# Youngs Moduli (GPa) = 133.46660 79.01697 98.90709
#
# Poissons Ratio (x) = 0.02447 0.36404
# Poissons Ratio (y) = 0.04133 0.29801
# Poissons Ratio (z) = 0.49125 0.23808
#
# Static dielectric constant tensor:
#      x y z
#    x 1.791510 0.000000 0.000000 
#    y 0.000000 1.767090 0.000000 
#    z 0.000000 0.000000 1.785040 
# 
# From -- ./inp_files/25778.got.cif
#   From: 2010.05.17/outbox.cif.g08.bks.cpg/sg67_13_cif.got.tgz:25778.got - 2010.06.03 18:28:57.
