data_PCOD9504592
_publ_section_title
;
Structure prediction by ZEFSAII (Michael W. Deem and Ramdas Pophale) SiO2 
 PCOD9504592
Probable space group: C M M A
;
_chemical_formula_sum "Si O2"
_cell_formula_units_Z 52
_cell_length_a 14.476485
_cell_length_b 14.225575
_cell_length_c 12.667594
_cell_angle_alpha 90.000000
_cell_angle_beta 90.000000
_cell_angle_gamma 90.000000
_cell_volume 2608.717731
_symmetry_space_group_name_H-M "C M M A"
_symmetry_group_IT_number 67
_symmetry_cell_setting 'orthorhombic'
loop_
_space_group_symop_operation_xyz
x,y,z
-x,1/2-y,z
x,-y,-z
-x,1/2+y,-z
-x,-y,-z
x,1/2+y,-z
-x,y,z
x,1/2-y,z
1/2+x,1/2+y,z
1/2-x,-y,z
1/2+x,1/2-y,-z
1/2-x,y,-z
1/2-x,1/2-y,-z
1/2+x,y,-z
1/2-x,1/2+y,z
1/2+x,-y,z
loop_
_atom_site_type_symbol
_atom_site_label
_atom_site_fract_x
_atom_site_fract_y
_atom_site_fract_z
Si Si1 0.250000 0.250000 0.000000
Si Si2 0.893053 0.907323 0.071489
Si Si3 0.500000 0.859070 0.576662
Si Si4 0.145723 0.017042 0.699289
Si Si5 0.000000 0.141450 0.322763
O O1 0.171252 0.330860 0.980303
O O2 0.855328 0.932749 0.187480
O O3 0.000000 0.877663 0.083095
O O4 0.891545 0.000000 0.000000
O O5 0.500000 0.750000 0.611997
O O6 0.412242 0.916464 0.620594
O O7 0.500000 0.859335 0.450212
O O8 0.250000 0.000000 0.663676
O O9 0.088941 0.919458 0.711326
O O10 0.000000 0.250000 0.286807
#
# Coordination Sequence:
#
# PCOD9504592 Si02
#       5
#     4  16   8  16   8
#     4  12  24  40  68  96 128 170 218 264 318 388
#     4  11  24  45  64  95 136 173 215 271 330 395
#     4  10  23  41  66  96 133 177 226 283 343 402
#     4  11  22  41  66  96 134 177 225 277 335 408
#     4  10  23  45  64  96 135 175 229 282 341 398
#
# _framework density 19.933164999999999
#
# number of rings (size 3 to 8) (size 9 to 14) (size 15 to 20)
#    0.000    1.231    3.077    4.615    2.154    3.692 
#    8.308    3.077    0.000    0.000    0.000    0.000 
#    0.000    0.000    0.000    0.000    0.000    0.000 
#
# Total GULP energy -144867.087803 kJ/mol
# GULP energy per Si atom -5571.811069 kJ/mol
# Density = 1.988780 g / cm^3
# Si number density = 19.933165 Si / 1000 Ang^3
#
#
#
# Elastic Constant Matrix: (Units=GPa)
#
#
# Indices 1 2 3 4 5 6 
#
# 1 182.2919 82.5282 6.6351 0.0000 0.0000 0.0000
# 2 82.5282 151.7642 -10.6939 0.0000 0.0000 0.0000
# 3 6.6351 -10.6939 14.4682 0.0000 0.0000 0.0000
# 4 0.0000 0.0000 0.0000 -50.9167 0.0000 0.0000
# 5 0.0000 0.0000 0.0000 0.0000 -11.7197 0.0000
# 6 0.0000 0.0000 0.0000 0.0000 0.0000 16.5155
#
#
#
# Elastic Compliance Matrix: (Units=1/GPa)
#
#
# Indices 1 2 3 4 5 6 
#
# 1 0.007930 -0.004819 -0.007199 0.000000 0.000000 0.000000
# 2 -0.004819 0.009880 0.009513 0.000000 0.000000 0.000000
# 3 -0.007199 0.009513 0.079450 0.000000 0.000000 0.000000
# 4 0.000000 0.000000 0.000000 -0.019640 0.000000 0.000000
# 5 0.000000 0.000000 0.000000 0.000000 -0.085327 0.000000
# 6 0.000000 0.000000 0.000000 0.000000 0.000000 0.060549
#
#
# Mechanical properties :
#
#
# Convention : Reuss Voigt Hill
#
# Bulk Modulus (GPa) = 10.84016 56.16257 33.50137
# Shear Modulus (GPa) = 56.43234 8.77949 32.60591
#
# Velocity S-wave (km/s) = 5.32656 2.10096 4.04884
# Velocity P-wave (km/s) = 6.57873 5.84140 6.22100
#
# Compressibility (1/GPa) = 0.09224953
#
# Stress axis : x y z
#
# Youngs Moduli (GPa) = 126.11100 101.21302 12.58657
#
# Poissons Ratio (x) = 0.48777 0.09061
# Poissons Ratio (y) = 0.60776 -0.11973
# Poissons Ratio (z) = 0.90782 -0.96282
#
# Static dielectric constant tensor:
#      x y z
#    x 1.699400 0.000000 0.000000 
#    y 0.000000 1.686970 0.000000 
#    z 0.000000 0.000000 1.721540 
# 
# From -- ./inp_files/17248.got.cif
#   From: 2010.05.17/outbox.cif.g08.bks.cpg/sg67_9_cif.got.tgz:17248.got - 2010.06.03 18:28:57.
