data_PCOD9504084
_publ_section_title
;
Structure prediction by ZEFSAII (Michael W. Deem and Ramdas Pophale) SiO2 
 PCOD9504084
Probable space group: C M M A
;
_chemical_formula_sum "Si O2"
_cell_formula_units_Z 104
_cell_length_a 26.376683
_cell_length_b 19.344888
_cell_length_c 9.350424
_cell_angle_alpha 90.000000
_cell_angle_beta 90.000000
_cell_angle_gamma 90.000000
_cell_volume 4771.091046
_symmetry_space_group_name_H-M "C M M A"
_symmetry_group_IT_number 67
_symmetry_cell_setting 'orthorhombic'
loop_
_space_group_symop_operation_xyz
x,y,z
-x,1/2-y,z
x,-y,-z
-x,1/2+y,-z
-x,-y,-z
x,1/2+y,-z
-x,y,z
x,1/2-y,z
1/2+x,1/2+y,z
1/2-x,-y,z
1/2+x,1/2-y,-z
1/2-x,y,-z
1/2-x,1/2-y,-z
1/2+x,y,-z
1/2-x,1/2+y,z
1/2+x,-y,z
loop_
_atom_site_type_symbol
_atom_site_label
_atom_site_fract_x
_atom_site_fract_y
_atom_site_fract_z
Si Si1 0.354844 0.500000 0.000000
Si Si2 0.235798 0.580413 0.652540
Si Si3 0.942599 0.067057 0.867293
Si Si4 0.941943 0.171500 0.136436
Si Si5 0.611895 0.825853 0.706238
Si Si6 0.357231 0.670124 0.375780
Si Si7 0.798137 0.635180 0.085696
O O1 0.395817 0.486522 0.126267
O O2 0.320074 0.431518 0.999293
O O3 0.250000 0.500000 0.647655
O O4 0.250000 0.611800 0.500000
O O5 0.179749 0.608894 0.673502
O O6 0.270505 0.607861 0.775464
O O7 0.929910 0.116902 0.737275
O O8 0.000000 0.039581 0.862308
O O9 0.936991 0.115883 0.008816
O O10 0.932913 0.250000 0.079888
O O11 0.905596 0.163138 0.272204
O O12 0.000000 0.167772 0.184716
O O13 0.588955 0.750000 0.708006
O O14 0.633666 0.836500 0.546301
O O15 0.653446 0.828791 0.837230
O O16 0.337838 0.750000 0.352764
O O17 0.750000 0.668302 0.000000
#
# Coordination Sequence:
#
# PCOD9504084 Si02
#       7
#     8  16  16  16  16  16  16
#     4  10  22  38  60  82 118 154 192 242 298 360
#     4  11  23  38  59  87 117 157 206 250 297 358
#     4  10  21  38  62  88 117 152 195 244 299 358
#     4   9  19  36  60  89 116 148 193 243 298 358
#     4  10  22  39  58  87 120 154 196 243 297 357
#     4  10  22  40  60  86 122 162 200 245 304 367
#     4  11  23  39  58  86 116 156 198 244 299 355
#
# _framework density 21.797948999999999
#
# number of rings (size 3 to 8) (size 9 to 14) (size 15 to 20)
#    0.000    1.846    1.538    1.846    6.462    2.769 
#    0.000    1.538    0.000    0.000    0.000    7.538 
#    0.000    0.000    0.000    0.000    0.000    0.154 
#
# Total GULP energy -289715.608212 kJ/mol
# GULP energy per Si atom -5571.454004 kJ/mol
# Density = 2.174834 g / cm^3
# Si number density = 21.797949 Si / 1000 Ang^3
#
#
#
# Elastic Constant Matrix: (Units=GPa)
#
#
# Indices 1 2 3 4 5 6 
#
# 1 113.5326 31.2446 30.6454 0.0000 0.0000 0.0000
# 2 31.2446 75.2402 28.1906 0.0000 0.0000 0.0000
# 3 30.6454 28.1906 78.9832 0.0000 0.0000 0.0000
# 4 0.0000 0.0000 0.0000 11.1414 0.0000 0.0000
# 5 0.0000 0.0000 0.0000 0.0000 15.5018 0.0000
# 6 0.0000 0.0000 0.0000 0.0000 0.0000 52.8643
#
#
#
# Elastic Compliance Matrix: (Units=1/GPa)
#
#
# Indices 1 2 3 4 5 6 
#
# 1 0.010491 -0.003269 -0.002904 0.000000 0.000000 0.000000
# 2 -0.003269 0.016361 -0.004571 0.000000 0.000000 0.000000
# 3 -0.002904 -0.004571 0.015419 0.000000 0.000000 0.000000
# 4 0.000000 0.000000 0.000000 0.089756 0.000000 0.000000
# 5 0.000000 0.000000 0.000000 0.000000 0.064509 0.000000
# 6 0.000000 0.000000 0.000000 0.000000 0.000000 0.018916
#
#
# Mechanical properties :
#
#
# Convention : Reuss Voigt Hill
#
# Bulk Modulus (GPa) = 48.11472 49.76858 48.94165
# Shear Modulus (GPa) = 20.50289 27.74651 24.12470
#
# Velocity S-wave (km/s) = 3.07023 3.57164 3.33038
# Velocity P-wave (km/s) = 5.88977 6.31586 6.10653
#
# Compressibility (1/GPa) = 0.02078366
#
# Stress axis : x y z
#
# Youngs Moduli (GPa) = 95.31553 61.12141 64.85400
#
# Poissons Ratio (x) = 0.19979 0.18834
# Poissons Ratio (y) = 0.31156 0.29646
# Poissons Ratio (z) = 0.27680 0.27940
#
# Static dielectric constant tensor:
#      x y z
#    x 1.848310 0.000000 0.000000 
#    y 0.000000 1.815840 0.000000 
#    z 0.000000 0.000000 1.788940 
# 
# From -- ./inp_files/13809.got.cif
#   From: 2010.05.17/outbox.cif.g08.bks.cpg/sg67_7_cif.got.tgz:13809.got - 2010.06.03 18:28:57.
