data_PCOD9504348
_publ_section_title
;
Structure prediction by ZEFSAII (Michael W. Deem and Ramdas Pophale) SiO2 
 PCOD9504348
Probable space group: C M M A
;
_chemical_formula_sum "Si O2"
_cell_formula_units_Z 80
_cell_length_a 15.902110
_cell_length_b 15.084757
_cell_length_c 16.541357
_cell_angle_alpha 90.000000
_cell_angle_beta 90.000000
_cell_angle_gamma 90.000000
_cell_volume 3967.931870
_symmetry_space_group_name_H-M "C M M A"
_symmetry_group_IT_number 67
_symmetry_cell_setting 'orthorhombic'
loop_
_space_group_symop_operation_xyz
x,y,z
-x,1/2-y,z
x,-y,-z
-x,1/2+y,-z
-x,-y,-z
x,1/2+y,-z
-x,y,z
x,1/2-y,z
1/2+x,1/2+y,z
1/2-x,-y,z
1/2+x,1/2-y,-z
1/2-x,y,-z
1/2-x,1/2-y,-z
1/2+x,y,-z
1/2-x,1/2+y,z
1/2+x,-y,z
loop_
_atom_site_type_symbol
_atom_site_label
_atom_site_fract_x
_atom_site_fract_y
_atom_site_fract_z
Si Si1 0.403899 0.846784 0.611855
Si Si2 0.100387 0.477027 0.310763
Si Si3 0.668270 0.645745 0.447533
Si Si4 0.647694 0.852436 0.991727
Si Si5 0.148297 0.494154 0.126914
O O1 0.500000 0.841161 0.638750
O O2 0.363764 0.750000 0.623573
O O3 0.402385 0.866384 0.516381
O O4 0.365503 0.927350 0.660154
O O5 0.147607 0.406663 0.367007
O O6 0.115157 0.473484 0.215589
O O7 0.000000 0.470155 0.327222
O O8 0.674662 0.750000 0.429944
O O9 0.750000 0.618341 0.500000
O O10 0.618820 0.750000 0.991156
O O11 0.621547 0.914441 0.067056
O O12 0.750000 0.849932 0.000000
O O13 0.623119 0.911295 0.913255
O O14 0.250000 0.500000 0.129525
#
# Coordination Sequence:
#
# PCOD9504348 Si02
#       5
#    16  16  16  16  16
#     4   9  19  36  54  73 104 146 189 230 278 338
#     4  11  23  36  55  84 117 153 187 234 296 344
#     4  10  22  38  56  79 107 145 194 239 282 335
#     4   8  15  33  57  80 110 147 185 230 284 335
#     4   9  19  33  54  84 111 143 189 236 280 335
#
# _framework density 20.161636999999999
#
# number of rings (size 3 to 8) (size 9 to 14) (size 15 to 20)
#    0.000    2.600    0.000    2.400    2.800    5.200 
#    0.000    2.000    0.000    1.200    0.000    0.000 
#    0.000    0.000    0.000    0.000    0.000    0.000 
#
# Total GULP energy -222964.897951 kJ/mol
# GULP energy per Si atom -5574.122449 kJ/mol
# Density = 2.011575 g / cm^3
# Si number density = 20.161637 Si / 1000 Ang^3
#
#
#
# Elastic Constant Matrix: (Units=GPa)
#
#
# Indices 1 2 3 4 5 6 
#
# 1 45.6850 23.5635 20.9945 0.0000 0.0000 0.0000
# 2 23.5635 159.5077 93.0699 0.0000 0.0000 0.0000
# 3 20.9945 93.0699 152.7238 0.0000 0.0000 0.0000
# 4 0.0000 0.0000 0.0000 -76.2207 0.0000 0.0000
# 5 0.0000 0.0000 0.0000 0.0000 23.7175 0.0000
# 6 0.0000 0.0000 0.0000 0.0000 0.0000 8.3100
#
#
#
# Elastic Compliance Matrix: (Units=1/GPa)
#
#
# Indices 1 2 3 4 5 6 
#
# 1 0.023998 -0.002514 -0.001767 0.000000 0.000000 0.000000
# 2 -0.002514 0.009992 -0.005743 0.000000 0.000000 0.000000
# 3 -0.001767 -0.005743 0.010291 0.000000 0.000000 0.000000
# 4 0.000000 0.000000 0.000000 -0.013120 0.000000 0.000000
# 5 0.000000 0.000000 0.000000 0.000000 0.042163 0.000000
# 6 0.000000 0.000000 0.000000 0.000000 0.000000 0.120336
#
#
# Mechanical properties :
#
#
# Convention : Reuss Voigt Hill
#
# Bulk Modulus (GPa) = 41.26856 70.35247 55.81052
# Shear Modulus (GPa) = 22.54427 5.84728 14.19578
#
# Velocity S-wave (km/s) = 3.34754 1.70485 2.65636
# Velocity P-wave (km/s) = 5.95438 6.23260 6.09508
#
# Compressibility (1/GPa) = 0.02423152
#
# Stress axis : x y z
#
# Youngs Moduli (GPa) = 41.67058 100.08107 97.17535
#
# Poissons Ratio (x) = 0.25163 0.17168
# Poissons Ratio (y) = 0.10477 0.55812
# Poissons Ratio (z) = 0.07362 0.57481
#
# Static dielectric constant tensor:
#      x y z
#    x 1.781480 0.000000 0.000000 
#    y 0.000000 1.742820 0.000000 
#    z 0.000000 0.000000 1.676860 
# 
# From -- ./inp_files/29076.got.cif
#   From: 2010.05.17/outbox.cif.g08.bks.cpg/sg67_15_cif.got.tgz:29076.got - 2010.06.03 18:28:57.
