data_PCOD9504041
_publ_section_title
;
Structure prediction by ZEFSAII (Michael W. Deem and Ramdas Pophale) SiO2 
 PCOD9504041
Probable space group: C M M A
;
_chemical_formula_sum "Si O2"
_cell_formula_units_Z 96
_cell_length_a 15.803859
_cell_length_b 23.819869
_cell_length_c 10.975997
_cell_angle_alpha 90.000000
_cell_angle_beta 90.000000
_cell_angle_gamma 90.000000
_cell_volume 4131.868532
_symmetry_space_group_name_H-M "C M M A"
_symmetry_group_IT_number 67
_symmetry_cell_setting 'orthorhombic'
loop_
_space_group_symop_operation_xyz
x,y,z
-x,1/2-y,z
x,-y,-z
-x,1/2+y,-z
-x,-y,-z
x,1/2+y,-z
-x,y,z
x,1/2-y,z
1/2+x,1/2+y,z
1/2-x,-y,z
1/2+x,1/2-y,-z
1/2-x,y,-z
1/2-x,1/2-y,-z
1/2+x,y,-z
1/2-x,1/2+y,z
1/2+x,-y,z
loop_
_atom_site_type_symbol
_atom_site_label
_atom_site_fract_x
_atom_site_fract_y
_atom_site_fract_z
Si Si1 0.396856 0.915379 0.599911
Si Si2 0.906666 0.424421 0.337001
Si Si3 0.868861 0.814714 0.778290
Si Si4 0.665914 0.814227 0.736972
Si Si5 0.647940 0.380650 0.020804
Si Si6 0.153386 0.486867 0.836064
O O1 0.500000 0.916847 0.604912
O O2 0.364647 0.934919 0.467371
O O3 0.364800 0.852640 0.626624
O O4 0.359119 0.951848 0.710385
O O5 0.906839 0.357764 0.318461
O O6 0.877566 0.452720 0.211537
O O7 0.000000 0.447830 0.352550
O O8 0.895823 0.750000 0.775565
O O9 0.767693 0.815866 0.753171
O O10 0.886236 0.844578 0.908097
O O11 0.639641 0.750000 0.725851
O O12 0.631377 0.843281 0.859470
O O13 0.619502 0.444108 0.059690
O O14 0.750000 0.384054 0.000000
O O15 0.250000 0.500000 0.863478
#
# Coordination Sequence:
#
# PCOD9504041 Si02
#       6
#    16  16  16  16  16  16
#     4  10  22  39  57  81 118 158 192 233 289 343
#     4  11  24  40  57  80 116 159 195 233 287 346
#     4  10  21  38  60  86 117 153 193 236 282 337
#     4   9  18  34  60  89 112 144 194 243 282 330
#     4   9  18  35  59  87 117 146 181 232 294 345
#     4  11  22  37  62  90 113 143 189 242 289 339
#
# _framework density 23.23404
#
# number of rings (size 3 to 8) (size 9 to 14) (size 15 to 20)
#    0.000    2.000    0.000    4.500    0.000   10.333 
#    0.000    8.333    0.000    4.000    0.000    0.000 
#    0.000    0.000    0.000    0.000    0.000    0.000 
#
# Total GULP energy -267843.049439 kJ/mol
# GULP energy per Si atom -5580.063530 kJ/mol
# Density = 2.318116 g / cm^3
# Si number density = 23.234040 Si / 1000 Ang^3
#
#
#
# Elastic Constant Matrix: (Units=GPa)
#
#
# Indices 1 2 3 4 5 6 
#
# 1 30.1737 16.9506 14.0183 0.0000 0.0000 0.0000
# 2 16.9506 192.5464 42.2904 0.0000 0.0000 0.0000
# 3 14.0183 42.2904 133.1699 0.0000 0.0000 0.0000
# 4 0.0000 0.0000 0.0000 26.4388 0.0000 0.0000
# 5 0.0000 0.0000 0.0000 0.0000 177.0202 0.0000
# 6 0.0000 0.0000 0.0000 0.0000 0.0000 2737.3838
#
#
#
# Elastic Compliance Matrix: (Units=1/GPa)
#
#
# Indices 1 2 3 4 5 6 
#
# 1 0.035938 -0.002508 -0.002987 0.000000 0.000000 0.000000
# 2 -0.002508 0.005758 -0.001565 0.000000 0.000000 0.000000
# 3 -0.002987 -0.001565 0.008320 0.000000 0.000000 0.000000
# 4 0.000000 0.000000 0.000000 0.037823 0.000000 0.000000
# 5 0.000000 0.000000 0.000000 0.000000 0.005649 0.000000
# 6 0.000000 0.000000 0.000000 0.000000 0.000000 0.000365
#
#
# Mechanical properties :
#
#
# Convention : Reuss Voigt Hill
#
# Bulk Modulus (GPa) = 27.85655 55.82318 41.83986
# Shear Modulus (GPa) = 41.68829 607.01059 324.34944
#
# Velocity S-wave (km/s) = 4.24049 16.18105 11.82810
# Velocity P-wave (km/s) = 5.99927 19.31788 14.30335
#
# Compressibility (1/GPa) = 0.03589820
#
# Stress axis : x y z
#
# Youngs Moduli (GPa) = 27.82591 173.67269 120.18587
#
# Poissons Ratio (x) = 0.43553 0.35895
# Poissons Ratio (y) = 0.06978 0.18804
# Poissons Ratio (z) = 0.08311 0.27172
#
# Static dielectric constant tensor:
#      x y z
#    x 1.918860 0.000000 0.000000 
#    y 0.000000 1.919290 0.000000 
#    z 0.000000 0.000000 1.899610 
# 
# From -- ./inp_files/19622.got.cif
#   From: 2010.05.17/outbox.cif.g08.bks.cpg/sg67_10_cif.got.tgz:19622.got - 2010.06.03 18:28:57.
