data_PCOD9504882
_publ_section_title
;
Structure prediction by ZEFSAII (Michael W. Deem and Ramdas Pophale) SiO2 
 PCOD9504882
Probable space group: C M M A
;
_chemical_formula_sum "Si O2"
_cell_formula_units_Z 88
_cell_length_a 28.787478
_cell_length_b 11.765575
_cell_length_c 11.816666
_cell_angle_alpha 90.000000
_cell_angle_beta 90.000000
_cell_angle_gamma 90.000000
_cell_volume 4002.319326
_symmetry_space_group_name_H-M "C M M A"
_symmetry_group_IT_number 67
_symmetry_cell_setting 'orthorhombic'
loop_
_space_group_symop_operation_xyz
x,y,z
-x,1/2-y,z
x,-y,-z
-x,1/2+y,-z
-x,-y,-z
x,1/2+y,-z
-x,y,z
x,1/2-y,z
1/2+x,1/2+y,z
1/2-x,-y,z
1/2+x,1/2-y,-z
1/2-x,y,-z
1/2-x,1/2-y,-z
1/2+x,y,-z
1/2-x,1/2+y,z
1/2+x,-y,z
loop_
_atom_site_type_symbol
_atom_site_label
_atom_site_fract_x
_atom_site_fract_y
_atom_site_fract_z
Si Si1 0.697725 0.750000 0.540199
Si Si2 0.447391 0.883247 0.734488
Si Si3 0.077062 0.000000 0.500000
Si Si4 0.624051 0.250000 0.837109
Si Si5 0.291292 0.432621 0.283304
Si Si6 0.370965 0.990862 0.124761
Si Si7 0.237177 0.750000 0.867945
Si Si8 0.387368 0.750000 0.418525
O O1 0.750000 0.750000 0.500000
O O2 0.686149 0.855543 0.620945
O O3 0.667964 0.750000 0.429240
O O4 0.500000 0.891493 0.778770
O O5 0.438819 0.750000 0.704837
O O6 0.444894 0.961421 0.621067
O O7 0.409255 0.923235 0.826174
O O8 0.098238 0.873873 0.531724
O O9 0.606840 0.367160 0.886853
O O10 0.681154 0.250000 0.849972
O O11 0.603384 0.250000 0.712436
O O12 0.250000 0.500000 0.342280
O O13 0.330233 0.502914 0.218123
O O14 0.263226 0.355679 0.192616
O O15 0.349334 0.000000 0.000000
O O16 0.250000 0.750000 0.000000
#
# Coordination Sequence:
#
# PCOD9504882 Si02
#       8
#     8  16   8   8  16  16   8   8
#     4  11  27  40  61  94 136 195 235 291 351 420
#     4  11  26  48  74 106 143 185 234 291 362 443
#     4  12  23  46  75 108 140 180 229 294 372 440
#     4  12  24  44  64 103 136 179 234 291 346 415
#     4  11  24  41  62  96 134 179 235 286 344 412
#     4  12  27  45  73 101 141 186 237 295 361 421
#     4  11  22  37  60  87 130 176 230 278 331 397
#     4  12  25  41  71 100 142 182 233 290 353 433
#
# _framework density 21.987251000000001
#
# number of rings (size 3 to 8) (size 9 to 14) (size 15 to 20)
#    0.000    0.545    4.545    3.545    3.818    0.727 
#    0.000    1.364    0.000    0.000    0.000    0.000 
#    0.000    0.000    0.000    0.000    0.000    0.000 
#
# Total GULP energy -245158.940518 kJ/mol
# GULP energy per Si atom -5571.794103 kJ/mol
# Density = 2.193721 g / cm^3
# Si number density = 21.987251 Si / 1000 Ang^3
#
#
#
# Elastic Constant Matrix: (Units=GPa)
#
#
# Indices 1 2 3 4 5 6 
#
# 1 66.6173 18.9904 -10.1737 0.0000 0.0000 0.0000
# 2 18.9904 118.2421 -2.7293 0.0000 0.0000 0.0000
# 3 -10.1737 -2.7293 56.3859 0.0000 0.0000 0.0000
# 4 0.0000 0.0000 0.0000 6.0282 0.0000 0.0000
# 5 0.0000 0.0000 0.0000 0.0000 15.5299 0.0000
# 6 0.0000 0.0000 0.0000 0.0000 0.0000 19.4239
#
#
#
# Elastic Compliance Matrix: (Units=1/GPa)
#
#
# Indices 1 2 3 4 5 6 
#
# 1 0.016159 -0.002531 0.002793 0.000000 0.000000 0.000000
# 2 -0.002531 0.008863 -0.000028 0.000000 0.000000 0.000000
# 3 0.002793 -0.000028 0.018238 0.000000 0.000000 0.000000
# 4 0.000000 0.000000 0.000000 0.165886 0.000000 0.000000
# 5 0.000000 0.000000 0.000000 0.000000 0.064392 0.000000
# 6 0.000000 0.000000 0.000000 0.000000 0.000000 0.051483
#
#
# Mechanical properties :
#
#
# Convention : Reuss Voigt Hill
#
# Bulk Modulus (GPa) = 22.86807 28.15778 25.51292
# Shear Modulus (GPa) = 14.74372 23.87359 19.30866
#
# Velocity S-wave (km/s) = 2.59232 3.29871 2.96662
# Velocity P-wave (km/s) = 4.40265 5.22904 4.83354
#
# Compressibility (1/GPa) = 0.04372910
#
# Stress axis : x y z
#
# Youngs Moduli (GPa) = 61.88458 112.82803 54.83189
#
# Poissons Ratio (x) = 0.28554 -0.15315
# Poissons Ratio (y) = 0.15662 0.00151
# Poissons Ratio (z) = -0.17285 0.00312
#
# Static dielectric constant tensor:
#      x y z
#    x 1.793210 0.000000 0.000000 
#    y 0.000000 1.999110 0.000000 
#    z 0.000000 0.000000 1.786690 
# 
# From -- ./inp_files/23632.got.cif
#   From: 2010.05.17/outbox.cif.g08.bks.cpg/sg67_12_cif.got.tgz:23632.got - 2010.06.03 18:28:57.
