data_PCOD9504343
_publ_section_title
;
Structure prediction by ZEFSAII (Michael W. Deem and Ramdas Pophale) SiO2 
 PCOD9504343
Probable space group: C M M A
;
_chemical_formula_sum "Si O2"
_cell_formula_units_Z 88
_cell_length_a 14.962944
_cell_length_b 7.390012
_cell_length_c 33.169751
_cell_angle_alpha 90.000000
_cell_angle_beta 90.000000
_cell_angle_gamma 90.000000
_cell_volume 3667.789522
_symmetry_space_group_name_H-M "C M M A"
_symmetry_group_IT_number 67
_symmetry_cell_setting 'orthorhombic'
loop_
_space_group_symop_operation_xyz
x,y,z
-x,1/2-y,z
x,-y,-z
-x,1/2+y,-z
-x,-y,-z
x,1/2+y,-z
-x,y,z
x,1/2-y,z
1/2+x,1/2+y,z
1/2-x,-y,z
1/2+x,1/2-y,-z
1/2-x,y,-z
1/2-x,1/2-y,-z
1/2+x,y,-z
1/2-x,1/2+y,z
1/2+x,-y,z
loop_
_atom_site_type_symbol
_atom_site_label
_atom_site_fract_x
_atom_site_fract_y
_atom_site_fract_z
Si Si1 0.606744 0.044144 0.871417
Si Si2 0.602564 0.466618 0.956357
Si Si3 0.144497 0.534027 0.783579
Si Si4 0.642913 0.533608 0.302918
Si Si5 0.000000 0.466426 0.452665
Si Si6 0.355304 0.966620 0.390709
O O1 0.500000 0.054845 0.877047
O O2 0.643236 0.250000 0.868204
O O3 0.641255 0.963729 0.913758
O O4 0.618577 0.959372 0.827380
O O5 0.500000 0.536723 0.959341
O O6 0.598872 0.250000 0.951847
O O7 0.645095 0.500000 0.000000
O O8 0.124429 0.750000 0.784361
O O9 0.250000 0.500000 0.781517
O O10 0.108503 0.464906 0.740426
O O11 0.628125 0.750000 0.302399
O O12 0.750000 0.500000 0.303302
O O13 0.612949 0.464587 0.346637
O O14 0.000000 0.500000 0.500000
O O15 0.086167 0.534285 0.427919
O O16 0.000000 0.250000 0.449134
O O17 0.365832 0.750000 0.388963
O O18 0.250000 0.000000 0.395613
#
# Coordination Sequence:
#
# PCOD9504343 Si02
#       6
#    16  16  16  16   8  16
#     4   8  14  25  40  60  85 109 137 176 218 260
#     4   8  13  22  37  55  75 100 132 172 215 257
#     4   9  16  27  44  65  88 116 147 178 217 268
#     4   8  14  26  45  68  91 118 152 187 224 269
#     4  10  22  38  54  76 108 138 170 212 255 298
#     4   9  18  34  54  76 103 135 169 209 253 296
#
# _framework density 23.992653000000001
#
# number of rings (size 3 to 8) (size 9 to 14) (size 15 to 20)
#    0.000    3.455    0.000    1.091    0.000    1.091 
#    1.636    2.727    0.000    2.182    0.000    3.818 
#    0.000    0.000    0.000    0.000    0.000    0.000 
#
# Total GULP energy -245071.272272 kJ/mol
# GULP energy per Si atom -5569.801643 kJ/mol
# Density = 2.393804 g / cm^3
# Si number density = 23.992653 Si / 1000 Ang^3
#
#
#
# Elastic Constant Matrix: (Units=GPa)
#
#
# Indices 1 2 3 4 5 6 
#
# 1 70.7457 -5.8141 66.2095 0.0000 0.0000 0.0000
# 2 -5.8141 91.0474 14.8687 0.0000 0.0000 0.0000
# 3 66.2095 14.8687 351.4100 0.0000 0.0000 0.0000
# 4 0.0000 0.0000 0.0000 5.0756 0.0000 0.0000
# 5 0.0000 0.0000 0.0000 0.0000 33.6008 0.0000
# 6 0.0000 0.0000 0.0000 0.0000 0.0000 1.2297
#
#
#
# Elastic Compliance Matrix: (Units=1/GPa)
#
#
# Indices 1 2 3 4 5 6 
#
# 1 0.017406 0.001659 -0.003350 0.000000 0.000000 0.000000
# 2 0.001659 0.011218 -0.000787 0.000000 0.000000 0.000000
# 3 -0.003350 -0.000787 0.003510 0.000000 0.000000 0.000000
# 4 0.000000 0.000000 0.000000 0.197022 0.000000 0.000000
# 5 0.000000 0.000000 0.000000 0.000000 0.029761 0.000000
# 6 0.000000 0.000000 0.000000 0.000000 0.000000 0.813222
#
#
# Mechanical properties :
#
#
# Convention : Reuss Voigt Hill
#
# Bulk Modulus (GPa) = 36.79491 73.74793 55.27142
# Shear Modulus (GPa) = 4.60339 37.17715 20.89027
#
# Velocity S-wave (km/s) = 1.38666 3.94067 2.95395
# Velocity P-wave (km/s) = 4.23473 7.17702 5.89248
#
# Compressibility (1/GPa) = 0.02717767
#
# Stress axis : x y z
#
# Youngs Moduli (GPa) = 57.45016 89.14442 284.89131
#
# Poissons Ratio (x) = -0.14785 0.95431
# Poissons Ratio (y) = -0.09529 0.22425
# Poissons Ratio (z) = 0.19244 0.07017
#
# Static dielectric constant tensor:
#      x y z
#    x 1.932600 0.000000 0.000000 
#    y 0.000000 2.291890 0.000000 
#    z 0.000000 0.000000 2.015070 
# 
# From -- ./inp_files/44317.got.cif
#   From: 2010.05.17/outbox.cif.g08.bks.cpg/sg67_23_cif.got.tgz:44317.got - 2010.06.03 18:28:57.
