data_PCOD9504311
_publ_section_title
;
Structure prediction by ZEFSAII (Michael W. Deem and Ramdas Pophale) SiO2 
 PCOD9504311
Probable space group: C M M A
;
_chemical_formula_sum "Si O2"
_cell_formula_units_Z 112
_cell_length_a 14.511905
_cell_length_b 25.490513
_cell_length_c 14.732651
_cell_angle_alpha 90.000000
_cell_angle_beta 90.000000
_cell_angle_gamma 90.000000
_cell_volume 5449.841899
_symmetry_space_group_name_H-M "C M M A"
_symmetry_group_IT_number 67
_symmetry_cell_setting 'orthorhombic'
loop_
_space_group_symop_operation_xyz
x,y,z
-x,1/2-y,z
x,-y,-z
-x,1/2+y,-z
-x,-y,-z
x,1/2+y,-z
-x,y,z
x,1/2-y,z
1/2+x,1/2+y,z
1/2-x,-y,z
1/2+x,1/2-y,-z
1/2-x,y,-z
1/2-x,1/2-y,-z
1/2+x,y,-z
1/2-x,1/2+y,z
1/2+x,-y,z
loop_
_atom_site_type_symbol
_atom_site_label
_atom_site_fract_x
_atom_site_fract_y
_atom_site_fract_z
Si Si1 0.198236 0.386291 0.628396
Si Si2 0.638412 0.503004 0.848112
Si Si3 0.889275 0.308883 0.768978
Si Si4 0.110522 0.806245 0.021461
Si Si5 0.106707 0.392667 0.436655
Si Si6 0.898784 0.007775 0.640904
Si Si7 0.357530 0.077423 0.998687
O O1 0.154539 0.354594 0.710393
O O2 0.141736 0.374666 0.535816
O O3 0.306948 0.374051 0.624328
O O4 0.180073 0.448622 0.634256
O O5 0.750000 0.500000 0.839323
O O6 0.600947 0.494407 0.747829
O O7 0.610941 0.556815 0.901799
O O8 0.605581 0.458223 0.917705
O O9 0.867194 0.250000 0.734194
O O10 0.858689 0.310646 0.873799
O O11 0.000000 0.314146 0.767553
O O12 0.143044 0.750000 0.983554
O O13 0.133554 0.861525 0.977776
O O14 0.000000 0.804124 0.023006
O O15 0.110115 0.455931 0.420420
O O16 0.000000 0.377269 0.419635
O O17 0.000000 0.031790 0.619192
O O18 0.250000 0.065166 0.000000
#
# Coordination Sequence:
#
# PCOD9504311 Si02
#       7
#    16  16  16  16  16  16  16
#     4  11  20  34  57  77 103 143 175 209 264 313
#     4   9  18  32  47  69 102 136 169 210 261 312
#     4   9  18  33  55  84 110 131 168 221 268 311
#     4   9  18  32  50  74 103 131 164 214 266 306
#     4  10  22  36  50  76 109 138 175 216 252 305
#     4  11  21  32  50  77 107 139 176 215 259 312
#     4   9  18  31  48  70  99 134 171 211 255 310
#
# _framework density 20.551055000000002
#
# number of rings (size 3 to 8) (size 9 to 14) (size 15 to 20)
#    0.000    2.286    0.000    5.571    0.000    6.000 
#    0.000    2.857    0.000    1.286    0.000    1.000 
#    0.000    3.429    0.000    0.000    0.000    0.000 
#
# Total GULP energy -312173.686133 kJ/mol
# GULP energy per Si atom -5574.530110 kJ/mol
# Density = 2.050428 g / cm^3
# Si number density = 20.551055 Si / 1000 Ang^3
#
#
#
# Elastic Constant Matrix: (Units=GPa)
#
#
# Indices 1 2 3 4 5 6 
#
# 1 112.9996 4.5376 4.8082 0.0000 0.0000 0.0000
# 2 4.5376 71.4860 2.0709 0.0000 0.0000 0.0000
# 3 4.8082 2.0709 37.7592 0.0000 0.0000 0.0000
# 4 0.0000 0.0000 0.0000 18.7574 0.0000 0.0000
# 5 0.0000 0.0000 0.0000 0.0000 -1.6030 0.0000
# 6 0.0000 0.0000 0.0000 0.0000 0.0000 18.9407
#
#
#
# Elastic Compliance Matrix: (Units=1/GPa)
#
#
# Indices 1 2 3 4 5 6 
#
# 1 0.008918 -0.000534 -0.001106 0.000000 0.000000 0.000000
# 2 -0.000534 0.014043 -0.000702 0.000000 0.000000 0.000000
# 3 -0.001106 -0.000702 0.026663 0.000000 0.000000 0.000000
# 4 0.000000 0.000000 0.000000 0.053312 0.000000 0.000000
# 5 0.000000 0.000000 0.000000 0.000000 -0.623827 0.000000
# 6 0.000000 0.000000 0.000000 0.000000 0.000000 0.052796
#
#
# Mechanical properties :
#
#
# Convention : Reuss Voigt Hill
#
# Bulk Modulus (GPa) = 22.25239 27.23092 24.74166
# Shear Modulus (GPa) = -11.15004 21.27422 5.06209
#
# Velocity S-wave (km/s) = -2.33180 3.22093 1.57115
# Velocity P-wave (km/s) = 1.89779 5.20688 3.91875
#
# Compressibility (1/GPa) = 0.04493899
#
# Stress axis : x y z
#
# Youngs Moduli (GPa) = 112.13145 71.20986 37.50516
#
# Poissons Ratio (x) = 0.03803 0.04149
# Poissons Ratio (y) = 0.05988 0.02634
# Poissons Ratio (z) = 0.12405 0.05000
#
# Static dielectric constant tensor:
#      x y z
#    x 1.776560 0.000000 0.000000 
#    y 0.000000 1.643920 0.000000 
#    z 0.000000 0.000000 1.749310 
# 
# From -- ./inp_files/27740.got.cif
#   From: 2010.05.17/outbox.cif.g08.bks.cpg/sg67_14_cif.got.tgz:27740.got - 2010.06.03 18:28:57.
