data_PCOD9504287
_publ_section_title
;
Structure prediction by ZEFSAII (Michael W. Deem and Ramdas Pophale) SiO2 
 PCOD9504287
Probable space group: C M M A
;
_chemical_formula_sum "Si O2"
_cell_formula_units_Z 72
_cell_length_a 27.556591
_cell_length_b 14.194169
_cell_length_c 9.714326
_cell_angle_alpha 90.000000
_cell_angle_beta 90.000000
_cell_angle_gamma 90.000000
_cell_volume 3799.689738
_symmetry_space_group_name_H-M "C M M A"
_symmetry_group_IT_number 67
_symmetry_cell_setting 'orthorhombic'
loop_
_space_group_symop_operation_xyz
x,y,z
-x,1/2-y,z
x,-y,-z
-x,1/2+y,-z
-x,-y,-z
x,1/2+y,-z
-x,y,z
x,1/2-y,z
1/2+x,1/2+y,z
1/2-x,-y,z
1/2+x,1/2-y,-z
1/2-x,y,-z
1/2-x,1/2-y,-z
1/2+x,y,-z
1/2-x,1/2+y,z
1/2+x,-y,z
loop_
_atom_site_type_symbol
_atom_site_label
_atom_site_fract_x
_atom_site_fract_y
_atom_site_fract_z
Si Si1 0.904130 0.137842 0.018181
Si Si2 0.297557 0.863131 0.410481
Si Si3 0.205673 0.364048 0.094811
Si Si4 0.380354 0.000000 0.500000
Si Si5 0.442744 0.012544 0.225306
O O1 0.909969 0.250000 0.025657
O O2 0.924948 0.094658 0.877822
O O3 0.846957 0.114037 0.032292
O O4 0.930583 0.083732 0.142716
O O5 0.303495 0.750000 0.409859
O O6 0.250000 0.885040 0.500000
O O7 0.291471 0.896717 0.252734
O O8 0.344496 0.912394 0.473750
O O9 0.208537 0.250000 0.100356
O O10 0.250000 0.395896 0.000000
O O11 0.413269 0.014760 0.366303
O O12 0.500000 0.019931 0.247956
#
# Coordination Sequence:
#
# PCOD9504287 Si02
#       5
#    16  16  16   8  16
#     4  10  21  42  67  90 121 160 203 254 309 364
#     4  10  22  40  62  90 126 163 199 244 298 364
#     4   9  18  35  61  91 119 153 196 243 299 358
#     4  12  24  42  62  90 126 166 204 244 306 376
#     4  11  25  42  62  90 121 159 208 262 308 354
#
# _framework density 18.948916000000001
#
# number of rings (size 3 to 8) (size 9 to 14) (size 15 to 20)
#    0.000    1.778    2.222    2.000    3.111    2.667 
#    0.000    2.222    0.000    4.000    0.000    0.000 
#    0.000    0.000    0.000    0.000    0.000    0.000 
#
# Total GULP energy -201208.104236 kJ/mol
# GULP energy per Si atom -5589.114007 kJ/mol
# Density = 1.890579 g / cm^3
# Si number density = 18.948916 Si / 1000 Ang^3
#
#
#
# Elastic Constant Matrix: (Units=GPa)
#
#
# Indices 1 2 3 4 5 6 
#
# 1 197.8060 49.3326 113.9783 0.0000 0.0000 0.0000
# 2 49.3326 98.9436 57.3241 0.0000 0.0000 0.0000
# 3 113.9783 57.3241 178.2741 0.0000 0.0000 0.0000
# 4 0.0000 0.0000 0.0000 3.6646 0.0000 0.0000
# 5 0.0000 0.0000 0.0000 0.0000 17.8037 0.0000
# 6 0.0000 0.0000 0.0000 0.0000 0.0000 24.6339
#
#
#
# Elastic Compliance Matrix: (Units=1/GPa)
#
#
# Indices 1 2 3 4 5 6 
#
# 1 0.008134 -0.001281 -0.004789 0.000000 0.000000 0.000000
# 2 -0.001281 0.012623 -0.003240 0.000000 0.000000 0.000000
# 3 -0.004789 -0.003240 0.009713 0.000000 0.000000 0.000000
# 4 0.000000 0.000000 0.000000 0.272879 0.000000 0.000000
# 5 0.000000 0.000000 0.000000 0.000000 0.056168 0.000000
# 6 0.000000 0.000000 0.000000 0.000000 0.000000 0.040595
#
#
# Mechanical properties :
#
#
# Convention : Reuss Voigt Hill
#
# Bulk Modulus (GPa) = 84.38549 101.81042 93.09796
# Shear Modulus (GPa) = 11.82927 26.17969 19.00448
#
# Velocity S-wave (km/s) = 2.50125 3.72101 3.17035
# Velocity P-wave (km/s) = 7.27815 8.50334 7.91449
#
# Compressibility (1/GPa) = 0.01185038
#
# Stress axis : x y z
#
# Youngs Moduli (GPa) = 122.93679 79.22357 102.95968
#
# Poissons Ratio (x) = 0.10152 0.49303
# Poissons Ratio (y) = 0.15753 0.33354
# Poissons Ratio (z) = 0.58869 0.25665
#
# Static dielectric constant tensor:
#      x y z
#    x 1.630650 0.000000 0.000000 
#    y 0.000000 1.668920 0.000000 
#    z 0.000000 0.000000 1.632740 
# 
# From -- ./inp_files/8274.got.cif
#   From: 2010.05.17/outbox.cif.g08.bks.cpg/sg67_5_cif.got.tgz:8274.got - 2010.06.03 18:28:57.
