data_PCOD9504601
_publ_section_title
;
Structure prediction by ZEFSAII (Michael W. Deem and Ramdas Pophale) SiO2 
 PCOD9504601
Probable space group: C M M A
;
_chemical_formula_sum "Si O2"
_cell_formula_units_Z 96
_cell_length_a 14.915648
_cell_length_b 14.532238
_cell_length_c 21.662747
_cell_angle_alpha 90.000000
_cell_angle_beta 90.000000
_cell_angle_gamma 90.000000
_cell_volume 4695.568226
_symmetry_space_group_name_H-M "C M M A"
_symmetry_group_IT_number 67
_symmetry_cell_setting 'orthorhombic'
loop_
_space_group_symop_operation_xyz
x,y,z
-x,1/2-y,z
x,-y,-z
-x,1/2+y,-z
-x,-y,-z
x,1/2+y,-z
-x,y,z
x,1/2-y,z
1/2+x,1/2+y,z
1/2-x,-y,z
1/2+x,1/2-y,-z
1/2-x,y,-z
1/2-x,1/2-y,-z
1/2+x,y,-z
1/2-x,1/2+y,z
1/2+x,-y,z
loop_
_atom_site_type_symbol
_atom_site_label
_atom_site_fract_x
_atom_site_fract_y
_atom_site_fract_z
Si Si1 0.337123 0.146882 0.861572
Si Si2 0.899444 0.496676 0.229990
Si Si3 0.891332 0.507498 0.373893
Si Si4 0.753591 0.142331 0.425816
Si Si5 0.124406 0.645588 0.125954
Si Si6 0.146395 0.137602 0.006304
O O1 0.369705 0.250000 0.848288
O O2 0.232101 0.151184 0.876394
O O3 0.343017 0.080478 0.804007
O O4 0.383568 0.111182 0.924731
O O5 0.874579 0.514639 0.300309
O O6 0.898889 0.583505 0.184131
O O7 0.000000 0.459171 0.231487
O O8 0.837463 0.418248 0.400137
O O9 0.838151 0.593984 0.402735
O O10 0.000000 0.505664 0.384663
O O11 0.759879 0.250000 0.407977
O O12 0.750000 0.136685 0.500000
O O13 0.093226 0.750000 0.133669
O O14 0.099271 0.610083 0.057385
O O15 0.144834 0.250000 0.006605
O O16 0.250000 0.107866 0.000000
#
# Coordination Sequence:
#
# PCOD9504601 Si02
#       6
#    16  16  16  16  16  16
#     4   9  18  33  55  77 100 138 189 245 297 345
#     4  11  24  37  50  77 116 153 190 229 279 351
#     4  10  23  42  63  92 136 178 206 247 307 366
#     4  10  23  43  70 103 131 160 207 258 299 353
#     4   9  18  33  55  77 100 138 189 245 297 345
#     4   7  12  27  49  74  99 127 178 244 301 347
#
# _framework density 20.444807999999998
#
# number of rings (size 3 to 8) (size 9 to 14) (size 15 to 20)
#    0.000    2.667    0.000    3.500    4.667    4.667 
#    0.000    9.167    0.000    3.000    0.000    0.000 
#    0.000    0.000    0.000    0.000    0.000    0.000 
#
# Total GULP energy -267543.926480 kJ/mol
# GULP energy per Si atom -5573.831802 kJ/mol
# Density = 2.039828 g / cm^3
# Si number density = 20.444808 Si / 1000 Ang^3
#
#
#
# Elastic Constant Matrix: (Units=GPa)
#
#
# Indices 1 2 3 4 5 6 
#
# 1 101.4764 48.9639 55.0006 0.0000 0.0000 0.0000
# 2 48.9639 116.2060 51.8261 0.0000 0.0000 0.0000
# 3 55.0006 51.8261 129.6523 0.0000 0.0000 0.0000
# 4 0.0000 0.0000 0.0000 8.9826 0.0000 0.0000
# 5 0.0000 0.0000 0.0000 0.0000 70.5981 0.0000
# 6 0.0000 0.0000 0.0000 0.0000 0.0000 18.0073
#
#
#
# Elastic Compliance Matrix: (Units=1/GPa)
#
#
# Indices 1 2 3 4 5 6 
#
# 1 0.014180 -0.004006 -0.004414 0.000000 0.000000 0.000000
# 2 -0.004006 0.011604 -0.002939 0.000000 0.000000 0.000000
# 3 -0.004414 -0.002939 0.010760 0.000000 0.000000 0.000000
# 4 0.000000 0.000000 0.000000 0.111327 0.000000 0.000000
# 5 0.000000 0.000000 0.000000 0.000000 0.014165 0.000000
# 6 0.000000 0.000000 0.000000 0.000000 0.000000 0.055533
#
#
# Mechanical properties :
#
#
# Convention : Reuss Voigt Hill
#
# Bulk Modulus (GPa) = 72.32787 73.21289 72.77038
# Shear Modulus (GPa) = 20.41684 32.28720 26.35202
#
# Velocity S-wave (km/s) = 3.16354 3.97827 3.59407
# Velocity P-wave (km/s) = 6.98555 7.54917 7.27282
#
# Compressibility (1/GPa) = 0.01382593
#
# Stress axis : x y z
#
# Youngs Moduli (GPa) = 70.52206 86.17542 92.93472
#
# Poissons Ratio (x) = 0.34524 0.41021
# Poissons Ratio (y) = 0.28253 0.27314
# Poissons Ratio (z) = 0.31128 0.25327
#
# Static dielectric constant tensor:
#      x y z
#    x 1.773570 0.000000 0.000000 
#    y 0.000000 1.739910 0.000000 
#    z 0.000000 0.000000 1.752350 
# 
# From -- ./inp_files/38384.got.cif
#   From: 2010.05.17/outbox.cif.g08.bks.cpg/sg67_20_cif.got.tgz:38384.got - 2010.06.03 18:28:57.
