data_PCOD9504075
_publ_section_title
;
Structure prediction by ZEFSAII (Michael W. Deem and Ramdas Pophale) SiO2 
 PCOD9504075
Probable space group: C M M A
;
_chemical_formula_sum "Si O2"
_cell_formula_units_Z 88
_cell_length_a 10.195939
_cell_length_b 36.351062
_cell_length_c 12.267119
_cell_angle_alpha 90.000000
_cell_angle_beta 90.000000
_cell_angle_gamma 90.000000
_cell_volume 4546.601701
_symmetry_space_group_name_H-M "C M M A"
_symmetry_group_IT_number 67
_symmetry_cell_setting 'orthorhombic'
loop_
_space_group_symop_operation_xyz
x,y,z
-x,1/2-y,z
x,-y,-z
-x,1/2+y,-z
-x,-y,-z
x,1/2+y,-z
-x,y,z
x,1/2-y,z
1/2+x,1/2+y,z
1/2-x,-y,z
1/2+x,1/2-y,-z
1/2-x,y,-z
1/2-x,1/2-y,-z
1/2+x,y,-z
1/2-x,1/2+y,z
1/2+x,-y,z
loop_
_atom_site_type_symbol
_atom_site_label
_atom_site_fract_x
_atom_site_fract_y
_atom_site_fract_z
Si Si1 0.649923 0.804117 0.091206
Si Si2 0.651178 0.108186 0.907447
Si Si3 0.750000 0.146371 0.500000
Si Si4 0.000000 0.534082 0.346451
Si Si5 0.764444 0.087376 0.674982
Si Si6 0.500000 0.547455 0.396003
Si Si7 0.155973 0.209557 0.338565
O O1 0.500000 0.790437 0.080567
O O2 0.641438 0.848054 0.076839
O O3 0.700623 0.796840 0.213948
O O4 0.750000 0.790396 0.000000
O O5 0.500000 0.093798 0.909292
O O6 0.719286 0.103049 0.790628
O O7 0.750000 0.093199 0.000000
O O8 0.814386 0.118194 0.588374
O O9 0.819320 0.175318 0.418476
O O10 0.128138 0.555822 0.307876
O O11 0.000000 0.490439 0.326969
O O12 0.000000 0.538096 0.477020
O O13 0.631304 0.070083 0.626812
O O14 0.205861 0.250000 0.374931
O O15 0.000000 0.211750 0.331198
#
# Coordination Sequence:
#
# PCOD9504075 Si02
#       7
#    16  16   8   8  16   8  16
#     4   9  18  35  59  87 117 156 204 258 309 363
#     4  10  21  38  61  90 122 158 205 259 309 360
#     4  12  23  36  61  90 120 158 212 254 301 372
#     4  11  24  38  61  99 133 163 207 248 306 377
#     4  12  23  38  66  94 125 166 202 260 308 362
#     4  11  22  42  61  93 135 169 201 248 312 369
#     4  10  22  39  59  83 123 168 205 255 313 366
#
# _framework density 19.355115000000001
#
# number of rings (size 3 to 8) (size 9 to 14) (size 15 to 20)
#    0.000    1.455    4.545    0.818    3.818    1.818 
#    0.000    0.909    0.000    4.364    0.000    0.000 
#    0.000    0.000    0.000    0.000    0.000    0.000 
#
# Total GULP energy -245122.521798 kJ/mol
# GULP energy per Si atom -5570.966405 kJ/mol
# Density = 1.931106 g / cm^3
# Si number density = 19.355115 Si / 1000 Ang^3
#
#
#
# Elastic Constant Matrix: (Units=GPa)
#
#
# Indices 1 2 3 4 5 6 
#
# 1 90.3751 33.3621 45.8943 0.0000 0.0000 0.0000
# 2 33.3621 86.1537 26.2647 0.0000 0.0000 0.0000
# 3 45.8943 26.2647 131.6830 0.0000 0.0000 0.0000
# 4 0.0000 0.0000 0.0000 70.6393 0.0000 0.0000
# 5 0.0000 0.0000 0.0000 0.0000 56.5796 0.0000
# 6 0.0000 0.0000 0.0000 0.0000 0.0000 19.6058
#
#
#
# Elastic Compliance Matrix: (Units=1/GPa)
#
#
# Indices 1 2 3 4 5 6 
#
# 1 0.014895 -0.004456 -0.004302 0.000000 0.000000 0.000000
# 2 -0.004456 0.013692 -0.001178 0.000000 0.000000 0.000000
# 3 -0.004302 -0.001178 0.009328 0.000000 0.000000 0.000000
# 4 0.000000 0.000000 0.000000 0.014156 0.000000 0.000000
# 5 0.000000 0.000000 0.000000 0.000000 0.017674 0.000000
# 6 0.000000 0.000000 0.000000 0.000000 0.000000 0.051005
#
#
# Mechanical properties :
#
#
# Convention : Reuss Voigt Hill
#
# Bulk Modulus (GPa) = 55.42539 57.69488 56.56014
# Shear Modulus (GPa) = 34.09760 42.87766 38.48763
#
# Velocity S-wave (km/s) = 4.20180 4.71182 4.46410
# Velocity P-wave (km/s) = 7.22761 7.71200 7.47373
#
# Compressibility (1/GPa) = 0.01804227
#
# Stress axis : x y z
#
# Youngs Moduli (GPa) = 67.13726 73.03600 107.19990
#
# Poissons Ratio (x) = 0.32547 0.46121
# Poissons Ratio (y) = 0.29918 0.12626
# Poissons Ratio (z) = 0.28885 0.08602
#
# Static dielectric constant tensor:
#      x y z
#    x 1.668460 0.000000 0.000000 
#    y 0.000000 1.705670 0.000000 
#    z 0.000000 0.000000 1.678790 
# 
# From -- ./inp_files/16912.got.cif
#   From: 2010.05.17/outbox.cif.g08.bks.cpg/sg67_9_cif.got.tgz:16912.got - 2010.06.03 18:28:57.
