data_PCOD9504734
_publ_section_title
;
Structure prediction by ZEFSAII (Michael W. Deem and Ramdas Pophale) SiO2 
 PCOD9504734
Probable space group: C M M A
;
_chemical_formula_sum "Si O2"
_cell_formula_units_Z 96
_cell_length_a 22.977291
_cell_length_b 22.763934
_cell_length_c 10.052481
_cell_angle_alpha 90.000000
_cell_angle_beta 90.000000
_cell_angle_gamma 90.000000
_cell_volume 5257.985731
_symmetry_space_group_name_H-M "C M M A"
_symmetry_group_IT_number 67
_symmetry_cell_setting 'orthorhombic'
loop_
_space_group_symop_operation_xyz
x,y,z
-x,1/2-y,z
x,-y,-z
-x,1/2+y,-z
-x,-y,-z
x,1/2+y,-z
-x,y,z
x,1/2-y,z
1/2+x,1/2+y,z
1/2-x,-y,z
1/2+x,1/2-y,-z
1/2-x,y,-z
1/2-x,1/2-y,-z
1/2+x,y,-z
1/2-x,1/2+y,z
1/2+x,-y,z
loop_
_atom_site_type_symbol
_atom_site_label
_atom_site_fract_x
_atom_site_fract_y
_atom_site_fract_z
Si Si1 0.363697 0.378957 0.235832
Si Si2 0.566072 0.680186 0.000724
Si Si3 0.745315 0.064771 0.843774
Si Si4 0.430799 0.495626 0.159338
Si Si5 0.623561 0.615151 0.243132
Si Si6 0.679192 0.679133 0.496968
O O1 0.297988 0.395233 0.199984
O O2 0.398481 0.440935 0.229186
O O3 0.355083 0.343813 0.372484
O O4 0.394622 0.341692 0.120779
O O5 0.500000 0.656911 0.985537
O O6 0.564404 0.750000 0.000036
O O7 0.592090 0.657935 0.139420
O O8 0.684314 0.093424 0.815670
O O9 0.750000 0.000000 0.780355
O O10 0.750000 0.058184 0.000000
O O11 0.500000 0.486947 0.160108
O O12 0.414576 0.555297 0.238096
O O13 0.412967 0.500000 0.000000
O O14 0.644016 0.647753 0.376925
O O15 0.676104 0.750000 0.486322
O O16 0.750000 0.664488 0.500000
#
# Coordination Sequence:
#
# PCOD9504734 Si02
#       6
#    16  16  16  16  16  16
#     4  12  22  41  65  96 130 168 215 263 325 386
#     4  11  24  42  65  92 124 170 224 271 314 371
#     4  11  20  35  60  99 135 161 197 264 335 390
#     4  11  22  40  69 100 132 167 209 270 329 384
#     4  12  22  41  65  96 130 168 215 263 325 386
#     4  11  26  45  63  90 134 181 218 262 322 385
#
# _framework density 18.257942
#
# number of rings (size 3 to 8) (size 9 to 14) (size 15 to 20)
#    0.000    0.667    6.667    2.000    0.000    0.667 
#    0.000    6.667    0.000    6.000    0.000    0.000 
#    0.000    0.000    0.000    0.000    0.000    0.000 
#
# Total GULP energy -267744.228900 kJ/mol
# GULP energy per Si atom -5578.004769 kJ/mol
# Density = 1.821639 g / cm^3
# Si number density = 18.257942 Si / 1000 Ang^3
#
#
#
# Elastic Constant Matrix: (Units=GPa)
#
#
# Indices 1 2 3 4 5 6 
#
# 1 60.0592 1.7509 -10.3655 0.0000 0.0000 0.0000
# 2 1.7509 82.7318 22.3712 0.0000 0.0000 0.0000
# 3 -10.3655 22.3712 62.7247 0.0000 0.0000 0.0000
# 4 0.0000 0.0000 0.0000 31.1514 0.0000 0.0000
# 5 0.0000 0.0000 0.0000 0.0000 1.5125 0.0000
# 6 0.0000 0.0000 0.0000 0.0000 0.0000 29.2828
#
#
#
# Elastic Compliance Matrix: (Units=1/GPa)
#
#
# Indices 1 2 3 4 5 6 
#
# 1 0.017256 -0.001258 0.003300 0.000000 0.000000 0.000000
# 2 -0.001258 0.013469 -0.005012 0.000000 0.000000 0.000000
# 3 0.003300 -0.005012 0.018275 0.000000 0.000000 0.000000
# 4 0.000000 0.000000 0.000000 0.032101 0.000000 0.000000
# 5 0.000000 0.000000 0.000000 0.000000 0.661158 0.000000
# 6 0.000000 0.000000 0.000000 0.000000 0.000000 0.034150
#
#
# Mechanical properties :
#
#
# Convention : Reuss Voigt Hill
#
# Bulk Modulus (GPa) = 23.22183 25.89212 24.55697
# Shear Modulus (GPa) = 6.27587 25.17327 15.72457
#
# Velocity S-wave (km/s) = 1.85602 3.71719 2.93788
# Velocity P-wave (km/s) = 4.16406 5.71274 4.99874
#
# Compressibility (1/GPa) = 0.04306293
#
# Stress axis : x y z
#
# Youngs Moduli (GPa) = 57.94925 74.24423 54.71807
#
# Poissons Ratio (x) = 0.09337 -0.18058
# Poissons Ratio (y) = 0.07288 0.27423
# Poissons Ratio (z) = -0.19125 0.37209
#
# Static dielectric constant tensor:
#      x y z
#    x 1.603160 0.000000 0.000000 
#    y 0.000000 1.657840 0.000000 
#    z 0.000000 0.000000 1.629190 
# 
# From -- ./inp_files/12598.got.cif
#   From: 2010.05.17/outbox.cif.g08.bks.cpg/sg67_7_cif.got.tgz:12598.got - 2010.06.03 18:28:57.
