data_PCOD9504091
_publ_section_title
;
Structure prediction by ZEFSAII (Michael W. Deem and Ramdas Pophale) SiO2 
 PCOD9504091
Probable space group: C M M A
;
_chemical_formula_sum "Si O2"
_cell_formula_units_Z 80
_cell_length_a 13.928870
_cell_length_b 14.739186
_cell_length_c 19.309011
_cell_angle_alpha 90.000000
_cell_angle_beta 90.000000
_cell_angle_gamma 90.000000
_cell_volume 3964.143930
_symmetry_space_group_name_H-M "C M M A"
_symmetry_group_IT_number 67
_symmetry_cell_setting 'orthorhombic'
loop_
_space_group_symop_operation_xyz
x,y,z
-x,1/2-y,z
x,-y,-z
-x,1/2+y,-z
-x,-y,-z
x,1/2+y,-z
-x,y,z
x,1/2-y,z
1/2+x,1/2+y,z
1/2-x,-y,z
1/2+x,1/2-y,-z
1/2-x,y,-z
1/2-x,1/2-y,-z
1/2+x,y,-z
1/2-x,1/2+y,z
1/2+x,-y,z
loop_
_atom_site_type_symbol
_atom_site_label
_atom_site_fract_x
_atom_site_fract_y
_atom_site_fract_z
Si Si1 0.737126 0.144599 0.917323
Si Si2 0.617371 0.750000 0.352654
Si Si3 0.616434 0.444476 0.699662
Si Si4 0.383443 0.941489 0.567031
Si Si5 0.616979 0.250000 0.484161
Si Si6 0.886558 0.506632 0.145991
O O1 0.728987 0.250000 0.896161
O O2 0.646561 0.082490 0.896444
O O3 0.826256 0.091963 0.881977
O O4 0.750000 0.141550 0.000000
O O5 0.500000 0.750000 0.349688
O O6 0.651140 0.657624 0.315966
O O7 0.640631 0.750000 0.434395
O O8 0.500000 0.439716 0.697308
O O9 0.645996 0.510555 0.637530
O O10 0.639659 0.484080 0.774532
O O11 0.500000 0.938965 0.568051
O O12 0.348969 0.840067 0.554113
O O13 0.357241 0.000000 0.500000
O O14 0.500000 0.250000 0.482001
O O15 0.000000 0.521605 0.140494
#
# Coordination Sequence:
#
# PCOD9504091 Si02
#       6
#    16   8  16  16   8  16
#     4  10  23  43  65  91 123 157 196 242 292 355
#     4   9  14  22  38  64 100 141 186 241 294 336
#     4   9  17  27  43  72 108 144 187 240 293 345
#     4   9  14  22  35  57  95 141 187 234 287 341
#     4   9  14  20  34  54  89 143 188 233 291 342
#     4  10  21  38  62  92 125 160 197 243 299 356
#
# _framework density 20.180900999999999
#
# number of rings (size 3 to 8) (size 9 to 14) (size 15 to 20)
#    0.000    2.600    2.000    1.200    1.400    2.400 
#    1.800    2.000    0.000    0.000    0.000    2.800 
#    0.000    8.000    0.000    0.800    0.000    0.000 
#
# Total GULP energy -223460.758148 kJ/mol
# GULP energy per Si atom -5586.518954 kJ/mol
# Density = 2.013497 g / cm^3
# Si number density = 20.180901 Si / 1000 Ang^3
#
#
#
# Elastic Constant Matrix: (Units=GPa)
#
#
# Indices 1 2 3 4 5 6 
#
# 1 84.0716 12.7206 -0.4401 0.0000 0.0000 0.0000
# 2 12.7206 158.1422 49.0091 0.0000 0.0000 0.0000
# 3 -0.4401 49.0091 106.3380 0.0000 0.0000 0.0000
# 4 0.0000 0.0000 0.0000 13.8246 0.0000 0.0000
# 5 0.0000 0.0000 0.0000 0.0000 49.4079 0.0000
# 6 0.0000 0.0000 0.0000 0.0000 0.0000 2.3431
#
#
#
# Elastic Compliance Matrix: (Units=1/GPa)
#
#
# Indices 1 2 3 4 5 6 
#
# 1 0.012072 -0.001151 0.000580 0.000000 0.000000 0.000000
# 2 -0.001151 0.007487 -0.003455 0.000000 0.000000 0.000000
# 3 0.000580 -0.003455 0.010999 0.000000 0.000000 0.000000
# 4 0.000000 0.000000 0.000000 0.072335 0.000000 0.000000
# 5 0.000000 0.000000 0.000000 0.000000 0.020240 0.000000
# 6 0.000000 0.000000 0.000000 0.000000 0.000000 0.426794
#
#
# Mechanical properties :
#
#
# Convention : Reuss Voigt Hill
#
# Bulk Modulus (GPa) = 44.43286 52.34790 48.39038
# Shear Modulus (GPa) = 8.84206 32.26593 20.55399
#
# Velocity S-wave (km/s) = 2.09545 4.00288 3.19484
# Velocity P-wave (km/s) = 5.28390 6.88184 6.13512
#
# Compressibility (1/GPa) = 0.02250587
#
# Stress axis : x y z
#
# Youngs Moduli (GPa) = 82.83770 133.56822 90.91858
#
# Poissons Ratio (x) = 0.15372 -0.05277
# Poissons Ratio (y) = 0.09534 0.31415
# Poissons Ratio (z) = -0.04808 0.46152
#
# Static dielectric constant tensor:
#      x y z
#    x 1.768860 0.000000 0.000000 
#    y 0.000000 1.698520 0.000000 
#    z 0.000000 0.000000 1.682670 
# 
# From -- ./inp_files/34119.got.cif
#   From: 2010.05.17/outbox.cif.g08.bks.cpg/sg67_18_cif.got.tgz:34119.got - 2010.06.03 18:28:57.
