data_PCOD9504549
_publ_section_title
;
Structure prediction by ZEFSAII (Michael W. Deem and Ramdas Pophale) SiO2 
 PCOD9504549
Probable space group: C M M A
;
_chemical_formula_sum "Si O2"
_cell_formula_units_Z 60
_cell_length_a 10.279709
_cell_length_b 18.731974
_cell_length_c 15.610805
_cell_angle_alpha 90.000000
_cell_angle_beta 90.000000
_cell_angle_gamma 90.000000
_cell_volume 3006.004773
_symmetry_space_group_name_H-M "C M M A"
_symmetry_group_IT_number 67
_symmetry_cell_setting 'orthorhombic'
loop_
_space_group_symop_operation_xyz
x,y,z
-x,1/2-y,z
x,-y,-z
-x,1/2+y,-z
-x,-y,-z
x,1/2+y,-z
-x,y,z
x,1/2-y,z
1/2+x,1/2+y,z
1/2-x,-y,z
1/2+x,1/2-y,-z
1/2-x,y,-z
1/2-x,1/2-y,-z
1/2+x,y,-z
1/2-x,1/2+y,z
1/2+x,-y,z
loop_
_atom_site_type_symbol
_atom_site_label
_atom_site_fract_x
_atom_site_fract_y
_atom_site_fract_z
Si Si1 0.000000 0.834781 0.120775
Si Si2 0.000000 0.081388 0.050598
Si Si3 0.250000 0.000000 0.500000
Si Si4 0.647301 0.404335 0.349055
Si Si5 0.642334 0.250000 0.428054
Si Si6 0.259953 0.582765 0.175012
O O1 0.132372 0.870189 0.156535
O O2 0.000000 0.750000 0.133622
O O3 0.000000 0.860706 0.023528
O O4 0.879039 0.099662 0.112946
O O5 0.000000 0.000000 0.000000
O O6 0.329217 0.949170 0.564613
O O7 0.500000 0.422312 0.317703
O O8 0.651023 0.321014 0.371964
O O9 0.760105 0.416669 0.278745
O O10 0.500000 0.250000 0.470145
O O11 0.750000 0.250000 0.500000
O O12 0.250000 0.500000 0.152513
#
# Coordination Sequence:
#
# PCOD9504549 Si02
#       6
#     8   8   4  16   8  16
#     4  12  28  48  78 106 143 188 238 298 366 428
#     4  12  26  46  72 108 143 183 240 301 358 431
#     4  12  22  38  68  98 138 172 232 296 334 404
#     4  11  24  42  66 101 138 179 234 287 349 416
#     4  10  22  44  68  94 133 189 232 284 353 421
#     4  12  24  44  73 104 143 188 235 293 364 430
#
# _framework density 19.960046999999999
#
# number of rings (size 3 to 8) (size 9 to 14) (size 15 to 20)
#    0.000    0.533    6.667    1.200    1.867    2.133 
#    4.800    0.000    0.000    0.000    0.000    0.000 
#    0.000    0.000    0.000    0.000    0.000    0.000 
#
# Total GULP energy -167091.960955 kJ/mol
# GULP energy per Si atom -5569.732032 kJ/mol
# Density = 1.991462 g / cm^3
# Si number density = 19.960047 Si / 1000 Ang^3
#
#
#
# Elastic Constant Matrix: (Units=GPa)
#
#
# Indices 1 2 3 4 5 6 
#
# 1 104.3763 44.2487 53.4011 0.0000 0.0000 0.0000
# 2 44.2487 133.7171 17.1954 0.0000 0.0000 0.0000
# 3 53.4011 17.1954 122.2013 0.0000 0.0000 0.0000
# 4 0.0000 0.0000 0.0000 20.4022 0.0000 0.0000
# 5 0.0000 0.0000 0.0000 0.0000 46.8022 0.0000
# 6 0.0000 0.0000 0.0000 0.0000 0.0000 38.7794
#
#
#
# Elastic Compliance Matrix: (Units=1/GPa)
#
#
# Indices 1 2 3 4 5 6 
#
# 1 0.014132 -0.003954 -0.005619 0.000000 0.000000 0.000000
# 2 -0.003954 0.008722 0.000500 0.000000 0.000000 0.000000
# 3 -0.005619 0.000500 0.010568 0.000000 0.000000 0.000000
# 4 0.000000 0.000000 0.000000 0.049014 0.000000 0.000000
# 5 0.000000 0.000000 0.000000 0.000000 0.021367 0.000000
# 6 0.000000 0.000000 0.000000 0.000000 0.000000 0.025787
#
#
# Mechanical properties :
#
#
# Convention : Reuss Voigt Hill
#
# Bulk Modulus (GPa) = 65.45553 65.55388 65.50471
# Shear Modulus (GPa) = 32.71658 37.56006 35.13832
#
# Velocity S-wave (km/s) = 4.05298 4.34263 4.20030
# Velocity P-wave (km/s) = 7.40045 7.61961 7.51083
#
# Compressibility (1/GPa) = 0.01527755
#
# Stress axis : x y z
#
# Youngs Moduli (GPa) = 70.76283 114.64636 94.62244
#
# Poissons Ratio (x) = 0.45329 0.53169
# Poissons Ratio (y) = 0.27978 -0.04735
# Poissons Ratio (z) = 0.39762 -0.05737
#
# Static dielectric constant tensor:
#      x y z
#    x 1.591810 0.000000 0.000000 
#    y 0.000000 4.946680 0.000000 
#    z 0.000000 0.000000 1.764020 
# 
# From -- ./inp_files/25735.got.cif
#   From: 2010.05.17/outbox.cif.g08.bks.cpg/sg67_13_cif.got.tgz:25735.got - 2010.06.03 18:28:57.
