data_PCOD9504438
_publ_section_title
;
Structure prediction by ZEFSAII (Michael W. Deem and Ramdas Pophale) SiO2 
 PCOD9504438
Probable space group: C M M A
;
_chemical_formula_sum "Si O2"
_cell_formula_units_Z 96
_cell_length_a 18.165623
_cell_length_b 9.109407
_cell_length_c 31.911677
_cell_angle_alpha 90.000000
_cell_angle_beta 90.000000
_cell_angle_gamma 90.000000
_cell_volume 5280.682188
_symmetry_space_group_name_H-M "C M M A"
_symmetry_group_IT_number 67
_symmetry_cell_setting 'orthorhombic'
loop_
_space_group_symop_operation_xyz
x,y,z
-x,1/2-y,z
x,-y,-z
-x,1/2+y,-z
-x,-y,-z
x,1/2+y,-z
-x,y,z
x,1/2-y,z
1/2+x,1/2+y,z
1/2-x,-y,z
1/2+x,1/2-y,-z
1/2-x,y,-z
1/2-x,1/2-y,-z
1/2+x,y,-z
1/2-x,1/2+y,z
1/2+x,-y,z
loop_
_atom_site_type_symbol
_atom_site_label
_atom_site_fract_x
_atom_site_fract_y
_atom_site_fract_z
Si Si1 0.669833 0.073937 0.957094
Si Si2 0.912621 0.426682 0.280613
Si Si3 0.828842 0.924818 0.204047
Si Si4 0.087572 0.421071 0.882785
Si Si5 0.910109 0.918604 0.457827
Si Si6 0.910352 0.419930 0.374004
O O1 0.675780 0.250000 0.961113
O O2 0.750000 0.000000 0.950576
O O3 0.620275 0.026349 0.918110
O O4 0.640830 0.000000 0.000000
O O5 0.903332 0.250000 0.277674
O O6 0.869044 0.507433 0.244293
O O7 0.888170 0.471938 0.327615
O O8 0.000000 0.456588 0.276554
O O9 0.820873 0.750000 0.208953
O O10 0.876261 0.952212 0.162181
O O11 0.750000 0.000000 0.199050
O O12 0.104727 0.250000 0.893512
O O13 0.000000 0.435720 0.880017
O O14 0.888418 0.750000 0.459561
O O15 0.000000 0.925022 0.457527
O O16 0.885778 0.000000 0.500000
O O17 0.884943 0.990957 0.414389
O O18 0.889020 0.250000 0.378674
O O19 0.000000 0.423480 0.373760
#
# Coordination Sequence:
#
# PCOD9504438 Si02
#       6
#    16  16  16  16  16  16
#     4  11  22  38  61  87 116 151 189 227 269 316
#     4   9  18  33  53  76 103 135 171 214 264 317
#     4  11  23  38  57  80 107 140 177 219 266 316
#     4  10  22  40  60  84 114 145 180 224 271 318
#     4   9  15  21  31  50  79 117 159 201 245 296
#     4   8  14  25  40  59  86 121 159 200 249 303
#
# _framework density 18.179469999999998
#
# number of rings (size 3 to 8) (size 9 to 14) (size 15 to 20)
#    0.000    2.333    0.000    5.000    0.000    7.000 
#    0.000    1.667    0.000    0.000    0.000    0.000 
#    0.000    0.667    0.000    7.000    0.000    9.667 
#
# Total GULP energy -267834.507249 kJ/mol
# GULP energy per Si atom -5579.885568 kJ/mol
# Density = 1.813809 g / cm^3
# Si number density = 18.179470 Si / 1000 Ang^3
#
#
#
# Elastic Constant Matrix: (Units=GPa)
#
#
# Indices 1 2 3 4 5 6 
#
# 1 39.6989 42.4442 50.2580 0.0000 0.0000 0.0000
# 2 42.4442 120.0986 102.0509 0.0000 0.0000 0.0000
# 3 50.2580 102.0509 170.6195 0.0000 0.0000 0.0000
# 4 0.0000 0.0000 0.0000 36.1023 0.0000 0.0000
# 5 0.0000 0.0000 0.0000 0.0000 -96.1773 0.0000
# 6 0.0000 0.0000 0.0000 0.0000 0.0000 18.7531
#
#
#
# Elastic Compliance Matrix: (Units=1/GPa)
#
#
# Indices 1 2 3 4 5 6 
#
# 1 0.044847 -0.009404 -0.007586 0.000000 0.000000 0.000000
# 2 -0.009404 0.018904 -0.008537 0.000000 0.000000 0.000000
# 3 -0.007586 -0.008537 0.013201 0.000000 0.000000 0.000000
# 4 0.000000 0.000000 0.000000 0.027699 0.000000 0.000000
# 5 0.000000 0.000000 0.000000 0.000000 -0.010397 0.000000
# 6 0.000000 0.000000 0.000000 0.000000 0.000000 0.053325
#
#
# Mechanical properties :
#
#
# Convention : Reuss Voigt Hill
#
# Bulk Modulus (GPa) = 38.61021 79.99146 59.30084
# Shear Modulus (GPa) = 24.12389 0.77988 12.45189
#
# Velocity S-wave (km/s) = 3.64673 0.65568 2.61998
# Velocity P-wave (km/s) = 6.24628 6.68354 6.46861
#
# Compressibility (1/GPa) = 0.02589989
#
# Stress axis : x y z
#
# Youngs Moduli (GPa) = 22.29817 52.89959 75.74930
#
# Poissons Ratio (x) = 0.49745 0.57461
# Poissons Ratio (y) = 0.20968 0.64665
# Poissons Ratio (z) = 0.16915 0.45159
#
# Static dielectric constant tensor:
#      x y z
#    x 1.608250 0.000000 0.000000 
#    y 0.000000 1.610460 0.000000 
#    z 0.000000 0.000000 1.622310 
# 
# From -- ./inp_files/44618.got.cif
#   From: 2010.05.17/outbox.cif.g08.bks.cpg/sg67_23_cif.got.tgz:44618.got - 2010.06.03 18:28:57.
