data_PCOD9504803
_publ_section_title
;
Structure prediction by ZEFSAII (Michael W. Deem and Ramdas Pophale) SiO2 
 PCOD9504803
Probable space group: C M M A
;
_chemical_formula_sum "Si O2"
_cell_formula_units_Z 96
_cell_length_a 23.660225
_cell_length_b 16.652221
_cell_length_c 13.790785
_cell_angle_alpha 90.000000
_cell_angle_beta 90.000000
_cell_angle_gamma 90.000000
_cell_volume 5433.504413
_symmetry_space_group_name_H-M "C M M A"
_symmetry_group_IT_number 67
_symmetry_cell_setting 'orthorhombic'
loop_
_space_group_symop_operation_xyz
x,y,z
-x,1/2-y,z
x,-y,-z
-x,1/2+y,-z
-x,-y,-z
x,1/2+y,-z
-x,y,z
x,1/2-y,z
1/2+x,1/2+y,z
1/2-x,-y,z
1/2+x,1/2-y,-z
1/2-x,y,-z
1/2-x,1/2-y,-z
1/2+x,y,-z
1/2-x,1/2+y,z
1/2+x,-y,z
loop_
_atom_site_type_symbol
_atom_site_label
_atom_site_fract_x
_atom_site_fract_y
_atom_site_fract_z
Si Si1 0.627238 0.655117 0.085510
Si Si2 0.370583 0.108414 0.137771
Si Si3 0.568375 0.921453 0.440518
Si Si4 0.932610 0.250000 0.753525
Si Si5 0.568823 0.250000 0.473053
Si Si6 0.434325 0.045166 0.783654
Si Si7 0.246551 0.903559 0.886518
O O1 0.626513 0.750000 0.071539
O O2 0.576196 0.622690 0.150013
O O3 0.685359 0.629828 0.140654
O O4 0.625048 0.614632 0.979015
O O5 0.408519 0.173543 0.190784
O O6 0.304607 0.124940 0.161740
O O7 0.393369 0.022978 0.173496
O O8 0.500000 0.920249 0.451083
O O9 0.588201 0.834099 0.478510
O O10 0.580180 0.935136 0.327355
O O11 0.588674 0.000000 0.500000
O O12 0.915941 0.250000 0.640490
O O13 0.000000 0.250000 0.757270
O O14 0.500000 0.250000 0.478982
O O15 0.500000 0.019343 0.787768
O O16 0.250000 0.000000 0.880985
O O17 0.250000 0.880349 0.000000
#
# Coordination Sequence:
#
# PCOD9504803 Si02
#       7
#    16  16  16   8   8  16  16
#     4  11  23  37  54  83 116 152 190 230 272 321
#     4  11  21  37  56  81 112 152 187 228 273 324
#     4   9  18  34  55  78 104 141 186 235 280 324
#     4  11  22  34  54  87 119 145 180 224 280 353
#     4   9  18  34  55  77 109 143 183 236 281 323
#     4  11  23  36  55  81 116 151 185 222 279 350
#     4   9  18  35  58  76 101 141 194 241 265 298
#
# _framework density 17.668154000000001
#
# number of rings (size 3 to 8) (size 9 to 14) (size 15 to 20)
#    0.000    1.833    2.500    2.000    2.333    6.000 
#    0.000    0.000    0.000    0.000    0.000    9.333 
#    0.000    0.000    0.000    0.000    0.000    0.000 
#
# Total GULP energy -267606.701480 kJ/mol
# GULP energy per Si atom -5575.139614 kJ/mol
# Density = 1.762794 g / cm^3
# Si number density = 17.668154 Si / 1000 Ang^3
#
#
#
# Elastic Constant Matrix: (Units=GPa)
#
#
# Indices 1 2 3 4 5 6 
#
# 1 63.4283 33.6786 41.6731 0.0000 0.0000 0.0000
# 2 33.6786 83.3285 45.6215 0.0000 0.0000 0.0000
# 3 41.6731 45.6215 98.9702 0.0000 0.0000 0.0000
# 4 0.0000 0.0000 0.0000 29.7824 0.0000 0.0000
# 5 0.0000 0.0000 0.0000 0.0000 -5.4954 0.0000
# 6 0.0000 0.0000 0.0000 0.0000 0.0000 19.1377
#
#
#
# Elastic Compliance Matrix: (Units=1/GPa)
#
#
# Indices 1 2 3 4 5 6 
#
# 1 0.023518 -0.005462 -0.007385 0.000000 0.000000 0.000000
# 2 -0.005462 0.017320 -0.005684 0.000000 0.000000 0.000000
# 3 -0.007385 -0.005684 0.015834 0.000000 0.000000 0.000000
# 4 0.000000 0.000000 0.000000 0.033577 0.000000 0.000000
# 5 0.000000 0.000000 0.000000 0.000000 -0.181969 0.000000
# 6 0.000000 0.000000 0.000000 0.000000 0.000000 0.052253
#
#
# Mechanical properties :
#
#
# Convention : Reuss Voigt Hill
#
# Bulk Modulus (GPa) = 50.99451 54.18595 52.59023
# Shear Modulus (GPa) = 1210.32638 17.00184 613.66411
#
# Velocity S-wave (km/s) = 26.20152 3.10544 18.65695
# Velocity P-wave (km/s) = 30.72922 6.60255 22.22474
#
# Compressibility (1/GPa) = 0.01960995
#
# Stress axis : x y z
#
# Youngs Moduli (GPa) = 42.52070 57.73581 63.15631
#
# Poissons Ratio (x) = 0.31536 0.46640
# Poissons Ratio (y) = 0.23225 0.35899
# Poissons Ratio (z) = 0.31401 0.32818
#
# Static dielectric constant tensor:
#      x y z
#    x 1.627200 0.000000 0.000000 
#    y 0.000000 1.710570 0.000000 
#    z 0.000000 0.000000 1.574690 
# 
# From -- ./inp_files/21999.got.cif
#   From: 2010.05.17/outbox.cif.g08.bks.cpg/sg67_11_cif.got.tgz:21999.got - 2010.06.03 18:28:57.
