data_PCOD9504510
_publ_section_title
;
Structure prediction by ZEFSAII (Michael W. Deem and Ramdas Pophale) SiO2 
 PCOD9504510
Probable space group: C M M A
;
_chemical_formula_sum "Si O2"
_cell_formula_units_Z 44
_cell_length_a 23.781684
_cell_length_b 14.033987
_cell_length_c 5.761348
_cell_angle_alpha 90.000000
_cell_angle_beta 90.000000
_cell_angle_gamma 90.000000
_cell_volume 1922.860519
_symmetry_space_group_name_H-M "C M M A"
_symmetry_group_IT_number 67
_symmetry_cell_setting 'orthorhombic'
loop_
_space_group_symop_operation_xyz
x,y,z
-x,1/2-y,z
x,-y,-z
-x,1/2+y,-z
-x,-y,-z
x,1/2+y,-z
-x,y,z
x,1/2-y,z
1/2+x,1/2+y,z
1/2-x,-y,z
1/2+x,1/2-y,-z
1/2-x,y,-z
1/2-x,1/2-y,-z
1/2+x,y,-z
1/2-x,1/2+y,z
1/2+x,-y,z
loop_
_atom_site_type_symbol
_atom_site_label
_atom_site_fract_x
_atom_site_fract_y
_atom_site_fract_z
Si Si1 0.914674 0.250000 0.790182
Si Si2 0.000000 0.750000 0.588700
Si Si3 0.500000 0.889661 0.016804
Si Si4 0.811702 0.250000 0.103632
Si Si5 0.684733 0.963088 0.252240
O O1 0.939407 0.250000 0.535101
O O2 0.946035 0.158573 0.899078
O O3 0.852225 0.250000 0.879009
O O4 0.000000 0.652604 0.728490
O O5 0.500000 0.000000 0.000000
O O6 0.819069 0.151648 0.243612
O O7 0.750000 0.250000 0.000000
O O8 0.660432 0.000000 0.500000
O O9 0.750000 0.000000 0.252667
O O10 0.662096 0.000000 0.000000
#
# Coordination Sequence:
#
# PCOD9504510 Si02
#       5
#     8   4   8   8  16
#     4   9  22  39  68 104 137 179 244 286 367 444
#     4   8  18  44  68 110 142 172 244 310 362 452
#     4   9  19  43  72  96 140 177 234 304 362 431
#     4  12  23  44  72  99 151 199 233 313 373 440
#     4  10  22  42  63  94 133 188 254 293 349 439
#
# _framework density 22.882574999999999
#
# number of rings (size 3 to 8) (size 9 to 14) (size 15 to 20)
#    0.000    2.545    3.636    0.000    0.000    8.727 
#   13.091    0.000    0.000    0.000    0.000    0.000 
#    0.000    0.000    0.000    0.000    0.000    0.000 
#
# Total GULP energy -122763.408701 kJ/mol
# GULP energy per Si atom -5580.154941 kJ/mol
# Density = 2.283049 g / cm^3
# Si number density = 22.882575 Si / 1000 Ang^3
#
#
#
# Elastic Constant Matrix: (Units=GPa)
#
#
# Indices 1 2 3 4 5 6 
#
# 1 88.5568 26.7093 21.8465 0.0000 0.0000 0.0000
# 2 26.7093 258.1141 86.9987 0.0000 0.0000 0.0000
# 3 21.8465 86.9987 166.8039 0.0000 0.0000 0.0000
# 4 0.0000 0.0000 0.0000 6247.2032 0.0000 0.0000
# 5 0.0000 0.0000 0.0000 0.0000 9.4609 0.0000
# 6 0.0000 0.0000 0.0000 0.0000 0.0000 2.0448
#
#
#
# Elastic Compliance Matrix: (Units=1/GPa)
#
#
# Indices 1 2 3 4 5 6 
#
# 1 0.011821 -0.000851 -0.001104 0.000000 0.000000 0.000000
# 2 -0.000851 0.004762 -0.002372 0.000000 0.000000 0.000000
# 3 -0.001104 -0.002372 0.007377 0.000000 0.000000 0.000000
# 4 0.000000 0.000000 0.000000 0.000160 0.000000 0.000000
# 5 0.000000 0.000000 0.000000 0.000000 0.105698 0.000000
# 6 0.000000 0.000000 0.000000 0.000000 0.000000 0.489041
#
#
# Mechanical properties :
#
#
# Convention : Reuss Voigt Hill
#
# Bulk Modulus (GPa) = 65.33817 87.17597 76.25707
# Shear Modulus (GPa) = 7.90369 1276.93647 642.42008
#
# Velocity S-wave (km/s) = 1.86052 23.64847 16.77367
# Velocity P-wave (km/s) = 5.76464 27.99726 20.21235
#
# Compressibility (1/GPa) = 0.01530499
#
# Stress axis : x y z
#
# Youngs Moduli (GPa) = 84.59303 210.00177 135.55764
#
# Poissons Ratio (x) = 0.17871 0.14971
# Poissons Ratio (y) = 0.07199 0.32156
# Poissons Ratio (z) = 0.09342 0.49816
#
# Static dielectric constant tensor:
#      x y z
#    x 1.817330 0.000000 0.000000 
#    y 0.000000 1.822590 0.000000 
#    z 0.000000 0.000000 1.946550 
# 
# From -- ./inp_files/1210.got.cif
#   From: 2010.05.17/outbox.cif.g08.bks.cpg/sg67_1_cif.got.tgz:1210.got - 2010.06.03 18:28:57.
