data_PCOD9504771
_publ_section_title
;
Structure prediction by ZEFSAII (Michael W. Deem and Ramdas Pophale) SiO2 
 PCOD9504771
Probable space group: C M M A
;
_chemical_formula_sum "Si O2"
_cell_formula_units_Z 80
_cell_length_a 13.937212
_cell_length_b 21.554523
_cell_length_c 12.438530
_cell_angle_alpha 90.000000
_cell_angle_beta 90.000000
_cell_angle_gamma 90.000000
_cell_volume 3736.658258
_symmetry_space_group_name_H-M "C M M A"
_symmetry_group_IT_number 67
_symmetry_cell_setting 'orthorhombic'
loop_
_space_group_symop_operation_xyz
x,y,z
-x,1/2-y,z
x,-y,-z
-x,1/2+y,-z
-x,-y,-z
x,1/2+y,-z
-x,y,z
x,1/2-y,z
1/2+x,1/2+y,z
1/2-x,-y,z
1/2+x,1/2-y,-z
1/2-x,y,-z
1/2-x,1/2-y,-z
1/2+x,y,-z
1/2-x,1/2+y,z
1/2+x,-y,z
loop_
_atom_site_type_symbol
_atom_site_label
_atom_site_fract_x
_atom_site_fract_y
_atom_site_fract_z
Si Si1 0.656065 0.546735 0.576854
Si Si2 0.266206 0.896261 0.117576
Si Si3 0.885630 0.987311 0.186328
Si Si4 0.889328 0.676649 0.710898
Si Si5 0.885680 0.681579 0.463809
O O1 0.597872 0.500000 0.500000
O O2 0.750000 0.555644 0.500000
O O3 0.650106 0.510698 0.689808
O O4 0.628988 0.617813 0.599615
O O5 0.162600 0.923908 0.147078
O O6 0.315488 0.853459 0.206592
O O7 0.337379 0.956419 0.120158
O O8 0.250000 0.868249 0.000000
O O9 0.000000 0.988730 0.180872
O O10 0.894204 0.750000 0.729840
O O11 0.855343 0.669072 0.587549
O O12 0.000000 0.651983 0.721179
O O13 0.848900 0.750000 0.428126
O O14 0.000000 0.687813 0.470960
#
# Coordination Sequence:
#
# PCOD9504771 Si02
#       5
#    16  16  16  16  16
#     4  11  21  34  55  83 117 152 193 242 294 359
#     4  11  23  39  60  82 111 152 198 257 316 364
#     4  11  23  38  57  84 116 151 195 247 305 367
#     4   9  18  35  61  90 118 151 196 248 298 358
#     4   9  18  33  54  82 115 151 190 230 282 353
#
# _framework density 21.409504999999999
#
# number of rings (size 3 to 8) (size 9 to 14) (size 15 to 20)
#    0.000    1.800    0.000    8.400    0.000    6.400 
#    0.000    1.000    0.000    1.800    0.000    0.000 
#    0.000    0.000    0.000    0.000    0.000    0.000 
#
# Total GULP energy -222783.329982 kJ/mol
# GULP energy per Si atom -5569.583250 kJ/mol
# Density = 2.136078 g / cm^3
# Si number density = 21.409505 Si / 1000 Ang^3
#
#
#
# Elastic Constant Matrix: (Units=GPa)
#
#
# Indices 1 2 3 4 5 6 
#
# 1 120.8448 17.8327 -1.9242 0.0000 0.0000 0.0000
# 2 17.8327 90.4067 0.7850 0.0000 0.0000 0.0000
# 3 -1.9242 0.7850 46.9959 0.0000 0.0000 0.0000
# 4 0.0000 0.0000 0.0000 20.3291 0.0000 0.0000
# 5 0.0000 0.0000 0.0000 0.0000 36.6322 0.0000
# 6 0.0000 0.0000 0.0000 0.0000 0.0000 38.4479
#
#
#
# Elastic Compliance Matrix: (Units=1/GPa)
#
#
# Indices 1 2 3 4 5 6 
#
# 1 0.008530 -0.001686 0.000377 0.000000 0.000000 0.000000
# 2 -0.001686 0.011396 -0.000259 0.000000 0.000000 0.000000
# 3 0.000377 -0.000259 0.021298 0.000000 0.000000 0.000000
# 4 0.000000 0.000000 0.000000 0.049191 0.000000 0.000000
# 5 0.000000 0.000000 0.000000 0.000000 0.027298 0.000000
# 6 0.000000 0.000000 0.000000 0.000000 0.000000 0.026009
#
#
# Mechanical properties :
#
#
# Convention : Reuss Voigt Hill
#
# Bulk Modulus (GPa) = 26.25464 32.40380 29.32922
# Shear Modulus (GPa) = 31.33739 35.18544 33.26142
#
# Velocity S-wave (km/s) = 3.83000 4.05835 3.94583
# Velocity P-wave (km/s) = 5.64343 6.09330 5.87267
#
# Compressibility (1/GPa) = 0.03808850
#
# Stress axis : x y z
#
# Youngs Moduli (GPa) = 117.23528 87.75087 46.95222
#
# Poissons Ratio (x) = 0.14793 -0.01772
# Poissons Ratio (y) = 0.19763 0.01218
# Poissons Ratio (z) = -0.04424 0.02276
#
# Static dielectric constant tensor:
#      x y z
#    x 1.888360 0.000000 0.000000 
#    y 0.000000 1.852070 0.000000 
#    z 0.000000 0.000000 1.803980 
# 
# From -- ./inp_files/17911.got.cif
#   From: 2010.05.17/outbox.cif.g08.bks.cpg/sg67_9_cif.got.tgz:17911.got - 2010.06.03 18:28:57.
