data_PCOD9504653
_publ_section_title
;
Structure prediction by ZEFSAII (Michael W. Deem and Ramdas Pophale) SiO2 
 PCOD9504653
Probable space group: C M M A
;
_chemical_formula_sum "Si O2"
_cell_formula_units_Z 56
_cell_length_a 15.329598
_cell_length_b 7.687097
_cell_length_c 24.245692
_cell_angle_alpha 90.000000
_cell_angle_beta 90.000000
_cell_angle_gamma 90.000000
_cell_volume 2857.114935
_symmetry_space_group_name_H-M "C M M A"
_symmetry_group_IT_number 67
_symmetry_cell_setting 'orthorhombic'
loop_
_space_group_symop_operation_xyz
x,y,z
-x,1/2-y,z
x,-y,-z
-x,1/2+y,-z
-x,-y,-z
x,1/2+y,-z
-x,y,z
x,1/2-y,z
1/2+x,1/2+y,z
1/2-x,-y,z
1/2+x,1/2-y,-z
1/2-x,y,-z
1/2-x,1/2-y,-z
1/2+x,y,-z
1/2-x,1/2+y,z
1/2+x,-y,z
loop_
_atom_site_type_symbol
_atom_site_label
_atom_site_fract_x
_atom_site_fract_y
_atom_site_fract_z
Si Si1 0.606642 0.945530 0.438340
Si Si2 0.106866 0.750000 0.357464
Si Si3 0.500000 0.042747 0.935880
Si Si4 0.604970 0.250000 0.231074
Si Si5 0.652759 0.542034 0.145241
O O1 0.500000 0.947190 0.438690
O O2 0.635394 0.750000 0.426688
O O3 0.633633 0.000000 0.500000
O O4 0.634814 0.082218 0.392429
O O5 0.135669 0.750000 0.294267
O O6 0.000000 0.750000 0.356849
O O7 0.500000 0.250000 0.932503
O O8 0.415649 0.984776 0.901554
O O9 0.500000 0.000000 0.000000
O O10 0.500000 0.250000 0.230451
O O11 0.635768 0.421938 0.198506
O O12 0.643507 0.750000 0.155974
O O13 0.750000 0.500000 0.126077
#
# Coordination Sequence:
#
# PCOD9504653 Si02
#       5
#    16   8   8   8  16
#     4   9  14  22  38  61  99 143 184 235 292 363
#     4   9  18  28  42  74 101 150 199 228 310 369
#     4  10  24  40  64  98 130 162 206 254 305 367
#     4  11  22  38  62  82 126 165 200 268 314 370
#     4  11  23  41  64  92 122 168 213 252 312 368
#
# _framework density 19.600190999999999
#
# number of rings (size 3 to 8) (size 9 to 14) (size 15 to 20)
#    0.000    2.000    4.286    0.000    2.000    1.714 
#    0.000    5.714    0.000    0.000    0.000    0.000 
#    0.000    3.429    0.000    0.000    0.000    0.000 
#
# Total GULP energy -156333.952915 kJ/mol
# GULP energy per Si atom -5583.355461 kJ/mol
# Density = 1.955558 g / cm^3
# Si number density = 19.600191 Si / 1000 Ang^3
#
#
#
# Elastic Constant Matrix: (Units=GPa)
#
#
# Indices 1 2 3 4 5 6 
#
# 1 89.5934 28.1063 55.1598 0.0000 0.0000 0.0000
# 2 28.1063 161.4718 93.9871 0.0000 0.0000 0.0000
# 3 55.1598 93.9871 204.0737 0.0000 0.0000 0.0000
# 4 0.0000 0.0000 0.0000 35.4028 0.0000 0.0000
# 5 0.0000 0.0000 0.0000 0.0000 -9.9349 0.0000
# 6 0.0000 0.0000 0.0000 0.0000 0.0000 12.8726
#
#
#
# Elastic Compliance Matrix: (Units=1/GPa)
#
#
# Indices 1 2 3 4 5 6 
#
# 1 0.013401 -0.000306 -0.003481 0.000000 0.000000 0.000000
# 2 -0.000306 0.008468 -0.003817 0.000000 0.000000 0.000000
# 3 -0.003481 -0.003817 0.007599 0.000000 0.000000 0.000000
# 4 0.000000 0.000000 0.000000 0.028246 0.000000 0.000000
# 5 0.000000 0.000000 0.000000 0.000000 -0.100655 0.000000
# 6 0.000000 0.000000 0.000000 0.000000 0.000000 0.077685
#
#
# Mechanical properties :
#
#
# Convention : Reuss Voigt Hill
#
# Bulk Modulus (GPa) = 70.13207 89.96057 80.04632
# Shear Modulus (GPa) = 91.39615 26.19379 58.79497
#
# Velocity S-wave (km/s) = 6.83604 3.65965 5.48291
# Velocity P-wave (km/s) = 9.90796 7.99092 9.00062
#
# Compressibility (1/GPa) = 0.01425881
#
# Stress axis : x y z
#
# Youngs Moduli (GPa) = 74.62230 118.08777 131.59341
#
# Poissons Ratio (x) = 0.03618 0.45808
# Poissons Ratio (y) = 0.02286 0.50233
# Poissons Ratio (z) = 0.25976 0.45078
#
# Static dielectric constant tensor:
#      x y z
#    x 1.732620 0.000000 0.000000 
#    y 0.000000 1.686810 0.000000 
#    z 0.000000 0.000000 1.656390 
# 
# From -- ./inp_files/38222.got.cif
#   From: 2010.05.17/outbox.cif.g08.bks.cpg/sg67_20_cif.got.tgz:38222.got - 2010.06.03 18:28:57.
