data_PCOD9504928
_publ_section_title
;
Structure prediction by ZEFSAII (Michael W. Deem and Ramdas Pophale) SiO2 
 PCOD9504928
Probable space group: C M M A
;
_chemical_formula_sum "Si O2"
_cell_formula_units_Z 64
_cell_length_a 15.761155
_cell_length_b 10.826850
_cell_length_c 18.787958
_cell_angle_alpha 90.000000
_cell_angle_beta 90.000000
_cell_angle_gamma 90.000000
_cell_volume 3206.045936
_symmetry_space_group_name_H-M "C M M A"
_symmetry_group_IT_number 67
_symmetry_cell_setting 'orthorhombic'
loop_
_space_group_symop_operation_xyz
x,y,z
-x,1/2-y,z
x,-y,-z
-x,1/2+y,-z
-x,-y,-z
x,1/2+y,-z
-x,y,z
x,1/2-y,z
1/2+x,1/2+y,z
1/2-x,-y,z
1/2+x,1/2-y,-z
1/2-x,y,-z
1/2-x,1/2-y,-z
1/2+x,y,-z
1/2-x,1/2+y,z
1/2+x,-y,z
loop_
_atom_site_type_symbol
_atom_site_label
_atom_site_fract_x
_atom_site_fract_y
_atom_site_fract_z
Si Si1 0.900225 0.499052 0.339745
Si Si2 0.159785 0.250000 0.414491
Si Si3 0.899396 0.894559 0.192511
Si Si4 0.656315 0.115045 0.036376
Si Si5 0.861617 0.750000 0.425198
O O1 0.861405 0.376921 0.374091
O O2 0.868954 0.526912 0.259733
O O3 0.889284 0.623999 0.386111
O O4 0.000000 0.476610 0.333823
O O5 0.114122 0.250000 0.491538
O O6 0.260248 0.250000 0.424045
O O7 0.894952 0.750000 0.213286
O O8 0.845619 0.909320 0.120663
O O9 0.000000 0.920029 0.178032
O O10 0.616716 0.250000 0.025874
O O11 0.750000 0.121136 0.000000
O O12 0.611203 0.000000 0.000000
#
# Coordination Sequence:
#
# PCOD9504928 Si02
#       5
#    16   8  16  16   8
#     4  11  22  40  64  93 122 161 214 256 301 366
#     4  11  25  41  59  93 131 158 199 268 318 347
#     4   9  18  36  60  83 116 158 198 240 296 367
#     4   9  18  35  54  80 111 144 186 240 286 352
#     4  11  23  43  63  85 125 172 207 242 312 385
#
# _framework density 19.962284
#
# number of rings (size 3 to 8) (size 9 to 14) (size 15 to 20)
#    0.000    2.000    1.250    2.250    0.000    5.500 
#   11.250    0.000    0.000    0.000    0.000    0.000 
#    0.000    0.000    0.000    0.000    0.000    0.000 
#
# Total GULP energy -178455.045965 kJ/mol
# GULP energy per Si atom -5576.720186 kJ/mol
# Density = 1.991685 g / cm^3
# Si number density = 19.962284 Si / 1000 Ang^3
#
#
#
# Elastic Constant Matrix: (Units=GPa)
#
#
# Indices 1 2 3 4 5 6 
#
# 1 46.0600 8.6879 29.8125 0.0000 0.0000 0.0000
# 2 8.6879 164.6810 86.6808 0.0000 0.0000 0.0000
# 3 29.8125 86.6808 169.1783 0.0000 0.0000 0.0000
# 4 0.0000 0.0000 0.0000 58.6862 0.0000 0.0000
# 5 0.0000 0.0000 0.0000 0.0000 31.9709 0.0000
# 6 0.0000 0.0000 0.0000 0.0000 0.0000 130.4760
#
#
#
# Elastic Compliance Matrix: (Units=1/GPa)
#
#
# Indices 1 2 3 4 5 6 
#
# 1 0.024725 0.001354 -0.005051 0.000000 0.000000 0.000000
# 2 0.001354 0.008389 -0.004537 0.000000 0.000000 0.000000
# 3 -0.005051 -0.004537 0.009125 0.000000 0.000000 0.000000
# 4 0.000000 0.000000 0.000000 0.017040 0.000000 0.000000
# 5 0.000000 0.000000 0.000000 0.000000 0.031278 0.000000
# 6 0.000000 0.000000 0.000000 0.000000 0.000000 0.007664
#
#
# Mechanical properties :
#
#
# Convention : Reuss Voigt Hill
#
# Bulk Modulus (GPa) = 38.80173 70.03128 54.41650
# Shear Modulus (GPa) = 40.55850 61.20917 50.88383
#
# Velocity S-wave (km/s) = 4.51239 5.54337 5.05424
# Velocity P-wave (km/s) = 6.82851 8.72525 7.83449
#
# Compressibility (1/GPa) = 0.02577205
#
# Stress axis : x y z
#
# Youngs Moduli (GPa) = 40.44567 119.20564 109.58379
#
# Poissons Ratio (x) = -0.16142 0.55348
# Poissons Ratio (y) = -0.05477 0.49716
# Poissons Ratio (z) = 0.20428 0.54081
#
# Static dielectric constant tensor:
#      x y z
#    x 1.722780 0.000000 0.000000 
#    y 0.000000 1.787300 0.000000 
#    z 0.000000 0.000000 1.731630 
# 
# From -- ./inp_files/32706.got.cif
#   From: 2010.05.17/outbox.cif.g08.bks.cpg/sg67_17_cif.got.tgz:32706.got - 2010.06.03 18:28:57.
