data_PCOD9504704
_publ_section_title
;
Structure prediction by ZEFSAII (Michael W. Deem and Ramdas Pophale) SiO2 
 PCOD9504704
Probable space group: C M M A
;
_chemical_formula_sum "Si O2"
_cell_formula_units_Z 28
_cell_length_a 9.979812
_cell_length_b 23.646087
_cell_length_c 5.297041
_cell_angle_alpha 90.000000
_cell_angle_beta 90.000000
_cell_angle_gamma 90.000000
_cell_volume 1250.014290
_symmetry_space_group_name_H-M "C M M A"
_symmetry_group_IT_number 67
_symmetry_cell_setting 'orthorhombic'
loop_
_space_group_symop_operation_xyz
x,y,z
-x,1/2-y,z
x,-y,-z
-x,1/2+y,-z
-x,-y,-z
x,1/2+y,-z
-x,y,z
x,1/2-y,z
1/2+x,1/2+y,z
1/2-x,-y,z
1/2+x,1/2-y,-z
1/2-x,y,-z
1/2-x,1/2-y,-z
1/2+x,y,-z
1/2-x,1/2+y,z
1/2+x,-y,z
loop_
_atom_site_type_symbol
_atom_site_label
_atom_site_fract_x
_atom_site_fract_y
_atom_site_fract_z
Si Si1 0.250000 0.500000 0.000000
Si Si2 0.860949 0.250000 0.799014
Si Si3 0.000000 0.648792 0.385016
Si Si4 0.500000 0.925447 0.124517
O O1 0.360412 0.461164 0.855011
O O2 0.876835 0.307267 0.642787
O O3 0.000000 0.250000 0.956593
O O4 0.750000 0.250000 0.000000
O O5 0.000000 0.618053 0.648222
O O6 0.000000 0.605286 0.149406
#
# Coordination Sequence:
#
# PCOD9504704 Si02
#       4
#     4   8   8   8
#     4  10  28  44  76  98 148 180 272 284 368 410
#     4   8  20  42  70 112 139 184 226 292 346 464
#     4   9  24  41  78  97 151 175 241 278 384 412
#     4  11  24  49  68 107 133 201 226 318 343 432
#
# _framework density 22.399746
#
# number of rings (size 3 to 8) (size 9 to 14) (size 15 to 20)
#    1.714    0.571    0.000    0.000    4.000   13.714 
#    0.000    2.857    6.286    0.000    0.000    0.000 
#    0.000    0.000    0.000    0.000    0.000    0.000 
#
# Total GULP energy -77948.975179 kJ/mol
# GULP energy per Si atom -5567.783941 kJ/mol
# Density = 2.234876 g / cm^3
# Si number density = 22.399746 Si / 1000 Ang^3
#
#
#
# Elastic Constant Matrix: (Units=GPa)
#
#
# Indices 1 2 3 4 5 6 
#
# 1 208.8746 62.6144 52.1571 0.0000 0.0000 0.0000
# 2 62.6144 125.3936 46.3284 0.0000 0.0000 0.0000
# 3 52.1571 46.3284 87.2213 0.0000 0.0000 0.0000
# 4 0.0000 0.0000 0.0000 43.6606 0.0000 0.0000
# 5 0.0000 0.0000 0.0000 0.0000 28.3860 0.0000
# 6 0.0000 0.0000 0.0000 0.0000 0.0000 -82.4738
#
#
#
# Elastic Compliance Matrix: (Units=1/GPa)
#
#
# Indices 1 2 3 4 5 6 
#
# 1 0.006039 -0.002092 -0.002500 0.000000 0.000000 0.000000
# 2 -0.002092 0.010647 -0.004404 0.000000 0.000000 0.000000
# 3 -0.002500 -0.004404 0.015299 0.000000 0.000000 0.000000
# 4 0.000000 0.000000 0.000000 0.022904 0.000000 0.000000
# 5 0.000000 0.000000 0.000000 0.000000 0.035229 0.000000
# 6 0.000000 0.000000 0.000000 0.000000 0.000000 -0.012125
#
#
# Mechanical properties :
#
#
# Convention : Reuss Voigt Hill
#
# Bulk Modulus (GPa) = 71.46538 82.63214 77.04876
# Shear Modulus (GPa) = 49.67770 15.27388 32.47579
#
# Velocity S-wave (km/s) = 4.71444 2.61411 3.81179
# Velocity P-wave (km/s) = 7.84910 6.78832 7.33790
#
# Compressibility (1/GPa) = 0.01399279
#
# Stress axis : x y z
#
# Youngs Moduli (GPa) = 165.59290 93.92674 65.36190
#
# Poissons Ratio (x) = 0.19647 0.16341
# Poissons Ratio (y) = 0.34638 0.28787
# Poissons Ratio (z) = 0.41400 0.41367
#
# Static dielectric constant tensor:
#      x y z
#    x 1.866570 0.000000 0.000000 
#    y 0.000000 1.924540 0.000000 
#    z 0.000000 0.000000 1.771110 
# 
# From -- ./inp_files/194.got.cif
#   From: 2010.05.17/outbox.cif.g08.bks.cpg/sg67_1_cif.got.tgz:194.got - 2010.06.03 18:28:57.
