data_PCOD9504037
_publ_section_title
;
Structure prediction by ZEFSAII (Michael W. Deem and Ramdas Pophale) SiO2 
 PCOD9504037
Probable space group: C M M A
;
_chemical_formula_sum "Si O2"
_cell_formula_units_Z 116
_cell_length_a 8.065381
_cell_length_b 31.012845
_cell_length_c 26.428875
_cell_angle_alpha 90.000000
_cell_angle_beta 90.000000
_cell_angle_gamma 90.000000
_cell_volume 6610.665361
_symmetry_space_group_name_H-M "C M M A"
_symmetry_group_IT_number 67
_symmetry_cell_setting 'orthorhombic'
loop_
_space_group_symop_operation_xyz
x,y,z
-x,1/2-y,z
x,-y,-z
-x,1/2+y,-z
-x,-y,-z
x,1/2+y,-z
-x,y,z
x,1/2-y,z
1/2+x,1/2+y,z
1/2-x,-y,z
1/2+x,1/2-y,-z
1/2-x,y,-z
1/2-x,1/2-y,-z
1/2+x,y,-z
1/2-x,1/2+y,z
1/2+x,-y,z
loop_
_atom_site_type_symbol
_atom_site_label
_atom_site_fract_x
_atom_site_fract_y
_atom_site_fract_z
Si Si1 0.808884 0.310762 0.706667
Si Si2 0.690764 0.046517 0.358733
Si Si3 0.000000 0.750000 0.734461
Si Si4 0.191885 0.109446 0.444113
Si Si5 0.799541 0.550034 0.836040
Si Si6 0.304568 0.297699 0.414283
Si Si7 0.805932 0.596126 0.735116
Si Si8 0.197072 0.050194 0.053728
O O1 0.651533 0.286855 0.731812
O O2 0.790901 0.301543 0.646593
O O3 0.788869 0.361386 0.717203
O O4 0.000000 0.298461 0.720425
O O5 0.500000 0.043600 0.344171
O O6 0.712206 0.083036 0.401293
O O7 0.789326 0.060772 0.308918
O O8 0.750000 0.000000 0.377696
O O9 0.250000 0.097296 0.500000
O O10 0.217511 0.160725 0.437310
O O11 0.000000 0.099126 0.437367
O O12 0.750000 0.500000 0.830877
O O13 0.741070 0.577312 0.788137
O O14 0.741512 0.566442 0.891526
O O15 0.000000 0.551482 0.835603
O O16 0.500000 0.300132 0.426911
O O17 0.241965 0.250000 0.429130
O O18 0.000000 0.606773 0.740834
O O19 0.000000 0.051710 0.054432
O O20 0.250000 0.000000 0.052803
O O21 0.250000 0.069995 0.000000
#
# Coordination Sequence:
#
# PCOD9504037 Si02
#       8
#    16  16   4  16  16  16  16  16
#     4  11  22  36  57  86 114 147 184 222 267 330
#     4  12  25  42  62  84 108 139 181 228 273 326
#     4  12  22  36  60  86 114 148 188 218 272 334
#     4  12  26  43  63  84 109 138 173 218 271 328
#     4   9  19  31  46  69 104 143 190 236 276 322
#     4  10  21  38  60  85 114 141 174 214 262 322
#     4  11  21  36  55  81 112 148 185 225 280 327
#     4   9  15  25  40  62  91 133 183 234 275 319
#
# _framework density 17.547402000000002
#
# number of rings (size 3 to 8) (size 9 to 14) (size 15 to 20)
#    0.000    1.379    2.759    4.345    0.966    3.586 
#    0.000    1.379    0.000    0.000    0.000    0.000 
#    0.000    0.000    0.000    0.621    2.759    0.690 
#
# Total GULP energy -323115.254572 kJ/mol
# GULP energy per Si atom -5570.952665 kJ/mol
# Density = 1.750746 g / cm^3
# Si number density = 17.547402 Si / 1000 Ang^3
#
#
#
# Elastic Constant Matrix: (Units=GPa)
#
#
# Indices 1 2 3 4 5 6 
#
# 1 70.3579 10.7544 4.0598 0.0000 0.0000 0.0000
# 2 10.7544 61.9922 17.6681 0.0000 0.0000 0.0000
# 3 4.0598 17.6681 92.6715 0.0000 0.0000 0.0000
# 4 0.0000 0.0000 0.0000 14.8791 0.0000 0.0000
# 5 0.0000 0.0000 0.0000 0.0000 20.2489 0.0000
# 6 0.0000 0.0000 0.0000 0.0000 0.0000 23.0290
#
#
#
# Elastic Compliance Matrix: (Units=1/GPa)
#
#
# Indices 1 2 3 4 5 6 
#
# 1 0.014603 -0.002486 -0.000166 0.000000 0.000000 0.000000
# 2 -0.002486 0.017481 -0.003224 0.000000 0.000000 0.000000
# 3 -0.000166 -0.003224 0.011413 0.000000 0.000000 0.000000
# 4 0.000000 0.000000 0.000000 0.067208 0.000000 0.000000
# 5 0.000000 0.000000 0.000000 0.000000 0.049385 0.000000
# 6 0.000000 0.000000 0.000000 0.000000 0.000000 0.043424
#
#
# Mechanical properties :
#
#
# Convention : Reuss Voigt Hill
#
# Bulk Modulus (GPa) = 31.50092 32.22068 31.86080
# Shear Modulus (GPa) = 22.13889 24.46735 23.30312
#
# Velocity S-wave (km/s) = 3.55584 3.73816 3.64814
# Velocity P-wave (km/s) = 5.90335 6.08553 5.99513
#
# Compressibility (1/GPa) = 0.03174511
#
# Stress axis : x y z
#
# Youngs Moduli (GPa) = 68.48099 57.20441 87.62154
#
# Poissons Ratio (x) = 0.14221 0.01452
# Poissons Ratio (y) = 0.17024 0.28249
# Poissons Ratio (z) = 0.01135 0.18442
#
# Static dielectric constant tensor:
#      x y z
#    x 1.619160 0.000000 0.000000 
#    y 0.000000 1.607740 0.000000 
#    z 0.000000 0.000000 1.602450 
# 
# From -- ./inp_files/43954.got.cif
#   From: 2010.05.17/outbox.cif.g08.bks.cpg/sg67_22_cif.got.tgz:43954.got - 2010.06.03 18:28:57.
