data_PCOD9504290
_publ_section_title
;
Structure prediction by ZEFSAII (Michael W. Deem and Ramdas Pophale) SiO2 
 PCOD9504290
Probable space group: C M M A
;
_chemical_formula_sum "Si O2"
_cell_formula_units_Z 88
_cell_length_a 11.443422
_cell_length_b 14.664622
_cell_length_c 26.191866
_cell_angle_alpha 90.000000
_cell_angle_beta 90.000000
_cell_angle_gamma 90.000000
_cell_volume 4395.347605
_symmetry_space_group_name_H-M "C M M A"
_symmetry_group_IT_number 67
_symmetry_cell_setting 'orthorhombic'
loop_
_space_group_symop_operation_xyz
x,y,z
-x,1/2-y,z
x,-y,-z
-x,1/2+y,-z
-x,-y,-z
x,1/2+y,-z
-x,y,z
x,1/2-y,z
1/2+x,1/2+y,z
1/2-x,-y,z
1/2+x,1/2-y,-z
1/2-x,y,-z
1/2-x,1/2-y,-z
1/2+x,y,-z
1/2-x,1/2+y,z
1/2+x,-y,z
loop_
_atom_site_type_symbol
_atom_site_label
_atom_site_fract_x
_atom_site_fract_y
_atom_site_fract_z
Si Si1 0.639447 0.250000 0.696306
Si Si2 0.639516 0.750000 0.183056
Si Si3 0.500000 0.144243 0.181455
Si Si4 0.216813 0.101627 0.878974
Si Si5 0.214484 0.398502 0.637024
Si Si6 0.000000 0.645172 0.301250
Si Si7 0.140010 0.250000 0.960413
Si Si8 0.368031 0.355179 0.474220
O O1 0.500000 0.250000 0.696775
O O2 0.679517 0.250000 0.756648
O O3 0.688264 0.163851 0.664227
O O4 0.500000 0.750000 0.183381
O O5 0.687400 0.662788 0.151167
O O6 0.500000 0.250000 0.162288
O O7 0.387170 0.093982 0.161410
O O8 0.500000 0.148647 0.241322
O O9 0.165104 0.161556 0.925262
O O10 0.250000 0.000000 0.895129
O O11 0.250000 0.500000 0.623145
O O12 0.159745 0.355968 0.585947
O O13 0.112993 0.404071 0.678414
O O14 0.000000 0.750000 0.320539
O O15 0.000000 0.250000 0.976514
O O16 0.250000 0.250000 0.000000
O O17 0.500000 0.393502 0.483075
O O18 0.373932 0.250000 0.492184
O O19 0.250000 0.395029 0.500000
#
# Coordination Sequence:
#
# PCOD9504290 Si02
#       8
#     8   8   8  16  16   8   8  16
#     4  11  25  42  59  91 138 174 210 270 330 387
#     4  10  23  40  60  93 136 176 220 271 328 391
#     4  11  20  40  68  94 130 177 228 276 323 389
#     4  11  23  42  68  98 134 178 226 276 331 396
#     4  12  25  42  64  94 128 169 217 268 327 402
#     4  11  22  40  70  92 125 180 227 268 322 387
#     4  11  24  48  73 102 140 182 232 287 342 402
#     4  10  21  42  69  94 121 162 214 272 332 403
#
# _framework density 20.021170000000001
#
# number of rings (size 3 to 8) (size 9 to 14) (size 15 to 20)
#    0.000    1.091    5.455    1.091    2.545    5.818 
#    0.000    1.818    0.000    0.000    0.000    0.000 
#    0.000    0.000    0.000    0.000    0.000    0.000 
#
# Total GULP energy -245379.148510 kJ/mol
# GULP energy per Si atom -5576.798830 kJ/mol
# Density = 1.997560 g / cm^3
# Si number density = 20.021170 Si / 1000 Ang^3
#
#
#
# Elastic Constant Matrix: (Units=GPa)
#
#
# Indices 1 2 3 4 5 6 
#
# 1 151.2251 30.9902 47.2838 0.0000 0.0000 0.0000
# 2 30.9902 104.8992 10.4146 0.0000 0.0000 0.0000
# 3 47.2838 10.4146 79.9396 0.0000 0.0000 0.0000
# 4 0.0000 0.0000 0.0000 0.8704 0.0000 0.0000
# 5 0.0000 0.0000 0.0000 0.0000 32.7770 0.0000
# 6 0.0000 0.0000 0.0000 0.0000 0.0000 -118.1120
#
#
#
# Elastic Compliance Matrix: (Units=1/GPa)
#
#
# Indices 1 2 3 4 5 6 
#
# 1 0.008525 -0.002044 -0.004776 0.000000 0.000000 0.000000
# 2 -0.002044 0.010148 -0.000113 0.000000 0.000000 0.000000
# 3 -0.004776 -0.000113 0.015349 0.000000 0.000000 0.000000
# 4 0.000000 0.000000 0.000000 1.148869 0.000000 0.000000
# 5 0.000000 0.000000 0.000000 0.000000 0.030509 0.000000
# 6 0.000000 0.000000 0.000000 0.000000 0.000000 -0.008467
#
#
# Mechanical properties :
#
#
# Convention : Reuss Voigt Hill
#
# Bulk Modulus (GPa) = 49.61404 57.04899 53.33152
# Shear Modulus (GPa) = 4.07990 -0.40122 1.83934
#
# Velocity S-wave (km/s) = 1.42906 -0.44815 0.95953
# Velocity P-wave (km/s) = 5.24953 5.31869 5.28422
#
# Compressibility (1/GPa) = 0.02015558
#
# Stress axis : x y z
#
# Youngs Moduli (GPa) = 117.30261 98.54038 65.14996
#
# Poissons Ratio (x) = 0.20145 0.31116
# Poissons Ratio (y) = 0.23981 0.00736
# Poissons Ratio (z) = 0.56025 0.01112
#
# Static dielectric constant tensor:
#      x y z
#    x 1.732530 0.000000 0.000000 
#    y 0.000000 1.606730 0.000000 
#    z 0.000000 0.000000 1.696200 
# 
# From -- ./inp_files/41443.got.cif
#   From: 2010.05.17/outbox.cif.g08.bks.cpg/sg67_21_cif.got.tgz:41443.got - 2010.06.03 18:28:57.
