data_PCOD9504496
_publ_section_title
;
Structure prediction by ZEFSAII (Michael W. Deem and Ramdas Pophale) SiO2 
 PCOD9504496
Probable space group: C M M A
;
_chemical_formula_sum "Si O2"
_cell_formula_units_Z 80
_cell_length_a 22.433176
_cell_length_b 16.913451
_cell_length_c 9.227217
_cell_angle_alpha 90.000000
_cell_angle_beta 90.000000
_cell_angle_gamma 90.000000
_cell_volume 3501.013032
_symmetry_space_group_name_H-M "C M M A"
_symmetry_group_IT_number 67
_symmetry_cell_setting 'orthorhombic'
loop_
_space_group_symop_operation_xyz
x,y,z
-x,1/2-y,z
x,-y,-z
-x,1/2+y,-z
-x,-y,-z
x,1/2+y,-z
-x,y,z
x,1/2-y,z
1/2+x,1/2+y,z
1/2-x,-y,z
1/2+x,1/2-y,-z
1/2-x,y,-z
1/2-x,1/2-y,-z
1/2+x,y,-z
1/2-x,1/2+y,z
1/2+x,-y,z
loop_
_atom_site_type_symbol
_atom_site_label
_atom_site_fract_x
_atom_site_fract_y
_atom_site_fract_z
Si Si1 0.070475 0.334545 0.945116
Si Si2 0.431233 0.051382 0.817400
Si Si3 0.253253 0.595657 0.168280
Si Si4 0.129289 0.101806 0.687206
Si Si5 0.635999 0.343254 0.638350
O O1 0.095788 0.250000 0.996114
O O2 0.083396 0.343777 0.775694
O O3 0.000000 0.333973 0.970839
O O4 0.091890 0.413614 0.028694
O O5 0.500000 0.025157 0.828490
O O6 0.423951 0.129442 0.719518
O O7 0.392319 0.985405 0.736499
O O8 0.250000 0.500000 0.172080
O O9 0.193200 0.622497 0.246418
O O10 0.309563 0.627384 0.258983
O O11 0.250000 0.620366 0.000000
O O12 0.134310 0.114689 0.517399
O O13 0.640348 0.250000 0.618386
#
# Coordination Sequence:
#
# PCOD9504496 Si02
#       5
#    16  16  16  16  16
#     4  10  22  41  66 100 141 182 231 290 346 403
#     4  11  24  43  68  98 135 186 238 285 338 408
#     4  11  25  45  72 100 132 175 225 282 341 409
#     4  12  24  41  71  99 137 180 228 285 342 417
#     4  12  27  45  68 102 141 182 227 283 351 415
#
# _framework density 22.850529000000002
#
# number of rings (size 3 to 8) (size 9 to 14) (size 15 to 20)
#    0.000    0.800    2.000    4.800    2.800    8.800 
#    0.000    0.000    0.000    0.000    0.000    0.000 
#    0.000    0.000    0.000    0.000    0.000    0.000 
#
# Total GULP energy -223573.985481 kJ/mol
# GULP energy per Si atom -5589.349637 kJ/mol
# Density = 2.279852 g / cm^3
# Si number density = 22.850529 Si / 1000 Ang^3
#
#
#
# Elastic Constant Matrix: (Units=GPa)
#
#
# Indices 1 2 3 4 5 6 
#
# 1 79.1823 22.5450 37.2765 0.0000 0.0000 0.0000
# 2 22.5450 134.1650 45.8842 0.0000 0.0000 0.0000
# 3 37.2765 45.8842 183.9987 0.0000 0.0000 0.0000
# 4 0.0000 0.0000 0.0000 25.2090 0.0000 0.0000
# 5 0.0000 0.0000 0.0000 0.0000 22.5418 0.0000
# 6 0.0000 0.0000 0.0000 0.0000 0.0000 17.5113
#
#
#
# Elastic Compliance Matrix: (Units=1/GPa)
#
#
# Indices 1 2 3 4 5 6 
#
# 1 0.014245 -0.001538 -0.002502 0.000000 0.000000 0.000000
# 2 -0.001538 0.008314 -0.001762 0.000000 0.000000 0.000000
# 3 -0.002502 -0.001762 0.006381 0.000000 0.000000 0.000000
# 4 0.000000 0.000000 0.000000 0.039668 0.000000 0.000000
# 5 0.000000 0.000000 0.000000 0.000000 0.044362 0.000000
# 6 0.000000 0.000000 0.000000 0.000000 0.000000 0.057106
#
#
# Mechanical properties :
#
#
# Convention : Reuss Voigt Hill
#
# Bulk Modulus (GPa) = 57.68228 67.63970 62.66099
# Shear Modulus (GPa) = 26.67237 32.49512 29.58375
#
# Velocity S-wave (km/s) = 3.42022 3.77513 3.60205
# Velocity P-wave (km/s) = 6.39494 6.97620 6.69188
#
# Compressibility (1/GPa) = 0.01733635
#
# Stress axis : x y z
#
# Youngs Moduli (GPa) = 70.20001 120.27214 156.71180
#
# Poissons Ratio (x) = 0.18497 0.39216
# Poissons Ratio (y) = 0.10796 0.27610
# Poissons Ratio (z) = 0.17567 0.21190
#
# Static dielectric constant tensor:
#      x y z
#    x 1.851830 0.000000 0.000000 
#    y 0.000000 1.936130 0.000000 
#    z 0.000000 0.000000 1.893430 
# 
# From -- ./inp_files/13500.got.cif
#   From: 2010.05.17/outbox.cif.g08.bks.cpg/sg67_7_cif.got.tgz:13500.got - 2010.06.03 18:28:57.
