data_PCOD9504547
_publ_section_title
;
Structure prediction by ZEFSAII (Michael W. Deem and Ramdas Pophale) SiO2 
 PCOD9504547
Probable space group: C M M A
;
_chemical_formula_sum "Si O2"
_cell_formula_units_Z 60
_cell_length_a 10.693595
_cell_length_b 18.572135
_cell_length_c 15.758572
_cell_angle_alpha 90.000000
_cell_angle_beta 90.000000
_cell_angle_gamma 90.000000
_cell_volume 3129.697941
_symmetry_space_group_name_H-M "C M M A"
_symmetry_group_IT_number 67
_symmetry_cell_setting 'orthorhombic'
loop_
_space_group_symop_operation_xyz
x,y,z
-x,1/2-y,z
x,-y,-z
-x,1/2+y,-z
-x,-y,-z
x,1/2+y,-z
-x,y,z
x,1/2-y,z
1/2+x,1/2+y,z
1/2-x,-y,z
1/2+x,1/2-y,-z
1/2-x,y,-z
1/2-x,1/2-y,-z
1/2+x,y,-z
1/2-x,1/2+y,z
1/2+x,-y,z
loop_
_atom_site_type_symbol
_atom_site_label
_atom_site_fract_x
_atom_site_fract_y
_atom_site_fract_z
Si Si1 0.000000 0.917749 0.051104
Si Si2 0.000000 0.164157 0.119297
Si Si3 0.250000 0.000000 0.500000
Si Si4 0.640166 0.404197 0.351454
Si Si5 0.862155 0.250000 0.565743
Si Si6 0.242746 0.583282 0.166877
O O1 0.120736 0.899247 0.109974
O O2 0.000000 0.858751 0.978143
O O3 0.000000 0.000000 0.000000
O O4 0.870517 0.127374 0.151712
O O5 0.000000 0.250000 0.134183
O O6 0.325058 0.949419 0.564992
O O7 0.500000 0.424769 0.326733
O O8 0.645408 0.321115 0.377988
O O9 0.720903 0.414465 0.267919
O O10 0.750000 0.250000 0.500000
O O11 0.000000 0.250000 0.523370
O O12 0.250000 0.500000 0.143044
#
# Coordination Sequence:
#
# PCOD9504547 Si02
#       6
#     8   8   4  16   8  16
#     4  12  24  46  78 104 137 185 238 291 352 427
#     4  12  30  48  68 112 147 182 238 298 358 418
#     4  12  22  38  72  98 138 168 228 300 338 408
#     4  11  24  43  65 100 134 178 231 279 346 412
#     4  10  22  44  66  92 129 177 226 276 343 415
#     4  12  24  45  74 103 143 185 233 290 351 423
#
# _framework density 19.171178000000001
#
# number of rings (size 3 to 8) (size 9 to 14) (size 15 to 20)
#    0.000    0.533    6.667    1.200    1.867    2.133 
#    4.800    0.000    0.000    0.000    0.000    0.000 
#    0.000    0.000    0.000    0.000    0.000    0.000 
#
# Total GULP energy -167105.625593 kJ/mol
# GULP energy per Si atom -5570.187520 kJ/mol
# Density = 1.912754 g / cm^3
# Si number density = 19.171178 Si / 1000 Ang^3
#
#
#
# Elastic Constant Matrix: (Units=GPa)
#
#
# Indices 1 2 3 4 5 6 
#
# 1 164.7709 63.1160 71.2457 0.0000 0.0000 0.0000
# 2 63.1160 124.7881 25.2337 0.0000 0.0000 0.0000
# 3 71.2457 25.2337 121.0730 0.0000 0.0000 0.0000
# 4 0.0000 0.0000 0.0000 15.9682 0.0000 0.0000
# 5 0.0000 0.0000 0.0000 0.0000 47.9497 0.0000
# 6 0.0000 0.0000 0.0000 0.0000 0.0000 32.1834
#
#
#
# Elastic Compliance Matrix: (Units=1/GPa)
#
#
# Indices 1 2 3 4 5 6 
#
# 1 0.009675 -0.003907 -0.004879 0.000000 0.000000 0.000000
# 2 -0.003907 0.009944 0.000227 0.000000 0.000000 0.000000
# 3 -0.004879 0.000227 0.011083 0.000000 0.000000 0.000000
# 4 0.000000 0.000000 0.000000 0.062625 0.000000 0.000000
# 5 0.000000 0.000000 0.000000 0.000000 0.020855 0.000000
# 6 0.000000 0.000000 0.000000 0.000000 0.000000 0.031072
#
#
# Mechanical properties :
#
#
# Convention : Reuss Voigt Hill
#
# Bulk Modulus (GPa) = 73.61894 81.09141 77.35518
# Shear Modulus (GPa) = 29.95781 35.95603 32.95692
#
# Velocity S-wave (km/s) = 3.95732 4.33543 4.15069
# Velocity P-wave (km/s) = 7.70485 8.21290 7.96293
#
# Compressibility (1/GPa) = 0.01358346
#
# Stress axis : x y z
#
# Youngs Moduli (GPa) = 103.35534 100.56442 90.22479
#
# Poissons Ratio (x) = 0.39291 0.44022
# Poissons Ratio (y) = 0.40381 -0.02045
# Poissons Ratio (z) = 0.50429 -0.02279
#
# Static dielectric constant tensor:
#      x y z
#    x 2.109060 0.000000 0.000000 
#    y 0.000000 1.756880 0.000000 
#    z 0.000000 0.000000 1.640950 
# 
# From -- ./inp_files/25734.got.cif
#   From: 2010.05.17/outbox.cif.g08.bks.cpg/sg67_13_cif.got.tgz:25734.got - 2010.06.03 18:28:57.
