data_PCOD9504128
_publ_section_title
;
Structure prediction by ZEFSAII (Michael W. Deem and Ramdas Pophale) SiO2 
 PCOD9504128
Probable space group: C M M A
;
_chemical_formula_sum "Si O2"
_cell_formula_units_Z 104
_cell_length_a 10.013665
_cell_length_b 21.131081
_cell_length_c 27.677812
_cell_angle_alpha 90.000000
_cell_angle_beta 90.000000
_cell_angle_gamma 90.000000
_cell_volume 5856.613013
_symmetry_space_group_name_H-M "C M M A"
_symmetry_group_IT_number 67
_symmetry_cell_setting 'orthorhombic'
loop_
_space_group_symop_operation_xyz
x,y,z
-x,1/2-y,z
x,-y,-z
-x,1/2+y,-z
-x,-y,-z
x,1/2+y,-z
-x,y,z
x,1/2-y,z
1/2+x,1/2+y,z
1/2-x,-y,z
1/2+x,1/2-y,-z
1/2-x,y,-z
1/2-x,1/2-y,-z
1/2+x,y,-z
1/2-x,1/2+y,z
1/2+x,-y,z
loop_
_atom_site_type_symbol
_atom_site_label
_atom_site_fract_x
_atom_site_fract_y
_atom_site_fract_z
Si Si1 0.000000 0.909097 0.042252
Si Si2 0.739103 0.132483 0.900857
Si Si3 0.658001 0.559682 0.729303
Si Si4 0.656355 0.441518 0.385947
Si Si5 0.342191 0.677775 0.546901
Si Si6 0.161143 0.177039 0.796669
Si Si7 0.000000 0.944089 0.931487
Si Si8 0.642727 0.750000 0.041402
O O1 0.867731 0.879416 0.065451
O O2 0.000000 0.982112 0.057926
O O3 0.000000 0.909702 0.984148
O O4 0.784358 0.151585 0.847589
O O5 0.634390 0.075176 0.903616
O O6 0.660791 0.190328 0.924482
O O7 0.500000 0.547118 0.739012
O O8 0.750000 0.500000 0.743959
O O9 0.673103 0.567968 0.671588
O O10 0.696017 0.624645 0.756412
O O11 0.500000 0.456800 0.394534
O O12 0.750000 0.500000 0.400883
O O13 0.687338 0.376997 0.414487
O O14 0.500000 0.672757 0.534386
O O15 0.320901 0.750000 0.565052
O O16 0.250000 0.669336 0.500000
O O17 0.204844 0.250000 0.787839
O O18 0.000000 0.178338 0.799565
O O19 0.500000 0.750000 0.016850
O O20 0.750000 0.750000 0.000000
#
# Coordination Sequence:
#
# PCOD9504128 Si02
#       8
#     8  16  16  16  16  16   8   8
#     4  11  24  41  61  83 113 148 179 221 270 323
#     4  12  23  40  60  83 114 143 181 223 270 325
#     4   9  19  37  60  84 110 143 186 232 284 336
#     4   9  18  33  54  80 110 144 186 236 283 337
#     4   9  18  32  50  76 111 151 194 237 281 329
#     4  10  21  39  59  83 113 145 183 228 277 330
#     4  11  24  41  59  85 113 144 183 223 264 325
#     4  12  26  40  62  88 112 146 184 220 269 326
#
# _framework density 17.757704
#
# number of rings (size 3 to 8) (size 9 to 14) (size 15 to 20)
#    0.000    1.846    2.308    1.846    1.077    4.000 
#    1.385    4.615    0.000    0.000    0.000    4.308 
#    0.000    0.000    0.000    0.000    0.000    0.000 
#
# Total GULP energy -290157.232001 kJ/mol
# GULP energy per Si atom -5579.946769 kJ/mol
# Density = 1.771729 g / cm^3
# Si number density = 17.757704 Si / 1000 Ang^3
#
#
#
# Elastic Constant Matrix: (Units=GPa)
#
#
# Indices 1 2 3 4 5 6 
#
# 1 81.6945 57.9642 36.7174 0.0000 0.0000 0.0000
# 2 57.9642 148.0957 68.1741 0.0000 0.0000 0.0000
# 3 36.7174 68.1741 63.1383 0.0000 0.0000 0.0000
# 4 0.0000 0.0000 0.0000 21.5883 0.0000 0.0000
# 5 0.0000 0.0000 0.0000 0.0000 21.5368 0.0000
# 6 0.0000 0.0000 0.0000 0.0000 0.0000 15.9271
#
#
#
# Elastic Compliance Matrix: (Units=1/GPa)
#
#
# Indices 1 2 3 4 5 6 
#
# 1 0.017909 -0.004405 -0.005659 0.000000 0.000000 0.000000
# 2 -0.004405 0.014509 -0.013105 0.000000 0.000000 0.000000
# 3 -0.005659 -0.013105 0.033279 0.000000 0.000000 0.000000
# 4 0.000000 0.000000 0.000000 0.046321 0.000000 0.000000
# 5 0.000000 0.000000 0.000000 0.000000 0.046432 0.000000
# 6 0.000000 0.000000 0.000000 0.000000 0.000000 0.062786
#
#
# Mechanical properties :
#
#
# Convention : Reuss Voigt Hill
#
# Bulk Modulus (GPa) = 51.65112 68.73775 60.19444
# Shear Modulus (GPa) = 18.24632 20.48193 19.36412
#
# Velocity S-wave (km/s) = 3.20897 3.39987 3.30580
# Velocity P-wave (km/s) = 6.54826 7.36240 6.96723
#
# Compressibility (1/GPa) = 0.01936066
#
# Stress axis : x y z
#
# Youngs Moduli (GPa) = 55.83677 68.92310 30.04878
#
# Poissons Ratio (x) = 0.30357 0.17005
# Poissons Ratio (y) = 0.24594 0.39378
# Poissons Ratio (z) = 0.31599 0.90322
#
# Static dielectric constant tensor:
#      x y z
#    x 1.602170 0.000000 0.000000 
#    y 0.000000 1.620910 0.000000 
#    z 0.000000 0.000000 1.572110 
# 
# From -- ./inp_files/43621.got.cif
#   From: 2010.05.17/outbox.cif.g08.bks.cpg/sg67_22_cif.got.tgz:43621.got - 2010.06.03 18:28:57.
