data_PCOD9504048
_publ_section_title
;
Structure prediction by ZEFSAII (Michael W. Deem and Ramdas Pophale) SiO2 
 PCOD9504048
Probable space group: C M M A
;
_chemical_formula_sum "Si O2"
_cell_formula_units_Z 96
_cell_length_a 15.442061
_cell_length_b 14.606880
_cell_length_c 19.872934
_cell_angle_alpha 90.000000
_cell_angle_beta 90.000000
_cell_angle_gamma 90.000000
_cell_volume 4482.545590
_symmetry_space_group_name_H-M "C M M A"
_symmetry_group_IT_number 67
_symmetry_cell_setting 'orthorhombic'
loop_
_space_group_symop_operation_xyz
x,y,z
-x,1/2-y,z
x,-y,-z
-x,1/2+y,-z
-x,-y,-z
x,1/2+y,-z
-x,y,z
x,1/2-y,z
1/2+x,1/2+y,z
1/2-x,-y,z
1/2+x,1/2-y,-z
1/2-x,y,-z
1/2-x,1/2-y,-z
1/2+x,y,-z
1/2-x,1/2+y,z
1/2+x,-y,z
loop_
_atom_site_type_symbol
_atom_site_label
_atom_site_fract_x
_atom_site_fract_y
_atom_site_fract_z
Si Si1 0.341965 0.035987 0.408920
Si Si2 0.399138 0.852153 0.461276
Si Si3 0.604616 0.750000 0.952028
Si Si4 0.601033 0.117127 0.165252
Si Si5 0.768740 0.353571 0.715071
Si Si6 0.601595 0.591033 0.206330
Si Si7 0.895541 0.750000 0.896960
O O1 0.373924 0.105768 0.465948
O O2 0.322442 0.088971 0.340077
O O3 0.250000 0.000000 0.431373
O O4 0.389852 0.937811 0.409358
O O5 0.500000 0.838309 0.464423
O O6 0.359101 0.750000 0.448770
O O7 0.500000 0.750000 0.958127
O O8 0.625447 0.838291 0.906172
O O9 0.640531 0.750000 0.027538
O O10 0.500000 0.142820 0.179093
O O11 0.668589 0.150525 0.220593
O O12 0.604843 0.008144 0.172292
O O13 0.752330 0.250000 0.691252
O O14 0.676686 0.397420 0.737609
O O15 0.500000 0.606989 0.227871
O O16 0.626226 0.663259 0.148622
O O17 0.000000 0.750000 0.902201
#
# Coordination Sequence:
#
# PCOD9504048 Si02
#       7
#    16  16   8  16  16  16   8
#     4  11  23  39  63  96 129 165 214 263 314 382
#     4  10  22  43  70  98 133 171 208 261 319 379
#     4   9  18  35  59  93 130 169 217 268 334 406
#     4  10  21  38  60  89 130 170 211 271 333 397
#     4  12  24  41  66  93 127 172 223 271 331 400
#     4  10  21  40  64  90 125 170 220 281 337 389
#     4   9  18  35  63  93 124 169 221 272 336 402
#
# _framework density 21.416402000000001
#
# number of rings (size 3 to 8) (size 9 to 14) (size 15 to 20)
#    0.000    1.667    1.667    4.000    0.000    4.000 
#    0.000    6.667    0.000    2.000    0.000    0.000 
#    0.000    0.000    0.000    0.000    0.000    0.000 
#
# Total GULP energy -267592.278024 kJ/mol
# GULP energy per Si atom -5574.839125 kJ/mol
# Density = 2.136766 g / cm^3
# Si number density = 21.416402 Si / 1000 Ang^3
#
#
#
# Elastic Constant Matrix: (Units=GPa)
#
#
# Indices 1 2 3 4 5 6 
#
# 1 80.8540 36.4305 33.8947 0.0000 0.0000 0.0000
# 2 36.4305 194.5927 61.0407 0.0000 0.0000 0.0000
# 3 33.8947 61.0407 133.1819 0.0000 0.0000 0.0000
# 4 0.0000 0.0000 0.0000 15.1155 0.0000 0.0000
# 5 0.0000 0.0000 0.0000 0.0000 36.8265 0.0000
# 6 0.0000 0.0000 0.0000 0.0000 0.0000 30.9134
#
#
#
# Elastic Compliance Matrix: (Units=1/GPa)
#
#
# Indices 1 2 3 4 5 6 
#
# 1 0.014366 -0.001802 -0.002830 0.000000 0.000000 0.000000
# 2 -0.001802 0.006228 -0.002396 0.000000 0.000000 0.000000
# 3 -0.002830 -0.002396 0.009327 0.000000 0.000000 0.000000
# 4 0.000000 0.000000 0.000000 0.066157 0.000000 0.000000
# 5 0.000000 0.000000 0.000000 0.000000 0.027154 0.000000
# 6 0.000000 0.000000 0.000000 0.000000 0.000000 0.032348
#
#
# Mechanical properties :
#
#
# Convention : Reuss Voigt Hill
#
# Bulk Modulus (GPa) = 63.03150 74.59562 68.81356
# Shear Modulus (GPa) = 28.58361 35.05526 31.81944
#
# Velocity S-wave (km/s) = 3.65726 4.05018 3.85873
# Velocity P-wave (km/s) = 6.87964 7.53516 7.21485
#
# Compressibility (1/GPa) = 0.01586508
#
# Stress axis : x y z
#
# Youngs Moduli (GPa) = 69.60718 160.57093 107.21631
#
# Poissons Ratio (x) = 0.28930 0.30347
# Poissons Ratio (y) = 0.12541 0.25687
# Poissons Ratio (z) = 0.19702 0.38470
#
# Static dielectric constant tensor:
#      x y z
#    x 1.633700 0.000000 0.000000 
#    y 0.000000 1.039340 0.000000 
#    z 0.000000 0.000000 1.813650 
# 
# From -- ./inp_files/38542.got.cif
#   From: 2010.05.17/outbox.cif.g08.bks.cpg/sg67_20_cif.got.tgz:38542.got - 2010.06.03 18:28:57.
