data_PCOD9504330
_publ_section_title
;
Structure prediction by ZEFSAII (Michael W. Deem and Ramdas Pophale) SiO2 
 PCOD9504330
Probable space group: C M M A
;
_chemical_formula_sum "Si O2"
_cell_formula_units_Z 96
_cell_length_a 15.118063
_cell_length_b 16.686234
_cell_length_c 20.229376
_cell_angle_alpha 90.000000
_cell_angle_beta 90.000000
_cell_angle_gamma 90.000000
_cell_volume 5103.133938
_symmetry_space_group_name_H-M "C M M A"
_symmetry_group_IT_number 67
_symmetry_cell_setting 'orthorhombic'
loop_
_space_group_symop_operation_xyz
x,y,z
-x,1/2-y,z
x,-y,-z
-x,1/2+y,-z
-x,-y,-z
x,1/2+y,-z
-x,y,z
x,1/2-y,z
1/2+x,1/2+y,z
1/2-x,-y,z
1/2+x,1/2-y,-z
1/2-x,y,-z
1/2-x,1/2-y,-z
1/2+x,y,-z
1/2-x,1/2+y,z
1/2+x,-y,z
loop_
_atom_site_type_symbol
_atom_site_label
_atom_site_fract_x
_atom_site_fract_y
_atom_site_fract_z
Si Si1 0.831420 0.655827 0.534948
Si Si2 0.500000 0.951154 0.182025
Si Si3 0.000000 0.493427 0.675106
Si Si4 0.690460 0.653373 0.936181
Si Si5 0.811996 0.577308 0.671177
Si Si6 0.180456 0.152877 0.187749
Si Si7 0.500000 0.084834 0.463822
Si Si8 0.500000 0.065360 0.057965
O O1 0.830923 0.750000 0.526482
O O2 0.750000 0.613189 0.500000
O O3 0.813773 0.638649 0.611292
O O4 0.916075 0.627278 0.495297
O O5 0.413206 0.893773 0.178759
O O6 0.500000 0.012288 0.245086
O O7 0.500000 0.010694 0.121946
O O8 0.088470 0.544166 0.666533
O O9 0.000000 0.427434 0.616048
O O10 0.681173 0.750000 0.936801
O O11 0.748016 0.632975 0.870014
O O12 0.592158 0.615699 0.941607
O O13 0.750000 0.630201 0.000000
O O14 0.750000 0.500000 0.662257
O O15 0.789618 0.620416 0.740362
O O16 0.168556 0.250000 0.187998
O O17 0.500000 0.000000 0.500000
O O18 0.500000 0.000000 0.000000
#
# Coordination Sequence:
#
# PCOD9504330 Si02
#       8
#    16   8   8  16  16  16   8   8
#     4  11  24  39  59  89 123 157 203 262 319 382
#     4  10  23  37  62  92 127 160 207 267 309 382
#     4  10  22  37  54  91 116 161 205 253 311 364
#     4  10  23  43  66  91 127 170 213 257 316 382
#     4  11  22  37  62  88 122 161 206 260 312 375
#     4  10  22  40  62  89 124 167 207 256 316 375
#     4  12  21  38  64  86 117 160 212 254 314 374
#     4  12  25  40  65  99 130 163 208 265 317 364
#
# _framework density 18.811969000000001
#
# number of rings (size 3 to 8) (size 9 to 14) (size 15 to 20)
#    0.000    1.333    1.667    3.250    4.667    1.667 
#    0.000    5.833    0.000    1.000    0.000    0.000 
#    0.000    0.000    0.000    0.000    0.000    0.000 
#
# Total GULP energy -267339.345162 kJ/mol
# GULP energy per Si atom -5569.569691 kJ/mol
# Density = 1.876915 g / cm^3
# Si number density = 18.811969 Si / 1000 Ang^3
#
#
#
# Elastic Constant Matrix: (Units=GPa)
#
#
# Indices 1 2 3 4 5 6 
#
# 1 155.9344 53.8101 76.8149 0.0000 0.0000 0.0000
# 2 53.8101 84.5436 58.8288 0.0000 0.0000 0.0000
# 3 76.8149 58.8288 156.4400 0.0000 0.0000 0.0000
# 4 0.0000 0.0000 0.0000 48.2386 0.0000 0.0000
# 5 0.0000 0.0000 0.0000 0.0000 26.5010 0.0000
# 6 0.0000 0.0000 0.0000 0.0000 0.0000 26.3671
#
#
#
# Elastic Compliance Matrix: (Units=1/GPa)
#
#
# Indices 1 2 3 4 5 6 
#
# 1 0.009237 -0.003688 -0.003148 0.000000 0.000000 0.000000
# 2 -0.003688 0.017493 -0.004767 0.000000 0.000000 0.000000
# 3 -0.003148 -0.004767 0.009731 0.000000 0.000000 0.000000
# 4 0.000000 0.000000 0.000000 0.020730 0.000000 0.000000
# 5 0.000000 0.000000 0.000000 0.000000 0.037734 0.000000
# 6 0.000000 0.000000 0.000000 0.000000 0.000000 0.037926
#
#
# Mechanical properties :
#
#
# Convention : Reuss Voigt Hill
#
# Bulk Modulus (GPa) = 75.45568 86.20285 80.82926
# Shear Modulus (GPa) = 31.15727 34.05226 32.60477
#
# Velocity S-wave (km/s) = 4.07412 4.25919 4.16768
# Velocity P-wave (km/s) = 7.89486 8.37320 8.13754
#
# Compressibility (1/GPa) = 0.01325281
#
# Stress axis : x y z
#
# Youngs Moduli (GPa) = 108.26493 57.16638 102.76570
#
# Poissons Ratio (x) = 0.21083 0.32355
# Poissons Ratio (y) = 0.39929 0.48991
# Poissons Ratio (z) = 0.34087 0.27252
#
# Static dielectric constant tensor:
#      x y z
#    x 1.709710 0.000000 0.000000 
#    y 0.000000 1.600040 0.000000 
#    z 0.000000 0.000000 1.670360 
# 
# From -- ./inp_files/38560.got.cif
#   From: 2010.05.17/outbox.cif.g08.bks.cpg/sg67_20_cif.got.tgz:38560.got - 2010.06.03 18:28:57.
