data_PCOD9504194
_publ_section_title
;
Structure prediction by ZEFSAII (Michael W. Deem and Ramdas Pophale) SiO2 
 PCOD9504194
Probable space group: C M M A
;
_chemical_formula_sum "Si O2"
_cell_formula_units_Z 96
_cell_length_a 31.026339
_cell_length_b 14.819953
_cell_length_c 10.566793
_cell_angle_alpha 90.000000
_cell_angle_beta 90.000000
_cell_angle_gamma 90.000000
_cell_volume 4858.705315
_symmetry_space_group_name_H-M "C M M A"
_symmetry_group_IT_number 67
_symmetry_cell_setting 'orthorhombic'
loop_
_space_group_symop_operation_xyz
x,y,z
-x,1/2-y,z
x,-y,-z
-x,1/2+y,-z
-x,-y,-z
x,1/2+y,-z
-x,y,z
x,1/2-y,z
1/2+x,1/2+y,z
1/2-x,-y,z
1/2+x,1/2-y,-z
1/2-x,y,-z
1/2-x,1/2-y,-z
1/2+x,y,-z
1/2-x,1/2+y,z
1/2+x,-y,z
loop_
_atom_site_type_symbol
_atom_site_label
_atom_site_fract_x
_atom_site_fract_y
_atom_site_fract_z
Si Si1 0.049097 0.478225 0.648138
Si Si2 0.551387 0.353172 0.832038
Si Si3 0.878841 0.604204 0.020975
Si Si4 0.631536 0.857253 0.683258
Si Si5 0.319275 0.750000 0.068569
Si Si6 0.234981 0.750000 0.189787
Si Si7 0.222928 0.409017 0.621634
O O1 0.046831 0.500000 0.500000
O O2 0.062506 0.566117 0.732986
O O3 0.085005 0.400872 0.656511
O O4 0.000000 0.453052 0.688828
O O5 0.500000 0.355200 0.844524
O O6 0.563230 0.250000 0.792282
O O7 0.573848 0.373332 0.966952
O O8 0.867693 0.632259 0.163557
O O9 0.870854 0.500000 0.000000
O O10 0.848236 0.662417 0.931845
O O11 0.634660 0.750000 0.652938
O O12 0.670437 0.911948 0.611549
O O13 0.285886 0.750000 0.178845
O O14 0.290642 0.750000 0.940998
O O15 0.224544 0.660859 0.265314
O O16 0.250000 0.500000 0.651247
O O17 0.250000 0.373873 0.500000
#
# Coordination Sequence:
#
# PCOD9504194 Si02
#       7
#    16  16  16  16   8   8  16
#     4  10  24  44  67  97 134 174 221 268 323 393
#     4  10  21  39  65  97 132 171 214 266 322 390
#     4  12  22  39  64  91 130 165 211 265 326 388
#     4  12  24  44  67  95 134 170 216 275 331 386
#     4  11  24  40  59  96 128 162 205 270 323 400
#     4  11  23  42  66  88 129 163 212 260 333 384
#     4  11  25  44  66  93 128 169 219 272 319 389
#
# _framework density 19.758351000000001
#
# number of rings (size 3 to 8) (size 9 to 14) (size 15 to 20)
#    0.000    1.000    5.833    0.250    4.667    2.000 
#    0.000    3.333    0.000    0.000    0.000    0.000 
#    0.000    0.000    0.000    0.000    0.000    0.000 
#
# Total GULP energy -267386.222175 kJ/mol
# GULP energy per Si atom -5570.546295 kJ/mol
# Density = 1.971338 g / cm^3
# Si number density = 19.758351 Si / 1000 Ang^3
#
#
#
# Elastic Constant Matrix: (Units=GPa)
#
#
# Indices 1 2 3 4 5 6 
#
# 1 116.3627 56.4949 22.2294 0.0000 0.0000 0.0000
# 2 56.4949 132.0962 1.6560 0.0000 0.0000 0.0000
# 3 22.2294 1.6560 44.2798 0.0000 0.0000 0.0000
# 4 0.0000 0.0000 0.0000 20.3485 0.0000 0.0000
# 5 0.0000 0.0000 0.0000 0.0000 38.1946 0.0000
# 6 0.0000 0.0000 0.0000 0.0000 0.0000 46.3753
#
#
#
# Elastic Compliance Matrix: (Units=1/GPa)
#
#
# Indices 1 2 3 4 5 6 
#
# 1 0.012234 -0.005158 -0.005949 0.000000 0.000000 0.000000
# 2 -0.005158 0.009748 0.002225 0.000000 0.000000 0.000000
# 3 -0.005949 0.002225 0.025487 0.000000 0.000000 0.000000
# 4 0.000000 0.000000 0.000000 0.049144 0.000000 0.000000
# 5 0.000000 0.000000 0.000000 0.000000 0.026182 0.000000
# 6 0.000000 0.000000 0.000000 0.000000 0.000000 0.021563
#
#
# Mechanical properties :
#
#
# Convention : Reuss Voigt Hill
#
# Bulk Modulus (GPa) = 33.66382 50.38881 42.02631
# Shear Modulus (GPa) = 29.06562 35.14090 32.10326
#
# Velocity S-wave (km/s) = 3.83959 4.22184 4.03525
# Velocity P-wave (km/s) = 6.06064 7.02305 6.55952
#
# Compressibility (1/GPa) = 0.02970548
#
# Stress axis : x y z
#
# Youngs Moduli (GPa) = 81.73625 102.58243 39.23562
#
# Poissons Ratio (x) = 0.52911 0.23342
# Poissons Ratio (y) = 0.42158 -0.08729
# Poissons Ratio (z) = 0.48625 -0.22822
#
# Static dielectric constant tensor:
#      x y z
#    x 1.775720 0.000000 0.000000 
#    y 0.000000 1.542930 0.000000 
#    z 0.000000 0.000000 1.694950 
# 
# From -- ./inp_files/23739.got.cif
#   From: 2010.05.17/outbox.cif.g08.bks.cpg/sg67_12_cif.got.tgz:23739.got - 2010.06.03 18:28:57.
