data_PCOD9504368
_publ_section_title
;
Structure prediction by ZEFSAII (Michael W. Deem and Ramdas Pophale) SiO2 
 PCOD9504368
Probable space group: C M M A
;
_chemical_formula_sum "Si O2"
_cell_formula_units_Z 96
_cell_length_a 14.130219
_cell_length_b 20.295186
_cell_length_c 15.236744
_cell_angle_alpha 90.000000
_cell_angle_beta 90.000000
_cell_angle_gamma 90.000000
_cell_volume 4369.523703
_symmetry_space_group_name_H-M "C M M A"
_symmetry_group_IT_number 67
_symmetry_cell_setting 'orthorhombic'
loop_
_space_group_symop_operation_xyz
x,y,z
-x,1/2-y,z
x,-y,-z
-x,1/2+y,-z
-x,-y,-z
x,1/2+y,-z
-x,y,z
x,1/2-y,z
1/2+x,1/2+y,z
1/2-x,-y,z
1/2+x,1/2-y,-z
1/2-x,y,-z
1/2-x,1/2-y,-z
1/2+x,y,-z
1/2-x,1/2+y,z
1/2+x,-y,z
loop_
_atom_site_type_symbol
_atom_site_label
_atom_site_fract_x
_atom_site_fract_y
_atom_site_fract_z
Si Si1 0.885620 0.556663 0.254532
Si Si2 0.891629 0.467999 0.413969
Si Si3 0.746936 0.176661 0.244342
Si Si4 0.338909 0.820977 0.433573
Si Si5 0.614343 0.437755 0.055415
Si Si6 0.387606 0.328429 0.916787
O O1 0.855717 0.498899 0.322154
O O2 0.835040 0.626183 0.272360
O O3 0.854799 0.547854 0.153981
O O4 0.000000 0.562624 0.255712
O O5 0.847266 0.500000 0.500000
O O6 0.890691 0.390489 0.432367
O O7 0.000000 0.489838 0.411635
O O8 0.709641 0.250000 0.221274
O O9 0.806760 0.182908 0.332786
O O10 0.817578 0.155994 0.164815
O O11 0.385393 0.750000 0.455102
O O12 0.250000 0.826487 0.500000
O O13 0.500000 0.436615 0.058419
O O14 0.644389 0.500000 0.000000
O O15 0.639015 0.371246 0.002523
O O16 0.500000 0.342357 0.895718
O O17 0.380700 0.250000 0.933436
#
# Coordination Sequence:
#
# PCOD9504368 Si02
#       6
#    16  16  16  16  16  16
#     4  10  22  39  59  86 121 162 204 249 303 365
#     4  10  22  40  63  92 124 158 202 253 305 365
#     4  10  22  38  59  90 121 156 207 256 304 368
#     4  10  22  40  61  87 121 158 199 252 310 368
#     4   9  19  36  57  83 119 157 198 252 307 362
#     4   9  19  37  60  86 120 161 206 259 316 374
#
# _framework density 21.970358000000001
#
# number of rings (size 3 to 8) (size 9 to 14) (size 15 to 20)
#    0.000    2.333    0.000    1.000    2.333    5.000 
#    0.000    5.833    0.000    6.000    0.000    0.000 
#    0.000    0.000    0.000    0.000    0.000    0.000 
#
# Total GULP energy -267473.497238 kJ/mol
# GULP energy per Si atom -5572.364526 kJ/mol
# Density = 2.192035 g / cm^3
# Si number density = 21.970358 Si / 1000 Ang^3
#
#
#
# Elastic Constant Matrix: (Units=GPa)
#
#
# Indices 1 2 3 4 5 6 
#
# 1 76.7577 22.4335 22.4300 0.0000 0.0000 0.0000
# 2 22.4335 112.7484 54.6567 0.0000 0.0000 0.0000
# 3 22.4300 54.6567 142.6723 0.0000 0.0000 0.0000
# 4 0.0000 0.0000 0.0000 40.1432 0.0000 0.0000
# 5 0.0000 0.0000 0.0000 0.0000 -8.3972 0.0000
# 6 0.0000 0.0000 0.0000 0.0000 0.0000 23.4787
#
#
#
# Elastic Compliance Matrix: (Units=1/GPa)
#
#
# Indices 1 2 3 4 5 6 
#
# 1 0.014056 -0.002119 -0.001398 0.000000 0.000000 0.000000
# 2 -0.002119 0.011212 -0.003962 0.000000 0.000000 0.000000
# 3 -0.001398 -0.003962 0.008747 0.000000 0.000000 0.000000
# 4 0.000000 0.000000 0.000000 0.024911 0.000000 0.000000
# 5 0.000000 0.000000 0.000000 0.000000 -0.119087 0.000000
# 6 0.000000 0.000000 0.000000 0.000000 0.000000 0.042592
#
#
# Mechanical properties :
#
#
# Convention : Reuss Voigt Hill
#
# Bulk Modulus (GPa) = 52.47638 59.02431 55.75035
# Shear Modulus (GPa) = 1337.02080 26.55548 681.78814
#
# Velocity S-wave (km/s) = 24.69570 3.48040 17.63506
# Velocity P-wave (km/s) = 28.93281 6.56313 20.97835
#
# Compressibility (1/GPa) = 0.01905619
#
# Stress axis : x y z
#
# Youngs Moduli (GPa) = 71.14489 89.19390 114.32962
#
# Poissons Ratio (x) = 0.18900 0.15983
# Poissons Ratio (y) = 0.15075 0.45297
# Poissons Ratio (z) = 0.09946 0.35338
#
# Static dielectric constant tensor:
#      x y z
#    x 1.806180 0.000000 0.000000 
#    y 0.000000 1.896550 0.000000 
#    z 0.000000 0.000000 1.864920 
# 
# From -- ./inp_files/27210.got.cif
#   From: 2010.05.17/outbox.cif.g08.bks.cpg/sg67_14_cif.got.tgz:27210.got - 2010.06.03 18:28:57.
