data_PCOD9504538
_publ_section_title
;
Structure prediction by ZEFSAII (Michael W. Deem and Ramdas Pophale) SiO2 
 PCOD9504538
Probable space group: C M M A
;
_chemical_formula_sum "Si O2"
_cell_formula_units_Z 68
_cell_length_a 15.355232
_cell_length_b 19.815099
_cell_length_c 10.092708
_cell_angle_alpha 90.000000
_cell_angle_beta 90.000000
_cell_angle_gamma 90.000000
_cell_volume 3070.862263
_symmetry_space_group_name_H-M "C M M A"
_symmetry_group_IT_number 67
_symmetry_cell_setting 'orthorhombic'
loop_
_space_group_symop_operation_xyz
x,y,z
-x,1/2-y,z
x,-y,-z
-x,1/2+y,-z
-x,-y,-z
x,1/2+y,-z
-x,y,z
x,1/2-y,z
1/2+x,1/2+y,z
1/2-x,-y,z
1/2+x,1/2-y,-z
1/2-x,y,-z
1/2-x,1/2-y,-z
1/2+x,y,-z
1/2-x,1/2+y,z
1/2+x,-y,z
loop_
_atom_site_type_symbol
_atom_site_label
_atom_site_fract_x
_atom_site_fract_y
_atom_site_fract_z
Si Si1 0.141140 0.064885 0.246912
Si Si2 0.600517 0.673891 0.037818
Si Si3 0.000000 0.750000 0.538942
Si Si4 0.854608 0.364773 0.508034
Si Si5 0.653639 0.918067 0.796298
O O1 0.131461 0.074193 0.403947
O O2 0.243764 0.069975 0.218748
O O3 0.111063 0.992321 0.193141
O O4 0.103747 0.129153 0.169956
O O5 0.500000 0.680404 0.000093
O O6 0.636272 0.750000 0.055132
O O7 0.642230 0.630550 0.920674
O O8 0.077640 0.807910 0.534217
O O9 0.750000 0.347001 0.500000
O O10 0.875049 0.384243 0.659128
#
# Coordination Sequence:
#
# PCOD9504538 Si02
#       5
#    16  16   4  16  16
#     4  10  22  43  68  94 127 170 218 271 329 390
#     4  11  26  41  60  92 134 171 216 271 327 391
#     4  12  26  40  66 100 144 176 212 266 328 406
#     4  10  24  43  69  99 134 173 218 272 328 388
#     4  10  22  43  68  94 127 170 218 271 329 390
#
# _framework density 22.143616000000002
#
# number of rings (size 3 to 8) (size 9 to 14) (size 15 to 20)
#    0.000    1.647    0.000    2.471    6.588    8.471 
#    0.000    1.176    0.000    0.000    0.000    0.000 
#    0.000    0.000    0.000    0.000    0.000    0.000 
#
# Total GULP energy -189352.387130 kJ/mol
# GULP energy per Si atom -5569.187857 kJ/mol
# Density = 2.209322 g / cm^3
# Si number density = 22.143616 Si / 1000 Ang^3
#
#
#
# Elastic Constant Matrix: (Units=GPa)
#
#
# Indices 1 2 3 4 5 6 
#
# 1 53.6591 28.6573 2.4117 0.0000 0.0000 0.0000
# 2 28.6573 137.0724 28.9379 0.0000 0.0000 0.0000
# 3 2.4117 28.9379 107.6367 0.0000 0.0000 0.0000
# 4 0.0000 0.0000 0.0000 30.9246 0.0000 0.0000
# 5 0.0000 0.0000 0.0000 0.0000 -25.7965 0.0000
# 6 0.0000 0.0000 0.0000 0.0000 0.0000 34.1857
#
#
#
# Elastic Compliance Matrix: (Units=1/GPa)
#
#
# Indices 1 2 3 4 5 6 
#
# 1 0.021036 -0.004557 0.000754 0.000000 0.000000 0.000000
# 2 -0.004557 0.008722 -0.002243 0.000000 0.000000 0.000000
# 3 0.000754 -0.002243 0.009877 0.000000 0.000000 0.000000
# 4 0.000000 0.000000 0.000000 0.032337 0.000000 0.000000
# 5 0.000000 0.000000 0.000000 0.000000 -0.038765 0.000000
# 6 0.000000 0.000000 0.000000 0.000000 0.000000 0.029252
#
#
# Mechanical properties :
#
#
# Convention : Reuss Voigt Hill
#
# Bulk Modulus (GPa) = 36.30770 46.48687 41.39729
# Shear Modulus (GPa) = 59.71524 23.75351 41.73437
#
# Velocity S-wave (km/s) = 5.19863 3.27877 4.34604
# Velocity P-wave (km/s) = 7.24337 5.94749 6.62718
#
# Compressibility (1/GPa) = 0.02754237
#
# Stress axis : x y z
#
# Youngs Moduli (GPa) = 47.53741 114.65766 101.24984
#
# Poissons Ratio (x) = 0.52251 -0.07633
# Poissons Ratio (y) = 0.21663 0.22707
# Poissons Ratio (z) = -0.03584 0.25714
#
# Static dielectric constant tensor:
#      x y z
#    x 1.838310 0.000000 0.000000 
#    y 0.000000 1.849530 0.000000 
#    z 0.000000 0.000000 1.800280 
# 
# From -- ./inp_files/9490.got.cif
#   From: 2010.05.17/outbox.cif.g08.bks.cpg/sg67_5_cif.got.tgz:9490.got - 2010.06.03 18:28:57.
