data_PCOD9504827
_publ_section_title
;
Structure prediction by ZEFSAII (Michael W. Deem and Ramdas Pophale) SiO2 
 PCOD9504827
Probable space group: C M M A
;
_chemical_formula_sum "Si O2"
_cell_formula_units_Z 84
_cell_length_a 15.575129
_cell_length_b 24.624619
_cell_length_c 10.470486
_cell_angle_alpha 90.000000
_cell_angle_beta 90.000000
_cell_angle_gamma 90.000000
_cell_volume 4015.762432
_symmetry_space_group_name_H-M "C M M A"
_symmetry_group_IT_number 67
_symmetry_cell_setting 'orthorhombic'
loop_
_space_group_symop_operation_xyz
x,y,z
-x,1/2-y,z
x,-y,-z
-x,1/2+y,-z
-x,-y,-z
x,1/2+y,-z
-x,y,z
x,1/2-y,z
1/2+x,1/2+y,z
1/2-x,-y,z
1/2+x,1/2-y,-z
1/2-x,y,-z
1/2-x,1/2-y,-z
1/2+x,y,-z
1/2-x,1/2+y,z
1/2+x,-y,z
loop_
_atom_site_type_symbol
_atom_site_label
_atom_site_fract_x
_atom_site_fract_y
_atom_site_fract_z
Si Si1 0.603630 0.310592 0.464376
Si Si2 0.000000 0.500000 0.000000
Si Si3 0.347066 0.923518 0.460191
Si Si4 0.396270 0.188404 0.164952
Si Si5 0.403992 0.016836 0.294225
Si Si6 0.842688 0.424137 0.942153
O O1 0.500000 0.312724 0.471125
O O2 0.631030 0.250000 0.502265
O O3 0.640620 0.359493 0.546778
O O4 0.626985 0.319098 0.315080
O O5 0.922163 0.547179 0.986850
O O6 0.250000 0.936181 0.500000
O O7 0.404001 0.947115 0.577099
O O8 0.374446 0.957750 0.337593
O O9 0.500000 0.184917 0.160089
O O10 0.371790 0.250000 0.128141
O O11 0.359313 0.139590 0.082233
O O12 0.500000 0.015461 0.233544
O O13 0.344183 0.047044 0.196175
O O14 0.750000 0.432904 0.000000
#
# Coordination Sequence:
#
# PCOD9504827 Si02
#       6
#    16   4  16  16  16  16
#     4   9  17  33  59  90 124 164 209 257 317 391
#     4  12  26  44  58  88 124 180 214 270 338 380
#     4  11  22  33  59  97 125 169 210 259 331 382
#     4   9  17  36  66  94 126 169 217 275 333 396
#     4  11  21  41  62  86 131 167 213 263 322 404
#     4  12  25  42  65  94 130 173 228 281 330 381
#
# _framework density 20.917570999999999
#
# number of rings (size 3 to 8) (size 9 to 14) (size 15 to 20)
#    0.000    1.524    3.810    4.857    0.000    3.810 
#    0.000    0.000    0.000    0.000    0.000    1.333 
#    0.000    0.762    0.000    0.000    0.000    0.000 
#
# Total GULP energy -234354.905639 kJ/mol
# GULP energy per Si atom -5579.878706 kJ/mol
# Density = 2.086996 g / cm^3
# Si number density = 20.917571 Si / 1000 Ang^3
#
#
#
# Elastic Constant Matrix: (Units=GPa)
#
#
# Indices 1 2 3 4 5 6 
#
# 1 128.7071 59.3020 34.2017 0.0000 0.0000 0.0000
# 2 59.3020 201.5318 38.1662 0.0000 0.0000 0.0000
# 3 34.2017 38.1662 44.3913 0.0000 0.0000 0.0000
# 4 0.0000 0.0000 0.0000 39.0077 0.0000 0.0000
# 5 0.0000 0.0000 0.0000 0.0000 -40.6290 0.0000
# 6 0.0000 0.0000 0.0000 0.0000 0.0000 -76.0529
#
#
#
# Elastic Compliance Matrix: (Units=1/GPa)
#
#
# Indices 1 2 3 4 5 6 
#
# 1 0.010303 -0.001826 -0.006368 0.000000 0.000000 0.000000
# 2 -0.001826 0.006251 -0.003967 0.000000 0.000000 0.000000
# 3 -0.006368 -0.003967 0.030845 0.000000 0.000000 0.000000
# 4 0.000000 0.000000 0.000000 0.025636 0.000000 0.000000
# 5 0.000000 0.000000 0.000000 0.000000 -0.024613 0.000000
# 6 0.000000 0.000000 0.000000 0.000000 0.000000 -0.013149
#
#
# Mechanical properties :
#
#
# Convention : Reuss Voigt Hill
#
# Bulk Modulus (GPa) = 43.33662 70.88555 57.11109
# Shear Modulus (GPa) = 74.30830 0.66253 37.48541
#
# Velocity S-wave (km/s) = 5.96670 0.56340 4.23786
# Velocity P-wave (km/s) = 8.26023 5.86386 7.16297
#
# Compressibility (1/GPa) = 0.02307517
#
# Stress axis : x y z
#
# Youngs Moduli (GPa) = 97.05846 159.98543 32.42059
#
# Poissons Ratio (x) = 0.29208 0.20647
# Poissons Ratio (y) = 0.17720 0.12863
# Poissons Ratio (z) = 0.61811 0.63473
#
# Static dielectric constant tensor:
#      x y z
#    x 1.752460 0.000000 0.000000 
#    y 0.000000 1.676910 0.000000 
#    z 0.000000 0.000000 1.608930 
# 
# From -- ./inp_files/18130.got.cif
#   From: 2010.05.17/outbox.cif.g08.bks.cpg/sg67_10_cif.got.tgz:18130.got - 2010.06.03 18:28:57.
