data_PCOD9504127
_publ_section_title
;
Structure prediction by ZEFSAII (Michael W. Deem and Ramdas Pophale) SiO2 
 PCOD9504127
Probable space group: C M M A
;
_chemical_formula_sum "Si O2"
_cell_formula_units_Z 116
_cell_length_a 28.942381
_cell_length_b 8.815369
_cell_length_c 25.859244
_cell_angle_alpha 90.000000
_cell_angle_beta 90.000000
_cell_angle_gamma 90.000000
_cell_volume 6597.669803
_symmetry_space_group_name_H-M "C M M A"
_symmetry_group_IT_number 67
_symmetry_cell_setting 'orthorhombic'
loop_
_space_group_symop_operation_xyz
x,y,z
-x,1/2-y,z
x,-y,-z
-x,1/2+y,-z
-x,-y,-z
x,1/2+y,-z
-x,y,z
x,1/2-y,z
1/2+x,1/2+y,z
1/2-x,-y,z
1/2+x,1/2-y,-z
1/2-x,y,-z
1/2-x,1/2-y,-z
1/2+x,y,-z
1/2-x,1/2+y,z
1/2+x,-y,z
loop_
_atom_site_type_symbol
_atom_site_label
_atom_site_fract_x
_atom_site_fract_y
_atom_site_fract_z
Si Si1 0.146009 0.571092 0.154699
Si Si2 0.052953 0.930408 0.812635
Si Si3 0.355902 0.430346 0.349765
Si Si4 0.834370 0.415494 0.048910
Si Si5 0.801318 0.568172 0.747950
Si Si6 0.250000 0.750000 0.000000
Si Si7 0.553175 0.570298 0.310945
Si Si8 0.800486 0.567613 0.556386
O O1 0.152263 0.750000 0.162167
O O2 0.092308 0.525008 0.159187
O O3 0.164594 0.519531 0.099054
O O4 0.172636 0.481632 0.199841
O O5 0.059751 0.750000 0.821213
O O6 0.057992 0.955525 0.750786
O O7 0.000000 0.968036 0.826550
O O8 0.349166 0.250000 0.352269
O O9 0.328586 0.498628 0.300641
O O10 0.409258 0.472613 0.340679
O O11 0.335925 0.509871 0.400704
O O12 0.856359 0.250000 0.060318
O O13 0.783140 0.373898 0.029867
O O14 0.857025 0.500000 0.000000
O O15 0.800190 0.750000 0.743982
O O16 0.750000 0.500000 0.748599
O O17 0.500000 0.538027 0.324781
O O18 0.561751 0.750000 0.319524
O O19 0.811953 0.500000 0.500000
O O20 0.798292 0.750000 0.554481
O O21 0.750000 0.500000 0.570033
#
# Coordination Sequence:
#
# PCOD9504127 Si02
#       8
#    16  16  16  16  16   4  16  16
#     4  12  24  39  58  89 124 158 197 245 299 361
#     4   9  18  35  61  89 120 158 200 246 300 360
#     4  12  23  37  58  86 122 159 200 250 306 367
#     4  10  21  39  59  82 109 146 193 247 285 336
#     4  12  25  41  56  80 117 160 202 245 300 360
#     4   8  22  36  62  80 104 144 198 236 286 326
#     4   9  18  34  58  86 118 158 203 249 301 361
#     4  11  22  39  61  87 117 156 207 259 307 361
#
# _framework density 17.581965
#
# number of rings (size 3 to 8) (size 9 to 14) (size 15 to 20)
#    0.414    0.966    1.379    7.241    0.000    1.655 
#    0.000    1.379    0.000    0.828    0.000    0.000 
#    0.000    0.000    0.000    0.000    0.000    0.000 
#
# Total GULP energy -323191.492210 kJ/mol
# GULP energy per Si atom -5572.267107 kJ/mol
# Density = 1.754195 g / cm^3
# Si number density = 17.581965 Si / 1000 Ang^3
#
#
#
# Elastic Constant Matrix: (Units=GPa)
#
#
# Indices 1 2 3 4 5 6 
#
# 1 90.1718 47.9567 43.5814 0.0000 0.0000 0.0000
# 2 47.9567 146.7194 39.9661 0.0000 0.0000 0.0000
# 3 43.5814 39.9661 71.3355 0.0000 0.0000 0.0000
# 4 0.0000 0.0000 0.0000 29.6079 0.0000 0.0000
# 5 0.0000 0.0000 0.0000 0.0000 5.1772 0.0000
# 6 0.0000 0.0000 0.0000 0.0000 0.0000 51.0645
#
#
#
# Elastic Compliance Matrix: (Units=1/GPa)
#
#
# Indices 1 2 3 4 5 6 
#
# 1 0.016924 -0.003204 -0.008544 0.000000 0.000000 0.000000
# 2 -0.003204 0.008650 -0.002889 0.000000 0.000000 0.000000
# 3 -0.008544 -0.002889 0.020856 0.000000 0.000000 0.000000
# 4 0.000000 0.000000 0.000000 0.033775 0.000000 0.000000
# 5 0.000000 0.000000 0.000000 0.000000 0.193155 0.000000
# 6 0.000000 0.000000 0.000000 0.000000 0.000000 0.019583
#
#
# Mechanical properties :
#
#
# Convention : Reuss Voigt Hill
#
# Bulk Modulus (GPa) = 58.28780 63.47058 60.87919
# Shear Modulus (GPa) = 15.24690 28.95141 22.09915
#
# Velocity S-wave (km/s) = 2.94800 4.06230 3.54916
# Velocity P-wave (km/s) = 6.69415 7.62766 7.17610
#
# Compressibility (1/GPa) = 0.01715625
#
# Stress axis : x y z
#
# Youngs Moduli (GPa) = 59.08934 115.60804 47.94681
#
# Poissons Ratio (x) = 0.37044 0.40966
# Poissons Ratio (y) = 0.18934 0.13850
# Poissons Ratio (z) = 0.50486 0.33394
#
# Static dielectric constant tensor:
#      x y z
#    x 1.603230 0.000000 0.000000 
#    y 0.000000 1.621660 0.000000 
#    z 0.000000 0.000000 1.583130 
# 
# From -- ./inp_files/42984.got.cif
#   From: 2010.05.17/outbox.cif.g08.bks.cpg/sg67_22_cif.got.tgz:42984.got - 2010.06.03 18:28:57.
