data_PCOD9504616
_publ_section_title
;
Structure prediction by ZEFSAII (Michael W. Deem and Ramdas Pophale) SiO2 
 PCOD9504616
Probable space group: C M M A
;
_chemical_formula_sum "Si O2"
_cell_formula_units_Z 40
_cell_length_a 9.690000
_cell_length_b 27.618666
_cell_length_c 6.909784
_cell_angle_alpha 90.000000
_cell_angle_beta 90.000000
_cell_angle_gamma 90.000000
_cell_volume 1849.230069
_symmetry_space_group_name_H-M "C M M A"
_symmetry_group_IT_number 67
_symmetry_cell_setting 'orthorhombic'
loop_
_space_group_symop_operation_xyz
x,y,z
-x,1/2-y,z
x,-y,-z
-x,1/2+y,-z
-x,-y,-z
x,1/2+y,-z
-x,y,z
x,1/2-y,z
1/2+x,1/2+y,z
1/2-x,-y,z
1/2+x,1/2-y,-z
1/2-x,y,-z
1/2-x,1/2-y,-z
1/2+x,y,-z
1/2-x,1/2+y,z
1/2+x,-y,z
loop_
_atom_site_type_symbol
_atom_site_label
_atom_site_fract_x
_atom_site_fract_y
_atom_site_fract_z
Si Si1 0.750000 0.623333 0.000000
Si Si2 0.662433 0.047742 0.309177
Si Si3 0.844160 0.694578 0.679231
O O1 0.831661 0.588025 0.143817
O O2 0.666957 0.658759 0.141212
O O3 0.500000 0.037940 0.349436
O O4 0.750000 0.063384 0.500000
O O5 0.750000 0.000000 0.246995
O O6 0.806985 0.750000 0.734985
O O7 0.750000 0.679863 0.500000
O O8 0.000000 0.694706 0.607302
#
# Coordination Sequence:
#
# PCOD9504616 Si02
#       3
#     8  16  16
#     4  12  24  38  66  98 126 162 210 260 312 368
#     4  11  25  44  66  92 126 166 208 257 313 373
#     4  10  23  43  65  92 128 168 210 257 310 369
#
# _framework density 21.630625999999999
#
# number of rings (size 3 to 8) (size 9 to 14) (size 15 to 20)
#    0.000    1.200    0.000    6.000    0.000   14.400 
#    0.000    4.000    0.000    0.000    0.000    0.000 
#    0.000    0.000    0.000    0.000    0.000    0.000 
#
# Total GULP energy -111696.037589 kJ/mol
# GULP energy per Si atom -5584.801879 kJ/mol
# Density = 2.158139 g / cm^3
# Si number density = 21.630626 Si / 1000 Ang^3
#
#
#
# Elastic Constant Matrix: (Units=GPa)
#
#
# Indices 1 2 3 4 5 6 
#
# 1 164.6623 57.3582 66.3893 0.0000 0.0000 0.0000
# 2 57.3582 141.1410 77.0097 0.0000 0.0000 0.0000
# 3 66.3893 77.0097 138.9461 0.0000 0.0000 0.0000
# 4 0.0000 0.0000 0.0000 53.6645 0.0000 0.0000
# 5 0.0000 0.0000 0.0000 0.0000 19.2061 0.0000
# 6 0.0000 0.0000 0.0000 0.0000 0.0000 55.7274
#
#
#
# Elastic Compliance Matrix: (Units=1/GPa)
#
#
# Indices 1 2 3 4 5 6 
#
# 1 0.007773 -0.001623 -0.002814 0.000000 0.000000 0.000000
# 2 -0.001623 0.010496 -0.005041 0.000000 0.000000 0.000000
# 3 -0.002814 -0.005041 0.011336 0.000000 0.000000 0.000000
# 4 0.000000 0.000000 0.000000 0.018634 0.000000 0.000000
# 5 0.000000 0.000000 0.000000 0.000000 0.052067 0.000000
# 6 0.000000 0.000000 0.000000 0.000000 0.000000 0.017945
#
#
# Mechanical properties :
#
#
# Convention : Reuss Voigt Hill
#
# Bulk Modulus (GPa) = 93.92847 94.02932 93.97889
# Shear Modulus (GPa) = 35.52212 41.98574 38.75393
#
# Velocity S-wave (km/s) = 4.05682 4.41049 4.23735
# Velocity P-wave (km/s) = 8.09085 8.33675 8.21472
#
# Compressibility (1/GPa) = 0.01064640
#
# Stress axis : x y z
#
# Youngs Moduli (GPa) = 128.64678 95.27852 88.21524
#
# Poissons Ratio (x) = 0.15467 0.24827
# Poissons Ratio (y) = 0.20884 0.44473
# Poissons Ratio (z) = 0.36206 0.48034
#
# Static dielectric constant tensor:
#      x y z
#    x 1.757500 0.000000 0.000000 
#    y 0.000000 1.836640 0.000000 
#    z 0.000000 0.000000 1.760880 
# 
# From -- ./inp_files/5543.got.cif
#   From: 2010.05.17/outbox.cif.g08.bks.cpg/sg67_3_cif.got.tgz:5543.got - 2010.06.03 18:28:57.
