data_PCOD9504870
_publ_section_title
;
Structure prediction by ZEFSAII (Michael W. Deem and Ramdas Pophale) SiO2 
 PCOD9504870
Probable space group: C M M A
;
_chemical_formula_sum "Si O2"
_cell_formula_units_Z 96
_cell_length_a 20.794934
_cell_length_b 8.432571
_cell_length_c 30.855411
_cell_angle_alpha 90.000000
_cell_angle_beta 90.000000
_cell_angle_gamma 90.000000
_cell_volume 5410.643110
_symmetry_space_group_name_H-M "C M M A"
_symmetry_group_IT_number 67
_symmetry_cell_setting 'orthorhombic'
loop_
_space_group_symop_operation_xyz
x,y,z
-x,1/2-y,z
x,-y,-z
-x,1/2+y,-z
-x,-y,-z
x,1/2+y,-z
-x,y,z
x,1/2-y,z
1/2+x,1/2+y,z
1/2-x,-y,z
1/2+x,1/2-y,-z
1/2-x,y,-z
1/2-x,1/2-y,-z
1/2+x,y,-z
1/2-x,1/2+y,z
1/2+x,-y,z
loop_
_atom_site_type_symbol
_atom_site_label
_atom_site_fract_x
_atom_site_fract_y
_atom_site_fract_z
Si Si1 0.821143 0.058251 0.283257
Si Si2 0.926450 0.058299 0.451867
Si Si3 0.320842 0.061923 0.048464
Si Si4 0.821219 0.558337 0.617409
Si Si5 0.073761 0.941527 0.884527
Si Si6 0.073136 0.056578 0.214692
O O1 0.821218 0.250000 0.282755
O O2 0.834141 0.007333 0.332920
O O3 0.874823 0.001675 0.249511
O O4 0.750000 0.000000 0.271419
O O5 0.925867 0.250000 0.451936
O O6 0.875543 0.003081 0.416048
O O7 0.000000 0.007144 0.442570
O O8 0.909638 0.000000 0.500000
O O9 0.318487 0.250000 0.046979
O O10 0.250000 0.000000 0.061019
O O11 0.374940 0.006882 0.081889
O O12 0.334614 0.000000 0.000000
O O13 0.821000 0.750000 0.616964
O O14 0.750000 0.500000 0.605448
O O15 0.075925 0.750000 0.885837
O O16 0.087816 0.990750 0.834837
O O17 0.000000 0.989157 0.894478
O O18 0.073522 0.250000 0.215248
O O19 0.000000 0.007312 0.224976
#
# Coordination Sequence:
#
# PCOD9504870 Si02
#       6
#    16  16  16  16  16  16
#     4   9  17  30  48  70  96 125 158 195 236 281
#     4   9  18  32  48  67  91 119 153 193 236 281
#     4  11  22  37  56  77 103 133 168 208 250 296
#     4   9  18  31  47  68  94 123 155 194 236 280
#     4   9  18  34  54  76 104 135 167 204 245 291
#     4   8  15  29  50  74  98 126 161 199 237 279
#
# _framework density 17.742806999999999
#
# number of rings (size 3 to 8) (size 9 to 14) (size 15 to 20)
#    0.000    2.833    0.000    3.000    0.000    3.000 
#    0.000    7.500    0.000    1.500    0.000    4.667 
#    0.000    0.000    0.000    0.000    0.000    0.000 
#
# Total GULP energy -267636.272077 kJ/mol
# GULP energy per Si atom -5575.755668 kJ/mol
# Density = 1.770242 g / cm^3
# Si number density = 17.742807 Si / 1000 Ang^3
#
#
#
# Elastic Constant Matrix: (Units=GPa)
#
#
# Indices 1 2 3 4 5 6 
#
# 1 174.2448 30.8758 145.3787 0.0000 0.0000 0.0000
# 2 30.8758 24.2156 28.3214 0.0000 0.0000 0.0000
# 3 145.3787 28.3214 142.4225 0.0000 0.0000 0.0000
# 4 0.0000 0.0000 0.0000 14.8446 0.0000 0.0000
# 5 0.0000 0.0000 0.0000 0.0000 44.6246 0.0000
# 6 0.0000 0.0000 0.0000 0.0000 0.0000 24.1651
#
#
#
# Elastic Compliance Matrix: (Units=1/GPa)
#
#
# Indices 1 2 3 4 5 6 
#
# 1 0.039001 -0.004127 -0.038989 0.000000 0.000000 0.000000
# 2 -0.004127 0.054247 -0.006574 0.000000 0.000000 0.000000
# 3 -0.038989 -0.006574 0.048127 0.000000 0.000000 0.000000
# 4 0.000000 0.000000 0.000000 0.067364 0.000000 0.000000
# 5 0.000000 0.000000 0.000000 0.000000 0.022409 0.000000
# 6 0.000000 0.000000 0.000000 0.000000 0.000000 0.041382
#
#
# Mechanical properties :
#
#
# Convention : Reuss Voigt Hill
#
# Bulk Modulus (GPa) = 23.81341 83.33719 53.57530
# Shear Modulus (GPa) = 12.95636 25.81401 19.38519
#
# Velocity S-wave (km/s) = 2.70521 3.81845 3.30898
# Velocity P-wave (km/s) = 4.81748 8.15551 6.69778
#
# Compressibility (1/GPa) = 0.04199315
#
# Stress axis : x y z
#
# Youngs Moduli (GPa) = 25.64057 18.43412 20.77816
#
# Poissons Ratio (x) = 0.07608 0.81013
# Poissons Ratio (y) = 0.10582 0.13660
# Poissons Ratio (z) = 0.99971 0.12119
#
# Static dielectric constant tensor:
#      x y z
#    x 1.588770 0.000000 0.000000 
#    y 0.000000 1.613080 0.000000 
#    z 0.000000 0.000000 1.596310 
# 
# From -- ./inp_files/43488.got.cif
#   From: 2010.05.17/outbox.cif.g08.bks.cpg/sg67_22_cif.got.tgz:43488.got - 2010.06.03 18:28:57.
