data_PCOD9504057
_publ_section_title
;
Structure prediction by ZEFSAII (Michael W. Deem and Ramdas Pophale) SiO2 
 PCOD9504057
Probable space group: C M M A
;
_chemical_formula_sum "Si O2"
_cell_formula_units_Z 88
_cell_length_a 9.477227
_cell_length_b 31.981923
_cell_length_c 17.023991
_cell_angle_alpha 90.000000
_cell_angle_beta 90.000000
_cell_angle_gamma 90.000000
_cell_volume 5159.970722
_symmetry_space_group_name_H-M "C M M A"
_symmetry_group_IT_number 67
_symmetry_cell_setting 'orthorhombic'
loop_
_space_group_symop_operation_xyz
x,y,z
-x,1/2-y,z
x,-y,-z
-x,1/2+y,-z
-x,-y,-z
x,1/2+y,-z
-x,y,z
x,1/2-y,z
1/2+x,1/2+y,z
1/2-x,-y,z
1/2+x,1/2-y,-z
1/2-x,y,-z
1/2-x,1/2-y,-z
1/2+x,y,-z
1/2-x,1/2+y,z
1/2+x,-y,z
loop_
_atom_site_type_symbol
_atom_site_label
_atom_site_fract_x
_atom_site_fract_y
_atom_site_fract_z
Si Si1 0.000000 0.457680 0.887234
Si Si2 0.500000 0.056414 0.932605
Si Si3 0.838960 0.563277 0.426010
Si Si4 0.830094 0.633180 0.668372
Si Si5 0.217353 0.572373 0.807888
Si Si6 0.333637 0.199910 0.419088
Si Si7 0.250000 0.500000 0.299989
O O1 0.869179 0.442735 0.835927
O O2 0.000000 0.507006 0.908936
O O3 0.000000 0.438091 0.974607
O O4 0.631637 0.075918 0.887788
O O5 0.750000 0.547692 0.500000
O O6 0.747279 0.601608 0.392108
O O7 0.841299 0.528756 0.357556
O O8 0.000000 0.574605 0.446290
O O9 0.796284 0.612904 0.753373
O O10 0.751983 0.676563 0.649630
O O11 0.000000 0.634907 0.658021
O O12 0.167258 0.533267 0.753782
O O13 0.500000 0.187619 0.422783
O O14 0.329060 0.250000 0.409570
O O15 0.250000 0.189829 0.500000
#
# Coordination Sequence:
#
# PCOD9504057 Si02
#       7
#     8   8  16  16  16  16   8
#     4  11  22  34  58  78 107 148 183 231 278 331
#     4  11  20  38  54  80 109 142 189 227 276 337
#     4  11  24  38  52  70  97 137 186 232 274 318
#     4  11  23  36  56  79 110 146 179 226 269 320
#     4  11  22  35  53  78 108 141 183 224 273 325
#     4  10  21  38  61  87 116 147 181 220 268 326
#     4  10  23  32  51  68 100 136 182 228 275 314
#
# _framework density 17.054359999999999
#
# number of rings (size 3 to 8) (size 9 to 14) (size 15 to 20)
#    0.000    1.273    2.727    3.000    7.636    4.727 
#    0.000    0.000    0.000    0.000    0.000    0.000 
#    0.000    4.364    0.000    0.000    0.000    0.000 
#
# Total GULP energy -245437.889592 kJ/mol
# GULP energy per Si atom -5578.133854 kJ/mol
# Density = 1.701554 g / cm^3
# Si number density = 17.054360 Si / 1000 Ang^3
#
#
#
# Elastic Constant Matrix: (Units=GPa)
#
#
# Indices 1 2 3 4 5 6 
#
# 1 156.5651 35.2548 46.2680 0.0000 0.0000 0.0000
# 2 35.2548 57.2978 32.6791 0.0000 0.0000 0.0000
# 3 46.2680 32.6791 101.3222 0.0000 0.0000 0.0000
# 4 0.0000 0.0000 0.0000 25.7157 0.0000 0.0000
# 5 0.0000 0.0000 0.0000 0.0000 -209.5079 0.0000
# 6 0.0000 0.0000 0.0000 0.0000 0.0000 14.7648
#
#
#
# Elastic Compliance Matrix: (Units=1/GPa)
#
#
# Indices 1 2 3 4 5 6 
#
# 1 0.007899 -0.003435 -0.002499 0.000000 0.000000 0.000000
# 2 -0.003435 0.022880 -0.005811 0.000000 0.000000 0.000000
# 3 -0.002499 -0.005811 0.012885 0.000000 0.000000 0.000000
# 4 0.000000 0.000000 0.000000 0.038887 0.000000 0.000000
# 5 0.000000 0.000000 0.000000 0.000000 -0.004773 0.000000
# 6 0.000000 0.000000 0.000000 0.000000 0.000000 0.067729
#
#
# Mechanical properties :
#
#
# Convention : Reuss Voigt Hill
#
# Bulk Modulus (GPa) = 49.56821 60.39877 54.98349
# Shear Modulus (GPa) = 28.45409 -20.40659 4.02375
#
# Velocity S-wave (km/s) = 4.08908 -3.46289 1.53769
# Velocity P-wave (km/s) = 7.17091 4.41628 5.95506
#
# Compressibility (1/GPa) = 0.02017422
#
# Stress axis : x y z
#
# Youngs Moduli (GPa) = 126.59603 43.70565 77.60979
#
# Poissons Ratio (x) = 0.15012 0.19397
# Poissons Ratio (y) = 0.43484 0.45099
# Poissons Ratio (z) = 0.31640 0.25397
#
# Static dielectric constant tensor:
#      x y z
#    x 1.567470 0.000000 0.000000 
#    y 0.000000 1.595520 0.000000 
#    z 0.000000 0.000000 1.594710 
# 
# From -- ./inp_files/32493.got.cif
#   From: 2010.05.17/outbox.cif.g08.bks.cpg/sg67_17_cif.got.tgz:32493.got - 2010.06.03 18:28:57.
