data_PCOD9504628
_publ_section_title
;
Structure prediction by ZEFSAII (Michael W. Deem and Ramdas Pophale) SiO2 
 PCOD9504628
Probable space group: C M M A
;
_chemical_formula_sum "Si O2"
_cell_formula_units_Z 80
_cell_length_a 15.957062
_cell_length_b 26.607669
_cell_length_c 8.816006
_cell_angle_alpha 90.000000
_cell_angle_beta 90.000000
_cell_angle_gamma 90.000000
_cell_volume 3743.101801
_symmetry_space_group_name_H-M "C M M A"
_symmetry_group_IT_number 67
_symmetry_cell_setting 'orthorhombic'
loop_
_space_group_symop_operation_xyz
x,y,z
-x,1/2-y,z
x,-y,-z
-x,1/2+y,-z
-x,-y,-z
x,1/2+y,-z
-x,y,z
x,1/2-y,z
1/2+x,1/2+y,z
1/2-x,-y,z
1/2+x,1/2-y,-z
1/2-x,y,-z
1/2-x,1/2-y,-z
1/2+x,y,-z
1/2-x,1/2+y,z
1/2+x,-y,z
loop_
_atom_site_type_symbol
_atom_site_label
_atom_site_fract_x
_atom_site_fract_y
_atom_site_fract_z
Si Si1 0.834307 0.403943 0.390799
Si Si2 0.898627 0.990423 0.821073
Si Si3 0.357427 0.194298 0.148474
Si Si4 0.592042 0.592820 0.694380
Si Si5 0.341992 0.194361 0.806739
O O1 0.750000 0.405254 0.500000
O O2 0.847464 0.445439 0.259522
O O3 0.905929 0.411136 0.514905
O O4 0.848511 0.350107 0.312632
O O5 0.000000 0.982648 0.792396
O O6 0.864086 0.042513 0.751120
O O7 0.888865 0.000000 0.000000
O O8 0.390617 0.250000 0.190064
O O9 0.378302 0.147137 0.252425
O O10 0.257219 0.197693 0.160654
O O11 0.381245 0.183871 0.972841
O O12 0.500000 0.588460 0.761383
O O13 0.370210 0.250000 0.755449
#
# Coordination Sequence:
#
# PCOD9504628 Si02
#       5
#    16  16  16  16  16
#     4  12  23  38  60  93 124 158 204 256 314 368
#     4  10  23  44  66  85 116 166 212 253 308 373
#     4   9  18  37  62  88 117 155 203 251 300 357
#     4  11  23  39  59  87 123 161 198 246 317 379
#     4   9  19  37  61  87 119 156 198 249 303 361
#
# _framework density 21.372648000000002
#
# number of rings (size 3 to 8) (size 9 to 14) (size 15 to 20)
#    0.000    1.800    2.000    3.600    0.000    4.800 
#    0.000    2.000    0.000    4.200    0.000    0.000 
#    0.000    0.000    0.000    0.000    0.000    0.000 
#
# Total GULP energy -222789.564674 kJ/mol
# GULP energy per Si atom -5569.739117 kJ/mol
# Density = 2.132400 g / cm^3
# Si number density = 21.372648 Si / 1000 Ang^3
#
#
#
# Elastic Constant Matrix: (Units=GPa)
#
#
# Indices 1 2 3 4 5 6 
#
# 1 26.1344 3.6875 5.2370 0.0000 0.0000 0.0000
# 2 3.6875 157.9239 89.9879 0.0000 0.0000 0.0000
# 3 5.2370 89.9879 123.7417 0.0000 0.0000 0.0000
# 4 0.0000 0.0000 0.0000 62.5185 0.0000 0.0000
# 5 0.0000 0.0000 0.0000 0.0000 14.4656 0.0000
# 6 0.0000 0.0000 0.0000 0.0000 0.0000 26.9067
#
#
#
# Elastic Compliance Matrix: (Units=1/GPa)
#
#
# Indices 1 2 3 4 5 6 
#
# 1 0.038591 0.000050 -0.001670 0.000000 0.000000 0.000000
# 2 0.000050 0.010813 -0.007866 0.000000 0.000000 0.000000
# 3 -0.001670 -0.007866 0.013872 0.000000 0.000000 0.000000
# 4 0.000000 0.000000 0.000000 0.015995 0.000000 0.000000
# 5 0.000000 0.000000 0.000000 0.000000 0.069130 0.000000
# 6 0.000000 0.000000 0.000000 0.000000 0.000000 0.037165
#
#
# Mechanical properties :
#
#
# Convention : Reuss Voigt Hill
#
# Bulk Modulus (GPa) = 22.57021 56.18054 39.37537
# Shear Modulus (GPa) = 22.79924 34.70399 28.75162
#
# Velocity S-wave (km/s) = 3.26966 4.03396 3.67175
# Velocity P-wave (km/s) = 4.98372 6.93111 6.03646
#
# Compressibility (1/GPa) = 0.04430620
#
# Stress axis : x y z
#
# Youngs Moduli (GPa) = 25.91256 92.48192 72.08741
#
# Poissons Ratio (x) = -0.00467 0.12038
# Poissons Ratio (y) = -0.00131 0.56701
# Poissons Ratio (z) = 0.04327 0.72742
#
# Static dielectric constant tensor:
#      x y z
#    x 1.879130 0.000000 0.000000 
#    y 0.000000 1.837880 0.000000 
#    z 0.000000 0.000000 1.806610 
# 
# From -- ./inp_files/9904.got.cif
#   From: 2010.05.17/outbox.cif.g08.bks.cpg/sg67_5_cif.got.tgz:9904.got - 2010.06.03 18:28:57.
