data_PCOD9504060
_publ_section_title
;
Structure prediction by ZEFSAII (Michael W. Deem and Ramdas Pophale) SiO2 
 PCOD9504060
Probable space group: C M M A
;
_chemical_formula_sum "Si O2"
_cell_formula_units_Z 96
_cell_length_a 18.475877
_cell_length_b 8.910289
_cell_length_c 31.998767
_cell_angle_alpha 90.000000
_cell_angle_beta 90.000000
_cell_angle_gamma 90.000000
_cell_volume 5267.809932
_symmetry_space_group_name_H-M "C M M A"
_symmetry_group_IT_number 67
_symmetry_cell_setting 'orthorhombic'
loop_
_space_group_symop_operation_xyz
x,y,z
-x,1/2-y,z
x,-y,-z
-x,1/2+y,-z
-x,-y,-z
x,1/2+y,-z
-x,y,z
x,1/2-y,z
1/2+x,1/2+y,z
1/2-x,-y,z
1/2+x,1/2-y,-z
1/2-x,y,-z
1/2-x,1/2-y,-z
1/2+x,y,-z
1/2-x,1/2+y,z
1/2+x,-y,z
loop_
_atom_site_type_symbol
_atom_site_label
_atom_site_fract_x
_atom_site_fract_y
_atom_site_fract_z
Si Si1 0.911795 0.076634 0.457466
Si Si2 0.416256 0.566879 0.366050
Si Si3 0.670599 0.570004 0.877809
Si Si4 0.585964 0.571405 0.044732
Si Si5 0.829289 0.430262 0.283792
Si Si6 0.915238 0.570143 0.207058
O O1 0.890421 0.250000 0.459227
O O2 0.890617 0.013706 0.411940
O O3 0.000000 0.071121 0.457251
O O4 0.886533 0.000000 0.500000
O O5 0.500000 0.520895 0.359523
O O6 0.416579 0.750000 0.367710
O O7 0.366955 0.521857 0.327322
O O8 0.675211 0.750000 0.881224
O O9 0.750000 0.500000 0.874262
O O10 0.630518 0.503717 0.918155
O O11 0.624821 0.533187 0.836239
O O12 0.500000 0.544962 0.051300
O O13 0.598153 0.750000 0.043866
O O14 0.605317 0.500000 0.000000
O O15 0.824974 0.250000 0.283175
O O16 0.750000 0.500000 0.280284
O O17 0.877673 0.486481 0.245368
O O18 0.908766 0.750000 0.213359
O O19 0.000000 0.532745 0.204448
#
# Coordination Sequence:
#
# PCOD9504060 Si02
#       6
#    16  16  16  16  16  16
#     4   8  13  23  41  66  95 124 158 204 256 308
#     4   8  15  29  49  72  98 131 171 213 259 314
#     4  11  23  39  59  84 116 151 186 225 272 324
#     4  10  21  38  61  88 117 150 190 234 278 325
#     4  11  22  36  55  78 106 141 180 220 266 320
#     4  10  22  40  61  85 112 141 176 222 273 322
#
# _framework density 18.223891999999999
#
# number of rings (size 3 to 8) (size 9 to 14) (size 15 to 20)
#    0.000    2.333    0.000    4.000    0.000    5.667 
#    0.000    3.333    0.000    4.500    0.000    3.500 
#    0.000    0.000    0.000    0.000    0.000    0.000 
#
# Total GULP energy -267878.714452 kJ/mol
# GULP energy per Si atom -5580.806551 kJ/mol
# Density = 1.818241 g / cm^3
# Si number density = 18.223892 Si / 1000 Ang^3
#
#
#
# Elastic Constant Matrix: (Units=GPa)
#
#
# Indices 1 2 3 4 5 6 
#
# 1 112.2332 55.6814 103.4867 0.0000 0.0000 0.0000
# 2 55.6814 52.2711 75.6981 0.0000 0.0000 0.0000
# 3 103.4867 75.6981 205.9929 0.0000 0.0000 0.0000
# 4 0.0000 0.0000 0.0000 30.3576 0.0000 0.0000
# 5 0.0000 0.0000 0.0000 0.0000 -19.5392 0.0000
# 6 0.0000 0.0000 0.0000 0.0000 0.0000 18.6029
#
#
#
# Elastic Compliance Matrix: (Units=1/GPa)
#
#
# Indices 1 2 3 4 5 6 
#
# 1 0.021052 -0.015197 -0.004992 0.000000 0.000000 0.000000
# 2 -0.015197 0.051864 -0.011424 0.000000 0.000000 0.000000
# 3 -0.004992 -0.011424 0.011560 0.000000 0.000000 0.000000
# 4 0.000000 0.000000 0.000000 0.032941 0.000000 0.000000
# 5 0.000000 0.000000 0.000000 0.000000 -0.051179 0.000000
# 6 0.000000 0.000000 0.000000 0.000000 0.000000 0.053755
#
#
# Mechanical properties :
#
#
# Convention : Reuss Voigt Hill
#
# Bulk Modulus (GPa) = 47.05697 93.35886 70.20791
# Shear Modulus (GPa) = 26.27403 14.92633 20.60018
#
# Velocity S-wave (km/s) = 3.80114 2.86501 3.36578
# Velocity P-wave (km/s) = 6.71882 7.89205 7.32895
#
# Compressibility (1/GPa) = 0.02125084
#
# Stress axis : x y z
#
# Youngs Moduli (GPa) = 47.50111 19.28129 86.50198
#
# Poissons Ratio (x) = 0.29301 0.43179
# Poissons Ratio (y) = 0.72186 0.98822
# Poissons Ratio (z) = 0.23711 0.22027
#
# Static dielectric constant tensor:
#      x y z
#    x 1.599330 0.000000 0.000000 
#    y 0.000000 1.613370 0.000000 
#    z 0.000000 0.000000 1.621890 
# 
# From -- ./inp_files/44579.got.cif
#   From: 2010.05.17/outbox.cif.g08.bks.cpg/sg67_23_cif.got.tgz:44579.got - 2010.06.03 18:28:57.
