data_PCOD9504364
_publ_section_title
;
Structure prediction by ZEFSAII (Michael W. Deem and Ramdas Pophale) SiO2 
 PCOD9504364
Probable space group: C M M A
;
_chemical_formula_sum "Si O2"
_cell_formula_units_Z 72
_cell_length_a 10.552344
_cell_length_b 20.332308
_cell_length_c 17.612191
_cell_angle_alpha 90.000000
_cell_angle_beta 90.000000
_cell_angle_gamma 90.000000
_cell_volume 3778.757368
_symmetry_space_group_name_H-M "C M M A"
_symmetry_group_IT_number 67
_symmetry_cell_setting 'orthorhombic'
loop_
_space_group_symop_operation_xyz
x,y,z
-x,1/2-y,z
x,-y,-z
-x,1/2+y,-z
-x,-y,-z
x,1/2+y,-z
-x,y,z
x,1/2-y,z
1/2+x,1/2+y,z
1/2-x,-y,z
1/2+x,1/2-y,-z
1/2-x,y,-z
1/2-x,1/2-y,-z
1/2+x,y,-z
1/2-x,1/2+y,z
1/2+x,-y,z
loop_
_atom_site_type_symbol
_atom_site_label
_atom_site_fract_x
_atom_site_fract_y
_atom_site_fract_z
Si Si1 0.500000 0.379895 0.898570
Si Si2 0.500000 0.401904 0.065286
Si Si3 0.850941 0.827110 0.432704
Si Si4 0.355584 0.603030 0.720915
Si Si5 0.500000 0.000668 0.793072
Si Si6 0.266526 0.173759 0.134276
O O1 0.500000 0.426294 0.824011
O O2 0.627085 0.337558 0.898095
O O3 0.500000 0.420642 0.977258
O O4 0.500000 0.458464 0.128882
O O5 0.625742 0.359967 0.083252
O O6 0.840672 0.750000 0.408368
O O7 0.750000 0.836616 0.500000
O O8 0.819567 0.876227 0.363437
O O9 0.000000 0.837200 0.454413
O O10 0.500000 0.631388 0.730634
O O11 0.382340 0.526962 0.743383
O O12 0.272660 0.637461 0.784461
O O13 0.294761 0.250000 0.143144
#
# Coordination Sequence:
#
# PCOD9504364 Si02
#       6
#     8   8  16  16   8  16
#     4  12  24  36  53  84 117 138 184 255 304 327
#     4  10  22  38  59  79 104 152 192 236 289 356
#     4   9  16  28  51  86 123 152 184 234 290 347
#     4   8  17  35  57  80 105 157 199 229 266 339
#     4   8  19  38  58  79 103 148 204 233 274 337
#     4  11  22  37  56  82 115 153 192 230 293 367
#
# _framework density 19.053882999999999
#
# number of rings (size 3 to 8) (size 9 to 14) (size 15 to 20)
#    0.667    1.778    1.111    2.333    0.000    7.111 
#    2.000    4.444    0.000    0.000    0.000    4.667 
#    0.000    0.000    0.000    0.000    0.000    0.000 
#
# Total GULP energy -200454.464735 kJ/mol
# GULP energy per Si atom -5568.179576 kJ/mol
# Density = 1.901052 g / cm^3
# Si number density = 19.053883 Si / 1000 Ang^3
#
#
#
# Elastic Constant Matrix: (Units=GPa)
#
#
# Indices 1 2 3 4 5 6 
#
# 1 101.0624 7.0329 24.7764 0.0000 0.0000 0.0000
# 2 7.0329 40.3448 7.1625 0.0000 0.0000 0.0000
# 3 24.7764 7.1625 95.7930 0.0000 0.0000 0.0000
# 4 0.0000 0.0000 0.0000 21.5253 0.0000 0.0000
# 5 0.0000 0.0000 0.0000 0.0000 -29.8163 0.0000
# 6 0.0000 0.0000 0.0000 0.0000 0.0000 -8.6435
#
#
#
# Elastic Compliance Matrix: (Units=1/GPa)
#
#
# Indices 1 2 3 4 5 6 
#
# 1 0.010641 -0.001385 -0.002649 0.000000 0.000000 0.000000
# 2 -0.001385 0.025300 -0.001534 0.000000 0.000000 0.000000
# 3 -0.002649 -0.001534 0.011239 0.000000 0.000000 0.000000
# 4 0.000000 0.000000 0.000000 0.046457 0.000000 0.000000
# 5 0.000000 0.000000 0.000000 0.000000 -0.033539 0.000000
# 6 0.000000 0.000000 0.000000 0.000000 0.000000 -0.115695
#
#
# Mechanical properties :
#
#
# Convention : Reuss Voigt Hill
#
# Bulk Modulus (GPa) = 27.74248 35.01598 31.37923
# Shear Modulus (GPa) = -154.09281 9.82833 -72.13224
#
# Velocity S-wave (km/s) = -9.00265 2.27363 -6.15948
# Velocity P-wave (km/s) = 9.66809 5.03088 5.83790
#
# Compressibility (1/GPa) = 0.03604581
#
# Stress axis : x y z
#
# Youngs Moduli (GPa) = 93.97991 39.52572 88.97680
#
# Poissons Ratio (x) = 0.05473 0.23566
# Poissons Ratio (y) = 0.13013 0.13645
# Poissons Ratio (z) = 0.24892 0.06061
#
# Static dielectric constant tensor:
#      x y z
#    x 1.689970 0.000000 0.000000 
#    y 0.000000 1.678670 0.000000 
#    z 0.000000 0.000000 1.665150 
# 
# From -- ./inp_files/36802.got.cif
#   From: 2010.05.17/outbox.cif.g08.bks.cpg/sg67_19_cif.got.tgz:36802.got - 2010.06.03 18:28:57.
