data_PCOD9504863
_publ_section_title
;
Structure prediction by ZEFSAII (Michael W. Deem and Ramdas Pophale) SiO2 
 PCOD9504863
Probable space group: C M M A
;
_chemical_formula_sum "Si O2"
_cell_formula_units_Z 88
_cell_length_a 24.626614
_cell_length_b 15.275639
_cell_length_c 11.785107
_cell_angle_alpha 90.000000
_cell_angle_beta 90.000000
_cell_angle_gamma 90.000000
_cell_volume 4433.407173
_symmetry_space_group_name_H-M "C M M A"
_symmetry_group_IT_number 67
_symmetry_cell_setting 'orthorhombic'
loop_
_space_group_symop_operation_xyz
x,y,z
-x,1/2-y,z
x,-y,-z
-x,1/2+y,-z
-x,-y,-z
x,1/2+y,-z
-x,y,z
x,1/2-y,z
1/2+x,1/2+y,z
1/2-x,-y,z
1/2+x,1/2-y,-z
1/2-x,y,-z
1/2-x,1/2-y,-z
1/2+x,y,-z
1/2-x,1/2+y,z
1/2+x,-y,z
loop_
_atom_site_type_symbol
_atom_site_label
_atom_site_fract_x
_atom_site_fract_y
_atom_site_fract_z
Si Si1 0.060429 0.648922 0.263118
Si Si2 0.250000 0.500000 0.275505
Si Si3 0.369563 0.503632 0.366917
Si Si4 0.592268 0.101803 0.019222
Si Si5 0.710780 0.849632 0.892659
Si Si6 0.563791 0.650436 0.233281
O O1 0.070796 0.750000 0.291872
O O2 0.105973 0.584446 0.311071
O O3 0.060442 0.639069 0.126782
O O4 0.000000 0.624484 0.305147
O O5 0.305285 0.513025 0.345349
O O6 0.262970 0.415806 0.197026
O O7 0.380939 0.500000 0.500000
O O8 0.400424 0.582684 0.303976
O O9 0.654376 0.113403 0.058700
O O10 0.580587 0.146163 0.899101
O O11 0.579665 0.000000 0.000000
O O12 0.702511 0.750000 0.849100
O O13 0.750000 0.845242 0.000000
O O14 0.500000 0.627507 0.241131
O O15 0.571117 0.750000 0.273653
#
# Coordination Sequence:
#
# PCOD9504863 Si02
#       6
#    16   8  16  16  16  16
#     4  11  24  43  69 100 133 171 217 271 334 403
#     4  12  24  44  66  92 128 173 227 276 334 390
#     4  12  27  46  68  93 127 176 235 287 332 383
#     4  12  21  37  65 103 140 172 212 261 328 406
#     4  11  22  36  61  96 136 175 212 260 325 401
#     4  11  24  42  67 101 139 176 216 268 334 404
#
# _framework density 19.849292999999999
#
# number of rings (size 3 to 8) (size 9 to 14) (size 15 to 20)
#    0.000    0.545    3.636    5.455    0.000    6.545 
#    0.000    1.818    0.000    3.273    0.000    0.000 
#    0.000    0.000    0.000    0.000    0.000    0.000 
#
# Total GULP energy -246079.682442 kJ/mol
# GULP energy per Si atom -5592.720055 kJ/mol
# Density = 1.980411 g / cm^3
# Si number density = 19.849293 Si / 1000 Ang^3
#
#
#
# Elastic Constant Matrix: (Units=GPa)
#
#
# Indices 1 2 3 4 5 6 
#
# 1 138.9415 39.4274 39.7512 0.0000 0.0000 0.0000
# 2 39.4274 110.2961 35.1055 0.0000 0.0000 0.0000
# 3 39.7512 35.1055 113.5772 0.0000 0.0000 0.0000
# 4 0.0000 0.0000 0.0000 -14.1560 0.0000 0.0000
# 5 0.0000 0.0000 0.0000 0.0000 -2.6182 0.0000
# 6 0.0000 0.0000 0.0000 0.0000 0.0000 46.6517
#
#
#
# Elastic Compliance Matrix: (Units=1/GPa)
#
#
# Indices 1 2 3 4 5 6 
#
# 1 0.008502 -0.002320 -0.002258 0.000000 0.000000 0.000000
# 2 -0.002320 0.010689 -0.002492 0.000000 0.000000 0.000000
# 3 -0.002258 -0.002492 0.010365 0.000000 0.000000 0.000000
# 4 0.000000 0.000000 0.000000 -0.070641 0.000000 0.000000
# 5 0.000000 0.000000 0.000000 0.000000 -0.381944 0.000000
# 6 0.000000 0.000000 0.000000 0.000000 0.000000 0.021435
#
#
# Mechanical properties :
#
#
# Convention : Reuss Voigt Hill
#
# Bulk Modulus (GPa) = 64.87156 65.70923 65.29039
# Shear Modulus (GPa) = -13.07825 22.54421 4.73298
#
# Velocity S-wave (km/s) = -2.56965 3.37377 1.54584
# Velocity P-wave (km/s) = 4.89376 6.95359 6.01254
#
# Compressibility (1/GPa) = 0.01541508
#
# Stress axis : x y z
#
# Youngs Moduli (GPa) = 117.62163 93.55377 96.47684
#
# Poissons Ratio (x) = 0.21708 0.21788
# Poissons Ratio (y) = 0.27292 0.24040
# Poissons Ratio (z) = 0.26564 0.23311
#
# Static dielectric constant tensor:
#      x y z
#    x 1.701450 0.000000 0.000000 
#    y 0.000000 1.712280 0.000000 
#    z 0.000000 0.000000 1.670190 
# 
# From -- ./inp_files/18076.got.cif
#   From: 2010.05.17/outbox.cif.g08.bks.cpg/sg67_10_cif.got.tgz:18076.got - 2010.06.03 18:28:57.
