data_PCOD9504806
_publ_section_title
;
Structure prediction by ZEFSAII (Michael W. Deem and Ramdas Pophale) SiO2 
 PCOD9504806
Probable space group: C M M A
;
_chemical_formula_sum "Si O2"
_cell_formula_units_Z 112
_cell_length_a 14.791511
_cell_length_b 22.830749
_cell_length_c 16.789510
_cell_angle_alpha 90.000000
_cell_angle_beta 90.000000
_cell_angle_gamma 90.000000
_cell_volume 5669.838933
_symmetry_space_group_name_H-M "C M M A"
_symmetry_group_IT_number 67
_symmetry_cell_setting 'orthorhombic'
loop_
_space_group_symop_operation_xyz
x,y,z
-x,1/2-y,z
x,-y,-z
-x,1/2+y,-z
-x,-y,-z
x,1/2+y,-z
-x,y,z
x,1/2-y,z
1/2+x,1/2+y,z
1/2-x,-y,z
1/2+x,1/2-y,-z
1/2-x,y,-z
1/2-x,1/2-y,-z
1/2+x,y,-z
1/2-x,1/2+y,z
1/2+x,-y,z
loop_
_atom_site_type_symbol
_atom_site_label
_atom_site_fract_x
_atom_site_fract_y
_atom_site_fract_z
Si Si1 0.109764 0.686015 0.018071
Si Si2 0.750556 0.595727 0.595419
Si Si3 0.396074 0.111089 0.164594
Si Si4 0.755275 0.319382 0.729886
Si Si5 0.893938 0.360028 0.149991
Si Si6 0.102967 0.000144 0.596877
Si Si7 0.142393 0.491586 0.091964
O O1 0.138369 0.750000 0.046516
O O2 0.137543 0.636447 0.079404
O O3 0.000000 0.684609 0.015634
O O4 0.139481 0.674386 0.928631
O O5 0.750000 0.601236 0.500000
O O6 0.750979 0.656854 0.640261
O O7 0.837893 0.556618 0.619470
O O8 0.662936 0.556618 0.618774
O O9 0.500000 0.128477 0.176935
O O10 0.334042 0.142416 0.228773
O O11 0.391725 0.041713 0.151996
O O12 0.769916 0.250000 0.735807
O O13 0.665200 0.338748 0.776683
O O14 0.881616 0.428066 0.126233
O O15 0.000000 0.348523 0.162458
O O16 0.000000 0.000668 0.626629
O O17 0.099897 0.000000 0.500000
O O18 0.250000 0.500000 0.089602
O O19 0.109106 0.500000 0.000000
#
# Coordination Sequence:
#
# PCOD9504806 Si02
#       7
#    16  16  16  16  16  16  16
#     4   9  18  34  57  82 111 154 204 241 280 349
#     4   9  20  39  64  93 123 159 203 244 297 373
#     4  11  23  40  62  87 118 159 202 248 306 363
#     4  12  27  43  59  85 124 162 205 263 307 350
#     4  11  23  40  62  87 118 159 202 248 306 363
#     4   8  15  33  65  99 125 147 180 238 302 360
#     4  11  21  37  62  92 125 159 199 252 309 364
#
# _framework density 19.753647999999998
#
# number of rings (size 3 to 8) (size 9 to 14) (size 15 to 20)
#    0.000    1.857    2.857    2.143    0.000    6.571 
#    0.000    1.429    0.000    0.000    0.000    6.000 
#    0.000    0.000    0.000    0.000    0.000    0.000 
#
# Total GULP energy -312806.106458 kJ/mol
# GULP energy per Si atom -5585.823330 kJ/mol
# Density = 1.970869 g / cm^3
# Si number density = 19.753648 Si / 1000 Ang^3
#
#
#
# Elastic Constant Matrix: (Units=GPa)
#
#
# Indices 1 2 3 4 5 6 
#
# 1 112.2792 4.0532 21.3905 0.0000 0.0000 0.0000
# 2 4.0532 103.0739 32.3207 0.0000 0.0000 0.0000
# 3 21.3905 32.3207 58.8491 0.0000 0.0000 0.0000
# 4 0.0000 0.0000 0.0000 26.8842 0.0000 0.0000
# 5 0.0000 0.0000 0.0000 0.0000 9.9308 0.0000
# 6 0.0000 0.0000 0.0000 0.0000 0.0000 10.7489
#
#
#
# Elastic Compliance Matrix: (Units=1/GPa)
#
#
# Indices 1 2 3 4 5 6 
#
# 1 0.009633 0.000869 -0.003979 0.000000 0.000000 0.000000
# 2 0.000869 0.011799 -0.006796 0.000000 0.000000 0.000000
# 3 -0.003979 -0.006796 0.022171 0.000000 0.000000 0.000000
# 4 0.000000 0.000000 0.000000 0.037197 0.000000 0.000000
# 5 0.000000 0.000000 0.000000 0.000000 0.100697 0.000000
# 6 0.000000 0.000000 0.000000 0.000000 0.000000 0.093033
#
#
# Mechanical properties :
#
#
# Convention : Reuss Voigt Hill
#
# Bulk Modulus (GPa) = 42.03167 43.30344 42.66756
# Shear Modulus (GPa) = 16.54151 23.94197 20.24174
#
# Velocity S-wave (km/s) = 2.89691 3.48520 3.20458
# Velocity P-wave (km/s) = 5.70207 6.17777 5.94468
#
# Compressibility (1/GPa) = 0.02379158
#
# Stress axis : x y z
#
# Youngs Moduli (GPa) = 103.81023 84.75632 45.10392
#
# Poissons Ratio (x) = -0.07363 0.17945
# Poissons Ratio (y) = -0.09018 0.30651
# Poissons Ratio (z) = 0.41301 0.57598
#
# Static dielectric constant tensor:
#      x y z
#    x 1.713580 0.000000 0.000000 
#    y 0.000000 1.673740 0.000000 
#    z 0.000000 0.000000 1.698870 
# 
# From -- ./inp_files/18633.got.cif
#   From: 2010.05.17/outbox.cif.g08.bks.cpg/sg67_10_cif.got.tgz:18633.got - 2010.06.03 18:28:57.
