data_PCOD9504491
_publ_section_title
;
Structure prediction by ZEFSAII (Michael W. Deem and Ramdas Pophale) SiO2 
 PCOD9504491
Probable space group: C M M A
;
_chemical_formula_sum "Si O2"
_cell_formula_units_Z 116
_cell_length_a 15.769733
_cell_length_b 26.951639
_cell_length_c 11.928995
_cell_angle_alpha 90.000000
_cell_angle_beta 90.000000
_cell_angle_gamma 90.000000
_cell_volume 5070.063255
_symmetry_space_group_name_H-M "C M M A"
_symmetry_group_IT_number 67
_symmetry_cell_setting 'orthorhombic'
loop_
_space_group_symop_operation_xyz
x,y,z
-x,1/2-y,z
x,-y,-z
-x,1/2+y,-z
-x,-y,-z
x,1/2+y,-z
-x,y,z
x,1/2-y,z
1/2+x,1/2+y,z
1/2-x,-y,z
1/2+x,1/2-y,-z
1/2-x,y,-z
1/2-x,1/2-y,-z
1/2+x,y,-z
1/2-x,1/2+y,z
1/2+x,-y,z
loop_
_atom_site_type_symbol
_atom_site_label
_atom_site_fract_x
_atom_site_fract_y
_atom_site_fract_z
Si Si1 0.101420 0.954550 0.918157
Si Si2 0.500000 0.250000 0.249483
Si Si3 0.344051 0.482651 0.678247
Si Si4 0.409102 0.591578 0.700214
Si Si5 0.598767 0.341206 0.967781
Si Si6 0.339872 0.179832 0.196975
Si Si7 0.150492 0.112474 0.464210
Si Si8 0.652353 0.694882 0.276283
O O1 0.151154 0.959849 0.802215
O O2 0.115954 0.900136 0.968043
O O3 0.000000 0.958101 0.894012
O O4 0.123277 0.000000 0.000000
O O5 0.423366 0.207149 0.244233
O O6 0.250000 0.500000 0.648397
O O7 0.395335 0.533553 0.682814
O O8 0.371140 0.440160 0.592759
O O9 0.500000 0.598135 0.754667
O O10 0.343574 0.620951 0.776369
O O11 0.401120 0.616581 0.578577
O O12 0.500000 0.332574 0.996863
O O13 0.613714 0.322105 0.842300
O O14 0.654354 0.314812 0.062900
O O15 0.253250 0.196761 0.252987
O O16 0.250000 0.112442 0.500000
O O17 0.134995 0.155557 0.374280
O O18 0.622228 0.750000 0.306041
#
# Coordination Sequence:
#
# PCOD9504491 Si02
#       8
#    16   4  16  16  16  16  16  16
#     4  10  22  41  64  97 141 187 226 276 341 418
#     4  12  24  44  78 102 136 188 242 294 356 400
#     4  12  23  41  70  99 135 182 228 280 350 413
#     4  12  26  44  72 104 139 181 235 293 349 422
#     4  11  24  43  70 100 146 183 228 291 351 425
#     4  12  24  46  71 104 139 183 236 293 350 418
#     4  12  25  47  68  98 139 182 231 291 351 415
#     4  12  27  46  73 103 136 188 237 292 360 425
#
# _framework density 22.879397999999998
#
# number of rings (size 3 to 8) (size 9 to 14) (size 15 to 20)
#    0.000    0.414    6.207    2.069    0.966    4.690 
#    3.724    0.000    0.000    0.000    0.000    0.000 
#    0.000    0.000    0.000    0.000    0.000    0.000 
#
# Total GULP energy -324109.525081 kJ/mol
# GULP energy per Si atom -5588.095260 kJ/mol
# Density = 2.282732 g / cm^3
# Si number density = 22.879398 Si / 1000 Ang^3
#
#
#
# Elastic Constant Matrix: (Units=GPa)
#
#
# Indices 1 2 3 4 5 6 
#
# 1 35.2776 2.7099 -14.5201 0.0000 0.0000 0.0000
# 2 2.7099 130.2291 19.2954 0.0000 0.0000 0.0000
# 3 -14.5201 19.2954 84.0699 0.0000 0.0000 0.0000
# 4 0.0000 0.0000 0.0000 -0.3601 0.0000 0.0000
# 5 0.0000 0.0000 0.0000 0.0000 17.3742 0.0000
# 6 0.0000 0.0000 0.0000 0.0000 0.0000 26.0611
#
#
#
# Elastic Compliance Matrix: (Units=1/GPa)
#
#
# Indices 1 2 3 4 5 6 
#
# 1 0.030789 -0.001479 0.005657 0.000000 0.000000 0.000000
# 2 -0.001479 0.008020 -0.002096 0.000000 0.000000 0.000000
# 3 0.005657 -0.002096 0.013353 0.000000 0.000000 0.000000
# 4 0.000000 0.000000 0.000000 -2.776946 0.000000 0.000000
# 5 0.000000 0.000000 0.000000 0.000000 0.057557 0.000000
# 6 0.000000 0.000000 0.000000 0.000000 0.000000 0.038371
#
#
# Mechanical properties :
#
#
# Convention : Reuss Voigt Hill
#
# Bulk Modulus (GPa) = 17.75386 29.39412 23.57399
# Shear Modulus (GPa) = -1.91260 24.75446 11.42093
#
# Velocity S-wave (km/s) = -0.91529 3.29288 2.23666
# Velocity P-wave (km/s) = 2.58062 5.22807 4.12264
#
# Compressibility (1/GPa) = 0.05632579
#
# Stress axis : x y z
#
# Youngs Moduli (GPa) = 32.47959 124.68636 74.88941
#
# Poissons Ratio (x) = 0.18439 -0.42365
# Poissons Ratio (y) = 0.04803 0.15698
# Poissons Ratio (z) = -0.18374 0.26136
#
# Static dielectric constant tensor:
#      x y z
#    x 1.842820 0.000000 0.000000 
#    y 0.000000 1.892640 0.000000 
#    z 0.000000 0.000000 1.814880 
# 
# From -- ./inp_files/19977.got.cif
#   From: 2010.05.17/outbox.cif.g08.bks.cpg/sg67_10_cif.got.tgz:19977.got - 2010.06.03 18:28:57.
