data_PCOD9504321
_publ_section_title
;
Structure prediction by ZEFSAII (Michael W. Deem and Ramdas Pophale) SiO2 
 PCOD9504321
Probable space group: C M M A
;
_chemical_formula_sum "Si O2"
_cell_formula_units_Z 72
_cell_length_a 9.710418
_cell_length_b 24.875199
_cell_length_c 16.105207
_cell_angle_alpha 90.000000
_cell_angle_beta 90.000000
_cell_angle_gamma 90.000000
_cell_volume 3890.189883
_symmetry_space_group_name_H-M "C M M A"
_symmetry_group_IT_number 67
_symmetry_cell_setting 'orthorhombic'
loop_
_space_group_symop_operation_xyz
x,y,z
-x,1/2-y,z
x,-y,-z
-x,1/2+y,-z
-x,-y,-z
x,1/2+y,-z
-x,y,z
x,1/2-y,z
1/2+x,1/2+y,z
1/2-x,-y,z
1/2+x,1/2-y,-z
1/2-x,y,-z
1/2-x,1/2-y,-z
1/2+x,y,-z
1/2-x,1/2+y,z
1/2+x,-y,z
loop_
_atom_site_type_symbol
_atom_site_label
_atom_site_fract_x
_atom_site_fract_y
_atom_site_fract_z
Si Si1 0.500000 0.313346 0.779891
Si Si2 0.000000 0.457996 0.112020
Si Si3 0.658694 0.946700 0.657669
Si Si4 0.250000 0.621384 0.500000
Si Si5 0.000000 0.583890 0.072759
Si Si6 0.500000 0.313995 0.581351
Si Si7 0.741498 0.891723 0.178754
O O1 0.500000 0.250000 0.794879
O O2 0.500000 0.323386 0.680561
O O3 0.362364 0.341436 0.815584
O O4 0.861708 0.440620 0.157883
O O5 0.000000 0.521509 0.100959
O O6 0.000000 0.423683 0.026247
O O7 0.500000 0.962683 0.663250
O O8 0.687928 0.916181 0.571808
O O9 0.692462 0.905976 0.732744
O O10 0.750000 0.000000 0.663119
O O11 0.367350 0.658247 0.459260
O O12 0.137123 0.610636 0.110804
O O13 0.500000 0.250000 0.567261
#
# Coordination Sequence:
#
# PCOD9504321 Si02
#       7
#     8   8  16   8   8   8  16
#     4  10  23  43  65  87 116 159 209 258 316 368
#     4  10  22  36  59  95 130 166 194 232 297 372
#     4  12  26  39  60  89 127 167 203 245 300 373
#     4  12  24  42  60  90 124 158 208 258 304 372
#     4  11  20  37  61  94 132 158 195 246 296 354
#     4  11  23  42  64  86 117 160 210 270 323 356
#     4  11  22  38  62  88 122 162 205 246 300 362
#
# _framework density 18.508094
#
# number of rings (size 3 to 8) (size 9 to 14) (size 15 to 20)
#    0.000    0.889    4.444    3.333    4.667    2.667 
#    0.000    0.556    0.000   10.667    0.000    0.000 
#    0.000    0.000    0.000    0.000    0.000    0.000 
#
# Total GULP energy -201239.769089 kJ/mol
# GULP energy per Si atom -5589.993586 kJ/mol
# Density = 1.846597 g / cm^3
# Si number density = 18.508094 Si / 1000 Ang^3
#
#
#
# Elastic Constant Matrix: (Units=GPa)
#
#
# Indices 1 2 3 4 5 6 
#
# 1 166.4963 53.0121 37.5728 0.0000 0.0000 0.0000
# 2 53.0121 87.7645 26.6791 0.0000 0.0000 0.0000
# 3 37.5728 26.6791 82.4693 0.0000 0.0000 0.0000
# 4 0.0000 0.0000 0.0000 -5.9425 0.0000 0.0000
# 5 0.0000 0.0000 0.0000 0.0000 48.3714 0.0000
# 6 0.0000 0.0000 0.0000 0.0000 0.0000 7.5878
#
#
#
# Elastic Compliance Matrix: (Units=1/GPa)
#
#
# Indices 1 2 3 4 5 6 
#
# 1 0.007795 -0.004025 -0.002249 0.000000 0.000000 0.000000
# 2 -0.004025 0.014715 -0.002927 0.000000 0.000000 0.000000
# 3 -0.002249 -0.002927 0.014097 0.000000 0.000000 0.000000
# 4 0.000000 0.000000 0.000000 -0.168280 0.000000 0.000000
# 5 0.000000 0.000000 0.000000 0.000000 0.020673 0.000000
# 6 0.000000 0.000000 0.000000 0.000000 0.000000 0.131790
#
#
# Mechanical properties :
#
#
# Convention : Reuss Voigt Hill
#
# Bulk Modulus (GPa) = 54.92773 63.47311 59.20042
# Shear Modulus (GPa) = 110.47086 24.63442 67.55264
#
# Velocity S-wave (km/s) = 7.73417 3.65226 6.04799
# Velocity P-wave (km/s) = 10.46416 7.22181 8.99036
#
# Compressibility (1/GPa) = 0.01820574
#
# Stress axis : x y z
#
# Youngs Moduli (GPa) = 128.28342 67.95867 70.93527
#
# Poissons Ratio (x) = 0.27351 0.15957
# Poissons Ratio (y) = 0.51631 0.20760
# Poissons Ratio (z) = 0.28857 0.19889
#
# Static dielectric constant tensor:
#      x y z
#    x 1.621620 0.000000 0.000000 
#    y 0.000000 1.597750 0.000000 
#    z 0.000000 0.000000 1.648520 
# 
# From -- ./inp_files/25156.got.cif
#   From: 2010.05.17/outbox.cif.g08.bks.cpg/sg67_13_cif.got.tgz:25156.got - 2010.06.03 18:28:57.
