data_PCOD9504262
_publ_section_title
;
Structure prediction by ZEFSAII (Michael W. Deem and Ramdas Pophale) SiO2 
 PCOD9504262
Probable space group: C M M A
;
_chemical_formula_sum "Si O2"
_cell_formula_units_Z 100
_cell_length_a 21.878479
_cell_length_b 16.822624
_cell_length_c 12.961861
_cell_angle_alpha 90.000000
_cell_angle_beta 90.000000
_cell_angle_gamma 90.000000
_cell_volume 4770.657347
_symmetry_space_group_name_H-M "C M M A"
_symmetry_group_IT_number 67
_symmetry_cell_setting 'orthorhombic'
loop_
_space_group_symop_operation_xyz
x,y,z
-x,1/2-y,z
x,-y,-z
-x,1/2+y,-z
-x,-y,-z
x,1/2+y,-z
-x,y,z
x,1/2-y,z
1/2+x,1/2+y,z
1/2-x,-y,z
1/2+x,1/2-y,-z
1/2-x,y,-z
1/2-x,1/2-y,-z
1/2+x,y,-z
1/2-x,1/2+y,z
1/2+x,-y,z
loop_
_atom_site_type_symbol
_atom_site_label
_atom_site_fract_x
_atom_site_fract_y
_atom_site_fract_z
Si Si1 0.359400 0.343179 0.146301
Si Si2 0.000000 0.250000 0.135085
Si Si3 0.567700 0.478176 0.218227
Si Si4 0.568492 0.423936 0.574712
Si Si5 0.278840 0.654844 0.185010
Si Si6 0.402626 0.885169 0.078190
Si Si7 0.198223 0.654224 0.579701
O O1 0.366324 0.250000 0.172805
O O2 0.385531 0.406051 0.227207
O O3 0.287452 0.360228 0.136813
O O4 0.396282 0.361568 0.041461
O O5 0.946587 0.319737 0.129443
O O6 0.500000 0.443502 0.223857
O O7 0.574121 0.541419 0.309884
O O8 0.574646 0.528572 0.113476
O O9 0.569243 0.500000 0.500000
O O10 0.500000 0.386385 0.565445
O O11 0.629076 0.372784 0.555107
O O12 0.287532 0.750000 0.182580
O O13 0.334174 0.618525 0.122316
O O14 0.283422 0.628986 0.304244
O O15 0.199160 0.750000 0.577789
O O16 0.250000 0.625288 0.500000
#
# Coordination Sequence:
#
# PCOD9504262 Si02
#       7
#    16   4  16  16  16  16  16
#     4  11  25  41  64  90 132 182 221 263 321 396
#     4  12  24  36  72 104 122 174 230 264 334 404
#     4  11  25  42  64  97 131 169 217 281 331 385
#     4  10  23  45  67  93 130 170 213 269 336 397
#     4  10  21  41  63  93 130 169 211 265 326 391
#     4  12  22  41  65  96 131 168 219 272 327 394
#     4  10  22  41  69 100 129 162 215 273 331 397
#
# _framework density 20.961472000000001
#
# number of rings (size 3 to 8) (size 9 to 14) (size 15 to 20)
#    0.000    1.280    4.000    0.960    3.360    3.520 
#    0.000    1.600    0.000    2.880    0.000    0.000 
#    0.000    0.000    0.000    0.000    0.000    0.000 
#
# Total GULP energy -278708.037144 kJ/mol
# GULP energy per Si atom -5574.160743 kJ/mol
# Density = 2.091376 g / cm^3
# Si number density = 20.961472 Si / 1000 Ang^3
#
#
#
# Elastic Constant Matrix: (Units=GPa)
#
#
# Indices 1 2 3 4 5 6 
#
# 1 121.3454 41.3781 2.2707 0.0000 0.0000 0.0000
# 2 41.3781 57.0456 -3.8880 0.0000 0.0000 0.0000
# 3 2.2707 -3.8880 36.1240 0.0000 0.0000 0.0000
# 4 0.0000 0.0000 0.0000 13.4133 0.0000 0.0000
# 5 0.0000 0.0000 0.0000 0.0000 -7.9849 0.0000
# 6 0.0000 0.0000 0.0000 0.0000 0.0000 55.1658
#
#
#
# Elastic Compliance Matrix: (Units=1/GPa)
#
#
# Indices 1 2 3 4 5 6 
#
# 1 0.011036 -0.008112 -0.001567 0.000000 0.000000 0.000000
# 2 -0.008112 0.023622 0.003052 0.000000 0.000000 0.000000
# 3 -0.001567 0.003052 0.028109 0.000000 0.000000 0.000000
# 4 0.000000 0.000000 0.000000 0.074553 0.000000 0.000000
# 5 0.000000 0.000000 0.000000 0.000000 -0.125237 0.000000
# 6 0.000000 0.000000 0.000000 0.000000 0.000000 0.018127
#
#
# Mechanical properties :
#
#
# Convention : Reuss Voigt Hill
#
# Bulk Modulus (GPa) = 20.19603 32.67072 26.43338
# Shear Modulus (GPa) = 83.37589 23.76913 53.57251
#
# Velocity S-wave (km/s) = 6.31365 3.37106 5.06094
# Velocity P-wave (km/s) = 7.92498 5.54725 6.84022
#
# Compressibility (1/GPa) = 0.04951468
#
# Stress axis : x y z
#
# Youngs Moduli (GPa) = 90.60896 42.33342 35.57526
#
# Poissons Ratio (x) = 0.34341 0.05574
# Poissons Ratio (y) = 0.73503 -0.10859
# Poissons Ratio (z) = 0.14197 -0.12921
#
# Static dielectric constant tensor:
#      x y z
#    x 1.742910 0.000000 0.000000 
#    y 0.000000 1.733940 0.000000 
#    z 0.000000 0.000000 1.813580 
# 
# From -- ./inp_files/29487.got.cif
#   From: 2010.05.17/outbox.cif.g08.bks.cpg/sg67_15_cif.got.tgz:29487.got - 2010.06.03 18:28:57.
