data_PCOD9504214
_publ_section_title
;
Structure prediction by ZEFSAII (Michael W. Deem and Ramdas Pophale) SiO2 
 PCOD9504214
Probable space group: C M M A
;
_chemical_formula_sum "Si O2"
_cell_formula_units_Z 88
_cell_length_a 9.033452
_cell_length_b 14.985012
_cell_length_c 31.777838
_cell_angle_alpha 90.000000
_cell_angle_beta 90.000000
_cell_angle_gamma 90.000000
_cell_volume 4301.651105
_symmetry_space_group_name_H-M "C M M A"
_symmetry_group_IT_number 67
_symmetry_cell_setting 'orthorhombic'
loop_
_space_group_symop_operation_xyz
x,y,z
-x,1/2-y,z
x,-y,-z
-x,1/2+y,-z
-x,-y,-z
x,1/2+y,-z
-x,y,z
x,1/2-y,z
1/2+x,1/2+y,z
1/2-x,-y,z
1/2+x,1/2-y,-z
1/2-x,y,-z
1/2-x,1/2-y,-z
1/2+x,y,-z
1/2-x,1/2+y,z
1/2+x,-y,z
loop_
_atom_site_type_symbol
_atom_site_label
_atom_site_fract_x
_atom_site_fract_y
_atom_site_fract_z
Si Si1 0.678580 0.901867 0.111906
Si Si2 0.330707 0.859345 0.542569
Si Si3 0.667405 0.644161 0.280804
Si Si4 0.323294 0.750000 0.045388
Si Si5 0.676557 0.097230 0.196067
Si Si6 0.325729 0.641880 0.372754
O O1 0.500000 0.909039 0.116350
O O2 0.714198 0.837032 0.073178
O O3 0.747927 0.860722 0.154733
O O4 0.750000 0.000000 0.105752
O O5 0.500000 0.887023 0.541233
O O6 0.325975 0.750000 0.542763
O O7 0.250000 0.888015 0.500000
O O8 0.257457 0.890887 0.585963
O O9 0.500000 0.608163 0.272282
O O10 0.651394 0.750000 0.286078
O O11 0.773637 0.632481 0.241323
O O12 0.723196 0.610303 0.326256
O O13 0.500000 0.750000 0.040176
O O14 0.250000 0.750000 0.000000
O O15 0.500000 0.096344 0.191830
O O16 0.750000 0.000000 0.195534
O O17 0.500000 0.622619 0.375997
O O18 0.309707 0.750000 0.373539
#
# Coordination Sequence:
#
# PCOD9504214 Si02
#       6
#    16  16  16   8  16  16
#     4  10  21  40  62  88 119 158 198 242 295 347
#     4   9  15  21  31  48  73 109 152 198 247 301
#     4   9  18  32  50  72 101 137 171 211 265 323
#     4  10  24  42  64  92 124 160 200 242 293 348
#     4  11  22  36  55  80 108 142 182 226 271 322
#     4   8  14  25  39  56  82 117 156 197 248 308
#
# _framework density 20.457262
#
# number of rings (size 3 to 8) (size 9 to 14) (size 15 to 20)
#    0.000    2.545    0.000    4.909    1.273    5.091 
#    0.000    3.636    0.000    0.000    0.000    0.000 
#    0.000    0.727    0.000    7.636    0.000   10.545 
#
# Total GULP energy -245432.595659 kJ/mol
# GULP energy per Si atom -5578.013538 kJ/mol
# Density = 2.041070 g / cm^3
# Si number density = 20.457262 Si / 1000 Ang^3
#
#
#
# Elastic Constant Matrix: (Units=GPa)
#
#
# Indices 1 2 3 4 5 6 
#
# 1 112.0662 30.5614 108.6496 0.0000 0.0000 0.0000
# 2 30.5614 56.6726 44.6245 0.0000 0.0000 0.0000
# 3 108.6496 44.6245 240.4563 0.0000 0.0000 0.0000
# 4 0.0000 0.0000 0.0000 5.7871 0.0000 0.0000
# 5 0.0000 0.0000 0.0000 0.0000 33.8076 0.0000
# 6 0.0000 0.0000 0.0000 0.0000 0.0000 15.5001
#
#
#
# Elastic Compliance Matrix: (Units=1/GPa)
#
#
# Indices 1 2 3 4 5 6 
#
# 1 0.016464 -0.003538 -0.006783 0.000000 0.000000 0.000000
# 2 -0.003538 0.021425 -0.002378 0.000000 0.000000 0.000000
# 3 -0.006783 -0.002378 0.007665 0.000000 0.000000 0.000000
# 4 0.000000 0.000000 0.000000 0.172799 0.000000 0.000000
# 5 0.000000 0.000000 0.000000 0.000000 0.029579 0.000000
# 6 0.000000 0.000000 0.000000 0.000000 0.000000 0.064516
#
#
# Mechanical properties :
#
#
# Convention : Reuss Voigt Hill
#
# Bulk Modulus (GPa) = 49.60842 86.31847 67.96344
# Shear Modulus (GPa) = 14.51114 26.04293 20.27704
#
# Velocity S-wave (km/s) = 2.66623 3.57184 3.15173
# Velocity P-wave (km/s) = 5.81213 7.70045 6.82194
#
# Compressibility (1/GPa) = 0.02015787
#
# Stress axis : x y z
#
# Youngs Moduli (GPa) = 60.73890 46.67416 130.46758
#
# Poissons Ratio (x) = 0.16512 0.88492
# Poissons Ratio (y) = 0.21487 0.31021
# Poissons Ratio (z) = 0.41197 0.11098
#
# Static dielectric constant tensor:
#      x y z
#    x 1.692470 0.000000 0.000000 
#    y 0.000000 1.840100 0.000000 
#    z 0.000000 0.000000 1.773820 
# 
# From -- ./inp_files/45204.got.cif
#   From: 2010.05.17/outbox.cif.g08.bks.cpg/sg67_23_cif.got.tgz:45204.got - 2010.06.03 18:28:57.
