data_PCOD9504232
_publ_section_title
;
Structure prediction by ZEFSAII (Michael W. Deem and Ramdas Pophale) SiO2 
 PCOD9504232
Probable space group: C M M A
;
_chemical_formula_sum "Si O2"
_cell_formula_units_Z 72
_cell_length_a 15.024773
_cell_length_b 9.010604
_cell_length_c 26.375733
_cell_angle_alpha 90.000000
_cell_angle_beta 90.000000
_cell_angle_gamma 90.000000
_cell_volume 3570.806862
_symmetry_space_group_name_H-M "C M M A"
_symmetry_group_IT_number 67
_symmetry_cell_setting 'orthorhombic'
loop_
_space_group_symop_operation_xyz
x,y,z
-x,1/2-y,z
x,-y,-z
-x,1/2+y,-z
-x,-y,-z
x,1/2+y,-z
-x,y,z
x,1/2-y,z
1/2+x,1/2+y,z
1/2-x,-y,z
1/2+x,1/2-y,-z
1/2-x,y,-z
1/2-x,1/2-y,-z
1/2+x,y,-z
1/2-x,1/2+y,z
1/2+x,-y,z
loop_
_atom_site_type_symbol
_atom_site_label
_atom_site_fract_x
_atom_site_fract_y
_atom_site_fract_z
Si Si1 0.894642 0.916401 0.650928
Si Si2 0.653448 0.071273 0.761899
Si Si3 0.390839 0.581949 0.551194
Si Si4 0.849269 0.930233 0.874416
Si Si5 0.000000 0.429650 0.944155
O O1 0.856043 0.750000 0.649619
O O2 0.885251 0.978628 0.707878
O O3 0.000000 0.903888 0.642626
O O4 0.859879 0.009262 0.603702
O O5 0.656179 0.250000 0.759980
O O6 0.614066 0.036922 0.817289
O O7 0.750000 0.000000 0.763419
O O8 0.363265 0.500000 0.500000
O O9 0.500000 0.581010 0.551469
O O10 0.360837 0.750000 0.549042
O O11 0.846099 0.750000 0.880557
O O12 0.750000 0.000000 0.878228
O O13 0.914120 0.006961 0.914419
O O14 0.000000 0.250000 0.945487
O O15 0.000000 0.500000 0.000000
#
# Coordination Sequence:
#
# PCOD9504232 Si02
#       5
#    16  16  16  16   8
#     4   9  17  29  47  72 100 133 174 217 266 325
#     4   9  19  34  55  79 109 146 183 223 275 335
#     4   9  16  26  41  63  93 128 167 214 268 324
#     4  10  21  40  65  93 127 166 207 252 303 360
#     4  12  26  44  66  96 128 164 209 254 303 356
#
# _framework density 20.163509999999999
#
# number of rings (size 3 to 8) (size 9 to 14) (size 15 to 20)
#    0.000    2.444    0.000    2.333    1.556    4.889 
#    0.000    2.222    0.000    0.667    0.000    4.667 
#    0.000    0.000    0.000    0.000    0.000    0.000 
#
# Total GULP energy -200681.689933 kJ/mol
# GULP energy per Si atom -5574.491387 kJ/mol
# Density = 2.011762 g / cm^3
# Si number density = 20.163510 Si / 1000 Ang^3
#
#
#
# Elastic Constant Matrix: (Units=GPa)
#
#
# Indices 1 2 3 4 5 6 
#
# 1 59.3562 32.7785 49.8119 0.0000 0.0000 0.0000
# 2 32.7785 109.0605 106.5459 0.0000 0.0000 0.0000
# 3 49.8119 106.5459 236.9266 0.0000 0.0000 0.0000
# 4 0.0000 0.0000 0.0000 32.0442 0.0000 0.0000
# 5 0.0000 0.0000 0.0000 0.0000 93.4333 0.0000
# 6 0.0000 0.0000 0.0000 0.0000 0.0000 17.4296
#
#
#
# Elastic Compliance Matrix: (Units=1/GPa)
#
#
# Indices 1 2 3 4 5 6 
#
# 1 0.021221 -0.003602 -0.002842 0.000000 0.000000 0.000000
# 2 -0.003602 0.016965 -0.006872 0.000000 0.000000 0.000000
# 3 -0.002842 -0.006872 0.007909 0.000000 0.000000 0.000000
# 4 0.000000 0.000000 0.000000 0.031207 0.000000 0.000000
# 5 0.000000 0.000000 0.000000 0.000000 0.010703 0.000000
# 6 0.000000 0.000000 0.000000 0.000000 0.000000 0.057374
#
#
# Mechanical properties :
#
#
# Convention : Reuss Voigt Hill
#
# Bulk Modulus (GPa) = 51.37743 87.06844 69.22293
# Shear Modulus (GPa) = 28.01148 42.99523 35.50335
#
# Velocity S-wave (km/s) = 3.73126 4.62272 4.20071
# Velocity P-wave (km/s) = 6.64069 8.47158 7.61139
#
# Compressibility (1/GPa) = 0.01946380
#
# Stress axis : x y z
#
# Youngs Moduli (GPa) = 47.12227 58.94353 126.44502
#
# Poissons Ratio (x) = 0.21230 0.35934
# Poissons Ratio (y) = 0.16972 0.86894
# Poissons Ratio (z) = 0.13392 0.40506
#
# Static dielectric constant tensor:
#      x y z
#    x 1.730320 0.000000 0.000000 
#    y 0.000000 1.705160 0.000000 
#    z 0.000000 0.000000 1.749280 
# 
# From -- ./inp_files/40513.got.cif
#   From: 2010.05.17/outbox.cif.g08.bks.cpg/sg67_21_cif.got.tgz:40513.got - 2010.06.03 18:28:57.
