data_PCOD9504581
_publ_section_title
;
Structure prediction by ZEFSAII (Michael W. Deem and Ramdas Pophale) SiO2 
 PCOD9504581
Probable space group: C M M A
;
_chemical_formula_sum "Si O2"
_cell_formula_units_Z 88
_cell_length_a 29.049845
_cell_length_b 24.092992
_cell_length_c 6.492708
_cell_angle_alpha 90.000000
_cell_angle_beta 90.000000
_cell_angle_gamma 90.000000
_cell_volume 4544.231287
_symmetry_space_group_name_H-M "C M M A"
_symmetry_group_IT_number 67
_symmetry_cell_setting 'orthorhombic'
loop_
_space_group_symop_operation_xyz
x,y,z
-x,1/2-y,z
x,-y,-z
-x,1/2+y,-z
-x,-y,-z
x,1/2+y,-z
-x,y,z
x,1/2-y,z
1/2+x,1/2+y,z
1/2-x,-y,z
1/2+x,1/2-y,-z
1/2-x,y,-z
1/2-x,1/2-y,-z
1/2+x,y,-z
1/2-x,1/2+y,z
1/2+x,-y,z
loop_
_atom_site_type_symbol
_atom_site_label
_atom_site_fract_x
_atom_site_fract_y
_atom_site_fract_z
Si Si1 0.552422 0.250000 0.623122
Si Si2 0.250000 0.155238 0.000000
Si Si3 0.587868 0.939297 0.577916
Si Si4 0.284106 0.250000 0.694758
Si Si5 0.423827 0.865461 0.173658
Si Si6 0.155079 0.366708 0.852950
Si Si7 0.860334 0.250000 0.627125
Si Si8 0.000000 0.082450 0.862416
O O1 0.500000 0.250000 0.551178
O O2 0.561924 0.304019 0.758727
O O3 0.585917 0.250000 0.426668
O O4 0.273374 0.196389 0.832849
O O5 0.208366 0.121572 0.898378
O O6 0.577477 0.901417 0.380123
O O7 0.628613 0.909589 0.705430
O O8 0.541289 0.942078 0.712768
O O9 0.601026 0.000000 0.500000
O O10 0.250000 0.250000 0.500000
O O11 0.334230 0.250000 0.592363
O O12 0.374585 0.864885 0.061743
O O13 0.460070 0.890839 0.014361
O O14 0.152784 0.305386 0.749995
#
# Coordination Sequence:
#
# PCOD9504581 Si02
#       8
#     8   8  16   8  16  16   8   8
#     4  12  23  36  63  91 139 179 197 256 331 417
#     4  11  22  38  62 101 126 168 221 265 340 410
#     4  11  25  44  66  95 128 176 232 282 328 384
#     4  11  20  36  65  93 134 164 209 274 323 403
#     4  11  23  43  63  94 135 174 215 268 332 396
#     4  11  24  39  65  96 130 171 217 279 336 409
#     4  12  21  41  61  98 132 171 213 259 344 402
#     4  10  23  40  69  93 124 168 226 267 319 378
#
# _framework density 19.365210000000001
#
# number of rings (size 3 to 8) (size 9 to 14) (size 15 to 20)
#    0.000    0.909    4.545    3.000    0.000    3.636 
#    0.000    0.909    0.000    3.273    0.000    0.000 
#    0.000    0.000    0.000    0.000    0.000    0.000 
#
# Total GULP energy -244967.747309 kJ/mol
# GULP energy per Si atom -5567.448802 kJ/mol
# Density = 1.932113 g / cm^3
# Si number density = 19.365210 Si / 1000 Ang^3
#
#
#
# Elastic Constant Matrix: (Units=GPa)
#
#
# Indices 1 2 3 4 5 6 
#
# 1 150.8444 33.1241 8.3241 0.0000 0.0000 0.0000
# 2 33.1241 81.2208 16.6319 0.0000 0.0000 0.0000
# 3 8.3241 16.6319 18.7892 0.0000 0.0000 0.0000
# 4 0.0000 0.0000 0.0000 -41.3839 0.0000 0.0000
# 5 0.0000 0.0000 0.0000 0.0000 29.8702 0.0000
# 6 0.0000 0.0000 0.0000 0.0000 0.0000 6.9693
#
#
#
# Elastic Compliance Matrix: (Units=1/GPa)
#
#
# Indices 1 2 3 4 5 6 
#
# 1 0.007290 -0.002823 -0.000730 0.000000 0.000000 0.000000
# 2 -0.002823 0.016131 -0.013029 0.000000 0.000000 0.000000
# 3 -0.000730 -0.013029 0.065078 0.000000 0.000000 0.000000
# 4 0.000000 0.000000 0.000000 -0.024164 0.000000 0.000000
# 5 0.000000 0.000000 0.000000 0.000000 0.033478 0.000000
# 6 0.000000 0.000000 0.000000 0.000000 0.000000 0.143487
#
#
# Mechanical properties :
#
#
# Convention : Reuss Voigt Hill
#
# Bulk Modulus (GPa) = 18.07173 40.77939 29.42556
# Shear Modulus (GPa) = 17.07011 11.94275 14.50643
#
# Velocity S-wave (km/s) = 2.97220 2.48606 2.73993
# Velocity P-wave (km/s) = 4.59684 5.41705 5.02371
#
# Compressibility (1/GPa) = 0.05533504
#
# Stress axis : x y z
#
# Youngs Moduli (GPa) = 137.18108 61.99062 15.36611
#
# Poissons Ratio (x) = 0.17502 0.01122
# Poissons Ratio (y) = 0.38731 0.20020
# Poissons Ratio (z) = 0.10018 0.80765
#
# Static dielectric constant tensor:
#      x y z
#    x 1.707900 0.000000 0.000000 
#    y 0.000000 1.662100 0.000000 
#    z 0.000000 0.000000 1.704550 
# 
# From -- ./inp_files/4855.got.cif
#   From: 2010.05.17/outbox.cif.g08.bks.cpg/sg67_3_cif.got.tgz:4855.got - 2010.06.03 18:28:57.
