data_PCOD9504890
_publ_section_title
;
Structure prediction by ZEFSAII (Michael W. Deem and Ramdas Pophale) SiO2 
 PCOD9504890
Probable space group: C M M A
;
_chemical_formula_sum "Si O2"
_cell_formula_units_Z 80
_cell_length_a 8.497124
_cell_length_b 15.644705
_cell_length_c 30.888315
_cell_angle_alpha 90.000000
_cell_angle_beta 90.000000
_cell_angle_gamma 90.000000
_cell_volume 4106.138103
_symmetry_space_group_name_H-M "C M M A"
_symmetry_group_IT_number 67
_symmetry_cell_setting 'orthorhombic'
loop_
_space_group_symop_operation_xyz
x,y,z
-x,1/2-y,z
x,-y,-z
-x,1/2+y,-z
-x,-y,-z
x,1/2+y,-z
-x,y,z
x,1/2-y,z
1/2+x,1/2+y,z
1/2-x,-y,z
1/2+x,1/2-y,-z
1/2-x,y,-z
1/2-x,1/2-y,-z
1/2+x,y,-z
1/2-x,1/2+y,z
1/2+x,-y,z
loop_
_atom_site_type_symbol
_atom_site_label
_atom_site_fract_x
_atom_site_fract_y
_atom_site_fract_z
Si Si1 0.323338 0.647746 0.955564
Si Si2 0.309383 0.403476 0.137356
Si Si3 0.812015 0.905632 0.548471
Si Si4 0.807883 0.250000 0.705499
Si Si5 0.689302 0.250000 0.394419
Si Si6 0.690509 0.597274 0.767263
O O1 0.500000 0.612700 0.953813
O O2 0.331173 0.750000 0.959764
O O3 0.248303 0.632105 0.908464
O O4 0.250000 0.614149 0.000000
O O5 0.500000 0.396593 0.136456
O O6 0.250000 0.500000 0.138140
O O7 0.261505 0.369207 0.184651
O O8 0.750000 0.886988 0.500000
O O9 0.751230 0.833500 0.580838
O O10 0.000000 0.906566 0.547596
O O11 0.750000 0.000000 0.560313
O O12 0.758958 0.250000 0.655621
O O13 0.756930 0.335128 0.731204
O O14 0.000000 0.250000 0.706267
O O15 0.500000 0.250000 0.395802
O O16 0.500000 0.593893 0.766597
O O17 0.750000 0.500000 0.761284
#
# Coordination Sequence:
#
# PCOD9504890 Si02
#       6
#    16  16  16   8   8  16
#     4   9  18  31  46  67  93 124 159 197 243 299
#     4   9  18  31  50  72  95 123 161 205 253 307
#     4  11  22  39  62  90 121 159 201 243 290 339
#     4   9  20  36  58  83 108 145 189 227 276 331
#     4  11  22  38  57  85 122 157 197 243 288 343
#     4   9  18  35  56  79 105 136 176 225 273 324
#
# _framework density 19.483028000000001
#
# number of rings (size 3 to 8) (size 9 to 14) (size 15 to 20)
#    0.000    2.400    0.000    3.000    1.400    2.000 
#    0.000    6.500    0.000    0.000    0.000    0.000 
#    0.000    0.000    0.000    0.000    0.000    0.000 
#
# Total GULP energy -222940.326422 kJ/mol
# GULP energy per Si atom -5573.508161 kJ/mol
# Density = 1.943868 g / cm^3
# Si number density = 19.483028 Si / 1000 Ang^3
#
#
#
# Elastic Constant Matrix: (Units=GPa)
#
#
# Indices 1 2 3 4 5 6 
#
# 1 51.4938 24.4809 47.6218 0.0000 0.0000 0.0000
# 2 24.4809 95.3533 110.3233 0.0000 0.0000 0.0000
# 3 47.6218 110.3233 211.4375 0.0000 0.0000 0.0000
# 4 0.0000 0.0000 0.0000 57.2940 0.0000 0.0000
# 5 0.0000 0.0000 0.0000 0.0000 17.6358 0.0000
# 6 0.0000 0.0000 0.0000 0.0000 0.0000 23.7424
#
#
#
# Elastic Compliance Matrix: (Units=1/GPa)
#
#
# Indices 1 2 3 4 5 6 
#
# 1 0.024531 0.000238 -0.005649 0.000000 0.000000 0.000000
# 2 0.000238 0.026465 -0.013862 0.000000 0.000000 0.000000
# 3 -0.005649 -0.013862 0.013235 0.000000 0.000000 0.000000
# 4 0.000000 0.000000 0.000000 0.017454 0.000000 0.000000
# 5 0.000000 0.000000 0.000000 0.000000 0.056703 0.000000
# 6 0.000000 0.000000 0.000000 0.000000 0.000000 0.042119
#
#
# Mechanical properties :
#
#
# Convention : Reuss Voigt Hill
#
# Bulk Modulus (GPa) = 38.93484 80.34851 59.64167
# Shear Modulus (GPa) = 21.96687 31.45833 26.71260
#
# Velocity S-wave (km/s) = 3.36145 4.02263 3.70681
# Velocity P-wave (km/s) = 5.92395 7.93128 6.99994
#
# Compressibility (1/GPa) = 0.02568394
#
# Stress axis : x y z
#
# Youngs Moduli (GPa) = 40.76438 37.78581 75.55678
#
# Poissons Ratio (x) = -0.00900 0.42686
# Poissons Ratio (y) = -0.00971 1.04740
# Poissons Ratio (z) = 0.23030 0.52381
#
# Static dielectric constant tensor:
#      x y z
#    x 1.691330 0.000000 0.000000 
#    y 0.000000 1.657130 0.000000 
#    z 0.000000 0.000000 1.719530 
# 
# From -- ./inp_files/43349.got.cif
#   From: 2010.05.17/outbox.cif.g08.bks.cpg/sg67_22_cif.got.tgz:43349.got - 2010.06.03 18:28:57.
