data_PCOD9504935
_publ_section_title
;
Structure prediction by ZEFSAII (Michael W. Deem and Ramdas Pophale) SiO2 
 PCOD9504935
Probable space group: C M M A
;
_chemical_formula_sum "Si O2"
_cell_formula_units_Z 88
_cell_length_a 7.974043
_cell_length_b 16.703016
_cell_length_c 31.447439
_cell_angle_alpha 90.000000
_cell_angle_beta 90.000000
_cell_angle_gamma 90.000000
_cell_volume 4188.502257
_symmetry_space_group_name_H-M "C M M A"
_symmetry_group_IT_number 67
_symmetry_cell_setting 'orthorhombic'
loop_
_space_group_symop_operation_xyz
x,y,z
-x,1/2-y,z
x,-y,-z
-x,1/2+y,-z
-x,-y,-z
x,1/2+y,-z
-x,y,z
x,1/2-y,z
1/2+x,1/2+y,z
1/2-x,-y,z
1/2+x,1/2-y,-z
1/2-x,y,-z
1/2-x,1/2-y,-z
1/2+x,y,-z
1/2-x,1/2+y,z
1/2+x,-y,z
loop_
_atom_site_type_symbol
_atom_site_label
_atom_site_fract_x
_atom_site_fract_y
_atom_site_fract_z
Si Si1 0.297449 0.593445 0.726514
Si Si2 0.295048 0.841320 0.816378
Si Si3 0.802003 0.750000 0.950896
Si Si4 0.297868 0.407432 0.365325
Si Si5 0.801242 0.587595 0.097436
Si Si6 0.298057 0.341543 0.455009
O O1 0.500000 0.599309 0.726444
O O2 0.250000 0.500000 0.728945
O O3 0.235438 0.635168 0.769386
O O4 0.239278 0.626493 0.680438
O O5 0.500000 0.844798 0.815589
O O6 0.248947 0.750000 0.826411
O O7 0.233788 0.897715 0.854542
O O8 0.742060 0.667249 0.929129
O O9 0.000000 0.750000 0.947717
O O10 0.750000 0.750000 0.000000
O O11 0.500000 0.398568 0.366064
O O12 0.250000 0.500000 0.363948
O O13 0.233508 0.375587 0.410395
O O14 0.750000 0.500000 0.080799
O O15 0.000000 0.585819 0.100206
O O16 0.500000 0.341878 0.453407
O O17 0.237731 0.250000 0.456646
O O18 0.250000 0.381188 0.500000
#
# Coordination Sequence:
#
# PCOD9504935 Si02
#       6
#    16  16   8  16  16  16
#     4   9  17  30  49  72 101 137 176 216 267 325
#     4   9  17  31  54  83 115 151 192 238 285 338
#     4  12  26  46  70  98 130 168 212 262 315 366
#     4   9  18  31  47  69  96 127 164 211 261 315
#     4  11  22  40  65  95 131 170 211 258 309 366
#     4   9  18  32  48  66  89 118 157 204 255 312
#
# _framework density 21.009896000000001
#
# number of rings (size 3 to 8) (size 9 to 14) (size 15 to 20)
#    0.000    2.364    0.909    1.909    0.000    2.182 
#    0.000    8.182    0.000    0.000    0.000    5.091 
#    0.000    0.000    0.000    0.000    0.000    0.000 
#
# Total GULP energy -245283.016282 kJ/mol
# GULP energy per Si atom -5574.614006 kJ/mol
# Density = 2.096208 g / cm^3
# Si number density = 21.009896 Si / 1000 Ang^3
#
#
#
# Elastic Constant Matrix: (Units=GPa)
#
#
# Indices 1 2 3 4 5 6 
#
# 1 27.6132 8.3380 13.3354 0.0000 0.0000 0.0000
# 2 8.3380 100.4280 66.2703 0.0000 0.0000 0.0000
# 3 13.3354 66.2703 172.3507 0.0000 0.0000 0.0000
# 4 0.0000 0.0000 0.0000 -41.9726 0.0000 0.0000
# 5 0.0000 0.0000 0.0000 0.0000 15.3515 0.0000
# 6 0.0000 0.0000 0.0000 0.0000 0.0000 23.0510
#
#
#
# Elastic Compliance Matrix: (Units=1/GPa)
#
#
# Indices 1 2 3 4 5 6 
#
# 1 0.037816 -0.001620 -0.002303 0.000000 0.000000 0.000000
# 2 -0.001620 0.013412 -0.005032 0.000000 0.000000 0.000000
# 3 -0.002303 -0.005032 0.007915 0.000000 0.000000 0.000000
# 4 0.000000 0.000000 0.000000 -0.023825 0.000000 0.000000
# 5 0.000000 0.000000 0.000000 0.000000 0.065140 0.000000
# 6 0.000000 0.000000 0.000000 0.000000 0.000000 0.043382
#
#
# Mechanical properties :
#
#
# Convention : Reuss Voigt Hill
#
# Bulk Modulus (GPa) = 24.25196 52.91992 38.58594
# Shear Modulus (GPa) = 28.49090 13.44919 20.97004
#
# Velocity S-wave (km/s) = 3.68648 2.53284 3.16270
# Velocity P-wave (km/s) = 5.44870 5.81347 5.63404
#
# Compressibility (1/GPa) = 0.04123377
#
# Stress axis : x y z
#
# Youngs Moduli (GPa) = 26.44383 74.55877 126.34110
#
# Poissons Ratio (x) = 0.12078 0.29098
# Poissons Ratio (y) = 0.04284 0.63572
# Poissons Ratio (z) = 0.06090 0.37516
#
# Static dielectric constant tensor:
#      x y z
#    x 1.728060 0.000000 0.000000 
#    y 0.000000 1.713840 0.000000 
#    z 0.000000 0.000000 1.813610 
# 
# From -- ./inp_files/45269.got.cif
#   From: 2010.05.17/outbox.cif.g08.bks.cpg/sg67_23_cif.got.tgz:45269.got - 2010.06.03 18:28:57.
