data_PCOD9504245
_publ_section_title
;
Structure prediction by ZEFSAII (Michael W. Deem and Ramdas Pophale) SiO2 
 PCOD9504245
Probable space group: C M M A
;
_chemical_formula_sum "Si O2"
_cell_formula_units_Z 84
_cell_length_a 23.397774
_cell_length_b 14.538821
_cell_length_c 11.800869
_cell_angle_alpha 90.000000
_cell_angle_beta 90.000000
_cell_angle_gamma 90.000000
_cell_volume 4014.372979
_symmetry_space_group_name_H-M "C M M A"
_symmetry_group_IT_number 67
_symmetry_cell_setting 'orthorhombic'
loop_
_space_group_symop_operation_xyz
x,y,z
-x,1/2-y,z
x,-y,-z
-x,1/2+y,-z
-x,-y,-z
x,1/2+y,-z
-x,y,z
x,1/2-y,z
1/2+x,1/2+y,z
1/2-x,-y,z
1/2+x,1/2-y,-z
1/2-x,y,-z
1/2-x,1/2-y,-z
1/2+x,y,-z
1/2-x,1/2+y,z
1/2+x,-y,z
loop_
_atom_site_type_symbol
_atom_site_label
_atom_site_fract_x
_atom_site_fract_y
_atom_site_fract_z
Si Si1 0.889598 0.010122 0.872580
Si Si2 0.098492 0.604782 0.524597
Si Si3 0.000000 0.250000 0.414705
Si Si4 0.564044 0.150422 0.293049
Si Si5 0.720063 0.357648 0.122701
Si Si6 0.169935 0.859306 0.733455
O O1 0.930854 0.066448 0.790988
O O2 0.832827 0.073845 0.873694
O O3 0.872289 0.913581 0.817786
O O4 0.910751 0.000000 0.000000
O O5 0.080171 0.500000 0.500000
O O6 0.050485 0.669237 0.580793
O O7 0.107294 0.642865 0.397451
O O8 0.152785 0.607970 0.607842
O O9 0.500000 0.151008 0.344465
O O10 0.571159 0.250000 0.236088
O O11 0.703298 0.250000 0.132335
O O12 0.766428 0.378503 0.220183
O O13 0.750000 0.368559 0.000000
O O14 0.162051 0.750000 0.741244
#
# Coordination Sequence:
#
# PCOD9504245 Si02
#       6
#    16  16   4  16  16  16
#     4  12  24  39  66  98 129 173 230 272 323 398
#     4  12  22  40  67 101 127 173 225 270 336 398
#     4  12  22  40  72  94 138 168 224 284 322 406
#     4  11  23  43  68  93 132 177 221 272 333 400
#     4  10  21  40  67  94 126 170 217 271 334 392
#     4  11  23  39  62  97 134 163 216 282 334 392
#
# _framework density 20.924813
#
# number of rings (size 3 to 8) (size 9 to 14) (size 15 to 20)
#    0.000    0.762    6.667    1.429    0.000    1.143 
#    0.000    0.952    0.000    3.429    0.000    0.000 
#    0.000    0.000    0.000    0.000    0.000    0.000 
#
# Total GULP energy -234077.535536 kJ/mol
# GULP energy per Si atom -5573.274656 kJ/mol
# Density = 2.087719 g / cm^3
# Si number density = 20.924813 Si / 1000 Ang^3
#
#
#
# Elastic Constant Matrix: (Units=GPa)
#
#
# Indices 1 2 3 4 5 6 
#
# 1 50.8770 5.0458 24.5096 0.0000 0.0000 0.0000
# 2 5.0458 100.9298 0.2869 0.0000 0.0000 0.0000
# 3 24.5096 0.2869 107.3805 0.0000 0.0000 0.0000
# 4 0.0000 0.0000 0.0000 19.1770 0.0000 0.0000
# 5 0.0000 0.0000 0.0000 0.0000 25.2935 0.0000
# 6 0.0000 0.0000 0.0000 0.0000 0.0000 29.1273
#
#
#
# Elastic Compliance Matrix: (Units=1/GPa)
#
#
# Indices 1 2 3 4 5 6 
#
# 1 0.022204 -0.001096 -0.005065 0.000000 0.000000 0.000000
# 2 -0.001096 0.009962 0.000223 0.000000 0.000000 0.000000
# 3 -0.005065 0.000223 0.010468 0.000000 0.000000 0.000000
# 4 0.000000 0.000000 0.000000 0.052146 0.000000 0.000000
# 5 0.000000 0.000000 0.000000 0.000000 0.039536 0.000000
# 6 0.000000 0.000000 0.000000 0.000000 0.000000 0.034332
#
#
# Mechanical properties :
#
#
# Convention : Reuss Voigt Hill
#
# Bulk Modulus (GPa) = 32.51019 35.43020 33.97020
# Shear Modulus (GPa) = 26.20876 30.00922 28.10899
#
# Velocity S-wave (km/s) = 3.54294 3.79112 3.66913
# Velocity P-wave (km/s) = 5.68392 6.01102 5.84976
#
# Compressibility (1/GPa) = 0.03075958
#
# Stress axis : x y z
#
# Youngs Moduli (GPa) = 45.03691 100.38131 95.52736
#
# Poissons Ratio (x) = 0.10998 0.48386
# Poissons Ratio (y) = 0.04934 -0.02135
# Poissons Ratio (z) = 0.22812 -0.02243
#
# Static dielectric constant tensor:
#      x y z
#    x 1.791510 0.000000 0.000000 
#    y 0.000000 1.777760 0.000000 
#    z 0.000000 0.000000 1.777330 
# 
# From -- ./inp_files/18084.got.cif
#   From: 2010.05.17/outbox.cif.g08.bks.cpg/sg67_10_cif.got.tgz:18084.got - 2010.06.03 18:28:57.
