data_PCOD9504807
_publ_section_title
;
Structure prediction by ZEFSAII (Michael W. Deem and Ramdas Pophale) SiO2 
 PCOD9504807
Probable space group: C M M A
;
_chemical_formula_sum "Si O2"
_cell_formula_units_Z 80
_cell_length_a 23.148298
_cell_length_b 14.972726
_cell_length_c 12.158069
_cell_angle_alpha 90.000000
_cell_angle_beta 90.000000
_cell_angle_gamma 90.000000
_cell_volume 4213.903108
_symmetry_space_group_name_H-M "C M M A"
_symmetry_group_IT_number 67
_symmetry_cell_setting 'orthorhombic'
loop_
_space_group_symop_operation_xyz
x,y,z
-x,1/2-y,z
x,-y,-z
-x,1/2+y,-z
-x,-y,-z
x,1/2+y,-z
-x,y,z
x,1/2-y,z
1/2+x,1/2+y,z
1/2-x,-y,z
1/2+x,1/2-y,-z
1/2-x,y,-z
1/2-x,1/2-y,-z
1/2+x,y,-z
1/2-x,1/2+y,z
1/2+x,-y,z
loop_
_atom_site_type_symbol
_atom_site_label
_atom_site_fract_x
_atom_site_fract_y
_atom_site_fract_z
Si Si1 0.248200 0.856925 0.628401
Si Si2 0.935371 0.891570 0.496452
Si Si3 0.931652 0.250000 0.123260
Si Si4 0.130615 0.101458 0.719705
Si Si5 0.878549 0.393628 0.278119
Si Si6 0.568661 0.750000 0.860329
O O1 0.254498 0.750000 0.625892
O O2 0.250000 0.888343 0.500000
O O3 0.300744 0.894325 0.701161
O O4 0.187592 0.879854 0.685112
O O5 0.893759 0.865361 0.398082
O O6 0.914703 0.862003 0.615456
O O7 0.000000 0.862136 0.472573
O O8 0.934348 0.000000 0.500000
O O9 0.899815 0.335347 0.176396
O O10 0.000000 0.250000 0.152074
O O11 0.927370 0.250000 0.991905
O O12 0.102101 0.164954 0.809855
O O13 0.112250 0.999148 0.738744
O O14 0.500000 0.750000 0.830635
#
# Coordination Sequence:
#
# PCOD9504807 Si02
#       6
#    16  16   8  16  16   8
#     4  11  21  37  63  97 135 172 203 244 312 385
#     4   9  18  32  55  90 127 158 194 247 308 373
#     4  11  26  46  65  88 122 166 216 267 314 363
#     4  11  22  39  64  94 127 164 207 253 312 379
#     4  11  22  39  64  94 127 164 207 253 312 379
#     4  11  26  46  65  88 122 166 216 267 314 363
#
# _framework density 18.984774999999999
#
# number of rings (size 3 to 8) (size 9 to 14) (size 15 to 20)
#    0.000    1.400    4.000    1.800    0.000    4.800 
#    0.000    6.000    0.000    2.400    0.000    0.000 
#    0.000    0.000    0.000    0.000    0.000    0.000 
#
# Total GULP energy -223493.403017 kJ/mol
# GULP energy per Si atom -5587.335075 kJ/mol
# Density = 1.894156 g / cm^3
# Si number density = 18.984775 Si / 1000 Ang^3
#
#
#
# Elastic Constant Matrix: (Units=GPa)
#
#
# Indices 1 2 3 4 5 6 
#
# 1 95.6610 9.2355 34.1079 0.0000 0.0000 0.0000
# 2 9.2355 112.5031 40.2194 0.0000 0.0000 0.0000
# 3 34.1079 40.2194 97.1083 0.0000 0.0000 0.0000
# 4 0.0000 0.0000 0.0000 12.3432 0.0000 0.0000
# 5 0.0000 0.0000 0.0000 0.0000 14.9924 0.0000
# 6 0.0000 0.0000 0.0000 0.0000 0.0000 8.6060
#
#
#
# Elastic Compliance Matrix: (Units=1/GPa)
#
#
# Indices 1 2 3 4 5 6 
#
# 1 0.011986 0.000612 -0.004463 0.000000 0.000000 0.000000
# 2 0.000612 0.010465 -0.004549 0.000000 0.000000 0.000000
# 3 -0.004463 -0.004549 0.013749 0.000000 0.000000 0.000000
# 4 0.000000 0.000000 0.000000 0.081016 0.000000 0.000000
# 5 0.000000 0.000000 0.000000 0.000000 0.066701 0.000000
# 6 0.000000 0.000000 0.000000 0.000000 0.000000 0.116197
#
#
# Mechanical properties :
#
#
# Convention : Reuss Voigt Hill
#
# Bulk Modulus (GPa) = 51.54920 52.48866 52.01893
# Shear Modulus (GPa) = 15.46162 21.96897 18.71530
#
# Velocity S-wave (km/s) = 2.85690 3.40544 3.14316
# Velocity P-wave (km/s) = 6.17207 6.57042 6.37436
#
# Compressibility (1/GPa) = 0.01939894
#
# Stress axis : x y z
#
# Youngs Moduli (GPa) = 83.43153 95.55951 72.73003
#
# Poissons Ratio (x) = -0.05845 0.32461
# Poissons Ratio (y) = -0.05103 0.33085
# Poissons Ratio (z) = 0.37237 0.43470
#
# Static dielectric constant tensor:
#      x y z
#    x 1.662380 0.000000 0.000000 
#    y 0.000000 1.695360 0.000000 
#    z 0.000000 0.000000 1.616580 
# 
# From -- ./inp_files/17887.got.cif
#   From: 2010.05.17/outbox.cif.g08.bks.cpg/sg67_9_cif.got.tgz:17887.got - 2010.06.03 18:28:57.
