data_PCOD9504385
_publ_section_title
;
Structure prediction by ZEFSAII (Michael W. Deem and Ramdas Pophale) SiO2 
 PCOD9504385
Probable space group: C M M A
;
_chemical_formula_sum "Si O2"
_cell_formula_units_Z 68
_cell_length_a 9.164387
_cell_length_b 19.582892
_cell_length_c 18.557219
_cell_angle_alpha 90.000000
_cell_angle_beta 90.000000
_cell_angle_gamma 90.000000
_cell_volume 3330.375035
_symmetry_space_group_name_H-M "C M M A"
_symmetry_group_IT_number 67
_symmetry_cell_setting 'orthorhombic'
loop_
_space_group_symop_operation_xyz
x,y,z
-x,1/2-y,z
x,-y,-z
-x,1/2+y,-z
-x,-y,-z
x,1/2+y,-z
-x,y,z
x,1/2-y,z
1/2+x,1/2+y,z
1/2-x,-y,z
1/2+x,1/2-y,-z
1/2-x,y,-z
1/2-x,1/2-y,-z
1/2+x,y,-z
1/2-x,1/2+y,z
1/2+x,-y,z
loop_
_atom_site_type_symbol
_atom_site_label
_atom_site_fract_x
_atom_site_fract_y
_atom_site_fract_z
Si Si1 0.500000 0.390184 0.442595
Si Si2 0.326435 0.670629 0.077584
Si Si3 0.000000 0.049799 0.404204
Si Si4 0.256041 0.130729 0.659815
Si Si5 0.500000 0.750000 0.328034
Si Si6 0.331592 0.072374 0.190729
O O1 0.500000 0.470948 0.424364
O O2 0.500000 0.395839 0.528939
O O3 0.641891 0.357930 0.405217
O O4 0.500000 0.658122 0.072352
O O5 0.307298 0.750000 0.100682
O O6 0.251816 0.619729 0.133370
O O7 0.250000 0.663261 0.000000
O O8 0.855443 0.066057 0.360713
O O9 0.371241 0.190863 0.671109
O O10 0.174676 0.111634 0.733076
O O11 0.500000 0.061976 0.169936
O O12 0.250000 0.000000 0.195885
#
# Coordination Sequence:
#
# PCOD9504385 Si02
#       6
#     8  16   8  16   4  16
#     4  11  20  41  67 101 126 170 218 282 340 400
#     4  10  23  44  72 103 140 179 221 269 325 397
#     4  10  22  38  69  97 132 166 217 275 348 405
#     4  11  24  42  63  93 134 171 226 277 335 401
#     4  10  28  44  62  90 128 184 222 272 340 408
#     4  12  26  42  68 100 135 176 223 282 342 396
#
# _framework density 20.418119999999998
#
# number of rings (size 3 to 8) (size 9 to 14) (size 15 to 20)
#    0.000    1.176    1.176    4.235    8.235    4.235 
#    0.000   11.765    0.000    0.000    0.000    0.000 
#    0.000    0.000    0.000    0.000    0.000    0.000 
#
# Total GULP energy -189539.238768 kJ/mol
# GULP energy per Si atom -5574.683493 kJ/mol
# Density = 2.037165 g / cm^3
# Si number density = 20.418120 Si / 1000 Ang^3
#
#
#
# Elastic Constant Matrix: (Units=GPa)
#
#
# Indices 1 2 3 4 5 6 
#
# 1 168.5842 57.0597 39.2778 0.0000 0.0000 0.0000
# 2 57.0597 97.8993 39.2848 0.0000 0.0000 0.0000
# 3 39.2778 39.2848 80.9672 0.0000 0.0000 0.0000
# 4 0.0000 0.0000 0.0000 -64.0085 0.0000 0.0000
# 5 0.0000 0.0000 0.0000 0.0000 27.5760 0.0000
# 6 0.0000 0.0000 0.0000 0.0000 0.0000 14.7884
#
#
#
# Elastic Compliance Matrix: (Units=1/GPa)
#
#
# Indices 1 2 3 4 5 6 
#
# 1 0.007621 -0.003674 -0.001915 0.000000 0.000000 0.000000
# 2 -0.003674 0.014455 -0.005231 0.000000 0.000000 0.000000
# 3 -0.001915 -0.005231 0.015818 0.000000 0.000000 0.000000
# 4 0.000000 0.000000 0.000000 -0.015623 0.000000 0.000000
# 5 0.000000 0.000000 0.000000 0.000000 0.036263 0.000000
# 6 0.000000 0.000000 0.000000 0.000000 0.000000 0.067621
#
#
# Mechanical properties :
#
#
# Convention : Reuss Voigt Hill
#
# Bulk Modulus (GPa) = 61.52119 68.74390 65.13255
# Shear Modulus (GPa) = 32.63437 9.79307 21.21372
#
# Velocity S-wave (km/s) = 4.00222 2.19241 3.22680
# Velocity P-wave (km/s) = 7.18005 6.33641 6.77138
#
# Compressibility (1/GPa) = 0.01625456
#
# Stress axis : x y z
#
# Youngs Moduli (GPa) = 131.21206 69.18040 63.22021
#
# Poissons Ratio (x) = 0.25414 0.12105
# Poissons Ratio (y) = 0.48203 0.33073
# Poissons Ratio (z) = 0.25123 0.36191
#
# Static dielectric constant tensor:
#      x y z
#    x 1.709260 0.000000 0.000000 
#    y 0.000000 1.696060 0.000000 
#    z 0.000000 0.000000 1.736650 
# 
# From -- ./inp_files/31838.got.cif
#   From: 2010.05.17/outbox.cif.g08.bks.cpg/sg67_16_cif.got.tgz:31838.got - 2010.06.03 18:28:57.
