data_PCOD9504478
_publ_section_title
;
Structure prediction by ZEFSAII (Michael W. Deem and Ramdas Pophale) SiO2 
 PCOD9504478
Probable space group: C M M A
;
_chemical_formula_sum "Si O2"
_cell_formula_units_Z 112
_cell_length_a 16.571463
_cell_length_b 26.351391
_cell_length_c 15.073090
_cell_angle_alpha 90.000000
_cell_angle_beta 90.000000
_cell_angle_gamma 90.000000
_cell_volume 6582.133536
_symmetry_space_group_name_H-M "C M M A"
_symmetry_group_IT_number 67
_symmetry_cell_setting 'orthorhombic'
loop_
_space_group_symop_operation_xyz
x,y,z
-x,1/2-y,z
x,-y,-z
-x,1/2+y,-z
-x,-y,-z
x,1/2+y,-z
-x,y,z
x,1/2-y,z
1/2+x,1/2+y,z
1/2-x,-y,z
1/2+x,1/2-y,-z
1/2-x,y,-z
1/2-x,1/2-y,-z
1/2+x,y,-z
1/2-x,1/2+y,z
1/2+x,-y,z
loop_
_atom_site_type_symbol
_atom_site_label
_atom_site_fract_x
_atom_site_fract_y
_atom_site_fract_z
Si Si1 0.654363 0.390159 0.247731
Si Si2 0.831769 0.071926 0.197188
Si Si3 0.653459 0.892769 0.013234
Si Si4 0.408993 0.472652 0.124519
Si Si5 0.596635 0.952558 0.383701
Si Si6 0.097853 0.569207 0.421275
Si Si7 0.596525 0.191457 0.120581
O O1 0.740562 0.411616 0.216739
O O2 0.593008 0.429573 0.200778
O O3 0.639828 0.393608 0.352073
O O4 0.637785 0.335810 0.204608
O O5 0.864362 0.107048 0.117647
O O6 0.873803 0.071249 0.292567
O O7 0.847372 0.016190 0.155064
O O8 0.750000 0.896200 0.000000
O O9 0.615788 0.941906 0.963675
O O10 0.621573 0.843432 0.962560
O O11 0.500000 0.493255 0.117941
O O12 0.500000 0.952690 0.383639
O O13 0.622264 0.926228 0.475746
O O14 0.620910 0.011830 0.391244
O O15 0.000000 0.573539 0.415950
O O16 0.500000 0.188790 0.130951
O O17 0.620043 0.250000 0.110442
#
# Coordination Sequence:
#
# PCOD9504478 Si02
#       7
#    16  16  16  16  16  16  16
#     4  11  20  33  54  81 106 138 174 228 279 314
#     4  12  22  32  49  77 111 150 182 219 255 321
#     4  11  22  36  52  78 109 142 179 223 273 320
#     4  11  22  34  50  72 107 152 188 218 249 303
#     4   9  19  31  47  74 108 150 189 218 249 304
#     4   9  17  32  51  72 106 147 184 221 261 305
#     4  10  22  41  62  82 101 129 179 233 280 332
#
# _framework density 17.015758999999999
#
# number of rings (size 3 to 8) (size 9 to 14) (size 15 to 20)
#    0.000    1.571    4.286    4.714    0.000    4.286 
#    0.000    1.429    0.000    0.000    0.000    3.000 
#    0.000    4.571    0.000    0.000    0.000    0.000 
#
# Total GULP energy -312450.963357 kJ/mol
# GULP energy per Si atom -5579.481489 kJ/mol
# Density = 1.697703 g / cm^3
# Si number density = 17.015759 Si / 1000 Ang^3
#
#
#
# Elastic Constant Matrix: (Units=GPa)
#
#
# Indices 1 2 3 4 5 6 
#
# 1 60.6019 33.7371 27.5520 0.0000 0.0000 0.0000
# 2 33.7371 94.0149 52.1469 0.0000 0.0000 0.0000
# 3 27.5520 52.1469 177.3732 0.0000 0.0000 0.0000
# 4 0.0000 0.0000 0.0000 12.7813 0.0000 0.0000
# 5 0.0000 0.0000 0.0000 0.0000 20.9511 0.0000
# 6 0.0000 0.0000 0.0000 0.0000 0.0000 18.9414
#
#
#
# Elastic Compliance Matrix: (Units=1/GPa)
#
#
# Indices 1 2 3 4 5 6 
#
# 1 0.020847 -0.006792 -0.001241 0.000000 0.000000 0.000000
# 2 -0.006792 0.014922 -0.003332 0.000000 0.000000 0.000000
# 3 -0.001241 -0.003332 0.006810 0.000000 0.000000 0.000000
# 4 0.000000 0.000000 0.000000 0.078240 0.000000 0.000000
# 5 0.000000 0.000000 0.000000 0.000000 0.047730 0.000000
# 6 0.000000 0.000000 0.000000 0.000000 0.000000 0.052794
#
#
# Mechanical properties :
#
#
# Convention : Reuss Voigt Hill
#
# Bulk Modulus (GPa) = 50.38300 62.09579 56.23939
# Shear Modulus (GPa) = 19.94491 25.10501 22.52496
#
# Velocity S-wave (km/s) = 3.42737 3.84526 3.64231
# Velocity P-wave (km/s) = 6.73323 7.50247 7.12823
#
# Compressibility (1/GPa) = 0.01984797
#
# Stress axis : x y z
#
# Youngs Moduli (GPa) = 47.96909 67.01437 146.83799
#
# Poissons Ratio (x) = 0.45518 0.18227
# Poissons Ratio (y) = 0.32582 0.48926
# Poissons Ratio (z) = 0.05954 0.22329
#
# Static dielectric constant tensor:
#      x y z
#    x 1.602100 0.000000 0.000000 
#    y 0.000000 1.555270 0.000000 
#    z 0.000000 0.000000 1.626350 
# 
# From -- ./inp_files/27720.got.cif
#   From: 2010.05.17/outbox.cif.g08.bks.cpg/sg67_14_cif.got.tgz:27720.got - 2010.06.03 18:28:57.
