data_PCOD9504767
_publ_section_title
;
Structure prediction by ZEFSAII (Michael W. Deem and Ramdas Pophale) SiO2 
 PCOD9504767
Probable space group: C M M A
;
_chemical_formula_sum "Si O2"
_cell_formula_units_Z 64
_cell_length_a 14.742374
_cell_length_b 13.990517
_cell_length_c 20.223356
_cell_angle_alpha 90.000000
_cell_angle_beta 90.000000
_cell_angle_gamma 90.000000
_cell_volume 4171.136623
_symmetry_space_group_name_H-M "C M M A"
_symmetry_group_IT_number 67
_symmetry_cell_setting 'orthorhombic'
loop_
_space_group_symop_operation_xyz
x,y,z
-x,1/2-y,z
x,-y,-z
-x,1/2+y,-z
-x,-y,-z
x,1/2+y,-z
-x,y,z
x,1/2-y,z
1/2+x,1/2+y,z
1/2-x,-y,z
1/2+x,1/2-y,-z
1/2-x,y,-z
1/2-x,1/2-y,-z
1/2+x,y,-z
1/2-x,1/2+y,z
1/2+x,-y,z
loop_
_atom_site_type_symbol
_atom_site_label
_atom_site_fract_x
_atom_site_fract_y
_atom_site_fract_z
Si Si1 0.500000 0.250000 0.580435
Si Si2 0.896900 0.363037 0.068285
Si Si3 0.500000 0.055642 0.661166
Si Si4 0.852785 0.462246 0.572606
Si Si5 0.500000 0.637925 0.196953
Si Si6 0.651170 0.750000 0.530996
Si Si7 0.750000 0.000000 0.000000
O O1 0.500000 0.158230 0.626150
O O2 0.584306 0.250000 0.530998
O O3 0.877742 0.250000 0.057069
O O4 0.915129 0.376695 0.146971
O O5 0.000000 0.381544 0.040120
O O6 0.818531 0.431100 0.041031
O O7 0.500000 0.071943 0.739295
O O8 0.413077 0.002265 0.631409
O O9 0.885039 0.500000 0.500000
O O10 0.750000 0.500000 0.578572
O O11 0.859564 0.347977 0.570624
O O12 0.500000 0.750000 0.216264
O O13 0.750000 0.750000 0.500000
#
# Coordination Sequence:
#
# PCOD9504767 Si02
#       7
#     4  16   8  16   8   8   4
#     4  12  20  26  56  76  82 128 180 200 266 310
#     4   8  18  34  51  83 114 139 174 216 257 310
#     4  12  20  34  52  74  95 137 180 209 257 316
#     4  11  21  34  50  75  98 124 171 221 264 312
#     4   8  18  37  52  70 111 143 172 214 251 311
#     4  12  20  34  50  72 106 120 155 239 275 305
#     4  12  16  28  64  88 108 140 178 212 272 304
#
# _framework density 15.343539
#
# number of rings (size 3 to 8) (size 9 to 14) (size 15 to 20)
#    0.750    1.000    5.625    1.875    0.000    0.000 
#    2.250    0.000    0.000    0.000    9.750    0.000 
#    0.000    0.000    0.000    0.000    0.000    0.000 
#
# Total GULP energy -178136.311887 kJ/mol
# GULP energy per Si atom -5566.759746 kJ/mol
# Density = 1.530862 g / cm^3
# Si number density = 15.343539 Si / 1000 Ang^3
#
#
#
# Elastic Constant Matrix: (Units=GPa)
#
#
# Indices 1 2 3 4 5 6 
#
# 1 100.1846 51.3400 57.3789 0.0000 0.0000 0.0000
# 2 51.3400 146.7153 60.0068 0.0000 0.0000 0.0000
# 3 57.3789 60.0068 95.5700 0.0000 0.0000 0.0000
# 4 0.0000 0.0000 0.0000 25.7116 0.0000 0.0000
# 5 0.0000 0.0000 0.0000 0.0000 11.4304 0.0000
# 6 0.0000 0.0000 0.0000 0.0000 0.0000 33.9445
#
#
#
# Elastic Compliance Matrix: (Units=1/GPa)
#
#
# Indices 1 2 3 4 5 6 
#
# 1 0.015727 -0.002209 -0.008056 0.000000 0.000000 0.000000
# 2 -0.002209 0.009481 -0.004627 0.000000 0.000000 0.000000
# 3 -0.008056 -0.004627 0.018205 0.000000 0.000000 0.000000
# 4 0.000000 0.000000 0.000000 0.038893 0.000000 0.000000
# 5 0.000000 0.000000 0.000000 0.000000 0.087486 0.000000
# 6 0.000000 0.000000 0.000000 0.000000 0.000000 0.029460
#
#
# Mechanical properties :
#
#
# Convention : Reuss Voigt Hill
#
# Bulk Modulus (GPa) = 73.36203 75.54681 74.45442
# Shear Modulus (GPa) = 21.40607 25.80025 23.60316
#
# Velocity S-wave (km/s) = 3.73918 4.10507 3.92639
# Velocity P-wave (km/s) = 8.15835 8.47423 8.31779
#
# Compressibility (1/GPa) = 0.01363103
#
# Stress axis : x y z
#
# Youngs Moduli (GPa) = 63.58468 105.47094 54.92915
#
# Poissons Ratio (x) = 0.23295 0.44248
# Poissons Ratio (y) = 0.14043 0.25416
# Poissons Ratio (z) = 0.51221 0.48803
#
# Static dielectric constant tensor:
#      x y z
#    x 1.520900 0.000000 0.000000 
#    y 0.000000 1.502240 0.000000 
#    z 0.000000 0.000000 1.486060 
# 
# From -- ./inp_files/38282.got.cif
#   From: 2010.05.17/outbox.cif.g08.bks.cpg/sg67_20_cif.got.tgz:38282.got - 2010.06.03 18:28:57.
