data_PCOD9504844
_publ_section_title
;
Structure prediction by ZEFSAII (Michael W. Deem and Ramdas Pophale) SiO2 
 PCOD9504844
Probable space group: C M M A
;
_chemical_formula_sum "Si O2"
_cell_formula_units_Z 96
_cell_length_a 15.402821
_cell_length_b 14.623635
_cell_length_c 21.543196
_cell_angle_alpha 90.000000
_cell_angle_beta 90.000000
_cell_angle_gamma 90.000000
_cell_volume 4852.502187
_symmetry_space_group_name_H-M "C M M A"
_symmetry_group_IT_number 67
_symmetry_cell_setting 'orthorhombic'
loop_
_space_group_symop_operation_xyz
x,y,z
-x,1/2-y,z
x,-y,-z
-x,1/2+y,-z
-x,-y,-z
x,1/2+y,-z
-x,y,z
x,1/2-y,z
1/2+x,1/2+y,z
1/2-x,-y,z
1/2+x,1/2-y,-z
1/2-x,y,-z
1/2-x,1/2-y,-z
1/2+x,y,-z
1/2-x,1/2+y,z
1/2+x,-y,z
loop_
_atom_site_type_symbol
_atom_site_label
_atom_site_fract_x
_atom_site_fract_y
_atom_site_fract_z
Si Si1 0.791127 0.143678 0.733627
Si Si2 0.859604 0.150371 0.172705
Si Si3 0.094855 0.948445 0.160841
Si Si4 0.729350 0.138557 0.406713
Si Si5 0.286792 0.354569 0.066077
Si Si6 0.601562 0.138604 0.517761
O O1 0.820347 0.250000 0.734336
O O2 0.695572 0.143415 0.763817
O O3 0.849648 0.086969 0.780927
O O4 0.789246 0.109505 0.663393
O O5 0.902454 0.250000 0.171410
O O6 0.789982 0.149263 0.116595
O O7 0.909994 0.057280 0.164955
O O8 0.142342 0.918544 0.097745
O O9 0.000000 0.906559 0.163216
O O10 0.730874 0.250000 0.407045
O O11 0.651755 0.112197 0.453921
O O12 0.825346 0.110407 0.431173
O O13 0.319875 0.250000 0.058921
O O14 0.250000 0.384680 0.000000
O O15 0.500000 0.108403 0.523066
O O16 0.598533 0.250000 0.519164
#
# Coordination Sequence:
#
# PCOD9504844 Si02
#       6
#    16  16  16  16  16  16
#     4   9  17  31  52  76 105 143 183 221 265 325
#     4   9  19  36  55  74 101 141 185 223 263 318
#     4  11  22  34  53  82 112 139 173 226 281 324
#     4   8  14  24  40  66 100 140 183 221 265 323
#     4   9  18  35  59  82 107 144 182 212 250 309
#     4   8  13  22  37  61  98 141 182 223 265 317
#
# _framework density 19.783607
#
# number of rings (size 3 to 8) (size 9 to 14) (size 15 to 20)
#    0.000    3.000    0.000    4.500    0.000    3.667 
#    0.000    4.167    0.000    6.000    0.000    9.333 
#    0.000   10.667    0.000    1.333    0.000    1.000 
#
# Total GULP energy -267491.776828 kJ/mol
# GULP energy per Si atom -5572.745351 kJ/mol
# Density = 1.973858 g / cm^3
# Si number density = 19.783607 Si / 1000 Ang^3
#
#
#
# Elastic Constant Matrix: (Units=GPa)
#
#
# Indices 1 2 3 4 5 6 
#
# 1 124.6466 31.4801 43.2046 0.0000 0.0000 0.0000
# 2 31.4801 94.7653 23.3313 0.0000 0.0000 0.0000
# 3 43.2046 23.3313 134.5545 0.0000 0.0000 0.0000
# 4 0.0000 0.0000 0.0000 58.8534 0.0000 0.0000
# 5 0.0000 0.0000 0.0000 0.0000 -0.1234 0.0000
# 6 0.0000 0.0000 0.0000 0.0000 0.0000 41.1529
#
#
#
# Elastic Compliance Matrix: (Units=1/GPa)
#
#
# Indices 1 2 3 4 5 6 
#
# 1 0.009576 -0.002532 -0.002636 0.000000 0.000000 0.000000
# 2 -0.002532 0.011693 -0.001214 0.000000 0.000000 0.000000
# 3 -0.002636 -0.001214 0.008489 0.000000 0.000000 0.000000
# 4 0.000000 0.000000 0.000000 0.016991 0.000000 0.000000
# 5 0.000000 0.000000 0.000000 0.000000 -8.105664 0.000000
# 6 0.000000 0.000000 0.000000 0.000000 0.000000 0.024300
#
#
# Mechanical properties :
#
#
# Convention : Reuss Voigt Hill
#
# Bulk Modulus (GPa) = 58.84853 61.11092 59.97973
# Shear Modulus (GPa) = -0.62374 37.03996 18.20811
#
# Velocity S-wave (km/s) = -0.56211 4.33165 3.03704
# Velocity P-wave (km/s) = 5.42120 7.48160 6.53314
#
# Compressibility (1/GPa) = 0.01699278
#
# Stress axis : x y z
#
# Youngs Moduli (GPa) = 104.43073 85.52490 117.80223
#
# Poissons Ratio (x) = 0.21655 0.31049
# Poissons Ratio (y) = 0.26442 0.14306
# Poissons Ratio (z) = 0.27524 0.10386
#
# Static dielectric constant tensor:
#      x y z
#    x 1.659510 0.000000 0.000000 
#    y 0.000000 1.745910 0.000000 
#    z 0.000000 0.000000 1.665640 
# 
# From -- ./inp_files/38420.got.cif
#   From: 2010.05.17/outbox.cif.g08.bks.cpg/sg67_20_cif.got.tgz:38420.got - 2010.06.03 18:28:57.
