data_PCOD9504331
_publ_section_title
;
Structure prediction by ZEFSAII (Michael W. Deem and Ramdas Pophale) SiO2 
 PCOD9504331
Probable space group: C M M A
;
_chemical_formula_sum "Si O2"
_cell_formula_units_Z 76
_cell_length_a 14.022449
_cell_length_b 26.401976
_cell_length_c 11.995765
_cell_angle_alpha 90.000000
_cell_angle_beta 90.000000
_cell_angle_gamma 90.000000
_cell_volume 4441.076460
_symmetry_space_group_name_H-M "C M M A"
_symmetry_group_IT_number 67
_symmetry_cell_setting 'orthorhombic'
loop_
_space_group_symop_operation_xyz
x,y,z
-x,1/2-y,z
x,-y,-z
-x,1/2+y,-z
-x,-y,-z
x,1/2+y,-z
-x,y,z
x,1/2-y,z
1/2+x,1/2+y,z
1/2-x,-y,z
1/2+x,1/2-y,-z
1/2-x,y,-z
1/2-x,1/2-y,-z
1/2+x,y,-z
1/2-x,1/2+y,z
1/2+x,-y,z
loop_
_atom_site_type_symbol
_atom_site_label
_atom_site_fract_x
_atom_site_fract_y
_atom_site_fract_z
Si Si1 0.173765 0.750000 0.194919
Si Si2 0.000000 0.250000 0.979962
Si Si3 0.500000 0.350165 0.866152
Si Si4 0.500000 0.442866 0.046242
Si Si5 0.250000 0.335450 0.500000
Si Si6 0.210362 0.553693 0.125740
Si Si7 0.704222 0.850885 0.249509
Si Si8 0.604764 0.250000 0.438592
O O1 0.098372 0.750000 0.093268
O O2 0.241139 0.700216 0.207145
O O3 0.109187 0.750000 0.305545
O O4 0.000000 0.300652 0.054713
O O5 0.405689 0.348453 0.789199
O O6 0.500000 0.399987 0.948246
O O7 0.403271 0.440099 0.117257
O O8 0.500000 0.500000 0.000000
O O9 0.276095 0.359628 0.618742
O O10 0.339058 0.298921 0.477586
O O11 0.250000 0.500000 0.170791
O O12 0.251791 0.600909 0.189600
O O13 0.250000 0.556064 0.000000
O O14 0.500000 0.250000 0.484378
#
# Coordination Sequence:
#
# PCOD9504331 Si02
#       8
#     8   4   8   8   8  16  16   8
#     4  10  22  37  55  79 125 150 191 227 292 354
#     4  12  24  34  52  90 122 162 178 232 302 358
#     4  12  24  34  56  85 119 151 193 231 299 352
#     4  12  20  36  61  89 111 155 198 231 288 351
#     4   9  22  38  57  80 110 150 203 245 288 332
#     4  11  21  38  61  86 121 152 192 241 290 351
#     4  11  23  41  56  86 116 158 194 245 289 348
#     4   9  17  36  58  78 103 152 201 240 273 341
#
# _framework density 17.112967999999999
#
# number of rings (size 3 to 8) (size 9 to 14) (size 15 to 20)
#    0.000    1.263    4.737    2.526    1.474    0.842 
#    1.895    0.526    0.000    0.000    0.000    4.421 
#    0.000    0.000    0.000    0.000    0.000    0.000 
#
# Total GULP energy -211854.952962 kJ/mol
# GULP energy per Si atom -5575.130341 kJ/mol
# Density = 1.707402 g / cm^3
# Si number density = 17.112968 Si / 1000 Ang^3
#
#
#
# Elastic Constant Matrix: (Units=GPa)
#
#
# Indices 1 2 3 4 5 6 
#
# 1 173.0470 47.1599 48.5596 0.0000 0.0000 0.0000
# 2 47.1599 136.2536 61.7230 0.0000 0.0000 0.0000
# 3 48.5596 61.7230 89.0054 0.0000 0.0000 0.0000
# 4 0.0000 0.0000 0.0000 35.1258 0.0000 0.0000
# 5 0.0000 0.0000 0.0000 0.0000 13.4019 0.0000
# 6 0.0000 0.0000 0.0000 0.0000 0.0000 45.7086
#
#
#
# Elastic Compliance Matrix: (Units=1/GPa)
#
#
# Indices 1 2 3 4 5 6 
#
# 1 0.006915 -0.000998 -0.003081 0.000000 0.000000 0.000000
# 2 -0.000998 0.010845 -0.006976 0.000000 0.000000 0.000000
# 3 -0.003081 -0.006976 0.017754 0.000000 0.000000 0.000000
# 4 0.000000 0.000000 0.000000 0.028469 0.000000 0.000000
# 5 0.000000 0.000000 0.000000 0.000000 0.074616 0.000000
# 6 0.000000 0.000000 0.000000 0.000000 0.000000 0.021878
#
#
# Mechanical properties :
#
#
# Convention : Reuss Voigt Hill
#
# Bulk Modulus (GPa) = 74.60338 79.24344 76.92341
# Shear Modulus (GPa) = 26.73012 34.90485 30.81748
#
# Velocity S-wave (km/s) = 3.95648 4.52117 4.24822
# Velocity P-wave (km/s) = 8.03498 8.58261 8.31331
#
# Compressibility (1/GPa) = 0.01340422
#
# Stress axis : x y z
#
# Youngs Moduli (GPa) = 144.60798 92.20948 56.32557
#
# Poissons Ratio (x) = 0.09201 0.17353
# Poissons Ratio (y) = 0.14430 0.39294
# Poissons Ratio (z) = 0.44551 0.64327
#
# Static dielectric constant tensor:
#      x y z
#    x 1.607330 0.000000 0.000000 
#    y 0.000000 1.574350 0.000000 
#    z 0.000000 0.000000 1.576580 
# 
# From -- ./inp_files/18071.got.cif
#   From: 2010.05.17/outbox.cif.g08.bks.cpg/sg67_10_cif.got.tgz:18071.got - 2010.06.03 18:28:57.
