data_PCOD9504120
_publ_section_title
;
Structure prediction by ZEFSAII (Michael W. Deem and Ramdas Pophale) SiO2 
 PCOD9504120
Probable space group: C M M A
;
_chemical_formula_sum "Si O2"
_cell_formula_units_Z 60
_cell_length_a 15.594319
_cell_length_b 31.342091
_cell_length_c 4.965027
_cell_angle_alpha 90.000000
_cell_angle_beta 90.000000
_cell_angle_gamma 90.000000
_cell_volume 2426.699473
_symmetry_space_group_name_H-M "C M M A"
_symmetry_group_IT_number 67
_symmetry_cell_setting 'orthorhombic'
loop_
_space_group_symop_operation_xyz
x,y,z
-x,1/2-y,z
x,-y,-z
-x,1/2+y,-z
-x,-y,-z
x,1/2+y,-z
-x,y,z
x,1/2-y,z
1/2+x,1/2+y,z
1/2-x,-y,z
1/2+x,1/2-y,-z
1/2-x,y,-z
1/2-x,1/2-y,-z
1/2+x,y,-z
1/2-x,1/2+y,z
1/2+x,-y,z
loop_
_atom_site_type_symbol
_atom_site_label
_atom_site_fract_x
_atom_site_fract_y
_atom_site_fract_z
Si Si1 0.250000 0.500000 0.000000
Si Si2 0.897630 0.702770 0.419567
Si Si3 0.175082 0.078493 0.714710
Si Si4 0.000000 0.965409 0.275148
Si Si5 0.602330 0.648023 0.092278
O O1 0.198075 0.531682 0.181224
O O2 0.861776 0.750000 0.466720
O O3 0.888093 0.687524 0.114588
O O4 0.000000 0.705033 0.471973
O O5 0.867632 0.665561 0.619667
O O6 0.250000 0.089178 0.500000
O O7 0.159231 0.111052 0.962091
O O8 0.077488 0.067455 0.645601
O O9 0.000000 0.000000 0.500000
O O10 0.000000 0.000000 0.000000
O O11 0.500000 0.636603 0.099546
#
# Coordination Sequence:
#
# PCOD9504120 Si02
#       5
#     4  16  16   8  16
#     4  12  26  46  68  98 134 194 234 294 362 424
#     4   9  18  35  63 100 137 176 228 283 345 424
#     4  12  27  46  70 104 144 187 244 299 362 427
#     4  12  26  48  74 102 137 190 243 304 364 430
#     4  10  21  38  65  99 136 182 229 285 351 418
#
# _framework density 24.72494
#
# number of rings (size 3 to 8) (size 9 to 14) (size 15 to 20)
#    0.000    1.333    2.667    2.800    3.733    3.200 
#    0.000    0.000    0.000    4.800    0.000    0.000 
#    0.000    0.000    0.000    0.000    0.000    0.000 
#
# Total GULP energy -167205.769212 kJ/mol
# GULP energy per Si atom -5573.525640 kJ/mol
# Density = 2.466866 g / cm^3
# Si number density = 24.724940 Si / 1000 Ang^3
#
#
#
# Elastic Constant Matrix: (Units=GPa)
#
#
# Indices 1 2 3 4 5 6 
#
# 1 130.1886 30.3473 25.2058 0.0000 0.0000 0.0000
# 2 30.3473 91.5075 -10.6604 0.0000 0.0000 0.0000
# 3 25.2058 -10.6604 88.2852 0.0000 0.0000 0.0000
# 4 0.0000 0.0000 0.0000 21.6496 0.0000 0.0000
# 5 0.0000 0.0000 0.0000 0.0000 28.9186 0.0000
# 6 0.0000 0.0000 0.0000 0.0000 0.0000 19.2714
#
#
#
# Elastic Compliance Matrix: (Units=1/GPa)
#
#
# Indices 1 2 3 4 5 6 
#
# 1 0.009039 -0.003345 -0.002985 0.000000 0.000000 0.000000
# 2 -0.003345 0.012322 0.002443 0.000000 0.000000 0.000000
# 3 -0.002985 0.002443 0.012474 0.000000 0.000000 0.000000
# 4 0.000000 0.000000 0.000000 0.046190 0.000000 0.000000
# 5 0.000000 0.000000 0.000000 0.000000 0.034580 0.000000
# 6 0.000000 0.000000 0.000000 0.000000 0.000000 0.051890
#
#
# Mechanical properties :
#
#
# Convention : Reuss Voigt Hill
#
# Bulk Modulus (GPa) = 38.37126 44.41853 41.39489
# Shear Modulus (GPa) = 27.32893 31.64048 29.48470
#
# Velocity S-wave (km/s) = 3.32824 3.58117 3.45702
# Velocity P-wave (km/s) = 5.50659 5.92484 5.71954
#
# Compressibility (1/GPa) = 0.02606117
#
# Stress axis : x y z
#
# Youngs Moduli (GPa) = 110.63412 81.15503 80.16657
#
# Poissons Ratio (x) = 0.27149 0.23926
# Poissons Ratio (y) = 0.37010 -0.19585
# Poissons Ratio (z) = 0.33019 -0.19826
#
# Static dielectric constant tensor:
#      x y z
#    x 2.870500 0.000000 0.000000 
#    y 0.000000 1.957450 0.000000 
#    z 0.000000 0.000000 1.994220 
# 
# From -- ./inp_files/2073.got.cif
#   From: 2010.05.17/outbox.cif.g08.bks.cpg/sg67_2_cif.got.tgz:2073.got - 2010.06.03 18:28:57.
