data_PCOD9504612
_publ_section_title
;
Structure prediction by ZEFSAII (Michael W. Deem and Ramdas Pophale) SiO2 
 PCOD9504612
Probable space group: C M M A
;
_chemical_formula_sum "Si O2"
_cell_formula_units_Z 116
_cell_length_a 18.602167
_cell_length_b 29.410790
_cell_length_c 11.706370
_cell_angle_alpha 90.000000
_cell_angle_beta 90.000000
_cell_angle_gamma 90.000000
_cell_volume 6404.606853
_symmetry_space_group_name_H-M "C M M A"
_symmetry_group_IT_number 67
_symmetry_cell_setting 'orthorhombic'
loop_
_space_group_symop_operation_xyz
x,y,z
-x,1/2-y,z
x,-y,-z
-x,1/2+y,-z
-x,-y,-z
x,1/2+y,-z
-x,y,z
x,1/2-y,z
1/2+x,1/2+y,z
1/2-x,-y,z
1/2+x,1/2-y,-z
1/2-x,y,-z
1/2-x,1/2-y,-z
1/2+x,y,-z
1/2-x,1/2+y,z
1/2+x,-y,z
loop_
_atom_site_type_symbol
_atom_site_label
_atom_site_fract_x
_atom_site_fract_y
_atom_site_fract_z
Si Si1 0.867880 0.932003 0.974314
Si Si2 0.416159 0.302986 0.441566
Si Si3 0.655705 0.803326 0.321648
Si Si4 0.297284 0.858433 0.690500
Si Si5 0.234305 0.551594 0.191284
Si Si6 0.500000 0.000000 0.000000
Si Si7 0.813756 0.299325 0.909065
Si Si8 0.083991 0.331022 0.082906
O O1 0.806891 0.935709 0.877171
O O2 0.895975 0.880835 0.963422
O O3 0.828327 0.944788 0.094251
O O4 0.936067 0.964327 0.959943
O O5 0.500000 0.310027 0.414689
O O6 0.397756 0.250000 0.411116
O O7 0.401901 0.307418 0.576940
O O8 0.364425 0.339345 0.380794
O O9 0.674801 0.750000 0.314057
O O10 0.724983 0.833580 0.352110
O O11 0.625012 0.819626 0.200340
O O12 0.284466 0.912044 0.710005
O O13 0.309482 0.838467 0.817260
O O14 0.250000 0.500000 0.230222
O O15 0.804243 0.250000 0.853618
O O16 0.750000 0.305842 0.000000
O O17 0.885918 0.299873 0.981991
O O18 0.000000 0.326007 0.101724
#
# Coordination Sequence:
#
# PCOD9504612 Si02
#       8
#    16  16  16  16  16   4  16  16
#     4  11  20  36  55  83 122 159 199 246 294 356
#     4  10  23  43  63  89 124 161 208 264 315 365
#     4  11  22  39  63  88 118 161 212 260 302 361
#     4  12  22  37  64  90 117 158 210 257 303 371
#     4  11  21  38  60  85 117 160 199 248 301 356
#     4  12  20  34  60  84 118 164 208 252 292 362
#     4  11  21  35  53  79 122 164 192 233 293 364
#     4  12  23  34  54  87 125 160 197 244 311 370
#
# _framework density 18.111962999999999
#
# number of rings (size 3 to 8) (size 9 to 14) (size 15 to 20)
#    0.000    0.828    6.207    2.897    0.000    3.310 
#    1.241    0.000    0.000    1.655    0.000    0.966 
#    0.000    0.000    0.000    0.000    0.000    0.000 
#
# Total GULP energy -323228.735809 kJ/mol
# GULP energy per Si atom -5572.909238 kJ/mol
# Density = 1.807074 g / cm^3
# Si number density = 18.111963 Si / 1000 Ang^3
#
#
#
# Elastic Constant Matrix: (Units=GPa)
#
#
# Indices 1 2 3 4 5 6 
#
# 1 111.4141 18.9549 21.0870 0.0000 0.0000 0.0000
# 2 18.9549 112.6002 33.9146 0.0000 0.0000 0.0000
# 3 21.0870 33.9146 33.3023 0.0000 0.0000 0.0000
# 4 0.0000 0.0000 0.0000 25.4347 0.0000 0.0000
# 5 0.0000 0.0000 0.0000 0.0000 21.8688 0.0000
# 6 0.0000 0.0000 0.0000 0.0000 0.0000 34.0747
#
#
#
# Elastic Compliance Matrix: (Units=1/GPa)
#
#
# Indices 1 2 3 4 5 6 
#
# 1 0.010206 0.000329 -0.006798 0.000000 0.000000 0.000000
# 2 0.000329 0.012821 -0.013265 0.000000 0.000000 0.000000
# 3 -0.006798 -0.013265 0.047842 0.000000 0.000000 0.000000
# 4 0.000000 0.000000 0.000000 0.039316 0.000000 0.000000
# 5 0.000000 0.000000 0.000000 0.000000 0.045727 0.000000
# 6 0.000000 0.000000 0.000000 0.000000 0.000000 0.029347
#
#
# Mechanical properties :
#
#
# Convention : Reuss Voigt Hill
#
# Bulk Modulus (GPa) = 31.84612 45.02550 38.43581
# Shear Modulus (GPa) = 21.25901 28.49963 24.87932
#
# Velocity S-wave (km/s) = 3.42973 3.97107 3.71029
# Velocity P-wave (km/s) = 5.77106 6.77786 6.29462
#
# Compressibility (1/GPa) = 0.03140100
#
# Stress axis : x y z
#
# Youngs Moduli (GPa) = 97.98045 77.99735 20.90231
#
# Poissons Ratio (x) = -0.02570 0.14209
# Poissons Ratio (y) = -0.03228 0.27727
# Poissons Ratio (z) = 0.66607 1.03466
#
# Static dielectric constant tensor:
#      x y z
#    x 1.622740 0.000000 0.000000 
#    y 0.000000 1.670650 0.000000 
#    z 0.000000 0.000000 1.619140 
# 
# From -- ./inp_files/20120.got.cif
#   From: 2010.05.17/outbox.cif.g08.bks.cpg/sg67_11_cif.got.tgz:20120.got - 2010.06.03 18:28:57.
