data_PCOD9504176
_publ_section_title
;
Structure prediction by ZEFSAII (Michael W. Deem and Ramdas Pophale) SiO2 
 PCOD9504176
Probable space group: C M M A
;
_chemical_formula_sum "Si O2"
_cell_formula_units_Z 68
_cell_length_a 16.512435
_cell_length_b 21.932304
_cell_length_c 8.716405
_cell_angle_alpha 90.000000
_cell_angle_beta 90.000000
_cell_angle_gamma 90.000000
_cell_volume 3156.696140
_symmetry_space_group_name_H-M "C M M A"
_symmetry_group_IT_number 67
_symmetry_cell_setting 'orthorhombic'
loop_
_space_group_symop_operation_xyz
x,y,z
-x,1/2-y,z
x,-y,-z
-x,1/2+y,-z
-x,-y,-z
x,1/2+y,-z
-x,y,z
x,1/2-y,z
1/2+x,1/2+y,z
1/2-x,-y,z
1/2+x,1/2-y,-z
1/2-x,y,-z
1/2-x,1/2-y,-z
1/2+x,y,-z
1/2-x,1/2+y,z
1/2+x,-y,z
loop_
_atom_site_type_symbol
_atom_site_label
_atom_site_fract_x
_atom_site_fract_y
_atom_site_fract_z
Si Si1 0.828771 0.146455 0.306635
Si Si2 0.595908 0.316823 0.009704
Si Si3 0.750000 0.250000 0.500000
Si Si4 0.307594 0.924854 0.850874
Si Si5 0.407097 0.478141 0.671476
O O1 0.853517 0.178854 0.147395
O O2 0.811043 0.196476 0.432623
O O3 0.747854 0.106670 0.277509
O O4 0.895298 0.094331 0.330283
O O5 0.500000 0.320277 0.980130
O O6 0.613163 0.250000 0.082092
O O7 0.624911 0.374462 0.107145
O O8 0.349170 0.986103 0.789456
O O9 0.250000 0.931852 0.000000
O O10 0.388316 0.500000 0.500000
O O11 0.500000 0.493233 0.708642
#
# Coordination Sequence:
#
# PCOD9504176 Si02
#       5
#    16  16   4  16  16
#     4  11  23  39  63  93 127 170 225 277 338 406
#     4  10  21  39  63  93 134 175 218 280 343 408
#     4  12  24  40  62  88 124 172 220 272 338 404
#     4  10  23  40  69 100 136 171 229 286 348 406
#     4  11  24  44  66  95 137 182 227 282 347 420
#
# _framework density 21.541509999999999
#
# number of rings (size 3 to 8) (size 9 to 14) (size 15 to 20)
#    0.000    1.412    1.176    3.529    1.647    8.941 
#    0.000    5.882    0.000    2.824    0.000    0.000 
#    0.000    0.000    0.000    0.000    0.000    0.000 
#
# Total GULP energy -189503.995646 kJ/mol
# GULP energy per Si atom -5573.646931 kJ/mol
# Density = 2.149248 g / cm^3
# Si number density = 21.541510 Si / 1000 Ang^3
#
#
#
# Elastic Constant Matrix: (Units=GPa)
#
#
# Indices 1 2 3 4 5 6 
#
# 1 75.3110 35.2597 26.2586 0.0000 0.0000 0.0000
# 2 35.2597 171.0101 40.7571 0.0000 0.0000 0.0000
# 3 26.2586 40.7571 33.8323 0.0000 0.0000 0.0000
# 4 0.0000 0.0000 0.0000 34.2129 0.0000 0.0000
# 5 0.0000 0.0000 0.0000 0.0000 21.5412 0.0000
# 6 0.0000 0.0000 0.0000 0.0000 0.0000 26.9233
#
#
#
# Elastic Compliance Matrix: (Units=1/GPa)
#
#
# Indices 1 2 3 4 5 6 
#
# 1 0.018241 -0.000543 -0.013504 0.000000 0.000000 0.000000
# 2 -0.000543 0.008219 -0.009480 0.000000 0.000000 0.000000
# 3 -0.013504 -0.009480 0.051459 0.000000 0.000000 0.000000
# 4 0.000000 0.000000 0.000000 0.029229 0.000000 0.000000
# 5 0.000000 0.000000 0.000000 0.000000 0.046423 0.000000
# 6 0.000000 0.000000 0.000000 0.000000 0.000000 0.037143
#
#
# Mechanical properties :
#
#
# Convention : Reuss Voigt Hill
#
# Bulk Modulus (GPa) = 32.39841 53.85602 43.12721
# Shear Modulus (GPa) = 20.15698 28.39400 24.27549
#
# Velocity S-wave (km/s) = 3.06228 3.63451 3.36060
# Velocity P-wave (km/s) = 5.25129 6.53209 5.92639
#
# Compressibility (1/GPa) = 0.03086571
#
# Stress axis : x y z
#
# Youngs Moduli (GPa) = 54.82275 121.67146 19.43310
#
# Poissons Ratio (x) = 0.06602 0.26242
# Poissons Ratio (y) = 0.02975 0.18422
# Poissons Ratio (z) = 0.74031 1.15344
#
# Static dielectric constant tensor:
#      x y z
#    x 1.771160 0.000000 0.000000 
#    y 0.000000 1.837550 0.000000 
#    z 0.000000 0.000000 1.800830 
# 
# From -- ./inp_files/9520.got.cif
#   From: 2010.05.17/outbox.cif.g08.bks.cpg/sg67_5_cif.got.tgz:9520.got - 2010.06.03 18:28:57.
