data_PCOD9504759
_publ_section_title
;
Structure prediction by ZEFSAII (Michael W. Deem and Ramdas Pophale) SiO2 
 PCOD9504759
Probable space group: C M M A
;
_chemical_formula_sum "Si O2"
_cell_formula_units_Z 64
_cell_length_a 8.373491
_cell_length_b 28.635397
_cell_length_c 14.538625
_cell_angle_alpha 90.000000
_cell_angle_beta 90.000000
_cell_angle_gamma 90.000000
_cell_volume 3486.045901
_symmetry_space_group_name_H-M "C M M A"
_symmetry_group_IT_number 67
_symmetry_cell_setting 'orthorhombic'
loop_
_space_group_symop_operation_xyz
x,y,z
-x,1/2-y,z
x,-y,-z
-x,1/2+y,-z
-x,-y,-z
x,1/2+y,-z
-x,y,z
x,1/2-y,z
1/2+x,1/2+y,z
1/2-x,-y,z
1/2+x,1/2-y,-z
1/2-x,y,-z
1/2-x,1/2-y,-z
1/2+x,y,-z
1/2-x,1/2+y,z
1/2+x,-y,z
loop_
_atom_site_type_symbol
_atom_site_label
_atom_site_fract_x
_atom_site_fract_y
_atom_site_fract_z
Si Si1 0.308207 0.447003 0.097947
Si Si2 0.189011 0.449336 0.604484
Si Si3 0.686015 0.879255 0.249045
Si Si4 0.192789 0.804329 0.897525
O O1 0.500000 0.443631 0.107705
O O2 0.250000 0.500000 0.101468
O O3 0.214374 0.419864 0.175410
O O4 0.250000 0.428124 0.000000
O O5 0.250000 0.500000 0.641936
O O6 0.250000 0.445929 0.500000
O O7 0.238820 0.403061 0.660769
O O8 0.000000 0.452382 0.605107
O O9 0.500000 0.870846 0.268122
O O10 0.750419 0.834795 0.190214
O O11 0.238476 0.750000 0.886366
O O12 0.000000 0.807737 0.898207
O O13 0.250000 0.818869 0.000000
#
# Coordination Sequence:
#
# PCOD9504759 Si02
#       4
#    16  16  16  16
#     4  11  21  33  47  68 100 136 173 210 254 307
#     4  11  22  38  58  81 109 140 177 218 265 316
#     4  11  21  34  53  77 105 137 175 217 263 313
#     4   9  19  35  55  79 108 142 179 220 265 314
#
# _framework density 18.358909000000001
#
# number of rings (size 3 to 8) (size 9 to 14) (size 15 to 20)
#    0.000    1.500    0.000    8.250    0.000    4.000 
#    0.000    0.000    0.000    0.750    0.000    0.000 
#    0.000    0.000    0.000    0.000    0.000    0.000 
#
# Total GULP energy -178436.777515 kJ/mol
# GULP energy per Si atom -5576.149297 kJ/mol
# Density = 1.831712 g / cm^3
# Si number density = 18.358909 Si / 1000 Ang^3
#
#
#
# Elastic Constant Matrix: (Units=GPa)
#
#
# Indices 1 2 3 4 5 6 
#
# 1 67.4787 19.2907 13.5556 0.0000 0.0000 0.0000
# 2 19.2907 116.0599 50.3383 0.0000 0.0000 0.0000
# 3 13.5556 50.3383 87.7581 0.0000 0.0000 0.0000
# 4 0.0000 0.0000 0.0000 36.8447 0.0000 0.0000
# 5 0.0000 0.0000 0.0000 0.0000 28.8184 0.0000
# 6 0.0000 0.0000 0.0000 0.0000 0.0000 -20.2885
#
#
#
# Elastic Compliance Matrix: (Units=1/GPa)
#
#
# Indices 1 2 3 4 5 6 
#
# 1 0.015658 -0.002068 -0.001232 0.000000 0.000000 0.000000
# 2 -0.002068 0.011743 -0.006416 0.000000 0.000000 0.000000
# 3 -0.001232 -0.006416 0.015266 0.000000 0.000000 0.000000
# 4 0.000000 0.000000 0.000000 0.027141 0.000000 0.000000
# 5 0.000000 0.000000 0.000000 0.000000 0.034700 0.000000
# 6 0.000000 0.000000 0.000000 0.000000 0.000000 -0.049289
#
#
# Mechanical properties :
#
#
# Convention : Reuss Voigt Hill
#
# Bulk Modulus (GPa) = 43.04166 48.62957 45.83561
# Shear Modulus (GPa) = 60.68179 21.61573 41.14876
#
# Velocity S-wave (km/s) = 5.75541 3.43505 4.73943
# Velocity P-wave (km/s) = 8.22568 6.50219 7.41419
#
# Compressibility (1/GPa) = 0.02323331
#
# Stress axis : x y z
#
# Youngs Moduli (GPa) = 63.86399 85.15772 65.50615
#
# Poissons Ratio (x) = 0.17611 0.08073
# Poissons Ratio (y) = 0.13208 0.42031
# Poissons Ratio (z) = 0.07871 0.54640
#
# Static dielectric constant tensor:
#      x y z
#    x 1.637130 0.000000 0.000000 
#    y 0.000000 1.617970 0.000000 
#    z 0.000000 0.000000 1.590700 
# 
# From -- ./inp_files/25219.got.cif
#   From: 2010.05.17/outbox.cif.g08.bks.cpg/sg67_13_cif.got.tgz:25219.got - 2010.06.03 18:28:57.
