data_PCOD9504535
_publ_section_title
;
Structure prediction by ZEFSAII (Michael W. Deem and Ramdas Pophale) SiO2 
 PCOD9504535
Probable space group: C M M A
;
_chemical_formula_sum "Si O2"
_cell_formula_units_Z 68
_cell_length_a 13.971110
_cell_length_b 19.113203
_cell_length_c 9.756382
_cell_angle_alpha 90.000000
_cell_angle_beta 90.000000
_cell_angle_gamma 90.000000
_cell_volume 2605.272653
_symmetry_space_group_name_H-M "C M M A"
_symmetry_group_IT_number 67
_symmetry_cell_setting 'orthorhombic'
loop_
_space_group_symop_operation_xyz
x,y,z
-x,1/2-y,z
x,-y,-z
-x,1/2+y,-z
-x,-y,-z
x,1/2+y,-z
-x,y,z
x,1/2-y,z
1/2+x,1/2+y,z
1/2-x,-y,z
1/2+x,1/2-y,-z
1/2-x,y,-z
1/2-x,1/2-y,-z
1/2+x,y,-z
1/2-x,1/2+y,z
1/2+x,-y,z
loop_
_atom_site_type_symbol
_atom_site_label
_atom_site_fract_x
_atom_site_fract_y
_atom_site_fract_z
Si Si1 0.750000 0.500000 0.000000
Si Si2 0.613298 0.250000 0.886569
Si Si3 0.608742 0.101929 0.986379
Si Si4 0.778456 0.250000 0.659655
Si Si5 0.616152 0.609754 0.601140
Si Si6 0.885817 0.547170 0.677654
O O1 0.679234 0.445522 0.071736
O O2 0.500000 0.250000 0.840792
O O3 0.627059 0.183035 0.981891
O O4 0.687764 0.250000 0.762091
O O5 0.500000 0.087144 0.025764
O O6 0.626057 0.077444 0.829248
O O7 0.750000 0.250000 0.500000
O O8 0.838793 0.322505 0.673556
O O9 0.500000 0.615385 0.614089
O O10 0.857084 0.603085 0.561072
O O11 0.648121 0.532008 0.650140
O O12 0.000000 0.541052 0.659257
#
# Coordination Sequence:
#
# PCOD9504535 Si02
#       6
#     4   8  16   8  16  16
#     4  12  26  38  72 100 112 146 202 280 320 362
#     4  10  24  44  63  83 123 174 208 246 307 374
#     4  10  22  43  66  90 120 157 202 251 311 374
#     4  12  23  31  51  89 122 162 207 247 285 354
#     4   9  18  34  56  87 126 165 200 243 297 353
#     4   8  16  34  60  85 120 165 200 236 293 366
#
# _framework density 26.100915000000001
#
# number of rings (size 3 to 8) (size 9 to 14) (size 15 to 20)
#    0.000    2.353    0.000    3.529    3.294    3.294 
#    0.000    1.176    0.000    0.000    0.000    3.294 
#    0.000    0.000    0.000    0.000    0.000    0.000 
#
# Total GULP energy -190290.188492 kJ/mol
# GULP energy per Si atom -5596.770250 kJ/mol
# Density = 2.604151 g / cm^3
# Si number density = 26.100915 Si / 1000 Ang^3
#
#
#
# Elastic Constant Matrix: (Units=GPa)
#
#
# Indices 1 2 3 4 5 6 
#
# 1 168.3616 89.5999 30.3745 0.0000 0.0000 0.0000
# 2 89.5999 240.0751 14.7458 0.0000 0.0000 0.0000
# 3 30.3745 14.7458 94.0109 0.0000 0.0000 0.0000
# 4 0.0000 0.0000 0.0000 2.0045 0.0000 0.0000
# 5 0.0000 0.0000 0.0000 0.0000 17.5762 0.0000
# 6 0.0000 0.0000 0.0000 0.0000 0.0000 44.1200
#
#
#
# Elastic Compliance Matrix: (Units=1/GPa)
#
#
# Indices 1 2 3 4 5 6 
#
# 1 0.007796 -0.002782 -0.002082 0.000000 0.000000 0.000000
# 2 -0.002782 0.005198 0.000083 0.000000 0.000000 0.000000
# 3 -0.002082 0.000083 0.011297 0.000000 0.000000 0.000000
# 4 0.000000 0.000000 0.000000 0.498869 0.000000 0.000000
# 5 0.000000 0.000000 0.000000 0.000000 0.056895 0.000000
# 6 0.000000 0.000000 0.000000 0.000000 0.000000 0.022665
#
#
# Mechanical properties :
#
#
# Convention : Reuss Voigt Hill
#
# Bulk Modulus (GPa) = 67.89101 85.76533 76.82817
# Shear Modulus (GPa) = 8.10122 37.25532 22.67827
#
# Velocity S-wave (km/s) = 1.76367 3.78214 2.95086
# Velocity P-wave (km/s) = 5.49680 7.21132 6.41163
#
# Compressibility (1/GPa) = 0.01472949
#
# Stress axis : x y z
#
# Youngs Moduli (GPa) = 128.27769 192.36842 88.52053
#
# Poissons Ratio (x) = 0.53508 0.18434
# Poissons Ratio (y) = 0.35681 -0.00738
# Poissons Ratio (z) = 0.26713 -0.01603
#
# Static dielectric constant tensor:
#      x y z
#    x 2.094770 0.000000 0.000000 
#    y 0.000000 2.008570 0.000000 
#    z 0.000000 0.000000 2.036460 
# 
# From -- ./inp_files/25968.got.cif
#   From: 2010.05.17/outbox.cif.g08.bks.cpg/sg67_13_cif.got.tgz:25968.got - 2010.06.03 18:28:57.
