data_PCOD9504848
_publ_section_title
;
Structure prediction by ZEFSAII (Michael W. Deem and Ramdas Pophale) SiO2 
 PCOD9504848
Probable space group: C M M A
;
_chemical_formula_sum "Si O2"
_cell_formula_units_Z 80
_cell_length_a 18.353765
_cell_length_b 9.271710
_cell_length_c 27.095901
_cell_angle_alpha 90.000000
_cell_angle_beta 90.000000
_cell_angle_gamma 90.000000
_cell_volume 4610.930784
_symmetry_space_group_name_H-M "C M M A"
_symmetry_group_IT_number 67
_symmetry_cell_setting 'orthorhombic'
loop_
_space_group_symop_operation_xyz
x,y,z
-x,1/2-y,z
x,-y,-z
-x,1/2+y,-z
-x,-y,-z
x,1/2+y,-z
-x,y,z
x,1/2-y,z
1/2+x,1/2+y,z
1/2-x,-y,z
1/2+x,1/2-y,-z
1/2-x,y,-z
1/2-x,1/2-y,-z
1/2+x,y,-z
1/2-x,1/2+y,z
1/2+x,-y,z
loop_
_atom_site_type_symbol
_atom_site_label
_atom_site_fract_x
_atom_site_fract_y
_atom_site_fract_z
Si Si1 0.083788 0.925399 0.343408
Si Si2 0.588891 0.583557 0.548506
Si Si3 0.912445 0.921526 0.841605
Si Si4 0.411418 0.082462 0.951748
Si Si5 0.672213 0.923850 0.754460
O O1 0.082302 0.750000 0.345988
O O2 0.110528 0.975003 0.397485
O O3 0.132576 0.964476 0.296922
O O4 0.000000 0.972832 0.335992
O O5 0.613671 0.500000 0.500000
O O6 0.500000 0.580526 0.549079
O O7 0.611073 0.750000 0.544551
O O8 0.896151 0.750000 0.836045
O O9 0.889031 0.967490 0.897049
O O10 0.874785 0.015227 0.799792
O O11 0.000000 0.936085 0.838340
O O12 0.500000 0.073801 0.951930
O O13 0.392242 0.250000 0.956003
O O14 0.384375 0.000000 0.000000
O O15 0.677918 0.750000 0.756850
O O16 0.750000 0.000000 0.756242
#
# Coordination Sequence:
#
# PCOD9504848 Si02
#       5
#    16  16  16  16  16
#     4   8  15  29  49  71  94 122 157 196 237 284
#     4   8  13  23  41  66  94 119 145 183 231 280
#     4   9  18  33  52  75 103 131 160 199 244 286
#     4   8  14  25  43  69 100 129 155 188 232 280
#     4  11  22  35  51  70  95 129 168 206 247 294
#
# _framework density 17.350076999999999
#
# number of rings (size 3 to 8) (size 9 to 14) (size 15 to 20)
#    0.000    3.200    0.000    3.600    0.000    2.000 
#    0.000    4.000    0.000    6.000    0.000    8.400 
#    0.000    0.000    0.000    0.000    0.000    0.000 
#
# Total GULP energy -222696.259090 kJ/mol
# GULP energy per Si atom -5567.406477 kJ/mol
# Density = 1.731059 g / cm^3
# Si number density = 17.350077 Si / 1000 Ang^3
#
#
#
# Elastic Constant Matrix: (Units=GPa)
#
#
# Indices 1 2 3 4 5 6 
#
# 1 32.4257 25.9357 48.5490 0.0000 0.0000 0.0000
# 2 25.9357 49.9250 72.8188 0.0000 0.0000 0.0000
# 3 48.5490 72.8188 208.1253 0.0000 0.0000 0.0000
# 4 0.0000 0.0000 0.0000 32.0316 0.0000 0.0000
# 5 0.0000 0.0000 0.0000 0.0000 -5.8256 0.0000
# 6 0.0000 0.0000 0.0000 0.0000 0.0000 13.6428
#
#
#
# Elastic Compliance Matrix: (Units=1/GPa)
#
#
# Indices 1 2 3 4 5 6 
#
# 1 0.056102 -0.020537 -0.005901 0.000000 0.000000 0.000000
# 2 -0.020537 0.048423 -0.012151 0.000000 0.000000 0.000000
# 3 -0.005901 -0.012151 0.010433 0.000000 0.000000 0.000000
# 4 0.000000 0.000000 0.000000 0.031219 0.000000 0.000000
# 5 0.000000 0.000000 0.000000 0.000000 -0.171657 0.000000
# 6 0.000000 0.000000 0.000000 0.000000 0.000000 0.073299
#
#
# Mechanical properties :
#
#
# Convention : Reuss Voigt Hill
#
# Bulk Modulus (GPa) = 26.47070 65.00922 45.73996
# Shear Modulus (GPa) = 36.33971 17.51461 26.92716
#
# Velocity S-wave (km/s) = 4.58153 3.18068 3.94381
# Velocity P-wave (km/s) = 6.57854 7.14419 6.86719
#
# Compressibility (1/GPa) = 0.03777762
#
# Stress axis : x y z
#
# Youngs Moduli (GPa) = 17.82468 20.65151 95.85084
#
# Poissons Ratio (x) = 0.42413 0.56564
# Poissons Ratio (y) = 0.36607 1.16472
# Poissons Ratio (z) = 0.10519 0.25094
#
# Static dielectric constant tensor:
#      x y z
#    x 1.568730 0.000000 0.000000 
#    y 0.000000 1.582410 0.000000 
#    z 0.000000 0.000000 1.617670 
# 
# From -- ./inp_files/41785.got.cif
#   From: 2010.05.17/outbox.cif.g08.bks.cpg/sg67_21_cif.got.tgz:41785.got - 2010.06.03 18:28:57.
