data_PCOD9504552
_publ_section_title
;
Structure prediction by ZEFSAII (Michael W. Deem and Ramdas Pophale) SiO2 
 PCOD9504552
Probable space group: C M M A
;
_chemical_formula_sum "Si O2"
_cell_formula_units_Z 52
_cell_length_a 15.245195
_cell_length_b 11.361026
_cell_length_c 13.591898
_cell_angle_alpha 90.000000
_cell_angle_beta 90.000000
_cell_angle_gamma 90.000000
_cell_volume 2354.131097
_symmetry_space_group_name_H-M "C M M A"
_symmetry_group_IT_number 67
_symmetry_cell_setting 'orthorhombic'
loop_
_space_group_symop_operation_xyz
x,y,z
-x,1/2-y,z
x,-y,-z
-x,1/2+y,-z
-x,-y,-z
x,1/2+y,-z
-x,y,z
x,1/2-y,z
1/2+x,1/2+y,z
1/2-x,-y,z
1/2+x,1/2-y,-z
1/2-x,y,-z
1/2-x,1/2-y,-z
1/2+x,y,-z
1/2-x,1/2+y,z
1/2+x,-y,z
loop_
_atom_site_type_symbol
_atom_site_label
_atom_site_fract_x
_atom_site_fract_y
_atom_site_fract_z
Si Si1 0.659395 0.055010 0.256182
Si Si2 0.500000 0.884029 0.204476
Si Si3 0.604172 0.374307 0.463702
Si Si4 0.000000 0.250000 0.014148
Si Si5 0.682834 0.750000 0.907307
O O1 0.617864 0.124973 0.346744
O O2 0.686467 0.136340 0.163684
O O3 0.750000 0.000000 0.291721
O O4 0.586861 0.956339 0.230891
O O5 0.500000 0.750000 0.247232
O O6 0.500000 0.860668 0.087783
O O7 0.639429 0.500000 0.500000
O O8 0.500000 0.375160 0.485713
O O9 0.639792 0.250000 0.504755
O O10 0.913959 0.250000 0.950897
O O11 0.750000 0.750000 0.000000
#
# Coordination Sequence:
#
# PCOD9504552 Si02
#       5
#    16   8  16   4   8
#     4  12  25  43  73 102 146 189 239 303 367 440
#     4  10  25  45  65 104 142 187 246 296 364 435
#     4  10  22  44  72 106 139 182 238 303 373 444
#     4  10  24  42  68  92 136 186 240 288 356 432
#     4  12  26  44  70 106 142 193 244 307 365 427
#
# _framework density 22.088830000000002
#
# number of rings (size 3 to 8) (size 9 to 14) (size 15 to 20)
#    0.462    0.615    3.077    2.769    2.154    7.385 
#    0.000    1.538    0.000    0.000    0.000    0.000 
#    0.000    0.000    0.000    0.000    0.000    0.000 
#
# Total GULP energy -145163.337309 kJ/mol
# GULP energy per Si atom -5583.205281 kJ/mol
# Density = 2.203855 g / cm^3
# Si number density = 22.088830 Si / 1000 Ang^3
#
#
#
# Elastic Constant Matrix: (Units=GPa)
#
#
# Indices 1 2 3 4 5 6 
#
# 1 99.4480 32.6549 -1.9763 0.0000 0.0000 0.0000
# 2 32.6549 197.7376 45.5210 0.0000 0.0000 0.0000
# 3 -1.9763 45.5210 67.1807 0.0000 0.0000 0.0000
# 4 0.0000 0.0000 0.0000 80.0834 0.0000 0.0000
# 5 0.0000 0.0000 0.0000 0.0000 15.0170 0.0000
# 6 0.0000 0.0000 0.0000 0.0000 0.0000 18.7288
#
#
#
# Elastic Compliance Matrix: (Units=1/GPa)
#
#
# Indices 1 2 3 4 5 6 
#
# 1 0.010815 -0.002203 0.001811 0.000000 0.000000 0.000000
# 2 -0.002203 0.006441 -0.004429 0.000000 0.000000 0.000000
# 3 0.001811 -0.004429 0.017939 0.000000 0.000000 0.000000
# 4 0.000000 0.000000 0.000000 0.012487 0.000000 0.000000
# 5 0.000000 0.000000 0.000000 0.000000 0.066591 0.000000
# 6 0.000000 0.000000 0.000000 0.000000 0.000000 0.053394
#
#
# Mechanical properties :
#
#
# Convention : Reuss Voigt Hill
#
# Bulk Modulus (GPa) = 39.13438 57.41837 48.27638
# Shear Modulus (GPa) = 26.90683 41.97694 34.44189
#
# Velocity S-wave (km/s) = 3.49394 4.36405 3.95301
# Velocity P-wave (km/s) = 5.83371 7.17245 6.53744
#
# Compressibility (1/GPa) = 0.02555298
#
# Stress axis : x y z
#
# Youngs Moduli (GPa) = 92.46565 155.26607 55.74302
#
# Poissons Ratio (x) = 0.34203 -0.10094
# Poissons Ratio (y) = 0.20369 0.24688
# Poissons Ratio (z) = -0.16743 0.68765
#
# Static dielectric constant tensor:
#      x y z
#    x 1.743350 0.000000 0.000000 
#    y 0.000000 1.806550 0.000000 
#    z 0.000000 0.000000 1.804100 
# 
# From -- ./inp_files/26616.got.cif
#   From: 2010.05.17/outbox.cif.g08.bks.cpg/sg67_14_cif.got.tgz:26616.got - 2010.06.03 18:28:57.
