data_PCOD9504208
_publ_section_title
;
Structure prediction by ZEFSAII (Michael W. Deem and Ramdas Pophale) SiO2 
 PCOD9504208
Probable space group: C M M A
;
_chemical_formula_sum "Si O2"
_cell_formula_units_Z 104
_cell_length_a 25.490892
_cell_length_b 16.034226
_cell_length_c 12.620040
_cell_angle_alpha 90.000000
_cell_angle_beta 90.000000
_cell_angle_gamma 90.000000
_cell_volume 5158.147597
_symmetry_space_group_name_H-M "C M M A"
_symmetry_group_IT_number 67
_symmetry_cell_setting 'orthorhombic'
loop_
_space_group_symop_operation_xyz
x,y,z
-x,1/2-y,z
x,-y,-z
-x,1/2+y,-z
-x,-y,-z
x,1/2+y,-z
-x,y,z
x,1/2-y,z
1/2+x,1/2+y,z
1/2-x,-y,z
1/2+x,1/2-y,-z
1/2-x,y,-z
1/2-x,1/2-y,-z
1/2+x,y,-z
1/2-x,1/2+y,z
1/2+x,-y,z
loop_
_atom_site_type_symbol
_atom_site_label
_atom_site_fract_x
_atom_site_fract_y
_atom_site_fract_z
Si Si1 0.340210 0.345772 0.294504
Si Si2 0.056476 0.439179 0.778698
Si Si3 0.906205 0.000000 0.000000
Si Si4 0.224860 0.849724 0.711985
Si Si5 0.559560 0.121484 0.689110
Si Si6 0.649041 0.097087 0.529985
Si Si7 0.134706 0.156885 0.117840
O O1 0.341673 0.250000 0.261732
O O2 0.391101 0.389777 0.247705
O O3 0.283201 0.381579 0.263941
O O4 0.341771 0.354566 0.421461
O O5 0.057732 0.521803 0.706691
O O6 0.000000 0.396331 0.762105
O O7 0.060537 0.470726 0.899227
O O8 0.873769 0.080766 0.038269
O O9 0.228064 0.750000 0.687814
O O10 0.197220 0.893299 0.611928
O O11 0.186408 0.858129 0.811770
O O12 0.500000 0.150957 0.675608
O O13 0.598661 0.134491 0.591340
O O14 0.587400 0.155034 0.795520
O O15 0.641465 0.000000 0.500000
O O16 0.136712 0.250000 0.070347
#
# Coordination Sequence:
#
# PCOD9504208 Si02
#       7
#    16  16   8  16  16  16  16
#     4  11  23  38  56  84 120 157 193 235 298 358
#     4  10  21  40  60  80 112 150 192 243 297 353
#     4  10  21  40  65  92 114 152 196 246 310 360
#     4   9  20  39  59  80 117 159 194 242 290 342
#     4   9  19  36  56  81 117 156 196 241 286 338
#     4  11  20  34  55  89 115 156 200 238 286 344
#     4   9  19  38  62  89 119 153 199 247 296 355
#
# _framework density 20.162277
#
# number of rings (size 3 to 8) (size 9 to 14) (size 15 to 20)
#    0.000    2.154    1.538    1.154    0.000    5.846 
#    0.000    1.538    0.000    2.769    0.000    0.000 
#    0.000    0.000    0.000    0.000    0.000    0.000 
#
# Total GULP energy -290275.157106 kJ/mol
# GULP energy per Si atom -5582.214560 kJ/mol
# Density = 2.011639 g / cm^3
# Si number density = 20.162277 Si / 1000 Ang^3
#
#
#
# Elastic Constant Matrix: (Units=GPa)
#
#
# Indices 1 2 3 4 5 6 
#
# 1 183.7296 42.1601 31.7428 0.0000 0.0000 0.0000
# 2 42.1601 73.5348 24.2833 0.0000 0.0000 0.0000
# 3 31.7428 24.2833 33.1944 0.0000 0.0000 0.0000
# 4 0.0000 0.0000 0.0000 27.1703 0.0000 0.0000
# 5 0.0000 0.0000 0.0000 0.0000 -2.1994 0.0000
# 6 0.0000 0.0000 0.0000 0.0000 0.0000 21.0690
#
#
#
# Elastic Compliance Matrix: (Units=1/GPa)
#
#
# Indices 1 2 3 4 5 6 
#
# 1 0.006805 -0.002311 -0.004817 0.000000 0.000000 0.000000
# 2 -0.002311 0.018715 -0.011481 0.000000 0.000000 0.000000
# 3 -0.004817 -0.011481 0.043131 0.000000 0.000000 0.000000
# 4 0.000000 0.000000 0.000000 0.036805 0.000000 0.000000
# 5 0.000000 0.000000 0.000000 0.000000 -0.454668 0.000000
# 6 0.000000 0.000000 0.000000 0.000000 0.000000 0.047463
#
#
# Mechanical properties :
#
#
# Convention : Reuss Voigt Hill
#
# Bulk Modulus (GPa) = 31.81364 54.09237 42.95301
# Shear Modulus (GPa) = -19.68106 22.02616 1.17255
#
# Velocity S-wave (km/s) = -3.12770 3.30880 0.76343
# Velocity P-wave (km/s) = 1.66424 6.44083 4.70393
#
# Compressibility (1/GPa) = 0.03143306
#
# Stress axis : x y z
#
# Youngs Moduli (GPa) = 146.94370 53.43189 23.18509
#
# Poissons Ratio (x) = 0.12348 0.11169
# Poissons Ratio (y) = 0.33958 0.26620
# Poissons Ratio (z) = 0.70785 0.61347
#
# Static dielectric constant tensor:
#      x y z
#    x 1.740090 0.000000 0.000000 
#    y 0.000000 1.734520 0.000000 
#    z 0.000000 0.000000 1.680820 
# 
# From -- ./inp_files/22977.got.cif
#   From: 2010.05.17/outbox.cif.g08.bks.cpg/sg67_12_cif.got.tgz:22977.got - 2010.06.03 18:28:57.
