data_PCOD9504356
_publ_section_title
;
Structure prediction by ZEFSAII (Michael W. Deem and Ramdas Pophale) SiO2 
 PCOD9504356
Probable space group: C M M A
;
_chemical_formula_sum "Si O2"
_cell_formula_units_Z 80
_cell_length_a 18.094405
_cell_length_b 25.571869
_cell_length_c 9.147714
_cell_angle_alpha 90.000000
_cell_angle_beta 90.000000
_cell_angle_gamma 90.000000
_cell_volume 4232.718202
_symmetry_space_group_name_H-M "C M M A"
_symmetry_group_IT_number 67
_symmetry_cell_setting 'orthorhombic'
loop_
_space_group_symop_operation_xyz
x,y,z
-x,1/2-y,z
x,-y,-z
-x,1/2+y,-z
-x,-y,-z
x,1/2+y,-z
-x,y,z
x,1/2-y,z
1/2+x,1/2+y,z
1/2-x,-y,z
1/2+x,1/2-y,-z
1/2-x,y,-z
1/2-x,1/2-y,-z
1/2+x,y,-z
1/2-x,1/2+y,z
1/2+x,-y,z
loop_
_atom_site_type_symbol
_atom_site_label
_atom_site_fract_x
_atom_site_fract_y
_atom_site_fract_z
Si Si1 0.168701 0.307278 0.431045
Si Si2 0.912726 0.622158 0.357497
Si Si3 0.229765 0.059605 0.671476
Si Si4 0.194106 0.352360 0.130568
Si Si5 0.412393 0.690374 0.923601
O O1 0.139715 0.250000 0.470959
O O2 0.250000 0.313795 0.500000
O O3 0.114444 0.351731 0.491400
O O4 0.182355 0.311348 0.259380
O O5 0.856907 0.574905 0.320220
O O6 0.896239 0.666658 0.235911
O O7 0.000000 0.610069 0.356883
O O8 0.250000 0.068003 0.500000
O O9 0.274670 0.097321 0.782247
O O10 0.250000 0.000000 0.705825
O O11 0.250000 0.338410 0.000000
O O12 0.118015 0.350860 0.041569
O O13 0.500000 0.693200 0.937414
O O14 0.383217 0.750000 0.940047
#
# Coordination Sequence:
#
# PCOD9504356 Si02
#       5
#    16  16  16  16  16
#     4  11  21  35  58  89 124 162 208 248 288 353
#     4  11  21  41  65  90 122 162 207 253 307 364
#     4  11  23  45  67  87 115 154 206 267 312 358
#     4  12  21  38  61  90 123 162 206 246 304 365
#     4  10  22  38  57  88 131 169 198 242 306 368
#
# _framework density 18.900383999999999
#
# number of rings (size 3 to 8) (size 9 to 14) (size 15 to 20)
#    0.000    1.000    6.000    1.200    0.000    5.600 
#    0.000    3.000    0.000    2.400    0.000    0.000 
#    0.000    0.000    0.000    0.000    0.000    0.000 
#
# Total GULP energy -222948.240518 kJ/mol
# GULP energy per Si atom -5573.706013 kJ/mol
# Density = 1.885737 g / cm^3
# Si number density = 18.900384 Si / 1000 Ang^3
#
#
#
# Elastic Constant Matrix: (Units=GPa)
#
#
# Indices 1 2 3 4 5 6 
#
# 1 84.2615 61.8194 33.7257 0.0000 0.0000 0.0000
# 2 61.8194 109.7699 16.7705 0.0000 0.0000 0.0000
# 3 33.7257 16.7705 108.1015 0.0000 0.0000 0.0000
# 4 0.0000 0.0000 0.0000 31.2659 0.0000 0.0000
# 5 0.0000 0.0000 0.0000 0.0000 28.6954 0.0000
# 6 0.0000 0.0000 0.0000 0.0000 0.0000 13.9584
#
#
#
# Elastic Compliance Matrix: (Units=1/GPa)
#
#
# Indices 1 2 3 4 5 6 
#
# 1 0.022800 -0.012039 -0.005245 0.000000 0.000000 0.000000
# 2 -0.012039 0.015688 0.001322 0.000000 0.000000 0.000000
# 3 -0.005245 0.001322 0.010682 0.000000 0.000000 0.000000
# 4 0.000000 0.000000 0.000000 0.031984 0.000000 0.000000
# 5 0.000000 0.000000 0.000000 0.000000 0.034849 0.000000
# 6 0.000000 0.000000 0.000000 0.000000 0.000000 0.071641
#
#
# Mechanical properties :
#
#
# Convention : Reuss Voigt Hill
#
# Bulk Modulus (GPa) = 57.98673 58.52934 58.25803
# Shear Modulus (GPa) = 22.19108 27.43844 24.81476
#
# Velocity S-wave (km/s) = 3.43024 3.81430 3.62736
# Velocity P-wave (km/s) = 6.81436 7.10162 6.95948
#
# Compressibility (1/GPa) = 0.01724533
#
# Stress axis : x y z
#
# Youngs Moduli (GPa) = 43.86029 63.74355 93.61601
#
# Poissons Ratio (x) = 0.76739 0.49106
# Poissons Ratio (y) = 0.52802 -0.12377
# Poissons Ratio (z) = 0.23007 -0.08428
#
# Static dielectric constant tensor:
#      x y z
#    x 1.711340 0.000000 0.000000 
#    y 0.000000 1.657950 0.000000 
#    z 0.000000 0.000000 1.714270 
# 
# From -- ./inp_files/9966.got.cif
#   From: 2010.05.17/outbox.cif.g08.bks.cpg/sg67_5_cif.got.tgz:9966.got - 2010.06.03 18:28:57.
