data_PCOD9504911
_publ_section_title
;
Structure prediction by ZEFSAII (Michael W. Deem and Ramdas Pophale) SiO2 
 PCOD9504911
Probable space group: C M M A
;
_chemical_formula_sum "Si O2"
_cell_formula_units_Z 64
_cell_length_a 10.668361
_cell_length_b 18.991247
_cell_length_c 15.915505
_cell_angle_alpha 90.000000
_cell_angle_beta 90.000000
_cell_angle_gamma 90.000000
_cell_volume 3224.568511
_symmetry_space_group_name_H-M "C M M A"
_symmetry_group_IT_number 67
_symmetry_cell_setting 'orthorhombic'
loop_
_space_group_symop_operation_xyz
x,y,z
-x,1/2-y,z
x,-y,-z
-x,1/2+y,-z
-x,-y,-z
x,1/2+y,-z
-x,y,z
x,1/2-y,z
1/2+x,1/2+y,z
1/2-x,-y,z
1/2+x,1/2-y,-z
1/2-x,y,-z
1/2-x,1/2-y,-z
1/2+x,y,-z
1/2-x,1/2+y,z
1/2+x,-y,z
loop_
_atom_site_type_symbol
_atom_site_label
_atom_site_fract_x
_atom_site_fract_y
_atom_site_fract_z
Si Si1 0.249644 0.665561 0.338527
Si Si2 0.500000 0.580979 0.605303
Si Si3 0.354889 0.825700 0.157340
Si Si4 0.132072 0.969896 0.906180
Si Si5 0.000000 0.585077 0.596911
O O1 0.245235 0.750000 0.361064
O O2 0.124706 0.622977 0.364454
O O3 0.268457 0.662824 0.237731
O O4 0.374112 0.627011 0.375086
O O5 0.500000 0.496989 0.628278
O O6 0.500000 0.582840 0.504053
O O7 0.500000 0.826067 0.188310
O O8 0.328878 0.750000 0.119751
O O9 0.347932 0.887227 0.090797
O O10 0.000000 0.985632 0.864261
O O11 0.250000 0.000000 0.858315
O O12 0.127863 0.000000 0.000000
#
# Coordination Sequence:
#
# PCOD9504911 Si02
#       5
#    16   8  16  16   8
#     4  11  22  39  61  86 116 156 206 251 297 357
#     4  11  25  39  57  87 124 152 197 256 313 345
#     4   9  18  36  59  82 111 152 196 236 285 349
#     4   9  18  34  56  83 113 143 183 231 279 339
#     4  11  23  41  59  83 118 164 199 242 303 377
#
# _framework density 19.847617
#
# number of rings (size 3 to 8) (size 9 to 14) (size 15 to 20)
#    0.000    2.000    1.250    2.250    0.000    7.000 
#    2.250    2.500    0.000    1.500    0.000    0.000 
#    0.000    0.000    0.000    0.000    0.000    0.000 
#
# Total GULP energy -178201.504265 kJ/mol
# GULP energy per Si atom -5568.797008 kJ/mol
# Density = 1.980244 g / cm^3
# Si number density = 19.847617 Si / 1000 Ang^3
#
#
#
# Elastic Constant Matrix: (Units=GPa)
#
#
# Indices 1 2 3 4 5 6 
#
# 1 175.7695 100.4319 16.7090 0.0000 0.0000 0.0000
# 2 100.4319 202.8667 57.7513 0.0000 0.0000 0.0000
# 3 16.7090 57.7513 44.6699 0.0000 0.0000 0.0000
# 4 0.0000 0.0000 0.0000 40.8613 0.0000 0.0000
# 5 0.0000 0.0000 0.0000 0.0000 5.9108 0.0000
# 6 0.0000 0.0000 0.0000 0.0000 0.0000 29.3942
#
#
#
# Elastic Compliance Matrix: (Units=1/GPa)
#
#
# Indices 1 2 3 4 5 6 
#
# 1 0.008261 -0.005080 0.003477 0.000000 0.000000 0.000000
# 2 -0.005080 0.010923 -0.012222 0.000000 0.000000 0.000000
# 3 0.003477 -0.012222 0.036887 0.000000 0.000000 0.000000
# 4 0.000000 0.000000 0.000000 0.024473 0.000000 0.000000
# 5 0.000000 0.000000 0.000000 0.000000 0.169183 0.000000
# 6 0.000000 0.000000 0.000000 0.000000 0.000000 0.034020
#
#
# Mechanical properties :
#
#
# Convention : Reuss Voigt Hill
#
# Bulk Modulus (GPa) = 35.18369 85.89892 60.54131
# Shear Modulus (GPa) = 15.58252 31.79419 23.68835
#
# Velocity S-wave (km/s) = 2.80502 4.00673 3.45847
# Velocity P-wave (km/s) = 5.31566 8.04850 6.82036
#
# Compressibility (1/GPa) = 0.02842226
#
# Stress axis : x y z
#
# Youngs Moduli (GPa) = 121.04853 91.54595 27.10951
#
# Poissons Ratio (x) = 0.46502 -0.09426
# Poissons Ratio (y) = 0.61488 0.33134
# Poissons Ratio (z) = -0.42089 1.11890
#
# Static dielectric constant tensor:
#      x y z
#    x 1.789110 0.000000 0.000000 
#    y 0.000000 1.757960 0.000000 
#    z 0.000000 0.000000 1.680190 
# 
# From -- ./inp_files/32675.got.cif
#   From: 2010.05.17/outbox.cif.g08.bks.cpg/sg67_17_cif.got.tgz:32675.got - 2010.06.03 18:28:57.
