data_PCOD9504036
_publ_section_title
;
Structure prediction by ZEFSAII (Michael W. Deem and Ramdas Pophale) SiO2 
 PCOD9504036
Probable space group: C M M A
;
_chemical_formula_sum "Si O2"
_cell_formula_units_Z 80
_cell_length_a 19.095671
_cell_length_b 8.733275
_cell_length_c 26.283877
_cell_angle_alpha 90.000000
_cell_angle_beta 90.000000
_cell_angle_gamma 90.000000
_cell_volume 4383.302927
_symmetry_space_group_name_H-M "C M M A"
_symmetry_group_IT_number 67
_symmetry_cell_setting 'orthorhombic'
loop_
_space_group_symop_operation_xyz
x,y,z
-x,1/2-y,z
x,-y,-z
-x,1/2+y,-z
-x,-y,-z
x,1/2+y,-z
-x,y,z
x,1/2-y,z
1/2+x,1/2+y,z
1/2-x,-y,z
1/2+x,1/2-y,-z
1/2-x,y,-z
1/2-x,1/2-y,-z
1/2+x,y,-z
1/2-x,1/2+y,z
1/2+x,-y,z
loop_
_atom_site_type_symbol
_atom_site_label
_atom_site_fract_x
_atom_site_fract_y
_atom_site_fract_z
Si Si1 0.672003 0.565743 0.348058
Si Si2 0.416566 0.068795 0.854618
Si Si3 0.327994 0.067218 0.053746
Si Si4 0.917735 0.066648 0.744370
Si Si5 0.580906 0.434426 0.554700
O O1 0.674072 0.750000 0.346603
O O2 0.750000 0.500000 0.348081
O O3 0.629195 0.504850 0.299681
O O4 0.630553 0.517511 0.399152
O O5 0.500000 0.047283 0.861276
O O6 0.401725 0.250000 0.855437
O O7 0.375478 0.986335 0.899637
O O8 0.398037 0.000023 0.799532
O O9 0.324630 0.250000 0.050698
O O10 0.250000 0.000000 0.060820
O O11 0.354554 0.000000 0.000000
O O12 0.910610 0.250000 0.744809
O O13 0.000000 0.029292 0.735599
O O14 0.602338 0.500000 0.500000
O O15 0.500000 0.481883 0.564160
O O16 0.582068 0.250000 0.552111
#
# Coordination Sequence:
#
# PCOD9504036 Si02
#       5
#    16  16  16  16  16
#     4  11  23  38  56  81 114 149 187 230 278 330
#     4  10  21  38  60  86 115 147 185 230 280 331
#     4  11  22  38  59  83 114 150 190 232 278 333
#     4  10  21  38  60  85 112 144 184 229 278 333
#     4   9  19  36  58  82 108 142 184 228 275 329
#
# _framework density 18.251076999999999
#
# number of rings (size 3 to 8) (size 9 to 14) (size 15 to 20)
#    0.000    1.800    0.000    4.800    0.000    6.400 
#    0.000    8.000    0.000    0.000    0.000    0.000 
#    0.000    0.000    0.000    0.000    0.000    0.000 
#
# Total GULP energy -223524.800152 kJ/mol
# GULP energy per Si atom -5588.120004 kJ/mol
# Density = 1.820954 g / cm^3
# Si number density = 18.251077 Si / 1000 Ang^3
#
#
#
# Elastic Constant Matrix: (Units=GPa)
#
#
# Indices 1 2 3 4 5 6 
#
# 1 91.2451 62.7235 112.3781 0.0000 0.0000 0.0000
# 2 62.7235 103.1773 85.1318 0.0000 0.0000 0.0000
# 3 112.3781 85.1318 207.9709 0.0000 0.0000 0.0000
# 4 0.0000 0.0000 0.0000 37.6810 0.0000 0.0000
# 5 0.0000 0.0000 0.0000 0.0000-1032.3365 0.0000
# 6 0.0000 0.0000 0.0000 0.0000 0.0000 24.5562
#
#
#
# Elastic Compliance Matrix: (Units=1/GPa)
#
#
# Indices 1 2 3 4 5 6 
#
# 1 0.037838 -0.009260 -0.016655 0.000000 0.000000 0.000000
# 2 -0.009260 0.016901 -0.001915 0.000000 0.000000 0.000000
# 3 -0.016655 -0.001915 0.014592 0.000000 0.000000 0.000000
# 4 0.000000 0.000000 0.000000 0.026539 0.000000 0.000000
# 5 0.000000 0.000000 0.000000 0.000000 -0.000969 0.000000
# 6 0.000000 0.000000 0.000000 0.000000 0.000000 0.040723
#
#
# Mechanical properties :
#
#
# Convention : Reuss Voigt Hill
#
# Bulk Modulus (GPa) = 73.14824 102.54001 87.84412
# Shear Modulus (GPa) = 25.53095 -184.54252 -79.50578
#
# Velocity S-wave (km/s) = 3.74421 -10.06642 -6.60733
# Velocity P-wave (km/s) = 7.67190 8.87724 3.15811
#
# Compressibility (1/GPa) = 0.01367087
#
# Stress axis : x y z
#
# Youngs Moduli (GPa) = 26.42863 59.16722 68.53101
#
# Poissons Ratio (x) = 0.54789 1.14140
# Poissons Ratio (y) = 0.24473 0.13122
# Poissons Ratio (z) = 0.44018 0.11329
#
# Static dielectric constant tensor:
#      x y z
#    x 1.606470 0.000000 0.000000 
#    y 0.000000 1.611350 0.000000 
#    z 0.000000 0.000000 1.597350 
# 
# From -- ./inp_files/43249.got.cif
#   From: 2010.05.17/outbox.cif.g08.bks.cpg/sg67_22_cif.got.tgz:43249.got - 2010.06.03 18:28:57.
