data_PCOD9504780
_publ_section_title
;
Structure prediction by ZEFSAII (Michael W. Deem and Ramdas Pophale) SiO2 
 PCOD9504780
Probable space group: C M M A
;
_chemical_formula_sum "Si O2"
_cell_formula_units_Z 112
_cell_length_a 27.729584
_cell_length_b 14.384446
_cell_length_c 11.558377
_cell_angle_alpha 90.000000
_cell_angle_beta 90.000000
_cell_angle_gamma 90.000000
_cell_volume 4610.344201
_symmetry_space_group_name_H-M "C M M A"
_symmetry_group_IT_number 67
_symmetry_cell_setting 'orthorhombic'
loop_
_space_group_symop_operation_xyz
x,y,z
-x,1/2-y,z
x,-y,-z
-x,1/2+y,-z
-x,-y,-z
x,1/2+y,-z
-x,y,z
x,1/2-y,z
1/2+x,1/2+y,z
1/2-x,-y,z
1/2+x,1/2-y,-z
1/2-x,y,-z
1/2-x,1/2-y,-z
1/2+x,y,-z
1/2-x,1/2+y,z
1/2+x,-y,z
loop_
_atom_site_type_symbol
_atom_site_label
_atom_site_fract_x
_atom_site_fract_y
_atom_site_fract_z
Si Si1 0.273524 0.601689 0.613261
Si Si2 0.054616 0.862063 0.921366
Si Si3 0.107558 0.643392 0.152922
Si Si4 0.694693 0.111434 0.008039
Si Si5 0.942545 0.639894 0.650294
Si Si6 0.127810 0.013073 0.646062
Si Si7 0.689026 0.348241 0.754104
O O1 0.250000 0.500000 0.614427
O O2 0.250000 0.647902 0.500000
O O3 0.330899 0.585361 0.597361
O O4 0.246368 0.644509 0.725111
O O5 0.054723 0.750000 0.931628
O O6 0.068260 0.877169 0.787525
O O7 0.000000 0.895828 0.933162
O O8 0.083621 0.893932 0.034304
O O9 0.092919 0.750000 0.175928
O O10 0.099787 0.576527 0.261107
O O11 0.163926 0.641754 0.117494
O O12 0.674826 0.150807 0.888246
O O13 0.750000 0.139455 0.000000
O O14 0.692928 0.000000 0.000000
O O15 0.933892 0.750000 0.624571
O O16 0.909388 0.561968 0.588782
O O17 0.000000 0.624891 0.632690
O O18 0.163678 0.938611 0.705079
O O19 0.672339 0.250000 0.703407
#
# Coordination Sequence:
#
# PCOD9504780 Si02
#       7
#    16  16  16  16  16  16  16
#     4   9  21  40  59  80 107 145 190 247 309 365
#     4   8  16  31  48  70 109 159 206 246 280 326
#     4  11  22  34  50  75 112 159 204 242 287 345
#     4  11  22  34  49  70 109 153 189 235 290 348
#     4   9  18  33  54  84 122 162 203 246 292 344
#     4  11  21  35  56  82 115 153 195 244 297 354
#     4  11  22  36  57  82 109 147 196 248 300 357
#
# _framework density 24.293195999999998
#
# number of rings (size 3 to 8) (size 9 to 14) (size 15 to 20)
#    0.000    2.000    1.429    3.429    4.000    4.857 
#    0.000    1.429    0.000    1.286    0.000    8.000 
#    0.000    0.000    0.000   38.571    0.000    3.714 
#
# Total GULP energy -312201.858952 kJ/mol
# GULP energy per Si atom -5575.033196 kJ/mol
# Density = 2.423790 g / cm^3
# Si number density = 24.293196 Si / 1000 Ang^3
#
#
#
# Elastic Constant Matrix: (Units=GPa)
#
#
# Indices 1 2 3 4 5 6 
#
# 1 114.2535 19.2153 5.4285 0.0000 0.0000 0.0000
# 2 19.2153 137.0504 20.0107 0.0000 0.0000 0.0000
# 3 5.4285 20.0107 32.6437 0.0000 0.0000 0.0000
# 4 0.0000 0.0000 0.0000 111.5149 0.0000 0.0000
# 5 0.0000 0.0000 0.0000 0.0000 26.0036 0.0000
# 6 0.0000 0.0000 0.0000 0.0000 0.0000 -99.4789
#
#
#
# Elastic Compliance Matrix: (Units=1/GPa)
#
#
# Indices 1 2 3 4 5 6 
#
# 1 0.008982 -0.001144 -0.000793 0.000000 0.000000 0.000000
# 2 -0.001144 0.008159 -0.004812 0.000000 0.000000 0.000000
# 3 -0.000793 -0.004812 0.033715 0.000000 0.000000 0.000000
# 4 0.000000 0.000000 0.000000 0.008967 0.000000 0.000000
# 5 0.000000 0.000000 0.000000 0.000000 0.038456 0.000000
# 6 0.000000 0.000000 0.000000 0.000000 0.000000 -0.010052
#
#
# Mechanical properties :
#
#
# Convention : Reuss Voigt Hill
#
# Bulk Modulus (GPa) = 26.76577 41.47298 34.11938
# Shear Modulus (GPa) = 43.79132 23.56080 33.67606
#
# Velocity S-wave (km/s) = 4.25033 3.11762 3.72726
# Velocity P-wave (km/s) = 5.92695 5.48346 5.70952
#
# Compressibility (1/GPa) = 0.03736115
#
# Stress axis : x y z
#
# Youngs Moduli (GPa) = 111.32791 122.55686 29.66030
#
# Poissons Ratio (x) = 0.14016 0.02351
# Poissons Ratio (y) = 0.12732 0.14271
# Poissons Ratio (z) = 0.08825 0.58970
#
# Static dielectric constant tensor:
#      x y z
#    x 2.014470 0.000000 0.000000 
#    y 0.000000 1.956290 0.000000 
#    z 0.000000 0.000000 2.072060 
# 
# From -- ./inp_files/30813.got.cif
#   From: 2010.05.17/outbox.cif.g08.bks.cpg/sg67_16_cif.got.tgz:30813.got - 2010.06.03 18:28:57.
