data_PCOD9504944
_publ_section_title
;
Structure prediction by ZEFSAII (Michael W. Deem and Ramdas Pophale) SiO2 
 PCOD9504944
Probable space group: C M M A
;
_chemical_formula_sum "Si O2"
_cell_formula_units_Z 64
_cell_length_a 18.623325
_cell_length_b 20.448816
_cell_length_c 8.681653
_cell_angle_alpha 90.000000
_cell_angle_beta 90.000000
_cell_angle_gamma 90.000000
_cell_volume 3306.190037
_symmetry_space_group_name_H-M "C M M A"
_symmetry_group_IT_number 67
_symmetry_cell_setting 'orthorhombic'
loop_
_space_group_symop_operation_xyz
x,y,z
-x,1/2-y,z
x,-y,-z
-x,1/2+y,-z
-x,-y,-z
x,1/2+y,-z
-x,y,z
x,1/2-y,z
1/2+x,1/2+y,z
1/2-x,-y,z
1/2+x,1/2-y,-z
1/2-x,y,-z
1/2-x,1/2-y,-z
1/2+x,y,-z
1/2-x,1/2+y,z
1/2+x,-y,z
loop_
_atom_site_type_symbol
_atom_site_label
_atom_site_fract_x
_atom_site_fract_y
_atom_site_fract_z
Si Si1 0.300207 0.250000 0.285432
Si Si2 0.336423 0.997900 0.679467
Si Si3 0.364353 0.250000 0.606722
Si Si4 0.084499 0.373599 0.201549
Si Si5 0.823566 0.619944 0.091215
O O1 0.359096 0.250000 0.421959
O O2 0.219161 0.250000 0.347103
O O3 0.306335 0.184386 0.187677
O O4 0.372496 0.062005 0.748464
O O5 0.359325 0.000000 0.500000
O O6 0.250000 0.000000 0.678253
O O7 0.350989 0.936075 0.791212
O O8 0.399308 0.314207 0.681688
O O9 0.000000 0.385512 0.195882
O O10 0.117198 0.359818 0.033804
O O11 0.750000 0.599450 0.000000
#
# Coordination Sequence:
#
# PCOD9504944 Si02
#       5
#     8  16   8  16  16
#     4  11  22  40  72 101 126 168 229 269 327 391
#     4  11  23  41  66  96 128 173 226 272 327 397
#     4  11  22  43  67 100 133 170 220 280 325 398
#     4  12  26  42  65  97 136 177 217 275 345 402
#     4  12  22  40  68  99 131 172 221 283 326 393
#
# _framework density 19.357627000000001
#
# number of rings (size 3 to 8) (size 9 to 14) (size 15 to 20)
#    0.000    0.500    5.000    3.750    0.000    6.500 
#    0.000    5.000    0.000    0.000    0.000    0.000 
#    0.000    0.000    0.000    0.000    0.000    0.000 
#
# Total GULP energy -178749.984694 kJ/mol
# GULP energy per Si atom -5585.937022 kJ/mol
# Density = 1.931357 g / cm^3
# Si number density = 19.357627 Si / 1000 Ang^3
#
#
#
# Elastic Constant Matrix: (Units=GPa)
#
#
# Indices 1 2 3 4 5 6 
#
# 1 98.1682 24.5857 26.5274 0.0000 0.0000 0.0000
# 2 24.5857 116.3866 33.2769 0.0000 0.0000 0.0000
# 3 26.5274 33.2769 111.3159 0.0000 0.0000 0.0000
# 4 0.0000 0.0000 0.0000 44.0748 0.0000 0.0000
# 5 0.0000 0.0000 0.0000 0.0000 10.6343 0.0000
# 6 0.0000 0.0000 0.0000 0.0000 0.0000-1200.9126
#
#
#
# Elastic Compliance Matrix: (Units=1/GPa)
#
#
# Indices 1 2 3 4 5 6 
#
# 1 0.011206 -0.001753 -0.002146 0.000000 0.000000 0.000000
# 2 -0.001753 0.009669 -0.002473 0.000000 0.000000 0.000000
# 3 -0.002146 -0.002473 0.010234 0.000000 0.000000 0.000000
# 4 0.000000 0.000000 0.000000 0.022689 0.000000 0.000000
# 5 0.000000 0.000000 0.000000 0.000000 0.094035 0.000000
# 6 0.000000 0.000000 0.000000 0.000000 0.000000 -0.000833
#
#
# Mechanical properties :
#
#
# Convention : Reuss Voigt Hill
#
# Bulk Modulus (GPa) = 54.45311 54.96118 54.70714
# Shear Modulus (GPa) = 30.14467 -213.14197 -91.49865
#
# Velocity S-wave (km/s) = 3.95048 -10.50460 -6.88259
# Velocity P-wave (km/s) = 6.99997 10.89378 5.90233
#
# Compressibility (1/GPa) = 0.01836443
#
# Stress axis : x y z
#
# Youngs Moduli (GPa) = 89.24024 103.41846 97.71253
#
# Poissons Ratio (x) = 0.18134 0.20971
# Poissons Ratio (y) = 0.15648 0.24162
# Poissons Ratio (z) = 0.19153 0.25573
#
# Static dielectric constant tensor:
#      x y z
#    x 1.649030 0.000000 0.000000 
#    y 0.000000 1.623280 0.000000 
#    z 0.000000 0.000000 1.763240 
# 
# From -- ./inp_files/9397.got.cif
#   From: 2010.05.17/outbox.cif.g08.bks.cpg/sg67_5_cif.got.tgz:9397.got - 2010.06.03 18:28:57.
