data_PCOD9504371
_publ_section_title
;
Structure prediction by ZEFSAII (Michael W. Deem and Ramdas Pophale) SiO2 
 PCOD9504371
Probable space group: C M M A
;
_chemical_formula_sum "Si O2"
_cell_formula_units_Z 96
_cell_length_a 15.046081
_cell_length_b 14.333439
_cell_length_c 21.977126
_cell_angle_alpha 90.000000
_cell_angle_beta 90.000000
_cell_angle_gamma 90.000000
_cell_volume 4739.632798
_symmetry_space_group_name_H-M "C M M A"
_symmetry_group_IT_number 67
_symmetry_cell_setting 'orthorhombic'
loop_
_space_group_symop_operation_xyz
x,y,z
-x,1/2-y,z
x,-y,-z
-x,1/2+y,-z
-x,-y,-z
x,1/2+y,-z
-x,y,z
x,1/2-y,z
1/2+x,1/2+y,z
1/2-x,-y,z
1/2+x,1/2-y,-z
1/2-x,y,-z
1/2-x,1/2-y,-z
1/2+x,y,-z
1/2-x,1/2+y,z
1/2+x,-y,z
loop_
_atom_site_type_symbol
_atom_site_label
_atom_site_fract_x
_atom_site_fract_y
_atom_site_fract_z
Si Si1 0.397210 0.054790 0.440658
Si Si2 0.895534 0.430721 0.179955
Si Si3 0.200063 0.250000 0.562900
Si Si4 0.680632 0.250000 0.679092
Si Si5 0.393498 0.250000 0.102103
Si Si6 0.269104 0.250000 0.807864
Si Si7 0.148443 0.961931 0.687149
Si Si8 0.107188 0.547119 0.061191
O O1 0.500000 0.069899 0.454033
O O2 0.354001 0.155102 0.432865
O O3 0.359563 0.000000 0.500000
O O4 0.388750 0.001911 0.376123
O O5 0.830648 0.340903 0.179712
O O6 0.887429 0.483752 0.245053
O O7 0.867132 0.495976 0.123727
O O8 0.000000 0.404129 0.172612
O O9 0.250000 0.250000 0.500000
O O10 0.270730 0.250000 0.616025
O O11 0.748394 0.250000 0.735665
O O12 0.633181 0.349717 0.684030
O O13 0.500000 0.250000 0.118348
O O14 0.323547 0.250000 0.157162
O O15 0.373837 0.343575 0.064814
O O16 0.250000 0.000000 0.687537
O O17 0.000000 0.539031 0.059645
O O18 0.142496 0.500000 0.000000
#
# Coordination Sequence:
#
# PCOD9504371 Si02
#       8
#    16  16   8   8   8   8  16  16
#     4  11  25  42  62  93 127 163 209 264 317 375
#     4  10  22  40  64  92 126 169 213 262 318 378
#     4  12  23  39  64  89 121 162 210 250 315 381
#     4  10  22  38  59  95 117 161 207 255 308 366
#     4  10  22  40  62  92 126 162 211 264 319 380
#     4  10  23  39  64  90 129 161 211 264 317 376
#     4  11  22  39  65  90 127 166 213 260 318 383
#     4   9  20  39  63  91 125 167 210 260 323 384
#
# _framework density 20.254735
#
# number of rings (size 3 to 8) (size 9 to 14) (size 15 to 20)
#    0.000    1.667    1.667    2.000    4.667    0.667 
#    0.000    7.917    0.000    1.000    0.000    0.000 
#    0.000    0.000    0.000    0.000    0.000    0.000 
#
# Total GULP energy -267769.322629 kJ/mol
# GULP energy per Si atom -5578.527555 kJ/mol
# Density = 2.020863 g / cm^3
# Si number density = 20.254735 Si / 1000 Ang^3
#
#
#
# Elastic Constant Matrix: (Units=GPa)
#
#
# Indices 1 2 3 4 5 6 
#
# 1 34.7744 -11.9027 9.5428 0.0000 0.0000 0.0000
# 2 -11.9027 104.2360 67.9457 0.0000 0.0000 0.0000
# 3 9.5428 67.9457 180.0170 0.0000 0.0000 0.0000
# 4 0.0000 0.0000 0.0000 41.9145 0.0000 0.0000
# 5 0.0000 0.0000 0.0000 0.0000 12.5459 0.0000
# 6 0.0000 0.0000 0.0000 0.0000 0.0000 12.3617
#
#
#
# Elastic Compliance Matrix: (Units=1/GPa)
#
#
# Indices 1 2 3 4 5 6 
#
# 1 0.032041 0.006321 -0.004084 0.000000 0.000000 0.000000
# 2 0.006321 0.013971 -0.005608 0.000000 0.000000 0.000000
# 3 -0.004084 -0.005608 0.007888 0.000000 0.000000 0.000000
# 4 0.000000 0.000000 0.000000 0.023858 0.000000 0.000000
# 5 0.000000 0.000000 0.000000 0.000000 0.079708 0.000000
# 6 0.000000 0.000000 0.000000 0.000000 0.000000 0.080895
#
#
# Mechanical properties :
#
#
# Convention : Reuss Voigt Hill
#
# Bulk Modulus (GPa) = 21.20547 50.02211 35.61379
# Shear Modulus (GPa) = 19.17001 30.26052 24.71526
#
# Velocity S-wave (km/s) = 3.07977 3.86942 3.49696
# Velocity P-wave (km/s) = 4.81028 6.68680 5.82461
#
# Compressibility (1/GPa) = 0.04715764
#
# Stress axis : x y z
#
# Youngs Moduli (GPa) = 31.20977 71.57563 126.76871
#
# Poissons Ratio (x) = -0.45244 0.51777
# Poissons Ratio (y) = -0.19728 0.71097
# Poissons Ratio (z) = 0.12747 0.40142
#
# Static dielectric constant tensor:
#      x y z
#    x 1.722240 0.000000 0.000000 
#    y 0.000000 1.737790 0.000000 
#    z 0.000000 0.000000 1.725070 
# 
# From -- ./inp_files/38568.got.cif
#   From: 2010.05.17/outbox.cif.g08.bks.cpg/sg67_20_cif.got.tgz:38568.got - 2010.06.03 18:28:57.
