data_PCOD9504199
_publ_section_title
;
Structure prediction by ZEFSAII (Michael W. Deem and Ramdas Pophale) SiO2 
 PCOD9504199
Probable space group: C M M A
;
_chemical_formula_sum "Si O2"
_cell_formula_units_Z 80
_cell_length_a 24.459001
_cell_length_b 14.368193
_cell_length_c 10.791435
_cell_angle_alpha 90.000000
_cell_angle_beta 90.000000
_cell_angle_gamma 90.000000
_cell_volume 3792.451775
_symmetry_space_group_name_H-M "C M M A"
_symmetry_group_IT_number 67
_symmetry_cell_setting 'orthorhombic'
loop_
_space_group_symop_operation_xyz
x,y,z
-x,1/2-y,z
x,-y,-z
-x,1/2+y,-z
-x,-y,-z
x,1/2+y,-z
-x,y,z
x,1/2-y,z
1/2+x,1/2+y,z
1/2-x,-y,z
1/2+x,1/2-y,-z
1/2-x,y,-z
1/2-x,1/2-y,-z
1/2+x,y,-z
1/2-x,1/2+y,z
1/2+x,-y,z
loop_
_atom_site_type_symbol
_atom_site_label
_atom_site_fract_x
_atom_site_fract_y
_atom_site_fract_z
Si Si1 0.829390 0.643133 0.773962
Si Si2 0.000000 0.859876 0.859537
Si Si3 0.777336 0.139240 0.629693
Si Si4 0.609674 0.142701 0.019765
Si Si5 0.500000 0.484720 0.353830
Si Si6 0.616764 0.041255 0.275322
O O1 0.839925 0.750000 0.733793
O O2 0.767869 0.618746 0.734994
O O3 0.841762 0.638698 0.919667
O O4 0.870219 0.568516 0.714043
O O5 0.946321 0.877112 0.944050
O O6 0.000000 0.750000 0.826429
O O7 0.000000 0.925648 0.739227
O O8 0.785769 0.250000 0.628111
O O9 0.750000 0.112027 0.500000
O O10 0.834474 0.090998 0.653166
O O11 0.606063 0.250000 0.065187
O O12 0.618865 0.073871 0.132727
O O13 0.500000 0.500000 0.500000
O O14 0.443356 0.434451 0.321850
#
# Coordination Sequence:
#
# PCOD9504199 Si02
#       6
#    16   8  16  16   8  16
#     4  10  22  39  65  99 131 175 227 273 330 404
#     4  10  21  43  71  93 134 190 228 276 345 407
#     4  10  24  45  69  96 132 183 233 278 335 407
#     4  10  21  39  67 102 135 175 227 283 342 405
#     4  12  29  43  63 103 137 178 227 278 331 413
#     4  12  24  41  69  98 139 174 223 283 345 392
#
# _framework density 21.094532000000001
#
# number of rings (size 3 to 8) (size 9 to 14) (size 15 to 20)
#    0.000    1.400    2.000    2.400    2.800    2.400 
#    0.000    8.500    0.000    0.000    0.000    0.000 
#    0.000    0.000    0.000    0.000    0.000    0.000 
#
# Total GULP energy -223653.442214 kJ/mol
# GULP energy per Si atom -5591.336055 kJ/mol
# Density = 2.104652 g / cm^3
# Si number density = 21.094532 Si / 1000 Ang^3
#
#
#
# Elastic Constant Matrix: (Units=GPa)
#
#
# Indices 1 2 3 4 5 6 
#
# 1 183.3069 55.7290 71.1493 0.0000 0.0000 0.0000
# 2 55.7290 84.2689 30.0545 0.0000 0.0000 0.0000
# 3 71.1493 30.0545 99.5278 0.0000 0.0000 0.0000
# 4 0.0000 0.0000 0.0000 20.6428 0.0000 0.0000
# 5 0.0000 0.0000 0.0000 0.0000 32.1846 0.0000
# 6 0.0000 0.0000 0.0000 0.0000 0.0000 28.1608
#
#
#
# Elastic Compliance Matrix: (Units=1/GPa)
#
#
# Indices 1 2 3 4 5 6 
#
# 1 0.008558 -0.003897 -0.004941 0.000000 0.000000 0.000000
# 2 -0.003897 0.015074 -0.001766 0.000000 0.000000 0.000000
# 3 -0.004941 -0.001766 0.014113 0.000000 0.000000 0.000000
# 4 0.000000 0.000000 0.000000 0.048443 0.000000 0.000000
# 5 0.000000 0.000000 0.000000 0.000000 0.031071 0.000000
# 6 0.000000 0.000000 0.000000 0.000000 0.000000 0.035510
#
#
# Mechanical properties :
#
#
# Convention : Reuss Voigt Hill
#
# Bulk Modulus (GPa) = 60.47222 75.66324 68.06773
# Shear Modulus (GPa) = 27.85679 30.20902 29.03291
#
# Velocity S-wave (km/s) = 3.63791 3.78839 3.71391
# Velocity P-wave (km/s) = 6.80994 7.42175 7.12242
#
# Compressibility (1/GPa) = 0.01653652
#
# Stress axis : x y z
#
# Youngs Moduli (GPa) = 116.84935 66.33939 70.85768
#
# Poissons Ratio (x) = 0.25855 0.35010
# Poissons Ratio (y) = 0.45541 0.12512
# Poissons Ratio (z) = 0.57735 0.11714
#
# Static dielectric constant tensor:
#      x y z
#    x 1.749710 0.000000 0.000000 
#    y 0.000000 1.799940 0.000000 
#    z 0.000000 0.000000 1.739160 
# 
# From -- ./inp_files/21673.got.cif
#   From: 2010.05.17/outbox.cif.g08.bks.cpg/sg67_11_cif.got.tgz:21673.got - 2010.06.03 18:28:57.
