data_PCOD9504994
_publ_section_title
;
Structure prediction by ZEFSAII (Michael W. Deem and Ramdas Pophale) SiO2 
 PCOD9504994
Probable space group: C M M A
;
_chemical_formula_sum "Si O2"
_cell_formula_units_Z 64
_cell_length_a 15.558278
_cell_length_b 14.833321
_cell_length_c 13.912179
_cell_angle_alpha 90.000000
_cell_angle_beta 90.000000
_cell_angle_gamma 90.000000
_cell_volume 3210.665633
_symmetry_space_group_name_H-M "C M M A"
_symmetry_group_IT_number 67
_symmetry_cell_setting 'orthorhombic'
loop_
_space_group_symop_operation_xyz
x,y,z
-x,1/2-y,z
x,-y,-z
-x,1/2+y,-z
-x,-y,-z
x,1/2+y,-z
-x,y,z
x,1/2-y,z
1/2+x,1/2+y,z
1/2-x,-y,z
1/2+x,1/2-y,-z
1/2-x,y,-z
1/2-x,1/2-y,-z
1/2+x,y,-z
1/2-x,1/2+y,z
1/2+x,-y,z
loop_
_atom_site_type_symbol
_atom_site_label
_atom_site_fract_x
_atom_site_fract_y
_atom_site_fract_z
Si Si1 0.500000 0.849970 0.405630
Si Si2 0.500000 0.638612 0.191599
Si Si3 0.353490 0.993067 0.114383
Si Si4 0.338849 0.103178 0.466956
Si Si5 0.399873 0.852655 0.740948
O O1 0.500000 0.750000 0.368514
O O2 0.500000 0.899363 0.303152
O O3 0.418661 0.860766 0.473383
O O4 0.500000 0.750000 0.177661
O O5 0.587473 0.592503 0.148209
O O6 0.250000 0.000000 0.134026
O O7 0.388967 0.079631 0.171229
O O8 0.364375 0.000000 0.000000
O O9 0.250000 0.145990 0.500000
O O10 0.350370 0.113848 0.353617
O O11 0.337049 0.000000 0.500000
O O12 0.500000 0.850961 0.713521
O O13 0.373476 0.750000 0.764176
#
# Coordination Sequence:
#
# PCOD9504994 Si02
#       5
#     8   8  16  16  16
#     4  11  23  40  59  90 134 172 214 272 328 396
#     4  11  25  44  72 104 139 182 232 290 352 422
#     4  11  26  48  72  99 136 179 230 294 360 423
#     4  11  24  39  63  94 133 181 223 272 333 401
#     4  11  24  42  68  99 133 177 232 285 341 412
#
# _framework density 19.933561999999998
#
# number of rings (size 3 to 8) (size 9 to 14) (size 15 to 20)
#    0.000    1.000    2.500    3.000    7.000    4.000 
#    0.000    2.500    0.000    0.000    0.000    0.000 
#    0.000    0.000    0.000    0.000    0.000    0.000 
#
# Total GULP energy -178379.503034 kJ/mol
# GULP energy per Si atom -5574.359470 kJ/mol
# Density = 1.988819 g / cm^3
# Si number density = 19.933562 Si / 1000 Ang^3
#
#
#
# Elastic Constant Matrix: (Units=GPa)
#
#
# Indices 1 2 3 4 5 6 
#
# 1 140.3336 34.7926 46.3284 0.0000 0.0000 0.0000
# 2 34.7926 143.3630 44.9511 0.0000 0.0000 0.0000
# 3 46.3284 44.9511 127.7249 0.0000 0.0000 0.0000
# 4 0.0000 0.0000 0.0000 6.1047 0.0000 0.0000
# 5 0.0000 0.0000 0.0000 0.0000 151.6102 0.0000
# 6 0.0000 0.0000 0.0000 0.0000 0.0000 -3.6082
#
#
#
# Elastic Compliance Matrix: (Units=1/GPa)
#
#
# Indices 1 2 3 4 5 6 
#
# 1 0.008275 -0.001199 -0.002579 0.000000 0.000000 0.000000
# 2 -0.001199 0.008014 -0.002385 0.000000 0.000000 0.000000
# 3 -0.002579 -0.002385 0.009604 0.000000 0.000000 0.000000
# 4 0.000000 0.000000 0.000000 0.163809 0.000000 0.000000
# 5 0.000000 0.000000 0.000000 0.000000 0.006596 0.000000
# 6 0.000000 0.000000 0.000000 0.000000 0.000000 -0.277149
#
#
# Mechanical properties :
#
#
# Convention : Reuss Voigt Hill
#
# Bulk Modulus (GPa) = 73.71867 73.72952 73.72410
# Shear Modulus (GPa) = -78.12481 49.84463 -14.14009
#
# Velocity S-wave (km/s) = -6.26719 5.00596 -2.66627
# Velocity P-wave (km/s) = 3.91251 8.39529 5.25229
#
# Compressibility (1/GPa) = 0.01356508
#
# Stress axis : x y z
#
# Youngs Moduli (GPa) = 120.84944 124.77608 104.11868
#
# Poissons Ratio (x) = 0.14966 0.26855
# Poissons Ratio (y) = 0.14495 0.24837
# Poissons Ratio (z) = 0.31171 0.29765
#
# Static dielectric constant tensor:
#      x y z
#    x 1.708610 0.000000 0.000000 
#    y 0.000000 1.685500 0.000000 
#    z 0.000000 0.000000 1.681460 
# 
# From -- ./inp_files/19016.got.cif
#   From: 2010.05.17/outbox.cif.g08.bks.cpg/sg67_10_cif.got.tgz:19016.got - 2010.06.03 18:28:57.
