data_PCOD9504853
_publ_section_title
;
Structure prediction by ZEFSAII (Michael W. Deem and Ramdas Pophale) SiO2 
 PCOD9504853
Probable space group: C M M A
;
_chemical_formula_sum "Si O2"
_cell_formula_units_Z 112
_cell_length_a 15.130349
_cell_length_b 15.249812
_cell_length_c 22.916856
_cell_angle_alpha 90.000000
_cell_angle_beta 90.000000
_cell_angle_gamma 90.000000
_cell_volume 5287.720259
_symmetry_space_group_name_H-M "C M M A"
_symmetry_group_IT_number 67
_symmetry_cell_setting 'orthorhombic'
loop_
_space_group_symop_operation_xyz
x,y,z
-x,1/2-y,z
x,-y,-z
-x,1/2+y,-z
-x,-y,-z
x,1/2+y,-z
-x,y,z
x,1/2-y,z
1/2+x,1/2+y,z
1/2-x,-y,z
1/2+x,1/2-y,-z
1/2-x,y,-z
1/2-x,1/2-y,-z
1/2+x,y,-z
1/2-x,1/2+y,z
1/2+x,-y,z
loop_
_atom_site_type_symbol
_atom_site_label
_atom_site_fract_x
_atom_site_fract_y
_atom_site_fract_z
Si Si1 0.637094 0.342112 0.608253
Si Si2 0.605034 0.402496 0.485617
Si Si3 0.661931 0.346309 0.356832
Si Si4 0.286684 0.856500 0.084383
Si Si5 0.606124 0.146468 0.800170
Si Si6 0.400968 0.982526 0.302900
Si Si7 0.396486 0.142825 0.030836
O O1 0.594044 0.250000 0.625646
O O2 0.642367 0.346336 0.538677
O O3 0.734625 0.341451 0.633100
O O4 0.595907 0.428455 0.636328
O O5 0.638389 0.500000 0.500000
O O6 0.500000 0.401455 0.493552
O O7 0.623895 0.371009 0.420590
O O8 0.628323 0.250000 0.338848
O O9 0.646943 0.426506 0.313442
O O10 0.284329 0.750000 0.081676
O O11 0.334124 0.879401 0.144686
O O12 0.352402 0.883195 0.031412
O O13 0.184095 0.884932 0.074691
O O14 0.500000 0.137377 0.811930
O O15 0.620632 0.250000 0.787481
O O16 0.630844 0.085489 0.745696
O O17 0.500000 0.006549 0.286189
O O18 0.500000 0.113922 0.038179
O O19 0.399815 0.250000 0.032421
#
# Coordination Sequence:
#
# PCOD9504853 Si02
#       7
#    16  16  16  16  16  16  16
#     4  11  23  38  58  83 111 145 184 229 285 348
#     4  11  22  36  57  86 115 145 180 227 290 354
#     4  11  24  40  58  81 111 149 189 230 287 358
#     4   8  13  21  35  60  99 148 200 251 302 353
#     4   9  17  29  46  70 103 145 195 251 307 361
#     4  11  22  36  55  80 109 145 191 242 293 345
#     4   8  12  18  32  59  98 147 202 252 296 351
#
# _framework density 21.181151
#
# number of rings (size 3 to 8) (size 9 to 14) (size 15 to 20)
#    0.000    2.143    1.429    3.857    0.000    6.857 
#    0.000    0.000    0.000    0.000    0.000    6.000 
#    0.000   13.714    0.000   12.857    0.000  128.857 
#
# Total GULP energy -312355.054894 kJ/mol
# GULP energy per Si atom -5577.768837 kJ/mol
# Density = 2.113294 g / cm^3
# Si number density = 21.181151 Si / 1000 Ang^3
#
#
#
# Elastic Constant Matrix: (Units=GPa)
#
#
# Indices 1 2 3 4 5 6 
#
# 1 113.1508 47.9057 50.6483 0.0000 0.0000 0.0000
# 2 47.9057 113.2095 41.8674 0.0000 0.0000 0.0000
# 3 50.6483 41.8674 106.3453 0.0000 0.0000 0.0000
# 4 0.0000 0.0000 0.0000 9.7714 0.0000 0.0000
# 5 0.0000 0.0000 0.0000 0.0000 27.4353 0.0000
# 6 0.0000 0.0000 0.0000 0.0000 0.0000 9.9625
#
#
#
# Elastic Compliance Matrix: (Units=1/GPa)
#
#
# Indices 1 2 3 4 5 6 
#
# 1 0.012354 -0.003572 -0.004478 0.000000 0.000000 0.000000
# 2 -0.003572 0.011371 -0.002776 0.000000 0.000000 0.000000
# 3 -0.004478 -0.002776 0.012629 0.000000 0.000000 0.000000
# 4 0.000000 0.000000 0.000000 0.102340 0.000000 0.000000
# 5 0.000000 0.000000 0.000000 0.000000 0.036449 0.000000
# 6 0.000000 0.000000 0.000000 0.000000 0.000000 0.100376
#
#
# Mechanical properties :
#
#
# Convention : Reuss Voigt Hill
#
# Bulk Modulus (GPa) = 68.00981 68.17206 68.09093
# Shear Modulus (GPa) = 16.55241 22.25278 19.40260
#
# Velocity S-wave (km/s) = 2.79851 3.24480 3.02988
# Velocity P-wave (km/s) = 6.52844 6.80393 6.66761
#
# Compressibility (1/GPa) = 0.01470376
#
# Stress axis : x y z
#
# Youngs Moduli (GPa) = 80.94334 87.94190 79.18537
#
# Poissons Ratio (x) = 0.31412 0.35457
# Poissons Ratio (y) = 0.28912 0.21978
# Poissons Ratio (z) = 0.36244 0.24409
#
# Static dielectric constant tensor:
#      x y z
#    x 1.782670 0.000000 0.000000 
#    y 0.000000 1.846560 0.000000 
#    z 0.000000 0.000000 1.762300 
# 
# From -- ./inp_files/41925.got.cif
#   From: 2010.05.17/outbox.cif.g08.bks.cpg/sg67_21_cif.got.tgz:41925.got - 2010.06.03 18:28:57.
