data_PCOD9504349
_publ_section_title
;
Structure prediction by ZEFSAII (Michael W. Deem and Ramdas Pophale) SiO2 
 PCOD9504349
Probable space group: C M M A
;
_chemical_formula_sum "Si O2"
_cell_formula_units_Z 76
_cell_length_a 7.323853
_cell_length_b 14.852154
_cell_length_c 29.072178
_cell_angle_alpha 90.000000
_cell_angle_beta 90.000000
_cell_angle_gamma 90.000000
_cell_volume 3162.325948
_symmetry_space_group_name_H-M "C M M A"
_symmetry_group_IT_number 67
_symmetry_cell_setting 'orthorhombic'
loop_
_space_group_symop_operation_xyz
x,y,z
-x,1/2-y,z
x,-y,-z
-x,1/2+y,-z
-x,-y,-z
x,1/2+y,-z
-x,y,z
x,1/2-y,z
1/2+x,1/2+y,z
1/2-x,-y,z
1/2+x,1/2-y,-z
1/2-x,y,-z
1/2-x,1/2-y,-z
1/2+x,y,-z
1/2-x,1/2+y,z
1/2+x,-y,z
loop_
_atom_site_type_symbol
_atom_site_label
_atom_site_fract_x
_atom_site_fract_y
_atom_site_fract_z
Si Si1 0.204958 0.643000 0.674714
Si Si2 0.781987 0.250000 0.054078
Si Si3 0.281734 0.106249 0.874446
Si Si4 0.224252 0.356288 0.426074
Si Si5 0.750000 0.000000 0.500000
Si Si6 0.783182 0.893923 0.774858
O O1 0.187754 0.750000 0.669409
O O2 0.282974 0.615254 0.625584
O O3 0.292486 0.630451 0.724695
O O4 0.000000 0.602529 0.677490
O O5 0.713601 0.336468 0.082526
O O6 0.000000 0.250000 0.058297
O O7 0.750000 0.250000 0.000000
O O8 0.500000 0.117180 0.872113
O O9 0.213111 0.139586 0.824302
O O10 0.250000 0.000000 0.879923
O O11 0.267380 0.250000 0.433894
O O12 0.309086 0.424392 0.462506
O O13 0.000000 0.363610 0.428706
O O14 0.000000 0.871599 0.773138
O O15 0.750000 0.000000 0.778201
#
# Coordination Sequence:
#
# PCOD9504349 Si02
#       6
#    16   8  16  16   4  16
#     4   8  15  28  47  69  93 124 161 203 249 301
#     4  10  22  38  56  80 110 142 184 225 260 306
#     4   9  19  35  54  79 109 140 174 217 264 314
#     4   9  19  34  47  67  98 126 162 209 252 300
#     4  12  20  28  52  72  88 128 172 208 254 300
#     4   9  17  29  50  76 102 130 164 207 257 307
#
# _framework density 24.032944000000001
#
# number of rings (size 3 to 8) (size 9 to 14) (size 15 to 20)
#    0.000    2.947    0.000    1.895    2.947    1.263 
#    0.000    2.105    0.000    0.632    0.000    2.947 
#    0.000    0.000    0.000    0.000    0.000    0.000 
#
# Total GULP energy -211617.481966 kJ/mol
# GULP energy per Si atom -5568.881104 kJ/mol
# Density = 2.397824 g / cm^3
# Si number density = 24.032944 Si / 1000 Ang^3
#
#
#
# Elastic Constant Matrix: (Units=GPa)
#
#
# Indices 1 2 3 4 5 6 
#
# 1 107.7952 4.5765 22.0955 0.0000 0.0000 0.0000
# 2 4.5765 119.7561 98.9444 0.0000 0.0000 0.0000
# 3 22.0955 98.9444 312.5796 0.0000 0.0000 0.0000
# 4 0.0000 0.0000 0.0000 46.2632 0.0000 0.0000
# 5 0.0000 0.0000 0.0000 0.0000 0.3577 0.0000
# 6 0.0000 0.0000 0.0000 0.0000 0.0000 -5.1971
#
#
#
# Elastic Compliance Matrix: (Units=1/GPa)
#
#
# Indices 1 2 3 4 5 6 
#
# 1 0.009419 0.000257 -0.000747 0.000000 0.000000 0.000000
# 2 0.000257 0.011315 -0.003600 0.000000 0.000000 0.000000
# 3 -0.000747 -0.003600 0.004391 0.000000 0.000000 0.000000
# 4 0.000000 0.000000 0.000000 0.021615 0.000000 0.000000
# 5 0.000000 0.000000 0.000000 0.000000 2.795277 0.000000
# 6 0.000000 0.000000 0.000000 0.000000 0.000000 -0.192415
#
#
# Mechanical properties :
#
#
# Convention : Reuss Voigt Hill
#
# Bulk Modulus (GPa) = 59.01077 87.92931 73.47004
# Shear Modulus (GPa) = 1.87728 35.91908 18.89818
#
# Velocity S-wave (km/s) = 0.88477 3.87017 2.80723
# Velocity P-wave (km/s) = 5.06470 7.52578 6.41438
#
# Compressibility (1/GPa) = 0.01694606
#
# Stress axis : x y z
#
# Youngs Moduli (GPa) = 106.16726 88.38109 227.71355
#
# Poissons Ratio (x) = -0.02276 0.17017
# Poissons Ratio (y) = -0.02734 0.81971
# Poissons Ratio (z) = 0.07934 0.31815
#
# Static dielectric constant tensor:
#      x y z
#    x 1.874150 0.000000 0.000000 
#    y 0.000000 1.870930 0.000000 
#    z 0.000000 0.000000 1.956340 
# 
# From -- ./inp_files/44034.got.cif
#   From: 2010.05.17/outbox.cif.g08.bks.cpg/sg67_23_cif.got.tgz:44034.got - 2010.06.03 18:28:57.
