data_PCOD9504393
_publ_section_title
;
Structure prediction by ZEFSAII (Michael W. Deem and Ramdas Pophale) SiO2 
 PCOD9504393
Probable space group: C M M A
;
_chemical_formula_sum "Si O2"
_cell_formula_units_Z 112
_cell_length_a 28.316547
_cell_length_b 13.598318
_cell_length_c 12.662225
_cell_angle_alpha 90.000000
_cell_angle_beta 90.000000
_cell_angle_gamma 90.000000
_cell_volume 4875.683573
_symmetry_space_group_name_H-M "C M M A"
_symmetry_group_IT_number 67
_symmetry_cell_setting 'orthorhombic'
loop_
_space_group_symop_operation_xyz
x,y,z
-x,1/2-y,z
x,-y,-z
-x,1/2+y,-z
-x,-y,-z
x,1/2+y,-z
-x,y,z
x,1/2-y,z
1/2+x,1/2+y,z
1/2-x,-y,z
1/2+x,1/2-y,-z
1/2-x,y,-z
1/2-x,1/2-y,-z
1/2+x,y,-z
1/2-x,1/2+y,z
1/2+x,-y,z
loop_
_atom_site_type_symbol
_atom_site_label
_atom_site_fract_x
_atom_site_fract_y
_atom_site_fract_z
Si Si1 0.946952 0.369383 0.556258
Si Si2 0.701912 0.524768 0.310837
Si Si3 0.112237 0.131715 0.357694
Si Si4 0.711883 0.131871 0.909851
Si Si5 0.373745 0.367363 0.256407
Si Si6 0.605745 0.368770 0.884964
Si Si7 0.948261 0.869994 0.081023
O O1 0.949708 0.250000 0.553815
O O2 0.926281 0.400208 0.442870
O O3 0.908523 0.389784 0.645818
O O4 0.000000 0.405009 0.577527
O O5 0.750000 0.500000 0.369024
O O6 0.663885 0.586802 0.376929
O O7 0.717770 0.585669 0.206217
O O8 0.673556 0.428917 0.271190
O O9 0.115170 0.250000 0.361637
O O10 0.101259 0.102094 0.236989
O O11 0.714478 0.250000 0.900298
O O12 0.657091 0.105279 0.933180
O O13 0.750000 0.104841 0.000000
O O14 0.364571 0.250000 0.252522
O O15 0.404054 0.396467 0.153836
O O16 0.605177 0.250000 0.883418
O O17 0.563860 0.399275 0.961555
O O18 0.949430 0.750000 0.085511
O O19 0.000000 0.903452 0.116417
#
# Coordination Sequence:
#
# PCOD9504393 Si02
#       7
#    16  16  16  16  16  16  16
#     4   9  18  37  68  96 118 159 214 264 317 380
#     4  11  24  39  58  88 120 162 207 254 312 380
#     4   9  19  39  62  88 122 151 195 266 327 373
#     4   9  19  37  62  89 118 155 205 264 315 364
#     4  10  22  39  58  86 126 164 208 259 307 366
#     4   8  15  29  52  84 117 150 185 238 310 377
#     4   9  17  31  54  82 116 159 198 239 301 374
#
# _framework density 22.971139000000001
#
# number of rings (size 3 to 8) (size 9 to 14) (size 15 to 20)
#    0.000    2.714    0.000    1.714    2.000    4.286 
#    2.571    6.429    0.000    8.143    0.000    0.000 
#    0.000    0.000    0.000    0.000    0.000    0.000 
#
# Total GULP energy -313055.461291 kJ/mol
# GULP energy per Si atom -5590.276094 kJ/mol
# Density = 2.291886 g / cm^3
# Si number density = 22.971139 Si / 1000 Ang^3
#
#
#
# Elastic Constant Matrix: (Units=GPa)
#
#
# Indices 1 2 3 4 5 6 
#
# 1 143.9598 27.6740 55.2553 0.0000 0.0000 0.0000
# 2 27.6740 91.0953 13.5577 0.0000 0.0000 0.0000
# 3 55.2553 13.5577 90.2372 0.0000 0.0000 0.0000
# 4 0.0000 0.0000 0.0000 19.5757 0.0000 0.0000
# 5 0.0000 0.0000 0.0000 0.0000 20.0628 0.0000
# 6 0.0000 0.0000 0.0000 0.0000 0.0000 33.9330
#
#
#
# Elastic Compliance Matrix: (Units=1/GPa)
#
#
# Indices 1 2 3 4 5 6 
#
# 1 0.009442 -0.002054 -0.005473 0.000000 0.000000 0.000000
# 2 -0.002054 0.011675 -0.000497 0.000000 0.000000 0.000000
# 3 -0.005473 -0.000497 0.014508 0.000000 0.000000 0.000000
# 4 0.000000 0.000000 0.000000 0.051084 0.000000 0.000000
# 5 0.000000 0.000000 0.000000 0.000000 0.049844 0.000000
# 6 0.000000 0.000000 0.000000 0.000000 0.000000 0.029470
#
#
# Mechanical properties :
#
#
# Convention : Reuss Voigt Hill
#
# Bulk Modulus (GPa) = 51.07691 57.58513 54.33102
# Shear Modulus (GPa) = 26.51182 29.96797 28.23990
#
# Velocity S-wave (km/s) = 3.40094 3.61583 3.51003
# Velocity P-wave (km/s) = 6.14047 6.52344 6.33485
#
# Compressibility (1/GPa) = 0.01957832
#
# Stress axis : x y z
#
# Youngs Moduli (GPa) = 105.91121 85.65055 68.92832
#
# Poissons Ratio (x) = 0.17591 0.37725
# Poissons Ratio (y) = 0.21752 0.03423
# Poissons Ratio (z) = 0.57965 0.04253
#
# Static dielectric constant tensor:
#      x y z
#    x 1.856770 0.000000 0.000000 
#    y 0.000000 1.929380 0.000000 
#    z 0.000000 0.000000 1.846790 
# 
# From -- ./inp_files/23787.got.cif
#   From: 2010.05.17/outbox.cif.g08.bks.cpg/sg67_12_cif.got.tgz:23787.got - 2010.06.03 18:28:57.
