data_PCOD9504323
_publ_section_title
;
Structure prediction by ZEFSAII (Michael W. Deem and Ramdas Pophale) SiO2 
 PCOD9504323
Probable space group: C M M A
;
_chemical_formula_sum "Si O2"
_cell_formula_units_Z 80
_cell_length_a 26.702532
_cell_length_b 15.657322
_cell_length_c 10.236682
_cell_angle_alpha 90.000000
_cell_angle_beta 90.000000
_cell_angle_gamma 90.000000
_cell_volume 4279.855828
_symmetry_space_group_name_H-M "C M M A"
_symmetry_group_IT_number 67
_symmetry_cell_setting 'orthorhombic'
loop_
_space_group_symop_operation_xyz
x,y,z
-x,1/2-y,z
x,-y,-z
-x,1/2+y,-z
-x,-y,-z
x,1/2+y,-z
-x,y,z
x,1/2-y,z
1/2+x,1/2+y,z
1/2-x,-y,z
1/2+x,1/2-y,-z
1/2-x,y,-z
1/2-x,1/2-y,-z
1/2+x,y,-z
1/2-x,1/2+y,z
1/2+x,-y,z
loop_
_atom_site_type_symbol
_atom_site_label
_atom_site_fract_x
_atom_site_fract_y
_atom_site_fract_z
Si Si1 0.727154 0.750000 0.143173
Si Si2 0.705510 0.250000 0.396745
Si Si3 0.858751 0.907494 0.499941
Si Si4 0.442379 0.854326 0.985400
Si Si5 0.868760 0.346750 0.208293
Si Si6 0.559458 0.851989 0.688240
O O1 0.770027 0.750000 0.253291
O O2 0.688660 0.670411 0.163411
O O3 0.750000 0.750000 0.000000
O O4 0.750000 0.250000 0.500000
O O5 0.673789 0.166050 0.431425
O O6 0.869224 0.888270 0.650972
O O7 0.909645 0.905284 0.416259
O O8 0.833912 0.000000 0.500000
O O9 0.500000 0.880274 0.011246
O O10 0.441713 0.750000 0.984746
O O11 0.428096 0.878049 0.837287
O O12 0.403454 0.884835 0.094828
O O13 0.888565 0.250000 0.230265
O O14 0.500000 0.861443 0.672496
O O15 0.570598 0.750000 0.673261
#
# Coordination Sequence:
#
# PCOD9504323 Si02
#       6
#     8   8  16  16  16  16
#     4  10  22  36  65  90 105 155 196 247 306 356
#     4  12  22  46  63  84 121 153 198 251 298 360
#     4  12  24  38  62  91 120 160 199 244 298 353
#     4   8  15  29  56  88 117 155 197 238 291 354
#     4   9  18  36  55  86 117 144 198 240 291 356
#     4   9  18  35  60  89 121 161 201 239 293 354
#
# _framework density 18.692219000000001
#
# number of rings (size 3 to 8) (size 9 to 14) (size 15 to 20)
#    0.600    1.600    4.000    1.200    2.800    1.600 
#    0.000    3.000    0.000    3.600    0.000    0.000 
#    0.000    0.000    0.000    0.000    0.000    0.000 
#
# Total GULP energy -222844.535222 kJ/mol
# GULP energy per Si atom -5571.113381 kJ/mol
# Density = 1.864967 g / cm^3
# Si number density = 18.692219 Si / 1000 Ang^3
#
#
#
# Elastic Constant Matrix: (Units=GPa)
#
#
# Indices 1 2 3 4 5 6 
#
# 1 80.9552 29.4815 83.0738 0.0000 0.0000 0.0000
# 2 29.4815 59.8305 34.9632 0.0000 0.0000 0.0000
# 3 83.0738 34.9632 184.4792 0.0000 0.0000 0.0000
# 4 0.0000 0.0000 0.0000 -2.5116 0.0000 0.0000
# 5 0.0000 0.0000 0.0000 0.0000 45.9513 0.0000
# 6 0.0000 0.0000 0.0000 0.0000 0.0000 -4.7755
#
#
#
# Elastic Compliance Matrix: (Units=1/GPa)
#
#
# Indices 1 2 3 4 5 6 
#
# 1 0.025001 -0.006455 -0.010035 0.000000 0.000000 0.000000
# 2 -0.006455 0.020462 -0.000971 0.000000 0.000000 0.000000
# 3 -0.010035 -0.000971 0.010124 0.000000 0.000000 0.000000
# 4 0.000000 0.000000 0.000000 -0.398149 0.000000 0.000000
# 5 0.000000 0.000000 0.000000 0.000000 0.021762 0.000000
# 6 0.000000 0.000000 0.000000 0.000000 0.000000 -0.209404
#
#
# Mechanical properties :
#
#
# Convention : Reuss Voigt Hill
#
# Bulk Modulus (GPa) = 48.39283 68.92242 58.65763
# Shear Modulus (GPa) = -10.23762 19.58259 4.67249
#
# Velocity S-wave (km/s) = -2.34283 3.24023 1.58276
# Velocity P-wave (km/s) = 4.31591 7.13800 5.89823
#
# Compressibility (1/GPa) = 0.02066422
#
# Stress axis : x y z
#
# Youngs Moduli (GPa) = 39.99895 48.87061 98.77935
#
# Poissons Ratio (x) = 0.31546 0.99123
# Poissons Ratio (y) = 0.25819 0.09594
# Poissons Ratio (z) = 0.40138 0.04747
#
# Static dielectric constant tensor:
#      x y z
#    x 1.624050 0.000000 0.000000 
#    y 0.000000 1.711560 0.000000 
#    z 0.000000 0.000000 1.628650 
# 
# From -- ./inp_files/14601.got.cif
#   From: 2010.05.17/outbox.cif.g08.bks.cpg/sg67_8_cif.got.tgz:14601.got - 2010.06.03 18:28:57.
