data_PCOD9504633
_publ_section_title
;
Structure prediction by ZEFSAII (Michael W. Deem and Ramdas Pophale) SiO2 
 PCOD9504633
Probable space group: C M M A
;
_chemical_formula_sum "Si O2"
_cell_formula_units_Z 112
_cell_length_a 15.345689
_cell_length_b 22.639238
_cell_length_c 15.668080
_cell_angle_alpha 90.000000
_cell_angle_beta 90.000000
_cell_angle_gamma 90.000000
_cell_volume 5443.321400
_symmetry_space_group_name_H-M "C M M A"
_symmetry_group_IT_number 67
_symmetry_cell_setting 'orthorhombic'
loop_
_space_group_symop_operation_xyz
x,y,z
-x,1/2-y,z
x,-y,-z
-x,1/2+y,-z
-x,-y,-z
x,1/2+y,-z
-x,y,z
x,1/2-y,z
1/2+x,1/2+y,z
1/2-x,-y,z
1/2+x,1/2-y,-z
1/2-x,y,-z
1/2-x,1/2-y,-z
1/2+x,y,-z
1/2-x,1/2+y,z
1/2+x,-y,z
loop_
_atom_site_type_symbol
_atom_site_label
_atom_site_fract_x
_atom_site_fract_y
_atom_site_fract_z
Si Si1 0.398336 0.945047 0.437572
Si Si2 0.154123 0.481293 0.259324
Si Si3 0.757715 0.316394 0.256879
Si Si4 0.853673 0.067637 0.981581
Si Si5 0.662092 0.816011 0.445082
Si Si6 0.902763 0.397400 0.788415
Si Si7 0.596251 0.128353 0.852083
O O1 0.500000 0.950689 0.413452
O O2 0.340958 0.953951 0.353063
O O3 0.385386 0.877493 0.469161
O O4 0.378055 0.000000 0.500000
O O5 0.250000 0.500000 0.227624
O O6 0.099142 0.540691 0.261335
O O7 0.112307 0.433419 0.197338
O O8 0.725660 0.250000 0.248917
O O9 0.809607 0.321152 0.345978
O O10 0.674885 0.358666 0.249865
O O11 0.826472 0.331126 0.182486
O O12 0.877841 0.086126 0.885994
O O13 0.750000 0.069666 0.000000
O O14 0.895889 0.112180 0.049056
O O15 0.881954 0.000000 0.000000
O O16 0.620483 0.750000 0.456155
O O17 0.750000 0.815177 0.500000
O O18 0.000000 0.371641 0.784815
O O19 0.500000 0.151237 0.831307
#
# Coordination Sequence:
#
# PCOD9504633 Si02
#       7
#    16  16  16  16  16  16  16
#     4  11  25  39  60  98 134 166 209 269 332 387
#     4  12  22  39  62  93 131 168 207 260 325 390
#     4  11  25  46  67  91 125 170 222 270 316 377
#     4  11  21  37  61  94 132 169 209 260 324 390
#     4  10  23  44  68  92 124 172 222 263 318 390
#     4  12  24  40  64  95 130 171 215 264 326 389
#     4  12  23  39  64  96 130 163 212 270 322 381
#
# _framework density 20.575673999999999
#
# number of rings (size 3 to 8) (size 9 to 14) (size 15 to 20)
#    0.000    0.714    5.714    1.714    4.000    1.429 
#    0.000    2.857    0.000    4.286    0.000    0.000 
#    0.000    0.000    0.000    0.000    0.000    0.000 
#
# Total GULP energy -312900.298659 kJ/mol
# GULP energy per Si atom -5587.505333 kJ/mol
# Density = 2.052884 g / cm^3
# Si number density = 20.575674 Si / 1000 Ang^3
#
#
#
# Elastic Constant Matrix: (Units=GPa)
#
#
# Indices 1 2 3 4 5 6 
#
# 1 73.5372 1.7258 -13.6598 0.0000 0.0000 0.0000
# 2 1.7258 120.5476 18.3315 0.0000 0.0000 0.0000
# 3 -13.6598 18.3315 28.4337 0.0000 0.0000 0.0000
# 4 0.0000 0.0000 0.0000 46.1159 0.0000 0.0000
# 5 0.0000 0.0000 0.0000 0.0000 15.3988 0.0000
# 6 0.0000 0.0000 0.0000 0.0000 0.0000 5.2774
#
#
#
# Elastic Compliance Matrix: (Units=1/GPa)
#
#
# Indices 1 2 3 4 5 6 
#
# 1 0.015162 -0.001469 0.008231 0.000000 0.000000 0.000000
# 2 -0.001469 0.009339 -0.006727 0.000000 0.000000 0.000000
# 3 0.008231 -0.006727 0.043460 0.000000 0.000000 0.000000
# 4 0.000000 0.000000 0.000000 0.021684 0.000000 0.000000
# 5 0.000000 0.000000 0.000000 0.000000 0.064940 0.000000
# 6 0.000000 0.000000 0.000000 0.000000 0.000000 0.189486
#
#
# Mechanical properties :
#
#
# Convention : Reuss Voigt Hill
#
# Bulk Modulus (GPa) = 14.69889 26.14596 20.42242
# Shear Modulus (GPa) = 13.63590 27.76650 20.70120
#
# Velocity S-wave (km/s) = 2.57713 3.67751 3.17535
# Velocity P-wave (km/s) = 4.00185 5.54680 4.83641
#
# Compressibility (1/GPa) = 0.06803236
#
# Stress axis : x y z
#
# Youngs Moduli (GPa) = 65.95471 107.07275 23.00941
#
# Poissons Ratio (x) = 0.15726 -0.18939
# Poissons Ratio (y) = 0.09687 0.15478
# Poissons Ratio (z) = -0.54286 0.72026
#
# Static dielectric constant tensor:
#      x y z
#    x 1.746160 0.000000 0.000000 
#    y 0.000000 1.748470 0.000000 
#    z 0.000000 0.000000 1.732090 
# 
# From -- ./inp_files/27555.got.cif
#   From: 2010.05.17/outbox.cif.g08.bks.cpg/sg67_14_cif.got.tgz:27555.got - 2010.06.03 18:28:57.
