data_PCOD9504476
_publ_section_title
;
Structure prediction by ZEFSAII (Michael W. Deem and Ramdas Pophale) SiO2 
 PCOD9504476
Probable space group: C M M A
;
_chemical_formula_sum "Si O2"
_cell_formula_units_Z 112
_cell_length_a 15.595761
_cell_length_b 16.065479
_cell_length_c 23.714905
_cell_angle_alpha 90.000000
_cell_angle_beta 90.000000
_cell_angle_gamma 90.000000
_cell_volume 5941.849387
_symmetry_space_group_name_H-M "C M M A"
_symmetry_group_IT_number 67
_symmetry_cell_setting 'orthorhombic'
loop_
_space_group_symop_operation_xyz
x,y,z
-x,1/2-y,z
x,-y,-z
-x,1/2+y,-z
-x,-y,-z
x,1/2+y,-z
-x,y,z
x,1/2-y,z
1/2+x,1/2+y,z
1/2-x,-y,z
1/2+x,1/2-y,-z
1/2-x,y,-z
1/2-x,1/2-y,-z
1/2+x,y,-z
1/2-x,1/2+y,z
1/2+x,-y,z
loop_
_atom_site_type_symbol
_atom_site_label
_atom_site_fract_x
_atom_site_fract_y
_atom_site_fract_z
Si Si1 0.903500 0.150210 0.063104
Si Si2 0.250000 0.849151 0.731283
Si Si3 0.900790 0.652363 0.644729
Si Si4 0.646566 0.500000 0.434451
Si Si5 0.250000 0.096485 0.140694
Si Si6 0.900790 0.347637 0.644729
Si Si7 0.903500 0.650210 0.063104
O O1 0.907940 0.250000 0.059996
O O2 0.834340 0.130872 0.110192
O O3 0.000000 0.119300 0.075317
O O4 0.878516 0.120374 1.000000
O O5 0.250000 0.750000 0.739364
O O6 0.166115 0.869501 0.694180
O O7 0.250000 0.887955 0.792764
O O8 0.333884 0.869500 0.694180
O O9 0.884292 0.750000 0.628145
O O10 0.886206 0.583790 0.596262
O O11 0.000000 0.647793 0.662946
O O12 0.621825 0.500000 0.500000
O O13 0.750000 0.500000 0.430611
O O14 0.613794 0.416210 0.403737
O O15 0.334340 0.130872 0.110192
O O16 0.250000 0.000000 0.129600
O O17 0.884292 0.250000 0.628144
O O18 0.000000 0.352207 0.662946
O O19 0.907940 0.750000 0.059996
O O20 0.000000 0.619300 0.075318
#
# Coordination Sequence:
#
# PCOD9504476 Si02
#       7
#    16  16  16  16  16  16  16
#     4   9  19  38  62  84 110 150 198 243 289 347
#     4  10  22  41  61  83 114 154 203 250 292 344
#     4  10  22  41  65  90 119 160 206 251 302 357
#     4  11  23  39  65  96 129 165 198 243 300 356
#     4  12  25  35  54  87 121 153 189 238 299 358
#     4  10  22  41  65  90 119 160 206 251 302 357
#     4   9  19  38  62  84 110 150 198 243 289 347
#
# _framework density 18.849350999999999
#
# number of rings (size 3 to 8) (size 9 to 14) (size 15 to 20)
#    0.000    1.857    1.429    3.000    2.000    5.714 
#    0.000    7.143    0.000    0.000    0.000    0.000 
#    0.000    0.000    0.000    0.000    0.000    0.000 
#
# Total GULP energy -312482.311908 kJ/mol
# GULP energy per Si atom -5580.041284 kJ/mol
# Density = 1.880645 g / cm^3
# Si number density = 18.849351 Si / 1000 Ang^3
#
#
#
# Elastic Constant Matrix: (Units=GPa)
#
#
# Indices 1 2 3 4 5 6 
#
# 1 129.8586 43.1284 75.6902 0.0000 0.0000 0.0000
# 2 43.1284 71.6517 55.3408 0.0000 0.0000 0.0000
# 3 75.6902 55.3408 116.2184 0.0000 0.0000 0.0000
# 4 0.0000 0.0000 0.0000 38.6806 0.0000 0.0000
# 5 0.0000 0.0000 0.0000 0.0000 14.2298 0.0000
# 6 0.0000 0.0000 0.0000 0.0000 0.0000 43.8467
#
#
#
# Elastic Compliance Matrix: (Units=1/GPa)
#
#
# Indices 1 2 3 4 5 6 
#
# 1 0.012586 -0.001969 -0.007259 0.000000 0.000000 0.000000
# 2 -0.001969 0.022383 -0.009376 0.000000 0.000000 0.000000
# 3 -0.007259 -0.009376 0.017797 0.000000 0.000000 0.000000
# 4 0.000000 0.000000 0.000000 0.025853 0.000000 0.000000
# 5 0.000000 0.000000 0.000000 0.000000 0.070275 0.000000
# 6 0.000000 0.000000 0.000000 0.000000 0.000000 0.022807
#
#
# Mechanical properties :
#
#
# Convention : Reuss Voigt Hill
#
# Bulk Modulus (GPa) = 64.27794 74.00530 69.14162
# Shear Modulus (GPa) = 23.35414 28.92271 26.13843
#
# Velocity S-wave (km/s) = 3.52375 3.92141 3.72788
# Velocity P-wave (km/s) = 7.12254 7.73628 7.43574
#
# Compressibility (1/GPa) = 0.01555744
#
# Stress axis : x y z
#
# Youngs Moduli (GPa) = 79.45483 44.67630 56.18915
#
# Poissons Ratio (x) = 0.08796 0.40789
# Poissons Ratio (y) = 0.15643 0.52684
# Poissons Ratio (z) = 0.57679 0.41889
#
# Static dielectric constant tensor:
#      x y z
#    x 1.858150 0.000000 0.000000 
#    y 0.000000 1.657800 0.000000 
#    z 0.000000 0.000000 1.629850 
# 
# From -- ./inp_files/41972.got.cif
#   From: 2010.05.17/outbox.cif.g08.bks.cpg/sg67_21_cif.got.tgz:41972.got - 2010.06.03 18:28:57.
