data_PCOD9504273
_publ_section_title
;
Structure prediction by ZEFSAII (Michael W. Deem and Ramdas Pophale) SiO2 
 PCOD9504273
Probable space group: C M M A
;
_chemical_formula_sum "Si O2"
_cell_formula_units_Z 72
_cell_length_a 14.655934
_cell_length_b 9.550866
_cell_length_c 26.838901
_cell_angle_alpha 90.000000
_cell_angle_beta 90.000000
_cell_angle_gamma 90.000000
_cell_volume 3756.825134
_symmetry_space_group_name_H-M "C M M A"
_symmetry_group_IT_number 67
_symmetry_cell_setting 'orthorhombic'
loop_
_space_group_symop_operation_xyz
x,y,z
-x,1/2-y,z
x,-y,-z
-x,1/2+y,-z
-x,-y,-z
x,1/2+y,-z
-x,y,z
x,1/2-y,z
1/2+x,1/2+y,z
1/2-x,-y,z
1/2+x,1/2-y,-z
1/2-x,y,-z
1/2-x,1/2-y,-z
1/2+x,y,-z
1/2-x,1/2+y,z
1/2+x,-y,z
loop_
_atom_site_type_symbol
_atom_site_label
_atom_site_fract_x
_atom_site_fract_y
_atom_site_fract_z
Si Si1 0.150933 0.475413 0.625454
Si Si2 0.612197 0.750000 0.544719
Si Si3 0.651846 0.078829 0.134103
Si Si4 0.500000 0.420670 0.800826
Si Si5 0.500000 0.412770 0.050203
Si Si6 0.104365 0.250000 0.432725
Si Si7 0.000000 0.904255 0.295587
O O1 0.250000 0.500000 0.647254
O O2 0.149818 0.378186 0.576749
O O3 0.120554 0.619975 0.602239
O O4 0.085249 0.416593 0.667328
O O5 0.500000 0.750000 0.548946
O O6 0.646518 0.750000 0.487943
O O7 0.659694 0.250000 0.143079
O O8 0.590058 0.062046 0.084149
O O9 0.750000 0.000000 0.131029
O O10 0.588734 0.996578 0.174467
O O11 0.500000 0.250000 0.806831
O O12 0.500000 0.470300 0.743616
O O13 0.500000 0.250000 0.036994
O O14 0.500000 0.500000 0.000000
O O15 0.000000 0.250000 0.446931
O O16 0.000000 0.750000 0.271018
#
# Coordination Sequence:
#
# PCOD9504273 Si02
#       7
#    16   8  16   8   8   8   8
#     4  12  24  40  62  87 117 153 192 238 298 360
#     4  11  21  43  61  86 117 159 190 227 299 362
#     4  10  21  41  66  97 134 175 226 278 329 385
#     4  11  25  43  69  94 121 161 213 272 335 394
#     4   9  20  36  58  93 140 191 232 277 328 375
#     4  11  23  37  65  88 119 149 192 245 283 354
#     4  12  25  47  63  84 122 158 193 248 317 383
#
# _framework density 19.165119000000001
#
# number of rings (size 3 to 8) (size 9 to 14) (size 15 to 20)
#    0.000    1.111    3.333    3.667    1.556    8.444 
#    0.000    4.444    0.000    0.000    0.000    0.000 
#    0.000    0.000    0.000    0.000    0.000    0.000 
#
# Total GULP energy -200736.769090 kJ/mol
# GULP energy per Si atom -5576.021364 kJ/mol
# Density = 1.912150 g / cm^3
# Si number density = 19.165119 Si / 1000 Ang^3
#
#
#
# Elastic Constant Matrix: (Units=GPa)
#
#
# Indices 1 2 3 4 5 6 
#
# 1 149.3699 34.1397 26.3729 0.0000 0.0000 0.0000
# 2 34.1397 157.2267 40.0895 0.0000 0.0000 0.0000
# 3 26.3729 40.0895 86.8196 0.0000 0.0000 0.0000
# 4 0.0000 0.0000 0.0000 36.8479 0.0000 0.0000
# 5 0.0000 0.0000 0.0000 0.0000 26.4395 0.0000
# 6 0.0000 0.0000 0.0000 0.0000 0.0000 31.7790
#
#
#
# Elastic Compliance Matrix: (Units=1/GPa)
#
#
# Indices 1 2 3 4 5 6 
#
# 1 0.007253 -0.001148 -0.001673 0.000000 0.000000 0.000000
# 2 -0.001148 0.007391 -0.003064 0.000000 0.000000 0.000000
# 3 -0.001673 -0.003064 0.013441 0.000000 0.000000 0.000000
# 4 0.000000 0.000000 0.000000 0.027139 0.000000 0.000000
# 5 0.000000 0.000000 0.000000 0.000000 0.037822 0.000000
# 6 0.000000 0.000000 0.000000 0.000000 0.000000 0.031467
#
#
# Mechanical properties :
#
#
# Convention : Reuss Voigt Hill
#
# Bulk Modulus (GPa) = 61.29580 66.06893 63.68237
# Shear Modulus (GPa) = 35.28064 38.53424 36.90744
#
# Velocity S-wave (km/s) = 4.29520 4.48889 4.39311
# Velocity P-wave (km/s) = 7.52667 7.83678 7.68329
#
# Compressibility (1/GPa) = 0.01631433
#
# Stress axis : x y z
#
# Youngs Moduli (GPa) = 137.88165 135.30299 74.39864
#
# Poissons Ratio (x) = 0.15536 0.12446
# Poissons Ratio (y) = 0.15832 0.22795
# Poissons Ratio (z) = 0.23066 0.41456
#
# Static dielectric constant tensor:
#      x y z
#    x 1.547100 0.000000 0.000000 
#    y 0.000000 1.626130 0.000000 
#    z 0.000000 0.000000 1.647130 
# 
# From -- ./inp_files/43164.got.cif
#   From: 2010.05.17/outbox.cif.g08.bks.cpg/sg67_22_cif.got.tgz:43164.got - 2010.06.03 18:28:57.
