data_PCOD9504942
_publ_section_title
;
Structure prediction by ZEFSAII (Michael W. Deem and Ramdas Pophale) SiO2 
 PCOD9504942
Probable space group: C M M A
;
_chemical_formula_sum "Si O2"
_cell_formula_units_Z 48
_cell_length_a 17.621707
_cell_length_b 16.419320
_cell_length_c 7.373806
_cell_angle_alpha 90.000000
_cell_angle_beta 90.000000
_cell_angle_gamma 90.000000
_cell_volume 2133.510823
_symmetry_space_group_name_H-M "C M M A"
_symmetry_group_IT_number 67
_symmetry_cell_setting 'orthorhombic'
loop_
_space_group_symop_operation_xyz
x,y,z
-x,1/2-y,z
x,-y,-z
-x,1/2+y,-z
-x,-y,-z
x,1/2+y,-z
-x,y,z
x,1/2-y,z
1/2+x,1/2+y,z
1/2-x,-y,z
1/2+x,1/2-y,-z
1/2-x,y,-z
1/2-x,1/2-y,-z
1/2+x,y,-z
1/2-x,1/2+y,z
1/2+x,-y,z
loop_
_atom_site_type_symbol
_atom_site_label
_atom_site_fract_x
_atom_site_fract_y
_atom_site_fract_z
Si Si1 0.083174 0.596932 0.468460
Si Si2 0.203031 0.158782 0.249870
Si Si3 0.351844 0.411998 0.094713
O O1 0.089189 0.500000 0.500000
O O2 0.151886 0.637175 0.578426
O O3 0.089893 0.607431 0.252993
O O4 0.000000 0.624467 0.532879
O O5 0.233831 0.250000 0.265358
O O6 0.271264 0.097142 0.201470
O O7 0.151091 0.150657 0.070847
O O8 0.361942 0.500000 0.000000
#
# Coordination Sequence:
#
# PCOD9504942 Si02
#       3
#    16  16  16
#     4  11  25  42  64  94 130 174 218 261 318 388
#     4  11  24  42  66  99 132 164 214 276 327 380
#     4  11  22  40  70  97 127 170 218 270 321 384
#
# _framework density 22.49813
#
# number of rings (size 3 to 8) (size 9 to 14) (size 15 to 20)
#    0.000    1.000    3.333    5.000    0.000    8.000 
#    0.000    0.000    0.000    0.000    0.000    0.000 
#    0.000    0.000    0.000    0.000    0.000    0.000 
#
# Total GULP energy -134104.706740 kJ/mol
# GULP energy per Si atom -5587.696114 kJ/mol
# Density = 2.244692 g / cm^3
# Si number density = 22.498130 Si / 1000 Ang^3
#
#
#
# Elastic Constant Matrix: (Units=GPa)
#
#
# Indices 1 2 3 4 5 6 
#
# 1 54.1598 10.9155 29.2823 0.0000 0.0000 0.0000
# 2 10.9155 58.7343 7.0273 0.0000 0.0000 0.0000
# 3 29.2823 7.0273 134.9862 0.0000 0.0000 0.0000
# 4 0.0000 0.0000 0.0000 18.2405 0.0000 0.0000
# 5 0.0000 0.0000 0.0000 0.0000 20.7933 0.0000
# 6 0.0000 0.0000 0.0000 0.0000 0.0000 2.8702
#
#
#
# Elastic Compliance Matrix: (Units=1/GPa)
#
#
# Indices 1 2 3 4 5 6 
#
# 1 0.021600 -0.003475 -0.004505 0.000000 0.000000 0.000000
# 2 -0.003475 0.017692 -0.000167 0.000000 0.000000 0.000000
# 3 -0.004505 -0.000167 0.008394 0.000000 0.000000 0.000000
# 4 0.000000 0.000000 0.000000 0.054823 0.000000 0.000000
# 5 0.000000 0.000000 0.000000 0.000000 0.048092 0.000000
# 6 0.000000 0.000000 0.000000 0.000000 0.000000 0.348403
#
#
# Mechanical properties :
#
#
# Convention : Reuss Voigt Hill
#
# Bulk Modulus (GPa) = 31.85587 38.03673 34.94630
# Shear Modulus (GPa) = 9.51000 21.75783 15.63392
#
# Velocity S-wave (km/s) = 2.05820 3.11319 2.63895
# Velocity P-wave (km/s) = 4.45403 5.46497 4.98519
#
# Compressibility (1/GPa) = 0.03139139
#
# Stress axis : x y z
#
# Youngs Moduli (GPa) = 46.29668 56.52370 119.13180
#
# Poissons Ratio (x) = 0.19643 0.53665
# Poissons Ratio (y) = 0.16089 0.01991
# Poissons Ratio (z) = 0.20855 0.00945
#
# Static dielectric constant tensor:
#      x y z
#    x 1.865000 0.000000 0.000000 
#    y 0.000000 1.805170 0.000000 
#    z 0.000000 0.000000 1.861030 
# 
# From -- ./inp_files/8932.got.cif
#   From: 2010.05.17/outbox.cif.g08.bks.cpg/sg67_5_cif.got.tgz:8932.got - 2010.06.03 18:28:57.
