data_PCOD9504052
_publ_section_title
;
Structure prediction by ZEFSAII (Michael W. Deem and Ramdas Pophale) SiO2 
 PCOD9504052
Probable space group: C M M A
;
_chemical_formula_sum "Si O2"
_cell_formula_units_Z 88
_cell_length_a 16.145007
_cell_length_b 8.854786
_cell_length_c 30.847368
_cell_angle_alpha 90.000000
_cell_angle_beta 90.000000
_cell_angle_gamma 90.000000
_cell_volume 4409.957681
_symmetry_space_group_name_H-M "C M M A"
_symmetry_group_IT_number 67
_symmetry_cell_setting 'orthorhombic'
loop_
_space_group_symop_operation_xyz
x,y,z
-x,1/2-y,z
x,-y,-z
-x,1/2+y,-z
-x,-y,-z
x,1/2+y,-z
-x,y,z
x,1/2-y,z
1/2+x,1/2+y,z
1/2-x,-y,z
1/2+x,1/2-y,-z
1/2-x,y,-z
1/2-x,1/2-y,-z
1/2+x,y,-z
1/2-x,1/2+y,z
1/2+x,-y,z
loop_
_atom_site_type_symbol
_atom_site_label
_atom_site_fract_x
_atom_site_fract_y
_atom_site_fract_z
Si Si1 0.161300 0.067130 0.596544
Si Si2 0.401991 0.918209 0.957476
Si Si3 0.000000 0.567182 0.548281
Si Si4 0.096428 0.569204 0.309792
Si Si5 0.400717 0.927479 0.220573
Si Si6 0.339336 0.431009 0.873157
O O1 0.160239 0.250000 0.592060
O O2 0.146496 0.027373 0.647269
O O3 0.250000 0.000000 0.582497
O O4 0.082851 0.996116 0.571597
O O5 0.500000 0.903157 0.964886
O O6 0.366305 0.750000 0.952307
O O7 0.392145 0.011219 0.913487
O O8 0.366305 0.000000 0.000000
O O9 0.000000 0.500000 0.500000
O O10 0.000000 0.750000 0.548373
O O11 0.095471 0.750000 0.307187
O O12 0.129550 0.506020 0.264409
O O13 0.000000 0.518868 0.315141
O O14 0.500000 0.945001 0.219629
O O15 0.381580 0.750000 0.223657
O O16 0.368138 0.984716 0.174466
O O17 0.339435 0.250000 0.872690
O O18 0.250000 0.500000 0.880871
#
# Coordination Sequence:
#
# PCOD9504052 Si02
#       6
#    16  16   8  16  16  16
#     4  11  23  42  66  98 136 174 221 273 326 388
#     4  10  21  38  61  86 109 137 178 227 282 346
#     4  12  26  46  72 100 132 176 220 272 333 388
#     4   9  18  35  59  86 121 163 205 255 310 365
#     4   9  19  35  56  82 112 151 199 247 295 352
#     4  11  23  38  55  78 113 151 190 237 290 345
#
# _framework density 19.954840000000001
#
# number of rings (size 3 to 8) (size 9 to 14) (size 15 to 20)
#    0.000    1.818    0.909    3.000    0.000    6.182 
#    0.000    9.091    0.000    0.000    0.000    0.000 
#    0.000    0.000    0.000    0.000    0.000    0.000 
#
# Total GULP energy -245639.778697 kJ/mol
# GULP energy per Si atom -5582.722243 kJ/mol
# Density = 1.990942 g / cm^3
# Si number density = 19.954840 Si / 1000 Ang^3
#
#
#
# Elastic Constant Matrix: (Units=GPa)
#
#
# Indices 1 2 3 4 5 6 
#
# 1 79.4979 42.3519 47.4056 0.0000 0.0000 0.0000
# 2 42.3519 84.6878 51.0009 0.0000 0.0000 0.0000
# 3 47.4056 51.0009 136.3958 0.0000 0.0000 0.0000
# 4 0.0000 0.0000 0.0000 27.1991 0.0000 0.0000
# 5 0.0000 0.0000 0.0000 0.0000 -29.4932 0.0000
# 6 0.0000 0.0000 0.0000 0.0000 0.0000 22.6759
#
#
#
# Elastic Compliance Matrix: (Units=1/GPa)
#
#
# Indices 1 2 3 4 5 6 
#
# 1 0.018594 -0.006978 -0.003853 0.000000 0.000000 0.000000
# 2 -0.006978 0.017859 -0.004252 0.000000 0.000000 0.000000
# 3 -0.003853 -0.004252 0.010261 0.000000 0.000000 0.000000
# 4 0.000000 0.000000 0.000000 0.036766 0.000000 0.000000
# 5 0.000000 0.000000 0.000000 0.000000 -0.033906 0.000000
# 6 0.000000 0.000000 0.000000 0.000000 0.000000 0.044100
#
#
# Mechanical properties :
#
#
# Convention : Reuss Voigt Hill
#
# Bulk Modulus (GPa) = 60.43752 64.67757 62.55755
# Shear Modulus (GPa) = 38.65276 14.73125 26.69200
#
# Velocity S-wave (km/s) = 4.40592 2.71999 3.66132
# Velocity P-wave (km/s) = 7.49905 6.50744 7.02077
#
# Compressibility (1/GPa) = 0.01654601
#
# Stress axis : x y z
#
# Youngs Moduli (GPa) = 53.77956 55.99484 97.45760
#
# Poissons Ratio (x) = 0.39076 0.37553
# Poissons Ratio (y) = 0.37530 0.41442
# Poissons Ratio (z) = 0.20723 0.23811
#
# Static dielectric constant tensor:
#      x y z
#    x 1.747420 0.000000 0.000000 
#    y 0.000000 1.694170 0.000000 
#    z 0.000000 0.000000 1.734000 
# 
# From -- ./inp_files/45773.got.cif
#   From: 2010.05.17/outbox.cif.g08.bks.cpg/sg67_23_cif.got.tgz:45773.got - 2010.06.03 18:28:57.
