data_PCOD9504035
_publ_section_title
;
Structure prediction by ZEFSAII (Michael W. Deem and Ramdas Pophale) SiO2 
 PCOD9504035
Probable space group: C M M A
;
_chemical_formula_sum "Si O2"
_cell_formula_units_Z 96
_cell_length_a 18.615343
_cell_length_b 8.880106
_cell_length_c 31.904899
_cell_angle_alpha 90.000000
_cell_angle_beta 90.000000
_cell_angle_gamma 90.000000
_cell_volume 5274.078223
_symmetry_space_group_name_H-M "C M M A"
_symmetry_group_IT_number 67
_symmetry_cell_setting 'orthorhombic'
loop_
_space_group_symop_operation_xyz
x,y,z
-x,1/2-y,z
x,-y,-z
-x,1/2+y,-z
-x,-y,-z
x,1/2+y,-z
-x,y,z
x,1/2-y,z
1/2+x,1/2+y,z
1/2-x,-y,z
1/2+x,1/2-y,-z
1/2-x,y,-z
1/2-x,1/2-y,-z
1/2+x,y,-z
1/2-x,1/2+y,z
1/2+x,-y,z
loop_
_atom_site_type_symbol
_atom_site_label
_atom_site_fract_x
_atom_site_fract_y
_atom_site_fract_z
Si Si1 0.913677 0.426372 0.620107
Si Si2 0.329532 0.569604 0.456326
Si Si3 0.085849 0.428553 0.290691
Si Si4 0.416602 0.569039 0.869847
Si Si5 0.587473 0.575964 0.043056
Si Si6 0.329162 0.431361 0.213070
O O1 0.893766 0.250000 0.618155
O O2 0.876995 0.516731 0.582621
O O3 0.893549 0.496179 0.665084
O O4 0.000000 0.437223 0.616456
O O5 0.357903 0.500000 0.500000
O O6 0.325679 0.750000 0.459225
O O7 0.250000 0.500000 0.450886
O O8 0.100390 0.250000 0.291818
O O9 0.127024 0.505653 0.252561
O O10 0.000000 0.449481 0.285306
O O11 0.500000 0.522233 0.863748
O O12 0.415792 0.750000 0.872839
O O13 0.389772 0.502924 0.913889
O O14 0.369937 0.524374 0.829817
O O15 0.500000 0.566755 0.042692
O O16 0.607706 0.750000 0.043541
O O17 0.612727 0.500000 0.000000
O O18 0.326454 0.250000 0.215034
O O19 0.250000 0.500000 0.213317
#
# Coordination Sequence:
#
# PCOD9504035 Si02
#       6
#    16  16  16  16  16  16
#     4  10  21  38  60  86 115 146 182 225 274 326
#     4  11  22  38  59  83 114 150 190 231 274 324
#     4  10  21  38  60  85 112 142 179 224 273 326
#     4   9  18  33  53  76 103 137 176 217 264 318
#     4   9  16  26  44  72 104 135 169 212 260 310
#     4  11  23  38  56  79 109 144 182 224 271 322
#
# _framework density 18.202233
#
# number of rings (size 3 to 8) (size 9 to 14) (size 15 to 20)
#    0.000    2.000    0.000    4.500    0.000    7.000 
#    0.000    5.000    0.000    0.500    0.000    3.500 
#    0.000    0.000    0.000    0.000    0.000    0.000 
#
# Total GULP energy -268053.244465 kJ/mol
# GULP energy per Si atom -5584.442593 kJ/mol
# Density = 1.816080 g / cm^3
# Si number density = 18.202233 Si / 1000 Ang^3
#
#
#
# Elastic Constant Matrix: (Units=GPa)
#
#
# Indices 1 2 3 4 5 6 
#
# 1 39.9772 46.9472 66.7423 0.0000 0.0000 0.0000
# 2 46.9472 122.0594 92.5803 0.0000 0.0000 0.0000
# 3 66.7423 92.5803 208.2323 0.0000 0.0000 0.0000
# 4 0.0000 0.0000 0.0000 38.4748 0.0000 0.0000
# 5 0.0000 0.0000 0.0000 0.0000 -31.1211 0.0000
# 6 0.0000 0.0000 0.0000 0.0000 0.0000 21.9754
#
#
#
# Elastic Compliance Matrix: (Units=1/GPa)
#
#
# Indices 1 2 3 4 5 6 
#
# 1 0.067128 -0.014333 -0.015143 0.000000 0.000000 0.000000
# 2 -0.014333 0.015422 -0.002262 0.000000 0.000000 0.000000
# 3 -0.015143 -0.002262 0.010662 0.000000 0.000000 0.000000
# 4 0.000000 0.000000 0.000000 0.025991 0.000000 0.000000
# 5 0.000000 0.000000 0.000000 0.000000 -0.032133 0.000000
# 6 0.000000 0.000000 0.000000 0.000000 0.000000 0.045505
#
#
# Mechanical properties :
#
#
# Convention : Reuss Voigt Hill
#
# Bulk Modulus (GPa) = 33.63163 86.97872 60.30518
# Shear Modulus (GPa) = 24.27594 16.79910 20.53752
#
# Velocity S-wave (km/s) = 3.65592 3.04125 3.36266
# Velocity P-wave (km/s) = 6.02808 7.76019 6.94832
#
# Compressibility (1/GPa) = 0.02973392
#
# Stress axis : x y z
#
# Youngs Moduli (GPa) = 14.89684 64.84359 93.79207
#
# Poissons Ratio (x) = 0.92943 1.42032
# Poissons Ratio (y) = 0.21352 0.21220
# Poissons Ratio (z) = 0.22559 0.14670
#
# Static dielectric constant tensor:
#      x y z
#    x 1.609020 0.000000 0.000000 
#    y 0.000000 1.608800 0.000000 
#    z 0.000000 0.000000 1.605030 
# 
# From -- ./inp_files/43490.got.cif
#   From: 2010.05.17/outbox.cif.g08.bks.cpg/sg67_22_cif.got.tgz:43490.got - 2010.06.03 18:28:57.
