data_PCOD9504961
_publ_section_title
;
Structure prediction by ZEFSAII (Michael W. Deem and Ramdas Pophale) SiO2 
 PCOD9504961
Probable space group: C M M A
;
_chemical_formula_sum "Si O2"
_cell_formula_units_Z 96
_cell_length_a 27.091009
_cell_length_b 14.129271
_cell_length_c 11.338278
_cell_angle_alpha 90.000000
_cell_angle_beta 90.000000
_cell_angle_gamma 90.000000
_cell_volume 4340.023056
_symmetry_space_group_name_H-M "C M M A"
_symmetry_group_IT_number 67
_symmetry_cell_setting 'orthorhombic'
loop_
_space_group_symop_operation_xyz
x,y,z
-x,1/2-y,z
x,-y,-z
-x,1/2+y,-z
-x,-y,-z
x,1/2+y,-z
-x,y,z
x,1/2-y,z
1/2+x,1/2+y,z
1/2-x,-y,z
1/2+x,1/2-y,-z
1/2-x,y,-z
1/2-x,1/2-y,-z
1/2+x,y,-z
1/2-x,1/2+y,z
1/2+x,-y,z
loop_
_atom_site_type_symbol
_atom_site_label
_atom_site_fract_x
_atom_site_fract_y
_atom_site_fract_z
Si Si1 0.121469 0.143849 0.213422
Si Si2 0.367405 0.109857 0.513105
Si Si3 0.944725 0.250000 0.591875
Si Si4 0.609506 0.045823 0.123952
Si Si5 0.814107 0.646944 0.289969
Si Si6 0.230636 0.891852 0.874663
Si Si7 0.943704 0.250000 0.874433
O O1 0.101945 0.250000 0.186471
O O2 0.135101 0.139429 0.351783
O O3 0.173362 0.130050 0.144124
O O4 0.087917 0.050696 0.185203
O O5 0.413441 0.161807 0.453273
O O6 0.320818 0.131887 0.428638
O O7 0.375346 0.000000 0.500000
O O8 0.946845 0.250000 0.732342
O O9 0.000000 0.250000 0.544323
O O10 0.653169 0.074740 0.213584
O O11 0.581255 0.145946 0.098720
O O12 0.625514 0.000000 0.000000
O O13 0.835554 0.750000 0.262543
O O14 0.759595 0.645645 0.239261
O O15 0.250000 0.000000 0.876625
O O16 0.250000 0.852998 0.000000
O O17 0.000000 0.250000 0.921541
#
# Coordination Sequence:
#
# PCOD9504961 Si02
#       7
#    16  16   8  16  16  16   8
#     4  12  25  41  65 100 143 184 222 290 350 401
#     4  12  21  42  68  94 135 173 222 276 345 422
#     4  11  22  42  71  99 126 166 217 275 346 417
#     4  12  24  41  70  98 130 185 227 277 351 408
#     4  12  22  40  66  93 128 181 232 277 332 395
#     4  11  23  40  60  94 137 182 240 288 324 390
#     4  11  24  48  75 102 132 171 236 290 340 431
#
# _framework density 22.119698
#
# number of rings (size 3 to 8) (size 9 to 14) (size 15 to 20)
#    0.000    0.333    7.500    1.500    1.167    4.000 
#    0.000    4.167    0.000    0.000    0.000    0.000 
#    0.000    0.000    0.000    0.000    0.000    0.000 
#
# Total GULP energy -267658.435511 kJ/mol
# GULP energy per Si atom -5576.217406 kJ/mol
# Density = 2.206935 g / cm^3
# Si number density = 22.119698 Si / 1000 Ang^3
#
#
#
# Elastic Constant Matrix: (Units=GPa)
#
#
# Indices 1 2 3 4 5 6 
#
# 1 51.0213 16.5634 -4.9674 0.0000 0.0000 0.0000
# 2 16.5634 205.0542 15.6510 0.0000 0.0000 0.0000
# 3 -4.9674 15.6510 101.4675 0.0000 0.0000 0.0000
# 4 0.0000 0.0000 0.0000 8.1182 0.0000 0.0000
# 5 0.0000 0.0000 0.0000 0.0000 15.5171 0.0000
# 6 0.0000 0.0000 0.0000 0.0000 0.0000 5.6541
#
#
#
# Elastic Compliance Matrix: (Units=1/GPa)
#
#
# Indices 1 2 3 4 5 6 
#
# 1 0.020286 -0.001735 0.001261 0.000000 0.000000 0.000000
# 2 -0.001735 0.005083 -0.000869 0.000000 0.000000 0.000000
# 3 0.001261 -0.000869 0.010051 0.000000 0.000000 0.000000
# 4 0.000000 0.000000 0.000000 0.123180 0.000000 0.000000
# 5 0.000000 0.000000 0.000000 0.000000 0.064445 0.000000
# 6 0.000000 0.000000 0.000000 0.000000 0.000000 0.176863
#
#
# Mechanical properties :
#
#
# Convention : Reuss Voigt Hill
#
# Bulk Modulus (GPa) = 30.54955 45.78187 38.16571
# Shear Modulus (GPa) = 12.09176 27.87763 19.98470
#
# Velocity S-wave (km/s) = 2.34059 3.55393 3.00905
# Velocity P-wave (km/s) = 4.59842 6.13048 5.41887
#
# Compressibility (1/GPa) = 0.03273371
#
# Stress axis : x y z
#
# Youngs Moduli (GPa) = 49.29606 196.72582 99.49126
#
# Poissons Ratio (x) = 0.34128 -0.12543
# Poissons Ratio (y) = 0.08552 0.08646
# Poissons Ratio (z) = -0.06215 0.17095
#
# Static dielectric constant tensor:
#      x y z
#    x 1.816660 0.000000 0.000000 
#    y 0.000000 1.878770 0.000000 
#    z 0.000000 0.000000 1.834870 
# 
# From -- ./inp_files/23730.got.cif
#   From: 2010.05.17/outbox.cif.g08.bks.cpg/sg67_12_cif.got.tgz:23730.got - 2010.06.03 18:28:57.
