data_PCOD9504843
_publ_section_title
;
Structure prediction by ZEFSAII (Michael W. Deem and Ramdas Pophale) SiO2 
 PCOD9504843
Probable space group: C M M A
;
_chemical_formula_sum "Si O2"
_cell_formula_units_Z 112
_cell_length_a 15.003877
_cell_length_b 15.904243
_cell_length_c 23.636471
_cell_angle_alpha 90.000000
_cell_angle_beta 90.000000
_cell_angle_gamma 90.000000
_cell_volume 5640.260119
_symmetry_space_group_name_H-M "C M M A"
_symmetry_group_IT_number 67
_symmetry_cell_setting 'orthorhombic'
loop_
_space_group_symop_operation_xyz
x,y,z
-x,1/2-y,z
x,-y,-z
-x,1/2+y,-z
-x,-y,-z
x,1/2+y,-z
-x,y,z
x,1/2-y,z
1/2+x,1/2+y,z
1/2-x,-y,z
1/2+x,1/2-y,-z
1/2-x,y,-z
1/2-x,1/2-y,-z
1/2+x,y,-z
1/2-x,1/2+y,z
1/2+x,-y,z
loop_
_atom_site_type_symbol
_atom_site_label
_atom_site_fract_x
_atom_site_fract_y
_atom_site_fract_z
Si Si1 0.869917 0.655522 0.553104
Si Si2 0.341534 0.655716 0.574479
Si Si3 0.796480 0.845003 0.856850
Si Si4 0.397651 0.461919 0.939717
Si Si5 0.101225 0.007213 0.360262
Si Si6 0.401557 0.604317 0.843324
Si Si7 0.604455 0.452117 0.761754
O O1 0.901491 0.750000 0.567769
O O2 0.763405 0.657609 0.561418
O O3 0.887738 0.640605 0.486585
O O4 0.900330 0.579745 0.592438
O O5 0.367413 0.750000 0.594389
O O6 0.356704 0.577638 0.615541
O O7 0.829275 0.750000 0.858324
O O8 0.830908 0.894683 0.912316
O O9 0.689598 0.845727 0.850827
O O10 0.838704 0.893984 0.803457
O O11 0.500000 0.428644 0.944356
O O12 0.401293 0.537838 0.894926
O O13 0.371243 0.500000 0.000000
O O14 0.000000 0.984484 0.345487
O O15 0.139868 0.044489 0.302155
O O16 0.500000 0.645330 0.842682
O O17 0.393143 0.545854 0.787742
O O18 0.500000 0.424754 0.763268
#
# Coordination Sequence:
#
# PCOD9504843 Si02
#       7
#    16  16  16  16  16  16  16
#     4   9  19  35  53  75 105 143 185 228 277 333
#     4   9  19  36  55  75 103 140 185 234 277 327
#     4  11  22  35  58  89 116 147 187 234 288 339
#     4   9  18  35  60  86 114 153 196 234 271 318
#     4  11  22  34  53  82 111 141 179 226 285 348
#     4   9  19  37  57  78 111 153 191 228 275 332
#     4   9  20  38  56  76 107 146 189 235 279 334
#
# _framework density 19.857240999999998
#
# number of rings (size 3 to 8) (size 9 to 14) (size 15 to 20)
#    0.000    2.429    0.000    4.714    0.000    8.286 
#    0.000    6.429    0.000    5.143    0.000    0.000 
#    0.000    0.000    0.000    0.000    0.000    0.000 
#
# Total GULP energy -312308.382142 kJ/mol
# GULP energy per Si atom -5576.935395 kJ/mol
# Density = 1.981204 g / cm^3
# Si number density = 19.857241 Si / 1000 Ang^3
#
#
#
# Elastic Constant Matrix: (Units=GPa)
#
#
# Indices 1 2 3 4 5 6 
#
# 1 101.5626 40.8055 32.3527 0.0000 0.0000 0.0000
# 2 40.8055 106.2885 54.6242 0.0000 0.0000 0.0000
# 3 32.3527 54.6242 101.2379 0.0000 0.0000 0.0000
# 4 0.0000 0.0000 0.0000 9.8162 0.0000 0.0000
# 5 0.0000 0.0000 0.0000 0.0000 21.9140 0.0000
# 6 0.0000 0.0000 0.0000 0.0000 0.0000 31.0434
#
#
#
# Elastic Compliance Matrix: (Units=1/GPa)
#
#
# Indices 1 2 3 4 5 6 
#
# 1 0.011887 -0.003613 -0.001849 0.000000 0.000000 0.000000
# 2 -0.003613 0.014117 -0.006462 0.000000 0.000000 0.000000
# 3 -0.001849 -0.006462 0.013955 0.000000 0.000000 0.000000
# 4 0.000000 0.000000 0.000000 0.101872 0.000000 0.000000
# 5 0.000000 0.000000 0.000000 0.000000 0.045633 0.000000
# 6 0.000000 0.000000 0.000000 0.000000 0.000000 0.032213
#
#
# Mechanical properties :
#
#
# Convention : Reuss Voigt Hill
#
# Bulk Modulus (GPa) = 62.07362 62.73931 62.40647
# Shear Modulus (GPa) = 20.08874 24.64182 22.36528
#
# Velocity S-wave (km/s) = 3.18411 3.52653 3.35969
# Velocity P-wave (km/s) = 6.69671 6.94591 6.82245
#
# Compressibility (1/GPa) = 0.01610990
#
# Stress axis : x y z
#
# Youngs Moduli (GPa) = 84.12632 70.83895 71.65709
#
# Poissons Ratio (x) = 0.25596 0.13250
# Poissons Ratio (y) = 0.30397 0.46305
# Poissons Ratio (z) = 0.15556 0.45777
#
# Static dielectric constant tensor:
#      x y z
#    x 1.765320 0.000000 0.000000 
#    y 0.000000 1.658620 0.000000 
#    z 0.000000 0.000000 1.708710 
# 
# From -- ./inp_files/42005.got.cif
#   From: 2010.05.17/outbox.cif.g08.bks.cpg/sg67_22_cif.got.tgz:42005.got - 2010.06.03 18:28:57.
