data_PCOD9504656
_publ_section_title
;
Structure prediction by ZEFSAII (Michael W. Deem and Ramdas Pophale) SiO2 
 PCOD9504656
Probable space group: C M M A
;
_chemical_formula_sum "Si O2"
_cell_formula_units_Z 80
_cell_length_a 14.060674
_cell_length_b 21.115816
_cell_length_c 12.954416
_cell_angle_alpha 90.000000
_cell_angle_beta 90.000000
_cell_angle_gamma 90.000000
_cell_volume 3846.199857
_symmetry_space_group_name_H-M "C M M A"
_symmetry_group_IT_number 67
_symmetry_cell_setting 'orthorhombic'
loop_
_space_group_symop_operation_xyz
x,y,z
-x,1/2-y,z
x,-y,-z
-x,1/2+y,-z
-x,-y,-z
x,1/2+y,-z
-x,y,z
x,1/2-y,z
1/2+x,1/2+y,z
1/2-x,-y,z
1/2+x,1/2-y,-z
1/2-x,y,-z
1/2-x,1/2-y,-z
1/2+x,y,-z
1/2-x,1/2+y,z
1/2+x,-y,z
loop_
_atom_site_type_symbol
_atom_site_label
_atom_site_fract_x
_atom_site_fract_y
_atom_site_fract_z
Si Si1 0.760061 0.882725 0.762697
Si Si2 0.109116 0.549994 0.359017
Si Si3 0.609991 0.401995 0.581036
Si Si4 0.608411 0.319925 0.109261
Si Si5 0.110948 0.433921 0.053933
O O1 0.682048 0.934185 0.729152
O O2 0.822339 0.866732 0.661433
O O3 0.693427 0.828158 0.809492
O O4 0.827894 0.912816 0.848590
O O5 0.115617 0.476318 0.387341
O O6 0.133374 0.593043 0.459422
O O7 0.000000 0.562571 0.330904
O O8 0.500000 0.382008 0.591026
O O9 0.500000 0.324589 0.152269
O O10 0.615635 0.250000 0.060555
O O11 0.618891 0.376896 0.028354
O O12 0.000000 0.440421 0.084592
O O13 0.138752 0.500000 0.000000
#
# Coordination Sequence:
#
# PCOD9504656 Si02
#       5
#    16  16  16  16  16
#     4  12  21  32  60  88 113 148 205 248 299 359
#     4   9  19  34  52  82 123 161 195 242 301 366
#     4   9  19  34  52  82 124 161 195 240 303 364
#     4  10  24  45  63  82 117 163 207 251 305 371
#     4  10  24  41  57  86 127 161 195 250 312 362
#
# _framework density 20.799752000000002
#
# number of rings (size 3 to 8) (size 9 to 14) (size 15 to 20)
#    0.000    2.000    0.000    4.200    5.600    4.000 
#    0.000    0.000    0.000    4.800    0.000    2.800 
#    0.000    3.200    0.000    0.000    0.000    0.000 
#
# Total GULP energy -223452.573147 kJ/mol
# GULP energy per Si atom -5586.314329 kJ/mol
# Density = 2.075241 g / cm^3
# Si number density = 20.799752 Si / 1000 Ang^3
#
#
#
# Elastic Constant Matrix: (Units=GPa)
#
#
# Indices 1 2 3 4 5 6 
#
# 1 127.6635 26.9478 65.0756 0.0000 0.0000 0.0000
# 2 26.9478 86.0193 25.0981 0.0000 0.0000 0.0000
# 3 65.0756 25.0981 66.4080 0.0000 0.0000 0.0000
# 4 0.0000 0.0000 0.0000 17.4504 0.0000 0.0000
# 5 0.0000 0.0000 0.0000 0.0000 38.7826 0.0000
# 6 0.0000 0.0000 0.0000 0.0000 0.0000 -5.9229
#
#
#
# Elastic Compliance Matrix: (Units=1/GPa)
#
#
# Indices 1 2 3 4 5 6 
#
# 1 0.015669 -0.000482 -0.015172 0.000000 0.000000 0.000000
# 2 -0.000482 0.013081 -0.004472 0.000000 0.000000 0.000000
# 3 -0.015172 -0.004472 0.031616 0.000000 0.000000 0.000000
# 4 0.000000 0.000000 0.000000 0.057305 0.000000 0.000000
# 5 0.000000 0.000000 0.000000 0.000000 0.025785 0.000000
# 6 0.000000 0.000000 0.000000 0.000000 0.000000 -0.168835
#
#
# Mechanical properties :
#
#
# Convention : Reuss Voigt Hill
#
# Bulk Modulus (GPa) = 49.71533 57.14819 53.43176
# Shear Modulus (GPa) = 231.72411 20.92664 126.32537
#
# Velocity S-wave (km/s) = 10.56641 3.17535 7.80166
# Velocity P-wave (km/s) = 13.14607 6.40147 10.33920
#
# Compressibility (1/GPa) = 0.02011452
#
# Stress axis : x y z
#
# Youngs Moduli (GPa) = 63.82131 76.44715 31.62930
#
# Poissons Ratio (x) = 0.03683 0.47989
# Poissons Ratio (y) = 0.03075 0.14144
# Poissons Ratio (z) = 0.96831 0.34184
#
# Static dielectric constant tensor:
#      x y z
#    x 1.786660 0.000000 0.000000 
#    y 0.000000 1.725580 0.000000 
#    z 0.000000 0.000000 1.787650 
# 
# From -- ./inp_files/17939.got.cif
#   From: 2010.05.17/outbox.cif.g08.bks.cpg/sg67_9_cif.got.tgz:17939.got - 2010.06.03 18:28:57.
