data_PCOD9504211
_publ_section_title
;
Structure prediction by ZEFSAII (Michael W. Deem and Ramdas Pophale) SiO2 
 PCOD9504211
Probable space group: C M M A
;
_chemical_formula_sum "Si O2"
_cell_formula_units_Z 96
_cell_length_a 18.422831
_cell_length_b 17.982799
_cell_length_c 14.393724
_cell_angle_alpha 90.000000
_cell_angle_beta 90.000000
_cell_angle_gamma 90.000000
_cell_volume 4768.555362
_symmetry_space_group_name_H-M "C M M A"
_symmetry_group_IT_number 67
_symmetry_cell_setting 'orthorhombic'
loop_
_space_group_symop_operation_xyz
x,y,z
-x,1/2-y,z
x,-y,-z
-x,1/2+y,-z
-x,-y,-z
x,1/2+y,-z
-x,y,z
x,1/2-y,z
1/2+x,1/2+y,z
1/2-x,-y,z
1/2+x,1/2-y,-z
1/2-x,y,-z
1/2-x,1/2-y,-z
1/2+x,y,-z
1/2-x,1/2+y,z
1/2+x,-y,z
loop_
_atom_site_type_symbol
_atom_site_label
_atom_site_fract_x
_atom_site_fract_y
_atom_site_fract_z
Si Si1 0.840910 0.164041 0.388924
Si Si2 0.585740 0.086138 0.990889
Si Si3 0.913466 0.079798 0.216734
Si Si4 0.164874 0.335994 0.598009
Si Si5 0.314180 0.553123 0.747625
Si Si6 0.204720 0.836040 0.094479
O O1 0.861927 0.250000 0.378046
O O2 0.877188 0.120044 0.304936
O O3 0.859750 0.141307 0.494659
O O4 0.753033 0.161828 0.391567
O O5 0.500000 0.084261 0.006521
O O6 0.598864 0.114694 0.885399
O O7 0.624522 0.140116 0.062898
O O8 0.612320 0.000000 0.000000
O O9 0.000000 0.074072 0.229666
O O10 0.874247 0.000534 0.209827
O O11 0.143481 0.250000 0.613803
O O12 0.144091 0.395691 0.674179
O O13 0.250000 0.500000 0.708108
O O14 0.276823 0.607138 0.823272
O O15 0.211164 0.750000 0.123221
O O16 0.250000 0.847607 0.000000
#
# Coordination Sequence:
#
# PCOD9504211 Si02
#       6
#    16  16  16  16  16  16
#     4   9  19  38  60  85 118 154 195 248 298 351
#     4  10  21  40  62  83 118 163 203 244 300 365
#     4  11  23  38  60  91 121 156 199 249 304 359
#     4   9  19  37  61  86 115 153 198 245 296 356
#     4  12  22  37  61  88 119 163 201 247 304 366
#     4  11  25  39  58  91 124 157 203 256 306 359
#
# _framework density 20.131882999999998
#
# number of rings (size 3 to 8) (size 9 to 14) (size 15 to 20)
#    0.000    1.667    3.333    2.500    0.000    2.000 
#    0.000    3.333    0.000    2.500    0.000    0.000 
#    0.000    0.000    0.000    0.000    0.000    0.000 
#
# Total GULP energy -267772.279369 kJ/mol
# GULP energy per Si atom -5578.589154 kJ/mol
# Density = 2.008606 g / cm^3
# Si number density = 20.131883 Si / 1000 Ang^3
#
#
#
# Elastic Constant Matrix: (Units=GPa)
#
#
# Indices 1 2 3 4 5 6 
#
# 1 36.5210 5.2353 13.3684 0.0000 0.0000 0.0000
# 2 5.2353 71.3356 43.8005 0.0000 0.0000 0.0000
# 3 13.3684 43.8005 85.1292 0.0000 0.0000 0.0000
# 4 0.0000 0.0000 0.0000 37.5966 0.0000 0.0000
# 5 0.0000 0.0000 0.0000 0.0000 27.9369 0.0000
# 6 0.0000 0.0000 0.0000 0.0000 0.0000 14.3075
#
#
#
# Elastic Compliance Matrix: (Units=1/GPa)
#
#
# Indices 1 2 3 4 5 6 
#
# 1 0.029098 0.000980 -0.005074 0.000000 0.000000 0.000000
# 2 0.000980 0.020525 -0.010714 0.000000 0.000000 0.000000
# 3 -0.005074 -0.010714 0.018056 0.000000 0.000000 0.000000
# 4 0.000000 0.000000 0.000000 0.026598 0.000000 0.000000
# 5 0.000000 0.000000 0.000000 0.000000 0.035795 0.000000
# 6 0.000000 0.000000 0.000000 0.000000 0.000000 0.069893
#
#
# Mechanical properties :
#
#
# Convention : Reuss Voigt Hill
#
# Bulk Modulus (GPa) = 26.27215 35.31048 30.79131
# Shear Modulus (GPa) = 20.63812 24.67364 22.65588
#
# Velocity S-wave (km/s) = 3.20526 3.50466 3.35830
# Velocity P-wave (km/s) = 5.17461 5.82705 5.51049
#
# Compressibility (1/GPa) = 0.03806312
#
# Stress axis : x y z
#
# Youngs Moduli (GPa) = 34.36635 48.72102 55.38232
#
# Poissons Ratio (x) = -0.04773 0.28098
# Poissons Ratio (y) = -0.03367 0.59338
# Poissons Ratio (z) = 0.17436 0.52201
#
# Static dielectric constant tensor:
#      x y z
#    x 1.711620 0.000000 0.000000 
#    y 0.000000 1.717660 0.000000 
#    z 0.000000 0.000000 1.761000 
# 
# From -- ./inp_files/29317.got.cif
#   From: 2010.05.17/outbox.cif.g08.bks.cpg/sg67_15_cif.got.tgz:29317.got - 2010.06.03 18:28:57.
