data_PCOD9504328
_publ_section_title
;
Structure prediction by ZEFSAII (Michael W. Deem and Ramdas Pophale) SiO2 
 PCOD9504328
Probable space group: C M M A
;
_chemical_formula_sum "Si O2"
_cell_formula_units_Z 96
_cell_length_a 8.535193
_cell_length_b 29.686688
_cell_length_c 21.023129
_cell_angle_alpha 90.000000
_cell_angle_beta 90.000000
_cell_angle_gamma 90.000000
_cell_volume 5326.874307
_symmetry_space_group_name_H-M "C M M A"
_symmetry_group_IT_number 67
_symmetry_cell_setting 'orthorhombic'
loop_
_space_group_symop_operation_xyz
x,y,z
-x,1/2-y,z
x,-y,-z
-x,1/2+y,-z
-x,-y,-z
x,1/2+y,-z
-x,y,z
x,1/2-y,z
1/2+x,1/2+y,z
1/2-x,-y,z
1/2+x,1/2-y,-z
1/2-x,y,-z
1/2-x,1/2-y,-z
1/2+x,y,-z
1/2-x,1/2+y,z
1/2+x,-y,z
loop_
_atom_site_type_symbol
_atom_site_label
_atom_site_fract_x
_atom_site_fract_y
_atom_site_fract_z
Si Si1 0.187849 0.393341 0.314322
Si Si2 0.188772 0.200376 0.886969
Si Si3 0.686255 0.950450 0.570460
Si Si4 0.688679 0.949186 0.806246
Si Si5 0.811219 0.604566 0.066914
Si Si6 0.688710 0.699841 0.256552
O O1 0.258905 0.414680 0.377597
O O2 0.243843 0.422182 0.253711
O O3 0.235802 0.341709 0.300711
O O4 0.000000 0.395472 0.318363
O O5 0.246139 0.250000 0.908166
O O6 0.246159 0.156154 0.923493
O O7 0.236372 0.194808 0.813218
O O8 0.000000 0.200619 0.890729
O O9 0.500000 0.952657 0.568195
O O10 0.750000 0.940304 0.500000
O O11 0.750000 0.000000 0.588642
O O12 0.500000 0.948806 0.802481
O O13 0.736619 0.924307 0.871652
O O14 0.750000 0.000000 0.805640
O O15 0.000000 0.604991 0.065639
O O16 0.750000 0.586621 0.000000
O O17 0.500000 0.697819 0.248898
O O18 0.729132 0.750000 0.280322
#
# Coordination Sequence:
#
# PCOD9504328 Si02
#       6
#    16  16  16  16  16  16
#     4  11  21  35  58  86 115 147 182 223 271 320
#     4   9  17  32  53  76 104 136 172 218 272 327
#     4  11  22  38  59  85 119 153 188 226 269 321
#     4  11  23  39  56  78 105 137 181 229 277 327
#     4  10  22  37  53  74 103 138 178 223 274 330
#     4   9  18  32  53  82 112 142 178 221 268 319
#
# _framework density 18.021825
#
# number of rings (size 3 to 8) (size 9 to 14) (size 15 to 20)
#    0.000    1.833    1.667    3.500    0.000    3.333 
#    0.000    1.667    0.000    0.500    0.000    0.000 
#    0.000    0.000    0.000    0.000    0.000    0.000 
#
# Total GULP energy -268028.979507 kJ/mol
# GULP energy per Si atom -5583.937073 kJ/mol
# Density = 1.798081 g / cm^3
# Si number density = 18.021825 Si / 1000 Ang^3
#
#
#
# Elastic Constant Matrix: (Units=GPa)
#
#
# Indices 1 2 3 4 5 6 
#
# 1 49.7046 28.0137 22.5557 0.0000 0.0000 0.0000
# 2 28.0137 124.2645 58.6913 0.0000 0.0000 0.0000
# 3 22.5557 58.6913 83.8013 0.0000 0.0000 0.0000
# 4 0.0000 0.0000 0.0000 15.1281 0.0000 0.0000
# 5 0.0000 0.0000 0.0000 0.0000 27.9438 0.0000
# 6 0.0000 0.0000 0.0000 0.0000 0.0000 5.7169
#
#
#
# Elastic Compliance Matrix: (Units=1/GPa)
#
#
# Indices 1 2 3 4 5 6 
#
# 1 0.023901 -0.003511 -0.003974 0.000000 0.000000 0.000000
# 2 -0.003511 0.012541 -0.007838 0.000000 0.000000 0.000000
# 3 -0.003974 -0.007838 0.018492 0.000000 0.000000 0.000000
# 4 0.000000 0.000000 0.000000 0.066102 0.000000 0.000000
# 5 0.000000 0.000000 0.000000 0.000000 0.035786 0.000000
# 6 0.000000 0.000000 0.000000 0.000000 0.000000 0.174921
#
#
# Mechanical properties :
#
#
# Convention : Reuss Voigt Hill
#
# Bulk Modulus (GPa) = 41.17343 52.92132 47.04738
# Shear Modulus (GPa) = 13.49577 19.65838 16.57707
#
# Velocity S-wave (km/s) = 2.73949 3.30632 3.03617
# Velocity P-wave (km/s) = 5.73607 6.63359 6.20109
#
# Compressibility (1/GPa) = 0.02428751
#
# Stress axis : x y z
#
# Youngs Moduli (GPa) = 41.83887 79.73884 54.07695
#
# Poissons Ratio (x) = 0.27998 0.21490
# Poissons Ratio (y) = 0.14691 0.42386
# Poissons Ratio (z) = 0.16627 0.62500
#
# Static dielectric constant tensor:
#      x y z
#    x 1.609470 0.000000 0.000000 
#    y 0.000000 1.647820 0.000000 
#    z 0.000000 0.000000 1.584320 
# 
# From -- ./inp_files/37187.got.cif
#   From: 2010.05.17/outbox.cif.g08.bks.cpg/sg67_19_cif.got.tgz:37187.got - 2010.06.03 18:28:57.
