data_PCOD9504423
_publ_section_title
;
Structure prediction by ZEFSAII (Michael W. Deem and Ramdas Pophale) SiO2 
 PCOD9504423
Probable space group: C M M A
;
_chemical_formula_sum "Si O2"
_cell_formula_units_Z 96
_cell_length_a 18.042653
_cell_length_b 24.510126
_cell_length_c 11.741674
_cell_angle_alpha 90.000000
_cell_angle_beta 90.000000
_cell_angle_gamma 90.000000
_cell_volume 5192.493468
_symmetry_space_group_name_H-M "C M M A"
_symmetry_group_IT_number 67
_symmetry_cell_setting 'orthorhombic'
loop_
_space_group_symop_operation_xyz
x,y,z
-x,1/2-y,z
x,-y,-z
-x,1/2+y,-z
-x,-y,-z
x,1/2+y,-z
-x,y,z
x,1/2-y,z
1/2+x,1/2+y,z
1/2-x,-y,z
1/2+x,1/2-y,-z
1/2-x,y,-z
1/2-x,1/2-y,-z
1/2+x,y,-z
1/2-x,1/2+y,z
1/2+x,-y,z
loop_
_atom_site_type_symbol
_atom_site_label
_atom_site_fract_x
_atom_site_fract_y
_atom_site_fract_z
Si Si1 0.281852 0.060202 0.804799
Si Si2 0.668707 0.060553 0.546650
Si Si3 0.196959 0.750000 0.390351
Si Si4 0.635374 0.132612 0.165977
Si Si5 0.084024 0.350035 0.588050
Si Si6 0.919410 0.563099 0.962883
Si Si7 0.201337 0.750000 0.121756
O O1 0.318772 0.058450 0.680777
O O2 0.214201 0.102296 0.814173
O O3 0.347759 0.075221 0.888491
O O4 0.250000 0.000000 0.831021
O O5 0.750000 0.076427 0.500000
O O6 0.610370 0.103971 0.500347
O O7 0.651899 0.000000 0.500000
O O8 0.250000 0.750000 0.500000
O O9 0.143799 0.698140 0.407019
O O10 0.230511 0.750000 0.258799
O O11 0.591028 0.128072 0.283481
O O12 0.653556 0.194242 0.125383
O O13 0.589516 0.100784 0.072009
O O14 0.000000 0.332217 0.565016
O O15 0.000000 0.571925 0.907470
O O16 0.915628 0.500000 0.000000
O O17 0.250000 0.750000 0.000000
#
# Coordination Sequence:
#
# PCOD9504423 Si02
#       7
#    16  16   8  16  16  16   8
#     4  12  21  37  63  86 121 165 211 254 307 377
#     4  11  21  38  58  88 123 162 207 249 306 372
#     4  10  23  41  68  95 126 162 214 264 314 372
#     4  11  22  40  64  91 122 159 209 257 306 374
#     4  11  23  40  64  93 125 161 204 258 318 371
#     4  11  24  38  57  88 125 158 200 259 319 366
#     4  10  22  39  64  97 118 158 208 262 306 368
#
# _framework density 18.488227999999999
#
# number of rings (size 3 to 8) (size 9 to 14) (size 15 to 20)
#    0.000    1.000    5.000    2.750    2.333    1.000 
#    0.000    1.250    0.000    0.000    0.000    1.167 
#    0.000    0.000    0.000    0.000    0.000    0.000 
#
# Total GULP energy -267735.523420 kJ/mol
# GULP energy per Si atom -5577.823405 kJ/mol
# Density = 1.844615 g / cm^3
# Si number density = 18.488228 Si / 1000 Ang^3
#
#
#
# Elastic Constant Matrix: (Units=GPa)
#
#
# Indices 1 2 3 4 5 6 
#
# 1 82.3548 20.1190 39.3444 0.0000 0.0000 0.0000
# 2 20.1190 84.5304 5.7663 0.0000 0.0000 0.0000
# 3 39.3444 5.7663 59.9939 0.0000 0.0000 0.0000
# 4 0.0000 0.0000 0.0000 29.7756 0.0000 0.0000
# 5 0.0000 0.0000 0.0000 0.0000 -12.8621 0.0000
# 6 0.0000 0.0000 0.0000 0.0000 0.0000 50.8705
#
#
#
# Elastic Compliance Matrix: (Units=1/GPa)
#
#
# Indices 1 2 3 4 5 6 
#
# 1 0.018736 -0.003645 -0.011937 0.000000 0.000000 0.000000
# 2 -0.003645 0.012617 0.001178 0.000000 0.000000 0.000000
# 3 -0.011937 0.001178 0.024383 0.000000 0.000000 0.000000
# 4 0.000000 0.000000 0.000000 0.033584 0.000000 0.000000
# 5 0.000000 0.000000 0.000000 0.000000 -0.077748 0.000000
# 6 0.000000 0.000000 0.000000 0.000000 0.000000 0.019658
#
#
# Mechanical properties :
#
#
# Convention : Reuss Voigt Hill
#
# Bulk Modulus (GPa) = 37.13554 39.70427 38.41990
# Shear Modulus (GPa) = 72.44841 24.33344 48.39093
#
# Velocity S-wave (km/s) = 6.26668 3.63183 5.12159
# Velocity P-wave (km/s) = 8.51419 6.25371 7.46995
#
# Compressibility (1/GPa) = 0.02692839
#
# Stress axis : x y z
#
# Youngs Moduli (GPa) = 53.37400 79.25651 41.01162
#
# Poissons Ratio (x) = 0.28889 0.48954
# Poissons Ratio (y) = 0.19455 -0.04830
# Poissons Ratio (z) = 0.63711 -0.09334
#
# Static dielectric constant tensor:
#      x y z
#    x 1.653890 0.000000 0.000000 
#    y 0.000000 1.640360 0.000000 
#    z 0.000000 0.000000 1.726620 
# 
# From -- ./inp_files/19687.got.cif
#   From: 2010.05.17/outbox.cif.g08.bks.cpg/sg67_10_cif.got.tgz:19687.got - 2010.06.03 18:28:57.
