data_PCOD9504992
_publ_section_title
;
Structure prediction by ZEFSAII (Michael W. Deem and Ramdas Pophale) SiO2 
 PCOD9504992
Probable space group: C M M A
;
_chemical_formula_sum "Si O2"
_cell_formula_units_Z 52
_cell_length_a 15.583167
_cell_length_b 20.363592
_cell_length_c 7.350704
_cell_angle_alpha 90.000000
_cell_angle_beta 90.000000
_cell_angle_gamma 90.000000
_cell_volume 2332.593423
_symmetry_space_group_name_H-M "C M M A"
_symmetry_group_IT_number 67
_symmetry_cell_setting 'orthorhombic'
loop_
_space_group_symop_operation_xyz
x,y,z
-x,1/2-y,z
x,-y,-z
-x,1/2+y,-z
-x,-y,-z
x,1/2+y,-z
-x,y,z
x,1/2-y,z
1/2+x,1/2+y,z
1/2-x,-y,z
1/2+x,1/2-y,-z
1/2-x,y,-z
1/2-x,1/2-y,-z
1/2+x,y,-z
1/2-x,1/2+y,z
1/2+x,-y,z
loop_
_atom_site_type_symbol
_atom_site_label
_atom_site_fract_x
_atom_site_fract_y
_atom_site_fract_z
Si Si1 0.596622 0.094935 0.602390
Si Si2 0.841578 0.964075 0.249422
Si Si3 0.500000 0.750000 0.938303
Si Si4 0.848434 0.350977 0.028972
O O1 0.500000 0.115529 0.556709
O O2 0.650719 0.086007 0.419112
O O3 0.635302 0.141687 0.755677
O O4 0.595149 0.022895 0.697086
O O5 0.750000 0.000000 0.246353
O O6 0.855325 0.922181 0.069364
O O7 0.423569 0.806482 0.949263
O O8 0.750000 0.329362 0.000000
#
# Coordination Sequence:
#
# PCOD9504992 Si02
#       4
#    16  16   4  16
#     4  11  23  39  68 110 150 177 226 292 371 441
#     4  11  23  39  71 113 143 175 224 294 377 438
#     4  12  30  52  68  98 144 202 266 282 330 418
#     4  12  26  46  73 100 141 194 241 297 350 416
#
# _framework density 22.292783
#
# number of rings (size 3 to 8) (size 9 to 14) (size 15 to 20)
#    0.000    0.615    4.615    5.077    4.308    1.231 
#    0.000    3.077    0.000    3.692    0.000    0.000 
#    0.000    0.000    0.000    0.000    0.000    0.000 
#
# Total GULP energy -144831.309115 kJ/mol
# GULP energy per Si atom -5570.434966 kJ/mol
# Density = 2.224204 g / cm^3
# Si number density = 22.292783 Si / 1000 Ang^3
#
#
#
# Elastic Constant Matrix: (Units=GPa)
#
#
# Indices 1 2 3 4 5 6 
#
# 1 154.2813 30.4976 8.9354 0.0000 0.0000 0.0000
# 2 30.4976 41.5248 -1.6935 0.0000 0.0000 0.0000
# 3 8.9354 -1.6935 98.2939 0.0000 0.0000 0.0000
# 4 0.0000 0.0000 0.0000 -13.1316 0.0000 0.0000
# 5 0.0000 0.0000 0.0000 0.0000 12.8243 0.0000
# 6 0.0000 0.0000 0.0000 0.0000 0.0000 25.2768
#
#
#
# Elastic Compliance Matrix: (Units=1/GPa)
#
#
# Indices 1 2 3 4 5 6 
#
# 1 0.007644 -0.005646 -0.000792 0.000000 0.000000 0.000000
# 2 -0.005646 0.028270 0.001000 0.000000 0.000000 0.000000
# 3 -0.000792 0.001000 0.010263 0.000000 0.000000 0.000000
# 4 0.000000 0.000000 0.000000 -0.076152 0.000000 0.000000
# 5 0.000000 0.000000 0.000000 0.000000 0.077977 0.000000
# 6 0.000000 0.000000 0.000000 0.000000 0.000000 0.039562
#
#
# Mechanical properties :
#
#
# Convention : Reuss Voigt Hill
#
# Bulk Modulus (GPa) = 28.32849 41.06434 34.69641
# Shear Modulus (GPa) = 45.36983 22.08459 33.72721
#
# Velocity S-wave (km/s) = 4.51619 3.15089 3.89385
# Velocity P-wave (km/s) = 6.31900 5.63009 5.98447
#
# Compressibility (1/GPa) = 0.03530016
#
# Stress axis : x y z
#
# Youngs Moduli (GPa) = 130.82762 35.37370 97.43919
#
# Poissons Ratio (x) = 0.19972 0.07718
# Poissons Ratio (y) = 0.73867 -0.09747
# Poissons Ratio (z) = 0.10363 -0.03538
#
# Static dielectric constant tensor:
#      x y z
#    x 1.842290 0.000000 0.000000 
#    y 0.000000 1.838190 0.000000 
#    z 0.000000 0.000000 1.845750 
# 
# From -- ./inp_files/7565.got.cif
#   From: 2010.05.17/outbox.cif.g08.bks.cpg/sg67_4_cif.got.tgz:7565.got - 2010.06.03 18:28:57.
