data_PCOD9504490
_publ_section_title
;
Structure prediction by ZEFSAII (Michael W. Deem and Ramdas Pophale) SiO2 
 PCOD9504490
Probable space group: C M M A
;
_chemical_formula_sum "Si O2"
_cell_formula_units_Z 52
_cell_length_a 16.526584
_cell_length_b 14.174410
_cell_length_c 9.748747
_cell_angle_alpha 90.000000
_cell_angle_beta 90.000000
_cell_angle_gamma 90.000000
_cell_volume 2283.688610
_symmetry_space_group_name_H-M "C M M A"
_symmetry_group_IT_number 67
_symmetry_cell_setting 'orthorhombic'
loop_
_space_group_symop_operation_xyz
x,y,z
-x,1/2-y,z
x,-y,-z
-x,1/2+y,-z
-x,-y,-z
x,1/2+y,-z
-x,y,z
x,1/2-y,z
1/2+x,1/2+y,z
1/2-x,-y,z
1/2+x,1/2-y,-z
1/2-x,y,-z
1/2-x,1/2-y,-z
1/2+x,y,-z
1/2-x,1/2+y,z
1/2+x,-y,z
loop_
_atom_site_type_symbol
_atom_site_label
_atom_site_fract_x
_atom_site_fract_y
_atom_site_fract_z
Si Si1 0.000000 0.636224 0.032091
Si Si2 0.000000 0.133823 0.654810
Si Si3 0.843890 0.863507 0.518908
Si Si4 0.250000 0.000000 0.000000
Si Si5 0.853725 0.862261 0.834245
O O1 0.923878 0.610525 0.940193
O O2 0.000000 0.750000 0.041298
O O3 0.000000 0.601358 0.187326
O O4 0.916292 0.103258 0.580893
O O5 0.000000 0.250000 0.651849
O O6 0.841019 0.750000 0.499870
O O7 0.750000 0.895100 0.500000
O O8 0.870707 0.881405 0.675275
O O9 0.217879 0.924462 0.889086
O O10 0.838681 0.750000 0.845277
#
# Coordination Sequence:
#
# PCOD9504490 Si02
#       5
#     8   8  16   4  16
#     4   9  19  36  65  95 124 166 214 262 314 378
#     4   9  17  31  57  94 124 157 210 262 316 377
#     4   9  18  33  59  90 122 162 209 259 313 375
#     4  12  26  38  62  94 128 166 208 268 312 384
#     4  10  22  41  64  91 126 167 211 260 321 379
#
# _framework density 22.770178999999999
#
# number of rings (size 3 to 8) (size 9 to 14) (size 15 to 20)
#    0.000    2.462    0.000    1.385    4.308    4.308 
#    0.000    0.769    0.000    1.846    0.000    0.000 
#    0.000    0.000    0.000    0.000    0.000    0.000 
#
# Total GULP energy -145045.907070 kJ/mol
# GULP energy per Si atom -5578.688733 kJ/mol
# Density = 2.271835 g / cm^3
# Si number density = 22.770179 Si / 1000 Ang^3
#
#
#
# Elastic Constant Matrix: (Units=GPa)
#
#
# Indices 1 2 3 4 5 6 
#
# 1 70.5508 7.0226 85.1728 0.0000 0.0000 0.0000
# 2 7.0226 86.1895 41.0860 0.0000 0.0000 0.0000
# 3 85.1728 41.0860 197.1355 0.0000 0.0000 0.0000
# 4 0.0000 0.0000 0.0000 4.1104 0.0000 0.0000
# 5 0.0000 0.0000 0.0000 0.0000 44.5741 0.0000
# 6 0.0000 0.0000 0.0000 0.0000 0.0000 -245.1441
#
#
#
# Elastic Compliance Matrix: (Units=1/GPa)
#
#
# Indices 1 2 3 4 5 6 
#
# 1 0.030990 0.004283 -0.014282 0.000000 0.000000 0.000000
# 2 0.004283 0.013474 -0.004659 0.000000 0.000000 0.000000
# 3 -0.014282 -0.004659 0.012214 0.000000 0.000000 0.000000
# 4 0.000000 0.000000 0.000000 0.243288 0.000000 0.000000
# 5 0.000000 0.000000 0.000000 0.000000 0.022435 0.000000
# 6 0.000000 0.000000 0.000000 0.000000 0.000000 -0.004079
#
#
# Mechanical properties :
#
#
# Convention : Reuss Voigt Hill
#
# Bulk Modulus (GPa) = 36.54579 68.93762 52.74171
# Shear Modulus (GPa) = 14.01515 -24.58564 -5.28525
#
# Velocity S-wave (km/s) = 2.48363 -3.28949 -1.52518
# Velocity P-wave (km/s) = 4.93044 3.98917 4.48457
#
# Compressibility (1/GPa) = 0.02736293
#
# Stress axis : x y z
#
# Youngs Moduli (GPa) = 32.26887 74.21627 81.87278
#
# Poissons Ratio (x) = -0.31787 1.16929
# Poissons Ratio (y) = -0.13821 0.38142
# Poissons Ratio (z) = 0.46086 0.34575
#
# Static dielectric constant tensor:
#      x y z
#    x 1.933290 0.000000 0.000000 
#    y 0.000000 1.812480 0.000000 
#    z 0.000000 0.000000 1.822020 
# 
# From -- ./inp_files/9019.got.cif
#   From: 2010.05.17/outbox.cif.g08.bks.cpg/sg67_5_cif.got.tgz:9019.got - 2010.06.03 18:28:57.
