data_PCOD9504533
_publ_section_title
;
Structure prediction by ZEFSAII (Michael W. Deem and Ramdas Pophale) SiO2 
 PCOD9504533
Probable space group: C M M A
;
_chemical_formula_sum "Si O2"
_cell_formula_units_Z 56
_cell_length_a 9.455613
_cell_length_b 25.787178
_cell_length_c 10.660821
_cell_angle_alpha 90.000000
_cell_angle_beta 90.000000
_cell_angle_gamma 90.000000
_cell_volume 2599.466103
_symmetry_space_group_name_H-M "C M M A"
_symmetry_group_IT_number 67
_symmetry_cell_setting 'orthorhombic'
loop_
_space_group_symop_operation_xyz
x,y,z
-x,1/2-y,z
x,-y,-z
-x,1/2+y,-z
-x,-y,-z
x,1/2+y,-z
-x,y,z
x,1/2-y,z
1/2+x,1/2+y,z
1/2-x,-y,z
1/2+x,1/2-y,-z
1/2-x,y,-z
1/2-x,1/2-y,-z
1/2+x,y,-z
1/2-x,1/2+y,z
1/2+x,-y,z
loop_
_atom_site_type_symbol
_atom_site_label
_atom_site_fract_x
_atom_site_fract_y
_atom_site_fract_z
Si Si1 0.500000 0.106170 0.591362
Si Si2 0.500000 0.917357 0.695622
Si Si3 0.500000 0.971100 0.173378
Si Si4 0.000000 0.750000 0.395440
Si Si5 0.250000 0.500000 0.000000
Si Si6 0.835960 0.750000 0.873364
Si Si7 0.731103 0.665157 0.681436
O O1 0.500000 0.077855 0.456685
O O2 0.500000 0.068234 0.710886
O O3 0.360708 0.141264 0.604571
O O4 0.363552 0.882813 0.728115
O O5 0.500000 0.971441 0.766146
O O6 0.359027 0.967700 0.087563
O O7 0.123558 0.795163 0.385317
O O8 0.796841 0.699556 0.792416
O O9 0.000000 0.750000 0.901792
O O10 0.750000 0.750000 0.000000
#
# Coordination Sequence:
#
# PCOD9504533 Si02
#       7
#     8   8   8   4   4   8  16
#     4  12  23  43  72 103 139 185 240 293 343 425
#     4  11  24  44  70 101 144 182 238 286 348 428
#     4  11  24  47  69 103 142 187 233 284 361 403
#     4   8  20  40  64  82 142 176 212 282 342 418
#     4  10  24  46  66  94 144 176 232 292 336 430
#     4  11  24  45  66  95 132 180 232 289 340 420
#     4  10  22  43  64 101 137 172 236 286 351 413
#
# _framework density 21.542887
#
# number of rings (size 3 to 8) (size 9 to 14) (size 15 to 20)
#    0.000    1.429    1.429    3.000    6.000    0.000 
#   15.429   34.286    0.000    0.000    0.000    0.000 
#    0.000    0.000    0.000    0.000    0.000    0.000 
#
# Total GULP energy -156089.104152 kJ/mol
# GULP energy per Si atom -5574.610863 kJ/mol
# Density = 2.149385 g / cm^3
# Si number density = 21.542887 Si / 1000 Ang^3
#
#
#
# Elastic Constant Matrix: (Units=GPa)
#
#
# Indices 1 2 3 4 5 6 
#
# 1 214.0417 69.6153 58.0358 0.0000 0.0000 0.0000
# 2 69.6153 132.5785 54.8758 0.0000 0.0000 0.0000
# 3 58.0358 54.8758 114.4481 0.0000 0.0000 0.0000
# 4 0.0000 0.0000 0.0000 -18.7464 0.0000 0.0000
# 5 0.0000 0.0000 0.0000 0.0000 36.1308 0.0000
# 6 0.0000 0.0000 0.0000 0.0000 0.0000 26.4018
#
#
#
# Elastic Compliance Matrix: (Units=1/GPa)
#
#
# Indices 1 2 3 4 5 6 
#
# 1 0.005946 -0.002338 -0.001894 0.000000 0.000000 0.000000
# 2 -0.002338 0.010330 -0.003767 0.000000 0.000000 0.000000
# 3 -0.001894 -0.003767 0.011504 0.000000 0.000000 0.000000
# 4 0.000000 0.000000 0.000000 -0.053344 0.000000 0.000000
# 5 0.000000 0.000000 0.000000 0.000000 0.027677 0.000000
# 6 0.000000 0.000000 0.000000 0.000000 0.000000 0.037876
#
#
# Mechanical properties :
#
#
# Convention : Reuss Voigt Hill
#
# Bulk Modulus (GPa) = 84.88140 91.79133 88.33636
# Shear Modulus (GPa) = 83.45003 27.32668 55.38835
#
# Velocity S-wave (km/s) = 6.23063 3.56543 5.07608
# Velocity P-wave (km/s) = 9.55237 7.72340 8.68616
#
# Compressibility (1/GPa) = 0.01178114
#
# Stress axis : x y z
#
# Youngs Moduli (GPa) = 168.17942 96.80752 86.92345
#
# Poissons Ratio (x) = 0.22636 0.16464
# Poissons Ratio (y) = 0.39324 0.32746
# Poissons Ratio (z) = 0.31854 0.36470
#
# Static dielectric constant tensor:
#      x y z
#    x 1.764220 0.000000 0.000000 
#    y 0.000000 1.735420 0.000000 
#    z 0.000000 0.000000 1.805160 
# 
# From -- ./inp_files/15626.got.cif
#   From: 2010.05.17/outbox.cif.g08.bks.cpg/sg67_8_cif.got.tgz:15626.got - 2010.06.03 18:28:57.
