data_PCOD9504396
_publ_section_title
;
Structure prediction by ZEFSAII (Michael W. Deem and Ramdas Pophale) SiO2 
 PCOD9504396
Probable space group: C M M A
;
_chemical_formula_sum "Si O2"
_cell_formula_units_Z 96
_cell_length_a 19.085438
_cell_length_b 19.540879
_cell_length_c 15.040599
_cell_angle_alpha 90.000000
_cell_angle_beta 90.000000
_cell_angle_gamma 90.000000
_cell_volume 5609.334763
_symmetry_space_group_name_H-M "C M M A"
_symmetry_group_IT_number 67
_symmetry_cell_setting 'orthorhombic'
loop_
_space_group_symop_operation_xyz
x,y,z
-x,1/2-y,z
x,-y,-z
-x,1/2+y,-z
-x,-y,-z
x,1/2+y,-z
-x,y,z
x,1/2-y,z
1/2+x,1/2+y,z
1/2-x,-y,z
1/2+x,1/2-y,-z
1/2-x,y,-z
1/2-x,1/2-y,-z
1/2+x,y,-z
1/2-x,1/2+y,z
1/2+x,-y,z
loop_
_atom_site_type_symbol
_atom_site_label
_atom_site_fract_x
_atom_site_fract_y
_atom_site_fract_z
Si Si1 0.329178 0.922170 0.969777
Si Si2 0.670279 0.831364 0.277601
Si Si3 0.079950 0.897418 0.570537
Si Si4 0.582036 0.668281 0.100773
Si Si5 0.580144 0.057369 0.374813
Si Si6 0.703716 0.569997 0.765672
O O1 0.327523 0.919185 0.863726
O O2 0.250000 0.905419 0.000000
O O3 0.381462 0.872203 0.020855
O O4 0.343681 0.000000 0.000000
O O5 0.679371 0.750000 0.279047
O O6 0.633144 0.856543 0.367760
O O7 0.620376 0.849334 0.193523
O O8 0.742630 0.870424 0.261129
O O9 0.094892 0.900228 0.465208
O O10 0.000000 0.872383 0.583518
O O11 0.081529 0.976908 0.600162
O O12 0.500000 0.651755 0.106806
O O13 0.589227 0.750000 0.087790
O O14 0.500000 0.073000 0.346401
O O15 0.639735 0.067691 0.302612
O O16 0.750000 0.500000 0.765435
#
# Coordination Sequence:
#
# PCOD9504396 Si02
#       6
#    16  16  16  16  16  16
#     4  11  21  37  56  83 117 152 191 237 287 335
#     4  11  22  36  58  89 119 151 188 240 298 344
#     4   9  18  36  58  83 114 149 189 234 284 343
#     4  10  22  39  59  85 115 152 197 237 284 350
#     4   9  20  37  59  84 111 149 194 233 280 341
#     4  12  21  37  60  84 118 156 194 239 289 345
#
# _framework density 17.114329000000001
#
# number of rings (size 3 to 8) (size 9 to 14) (size 15 to 20)
#    0.000    1.667    5.000    1.500    0.000    3.667 
#    0.000    1.667    0.000    1.500    0.000    0.000 
#    0.000    0.000    0.000    0.000    0.000    0.000 
#
# Total GULP energy -267903.297282 kJ/mol
# GULP energy per Si atom -5581.318693 kJ/mol
# Density = 1.707538 g / cm^3
# Si number density = 17.114329 Si / 1000 Ang^3
#
#
#
# Elastic Constant Matrix: (Units=GPa)
#
#
# Indices 1 2 3 4 5 6 
#
# 1 104.1578 38.8957 72.8384 0.0000 0.0000 0.0000
# 2 38.8957 44.7106 31.7876 0.0000 0.0000 0.0000
# 3 72.8384 31.7876 124.6488 0.0000 0.0000 0.0000
# 4 0.0000 0.0000 0.0000 26.9647 0.0000 0.0000
# 5 0.0000 0.0000 0.0000 0.0000 35.6723 0.0000
# 6 0.0000 0.0000 0.0000 0.0000 0.0000 19.2578
#
#
#
# Elastic Compliance Matrix: (Units=1/GPa)
#
#
# Indices 1 2 3 4 5 6 
#
# 1 0.019875 -0.011034 -0.008800 0.000000 0.000000 0.000000
# 2 -0.011034 0.033445 -0.002081 0.000000 0.000000 0.000000
# 3 -0.008800 -0.002081 0.013696 0.000000 0.000000 0.000000
# 4 0.000000 0.000000 0.000000 0.037086 0.000000 0.000000
# 5 0.000000 0.000000 0.000000 0.000000 0.028033 0.000000
# 6 0.000000 0.000000 0.000000 0.000000 0.000000 0.051927
#
#
# Mechanical properties :
#
#
# Convention : Reuss Voigt Hill
#
# Bulk Modulus (GPa) = 43.13173 62.28450 52.70812
# Shear Modulus (GPa) = 21.22062 25.04534 23.13298
#
# Velocity S-wave (km/s) = 3.52509 3.82961 3.68050
# Velocity P-wave (km/s) = 6.46724 7.48510 6.99471
#
# Compressibility (1/GPa) = 0.02318479
#
# Stress axis : x y z
#
# Youngs Moduli (GPa) = 50.31392 29.90028 73.01517
#
# Poissons Ratio (x) = 0.32991 0.64255
# Poissons Ratio (y) = 0.55514 0.15198
# Poissons Ratio (z) = 0.44278 0.06224
#
# Static dielectric constant tensor:
#      x y z
#    x 1.559690 0.000000 0.000000 
#    y 0.000000 1.566740 0.000000 
#    z 0.000000 0.000000 1.576120 
# 
# From -- ./inp_files/20859.got.cif
#   From: 2010.05.17/outbox.cif.g08.bks.cpg/sg67_11_cif.got.tgz:20859.got - 2010.06.03 18:28:57.
