data_PCOD9504206
_publ_section_title
;
Structure prediction by ZEFSAII (Michael W. Deem and Ramdas Pophale) SiO2 
 PCOD9504206
Probable space group: C M M A
;
_chemical_formula_sum "Si O2"
_cell_formula_units_Z 116
_cell_length_a 17.715295
_cell_length_b 25.309883
_cell_length_c 14.260041
_cell_angle_alpha 90.000000
_cell_angle_beta 90.000000
_cell_angle_gamma 90.000000
_cell_volume 6393.803727
_symmetry_space_group_name_H-M "C M M A"
_symmetry_group_IT_number 67
_symmetry_cell_setting 'orthorhombic'
loop_
_space_group_symop_operation_xyz
x,y,z
-x,1/2-y,z
x,-y,-z
-x,1/2+y,-z
-x,-y,-z
x,1/2+y,-z
-x,y,z
x,1/2-y,z
1/2+x,1/2+y,z
1/2-x,-y,z
1/2+x,1/2-y,-z
1/2-x,y,-z
1/2-x,1/2-y,-z
1/2+x,y,-z
1/2-x,1/2+y,z
1/2+x,-y,z
loop_
_atom_site_type_symbol
_atom_site_label
_atom_site_fract_x
_atom_site_fract_y
_atom_site_fract_z
Si Si1 0.417354 0.814144 0.519988
Si Si2 0.081532 0.010142 0.695504
Si Si3 0.913913 0.062876 0.983977
Si Si4 0.635242 0.408896 0.810114
Si Si5 0.183987 0.910643 0.196105
Si Si6 0.500000 0.500000 0.500000
Si Si7 0.631608 0.189243 0.684562
Si Si8 0.811919 0.189487 0.687571
O O1 0.500000 0.832839 0.550786
O O2 0.416931 0.750000 0.517720
O O3 0.402875 0.830389 0.413490
O O4 0.354007 0.829507 0.593698
O O5 0.099223 0.954549 0.745633
O O6 0.000000 0.029554 0.734701
O O7 0.146192 0.050376 0.727593
O O8 0.064951 0.003860 0.584869
O O9 0.892958 0.087586 0.083938
O O10 0.000000 0.076723 0.958679
O O11 0.856057 0.078007 0.902342
O O12 0.909871 0.000000 0.000000
O O13 0.725834 0.417492 0.808976
O O14 0.615458 0.352271 0.765585
O O15 0.170053 0.850847 0.230017
O O16 0.607577 0.250000 0.702188
O O17 0.722201 0.189696 0.671539
O O18 0.835164 0.250000 0.706935
#
# Coordination Sequence:
#
# PCOD9504206 Si02
#       8
#    16  16  16  16  16   4  16  16
#     4   9  17  30  51  80 110 148 199 241 276 327
#     4  10  21  40  58  82 115 159 188 229 292 347
#     4  11  23  39  62  89 113 149 192 241 299 354
#     4  11  22  37  62  90 115 148 197 248 287 338
#     4  11  22  37  62  90 115 148 197 248 287 338
#     4   8  24  40  58  78 122 164 186 224 296 360
#     4   9  19  36  56  81 116 155 192 235 289 344
#     4   9  19  36  56  81 116 155 192 235 289 344
#
# _framework density 18.142565000000001
#
# number of rings (size 3 to 8) (size 9 to 14) (size 15 to 20)
#    0.414    1.655    1.379    2.069    0.000    5.517 
#    2.483    3.448    0.000    4.138    0.000    0.000 
#    0.000    0.000    0.000    0.000    0.000    0.000 
#
# Total GULP energy -322967.563438 kJ/mol
# GULP energy per Si atom -5568.406266 kJ/mol
# Density = 1.810127 g / cm^3
# Si number density = 18.142565 Si / 1000 Ang^3
#
#
#
# Elastic Constant Matrix: (Units=GPa)
#
#
# Indices 1 2 3 4 5 6 
#
# 1 29.8979 7.2645 16.7113 0.0000 0.0000 0.0000
# 2 7.2645 39.4364 16.0391 0.0000 0.0000 0.0000
# 3 16.7113 16.0391 107.1598 0.0000 0.0000 0.0000
# 4 0.0000 0.0000 0.0000 24.7361 0.0000 0.0000
# 5 0.0000 0.0000 0.0000 0.0000-1001.4807 0.0000
# 6 0.0000 0.0000 0.0000 0.0000 0.0000 10.1143
#
#
#
# Elastic Compliance Matrix: (Units=1/GPa)
#
#
# Indices 1 2 3 4 5 6 
#
# 1 0.037482 -0.004821 -0.005124 0.000000 0.000000 0.000000
# 2 -0.004821 0.027621 -0.003382 0.000000 0.000000 0.000000
# 3 -0.005124 -0.003382 0.010637 0.000000 0.000000 0.000000
# 4 0.000000 0.000000 0.000000 0.040427 0.000000 0.000000
# 5 0.000000 0.000000 0.000000 0.000000 -0.000999 0.000000
# 6 0.000000 0.000000 0.000000 0.000000 0.000000 0.098870
#
#
# Mechanical properties :
#
#
# Convention : Reuss Voigt Hill
#
# Bulk Modulus (GPa) = 20.37204 28.50265 24.43734
# Shear Modulus (GPa) = 19.45113 -184.22743 -82.38815
#
# Velocity S-wave (km/s) = 3.27789 -10.08785 -6.74612
# Velocity P-wave (km/s) = 5.05760 10.95180 6.86886
#
# Compressibility (1/GPa) = 0.04908689
#
# Stress axis : x y z
#
# Youngs Moduli (GPa) = 26.67918 36.20441 94.01013
#
# Poissons Ratio (x) = 0.17453 0.48168
# Poissons Ratio (y) = 0.12861 0.31798
# Poissons Ratio (z) = 0.13670 0.12246
#
# Static dielectric constant tensor:
#      x y z
#    x 1.636520 0.000000 0.000000 
#    y 0.000000 1.636400 0.000000 
#    z 0.000000 0.000000 1.729200 
# 
# From -- ./inp_files/28769.got.cif
#   From: 2010.05.17/outbox.cif.g08.bks.cpg/sg67_15_cif.got.tgz:28769.got - 2010.06.03 18:28:57.
