data_PCOD9504003
_publ_section_title
;
Structure prediction by ZEFSAII (Michael W. Deem and Ramdas Pophale) SiO2 
 PCOD9504003
Probable space group: C M M A
;
_chemical_formula_sum "Si O2"
_cell_formula_units_Z 88
_cell_length_a 10.319750
_cell_length_b 14.636530
_cell_length_c 30.687125
_cell_angle_alpha 90.000000
_cell_angle_beta 90.000000
_cell_angle_gamma 90.000000
_cell_volume 4635.146937
_symmetry_space_group_name_H-M "C M M A"
_symmetry_group_IT_number 67
_symmetry_cell_setting 'orthorhombic'
loop_
_space_group_symop_operation_xyz
x,y,z
-x,1/2-y,z
x,-y,-z
-x,1/2+y,-z
-x,-y,-z
x,1/2+y,-z
-x,y,z
x,1/2-y,z
1/2+x,1/2+y,z
1/2-x,-y,z
1/2+x,1/2-y,-z
1/2-x,y,-z
1/2-x,1/2-y,-z
1/2+x,y,-z
1/2-x,1/2+y,z
1/2+x,-y,z
loop_
_atom_site_type_symbol
_atom_site_label
_atom_site_fract_x
_atom_site_fract_y
_atom_site_fract_z
Si Si1 0.842643 0.145119 0.632717
Si Si2 0.149628 0.362038 0.537164
Si Si3 0.149451 0.862054 0.271961
Si Si4 0.148373 0.424704 0.100249
Si Si5 0.353154 0.250000 0.961727
Si Si6 0.352698 0.639449 0.198841
O O1 0.795252 0.250000 0.632587
O O2 0.808138 0.105823 0.585521
O O3 0.806783 0.105905 0.679832
O O4 0.000000 0.147904 0.632969
O O5 0.149104 0.250000 0.538444
O O6 0.250000 0.389848 0.500000
O O7 0.000000 0.389331 0.528927
O O8 0.149535 0.750000 0.273347
O O9 0.246882 0.890141 0.234056
O O10 0.000000 0.889297 0.264124
O O11 0.250000 0.500000 0.086448
O O12 0.160676 0.337221 0.069508
O O13 0.173246 0.397217 0.150474
O O14 0.000000 0.457722 0.097653
O O15 0.500000 0.250000 0.979515
O O16 0.250000 0.250000 0.000000
O O17 0.500000 0.613705 0.211322
O O18 0.348728 0.750000 0.196545
#
# Coordination Sequence:
#
# PCOD9504003 Si02
#       6
#    16  16  16  16   8  16
#     4   7  10  17  27  39  60  90 125 170 227 284
#     4   8  12  17  24  33  48  77 118 165 219 277
#     4   8  13  21  35  56  79 106 145 193 239 289
#     4  10  21  38  59  83 113 148 184 222 267 318
#     4  10  22  42  64  86 116 152 186 224 271 318
#     4   9  16  29  48  68  95 131 164 199 251 309
#
# _framework density 18.985372999999999
#
# number of rings (size 3 to 8) (size 9 to 14) (size 15 to 20)
#    0.000    3.455    0.909    2.182    0.000    1.818 
#    0.000    2.727    0.000    5.455    0.000    0.000 
#    0.000    0.000    0.000    0.000    0.000    0.909 
#
# Total GULP energy -245161.986758 kJ/mol
# GULP energy per Si atom -5571.863335 kJ/mol
# Density = 1.894216 g / cm^3
# Si number density = 18.985373 Si / 1000 Ang^3
#
#
#
# Elastic Constant Matrix: (Units=GPa)
#
#
# Indices 1 2 3 4 5 6 
#
# 1 109.1865 40.0351 94.5469 0.0000 0.0000 0.0000
# 2 40.0351 53.6601 16.8743 0.0000 0.0000 0.0000
# 3 94.5469 16.8743 128.7807 0.0000 0.0000 0.0000
# 4 0.0000 0.0000 0.0000 -18.3703 0.0000 0.0000
# 5 0.0000 0.0000 0.0000 0.0000 37.8879 0.0000
# 6 0.0000 0.0000 0.0000 0.0000 0.0000 9.7470
#
#
#
# Elastic Compliance Matrix: (Units=1/GPa)
#
#
# Indices 1 2 3 4 5 6 
#
# 1 0.040133 -0.021566 -0.026639 0.000000 0.000000 0.000000
# 2 -0.021566 0.031025 0.011768 0.000000 0.000000 0.000000
# 3 -0.026639 0.011768 0.025781 0.000000 0.000000 0.000000
# 4 0.000000 0.000000 0.000000 -0.054436 0.000000 0.000000
# 5 0.000000 0.000000 0.000000 0.000000 0.026394 0.000000
# 6 0.000000 0.000000 0.000000 0.000000 0.000000 0.102596
#
#
# Mechanical properties :
#
#
# Convention : Reuss Voigt Hill
#
# Bulk Modulus (GPa) = 41.55378 66.06000 53.80689
# Shear Modulus (GPa) = 19.81074 15.19765 17.50420
#
# Velocity S-wave (km/s) = 3.23379 2.83237 3.03971
# Velocity P-wave (km/s) = 5.98982 6.75034 6.38142
#
# Compressibility (1/GPa) = 0.02406520
#
# Stress axis : x y z
#
# Youngs Moduli (GPa) = 24.91702 32.23184 38.78884
#
# Poissons Ratio (x) = 0.69511 1.03329
# Poissons Ratio (y) = 0.53736 -0.45646
# Poissons Ratio (z) = 0.66376 -0.37929
#
# Static dielectric constant tensor:
#      x y z
#    x 1.634810 0.000000 0.000000 
#    y 0.000000 1.821680 0.000000 
#    z 0.000000 0.000000 1.667580 
# 
# From -- ./inp_files/44052.got.cif
#   From: 2010.05.17/outbox.cif.g08.bks.cpg/sg67_23_cif.got.tgz:44052.got - 2010.06.03 18:28:57.
