data_PCOD9504016
_publ_section_title
;
Structure prediction by ZEFSAII (Michael W. Deem and Ramdas Pophale) SiO2 
 PCOD9504016
Probable space group: C M M A
;
_chemical_formula_sum "Si O2"
_cell_formula_units_Z 96
_cell_length_a 20.822599
_cell_length_b 15.567468
_cell_length_c 15.157347
_cell_angle_alpha 90.000000
_cell_angle_beta 90.000000
_cell_angle_gamma 90.000000
_cell_volume 4913.331994
_symmetry_space_group_name_H-M "C M M A"
_symmetry_group_IT_number 67
_symmetry_cell_setting 'orthorhombic'
loop_
_space_group_symop_operation_xyz
x,y,z
-x,1/2-y,z
x,-y,-z
-x,1/2+y,-z
-x,-y,-z
x,1/2+y,-z
-x,y,z
x,1/2-y,z
1/2+x,1/2+y,z
1/2-x,-y,z
1/2+x,1/2-y,-z
1/2-x,y,-z
1/2-x,1/2-y,-z
1/2+x,y,-z
1/2-x,1/2+y,z
1/2+x,-y,z
loop_
_atom_site_type_symbol
_atom_site_label
_atom_site_fract_x
_atom_site_fract_y
_atom_site_fract_z
Si Si1 0.426480 0.413571 0.957763
Si Si2 0.239975 0.750000 0.157362
Si Si3 0.075527 0.648132 0.594187
Si Si4 0.198776 0.576738 0.258482
Si Si5 0.817754 0.850690 0.450281
Si Si6 0.655590 0.750000 0.018740
Si Si7 0.073276 0.974300 0.761802
O O1 0.500000 0.405942 0.988037
O O2 0.386803 0.333685 0.987597
O O3 0.426118 0.421225 0.852368
O O4 0.399150 0.500000 0.000000
O O5 0.223679 0.663968 0.212128
O O6 0.310914 0.750000 0.115263
O O7 0.200265 0.750000 0.066624
O O8 0.086327 0.750000 0.614267
O O9 0.124011 0.624336 0.515342
O O10 0.087544 0.588288 0.679116
O O11 0.000000 0.638828 0.570097
O O12 0.250000 0.500000 0.244273
O O13 0.189035 0.595358 0.361925
O O14 0.128451 0.545288 0.228012
O O15 0.827862 0.750000 0.427180
O O16 0.750000 0.857179 0.500000
O O17 0.000000 0.007980 0.750617
#
# Coordination Sequence:
#
# PCOD9504016 Si02
#       7
#    16   8  16  16  16   8  16
#     4  10  21  39  63  94 128 158 199 252 309 372
#     4  11  26  44  61  90 123 156 213 256 304 379
#     4   9  19  36  59  89 126 162 203 256 307 361
#     4  12  24  42  64  89 123 165 204 255 311 367
#     4  10  21  38  59  85 119 158 204 253 302 361
#     4  11  23  40  66  90 118 163 204 252 308 371
#     4  10  22  38  60  93 126 162 206 253 305 366
#
# _framework density 19.538675000000001
#
# number of rings (size 3 to 8) (size 9 to 14) (size 15 to 20)
#    0.000    1.667    0.833    3.250    1.167    3.000 
#    1.500    4.583    0.000    0.000    0.000    0.000 
#    0.000    0.000    0.000    0.000    0.000    0.000 
#
# Total GULP energy -268075.900359 kJ/mol
# GULP energy per Si atom -5584.914591 kJ/mol
# Density = 1.949420 g / cm^3
# Si number density = 19.538675 Si / 1000 Ang^3
#
#
#
# Elastic Constant Matrix: (Units=GPa)
#
#
# Indices 1 2 3 4 5 6 
#
# 1 75.0020 62.2572 24.7399 0.0000 0.0000 0.0000
# 2 62.2572 124.6005 42.4770 0.0000 0.0000 0.0000
# 3 24.7399 42.4770 77.0361 0.0000 0.0000 0.0000
# 4 0.0000 0.0000 0.0000 31.9945 0.0000 0.0000
# 5 0.0000 0.0000 0.0000 0.0000 27.1694 0.0000
# 6 0.0000 0.0000 0.0000 0.0000 0.0000 30.4092
#
#
#
# Elastic Compliance Matrix: (Units=1/GPa)
#
#
# Indices 1 2 3 4 5 6 
#
# 1 0.022885 -0.010996 -0.001286 0.000000 0.000000 0.000000
# 2 -0.010996 0.015167 -0.004832 0.000000 0.000000 0.000000
# 3 -0.001286 -0.004832 0.016058 0.000000 0.000000 0.000000
# 4 0.000000 0.000000 0.000000 0.031255 0.000000 0.000000
# 5 0.000000 0.000000 0.000000 0.000000 0.036806 0.000000
# 6 0.000000 0.000000 0.000000 0.000000 0.000000 0.032885
#
#
# Mechanical properties :
#
#
# Convention : Reuss Voigt Hill
#
# Bulk Modulus (GPa) = 50.29652 59.50966 54.90309
# Shear Modulus (GPa) = 25.52179 27.72560 26.62369
#
# Velocity S-wave (km/s) = 3.61809 3.77106 3.69537
# Velocity P-wave (km/s) = 6.57662 7.03454 6.80943
#
# Compressibility (1/GPa) = 0.01988209
#
# Stress axis : x y z
#
# Youngs Moduli (GPa) = 43.69729 65.93282 62.27383
#
# Poissons Ratio (x) = 0.72499 0.08010
# Poissons Ratio (y) = 0.48049 0.30088
# Poissons Ratio (z) = 0.05621 0.31856
#
# Static dielectric constant tensor:
#      x y z
#    x 1.705360 0.000000 0.000000 
#    y 0.000000 1.669820 0.000000 
#    z 0.000000 0.000000 1.665330 
# 
# From -- ./inp_files/29334.got.cif
#   From: 2010.05.17/outbox.cif.g08.bks.cpg/sg67_15_cif.got.tgz:29334.got - 2010.06.03 18:28:57.
