data_PCOD9504219
_publ_section_title
;
Structure prediction by ZEFSAII (Michael W. Deem and Ramdas Pophale) SiO2 
 PCOD9504219
Probable space group: C M M A
;
_chemical_formula_sum "Si O2"
_cell_formula_units_Z 96
_cell_length_a 16.072156
_cell_length_b 15.116517
_cell_length_c 20.934776
_cell_angle_alpha 90.000000
_cell_angle_beta 90.000000
_cell_angle_gamma 90.000000
_cell_volume 5086.208909
_symmetry_space_group_name_H-M "C M M A"
_symmetry_group_IT_number 67
_symmetry_cell_setting 'orthorhombic'
loop_
_space_group_symop_operation_xyz
x,y,z
-x,1/2-y,z
x,-y,-z
-x,1/2+y,-z
-x,-y,-z
x,1/2+y,-z
-x,y,z
x,1/2-y,z
1/2+x,1/2+y,z
1/2-x,-y,z
1/2+x,1/2-y,-z
1/2-x,y,-z
1/2-x,1/2-y,-z
1/2+x,y,-z
1/2-x,1/2+y,z
1/2+x,-y,z
loop_
_atom_site_type_symbol
_atom_site_label
_atom_site_fract_x
_atom_site_fract_y
_atom_site_fract_z
Si Si1 0.598398 0.500000 0.101002
Si Si2 0.847507 0.000000 0.754636
Si Si3 0.349881 0.147101 1.000000
Si Si4 0.593521 0.851621 0.661490
Si Si5 0.750000 0.393768 0.427028
Si Si6 0.406479 0.648379 0.338510
O O1 0.500000 0.500000 0.110157
O O2 0.640791 0.500000 0.169826
O O3 0.622045 0.587421 0.060275
O O4 0.622045 0.412579 0.060275
O O5 0.888218 0.084450 0.720641
O O6 0.750000 0.000000 0.738671
O O7 0.888218 0.915550 0.720641
O O8 0.379035 0.250000 1.000000
O O9 0.250000 0.148958 0.000000
O O10 0.500000 0.870273 0.636410
O O11 0.596118 0.750000 0.682213
O O12 0.666700 0.865163 0.610115
O O13 0.750000 0.500000 0.427362
O O14 0.750000 0.361945 0.500000
O O15 0.833300 0.365163 0.389885
O O16 0.500000 0.629727 0.363590
O O17 0.403882 0.750000 0.317787
#
# Coordination Sequence:
#
# PCOD9504219 Si02
#       6
#    16  16  16  16  16  16
#     4  11  23  38  61  90 123 162 200 250 307 358
#     4  12  23  41  64  88 123 162 205 254 306 366
#     4  10  21  40  63  89 122 160 205 251 298 359
#     4  11  23  40  63  90 122 161 205 255 309 366
#     4  11  23  41  65  92 123 163 204 250 309 367
#     4  11  23  40  63  90 122 161 205 255 309 366
#
# _framework density 18.874569000000001
#
# number of rings (size 3 to 8) (size 9 to 14) (size 15 to 20)
#    0.000    1.000    3.333    5.000    0.000    4.667 
#    0.000    3.333    0.000    0.000    0.000    0.000 
#    0.000    0.000    0.000    0.000    0.000    0.000 
#
# Total GULP energy -268157.393550 kJ/mol
# GULP energy per Si atom -5586.612366 kJ/mol
# Density = 1.883161 g / cm^3
# Si number density = 18.874569 Si / 1000 Ang^3
#
#
#
# Elastic Constant Matrix: (Units=GPa)
#
#
# Indices 1 2 3 4 5 6 
#
# 1 140.9895 40.8739 36.7522 0.0000 0.0000 0.0000
# 2 40.8739 147.7408 53.6258 0.0000 0.0000 0.0000
# 3 36.7522 53.6258 132.7343 0.0000 0.0000 0.0000
# 4 0.0000 0.0000 0.0000 -68.0111 0.0000 0.0000
# 5 0.0000 0.0000 0.0000 0.0000 7.1634 0.0000
# 6 0.0000 0.0000 0.0000 0.0000 0.0000 31.7052
#
#
#
# Elastic Compliance Matrix: (Units=1/GPa)
#
#
# Indices 1 2 3 4 5 6 
#
# 1 0.007972 -0.001646 -0.001542 0.000000 0.000000 0.000000
# 2 -0.001646 0.008271 -0.002886 0.000000 0.000000 0.000000
# 3 -0.001542 -0.002886 0.009127 0.000000 0.000000 0.000000
# 4 0.000000 0.000000 0.000000 -0.014703 0.000000 0.000000
# 5 0.000000 0.000000 0.000000 0.000000 0.139598 0.000000
# 6 0.000000 0.000000 0.000000 0.000000 0.000000 0.031541
#
#
# Mechanical properties :
#
#
# Convention : Reuss Voigt Hill
#
# Bulk Modulus (GPa) = 75.63189 75.99650 75.81419
# Shear Modulus (GPa) = 25.20659 13.51903 19.36281
#
# Velocity S-wave (km/s) = 3.65838 2.67920 3.20639
# Velocity P-wave (km/s) = 7.61596 7.06556 7.34592
#
# Compressibility (1/GPa) = 0.01322194
#
# Stress axis : x y z
#
# Youngs Moduli (GPa) = 125.44088 120.89760 109.56580
#
# Poissons Ratio (x) = 0.19895 0.16900
# Poissons Ratio (y) = 0.20643 0.31622
# Poissons Ratio (z) = 0.19349 0.34892
#
# Static dielectric constant tensor:
#      x y z
#    x 1.668120 0.000000 0.000000 
#    y 0.000000 1.653490 0.000000 
#    z 0.000000 0.000000 1.666620 
# 
# From -- ./inp_files/38443.got.cif
#   From: 2010.05.17/outbox.cif.g08.bks.cpg/sg67_20_cif.got.tgz:38443.got - 2010.06.03 18:28:57.
