data_PCOD9504649
_publ_section_title
;
Structure prediction by ZEFSAII (Michael W. Deem and Ramdas Pophale) SiO2 
 PCOD9504649
Probable space group: C M M A
;
_chemical_formula_sum "Si O2"
_cell_formula_units_Z 92
_cell_length_a 8.923451
_cell_length_b 22.978950
_cell_length_c 22.722073
_cell_angle_alpha 90.000000
_cell_angle_beta 90.000000
_cell_angle_gamma 90.000000
_cell_volume 4659.195932
_symmetry_space_group_name_H-M "C M M A"
_symmetry_group_IT_number 67
_symmetry_cell_setting 'orthorhombic'
loop_
_space_group_symop_operation_xyz
x,y,z
-x,1/2-y,z
x,-y,-z
-x,1/2+y,-z
-x,-y,-z
x,1/2+y,-z
-x,y,z
x,1/2-y,z
1/2+x,1/2+y,z
1/2-x,-y,z
1/2+x,1/2-y,-z
1/2-x,y,-z
1/2-x,1/2-y,-z
1/2+x,y,-z
1/2-x,1/2+y,z
1/2+x,-y,z
loop_
_atom_site_type_symbol
_atom_site_label
_atom_site_fract_x
_atom_site_fract_y
_atom_site_fract_z
Si Si1 0.270507 0.640984 0.111040
Si Si2 0.179739 0.563667 0.441467
Si Si3 0.180782 0.750000 0.434833
Si Si4 0.500000 0.585733 0.950763
Si Si5 0.500000 0.750000 0.090721
Si Si6 0.000000 0.545628 0.913395
Si Si7 0.328555 0.319586 0.238967
Si Si8 0.821900 0.647661 0.643041
O O1 0.370481 0.697107 0.093696
O O2 0.361368 0.580169 0.114497
O O3 0.203398 0.654571 0.175087
O O4 0.141414 0.625565 0.064789
O O5 0.250000 0.500000 0.442368
O O6 0.250000 0.594059 0.500000
O O7 0.242714 0.590863 0.382079
O O8 0.000000 0.564134 0.445055
O O9 0.250000 0.750000 0.500000
O O10 0.242621 0.803636 0.396984
O O11 0.000000 0.750000 0.437475
O O12 0.500000 0.524488 0.913887
O O13 0.500000 0.565458 0.018063
O O14 0.500000 0.331907 0.256957
O O15 0.311105 0.250000 0.234960
O O16 0.217310 0.341700 0.289160
O O17 0.000000 0.647558 0.633780
#
# Coordination Sequence:
#
# PCOD9504649 Si02
#       8
#    16  16   8   8   4   8  16  16
#     4  11  22  41  68  98 137 180 226 277 341 407
#     4  11  22  41  66  92 128 169 216 269 333 399
#     4  12  24  41  62  94 136 170 216 277 331 392
#     4  11  22  45  71 101 134 184 225 284 341 413
#     4  10  24  38  62  98 136 174 224 274 328 396
#     4  10  24  42  71 103 137 172 231 282 343 409
#     4  11  23  41  67  92 129 174 221 266 333 408
#     4  12  25  40  64  96 125 171 220 272 332 397
#
# _framework density 19.745895999999998
#
# number of rings (size 3 to 8) (size 9 to 14) (size 15 to 20)
#    0.000    0.870    2.609    6.000    2.435    1.739 
#    0.000    8.696    0.000    0.000    0.000    0.000 
#    0.000    0.000    0.000    0.000    0.000    0.000 
#
# Total GULP energy -256349.496640 kJ/mol
# GULP energy per Si atom -5572.815144 kJ/mol
# Density = 1.970095 g / cm^3
# Si number density = 19.745896 Si / 1000 Ang^3
#
#
#
# Elastic Constant Matrix: (Units=GPa)
#
#
# Indices 1 2 3 4 5 6 
#
# 1 173.9755 38.4265 34.0305 0.0000 0.0000 0.0000
# 2 38.4265 101.3220 23.7330 0.0000 0.0000 0.0000
# 3 34.0305 23.7330 72.6283 0.0000 0.0000 0.0000
# 4 0.0000 0.0000 0.0000 -10.2487 0.0000 0.0000
# 5 0.0000 0.0000 0.0000 0.0000 26.9428 0.0000
# 6 0.0000 0.0000 0.0000 0.0000 0.0000 26.6421
#
#
#
# Elastic Compliance Matrix: (Units=1/GPa)
#
#
# Indices 1 2 3 4 5 6 
#
# 1 0.006664 -0.001945 -0.002487 0.000000 0.000000 0.000000
# 2 -0.001945 0.011255 -0.002767 0.000000 0.000000 0.000000
# 3 -0.002487 -0.002767 0.015838 0.000000 0.000000 0.000000
# 4 0.000000 0.000000 0.000000 -0.097574 0.000000 0.000000
# 5 0.000000 0.000000 0.000000 0.000000 0.037116 0.000000
# 6 0.000000 0.000000 0.000000 0.000000 0.000000 0.037535
#
#
# Mechanical properties :
#
#
# Convention : Reuss Voigt Hill
#
# Bulk Modulus (GPa) = 51.65172 60.03398 55.84285
# Shear Modulus (GPa) = 157.80941 25.44963 91.62952
#
# Velocity S-wave (km/s) = 8.94950 3.59396 6.81946
# Velocity P-wave (km/s) = 11.53284 6.90589 9.50520
#
# Compressibility (1/GPa) = 0.01936044
#
# Stress axis : x y z
#
# Youngs Moduli (GPa) = 150.06122 88.84844 63.13897
#
# Poissons Ratio (x) = 0.17279 0.15702
# Poissons Ratio (y) = 0.29184 0.17468
# Poissons Ratio (z) = 0.37319 0.24581
#
# Static dielectric constant tensor:
#      x y z
#    x 1.613400 0.000000 0.000000 
#    y 0.000000 1.691470 0.000000 
#    z 0.000000 0.000000 1.702770 
# 
# From -- ./inp_files/37038.got.cif
#   From: 2010.05.17/outbox.cif.g08.bks.cpg/sg67_19_cif.got.tgz:37038.got - 2010.06.03 18:28:57.
