data_PCOD9504089
_publ_section_title
;
Structure prediction by ZEFSAII (Michael W. Deem and Ramdas Pophale) SiO2 
 PCOD9504089
Probable space group: C M M A
;
_chemical_formula_sum "Si O2"
_cell_formula_units_Z 64
_cell_length_a 19.680413
_cell_length_b 17.655475
_cell_length_c 8.270795
_cell_angle_alpha 90.000000
_cell_angle_beta 90.000000
_cell_angle_gamma 90.000000
_cell_volume 2873.828655
_symmetry_space_group_name_H-M "C M M A"
_symmetry_group_IT_number 67
_symmetry_cell_setting 'orthorhombic'
loop_
_space_group_symop_operation_xyz
x,y,z
-x,1/2-y,z
x,-y,-z
-x,1/2+y,-z
-x,-y,-z
x,1/2+y,-z
-x,y,z
x,1/2-y,z
1/2+x,1/2+y,z
1/2-x,-y,z
1/2+x,1/2-y,-z
1/2-x,y,-z
1/2-x,1/2-y,-z
1/2+x,y,-z
1/2-x,1/2+y,z
1/2+x,-y,z
loop_
_atom_site_type_symbol
_atom_site_label
_atom_site_fract_x
_atom_site_fract_y
_atom_site_fract_z
Si Si1 0.420146 0.330861 0.025469
Si Si2 0.315076 0.337388 0.613309
Si Si3 0.347175 0.458860 0.836575
Si Si4 0.418235 0.592247 0.637834
O O1 0.500000 0.324459 0.008937
O O2 0.387435 0.250000 0.988174
O O3 0.407595 0.350876 0.211924
O O4 0.400372 0.398980 0.909670
O O5 0.328668 0.250000 0.661920
O O6 0.250000 0.335079 0.500000
O O7 0.296927 0.400987 0.747569
O O8 0.379392 0.371873 0.514765
O O9 0.381827 0.516514 0.709102
O O10 0.322982 0.500000 0.000000
O O11 0.500000 0.581493 0.613491
#
# Coordination Sequence:
#
# PCOD9504089 Si02
#       4
#    16  16  16  16
#     4   9  17  32  56  88 126 165 207 256 308 363
#     4  11  25  44  64  89 125 166 208 255 306 364
#     4  10  21  38  62  90 124 161 203 253 310 368
#     4  10  21  38  62  92 125 163 209 261 314 367
#
# _framework density 22.269943999999999
#
# number of rings (size 3 to 8) (size 9 to 14) (size 15 to 20)
#    0.000    2.000    0.000    3.000    0.000    9.500 
#    0.000    8.750    0.000   13.500    0.000    0.000 
#    0.000    0.000    0.000    0.000    0.000    0.000 
#
# Total GULP energy -178474.527352 kJ/mol
# GULP energy per Si atom -5577.328980 kJ/mol
# Density = 2.221926 g / cm^3
# Si number density = 22.269944 Si / 1000 Ang^3
#
#
#
# Elastic Constant Matrix: (Units=GPa)
#
#
# Indices 1 2 3 4 5 6 
#
# 1 48.6279 42.4824 21.9307 0.0000 0.0000 0.0000
# 2 42.4824 192.4657 63.6868 0.0000 0.0000 0.0000
# 3 21.9307 63.6868 82.0269 0.0000 0.0000 0.0000
# 4 0.0000 0.0000 0.0000 -26.4307 0.0000 0.0000
# 5 0.0000 0.0000 0.0000 0.0000 22.7631 0.0000
# 6 0.0000 0.0000 0.0000 0.0000 0.0000 -19.9507
#
#
#
# Elastic Compliance Matrix: (Units=1/GPa)
#
#
# Indices 1 2 3 4 5 6 
#
# 1 0.026155 -0.004655 -0.003378 0.000000 0.000000 0.000000
# 2 -0.004655 0.007821 -0.004827 0.000000 0.000000 0.000000
# 3 -0.003378 -0.004827 0.016842 0.000000 0.000000 0.000000
# 4 0.000000 0.000000 0.000000 -0.037835 0.000000 0.000000
# 5 0.000000 0.000000 0.000000 0.000000 0.043931 0.000000
# 6 0.000000 0.000000 0.000000 0.000000 0.000000 -0.050123
#
#
# Mechanical properties :
#
#
# Convention : Reuss Voigt Hill
#
# Bulk Modulus (GPa) = 39.84719 64.36893 52.10806
# Shear Modulus (GPa) = 122.31573 8.27770 65.29672
#
# Velocity S-wave (km/s) = 7.41912 1.93004 5.42072
# Velocity P-wave (km/s) = 9.55630 5.82524 7.91379
#
# Compressibility (1/GPa) = 0.02509587
#
# Stress axis : x y z
#
# Youngs Moduli (GPa) = 38.23385 127.86645 59.37369
#
# Poissons Ratio (x) = 0.59524 0.20059
# Poissons Ratio (y) = 0.17799 0.28662
# Poissons Ratio (z) = 0.12917 0.61727
#
# Static dielectric constant tensor:
#      x y z
#    x 1.782050 0.000000 0.000000 
#    y 0.000000 1.748960 0.000000 
#    z 0.000000 0.000000 1.940690 
# 
# From -- ./inp_files/9326.got.cif
#   From: 2010.05.17/outbox.cif.g08.bks.cpg/sg67_5_cif.got.tgz:9326.got - 2010.06.03 18:28:57.
