data_PCOD9504212
_publ_section_title
;
Structure prediction by ZEFSAII (Michael W. Deem and Ramdas Pophale) SiO2 
 PCOD9504212
Probable space group: C M M A
;
_chemical_formula_sum "Si O2"
_cell_formula_units_Z 96
_cell_length_a 23.759822
_cell_length_b 19.098582
_cell_length_c 10.787303
_cell_angle_alpha 90.000000
_cell_angle_beta 90.000000
_cell_angle_gamma 90.000000
_cell_volume 4895.050584
_symmetry_space_group_name_H-M "C M M A"
_symmetry_group_IT_number 67
_symmetry_cell_setting 'orthorhombic'
loop_
_space_group_symop_operation_xyz
x,y,z
-x,1/2-y,z
x,-y,-z
-x,1/2+y,-z
-x,-y,-z
x,1/2+y,-z
-x,y,z
x,1/2-y,z
1/2+x,1/2+y,z
1/2-x,-y,z
1/2+x,1/2-y,-z
1/2-x,y,-z
1/2-x,1/2-y,-z
1/2+x,y,-z
1/2-x,1/2+y,z
1/2+x,-y,z
loop_
_atom_site_type_symbol
_atom_site_label
_atom_site_fract_x
_atom_site_fract_y
_atom_site_fract_z
Si Si1 0.900934 0.935297 0.850263
Si Si2 0.176196 0.168420 0.767429
Si Si3 0.060788 0.829805 0.643052
Si Si4 0.434025 0.907533 0.866313
Si Si5 0.323742 0.669697 0.473232
Si Si6 0.276714 0.424305 0.749372
O O1 0.927743 0.881645 0.754409
O O2 0.833419 0.932865 0.830588
O O3 0.923148 0.012991 0.821067
O O4 0.920006 0.913288 0.987201
O O5 0.181629 0.250000 0.800555
O O6 0.114696 0.140438 0.806443
O O7 0.184413 0.161337 0.618796
O O8 0.228194 0.121605 0.815964
O O9 0.063448 0.750000 0.690245
O O10 0.109876 0.837727 0.545560
O O11 0.000000 0.841843 0.586691
O O12 0.500000 0.888221 0.847976
O O13 0.307849 0.750000 0.437400
O O14 0.296349 0.615279 0.377263
O O15 0.250000 0.500000 0.721883
#
# Coordination Sequence:
#
# PCOD9504212 Si02
#       6
#    16  16  16  16  16  16
#     4  10  21  40  62  86 118 153 201 257 305 358
#     4  11  24  41  59  90 127 163 204 246 300 369
#     4   9  17  32  57  87 115 150 198 248 297 349
#     4  11  23  41  63  86 118 165 205 246 304 359
#     4   9  20  37  59  86 123 163 197 244 306 359
#     4  11  21  39  63  91 121 156 204 255 305 362
#
# _framework density 19.611646
#
# number of rings (size 3 to 8) (size 9 to 14) (size 15 to 20)
#    0.000    1.833    1.667    3.000    0.000    5.667 
#    0.000    2.500    0.000    3.000    0.000    0.000 
#    0.000    0.000    0.000    0.000    0.000    0.000 
#
# Total GULP energy -267806.186610 kJ/mol
# GULP energy per Si atom -5579.295554 kJ/mol
# Density = 1.956701 g / cm^3
# Si number density = 19.611646 Si / 1000 Ang^3
#
#
#
# Elastic Constant Matrix: (Units=GPa)
#
#
# Indices 1 2 3 4 5 6 
#
# 1 188.6842 56.1488 14.5960 0.0000 0.0000 0.0000
# 2 56.1488 72.8441 4.9624 0.0000 0.0000 0.0000
# 3 14.5960 4.9624 8.6692 0.0000 0.0000 0.0000
# 4 0.0000 0.0000 0.0000 23.7903 0.0000 0.0000
# 5 0.0000 0.0000 0.0000 0.0000 6.4096 0.0000
# 6 0.0000 0.0000 0.0000 0.0000 0.0000 29.6860
#
#
#
# Elastic Compliance Matrix: (Units=1/GPa)
#
#
# Indices 1 2 3 4 5 6 
#
# 1 0.007606 -0.005193 -0.009833 0.000000 0.000000 0.000000
# 2 -0.005193 0.017830 -0.001464 0.000000 0.000000 0.000000
# 3 -0.009833 -0.001464 0.132745 0.000000 0.000000 0.000000
# 4 0.000000 0.000000 0.000000 0.042034 0.000000 0.000000
# 5 0.000000 0.000000 0.000000 0.000000 0.156015 0.000000
# 6 0.000000 0.000000 0.000000 0.000000 0.000000 0.033686
#
#
# Mechanical properties :
#
#
# Convention : Reuss Voigt Hill
#
# Bulk Modulus (GPa) = 7.98710 46.84577 27.41644
# Shear Modulus (GPa) = 10.76128 24.94320 17.85224
#
# Velocity S-wave (km/s) = 2.34502 3.57018 3.02037
# Velocity P-wave (km/s) = 3.37840 6.39793 5.11601
#
# Compressibility (1/GPa) = 0.12520184
#
# Stress axis : x y z
#
# Youngs Moduli (GPa) = 131.47901 56.08445 7.53325
#
# Poissons Ratio (x) = 0.29123 0.07408
# Poissons Ratio (y) = 0.68273 0.01103
# Poissons Ratio (z) = 1.29285 0.08209
#
# Static dielectric constant tensor:
#      x y z
#    x 1.728510 0.000000 0.000000 
#    y 0.000000 1.689570 0.000000 
#    z 0.000000 0.000000 1.664010 
# 
# From -- ./inp_files/21942.got.cif
#   From: 2010.05.17/outbox.cif.g08.bks.cpg/sg67_11_cif.got.tgz:21942.got - 2010.06.03 18:28:57.
