data_PCOD9504569
_publ_section_title
;
Structure prediction by ZEFSAII (Michael W. Deem and Ramdas Pophale) SiO2 
 PCOD9504569
Probable space group: C M M A
;
_chemical_formula_sum "Si O2"
_cell_formula_units_Z 52
_cell_length_a 14.613055
_cell_length_b 29.938967
_cell_length_c 5.186450
_cell_angle_alpha 90.000000
_cell_angle_beta 90.000000
_cell_angle_gamma 90.000000
_cell_volume 2269.070689
_symmetry_space_group_name_H-M "C M M A"
_symmetry_group_IT_number 67
_symmetry_cell_setting 'orthorhombic'
loop_
_space_group_symop_operation_xyz
x,y,z
-x,1/2-y,z
x,-y,-z
-x,1/2+y,-z
-x,-y,-z
x,1/2+y,-z
-x,y,z
x,1/2-y,z
1/2+x,1/2+y,z
1/2-x,-y,z
1/2+x,1/2-y,-z
1/2-x,y,-z
1/2-x,1/2-y,-z
1/2+x,y,-z
1/2-x,1/2+y,z
1/2+x,-y,z
loop_
_atom_site_type_symbol
_atom_site_label
_atom_site_fract_x
_atom_site_fract_y
_atom_site_fract_z
Si Si1 0.648532 0.327086 0.082442
Si Si2 0.106289 0.617891 0.579539
Si Si3 0.500000 0.250000 0.187122
Si Si4 0.147578 0.020394 0.253668
O O1 0.652457 0.362993 0.318482
O O2 0.580313 0.288879 0.177841
O O3 0.750000 0.311770 0.000000
O O4 0.609939 0.347373 0.815852
O O5 0.149157 0.573041 0.700770
O O6 0.000000 0.609194 0.514486
O O7 0.100214 0.000000 0.500000
O O8 0.250000 0.000000 0.250986
O O9 0.104111 0.000000 0.000000
#
# Coordination Sequence:
#
# PCOD9504569 Si02
#       4
#    16  16   4  16
#     4  12  28  47  82 112 151 206 251 325 394 474
#     4  12  25  48  73 114 156 201 258 322 393 451
#     4  12  26  58  76 120 152 190 274 322 396 460
#     4  10  23  39  66 104 147 200 247 315 355 446
#
# _framework density 22.916868999999998
#
# number of rings (size 3 to 8) (size 9 to 14) (size 15 to 20)
#    0.000    0.615    3.077    3.231   12.923    3.692 
#    0.000    3.077    0.000    0.000    0.000    0.000 
#    0.000    0.000    0.000    0.000    0.000    0.000 
#
# Total GULP energy -144745.335090 kJ/mol
# GULP energy per Si atom -5567.128273 kJ/mol
# Density = 2.286471 g / cm^3
# Si number density = 22.916869 Si / 1000 Ang^3
#
#
#
# Elastic Constant Matrix: (Units=GPa)
#
#
# Indices 1 2 3 4 5 6 
#
# 1 166.6869 50.7016 12.1988 0.0000 0.0000 0.0000
# 2 50.7016 113.5622 22.2743 0.0000 0.0000 0.0000
# 3 12.1988 22.2743 177.2807 0.0000 0.0000 0.0000
# 4 0.0000 0.0000 0.0000 -99.7687 0.0000 0.0000
# 5 0.0000 0.0000 0.0000 0.0000 12.5110 0.0000
# 6 0.0000 0.0000 0.0000 0.0000 0.0000 49.4037
#
#
#
# Elastic Compliance Matrix: (Units=1/GPa)
#
#
# Indices 1 2 3 4 5 6 
#
# 1 0.006943 -0.003082 -0.000091 0.000000 0.000000 0.000000
# 2 -0.003082 0.010396 -0.001094 0.000000 0.000000 0.000000
# 3 -0.000091 -0.001094 0.005784 0.000000 0.000000 0.000000
# 4 0.000000 0.000000 0.000000 -0.010023 0.000000 0.000000
# 5 0.000000 0.000000 0.000000 0.000000 0.079930 0.000000
# 6 0.000000 0.000000 0.000000 0.000000 0.000000 0.020241
#
#
# Mechanical properties :
#
#
# Convention : Reuss Voigt Hill
#
# Bulk Modulus (GPa) = 68.53763 69.76435 69.15099
# Shear Modulus (GPa) = 39.47273 17.25288 28.36280
#
# Velocity S-wave (km/s) = 4.15472 2.74678 3.52183
# Velocity P-wave (km/s) = 7.27926 6.36932 6.83944
#
# Compressibility (1/GPa) = 0.01459053
#
# Stress axis : x y z
#
# Youngs Moduli (GPa) = 144.02100 96.18641 172.87653
#
# Poissons Ratio (x) = 0.29647 0.01565
# Poissons Ratio (y) = 0.44391 0.18916
# Poissons Ratio (z) = 0.01304 0.10524
#
# Static dielectric constant tensor:
#      x y z
#    x 1.854810 0.000000 0.000000 
#    y 0.000000 1.882160 0.000000 
#    z 0.000000 0.000000 1.851770 
# 
# From -- ./inp_files/1387.got.cif
#   From: 2010.05.17/outbox.cif.g08.bks.cpg/sg67_1_cif.got.tgz:1387.got - 2010.06.03 18:28:57.
