data_PCOD9504703
_publ_section_title
;
Structure prediction by ZEFSAII (Michael W. Deem and Ramdas Pophale) SiO2 
 PCOD9504703
Probable space group: C M M A
;
_chemical_formula_sum "Si O2"
_cell_formula_units_Z 60
_cell_length_a 14.413626
_cell_length_b 15.686702
_cell_length_c 12.354259
_cell_angle_alpha 90.000000
_cell_angle_beta 90.000000
_cell_angle_gamma 90.000000
_cell_volume 2793.325829
_symmetry_space_group_name_H-M "C M M A"
_symmetry_group_IT_number 67
_symmetry_cell_setting 'orthorhombic'
loop_
_space_group_symop_operation_xyz
x,y,z
-x,1/2-y,z
x,-y,-z
-x,1/2+y,-z
-x,-y,-z
x,1/2+y,-z
-x,y,z
x,1/2-y,z
1/2+x,1/2+y,z
1/2-x,-y,z
1/2+x,1/2-y,-z
1/2-x,y,-z
1/2-x,1/2-y,-z
1/2+x,y,-z
1/2-x,1/2+y,z
1/2+x,-y,z
loop_
_atom_site_type_symbol
_atom_site_label
_atom_site_fract_x
_atom_site_fract_y
_atom_site_fract_z
Si Si1 0.695692 0.750000 0.764776
Si Si2 0.150501 0.578339 0.559718
Si Si3 0.399706 0.250000 0.458890
Si Si4 0.000000 0.848991 0.907706
Si Si5 0.500000 0.250000 0.116842
Si Si6 0.811986 0.420223 0.190114
O O1 0.678420 0.750000 0.634807
O O2 0.594638 0.750000 0.817697
O O3 0.750578 0.665780 0.801659
O O4 0.102385 0.500000 0.500000
O O5 0.250000 0.584895 0.500000
O O6 0.105910 0.668116 0.534438
O O7 0.160216 0.559799 0.685677
O O8 0.500000 0.250000 0.403298
O O9 0.093369 0.897464 0.872462
O O10 0.000000 0.750000 0.861982
O O11 0.000000 0.831074 0.035847
O O12 0.750000 0.500000 0.149649
#
# Coordination Sequence:
#
# PCOD9504703 Si02
#       6
#     8  16   8   8   4  16
#     4  12  22  44  71  95 143 183 232 297 358 409
#     4  11  21  40  60  94 143 181 221 269 327 407
#     4  12  24  34  60 100 134 188 233 270 334 416
#     4  10  26  49  72  99 136 184 235 292 359 416
#     4  10  26  50  74 100 134 178 232 308 366 402
#     4  12  24  43  73 105 140 190 231 281 348 422
#
# _framework density 21.479771
#
# number of rings (size 3 to 8) (size 9 to 14) (size 15 to 20)
#    0.400    0.267    7.333    1.200    1.867    3.733 
#    4.800    4.000    0.000    0.000    0.000    0.000 
#    0.000    0.000    0.000    0.000    0.000    0.000 
#
# Total GULP energy -167640.960442 kJ/mol
# GULP energy per Si atom -5588.032015 kJ/mol
# Density = 2.143088 g / cm^3
# Si number density = 21.479771 Si / 1000 Ang^3
#
#
#
# Elastic Constant Matrix: (Units=GPa)
#
#
# Indices 1 2 3 4 5 6 
#
# 1 128.5150 49.7414 17.3726 0.0000 0.0000 0.0000
# 2 49.7414 170.5942 5.7889 0.0000 0.0000 0.0000
# 3 17.3726 5.7889 63.0766 0.0000 0.0000 0.0000
# 4 0.0000 0.0000 0.0000 22.8586 0.0000 0.0000
# 5 0.0000 0.0000 0.0000 0.0000 39.8180 0.0000
# 6 0.0000 0.0000 0.0000 0.0000 0.0000 86.4771
#
#
#
# Elastic Compliance Matrix: (Units=1/GPa)
#
#
# Indices 1 2 3 4 5 6 
#
# 1 0.009083 -0.002571 -0.002266 0.000000 0.000000 0.000000
# 2 -0.002571 0.006608 0.000102 0.000000 0.000000 0.000000
# 3 -0.002266 0.000102 0.016468 0.000000 0.000000 0.000000
# 4 0.000000 0.000000 0.000000 0.043747 0.000000 0.000000
# 5 0.000000 0.000000 0.000000 0.000000 0.025114 0.000000
# 6 0.000000 0.000000 0.000000 0.000000 0.000000 0.011564
#
#
# Mechanical properties :
#
#
# Convention : Reuss Voigt Hill
#
# Bulk Modulus (GPa) = 44.07465 56.44353 50.25909
# Shear Modulus (GPa) = 38.57489 49.11625 43.84557
#
# Velocity S-wave (km/s) = 4.24237 4.78706 4.52292
# Velocity P-wave (km/s) = 6.67537 7.54249 7.12214
#
# Compressibility (1/GPa) = 0.02268878
#
# Stress axis : x y z
#
# Youngs Moduli (GPa) = 110.09913 151.32753 60.72235
#
# Poissons Ratio (x) = 0.38913 0.13757
# Poissons Ratio (y) = 0.28311 -0.00618
# Poissons Ratio (z) = 0.24944 -0.01540
#
# Static dielectric constant tensor:
#      x y z
#    x 1.783010 0.000000 0.000000 
#    y 0.000000 1.817620 0.000000 
#    z 0.000000 0.000000 1.749430 
# 
# From -- ./inp_files/26747.got.cif
#   From: 2010.05.17/outbox.cif.g08.bks.cpg/sg67_14_cif.got.tgz:26747.got - 2010.06.03 18:28:57.
