data_PCOD9504318
_publ_section_title
;
Structure prediction by ZEFSAII (Michael W. Deem and Ramdas Pophale) SiO2 
 PCOD9504318
Probable space group: C M M A
;
_chemical_formula_sum "Si O2"
_cell_formula_units_Z 64
_cell_length_a 8.299848
_cell_length_b 39.388108
_cell_length_c 9.338741
_cell_angle_alpha 90.000000
_cell_angle_beta 90.000000
_cell_angle_gamma 90.000000
_cell_volume 3052.977403
_symmetry_space_group_name_H-M "C M M A"
_symmetry_group_IT_number 67
_symmetry_cell_setting 'orthorhombic'
loop_
_space_group_symop_operation_xyz
x,y,z
-x,1/2-y,z
x,-y,-z
-x,1/2+y,-z
-x,-y,-z
x,1/2+y,-z
-x,y,z
x,1/2-y,z
1/2+x,1/2+y,z
1/2-x,-y,z
1/2+x,1/2-y,-z
1/2-x,y,-z
1/2-x,1/2-y,-z
1/2+x,y,-z
1/2-x,1/2+y,z
1/2+x,-y,z
loop_
_atom_site_type_symbol
_atom_site_label
_atom_site_fract_x
_atom_site_fract_y
_atom_site_fract_z
Si Si1 0.821487 0.175705 0.281857
Si Si2 0.000000 0.709513 0.962844
Si Si3 0.692219 0.963267 0.836633
Si Si4 0.805558 0.103291 0.664193
Si Si5 0.500000 0.709752 0.697240
O O1 0.775539 0.136398 0.266681
O O2 0.667798 0.193457 0.353446
O O3 0.000000 0.178387 0.352330
O O4 0.853699 0.193823 0.129484
O O5 0.000000 0.750000 0.944990
O O6 0.000000 0.702500 0.130703
O O7 0.500000 0.963627 0.837113
O O8 0.745645 0.931271 0.742850
O O9 0.750000 0.000000 0.782776
O O10 0.750000 0.959503 0.000000
O O11 0.750000 0.102551 0.500000
O O12 0.000000 0.106467 0.671989
O O13 0.500000 0.750000 0.673185
#
# Coordination Sequence:
#
# PCOD9504318 Si02
#       5
#    16   8  16  16   8
#     4  10  22  36  57  88 123 165 209 263 319 373
#     4   9  20  36  57  89 126 165 210 261 321 384
#     4  10  22  40  65  97 134 167 208 260 318 382
#     4  11  24  44  65  91 126 170 220 268 316 380
#     4  11  20  36  59  89 130 167 212 267 319 390
#
# _framework density 20.963144
#
# number of rings (size 3 to 8) (size 9 to 14) (size 15 to 20)
#    0.750    1.000    1.250    3.750    0.000    8.500 
#    0.000    2.500    0.000    4.500    0.000    0.000 
#    0.000    0.000    0.000    0.000    0.000    0.000 
#
# Total GULP energy -178667.702738 kJ/mol
# GULP energy per Si atom -5583.365711 kJ/mol
# Density = 2.091543 g / cm^3
# Si number density = 20.963144 Si / 1000 Ang^3
#
#
#
# Elastic Constant Matrix: (Units=GPa)
#
#
# Indices 1 2 3 4 5 6 
#
# 1 149.8632 68.9536 23.9986 0.0000 0.0000 0.0000
# 2 68.9536 153.8891 58.5659 0.0000 0.0000 0.0000
# 3 23.9986 58.5659 75.5450 0.0000 0.0000 0.0000
# 4 0.0000 0.0000 0.0000 -148.5564 0.0000 0.0000
# 5 0.0000 0.0000 0.0000 0.0000 -155.9201 0.0000
# 6 0.0000 0.0000 0.0000 0.0000 0.0000 62.2106
#
#
#
# Elastic Compliance Matrix: (Units=1/GPa)
#
#
# Indices 1 2 3 4 5 6 
#
# 1 0.008412 -0.003904 0.000354 0.000000 0.000000 0.000000
# 2 -0.003904 0.011030 -0.007310 0.000000 0.000000 0.000000
# 3 0.000354 -0.007310 0.018792 0.000000 0.000000 0.000000
# 4 0.000000 0.000000 0.000000 -0.006731 0.000000 0.000000
# 5 0.000000 0.000000 0.000000 0.000000 -0.006414 0.000000
# 6 0.000000 0.000000 0.000000 0.000000 0.000000 0.016074
#
#
# Mechanical properties :
#
#
# Convention : Reuss Voigt Hill
#
# Bulk Modulus (GPa) = 60.55693 75.81484 68.18589
# Shear Modulus (GPa) = 73.11146 -33.26790 19.92178
#
# Velocity S-wave (km/s) = 5.91201 -3.98800 3.08608
# Velocity P-wave (km/s) = 8.69210 3.87798 6.73021
#
# Compressibility (1/GPa) = 0.01651339
#
# Stress axis : x y z
#
# Youngs Moduli (GPa) = 118.87241 90.66403 53.21414
#
# Poissons Ratio (x) = 0.35397 -0.01886
# Poissons Ratio (y) = 0.46410 0.38902
# Poissons Ratio (z) = -0.04212 0.66280
#
# Static dielectric constant tensor:
#      x y z
#    x 1.793510 0.000000 0.000000 
#    y 0.000000 1.720510 0.000000 
#    z 0.000000 0.000000 1.750530 
# 
# From -- ./inp_files/15834.got.cif
#   From: 2010.05.17/outbox.cif.g08.bks.cpg/sg67_8_cif.got.tgz:15834.got - 2010.06.03 18:28:57.
