data_PCOD9504193
_publ_section_title
;
Structure prediction by ZEFSAII (Michael W. Deem and Ramdas Pophale) SiO2 
 PCOD9504193
Probable space group: C M M A
;
_chemical_formula_sum "Si O2"
_cell_formula_units_Z 112
_cell_length_a 14.611875
_cell_length_b 29.061600
_cell_length_c 11.823724
_cell_angle_alpha 90.000000
_cell_angle_beta 90.000000
_cell_angle_gamma 90.000000
_cell_volume 5020.878970
_symmetry_space_group_name_H-M "C M M A"
_symmetry_group_IT_number 67
_symmetry_cell_setting 'orthorhombic'
loop_
_space_group_symop_operation_xyz
x,y,z
-x,1/2-y,z
x,-y,-z
-x,1/2+y,-z
-x,-y,-z
x,1/2+y,-z
-x,y,z
x,1/2-y,z
1/2+x,1/2+y,z
1/2-x,-y,z
1/2+x,1/2-y,-z
1/2-x,y,-z
1/2-x,1/2-y,-z
1/2+x,y,-z
1/2-x,1/2+y,z
1/2+x,-y,z
loop_
_atom_site_type_symbol
_atom_site_label
_atom_site_fract_x
_atom_site_fract_y
_atom_site_fract_z
Si Si1 0.097832 0.403091 0.683285
Si Si2 0.148160 0.642133 0.952928
Si Si3 0.900920 0.682767 0.174656
Si Si4 0.699303 0.697196 0.267761
Si Si5 0.713580 0.953785 0.324928
Si Si6 0.606608 0.129913 0.566024
Si Si7 0.105063 0.037271 0.093680
O O1 0.094019 0.370282 0.789953
O O2 0.190898 0.429181 0.697769
O O3 0.106291 0.372329 0.569782
O O4 0.000000 0.428694 0.673201
O O5 0.154359 0.665840 0.830605
O O6 0.107563 0.590805 0.945982
O O7 0.250000 0.635015 0.000000
O O8 0.107326 0.679731 0.039609
O O9 0.807785 0.699023 0.235190
O O10 0.000000 0.702282 0.208360
O O11 0.667083 0.750000 0.269894
O O12 0.669519 0.669863 0.380625
O O13 0.649166 0.918938 0.393955
O O14 0.663860 0.965101 0.207465
O O15 0.750000 0.000000 0.381711
O O16 0.500000 0.134413 0.602684
O O17 0.000000 0.025489 0.120304
O O18 0.135969 0.000000 0.000000
#
# Coordination Sequence:
#
# PCOD9504193 Si02
#       7
#    16  16  16  16  16  16  16
#     4  10  23  44  70  99 134 181 232 285 351 423
#     4  10  21  39  66  95 134 179 230 286 347 413
#     4  10  21  39  65  96 133 179 225 281 346 415
#     4  11  24  43  71 104 138 183 238 296 357 426
#     4  12  25  41  69 100 136 179 231 283 353 423
#     4  11  24  46  72  98 137 180 231 298 357 414
#     4  11  25  40  63 100 140 182 230 285 348 415
#
# _framework density 22.306851999999999
#
# number of rings (size 3 to 8) (size 9 to 14) (size 15 to 20)
#    0.000    1.286    2.857    2.143    4.000    6.000 
#    0.000    2.857    0.000    3.000    0.000    0.000 
#    0.000    0.000    0.000    0.000    0.000    0.000 
#
# Total GULP energy -312621.333616 kJ/mol
# GULP energy per Si atom -5582.523815 kJ/mol
# Density = 2.225608 g / cm^3
# Si number density = 22.306852 Si / 1000 Ang^3
#
#
#
# Elastic Constant Matrix: (Units=GPa)
#
#
# Indices 1 2 3 4 5 6 
#
# 1 133.1993 20.0916 27.6643 0.0000 0.0000 0.0000
# 2 20.0916 96.7871 4.5193 0.0000 0.0000 0.0000
# 3 27.6643 4.5193 78.3567 0.0000 0.0000 0.0000
# 4 0.0000 0.0000 0.0000 -14.9232 0.0000 0.0000
# 5 0.0000 0.0000 0.0000 0.0000 33.6776 0.0000
# 6 0.0000 0.0000 0.0000 0.0000 0.0000 -5.0679
#
#
#
# Elastic Compliance Matrix: (Units=1/GPa)
#
#
# Indices 1 2 3 4 5 6 
#
# 1 0.008341 -0.001598 -0.002853 0.000000 0.000000 0.000000
# 2 -0.001598 0.010666 -0.000051 0.000000 0.000000 0.000000
# 3 -0.002853 -0.000051 0.013772 0.000000 0.000000 0.000000
# 4 0.000000 0.000000 0.000000 -0.067010 0.000000 0.000000
# 5 0.000000 0.000000 0.000000 0.000000 0.029693 0.000000
# 6 0.000000 0.000000 0.000000 0.000000 0.000000 -0.197320
#
#
# Mechanical properties :
#
#
# Convention : Reuss Voigt Hill
#
# Bulk Modulus (GPa) = 42.05971 45.87704 43.96837
# Shear Modulus (GPa) = -27.03759 19.80850 -3.61455
#
# Velocity S-wave (km/s) = -3.48526 2.98317 -1.27432
# Velocity P-wave (km/s) = 1.64314 5.69883 4.19384
#
# Compressibility (1/GPa) = 0.02377572
#
# Stress axis : x y z
#
# Youngs Moduli (GPa) = 119.88820 93.75491 72.60977
#
# Poissons Ratio (x) = 0.14985 0.20713
# Poissons Ratio (y) = 0.19162 0.00370
# Poissons Ratio (z) = 0.34200 0.00477
#
# Static dielectric constant tensor:
#      x y z
#    x 1.771960 0.000000 0.000000 
#    y 0.000000 1.812280 0.000000 
#    z 0.000000 0.000000 1.806910 
# 
# From -- ./inp_files/18624.got.cif
#   From: 2010.05.17/outbox.cif.g08.bks.cpg/sg67_10_cif.got.tgz:18624.got - 2010.06.03 18:28:57.
