data_PCOD9504000
_publ_section_title
;
Structure prediction by ZEFSAII (Michael W. Deem and Ramdas Pophale) SiO2 
 PCOD9504000
Probable space group: C M M A
;
_chemical_formula_sum "Si O2"
_cell_formula_units_Z 112
_cell_length_a 13.722967
_cell_length_b 13.318983
_cell_length_c 27.925720
_cell_angle_alpha 90.000000
_cell_angle_beta 90.000000
_cell_angle_gamma 90.000000
_cell_volume 5104.150398
_symmetry_space_group_name_H-M "C M M A"
_symmetry_group_IT_number 67
_symmetry_cell_setting 'orthorhombic'
loop_
_space_group_symop_operation_xyz
x,y,z
-x,1/2-y,z
x,-y,-z
-x,1/2+y,-z
-x,-y,-z
x,1/2+y,-z
-x,y,z
x,1/2-y,z
1/2+x,1/2+y,z
1/2-x,-y,z
1/2+x,1/2-y,-z
1/2-x,y,-z
1/2-x,1/2-y,-z
1/2+x,y,-z
1/2-x,1/2+y,z
1/2+x,-y,z
loop_
_atom_site_type_symbol
_atom_site_label
_atom_site_fract_x
_atom_site_fract_y
_atom_site_fract_z
Si Si1 0.307180 0.365917 0.721928
Si Si2 0.692956 0.127377 0.926313
Si Si3 0.893515 0.627895 0.027978
Si Si4 0.618825 0.357090 0.530616
Si Si5 0.610915 0.871826 0.175038
Si Si6 0.385105 0.065129 0.320273
Si Si7 0.381511 0.566733 0.571828
O O1 0.336436 0.250000 0.713975
O O2 0.332546 0.395666 0.776385
O O3 0.362374 0.446677 0.688360
O O4 0.191950 0.378674 0.713197
O O5 0.690702 0.250000 0.925198
O O6 0.803238 0.097754 0.939116
O O7 0.656438 0.092806 0.874830
O O8 0.628730 0.099857 0.972808
O O9 0.893280 0.750000 0.028445
O O10 0.000000 0.594365 0.043391
O O11 0.500000 0.359011 0.530773
O O12 0.650546 0.250000 0.549677
O O13 0.648136 0.370838 0.474977
O O14 0.650195 0.452774 0.560738
O O15 0.500000 0.907770 0.179289
O O16 0.608607 0.750000 0.172764
O O17 0.500000 0.083981 0.312636
O O18 0.356501 0.095675 0.374494
O O19 0.500000 0.567767 0.571156
#
# Coordination Sequence:
#
# PCOD9504000 Si02
#       7
#    16  16  16  16  16  16  16
#     4  10  22  38  56  81 110 141 186 240 287 336
#     4   8  13  20  33  56  86 125 174 220 266 328
#     4   8  12  18  29  50  86 129 168 210 265 329
#     4   8  13  23  42  72 108 140 175 221 265 314
#     4   9  16  28  47  69  95 130 175 229 283 331
#     4  10  21  38  59  82 112 149 186 231 288 344
#     4   8  15  27  45  73 106 140 179 220 268 327
#
# _framework density 21.942927000000001
#
# number of rings (size 3 to 8) (size 9 to 14) (size 15 to 20)
#    0.000    3.286    0.000    2.571    0.000    4.000 
#    0.000    3.571    0.000    9.429    0.000    8.000 
#    0.000    9.143    0.000   34.286    0.000   76.286 
#
# Total GULP energy -312838.025926 kJ/mol
# GULP energy per Si atom -5586.393320 kJ/mol
# Density = 2.189298 g / cm^3
# Si number density = 21.942927 Si / 1000 Ang^3
#
#
#
# Elastic Constant Matrix: (Units=GPa)
#
#
# Indices 1 2 3 4 5 6 
#
# 1 138.1243 -1.0985 63.3231 0.0000 0.0000 0.0000
# 2 -1.0985 51.2110 -5.9101 0.0000 0.0000 0.0000
# 3 63.3231 -5.9101 118.5569 0.0000 0.0000 0.0000
# 4 0.0000 0.0000 0.0000 7.2478 0.0000 0.0000
# 5 0.0000 0.0000 0.0000 0.0000 26.6120 0.0000
# 6 0.0000 0.0000 0.0000 0.0000 0.0000 25.3836
#
#
#
# Elastic Compliance Matrix: (Units=1/GPa)
#
#
# Indices 1 2 3 4 5 6 
#
# 1 0.009595 -0.000388 -0.005144 0.000000 0.000000 0.000000
# 2 -0.000388 0.019656 0.001187 0.000000 0.000000 0.000000
# 3 -0.005144 0.001187 0.011242 0.000000 0.000000 0.000000
# 4 0.000000 0.000000 0.000000 0.137973 0.000000 0.000000
# 5 0.000000 0.000000 0.000000 0.000000 0.037577 0.000000
# 6 0.000000 0.000000 0.000000 0.000000 0.000000 0.039396
#
#
# Mechanical properties :
#
#
# Convention : Reuss Voigt Hill
#
# Bulk Modulus (GPa) = 31.44438 46.72461 39.08449
# Shear Modulus (GPa) = 18.19974 28.62053 23.41013
#
# Velocity S-wave (km/s) = 2.88308 3.61545 3.26983
# Velocity P-wave (km/s) = 5.04421 6.22644 5.66624
#
# Compressibility (1/GPa) = 0.03180219
#
# Stress axis : x y z
#
# Youngs Moduli (GPa) = 104.21923 50.87580 88.95557
#
# Poissons Ratio (x) = 0.01973 0.45761
# Poissons Ratio (y) = 0.04042 -0.10559
# Poissons Ratio (z) = 0.53613 -0.06039
#
# Static dielectric constant tensor:
#      x y z
#    x 1.824680 0.000000 0.000000 
#    y 0.000000 1.873510 0.000000 
#    z 0.000000 0.000000 1.746550 
# 
# From -- ./inp_files/44371.got.cif
#   From: 2010.05.17/outbox.cif.g08.bks.cpg/sg67_23_cif.got.tgz:44371.got - 2010.06.03 18:28:57.
