data_PCOD9504387
_publ_section_title
;
Structure prediction by ZEFSAII (Michael W. Deem and Ramdas Pophale) SiO2 
 PCOD9504387
Probable space group: C M M A
;
_chemical_formula_sum "Si O2"
_cell_formula_units_Z 96
_cell_length_a 17.936822
_cell_length_b 14.866010
_cell_length_c 17.654071
_cell_angle_alpha 90.000000
_cell_angle_beta 90.000000
_cell_angle_gamma 90.000000
_cell_volume 4707.439941
_symmetry_space_group_name_H-M "C M M A"
_symmetry_group_IT_number 67
_symmetry_cell_setting 'orthorhombic'
loop_
_space_group_symop_operation_xyz
x,y,z
-x,1/2-y,z
x,-y,-z
-x,1/2+y,-z
-x,-y,-z
x,1/2+y,-z
-x,y,z
x,1/2-y,z
1/2+x,1/2+y,z
1/2-x,-y,z
1/2+x,1/2-y,-z
1/2-x,y,-z
1/2-x,1/2-y,-z
1/2+x,y,-z
1/2-x,1/2+y,z
1/2+x,-y,z
loop_
_atom_site_type_symbol
_atom_site_label
_atom_site_fract_x
_atom_site_fract_y
_atom_site_fract_z
Si Si1 0.875559 0.350991 0.187307
Si Si2 0.581330 0.860056 0.520451
Si Si3 0.696695 0.641421 0.644766
Si Si4 0.086009 0.478438 0.912556
Si Si5 0.867186 0.859423 0.642064
Si Si6 0.209893 0.403975 0.810713
O O1 0.904827 0.250000 0.175187
O O2 0.905316 0.427008 0.131775
O O3 0.893506 0.382107 0.273531
O O4 0.784818 0.345190 0.179874
O O5 0.500000 0.886131 0.548438
O O6 0.584856 0.750000 0.519587
O O7 0.644493 0.892111 0.577705
O O8 0.591504 0.889253 0.433570
O O9 0.697863 0.750000 0.640272
O O10 0.781576 0.610306 0.635433
O O11 0.672996 0.616782 0.729752
O O12 0.146969 0.411520 0.875103
O O13 0.000000 0.447211 0.906450
O O14 0.102830 0.500000 0.000000
O O15 0.867864 0.750000 0.641558
O O16 0.250000 0.500000 0.806245
#
# Coordination Sequence:
#
# PCOD9504387 Si02
#       6
#    16  16  16  16  16  16
#     4   9  18  34  59  85 103 127 173 228 265 292
#     4   9  16  24  38  66 101 133 166 204 247 295
#     4   9  16  28  47  70  97 130 169 210 250 296
#     4  10  22  39  56  76 107 143 170 198 254 328
#     4   8  14  26  45  70  97 124 160 211 263 297
#     4   9  18  33  54  77 101 132 170 213 261 312
#
# _framework density 20.393249999999998
#
# number of rings (size 3 to 8) (size 9 to 14) (size 15 to 20)
#    0.000    3.000    0.000    2.000    0.000    6.667 
#    0.000    4.167    0.000   20.500    0.000   11.667 
#    0.000    0.000    0.000    0.000    0.000    0.000 
#
# Total GULP energy -267628.789972 kJ/mol
# GULP energy per Si atom -5575.599791 kJ/mol
# Density = 2.034683 g / cm^3
# Si number density = 20.393250 Si / 1000 Ang^3
#
#
#
# Elastic Constant Matrix: (Units=GPa)
#
#
# Indices 1 2 3 4 5 6 
#
# 1 50.5038 -4.9146 40.0786 0.0000 0.0000 0.0000
# 2 -4.9146 28.2370 -11.2636 0.0000 0.0000 0.0000
# 3 40.0786 -11.2636 115.6952 0.0000 0.0000 0.0000
# 4 0.0000 0.0000 0.0000 24.2426 0.0000 0.0000
# 5 0.0000 0.0000 0.0000 0.0000 76.7184 0.0000
# 6 0.0000 0.0000 0.0000 0.0000 0.0000 -5.3337
#
#
#
# Elastic Compliance Matrix: (Units=1/GPa)
#
#
# Indices 1 2 3 4 5 6 
#
# 1 0.027336 0.001020 -0.009370 0.000000 0.000000 0.000000
# 2 0.001020 0.036883 0.003237 0.000000 0.000000 0.000000
# 3 -0.009370 0.003237 0.012205 0.000000 0.000000 0.000000
# 4 0.000000 0.000000 0.000000 0.041250 0.000000 0.000000
# 5 0.000000 0.000000 0.000000 0.000000 0.013035 0.000000
# 6 0.000000 0.000000 0.000000 0.000000 0.000000 -0.187487
#
#
# Mechanical properties :
#
#
# Convention : Reuss Voigt Hill
#
# Bulk Modulus (GPa) = 15.10611 26.91519 21.01065
# Shear Modulus (GPa) = -204.19006 30.49450 -86.84778
#
# Velocity S-wave (km/s) = -10.01717 3.87114 -6.53292
# Velocity P-wave (km/s) = 11.24135 5.76261 6.82497
#
# Compressibility (1/GPa) = 0.06619837
#
# Stress axis : x y z
#
# Youngs Moduli (GPa) = 36.58216 27.11242 81.93645
#
# Poissons Ratio (x) = -0.02766 0.76776
# Poissons Ratio (y) = -0.03732 -0.26527
# Poissons Ratio (z) = 0.34278 -0.08778
#
# Static dielectric constant tensor:
#      x y z
#    x 1.735340 0.000000 0.000000 
#    y 0.000000 1.777880 0.000000 
#    z 0.000000 0.000000 1.706570 
# 
# From -- ./inp_files/29314.got.cif
#   From: 2010.05.17/outbox.cif.g08.bks.cpg/sg67_15_cif.got.tgz:29314.got - 2010.06.03 18:28:57.
