data_PCOD9504940
_publ_section_title
;
Structure prediction by ZEFSAII (Michael W. Deem and Ramdas Pophale) SiO2 
 PCOD9504940
Probable space group: C M M A
;
_chemical_formula_sum "Si O2"
_cell_formula_units_Z 40
_cell_length_a 9.864297
_cell_length_b 16.463775
_cell_length_c 11.102551
_cell_angle_alpha 90.000000
_cell_angle_beta 90.000000
_cell_angle_gamma 90.000000
_cell_volume 1803.093878
_symmetry_space_group_name_H-M "C M M A"
_symmetry_group_IT_number 67
_symmetry_cell_setting 'orthorhombic'
loop_
_space_group_symop_operation_xyz
x,y,z
-x,1/2-y,z
x,-y,-z
-x,1/2+y,-z
-x,-y,-z
x,1/2+y,-z
-x,y,z
x,1/2-y,z
1/2+x,1/2+y,z
1/2-x,-y,z
1/2+x,1/2-y,-z
1/2-x,y,-z
1/2-x,1/2-y,-z
1/2+x,y,-z
1/2-x,1/2+y,z
1/2+x,-y,z
loop_
_atom_site_type_symbol
_atom_site_label
_atom_site_fract_x
_atom_site_fract_y
_atom_site_fract_z
Si Si1 0.000000 0.092649 0.549302
Si Si2 0.304333 0.343572 0.247260
Si Si3 0.500000 0.457786 0.127193
Si Si4 0.000000 0.619197 0.720156
O O1 0.130515 0.117774 0.630019
O O2 0.000000 0.137564 0.422185
O O3 0.000000 0.000000 0.500000
O O4 0.346275 0.250000 0.241482
O O5 0.371682 0.399534 0.145996
O O6 0.143559 0.347895 0.236757
O O7 0.500000 0.525471 0.233334
O O8 0.500000 0.500000 0.000000
#
# Coordination Sequence:
#
# PCOD9504940 Si02
#       4
#     8  16   8   8
#     4  11  22  40  70 102 142 188 230 272 337 414
#     4  11  25  45  70 103 143 181 226 288 347 406
#     4  11  25  47  72  96 131 188 239 286 346 413
#     4  12  24  40  71 105 140 185 231 275 345 419
#
# _framework density 22.184090999999999
#
# number of rings (size 3 to 8) (size 9 to 14) (size 15 to 20)
#    0.000    0.800    4.000    5.400    0.000    9.600 
#    0.000    6.000    0.000    0.000    0.000    0.000 
#    0.000    0.000    0.000    0.000    0.000    0.000 
#
# Total GULP energy -111739.559018 kJ/mol
# GULP energy per Si atom -5586.977951 kJ/mol
# Density = 2.213360 g / cm^3
# Si number density = 22.184091 Si / 1000 Ang^3
#
#
#
# Elastic Constant Matrix: (Units=GPa)
#
#
# Indices 1 2 3 4 5 6 
#
# 1 205.4472 64.0750 52.8374 0.0000 0.0000 0.0000
# 2 64.0750 181.6354 63.0203 0.0000 0.0000 0.0000
# 3 52.8374 63.0203 133.6127 0.0000 0.0000 0.0000
# 4 0.0000 0.0000 0.0000 21.8353 0.0000 0.0000
# 5 0.0000 0.0000 0.0000 0.0000 1.1485 0.0000
# 6 0.0000 0.0000 0.0000 0.0000 0.0000 12.8205
#
#
#
# Elastic Compliance Matrix: (Units=1/GPa)
#
#
# Indices 1 2 3 4 5 6 
#
# 1 0.005732 -0.001477 -0.001570 0.000000 0.000000 0.000000
# 2 -0.001477 0.006964 -0.002700 0.000000 0.000000 0.000000
# 3 -0.001570 -0.002700 0.009379 0.000000 0.000000 0.000000
# 4 0.000000 0.000000 0.000000 0.045797 0.000000 0.000000
# 5 0.000000 0.000000 0.000000 0.000000 0.870670 0.000000
# 6 0.000000 0.000000 0.000000 0.000000 0.000000 0.078000
#
#
# Mechanical properties :
#
#
# Convention : Reuss Voigt Hill
#
# Bulk Modulus (GPa) = 94.52440 97.84008 96.18224
# Shear Modulus (GPa) = 4.84701 29.87836 17.36268
#
# Velocity S-wave (km/s) = 1.47975 3.67391 2.80065
# Velocity P-wave (km/s) = 6.75434 7.88646 7.34225
#
# Compressibility (1/GPa) = 0.01057928
#
# Stress axis : x y z
#
# Youngs Moduli (GPa) = 174.46114 143.60435 106.62410
#
# Poissons Ratio (x) = 0.21215 0.16739
# Poissons Ratio (y) = 0.25774 0.28791
# Poissons Ratio (z) = 0.27388 0.38777
#
# Static dielectric constant tensor:
#      x y z
#    x 1.842880 0.000000 0.000000 
#    y 0.000000 1.841930 0.000000 
#    z 0.000000 0.000000 1.841560 
# 
# From -- ./inp_files/15238.got.cif
#   From: 2010.05.17/outbox.cif.g08.bks.cpg/sg67_8_cif.got.tgz:15238.got - 2010.06.03 18:28:57.
