data_PCOD9504086
_publ_section_title
;
Structure prediction by ZEFSAII (Michael W. Deem and Ramdas Pophale) SiO2 
 PCOD9504086
Probable space group: C M M A
;
_chemical_formula_sum "Si O2"
_cell_formula_units_Z 72
_cell_length_a 16.568853
_cell_length_b 8.783013
_cell_length_c 25.188352
_cell_angle_alpha 90.000000
_cell_angle_beta 90.000000
_cell_angle_gamma 90.000000
_cell_volume 3665.521104
_symmetry_space_group_name_H-M "C M M A"
_symmetry_group_IT_number 67
_symmetry_cell_setting 'orthorhombic'
loop_
_space_group_symop_operation_xyz
x,y,z
-x,1/2-y,z
x,-y,-z
-x,1/2+y,-z
-x,-y,-z
x,1/2+y,-z
-x,y,z
x,1/2-y,z
1/2+x,1/2+y,z
1/2-x,-y,z
1/2+x,1/2-y,-z
1/2-x,y,-z
1/2-x,1/2-y,-z
1/2+x,y,-z
1/2-x,1/2+y,z
1/2+x,-y,z
loop_
_atom_site_type_symbol
_atom_site_label
_atom_site_fract_x
_atom_site_fract_y
_atom_site_fract_z
Si Si1 0.500000 0.433826 0.440655
Si Si2 0.659407 0.433056 0.617368
Si Si3 0.660860 0.570211 0.052627
Si Si4 0.594191 0.080927 0.156432
Si Si5 0.338058 0.431036 0.741812
O O1 0.500000 0.250000 0.440250
O O2 0.500000 0.500000 0.500000
O O3 0.583267 0.494198 0.413419
O O4 0.661492 0.250000 0.608648
O O5 0.750000 0.500000 0.605453
O O6 0.642925 0.461372 0.680072
O O7 0.663769 0.750000 0.046639
O O8 0.750000 0.500000 0.053619
O O9 0.624963 0.523473 0.108959
O O10 0.619292 0.500000 0.000000
O O11 0.500000 0.095945 0.148083
O O12 0.632498 0.250000 0.153622
O O13 0.607507 0.009810 0.214227
O O14 0.338189 0.250000 0.749296
O O15 0.250000 0.500000 0.751311
#
# Coordination Sequence:
#
# PCOD9504086 Si02
#       5
#     8  16  16  16  16
#     4  12  26  44  68  98 134 176 221 270 323 382
#     4  10  22  42  67  98 133 173 219 270 325 386
#     4  11  22  39  62  84 110 146 191 242 295 357
#     4  11  24  39  56  83 118 155 196 243 296 358
#     4  10  21  38  62  89 121 158 200 249 302 361
#
# _framework density 19.642499999999998
#
# number of rings (size 3 to 8) (size 9 to 14) (size 15 to 20)
#    0.000    1.333    0.000    6.333    1.556    5.333 
#    0.000    2.222    0.000    0.000    0.000    0.000 
#    0.000    0.000    0.000    0.000    0.000    0.000 
#
# Total GULP energy -201000.501107 kJ/mol
# GULP energy per Si atom -5583.347253 kJ/mol
# Density = 1.959779 g / cm^3
# Si number density = 19.642500 Si / 1000 Ang^3
#
#
#
# Elastic Constant Matrix: (Units=GPa)
#
#
# Indices 1 2 3 4 5 6 
#
# 1 98.8889 59.8613 68.2545 0.0000 0.0000 0.0000
# 2 59.8613 168.4153 71.5387 0.0000 0.0000 0.0000
# 3 68.2545 71.5387 93.4893 0.0000 0.0000 0.0000
# 4 0.0000 0.0000 0.0000 33.6338 0.0000 0.0000
# 5 0.0000 0.0000 0.0000 0.0000 39.4268 0.0000
# 6 0.0000 0.0000 0.0000 0.0000 0.0000 28.1791
#
#
#
# Elastic Compliance Matrix: (Units=1/GPa)
#
#
# Indices 1 2 3 4 5 6 
#
# 1 0.020599 -0.001383 -0.013981 0.000000 0.000000 0.000000
# 2 -0.001383 0.008890 -0.005793 0.000000 0.000000 0.000000
# 3 -0.013981 -0.005793 0.025336 0.000000 0.000000 0.000000
# 4 0.000000 0.000000 0.000000 0.029732 0.000000 0.000000
# 5 0.000000 0.000000 0.000000 0.000000 0.025363 0.000000
# 6 0.000000 0.000000 0.000000 0.000000 0.000000 0.035487
#
#
# Mechanical properties :
#
#
# Convention : Reuss Voigt Hill
#
# Bulk Modulus (GPa) = 79.92324 84.45582 82.18953
# Shear Modulus (GPa) = 26.05628 30.99054 28.52341
#
# Velocity S-wave (km/s) = 3.64610 3.97637 3.81481
# Velocity P-wave (km/s) = 7.64870 8.01073 7.83181
#
# Compressibility (1/GPa) = 0.01251201
#
# Stress axis : x y z
#
# Youngs Moduli (GPa) = 48.54542 112.48589 39.46926
#
# Poissons Ratio (x) = 0.15558 0.55181
# Poissons Ratio (y) = 0.06714 0.22864
# Poissons Ratio (z) = 0.67870 0.65162
#
# Static dielectric constant tensor:
#      x y z
#    x 1.677410 0.000000 0.000000 
#    y 0.000000 1.693280 0.000000 
#    z 0.000000 0.000000 1.705700 
# 
# From -- ./inp_files/43091.got.cif
#   From: 2010.05.17/outbox.cif.g08.bks.cpg/sg67_22_cif.got.tgz:43091.got - 2010.06.03 18:28:57.
