data_PCOD9504910
_publ_section_title
;
Structure prediction by ZEFSAII (Michael W. Deem and Ramdas Pophale) SiO2 
 PCOD9504910
Probable space group: C M M A
;
_chemical_formula_sum "Si O2"
_cell_formula_units_Z 84
_cell_length_a 10.833813
_cell_length_b 15.807340
_cell_length_c 25.276240
_cell_angle_alpha 90.000000
_cell_angle_beta 90.000000
_cell_angle_gamma 90.000000
_cell_volume 4328.651280
_symmetry_space_group_name_H-M "C M M A"
_symmetry_group_IT_number 67
_symmetry_cell_setting 'orthorhombic'
loop_
_space_group_symop_operation_xyz
x,y,z
-x,1/2-y,z
x,-y,-z
-x,1/2+y,-z
-x,-y,-z
x,1/2+y,-z
-x,y,z
x,1/2-y,z
1/2+x,1/2+y,z
1/2-x,-y,z
1/2+x,1/2-y,-z
1/2-x,y,-z
1/2-x,1/2-y,-z
1/2+x,y,-z
1/2-x,1/2+y,z
1/2+x,-y,z
loop_
_atom_site_type_symbol
_atom_site_label
_atom_site_fract_x
_atom_site_fract_y
_atom_site_fract_z
Si Si1 0.866056 0.911788 0.402313
Si Si2 0.749130 0.150385 0.119041
Si Si3 0.500000 0.090182 0.063655
Si Si4 0.863222 0.095055 0.345524
Si Si5 0.000000 0.388783 0.055701
Si Si6 0.250000 0.500000 0.500000
Si Si7 0.645088 0.351031 0.771465
O O1 0.747920 0.864304 0.378731
O O2 0.000000 0.870587 0.399833
O O3 0.872688 0.998775 0.367337
O O4 0.833138 0.943227 0.461188
O O5 0.726999 0.250000 0.123406
O O6 0.626893 0.111807 0.093533
O O7 0.874165 0.139276 0.084669
O O8 0.777260 0.118372 0.178341
O O9 0.500000 0.989898 0.056823
O O10 0.500000 0.135145 0.006212
O O11 0.832518 0.101895 0.283662
O O12 0.000000 0.133252 0.352609
O O13 0.500000 0.360647 0.784879
O O14 0.666159 0.250000 0.763482
#
# Coordination Sequence:
#
# PCOD9504910 Si02
#       7
#    16  16   8  16   8   4  16
#     4   9  16  27  43  70 101 127 162 208 249 309
#     4  11  22  39  61  86 109 141 190 232 274 336
#     4  11  25  41  57  85 117 141 173 233 294 337
#     4   8  15  28  43  64  93 127 162 199 241 293
#     4  11  23  43  61  79 113 149 181 219 284 351
#     4   8  14  24  44  66  96 136 164 198 248 294
#     4   9  17  33  54  73  99 134 176 218 257 314
#
# _framework density 19.405581999999999
#
# number of rings (size 3 to 8) (size 9 to 14) (size 15 to 20)
#    0.000    2.667    0.952    2.000    0.000    4.571 
#    8.571    0.000    0.000    0.000    0.000   10.667 
#    0.000   12.190    0.000    0.000    0.000    0.000 
#
# Total GULP energy -234016.692290 kJ/mol
# GULP energy per Si atom -5571.826007 kJ/mol
# Density = 1.936141 g / cm^3
# Si number density = 19.405582 Si / 1000 Ang^3
#
#
#
# Elastic Constant Matrix: (Units=GPa)
#
#
# Indices 1 2 3 4 5 6 
#
# 1 168.6447 3.1866 74.9659 0.0000 0.0000 0.0000
# 2 3.1866 28.2904 17.2155 0.0000 0.0000 0.0000
# 3 74.9659 17.2155 161.7619 0.0000 0.0000 0.0000
# 4 0.0000 0.0000 0.0000 10.3004 0.0000 0.0000
# 5 0.0000 0.0000 0.0000 0.0000 14.9697 0.0000
# 6 0.0000 0.0000 0.0000 0.0000 0.0000 -469.2363
#
#
#
# Elastic Compliance Matrix: (Units=1/GPa)
#
#
# Indices 1 2 3 4 5 6 
#
# 1 0.007517 0.001361 -0.003628 0.000000 0.000000 0.000000
# 2 0.001361 0.038042 -0.004679 0.000000 0.000000 0.000000
# 3 -0.003628 -0.004679 0.008361 0.000000 0.000000 0.000000
# 4 0.000000 0.000000 0.000000 0.097083 0.000000 0.000000
# 5 0.000000 0.000000 0.000000 0.000000 0.066802 0.000000
# 6 0.000000 0.000000 0.000000 0.000000 0.000000 -0.002131
#
#
# Mechanical properties :
#
#
# Convention : Reuss Voigt Hill
#
# Bulk Modulus (GPa) = 24.98309 61.04811 43.01560
# Shear Modulus (GPa) = 20.58377 -71.23797 -25.32710
#
# Velocity S-wave (km/s) = 3.26039 -6.06545 -3.61660
# Velocity P-wave (km/s) = 5.20343 4.18636 2.18518
#
# Compressibility (1/GPa) = 0.04002707
#
# Stress axis : x y z
#
# Youngs Moduli (GPa) = 133.03526 26.28673 119.59627
#
# Poissons Ratio (x) = -0.03578 0.43394
# Poissons Ratio (y) = -0.18110 0.55965
# Poissons Ratio (z) = 0.48271 0.12301
#
# Static dielectric constant tensor:
#      x y z
#    x 1.756600 0.000000 0.000000 
#    y 0.000000 1.670740 0.000000 
#    z 0.000000 0.000000 1.686410 
# 
# From -- ./inp_files/41461.got.cif
#   From: 2010.05.17/outbox.cif.g08.bks.cpg/sg67_21_cif.got.tgz:41461.got - 2010.06.03 18:28:57.
