data_PCOD9504019
_publ_section_title
;
Structure prediction by ZEFSAII (Michael W. Deem and Ramdas Pophale) SiO2 
 PCOD9504019
Probable space group: C M M A
;
_chemical_formula_sum "Si O2"
_cell_formula_units_Z 68
_cell_length_a 25.237233
_cell_length_b 18.109463
_cell_length_c 7.225491
_cell_angle_alpha 90.000000
_cell_angle_beta 90.000000
_cell_angle_gamma 90.000000
_cell_volume 3302.285930
_symmetry_space_group_name_H-M "C M M A"
_symmetry_group_IT_number 67
_symmetry_cell_setting 'orthorhombic'
loop_
_space_group_symop_operation_xyz
x,y,z
-x,1/2-y,z
x,-y,-z
-x,1/2+y,-z
-x,-y,-z
x,1/2+y,-z
-x,y,z
x,1/2-y,z
1/2+x,1/2+y,z
1/2-x,-y,z
1/2+x,1/2-y,-z
1/2-x,y,-z
1/2-x,1/2-y,-z
1/2+x,y,-z
1/2-x,1/2+y,z
1/2+x,-y,z
loop_
_atom_site_type_symbol
_atom_site_label
_atom_site_fract_x
_atom_site_fract_y
_atom_site_fract_z
Si Si1 0.060362 0.664494 0.412281
Si Si2 0.000000 0.500000 0.000000
Si Si3 0.597311 0.932279 0.244291
Si Si4 0.804489 0.029154 0.789367
Si Si5 0.855630 0.834932 0.085942
O O1 0.061944 0.750000 0.477894
O O2 0.079803 0.611368 0.573790
O O3 0.095501 0.661043 0.229036
O O4 0.000000 0.645637 0.361861
O O5 0.047191 0.531724 0.859090
O O6 0.642006 0.993384 0.288730
O O7 0.625045 0.874819 0.100954
O O8 0.750000 0.000000 0.704902
O O9 0.810283 0.116773 0.813444
O O10 0.804512 0.000000 0.000000
O O11 0.841264 0.750000 0.055303
#
# Coordination Sequence:
#
# PCOD9504019 Si02
#       5
#    16   4  16  16  16
#     4  10  22  36  55  85 120 157 193 234 292 352
#     4  12  20  36  58  88 120 150 202 238 288 350
#     4  11  21  39  58  84 121 154 194 242 290 347
#     4   9  19  39  61  84 115 151 193 241 289 347
#     4  10  21  38  59  86 114 150 197 241 288 347
#
# _framework density 20.591797
#
# number of rings (size 3 to 8) (size 9 to 14) (size 15 to 20)
#    0.000    1.882    4.706    0.706    1.647    0.941 
#    0.000   15.294    0.000    2.824    0.000    0.000 
#    0.000    0.000    0.000    0.000    0.000    0.000 
#
# Total GULP energy -189378.859849 kJ/mol
# GULP energy per Si atom -5569.966466 kJ/mol
# Density = 2.054493 g / cm^3
# Si number density = 20.591797 Si / 1000 Ang^3
#
#
#
# Elastic Constant Matrix: (Units=GPa)
#
#
# Indices 1 2 3 4 5 6 
#
# 1 108.9599 48.2557 -6.4555 0.0000 0.0000 0.0000
# 2 48.2557 123.9927 15.9418 0.0000 0.0000 0.0000
# 3 -6.4555 15.9418 62.7954 0.0000 0.0000 0.0000
# 4 0.0000 0.0000 0.0000 30.7870 0.0000 0.0000
# 5 0.0000 0.0000 0.0000 0.0000 -7.2320 0.0000
# 6 0.0000 0.0000 0.0000 0.0000 0.0000 20.1939
#
#
#
# Elastic Compliance Matrix: (Units=1/GPa)
#
#
# Indices 1 2 3 4 5 6 
#
# 1 0.011423 -0.004752 0.002381 0.000000 0.000000 0.000000
# 2 -0.004752 0.010314 -0.003107 0.000000 0.000000 0.000000
# 3 0.002381 -0.003107 0.016958 0.000000 0.000000 0.000000
# 4 0.000000 0.000000 0.000000 0.032481 0.000000 0.000000
# 5 0.000000 0.000000 0.000000 0.000000 -0.138273 0.000000
# 6 0.000000 0.000000 0.000000 0.000000 0.000000 0.049520
#
#
# Mechanical properties :
#
#
# Convention : Reuss Voigt Hill
#
# Bulk Modulus (GPa) = 36.05004 45.69243 40.87124
# Shear Modulus (GPa) = 1904.70101 24.61684 964.65892
#
# Velocity S-wave (km/s) = 30.44649 3.46131 21.66759
# Velocity P-wave (km/s) = 35.40522 6.18158 25.41399
#
# Compressibility (1/GPa) = 0.02773922
#
# Stress axis : x y z
#
# Youngs Moduli (GPa) = 87.54124 96.95798 58.96854
#
# Poissons Ratio (x) = 0.46072 -0.14038
# Poissons Ratio (y) = 0.41598 0.18321
# Poissons Ratio (z) = -0.20841 0.30123
#
# Static dielectric constant tensor:
#      x y z
#    x 1.767890 0.000000 0.000000 
#    y 0.000000 1.806630 0.000000 
#    z 0.000000 0.000000 1.726140 
# 
# From -- ./inp_files/13456.got.cif
#   From: 2010.05.17/outbox.cif.g08.bks.cpg/sg67_7_cif.got.tgz:13456.got - 2010.06.03 18:28:57.
