data_PCOD9504378
_publ_section_title
;
Structure prediction by ZEFSAII (Michael W. Deem and Ramdas Pophale) SiO2 
 PCOD9504378
Probable space group: C M M A
;
_chemical_formula_sum "Si O2"
_cell_formula_units_Z 96
_cell_length_a 17.618944
_cell_length_b 14.368123
_cell_length_c 20.301988
_cell_angle_alpha 90.000000
_cell_angle_beta 90.000000
_cell_angle_gamma 90.000000
_cell_volume 5139.471701
_symmetry_space_group_name_H-M "C M M A"
_symmetry_group_IT_number 67
_symmetry_cell_setting 'orthorhombic'
loop_
_space_group_symop_operation_xyz
x,y,z
-x,1/2-y,z
x,-y,-z
-x,1/2+y,-z
-x,-y,-z
x,1/2+y,-z
-x,y,z
x,1/2-y,z
1/2+x,1/2+y,z
1/2-x,-y,z
1/2+x,1/2-y,-z
1/2-x,y,-z
1/2-x,1/2-y,-z
1/2+x,y,-z
1/2-x,1/2+y,z
1/2+x,-y,z
loop_
_atom_site_type_symbol
_atom_site_label
_atom_site_fract_x
_atom_site_fract_y
_atom_site_fract_z
Si Si1 0.169669 0.544716 0.426061
Si Si2 0.591570 0.356775 0.077286
Si Si3 0.912680 0.861557 0.930798
Si Si4 0.085947 0.456178 0.307165
Si Si5 0.838906 0.008053 0.170856
Si Si6 0.589733 0.250000 0.639660
Si Si7 0.263652 0.750000 0.576566
O O1 0.154584 0.500000 0.500000
O O2 0.250000 0.500000 0.407245
O O3 0.108386 0.507095 0.374885
O O4 0.186759 0.654924 0.414915
O O5 0.500000 0.358564 0.076468
O O6 0.615536 0.250000 0.086679
O O7 0.622357 0.421617 0.134075
O O8 0.616078 0.387883 0.003795
O O9 0.913022 0.750000 0.929046
O O10 0.000000 0.894298 0.925041
O O11 0.867109 0.903400 0.870678
O O12 0.138051 0.484936 0.246656
O O13 0.091044 0.345686 0.320092
O O14 0.000000 0.479304 0.288914
O O15 0.750000 0.000000 0.164918
O O16 0.500000 0.250000 0.608772
O O17 0.675534 0.250000 0.604987
O O18 0.250000 0.750000 0.500000
#
# Coordination Sequence:
#
# PCOD9504378 Si02
#       7
#    16  16  16  16  16   8   8
#     4  11  21  39  66  97 129 163 206 242 305 370
#     4   9  19  39  62  84 114 157 201 243 299 367
#     4   9  19  37  63  89 114 149 198 251 303 361
#     4  11  24  43  62  88 122 161 207 261 305 361
#     4  12  25  37  56  86 122 158 200 246 308 366
#     4  10  22  38  64  92 120 160 208 255 305 359
#     4  12  20  38  70  98 128 167 197 250 308 367
#
# _framework density 18.678963
#
# number of rings (size 3 to 8) (size 9 to 14) (size 15 to 20)
#    0.000    1.500    3.333    3.500    1.167    3.667 
#    1.500    2.917    0.000    0.500    0.000    0.000 
#    0.000    0.000    0.000    0.000    0.000    0.000 
#
# Total GULP energy -267412.184145 kJ/mol
# GULP energy per Si atom -5571.087170 kJ/mol
# Density = 1.863645 g / cm^3
# Si number density = 18.678963 Si / 1000 Ang^3
#
#
#
# Elastic Constant Matrix: (Units=GPa)
#
#
# Indices 1 2 3 4 5 6 
#
# 1 52.8869 17.7458 34.6512 0.0000 0.0000 0.0000
# 2 17.7458 106.1716 26.0522 0.0000 0.0000 0.0000
# 3 34.6512 26.0522 74.2229 0.0000 0.0000 0.0000
# 4 0.0000 0.0000 0.0000 22.2562 0.0000 0.0000
# 5 0.0000 0.0000 0.0000 0.0000 35.8286 0.0000
# 6 0.0000 0.0000 0.0000 0.0000 0.0000 30.7704
#
#
#
# Elastic Compliance Matrix: (Units=1/GPa)
#
#
# Indices 1 2 3 4 5 6 
#
# 1 0.027481 -0.001581 -0.012275 0.000000 0.000000 0.000000
# 2 -0.001581 0.010397 -0.002911 0.000000 0.000000 0.000000
# 3 -0.012275 -0.002911 0.020225 0.000000 0.000000 0.000000
# 4 0.000000 0.000000 0.000000 0.044931 0.000000 0.000000
# 5 0.000000 0.000000 0.000000 0.000000 0.027911 0.000000
# 6 0.000000 0.000000 0.000000 0.000000 0.000000 0.032499
#
#
# Mechanical properties :
#
#
# Convention : Reuss Voigt Hill
#
# Bulk Modulus (GPa) = 40.70108 43.35331 42.02720
# Shear Modulus (GPa) = 24.37022 28.09319 26.23170
#
# Velocity S-wave (km/s) = 3.61597 3.88235 3.75152
# Velocity P-wave (km/s) = 6.26663 6.58460 6.42758
#
# Compressibility (1/GPa) = 0.02456937
#
# Stress axis : x y z
#
# Youngs Moduli (GPa) = 36.38867 96.17811 49.44330
#
# Poissons Ratio (x) = 0.15209 0.60689
# Poissons Ratio (y) = 0.05754 0.14394
# Poissons Ratio (z) = 0.44666 0.28000
#
# Static dielectric constant tensor:
#      x y z
#    x 1.654340 0.000000 0.000000 
#    y 0.000000 1.670520 0.000000 
#    z 0.000000 0.000000 1.623820 
# 
# From -- ./inp_files/38519.got.cif
#   From: 2010.05.17/outbox.cif.g08.bks.cpg/sg67_20_cif.got.tgz:38519.got - 2010.06.03 18:28:57.
