data_PCOD9504947
_publ_section_title
;
Structure prediction by ZEFSAII (Michael W. Deem and Ramdas Pophale) SiO2 
 PCOD9504947
Probable space group: C M M A
;
_chemical_formula_sum "Si O2"
_cell_formula_units_Z 88
_cell_length_a 22.019552
_cell_length_b 23.997710
_cell_length_c 7.507866
_cell_angle_alpha 90.000000
_cell_angle_beta 90.000000
_cell_angle_gamma 90.000000
_cell_volume 3967.297717
_symmetry_space_group_name_H-M "C M M A"
_symmetry_group_IT_number 67
_symmetry_cell_setting 'orthorhombic'
loop_
_space_group_symop_operation_xyz
x,y,z
-x,1/2-y,z
x,-y,-z
-x,1/2+y,-z
-x,-y,-z
x,1/2+y,-z
-x,y,z
x,1/2-y,z
1/2+x,1/2+y,z
1/2-x,-y,z
1/2+x,1/2-y,-z
1/2-x,y,-z
1/2-x,1/2-y,-z
1/2+x,y,-z
1/2-x,1/2+y,z
1/2+x,-y,z
loop_
_atom_site_type_symbol
_atom_site_label
_atom_site_fract_x
_atom_site_fract_y
_atom_site_fract_z
Si Si1 0.661684 0.651987 0.334764
Si Si2 0.877849 0.366920 0.707489
Si Si3 0.747330 0.250000 0.717129
Si Si4 0.117642 0.250000 0.854960
Si Si5 0.000000 0.045602 0.202022
Si Si6 0.071921 0.250000 0.258831
Si Si7 0.367269 0.562439 0.048436
Si Si8 0.000000 0.926271 0.406153
O O1 0.668740 0.637799 0.543361
O O2 0.710970 0.693167 0.247982
O O3 0.602652 0.693310 0.332943
O O4 0.655923 0.595591 0.222056
O O5 0.901429 0.306194 0.759948
O O6 0.936487 0.400873 0.650293
O O7 0.853303 0.397551 0.882337
O O8 0.750000 0.250000 0.500000
O O9 0.809492 0.250000 0.824972
O O10 0.091773 0.250000 0.052072
O O11 0.060164 0.056408 0.087274
O O12 0.000000 0.081819 0.380365
O O13 0.000000 0.985873 0.303287
O O14 0.000000 0.250000 0.280795
O O15 0.345528 0.500000 0.000000
#
# Coordination Sequence:
#
# PCOD9504947 Si02
#       8
#    16  16   8   8   8   8  16   8
#     4  11  25  44  69 103 137 186 226 296 350 415
#     4  12  24  41  65 101 136 183 233 284 360 420
#     4  11  23  50  78 103 138 179 246 299 355 421
#     4  12  25  45  75 105 126 189 232 280 371 420
#     4  11  22  41  61  95 138 200 242 279 344 423
#     4  11  26  44  63 104 152 178 217 289 362 431
#     4  12  24  41  65  98 139 183 240 289 347 417
#     4  11  23  37  66  95 143 196 233 283 355 435
#
# _framework density 22.181346999999999
#
# number of rings (size 3 to 8) (size 9 to 14) (size 15 to 20)
#    0.000    0.545    7.273    1.364    3.818    2.182 
#    0.000    0.000    0.000    2.182    0.000    0.000 
#    0.000    0.000    0.000    0.000    0.000    0.000 
#
# Total GULP energy -245887.947729 kJ/mol
# GULP energy per Si atom -5588.362448 kJ/mol
# Density = 2.213086 g / cm^3
# Si number density = 22.181347 Si / 1000 Ang^3
#
#
#
# Elastic Constant Matrix: (Units=GPa)
#
#
# Indices 1 2 3 4 5 6 
#
# 1 48.7300 -22.4324 -24.1653 0.0000 0.0000 0.0000
# 2 -22.4324 91.2242 22.0273 0.0000 0.0000 0.0000
# 3 -24.1653 22.0273 125.4087 0.0000 0.0000 0.0000
# 4 0.0000 0.0000 0.0000 36.7832 0.0000 0.0000
# 5 0.0000 0.0000 0.0000 0.0000 24.9753 0.0000
# 6 0.0000 0.0000 0.0000 0.0000 0.0000 13.1607
#
#
#
# Elastic Compliance Matrix: (Units=1/GPa)
#
#
# Indices 1 2 3 4 5 6 
#
# 1 0.024822 0.005168 0.003875 0.000000 0.000000 0.000000
# 2 0.005168 0.012524 -0.001204 0.000000 0.000000 0.000000
# 3 0.003875 -0.001204 0.008932 0.000000 0.000000 0.000000
# 4 0.000000 0.000000 0.000000 0.027186 0.000000 0.000000
# 5 0.000000 0.000000 0.000000 0.000000 0.040040 0.000000
# 6 0.000000 0.000000 0.000000 0.000000 0.000000 0.075984
#
#
# Mechanical properties :
#
#
# Convention : Reuss Voigt Hill
#
# Bulk Modulus (GPa) = 16.14027 24.02469 20.08248
# Shear Modulus (GPa) = 25.71211 34.31272 30.01242
#
# Velocity S-wave (km/s) = 3.40836 3.93735 3.68237
# Velocity P-wave (km/s) = 4.77300 5.61470 5.21088
#
# Compressibility (1/GPa) = 0.06195682
#
# Stress axis : x y z
#
# Youngs Moduli (GPa) = 40.28672 79.84964 111.95561
#
# Poissons Ratio (x) = -0.41267 -0.43386
# Poissons Ratio (y) = -0.20821 0.13478
# Poissons Ratio (z) = -0.15612 0.09613
#
# Static dielectric constant tensor:
#      x y z
#    x 1.828810 0.000000 0.000000 
#    y 0.000000 1.825350 0.000000 
#    z 0.000000 0.000000 1.845350 
# 
# From -- ./inp_files/12517.got.cif
#   From: 2010.05.17/outbox.cif.g08.bks.cpg/sg67_7_cif.got.tgz:12517.got - 2010.06.03 18:28:57.
