data_PCOD9504990
_publ_section_title
;
Structure prediction by ZEFSAII (Michael W. Deem and Ramdas Pophale) SiO2 
 PCOD9504990
Probable space group: C M M A
;
_chemical_formula_sum "Si O2"
_cell_formula_units_Z 92
_cell_length_a 15.201650
_cell_length_b 14.245971
_cell_length_c 23.062263
_cell_angle_alpha 90.000000
_cell_angle_beta 90.000000
_cell_angle_gamma 90.000000
_cell_volume 4994.415913
_symmetry_space_group_name_H-M "C M M A"
_symmetry_group_IT_number 67
_symmetry_cell_setting 'orthorhombic'
loop_
_space_group_symop_operation_xyz
x,y,z
-x,1/2-y,z
x,-y,-z
-x,1/2+y,-z
-x,-y,-z
x,1/2+y,-z
-x,y,z
x,1/2-y,z
1/2+x,1/2+y,z
1/2-x,-y,z
1/2+x,1/2-y,-z
1/2-x,y,-z
1/2-x,1/2-y,-z
1/2+x,y,-z
1/2-x,1/2+y,z
1/2+x,-y,z
loop_
_atom_site_type_symbol
_atom_site_label
_atom_site_fract_x
_atom_site_fract_y
_atom_site_fract_z
Si Si1 0.351444 0.137904 0.015215
Si Si2 0.173896 0.250000 0.547667
Si Si3 0.350541 0.032698 0.134161
Si Si4 0.000000 0.538623 0.565976
Si Si5 0.000000 0.075009 0.078763
Si Si6 0.105801 0.359285 0.748639
Si Si7 0.164135 0.563518 0.374986
Si Si8 0.500000 0.750000 0.470137
O O1 0.358119 0.250000 0.013639
O O2 0.371615 0.099800 0.079190
O O3 0.250000 0.112723 0.000000
O O4 0.422281 0.098175 0.970077
O O5 0.250000 0.250000 0.500000
O O6 0.177090 0.342475 0.587225
O O7 0.083846 0.250000 0.511936
O O8 0.363327 0.087230 0.193966
O O9 0.250000 0.000000 0.129326
O O10 0.421849 0.950698 0.126167
O O11 0.000000 0.500000 0.500000
O O12 0.084580 0.496005 0.597789
O O13 0.000000 0.651958 0.564800
O O14 0.132518 0.250000 0.751019
O O15 0.142289 0.406041 0.690426
O O16 0.000000 0.362514 0.746375
O O17 0.250000 0.500000 0.376961
#
# Coordination Sequence:
#
# PCOD9504990 Si02
#       8
#    16   8  16   8   8  16  16   4
#     4  11  23  39  61  93 128 167 210 265 334 405
#     4  12  24  40  68 102 138 176 223 272 339 409
#     4  12  23  41  66  94 127 168 219 272 335 407
#     4  12  24  41  67 100 136 174 218 269 335 397
#     4  12  24  39  62  91 130 165 210 267 336 397
#     4  11  24  44  68  94 127 173 225 281 331 396
#     4  12  25  43  68  97 134 179 227 275 334 399
#     4  12  24  40  64 102 142 174 210 272 332 398
#
# _framework density 18.420572
#
# number of rings (size 3 to 8) (size 9 to 14) (size 15 to 20)
#    0.000    0.348    6.087    3.913    0.000    0.000 
#    0.000    0.000    0.000    0.000    4.522    0.000 
#    0.000    0.000    0.000    0.000    0.000    0.000 
#
# Total GULP energy -256224.488779 kJ/mol
# GULP energy per Si atom -5570.097582 kJ/mol
# Density = 1.837865 g / cm^3
# Si number density = 18.420572 Si / 1000 Ang^3
#
#
#
# Elastic Constant Matrix: (Units=GPa)
#
#
# Indices 1 2 3 4 5 6 
#
# 1 152.8735 47.5038 50.7823 0.0000 0.0000 0.0000
# 2 47.5038 133.6472 72.1465 0.0000 0.0000 0.0000
# 3 50.7823 72.1465 149.9664 0.0000 0.0000 0.0000
# 4 0.0000 0.0000 0.0000 27.1000 0.0000 0.0000
# 5 0.0000 0.0000 0.0000 0.0000 21.0946 0.0000
# 6 0.0000 0.0000 0.0000 0.0000 0.0000 16.0497
#
#
#
# Elastic Compliance Matrix: (Units=1/GPa)
#
#
# Indices 1 2 3 4 5 6 
#
# 1 0.007675 -0.001790 -0.001738 0.000000 0.000000 0.000000
# 2 -0.001790 0.010525 -0.004457 0.000000 0.000000 0.000000
# 3 -0.001738 -0.004457 0.009401 0.000000 0.000000 0.000000
# 4 0.000000 0.000000 0.000000 0.036900 0.000000 0.000000
# 5 0.000000 0.000000 0.000000 0.000000 0.047406 0.000000
# 6 0.000000 0.000000 0.000000 0.000000 0.000000 0.062306
#
#
# Mechanical properties :
#
#
# Convention : Reuss Voigt Hill
#
# Bulk Modulus (GPa) = 85.97903 86.37247 86.17575
# Shear Modulus (GPa) = 25.76531 30.58581 28.17556
#
# Velocity S-wave (km/s) = 3.74401 4.07924 3.91521
# Velocity P-wave (km/s) = 8.09117 8.31732 8.20503
#
# Compressibility (1/GPa) = 0.01163074
#
# Stress axis : x y z
#
# Youngs Moduli (GPa) = 130.29653 95.01477 106.37267
#
# Poissons Ratio (x) = 0.17006 0.18486
# Poissons Ratio (y) = 0.23321 0.47412
# Poissons Ratio (z) = 0.22643 0.42350
#
# Static dielectric constant tensor:
#      x y z
#    x 1.657030 0.000000 0.000000 
#    y 0.000000 1.653440 0.000000 
#    z 0.000000 0.000000 1.594980 
# 
# From -- ./inp_files/38580.got.cif
#   From: 2010.05.17/outbox.cif.g08.bks.cpg/sg67_20_cif.got.tgz:38580.got - 2010.06.03 18:28:57.
