data_PCOD9504630
_publ_section_title
;
Structure prediction by ZEFSAII (Michael W. Deem and Ramdas Pophale) SiO2 
 PCOD9504630
Probable space group: C M M A
;
_chemical_formula_sum "Si O2"
_cell_formula_units_Z 64
_cell_length_a 15.025824
_cell_length_b 17.513265
_cell_length_c 11.866824
_cell_angle_alpha 90.000000
_cell_angle_beta 90.000000
_cell_angle_gamma 90.000000
_cell_volume 3122.769421
_symmetry_space_group_name_H-M "C M M A"
_symmetry_group_IT_number 67
_symmetry_cell_setting 'orthorhombic'
loop_
_space_group_symop_operation_xyz
x,y,z
-x,1/2-y,z
x,-y,-z
-x,1/2+y,-z
-x,-y,-z
x,1/2+y,-z
-x,y,z
x,1/2-y,z
1/2+x,1/2+y,z
1/2-x,-y,z
1/2+x,1/2-y,-z
1/2-x,y,-z
1/2-x,1/2-y,-z
1/2+x,y,-z
1/2-x,1/2+y,z
1/2+x,-y,z
loop_
_atom_site_type_symbol
_atom_site_label
_atom_site_fract_x
_atom_site_fract_y
_atom_site_fract_z
Si Si1 0.392982 0.750000 0.699719
Si Si2 0.095607 0.953707 0.671465
Si Si3 0.350182 0.107545 0.456099
Si Si4 0.391968 0.250000 0.027948
Si Si5 0.750000 0.500000 0.828498
Si Si6 0.250000 0.625899 0.000000
O O1 0.500000 0.750000 0.688844
O O2 0.356597 0.822936 0.630533
O O3 0.374580 0.750000 0.834714
O O4 0.100233 0.888412 0.576174
O O5 0.177040 0.956635 0.755295
O O6 0.000000 0.952011 0.728409
O O7 0.108896 0.034533 0.607016
O O8 0.250000 0.093384 0.500000
O O9 0.500000 0.250000 0.011260
O O10 0.335814 0.321001 0.976664
O O11 0.713943 0.568031 0.905156
#
# Coordination Sequence:
#
# PCOD9504630 Si02
#       6
#     8  16  16   8   8   8
#     4  11  22  36  59  90 121 159 204 243 295 365
#     4  11  21  37  60  87 123 159 196 244 298 362
#     4  11  20  36  56  87 125 162 197 240 292 363
#     4  10  23  44  66  89 120 164 207 252 314 368
#     4  11  22  41  62  94 120 157 210 253 320 356
#     4  10  24  42  66  88 122 158 204 272 306 360
#
# _framework density 20.494629
#
# number of rings (size 3 to 8) (size 9 to 14) (size 15 to 20)
#    0.000    1.250    2.500    5.625    0.000    4.000 
#    0.000    2.500    0.000    1.500    0.000    0.000 
#    0.000    0.000    0.000    0.000    0.000    0.000 
#
# Total GULP energy -178258.273209 kJ/mol
# GULP energy per Si atom -5570.571038 kJ/mol
# Density = 2.044798 g / cm^3
# Si number density = 20.494629 Si / 1000 Ang^3
#
#
#
# Elastic Constant Matrix: (Units=GPa)
#
#
# Indices 1 2 3 4 5 6 
#
# 1 105.3373 -16.6335 -6.8373 0.0000 0.0000 0.0000
# 2 -16.6335 59.8417 3.3829 0.0000 0.0000 0.0000
# 3 -6.8373 3.3829 39.4740 0.0000 0.0000 0.0000
# 4 0.0000 0.0000 0.0000 -13.6682 0.0000 0.0000
# 5 0.0000 0.0000 0.0000 0.0000 -14.2275 0.0000
# 6 0.0000 0.0000 0.0000 0.0000 0.0000 14.6343
#
#
#
# Elastic Compliance Matrix: (Units=1/GPa)
#
#
# Indices 1 2 3 4 5 6 
#
# 1 0.010017 0.002699 0.001504 0.000000 0.000000 0.000000
# 2 0.002699 0.017520 -0.001034 0.000000 0.000000 0.000000
# 3 0.001504 -0.001034 0.025682 0.000000 0.000000 0.000000
# 4 0.000000 0.000000 0.000000 -0.073162 0.000000 0.000000
# 5 0.000000 0.000000 0.000000 0.000000 -0.070286 0.000000
# 6 0.000000 0.000000 0.000000 0.000000 0.000000 0.068333
#
#
# Mechanical properties :
#
#
# Convention : Reuss Voigt Hill
#
# Bulk Modulus (GPa) = 16.79054 18.27523 17.53289
# Shear Modulus (GPa) = -596.41219 12.33045 -292.04087
#
# Velocity S-wave (km/s) = -17.07749 2.45550 -11.95013
# Velocity P-wave (km/s) = 19.51010 4.12017 13.48459
#
# Compressibility (1/GPa) = 0.05955736
#
# Stress axis : x y z
#
# Youngs Moduli (GPa) = 99.82861 57.07922 38.93746
#
# Poissons Ratio (x) = -0.15408 -0.05855
# Poissons Ratio (y) = -0.26947 0.04026
# Poissons Ratio (z) = -0.15012 0.05901
#
# Static dielectric constant tensor:
#      x y z
#    x 1.773470 0.000000 0.000000 
#    y 0.000000 1.743630 0.000000 
#    z 0.000000 0.000000 1.785090 
# 
# From -- ./inp_files/17595.got.cif
#   From: 2010.05.17/outbox.cif.g08.bks.cpg/sg67_9_cif.got.tgz:17595.got - 2010.06.03 18:28:57.
