data_PCOD9504539
_publ_section_title
;
Structure prediction by ZEFSAII (Michael W. Deem and Ramdas Pophale) SiO2 
 PCOD9504539
Probable space group: C M M A
;
_chemical_formula_sum "Si O2"
_cell_formula_units_Z 72
_cell_length_a 14.819088
_cell_length_b 25.545013
_cell_length_c 9.022803
_cell_angle_alpha 90.000000
_cell_angle_beta 90.000000
_cell_angle_gamma 90.000000
_cell_volume 3415.616323
_symmetry_space_group_name_H-M "C M M A"
_symmetry_group_IT_number 67
_symmetry_cell_setting 'orthorhombic'
loop_
_space_group_symop_operation_xyz
x,y,z
-x,1/2-y,z
x,-y,-z
-x,1/2+y,-z
-x,-y,-z
x,1/2+y,-z
-x,y,z
x,1/2-y,z
1/2+x,1/2+y,z
1/2-x,-y,z
1/2+x,1/2-y,-z
1/2-x,y,-z
1/2-x,1/2-y,-z
1/2+x,y,-z
1/2-x,1/2+y,z
1/2+x,-y,z
loop_
_atom_site_type_symbol
_atom_site_label
_atom_site_fract_x
_atom_site_fract_y
_atom_site_fract_z
Si Si1 0.500000 0.150985 0.997900
Si Si2 0.315898 0.383999 0.137433
Si Si3 0.302557 0.188217 0.653888
Si Si4 0.500000 0.308832 0.686501
Si Si5 0.500000 0.462114 0.860372
Si Si6 0.646089 0.513829 0.668344
O O1 0.594915 0.148003 0.084606
O O2 0.500000 0.192355 0.865293
O O3 0.500000 0.096404 0.911026
O O4 0.251104 0.345392 0.227515
O O5 0.354318 0.429420 0.248422
O O6 0.250000 0.403100 0.000000
O O7 0.307228 0.250000 0.695706
O O8 0.250000 0.184347 0.500000
O O9 0.404856 0.167197 0.638544
O O10 0.500000 0.250000 0.623931
O O11 0.587792 0.475767 0.768337
O O12 0.500000 0.500000 0.000000
O O13 0.615776 0.500000 0.500000
O O14 0.750000 0.500000 0.671328
#
# Coordination Sequence:
#
# PCOD9504539 Si02
#       6
#     8  16  16   8   8  16
#     4  12  24  39  65 103 126 184 226 282 342 396
#     4  12  24  41  68  98 134 174 234 284 343 406
#     4  10  24  44  71 102 138 179 223 281 344 412
#     4  10  22  43  68  99 138 180 224 273 347 410
#     4  12  23  42  64  90 137 174 232 275 335 400
#     4  11  26  42  64  96 130 181 227 282 339 401
#
# _framework density 21.079650999999998
#
# number of rings (size 3 to 8) (size 9 to 14) (size 15 to 20)
#    0.000    0.889    4.444    1.667    3.111    2.222 
#    0.000    1.111    0.000    0.000    0.000    0.000 
#    0.000    0.000    0.000    0.000    0.000    0.000 
#
# Total GULP energy -200871.329332 kJ/mol
# GULP energy per Si atom -5579.759148 kJ/mol
# Density = 2.103167 g / cm^3
# Si number density = 21.079651 Si / 1000 Ang^3
#
#
#
# Elastic Constant Matrix: (Units=GPa)
#
#
# Indices 1 2 3 4 5 6 
#
# 1 160.1627 12.9948 38.2751 0.0000 0.0000 0.0000
# 2 12.9948 62.4833 27.2202 0.0000 0.0000 0.0000
# 3 38.2751 27.2202 100.6732 0.0000 0.0000 0.0000
# 4 0.0000 0.0000 0.0000 40.0755 0.0000 0.0000
# 5 0.0000 0.0000 0.0000 0.0000 32.6537 0.0000
# 6 0.0000 0.0000 0.0000 0.0000 0.0000 31.1766
#
#
#
# Elastic Compliance Matrix: (Units=1/GPa)
#
#
# Indices 1 2 3 4 5 6 
#
# 1 0.006874 -0.000330 -0.002524 0.000000 0.000000 0.000000
# 2 -0.000330 0.018157 -0.004784 0.000000 0.000000 0.000000
# 3 -0.002524 -0.004784 0.012186 0.000000 0.000000 0.000000
# 4 0.000000 0.000000 0.000000 0.024953 0.000000 0.000000
# 5 0.000000 0.000000 0.000000 0.000000 0.030624 0.000000
# 6 0.000000 0.000000 0.000000 0.000000 0.000000 0.032075
#
#
# Mechanical properties :
#
#
# Convention : Reuss Voigt Hill
#
# Bulk Modulus (GPa) = 45.57673 53.36660 49.47167
# Shear Modulus (GPa) = 33.90778 37.10311 35.50544
#
# Velocity S-wave (km/s) = 4.01503 4.19995 4.10853
# Velocity P-wave (km/s) = 6.56979 6.99221 6.78429
#
# Compressibility (1/GPa) = 0.02194102
#
# Stress axis : x y z
#
# Youngs Moduli (GPa) = 145.48384 55.07540 82.05978
#
# Poissons Ratio (x) = 0.01817 0.20713
# Poissons Ratio (y) = 0.04800 0.39256
# Poissons Ratio (z) = 0.36721 0.26347
#
# Static dielectric constant tensor:
#      x y z
#    x 1.945500 0.000000 0.000000 
#    y 0.000000 1.742510 0.000000 
#    z 0.000000 0.000000 1.808470 
# 
# From -- ./inp_files/8320.got.cif
#   From: 2010.05.17/outbox.cif.g08.bks.cpg/sg67_5_cif.got.tgz:8320.got - 2010.06.03 18:28:57.
