data_PCOD9504958
_publ_section_title
;
Structure prediction by ZEFSAII (Michael W. Deem and Ramdas Pophale) SiO2 
 PCOD9504958
Probable space group: C M M A
;
_chemical_formula_sum "Si O2"
_cell_formula_units_Z 84
_cell_length_a 29.167974
_cell_length_b 14.927447
_cell_length_c 10.372939
_cell_angle_alpha 90.000000
_cell_angle_beta 90.000000
_cell_angle_gamma 90.000000
_cell_volume 4516.412763
_symmetry_space_group_name_H-M "C M M A"
_symmetry_group_IT_number 67
_symmetry_cell_setting 'orthorhombic'
loop_
_space_group_symop_operation_xyz
x,y,z
-x,1/2-y,z
x,-y,-z
-x,1/2+y,-z
-x,-y,-z
x,1/2+y,-z
-x,y,z
x,1/2-y,z
1/2+x,1/2+y,z
1/2-x,-y,z
1/2+x,1/2-y,-z
1/2-x,y,-z
1/2-x,1/2-y,-z
1/2+x,y,-z
1/2-x,1/2+y,z
1/2+x,-y,z
loop_
_atom_site_type_symbol
_atom_site_label
_atom_site_fract_x
_atom_site_fract_y
_atom_site_fract_z
Si Si1 0.123782 0.643503 0.225234
Si Si2 0.500000 0.750000 0.499998
Si Si3 0.447052 0.141405 0.999996
Si Si4 0.198073 0.500000 0.845960
Si Si5 0.919397 0.896659 0.499999
Si Si6 0.123783 0.643503 0.774760
O O1 0.130743 0.750000 0.209248
O O2 0.168709 0.586556 0.194058
O O3 0.108885 0.621966 0.370140
O O4 0.082796 0.616371 0.125858
O O5 0.460633 0.672299 0.499998
O O6 0.500000 0.109514 0.999996
O O7 0.449504 0.250000 0.999996
O O8 0.417205 0.116371 0.874133
O O9 0.250000 0.500000 0.794903
O O10 0.168709 0.586556 0.805940
O O11 0.200131 0.500000 0.000000
O O12 0.891113 0.878034 0.629853
O O13 0.934110 0.000000 0.500000
O O14 0.130744 0.750000 0.790747
#
# Coordination Sequence:
#
# PCOD9504958 Si02
#       6
#    16   4  16  16  16  16
#     4  11  22  42  66  94 131 172 215 273 329 392
#     4  12  26  44  60 100 138 192 210 270 308 398
#     4   9  20  35  61  90 125 169 214 256 314 388
#     4  11  24  43  69 100 129 163 220 282 339 396
#     4  12  25  41  67  95 136 175 225 261 322 385
#     4  11  22  42  66  94 131 172 215 273 329 392
#
# _framework density 18.598831000000001
#
# number of rings (size 3 to 8) (size 9 to 14) (size 15 to 20)
#    0.000    1.143    5.714    0.286    2.667    0.762 
#    0.000    5.714    0.000    2.286    0.000    0.000 
#    0.000    0.000    0.000    0.000    0.000    0.000 
#
# Total GULP energy -234082.209936 kJ/mol
# GULP energy per Si atom -5573.385951 kJ/mol
# Density = 1.855650 g / cm^3
# Si number density = 18.598831 Si / 1000 Ang^3
#
#
#
# Elastic Constant Matrix: (Units=GPa)
#
#
# Indices 1 2 3 4 5 6 
#
# 1 196.8487 81.8642 77.7196 0.0000 0.0000 0.0000
# 2 81.8642 163.3172 29.0695 0.0000 0.0000 0.0000
# 3 77.7196 29.0695 142.7283 0.0000 0.0000 0.0000
# 4 0.0000 0.0000 0.0000 -75.3022 0.0000 0.0000
# 5 0.0000 0.0000 0.0000 0.0000 46.2720 0.0000
# 6 0.0000 0.0000 0.0000 0.0000 0.0000 18.8220
#
#
#
# Elastic Compliance Matrix: (Units=1/GPa)
#
#
# Indices 1 2 3 4 5 6 
#
# 1 0.007885 -0.003308 -0.003620 0.000000 0.000000 0.000000
# 2 -0.003308 0.007741 0.000225 0.000000 0.000000 0.000000
# 3 -0.003620 0.000225 0.008932 0.000000 0.000000 0.000000
# 4 0.000000 0.000000 0.000000 -0.013280 0.000000 0.000000
# 5 0.000000 0.000000 0.000000 0.000000 0.021611 0.000000
# 6 0.000000 0.000000 0.000000 0.000000 0.000000 0.053129
#
#
# Mechanical properties :
#
#
# Convention : Reuss Voigt Hill
#
# Bulk Modulus (GPa) = 89.67468 97.80007 93.73737
# Shear Modulus (GPa) = 48.47670 18.90775 33.69223
#
# Velocity S-wave (km/s) = 5.11087 3.19189 4.26082
# Velocity P-wave (km/s) = 9.11854 8.14140 8.64379
#
# Compressibility (1/GPa) = 0.01115142
#
# Stress axis : x y z
#
# Youngs Moduli (GPa) = 126.82347 129.17766 111.96130
#
# Poissons Ratio (x) = 0.42733 0.40528
# Poissons Ratio (y) = 0.41955 -0.02516
# Poissons Ratio (z) = 0.45908 -0.02902
#
# Static dielectric constant tensor:
#      x y z
#    x 1.610840 0.000000 0.000000 
#    y 0.000000 1.650740 0.000000 
#    z 0.000000 0.000000 1.633530 
# 
# From -- ./inp_files/21749.got.cif
#   From: 2010.05.17/outbox.cif.g08.bks.cpg/sg67_11_cif.got.tgz:21749.got - 2010.06.03 18:28:57.
