data_PCOD9504450
_publ_section_title
;
Structure prediction by ZEFSAII (Michael W. Deem and Ramdas Pophale) SiO2 
 PCOD9504450
Probable space group: C M M A
;
_chemical_formula_sum "Si O2"
_cell_formula_units_Z 80
_cell_length_a 21.058695
_cell_length_b 15.620650
_cell_length_c 12.300597
_cell_angle_alpha 90.000000
_cell_angle_beta 90.000000
_cell_angle_gamma 90.000000
_cell_volume 4046.287583
_symmetry_space_group_name_H-M "C M M A"
_symmetry_group_IT_number 67
_symmetry_cell_setting 'orthorhombic'
loop_
_space_group_symop_operation_xyz
x,y,z
-x,1/2-y,z
x,-y,-z
-x,1/2+y,-z
-x,-y,-z
x,1/2+y,-z
-x,y,z
x,1/2-y,z
1/2+x,1/2+y,z
1/2-x,-y,z
1/2+x,1/2-y,-z
1/2-x,y,-z
1/2-x,1/2-y,-z
1/2+x,y,-z
1/2-x,1/2+y,z
1/2+x,-y,z
loop_
_atom_site_type_symbol
_atom_site_label
_atom_site_fract_x
_atom_site_fract_y
_atom_site_fract_z
Si Si1 0.574186 0.750000 0.607815
Si Si2 0.073033 0.600568 0.974060
Si Si3 0.076181 0.750000 0.145224
Si Si4 0.645978 0.899063 0.503055
Si Si5 0.756333 0.100801 0.320895
Si Si6 0.295081 0.848612 0.093442
O O1 0.500000 0.750000 0.622392
O O2 0.602331 0.750000 0.731554
O O3 0.592901 0.833473 0.539023
O O4 0.089914 0.663596 0.075824
O O5 0.000000 0.624007 0.939040
O O6 0.071041 0.500000 0.000000
O O7 0.134294 0.612149 0.896794
O O8 0.000000 0.750000 0.153202
O O9 0.699686 0.882962 0.595145
O O10 0.679663 0.880225 0.388436
O O11 0.629345 0.000000 0.500000
O O12 0.758371 0.146836 0.206816
O O13 0.750000 0.000000 0.297341
O O14 0.305655 0.750000 0.063949
O O15 0.250000 0.887904 0.000000
#
# Coordination Sequence:
#
# PCOD9504450 Si02
#       6
#     8  16   8  16  16  16
#     4  11  24  37  65  97 118 165 220 266 319 372
#     4  10  22  40  62  87 127 178 214 248 318 391
#     4   9  20  40  60  88 126 164 216 264 298 378
#     4   9  21  41  63  87 123 159 204 259 321 386
#     4   9  21  39  61  89 116 160 202 249 323 389
#     4  11  25  36  56  94 126 155 209 268 320 364
#
# _framework density 19.771208999999999
#
# number of rings (size 3 to 8) (size 9 to 14) (size 15 to 20)
#    0.000    2.200    1.000    1.200    8.400    2.800 
#    0.000    1.000    0.000    0.000    0.000    0.000 
#    0.000    0.000    0.000    0.000    0.000    0.000 
#
# Total GULP energy -222847.593770 kJ/mol
# GULP energy per Si atom -5571.189844 kJ/mol
# Density = 1.972621 g / cm^3
# Si number density = 19.771209 Si / 1000 Ang^3
#
#
#
# Elastic Constant Matrix: (Units=GPa)
#
#
# Indices 1 2 3 4 5 6 
#
# 1 70.7872 31.0195 23.7244 0.0000 0.0000 0.0000
# 2 31.0195 69.3762 46.0106 0.0000 0.0000 0.0000
# 3 23.7244 46.0106 96.0831 0.0000 0.0000 0.0000
# 4 0.0000 0.0000 0.0000 41.3637 0.0000 0.0000
# 5 0.0000 0.0000 0.0000 0.0000 18.7234 0.0000
# 6 0.0000 0.0000 0.0000 0.0000 0.0000 31.9842
#
#
#
# Elastic Compliance Matrix: (Units=1/GPa)
#
#
# Indices 1 2 3 4 5 6 
#
# 1 0.017616 -0.007315 -0.000847 0.000000 0.000000 0.000000
# 2 -0.007315 0.024160 -0.009763 0.000000 0.000000 0.000000
# 3 -0.000847 -0.009763 0.015292 0.000000 0.000000 0.000000
# 4 0.000000 0.000000 0.000000 0.024176 0.000000 0.000000
# 5 0.000000 0.000000 0.000000 0.000000 0.053409 0.000000
# 6 0.000000 0.000000 0.000000 0.000000 0.000000 0.031265
#
#
# Mechanical properties :
#
#
# Convention : Reuss Voigt Hill
#
# Bulk Modulus (GPa) = 47.12939 48.63950 47.88444
# Shear Modulus (GPa) = 23.94177 27.44707 25.69442
#
# Velocity S-wave (km/s) = 3.48363 3.72994 3.60889
# Velocity P-wave (km/s) = 6.33009 6.57302 6.45270
#
# Compressibility (1/GPa) = 0.02121818
#
# Stress axis : x y z
#
# Youngs Moduli (GPa) = 56.76617 41.39137 65.39419
#
# Poissons Ratio (x) = 0.30277 0.05538
# Poissons Ratio (y) = 0.41524 0.63844
# Poissons Ratio (z) = 0.04807 0.40410
#
# Static dielectric constant tensor:
#      x y z
#    x 1.724760 0.000000 0.000000 
#    y 0.000000 1.695870 0.000000 
#    z 0.000000 0.000000 1.699670 
# 
# From -- ./inp_files/20579.got.cif
#   From: 2010.05.17/outbox.cif.g08.bks.cpg/sg67_11_cif.got.tgz:20579.got - 2010.06.03 18:28:57.
