data_PCOD9504410
_publ_section_title
;
Structure prediction by ZEFSAII (Michael W. Deem and Ramdas Pophale) SiO2 
 PCOD9504410
Probable space group: C M M A
;
_chemical_formula_sum "Si O2"
_cell_formula_units_Z 100
_cell_length_a 9.395117
_cell_length_b 21.060768
_cell_length_c 26.616235
_cell_angle_alpha 90.000000
_cell_angle_beta 90.000000
_cell_angle_gamma 90.000000
_cell_volume 5266.511287
_symmetry_space_group_name_H-M "C M M A"
_symmetry_group_IT_number 67
_symmetry_cell_setting 'orthorhombic'
loop_
_space_group_symop_operation_xyz
x,y,z
-x,1/2-y,z
x,-y,-z
-x,1/2+y,-z
-x,-y,-z
x,1/2+y,-z
-x,y,z
x,1/2-y,z
1/2+x,1/2+y,z
1/2-x,-y,z
1/2+x,1/2-y,-z
1/2-x,y,-z
1/2-x,1/2-y,-z
1/2+x,y,-z
1/2-x,1/2+y,z
1/2+x,-y,z
loop_
_atom_site_type_symbol
_atom_site_label
_atom_site_fract_x
_atom_site_fract_y
_atom_site_fract_z
Si Si1 0.000000 0.952977 0.076752
Si Si2 0.767921 0.143905 0.911134
Si Si3 0.330868 0.564812 0.744971
Si Si4 0.831762 0.563444 0.374810
Si Si5 0.829120 0.822645 0.447500
Si Si6 0.668083 0.177079 0.800401
Si Si7 0.000000 0.910275 0.960822
Si Si8 0.000000 0.750000 0.063026
O O1 0.140080 0.920005 0.099035
O O2 0.000000 0.028670 0.076305
O O3 0.000000 0.934018 0.017700
O O4 0.702634 0.168861 0.859240
O O5 0.640582 0.128799 0.948765
O O6 0.876677 0.194781 0.932896
O O7 0.500000 0.560256 0.755141
O O8 0.250000 0.500000 0.760153
O O9 0.310198 0.572282 0.684828
O O10 0.261639 0.625460 0.771501
O O11 0.750000 0.500000 0.390701
O O12 0.787508 0.625161 0.406338
O O13 0.000000 0.554011 0.382688
O O14 0.796605 0.750000 0.431794
O O15 0.750000 0.834522 0.500000
O O16 0.000000 0.826557 0.454765
O O17 0.500000 0.166261 0.792011
O O18 0.701866 0.250000 0.786068
#
# Coordination Sequence:
#
# PCOD9504410 Si02
#       8
#     8  16  16  16  16  16   8   4
#     4  10  24  40  65  97 121 154 199 241 292 354
#     4  11  22  41  64  87 125 157 195 245 290 348
#     4  10  22  39  62  90 121 155 199 247 300 357
#     4   9  19  36  56  81 115 154 191 243 296 349
#     4   9  18  33  53  78 112 151 198 246 292 346
#     4  11  24  42  64  87 121 157 197 242 299 358
#     4  11  22  43  65  91 126 160 194 241 299 351
#     4  10  24  40  62  90 120 158 206 238 286 346
#
# _framework density 18.987901000000001
#
# number of rings (size 3 to 8) (size 9 to 14) (size 15 to 20)
#    0.000    1.920    1.600    1.440    2.240    5.440 
#    0.000    9.600    0.000    1.920    0.000    0.000 
#    0.000    0.000    0.000    0.000    0.000    0.000 
#
# Total GULP energy -278773.833205 kJ/mol
# GULP energy per Si atom -5575.476664 kJ/mol
# Density = 1.894468 g / cm^3
# Si number density = 18.987901 Si / 1000 Ang^3
#
#
#
# Elastic Constant Matrix: (Units=GPa)
#
#
# Indices 1 2 3 4 5 6 
#
# 1 110.5532 76.8269 37.7373 0.0000 0.0000 0.0000
# 2 76.8269 152.4682 55.9656 0.0000 0.0000 0.0000
# 3 37.7373 55.9656 43.6658 0.0000 0.0000 0.0000
# 4 0.0000 0.0000 0.0000 148.9576 0.0000 0.0000
# 5 0.0000 0.0000 0.0000 0.0000 27.1626 0.0000
# 6 0.0000 0.0000 0.0000 0.0000 0.0000 28.3721
#
#
#
# Elastic Compliance Matrix: (Units=1/GPa)
#
#
# Indices 1 2 3 4 5 6 
#
# 1 0.014726 -0.005191 -0.006074 0.000000 0.000000 0.000000
# 2 -0.005191 0.014215 -0.013734 0.000000 0.000000 0.000000
# 3 -0.006074 -0.013734 0.045752 0.000000 0.000000 0.000000
# 4 0.000000 0.000000 0.000000 0.006713 0.000000 0.000000
# 5 0.000000 0.000000 0.000000 0.000000 0.036815 0.000000
# 6 0.000000 0.000000 0.000000 0.000000 0.000000 0.035246
#
#
# Mechanical properties :
#
#
# Convention : Reuss Voigt Hill
#
# Bulk Modulus (GPa) = 40.48975 71.97185 56.23080
# Shear Modulus (GPa) = 23.61870 49.97562 36.79716
#
# Velocity S-wave (km/s) = 3.53070 5.13584 4.40696
# Velocity P-wave (km/s) = 6.16371 8.55310 7.45476
#
# Compressibility (1/GPa) = 0.02469761
#
# Stress axis : x y z
#
# Youngs Moduli (GPa) = 67.90761 70.34606 21.85683
#
# Poissons Ratio (x) = 0.36515 0.13275
# Poissons Ratio (y) = 0.35249 0.30017
# Poissons Ratio (z) = 0.41244 0.96610
#
# Static dielectric constant tensor:
#      x y z
#    x 1.638190 0.000000 0.000000 
#    y 0.000000 1.658370 0.000000 
#    z 0.000000 0.000000 1.651040 
# 
# From -- ./inp_files/43624.got.cif
#   From: 2010.05.17/outbox.cif.g08.bks.cpg/sg67_22_cif.got.tgz:43624.got - 2010.06.03 18:28:57.
