data_PCOD9504834
_publ_section_title
;
Structure prediction by ZEFSAII (Michael W. Deem and Ramdas Pophale) SiO2 
 PCOD9504834
Probable space group: C M M A
;
_chemical_formula_sum "Si O2"
_cell_formula_units_Z 104
_cell_length_a 19.108717
_cell_length_b 29.938797
_cell_length_c 8.688000
_cell_angle_alpha 90.000000
_cell_angle_beta 90.000000
_cell_angle_gamma 90.000000
_cell_volume 4970.335289
_symmetry_space_group_name_H-M "C M M A"
_symmetry_group_IT_number 67
_symmetry_cell_setting 'orthorhombic'
loop_
_space_group_symop_operation_xyz
x,y,z
-x,1/2-y,z
x,-y,-z
-x,1/2+y,-z
-x,-y,-z
x,1/2+y,-z
-x,y,z
x,1/2-y,z
1/2+x,1/2+y,z
1/2-x,-y,z
1/2+x,1/2-y,-z
1/2-x,y,-z
1/2-x,1/2-y,-z
1/2+x,y,-z
1/2-x,1/2+y,z
1/2+x,-y,z
loop_
_atom_site_type_symbol
_atom_site_label
_atom_site_fract_x
_atom_site_fract_y
_atom_site_fract_z
Si Si1 0.169101 0.514645 0.167007
Si Si2 0.154178 0.250000 0.150907
Si Si3 0.082687 0.844260 0.852602
Si Si4 0.309981 0.835660 0.620346
Si Si5 0.107938 0.000000 0.500000
Si Si6 0.820813 0.250000 0.785647
Si Si7 0.923465 0.396993 0.460248
Si Si8 0.315152 0.888628 0.902800
O O1 0.250000 0.500000 0.161794
O O2 0.145143 0.497759 0.333417
O O3 0.153947 0.567273 0.171055
O O4 0.138232 0.500000 0.000000
O O5 0.115052 0.203925 0.197354
O O6 0.234956 0.250000 0.208852
O O7 0.156582 0.250000 0.963373
O O8 0.087326 0.881691 0.717790
O O9 0.000000 0.838842 0.889328
O O10 0.129004 0.861953 0.995611
O O11 0.250000 0.824468 0.500000
O O12 0.346019 0.792169 0.688509
O O13 0.362743 0.871206 0.549126
O O14 0.279691 0.857938 0.774267
O O15 0.075348 0.949982 0.506054
O O16 0.000000 0.379086 0.504980
O O17 0.250000 0.905853 0.000000
#
# Coordination Sequence:
#
# PCOD9504834 Si02
#       8
#    16   8  16  16   8   8  16  16
#     4  11  23  39  62 101 139 173 231 290 349 412
#     4  11  21  44  69  99 135 175 223 290 342 408
#     4  11  25  45  71 100 134 182 233 282 343 418
#     4  12  25  41  68 102 134 177 225 281 348 415
#     4  12  24  44  68  96 137 186 233 284 353 416
#     4  11  23  42  67 101 137 173 222 282 348 407
#     4  11  26  46  67  96 138 181 227 282 346 415
#     4  12  22  41  67  99 136 174 221 289 341 403
#
# _framework density 20.924142
#
# number of rings (size 3 to 8) (size 9 to 14) (size 15 to 20)
#    0.000    0.615    4.615    4.615    2.154    1.231 
#    0.000    1.154    0.000    3.231    0.000    0.000 
#    0.000    0.000    0.000    0.000    0.000    0.000 
#
# Total GULP energy -289905.440650 kJ/mol
# GULP energy per Si atom -5575.104628 kJ/mol
# Density = 2.087652 g / cm^3
# Si number density = 20.924142 Si / 1000 Ang^3
#
#
#
# Elastic Constant Matrix: (Units=GPa)
#
#
# Indices 1 2 3 4 5 6 
#
# 1 54.9142 0.5125 26.4333 0.0000 0.0000 0.0000
# 2 0.5125 106.6847 21.4781 0.0000 0.0000 0.0000
# 3 26.4333 21.4781 111.0511 0.0000 0.0000 0.0000
# 4 0.0000 0.0000 0.0000 38.8624 0.0000 0.0000
# 5 0.0000 0.0000 0.0000 0.0000 16.7580 0.0000
# 6 0.0000 0.0000 0.0000 0.0000 0.0000 -2.1697
#
#
#
# Elastic Compliance Matrix: (Units=1/GPa)
#
#
# Indices 1 2 3 4 5 6 
#
# 1 0.020654 0.000927 -0.005096 0.000000 0.000000 0.000000
# 2 0.000927 0.009795 -0.002115 0.000000 0.000000 0.000000
# 3 -0.005096 -0.002115 0.010627 0.000000 0.000000 0.000000
# 4 0.000000 0.000000 0.000000 0.025732 0.000000 0.000000
# 5 0.000000 0.000000 0.000000 0.000000 0.059673 0.000000
# 6 0.000000 0.000000 0.000000 0.000000 0.000000 -0.460898
#
#
# Mechanical properties :
#
#
# Convention : Reuss Voigt Hill
#
# Bulk Modulus (GPa) = 35.07763 41.05532 38.06647
# Shear Modulus (GPa) = -16.00786 25.63855 4.81534
#
# Velocity S-wave (km/s) = -2.76894 3.50424 1.51866
# Velocity P-wave (km/s) = 2.56474 6.00304 4.61597
#
# Compressibility (1/GPa) = 0.02850820
#
# Stress axis : x y z
#
# Youngs Moduli (GPa) = 48.41590 102.09552 94.10174
#
# Poissons Ratio (x) = -0.09460 0.47950
# Poissons Ratio (y) = -0.04486 0.19902
# Poissons Ratio (z) = 0.24671 0.21593
#
# Static dielectric constant tensor:
#      x y z
#    x 1.713010 0.000000 0.000000 
#    y 0.000000 1.814240 0.000000 
#    z 0.000000 0.000000 1.829660 
# 
# From -- ./inp_files/11599.got.cif
#   From: 2010.05.17/outbox.cif.g08.bks.cpg/sg67_6_cif.got.tgz:11599.got - 2010.06.03 18:28:57.
