data_PCOD9504489
_publ_section_title
;
Structure prediction by ZEFSAII (Michael W. Deem and Ramdas Pophale) SiO2 
 PCOD9504489
Probable space group: C M M A
;
_chemical_formula_sum "Si O2"
_cell_formula_units_Z 52
_cell_length_a 9.113478
_cell_length_b 14.643844
_cell_length_c 17.432385
_cell_angle_alpha 90.000000
_cell_angle_beta 90.000000
_cell_angle_gamma 90.000000
_cell_volume 2326.462476
_symmetry_space_group_name_H-M "C M M A"
_symmetry_group_IT_number 67
_symmetry_cell_setting 'orthorhombic'
loop_
_space_group_symop_operation_xyz
x,y,z
-x,1/2-y,z
x,-y,-z
-x,1/2+y,-z
-x,-y,-z
x,1/2+y,-z
-x,y,z
x,1/2-y,z
1/2+x,1/2+y,z
1/2-x,-y,z
1/2+x,1/2-y,-z
1/2-x,y,-z
1/2-x,1/2-y,-z
1/2+x,y,-z
1/2-x,1/2+y,z
1/2+x,-y,z
loop_
_atom_site_type_symbol
_atom_site_label
_atom_site_fract_x
_atom_site_fract_y
_atom_site_fract_z
Si Si1 0.161811 0.357291 0.227587
Si Si2 0.250000 0.500000 0.500000
Si Si3 0.335600 0.142795 0.374379
Si Si4 0.824437 0.400571 0.925234
O O1 0.145236 0.250000 0.240127
O O2 0.226151 0.390780 0.307976
O O3 0.272546 0.364381 0.156751
O O4 0.000000 0.396948 0.209396
O O5 0.331345 0.571669 0.555878
O O6 0.500000 0.143729 0.341739
O O7 0.302892 0.250000 0.396092
O O8 0.750000 0.500000 0.924182
O O9 0.000000 0.402121 0.933133
O O10 0.750000 0.354546 0.000000
#
# Coordination Sequence:
#
# PCOD9504489 Si02
#       4
#    16   4  16  16
#     4  10  22  41  64  90 123 164 210 261 318 377
#     4  12  24  40  68 100 128 164 218 270 330 402
#     4  10  23  43  65  93 130 170 215 269 329 393
#     4  11  22  38  61  90 127 166 210 260 311 369
#
# _framework density 22.351531000000001
#
# number of rings (size 3 to 8) (size 9 to 14) (size 15 to 20)
#    0.000    1.538    0.000    5.538    2.154    4.923 
#    0.000    3.077    0.000    0.000    0.000    0.000 
#    0.000    0.000    0.000    0.000    0.000    0.000 
#
# Total GULP energy -145007.610163 kJ/mol
# GULP energy per Si atom -5577.215776 kJ/mol
# Density = 2.230066 g / cm^3
# Si number density = 22.351531 Si / 1000 Ang^3
#
#
#
# Elastic Constant Matrix: (Units=GPa)
#
#
# Indices 1 2 3 4 5 6 
#
# 1 189.6075 26.2722 72.8843 0.0000 0.0000 0.0000
# 2 26.2722 95.9503 32.5346 0.0000 0.0000 0.0000
# 3 72.8843 32.5346 139.0738 0.0000 0.0000 0.0000
# 4 0.0000 0.0000 0.0000 32.2579 0.0000 0.0000
# 5 0.0000 0.0000 0.0000 0.0000 21.4543 0.0000
# 6 0.0000 0.0000 0.0000 0.0000 0.0000 8.9332
#
#
#
# Elastic Compliance Matrix: (Units=1/GPa)
#
#
# Indices 1 2 3 4 5 6 
#
# 1 0.006647 -0.000694 -0.003321 0.000000 0.000000 0.000000
# 2 -0.000694 0.011392 -0.002301 0.000000 0.000000 0.000000
# 3 -0.003321 -0.002301 0.009469 0.000000 0.000000 0.000000
# 4 0.000000 0.000000 0.000000 0.031000 0.000000 0.000000
# 5 0.000000 0.000000 0.000000 0.000000 0.046611 0.000000
# 6 0.000000 0.000000 0.000000 0.000000 0.000000 0.111942
#
#
# Mechanical properties :
#
#
# Convention : Reuss Voigt Hill
#
# Bulk Modulus (GPa) = 67.22373 76.44599 71.83486
# Shear Modulus (GPa) = 21.30811 32.05843 26.68327
#
# Velocity S-wave (km/s) = 3.09093 3.79130 3.45889
# Velocity P-wave (km/s) = 6.54824 7.31035 6.93977
#
# Compressibility (1/GPa) = 0.01487570
#
# Stress axis : x y z
#
# Youngs Moduli (GPa) = 150.44833 87.77757 105.60439
#
# Poissons Ratio (x) = 0.06091 0.35072
# Poissons Ratio (y) = 0.10439 0.24305
# Poissons Ratio (z) = 0.49965 0.20202
#
# Static dielectric constant tensor:
#      x y z
#    x 1.866730 0.000000 0.000000 
#    y 0.000000 1.922340 0.000000 
#    z 0.000000 0.000000 1.868150 
# 
# From -- ./inp_files/31552.got.cif
#   From: 2010.05.17/outbox.cif.g08.bks.cpg/sg67_16_cif.got.tgz:31552.got - 2010.06.03 18:28:57.
