data_PCOD9504634
_publ_section_title
;
Structure prediction by ZEFSAII (Michael W. Deem and Ramdas Pophale) SiO2 
 PCOD9504634
Probable space group: C M M A
;
_chemical_formula_sum "Si O2"
_cell_formula_units_Z 72
_cell_length_a 14.905187
_cell_length_b 10.132883
_cell_length_c 25.139195
_cell_angle_alpha 90.000000
_cell_angle_beta 90.000000
_cell_angle_gamma 90.000000
_cell_volume 3796.835870
_symmetry_space_group_name_H-M "C M M A"
_symmetry_group_IT_number 67
_symmetry_cell_setting 'orthorhombic'
loop_
_space_group_symop_operation_xyz
x,y,z
-x,1/2-y,z
x,-y,-z
-x,1/2+y,-z
-x,-y,-z
x,1/2+y,-z
-x,y,z
x,1/2-y,z
1/2+x,1/2+y,z
1/2-x,-y,z
1/2+x,1/2-y,-z
1/2-x,y,-z
1/2-x,1/2-y,-z
1/2+x,y,-z
1/2-x,1/2+y,z
1/2+x,-y,z
loop_
_atom_site_type_symbol
_atom_site_label
_atom_site_fract_x
_atom_site_fract_y
_atom_site_fract_z
Si Si1 0.645981 0.982707 0.863968
Si Si2 0.900330 0.250000 0.194715
Si Si3 0.233985 0.750000 0.706490
Si Si4 0.606750 0.250000 0.218462
Si Si5 0.894231 0.904179 0.450065
Si Si6 0.250000 0.000000 0.365059
Si Si7 0.000000 0.596191 0.050111
O O1 0.634378 0.876589 0.816679
O O2 0.585874 0.933624 0.912741
O O3 0.750000 0.000000 0.878051
O O4 0.611697 0.121586 0.841589
O O5 0.827283 0.250000 0.241172
O O6 0.000000 0.250000 0.218237
O O7 0.336404 0.750000 0.727684
O O8 0.218145 0.879887 0.671832
O O9 0.500000 0.250000 0.226360
O O10 0.877681 0.750000 0.463438
O O11 0.000000 0.917068 0.436494
O O12 0.876465 0.000000 0.500000
O O13 0.829971 0.947467 0.402344
O O14 0.000000 0.750000 0.034711
O O15 0.000000 0.500000 0.000000
#
# Coordination Sequence:
#
# PCOD9504634 Si02
#       7
#    16   8   8   8  16   8   8
#     4  12  22  43  72  98 131 172 219 273 327 390
#     4  12  24  40  68 100 129 170 227 274 318 378
#     4  12  26  40  63 102 137 174 228 278 326 396
#     4  12  22  44  70  94 127 180 233 270 318 392
#     4  10  23  44  71  98 128 176 229 273 334 412
#     4  12  25  42  64  96 146 176 209 280 350 388
#     4  12  28  48  70 104 138 174 220 274 345 402
#
# _framework density 18.963159000000001
#
# number of rings (size 3 to 8) (size 9 to 14) (size 15 to 20)
#    0.000    0.444    6.667    1.667    3.111    3.111 
#    0.000    1.111    0.000    0.000    0.000    0.000 
#    0.000    0.000    0.000    0.000    0.000    0.000 
#
# Total GULP energy -201395.639116 kJ/mol
# GULP energy per Si atom -5594.323309 kJ/mol
# Density = 1.892000 g / cm^3
# Si number density = 18.963159 Si / 1000 Ang^3
#
#
#
# Elastic Constant Matrix: (Units=GPa)
#
#
# Indices 1 2 3 4 5 6 
#
# 1 123.5899 27.2663 29.0427 0.0000 0.0000 0.0000
# 2 27.2663 179.3061 53.6825 0.0000 0.0000 0.0000
# 3 29.0427 53.6825 78.7754 0.0000 0.0000 0.0000
# 4 0.0000 0.0000 0.0000 59.6869 0.0000 0.0000
# 5 0.0000 0.0000 0.0000 0.0000 7.9248 0.0000
# 6 0.0000 0.0000 0.0000 0.0000 0.0000 22.7109
#
#
#
# Elastic Compliance Matrix: (Units=1/GPa)
#
#
# Indices 1 2 3 4 5 6 
#
# 1 0.008890 -0.000466 -0.002960 0.000000 0.000000 0.000000
# 2 -0.000466 0.007031 -0.004620 0.000000 0.000000 0.000000
# 3 -0.002960 -0.004620 0.016934 0.000000 0.000000 0.000000
# 4 0.000000 0.000000 0.000000 0.016754 0.000000 0.000000
# 5 0.000000 0.000000 0.000000 0.000000 0.126186 0.000000
# 6 0.000000 0.000000 0.000000 0.000000 0.000000 0.044032
#
#
# Mechanical properties :
#
#
# Convention : Reuss Voigt Hill
#
# Bulk Modulus (GPa) = 59.65312 66.85049 63.25181
# Shear Modulus (GPa) = 20.70352 36.17652 28.44002
#
# Velocity S-wave (km/s) = 3.30779 4.37249 3.87686
# Velocity P-wave (km/s) = 6.79075 7.79878 7.31215
#
# Compressibility (1/GPa) = 0.01676358
#
# Stress axis : x y z
#
# Youngs Moduli (GPa) = 112.49105 142.22843 59.05349
#
# Poissons Ratio (x) = 0.06622 0.17481
# Poissons Ratio (y) = 0.05237 0.27281
# Poissons Ratio (z) = 0.33299 0.65705
#
# Static dielectric constant tensor:
#      x y z
#    x 1.669220 0.000000 0.000000 
#    y 0.000000 1.647240 0.000000 
#    z 0.000000 0.000000 1.614680 
# 
# From -- ./inp_files/44281.got.cif
#   From: 2010.05.17/outbox.cif.g08.bks.cpg/sg67_23_cif.got.tgz:44281.got - 2010.06.03 18:28:57.
