data_PCOD9504413
_publ_section_title
;
Structure prediction by ZEFSAII (Michael W. Deem and Ramdas Pophale) SiO2 
 PCOD9504413
Probable space group: C M M A
;
_chemical_formula_sum "Si O2"
_cell_formula_units_Z 64
_cell_length_a 27.196758
_cell_length_b 13.034077
_cell_length_c 8.623681
_cell_angle_alpha 90.000000
_cell_angle_beta 90.000000
_cell_angle_gamma 90.000000
_cell_volume 3056.962437
_symmetry_space_group_name_H-M "C M M A"
_symmetry_group_IT_number 67
_symmetry_cell_setting 'orthorhombic'
loop_
_space_group_symop_operation_xyz
x,y,z
-x,1/2-y,z
x,-y,-z
-x,1/2+y,-z
-x,-y,-z
x,1/2+y,-z
-x,y,z
x,1/2-y,z
1/2+x,1/2+y,z
1/2-x,-y,z
1/2+x,1/2-y,-z
1/2-x,y,-z
1/2-x,1/2-y,-z
1/2+x,y,-z
1/2-x,1/2+y,z
1/2+x,-y,z
loop_
_atom_site_type_symbol
_atom_site_label
_atom_site_fract_x
_atom_site_fract_y
_atom_site_fract_z
Si Si1 0.372883 0.580414 0.877590
Si Si2 0.057090 0.750000 0.976314
Si Si3 0.944258 0.250000 0.399494
Si Si4 0.806250 0.250000 0.713023
Si Si5 0.193642 0.750000 0.665254
Si Si6 0.375004 0.572318 0.371192
O O1 0.412868 0.652699 0.959221
O O2 0.333348 0.652442 0.790315
O O3 0.397662 0.505657 0.751348
O O4 0.350426 0.500000 0.000000
O O5 0.000000 0.750000 0.024919
O O6 0.057583 0.750000 0.788896
O O7 0.914727 0.148404 0.446882
O O8 0.000000 0.250000 0.452553
O O9 0.809347 0.250000 0.524389
O O10 0.747655 0.250000 0.734949
O O11 0.163856 0.648118 0.709084
O O12 0.350631 0.500000 0.500000
#
# Coordination Sequence:
#
# PCOD9504413 Si02
#       6
#    16   8   8   8   8  16
#     4  11  22  40  64  94 127 164 204 259 317 366
#     4  10  22  39  64  93 124 165 215 257 307 379
#     4  10  22  39  62  93 126 165 210 261 311 372
#     4  10  22  41  64  93 122 162 213 258 303 378
#     4  10  22  41  64  91 122 163 214 254 308 375
#     4  11  22  40  63  89 127 166 203 261 317 367
#
# _framework density 20.935814000000001
#
# number of rings (size 3 to 8) (size 9 to 14) (size 15 to 20)
#    0.000    1.500    5.000    0.000    0.000    3.000 
#    0.000    5.000    0.000    0.000    0.000    0.000 
#    0.000    0.000    0.000    0.000    0.000    0.000 
#
# Total GULP energy -178591.559418 kJ/mol
# GULP energy per Si atom -5580.986232 kJ/mol
# Density = 2.088816 g / cm^3
# Si number density = 20.935814 Si / 1000 Ang^3
#
#
#
# Elastic Constant Matrix: (Units=GPa)
#
#
# Indices 1 2 3 4 5 6 
#
# 1 138.6966 54.3701 7.6691 0.0000 0.0000 0.0000
# 2 54.3701 158.1932 38.4591 0.0000 0.0000 0.0000
# 3 7.6691 38.4591 49.0362 0.0000 0.0000 0.0000
# 4 0.0000 0.0000 0.0000 29.9087 0.0000 0.0000
# 5 0.0000 0.0000 0.0000 0.0000 25.7627 0.0000
# 6 0.0000 0.0000 0.0000 0.0000 0.0000 2.6081
#
#
#
# Elastic Compliance Matrix: (Units=1/GPa)
#
#
# Indices 1 2 3 4 5 6 
#
# 1 0.008387 -0.003168 0.001173 0.000000 0.000000 0.000000
# 2 -0.003168 0.009007 -0.006569 0.000000 0.000000 0.000000
# 3 0.001173 -0.006569 0.025362 0.000000 0.000000 0.000000
# 4 0.000000 0.000000 0.000000 0.033435 0.000000 0.000000
# 5 0.000000 0.000000 0.000000 0.000000 0.038816 0.000000
# 6 0.000000 0.000000 0.000000 0.000000 0.000000 0.383417
#
#
# Mechanical properties :
#
#
# Convention : Reuss Voigt Hill
#
# Bulk Modulus (GPa) = 39.01981 60.76918 49.89449
# Shear Modulus (GPa) = 9.54028 28.01774 18.77901
#
# Velocity S-wave (km/s) = 2.13701 3.66220 2.99821
# Velocity P-wave (km/s) = 4.97668 6.85359 5.98912
#
# Compressibility (1/GPa) = 0.02562801
#
# Stress axis : x y z
#
# Youngs Moduli (GPa) = 119.23399 111.02418 39.42970
#
# Poissons Ratio (x) = 0.35168 -0.04624
# Poissons Ratio (y) = 0.37769 0.25901
# Poissons Ratio (z) = -0.13982 0.72930
#
# Static dielectric constant tensor:
#      x y z
#    x 1.721070 0.000000 0.000000 
#    y 0.000000 1.735910 0.000000 
#    z 0.000000 0.000000 1.813220 
# 
# From -- ./inp_files/14394.got.cif
#   From: 2010.05.17/outbox.cif.g08.bks.cpg/sg67_8_cif.got.tgz:14394.got - 2010.06.03 18:28:57.
