data_PCOD9504502
_publ_section_title
;
Structure prediction by ZEFSAII (Michael W. Deem and Ramdas Pophale) SiO2 
 PCOD9504502
Probable space group: C M M A
;
_chemical_formula_sum "Si O2"
_cell_formula_units_Z 56
_cell_length_a 20.218455
_cell_length_b 20.939098
_cell_length_c 5.747943
_cell_angle_alpha 90.000000
_cell_angle_beta 90.000000
_cell_angle_gamma 90.000000
_cell_volume 2433.427368
_symmetry_space_group_name_H-M "C M M A"
_symmetry_group_IT_number 67
_symmetry_cell_setting 'orthorhombic'
loop_
_space_group_symop_operation_xyz
x,y,z
-x,1/2-y,z
x,-y,-z
-x,1/2+y,-z
-x,-y,-z
x,1/2+y,-z
-x,y,z
x,1/2-y,z
1/2+x,1/2+y,z
1/2-x,-y,z
1/2+x,1/2-y,-z
1/2-x,y,-z
1/2-x,1/2-y,-z
1/2+x,y,-z
1/2-x,1/2+y,z
1/2+x,-y,z
loop_
_atom_site_type_symbol
_atom_site_label
_atom_site_fract_x
_atom_site_fract_y
_atom_site_fract_z
Si Si1 0.926660 0.324166 0.837769
Si Si2 0.573622 0.056292 0.820765
Si Si3 0.287584 0.750000 0.244763
Si Si4 0.326446 0.873856 0.456617
O O1 0.919550 0.250000 0.911188
O O2 0.865892 0.343139 0.672347
O O3 0.000000 0.327689 0.716969
O O4 0.929937 0.377821 0.034438
O O5 0.500000 0.044038 0.725171
O O6 0.629709 0.067886 0.632229
O O7 0.589697 0.000000 0.000000
O O8 0.250000 0.750000 0.500000
O O9 0.324603 0.816960 0.266152
O O10 0.250000 0.750000 0.000000
O O11 0.250000 0.891094 0.500000
#
# Coordination Sequence:
#
# PCOD9504502 Si02
#       4
#    16  16   8  16
#     4  10  22  41  67 100 131 171 232 293 354 431
#     4  10  24  45  68  93 133 186 233 290 365 445
#     4  10  24  40  67 102 145 192 229 288 381 444
#     4  11  24  39  68  98 136 179 229 295 365 433
#
# _framework density 23.012809000000001
#
# number of rings (size 3 to 8) (size 9 to 14) (size 15 to 20)
#    0.000    1.714    1.429    0.857   10.000    1.143 
#    0.000    8.571    0.000    0.000    0.000    0.000 
#    0.000    0.000    0.000    0.000    0.000    0.000 
#
# Total GULP energy -156401.393900 kJ/mol
# GULP energy per Si atom -5585.764068 kJ/mol
# Density = 2.296043 g / cm^3
# Si number density = 23.012809 Si / 1000 Ang^3
#
#
#
# Elastic Constant Matrix: (Units=GPa)
#
#
# Indices 1 2 3 4 5 6 
#
# 1 120.6072 38.4622 32.2698 0.0000 0.0000 0.0000
# 2 38.4622 129.5133 37.2684 0.0000 0.0000 0.0000
# 3 32.2698 37.2684 64.3579 0.0000 0.0000 0.0000
# 4 0.0000 0.0000 0.0000 37.5352 0.0000 0.0000
# 5 0.0000 0.0000 0.0000 0.0000 29.0599 0.0000
# 6 0.0000 0.0000 0.0000 0.0000 0.0000 16.1604
#
#
#
# Elastic Compliance Matrix: (Units=1/GPa)
#
#
# Indices 1 2 3 4 5 6 
#
# 1 0.009920 -0.001818 -0.003922 0.000000 0.000000 0.000000
# 2 -0.001818 0.009598 -0.004647 0.000000 0.000000 0.000000
# 3 -0.003922 -0.004647 0.020195 0.000000 0.000000 0.000000
# 4 0.000000 0.000000 0.000000 0.026642 0.000000 0.000000
# 5 0.000000 0.000000 0.000000 0.000000 0.034412 0.000000
# 6 0.000000 0.000000 0.000000 0.000000 0.000000 0.061880
#
#
# Mechanical properties :
#
#
# Convention : Reuss Voigt Hill
#
# Bulk Modulus (GPa) = 52.79321 58.94213 55.86767
# Shear Modulus (GPa) = 26.35289 30.31629 28.33459
#
# Velocity S-wave (km/s) = 3.38766 3.63349 3.51273
# Velocity P-wave (km/s) = 6.18808 6.57810 6.38606
#
# Compressibility (1/GPa) = 0.01894183
#
# Stress axis : x y z
#
# Youngs Moduli (GPa) = 100.80344 104.18702 49.51653
#
# Poissons Ratio (x) = 0.18937 0.19418
# Poissons Ratio (y) = 0.18322 0.23009
# Poissons Ratio (z) = 0.39531 0.48413
#
# Static dielectric constant tensor:
#      x y z
#    x 1.933050 0.000000 0.000000 
#    y 0.000000 1.848450 0.000000 
#    z 0.000000 0.000000 1.873040 
# 
# From -- ./inp_files/2691.got.cif
#   From: 2010.05.17/outbox.cif.g08.bks.cpg/sg67_2_cif.got.tgz:2691.got - 2010.06.03 18:28:57.
