data_PCOD9504698
_publ_section_title
;
Structure prediction by ZEFSAII (Michael W. Deem and Ramdas Pophale) SiO2 
 PCOD9504698
Probable space group: C M M A
;
_chemical_formula_sum "Si O2"
_cell_formula_units_Z 52
_cell_length_a 28.765260
_cell_length_b 15.688947
_cell_length_c 5.203629
_cell_angle_alpha 90.000000
_cell_angle_beta 90.000000
_cell_angle_gamma 90.000000
_cell_volume 2348.380281
_symmetry_space_group_name_H-M "C M M A"
_symmetry_group_IT_number 67
_symmetry_cell_setting 'orthorhombic'
loop_
_space_group_symop_operation_xyz
x,y,z
-x,1/2-y,z
x,-y,-z
-x,1/2+y,-z
-x,-y,-z
x,1/2+y,-z
-x,y,z
x,1/2-y,z
1/2+x,1/2+y,z
1/2-x,-y,z
1/2+x,1/2-y,-z
1/2-x,y,-z
1/2-x,1/2-y,-z
1/2+x,y,-z
1/2-x,1/2+y,z
1/2+x,-y,z
loop_
_atom_site_type_symbol
_atom_site_label
_atom_site_fract_x
_atom_site_fract_y
_atom_site_fract_z
Si Si1 0.398201 0.346788 0.574763
Si Si2 0.447715 0.097393 0.083141
Si Si3 0.293127 0.346344 0.694499
Si Si4 0.750000 0.500000 0.000000
O O1 0.408093 0.250000 0.498530
O O2 0.415841 0.359802 0.865075
O O3 0.342897 0.359321 0.562871
O O4 0.425371 0.400475 0.364267
O O5 0.500000 0.134094 0.085730
O O6 0.450854 0.000000 0.000000
O O7 0.295540 0.250000 0.819442
O O8 0.250000 0.342652 0.500000
O O9 0.282856 0.431606 0.855581
#
# Coordination Sequence:
#
# PCOD9504698 Si02
#       4
#    16  16  16   4
#     4  11  25  44  70 100 135 182 228 281 346 410
#     4  11  25  44  68 100 138 177 228 288 343 407
#     4  10  25  45  66 100 142 179 230 291 344 415
#     4  12  24  40  72 100 130 188 232 276 354 418
#
# _framework density 22.142923
#
# number of rings (size 3 to 8) (size 9 to 14) (size 15 to 20)
#    0.000    1.231    0.000    3.692    6.462    8.615 
#    0.000    0.000    0.000    0.000    0.000    0.000 
#    0.000    0.000    0.000    0.000    0.000    0.000 
#
# Total GULP energy -145220.910173 kJ/mol
# GULP energy per Si atom -5585.419622 kJ/mol
# Density = 2.209252 g / cm^3
# Si number density = 22.142923 Si / 1000 Ang^3
#
#
#
# Elastic Constant Matrix: (Units=GPa)
#
#
# Indices 1 2 3 4 5 6 
#
# 1 139.9930 16.8788 27.8791 0.0000 0.0000 0.0000
# 2 16.8788 144.0139 24.1023 0.0000 0.0000 0.0000
# 3 27.8791 24.1023 70.8622 0.0000 0.0000 0.0000
# 4 0.0000 0.0000 0.0000 21.9893 0.0000 0.0000
# 5 0.0000 0.0000 0.0000 0.0000 30.3981 0.0000
# 6 0.0000 0.0000 0.0000 0.0000 0.0000 13.9416
#
#
#
# Elastic Compliance Matrix: (Units=1/GPa)
#
#
# Indices 1 2 3 4 5 6 
#
# 1 0.007775 -0.000423 -0.002915 0.000000 0.000000 0.000000
# 2 -0.000423 0.007386 -0.002346 0.000000 0.000000 0.000000
# 3 -0.002915 -0.002346 0.016056 0.000000 0.000000 0.000000
# 4 0.000000 0.000000 0.000000 0.045477 0.000000 0.000000
# 5 0.000000 0.000000 0.000000 0.000000 0.032897 0.000000
# 6 0.000000 0.000000 0.000000 0.000000 0.000000 0.071728
#
#
# Mechanical properties :
#
#
# Convention : Reuss Voigt Hill
#
# Bulk Modulus (GPa) = 50.37887 54.73215 52.55551
# Shear Modulus (GPa) = 25.08753 32.33308 28.71030
#
# Velocity S-wave (km/s) = 3.36963 3.82540 3.60473
# Velocity P-wave (km/s) = 6.15957 6.65454 6.41183
#
# Compressibility (1/GPa) = 0.01984959
#
# Stress axis : x y z
#
# Youngs Moduli (GPa) = 128.62188 135.39205 62.28023
#
# Poissons Ratio (x) = 0.05732 0.18153
# Poissons Ratio (y) = 0.05446 0.14608
# Poissons Ratio (z) = 0.37490 0.31758
#
# Static dielectric constant tensor:
#      x y z
#    x 1.847690 0.000000 0.000000 
#    y 0.000000 1.842230 0.000000 
#    z 0.000000 0.000000 1.859070 
# 
# From -- ./inp_files/1357.got.cif
#   From: 2010.05.17/outbox.cif.g08.bks.cpg/sg67_1_cif.got.tgz:1357.got - 2010.06.03 18:28:57.
