data_PCOD9504939
_publ_section_title
;
Structure prediction by ZEFSAII (Michael W. Deem and Ramdas Pophale) SiO2 
 PCOD9504939
Probable space group: C M M A
;
_chemical_formula_sum "Si O2"
_cell_formula_units_Z 48
_cell_length_a 18.821606
_cell_length_b 14.593057
_cell_length_c 8.012423
_cell_angle_alpha 90.000000
_cell_angle_beta 90.000000
_cell_angle_gamma 90.000000
_cell_volume 2200.730314
_symmetry_space_group_name_H-M "C M M A"
_symmetry_group_IT_number 67
_symmetry_cell_setting 'orthorhombic'
loop_
_space_group_symop_operation_xyz
x,y,z
-x,1/2-y,z
x,-y,-z
-x,1/2+y,-z
-x,-y,-z
x,1/2+y,-z
-x,y,z
x,1/2-y,z
1/2+x,1/2+y,z
1/2-x,-y,z
1/2+x,1/2-y,-z
1/2-x,y,-z
1/2-x,1/2-y,-z
1/2+x,y,-z
1/2-x,1/2+y,z
1/2+x,-y,z
loop_
_atom_site_type_symbol
_atom_site_label
_atom_site_fract_x
_atom_site_fract_y
_atom_site_fract_z
Si Si1 0.080919 0.750000 0.094990
Si Si2 0.695679 0.900585 0.348816
Si Si3 0.418785 0.250000 0.691956
Si Si4 0.326781 0.427855 0.153725
O O1 0.120286 0.656716 0.147904
O O2 0.000000 0.750000 0.155426
O O3 0.080283 0.750000 0.893422
O O4 0.750000 0.884072 0.500000
O O5 0.628507 0.836036 0.361337
O O6 0.747817 0.885519 0.187110
O O7 0.667627 0.003113 0.311958
O O8 0.500000 0.250000 0.632640
O O9 0.336625 0.500000 0.000000
#
# Coordination Sequence:
#
# PCOD9504939 Si02
#       4
#     8  16   8  16
#     4  11  25  41  64 102 141 176 218 275 338 402
#     4  11  23  42  67 100 132 174 228 282 327 392
#     4  11  24  41  67 100 139 180 216 271 346 403
#     4  11  22  40  69  98 129 173 229 280 325 385
#
# _framework density 21.810939999999999
#
# number of rings (size 3 to 8) (size 9 to 14) (size 15 to 20)
#    0.000    1.000    3.333    5.500    0.000    3.333 
#    0.000    5.833    0.000   12.000    0.000    0.000 
#    0.000    0.000    0.000    0.000    0.000    0.000 
#
# Total GULP energy -133814.161456 kJ/mol
# GULP energy per Si atom -5575.590061 kJ/mol
# Density = 2.176130 g / cm^3
# Si number density = 21.810940 Si / 1000 Ang^3
#
#
#
# Elastic Constant Matrix: (Units=GPa)
#
#
# Indices 1 2 3 4 5 6 
#
# 1 224.2988 146.9335 49.4888 0.0000 0.0000 0.0000
# 2 146.9335 143.7050 29.1852 0.0000 0.0000 0.0000
# 3 49.4888 29.1852 79.2763 0.0000 0.0000 0.0000
# 4 0.0000 0.0000 0.0000 19.2595 0.0000 0.0000
# 5 0.0000 0.0000 0.0000 0.0000 28.8528 0.0000
# 6 0.0000 0.0000 0.0000 0.0000 0.0000 -58.0893
#
#
#
# Elastic Compliance Matrix: (Units=1/GPa)
#
#
# Indices 1 2 3 4 5 6 
#
# 1 0.014535 -0.014070 -0.003893 0.000000 0.000000 0.000000
# 2 -0.014070 0.021142 0.001000 0.000000 0.000000 0.000000
# 3 -0.003893 0.001000 0.014676 0.000000 0.000000 0.000000
# 4 0.000000 0.000000 0.000000 0.051923 0.000000 0.000000
# 5 0.000000 0.000000 0.000000 0.000000 0.034659 0.000000
# 6 0.000000 0.000000 0.000000 0.000000 0.000000 -0.017215
#
#
# Mechanical properties :
#
#
# Convention : Reuss Voigt Hill
#
# Bulk Modulus (GPa) = 60.87960 99.83277 80.35618
# Shear Modulus (GPa) = 31.42245 12.78277 22.10261
#
# Velocity S-wave (km/s) = 3.79974 2.42352 3.18681
# Velocity P-wave (km/s) = 6.87195 7.32820 7.10374
#
# Compressibility (1/GPa) = 0.01642586
#
# Stress axis : x y z
#
# Youngs Moduli (GPa) = 68.80134 47.29899 68.13685
#
# Poissons Ratio (x) = 0.66552 0.26528
# Poissons Ratio (y) = 0.96806 -0.06815
# Poissons Ratio (z) = 0.26787 -0.04731
#
# Static dielectric constant tensor:
#      x y z
#    x 1.776960 0.000000 0.000000 
#    y 0.000000 1.817100 0.000000 
#    z 0.000000 0.000000 1.949410 
# 
# From -- ./inp_files/10607.got.cif
#   From: 2010.05.17/outbox.cif.g08.bks.cpg/sg67_6_cif.got.tgz:10607.got - 2010.06.03 18:28:57.
