data_PCOD9504589
_publ_section_title
;
Structure prediction by ZEFSAII (Michael W. Deem and Ramdas Pophale) SiO2 
 PCOD9504589
Probable space group: C M M A
;
_chemical_formula_sum "Si O2"
_cell_formula_units_Z 88
_cell_length_a 18.724803
_cell_length_b 20.296822
_cell_length_c 11.478391
_cell_angle_alpha 90.000000
_cell_angle_beta 90.000000
_cell_angle_gamma 90.000000
_cell_volume 4362.408338
_symmetry_space_group_name_H-M "C M M A"
_symmetry_group_IT_number 67
_symmetry_cell_setting 'orthorhombic'
loop_
_space_group_symop_operation_xyz
x,y,z
-x,1/2-y,z
x,-y,-z
-x,1/2+y,-z
-x,-y,-z
x,1/2+y,-z
-x,y,z
x,1/2-y,z
1/2+x,1/2+y,z
1/2-x,-y,z
1/2+x,1/2-y,-z
1/2-x,y,-z
1/2-x,1/2-y,-z
1/2+x,y,-z
1/2-x,1/2+y,z
1/2+x,-y,z
loop_
_atom_site_type_symbol
_atom_site_label
_atom_site_fract_x
_atom_site_fract_y
_atom_site_fract_z
Si Si1 0.873946 0.845516 0.443938
Si Si2 0.914261 0.174262 0.057803
Si Si3 0.000000 0.750000 0.369112
Si Si4 0.173594 0.066366 0.938728
Si Si5 0.585106 0.388238 0.693539
Si Si6 0.250000 0.750000 0.500000
Si Si7 0.672232 0.022808 0.326194
O O1 0.894603 0.845187 0.581147
O O2 0.799590 0.807132 0.436829
O O3 0.863212 0.920459 0.403499
O O4 0.936825 0.807443 0.377575
O O5 0.892702 0.250000 0.044562
O O6 0.894506 0.147852 0.186442
O O7 0.000000 0.170693 0.047449
O O8 0.877205 0.127165 0.965217
O O9 0.182662 0.052783 0.802999
O O10 0.250000 0.077905 0.000000
O O11 0.143777 0.000000 0.000000
O O12 0.500000 0.397136 0.693896
O O13 0.623554 0.458286 0.684696
O O14 0.750000 0.000000 0.368303
#
# Coordination Sequence:
#
# PCOD9504589 Si02
#       7
#    16  16   4  16  16   4  16
#     4  11  24  42  65  96 133 178 223 267 338 395
#     4  10  23  41  64  98 131 172 223 271 325 393
#     4  10  24  46  62  90 142 184 218 268 328 424
#     4  11  21  44  67  92 128 170 219 270 336 390
#     4  11  23  39  68  97 129 170 221 273 328 393
#     4  10  24  42  62  90 130 178 216 260 320 408
#     4  12  24  42  67  97 132 170 219 288 333 395
#
# _framework density 20.172343999999999
#
# number of rings (size 3 to 8) (size 9 to 14) (size 15 to 20)
#    0.000    1.091    4.545    1.636    3.818    2.909 
#    3.273    0.000    0.000    0.000    0.000    0.000 
#    0.000    0.000    0.000    0.000    0.000    0.000 
#
# Total GULP energy -244958.371751 kJ/mol
# GULP energy per Si atom -5567.235722 kJ/mol
# Density = 2.012643 g / cm^3
# Si number density = 20.172344 Si / 1000 Ang^3
#
#
#
# Elastic Constant Matrix: (Units=GPa)
#
#
# Indices 1 2 3 4 5 6 
#
# 1 41.2394 35.9179 4.6301 0.0000 0.0000 0.0000
# 2 35.9179 143.2359 4.8001 0.0000 0.0000 0.0000
# 3 4.6301 4.8001 65.6816 0.0000 0.0000 0.0000
# 4 0.0000 0.0000 0.0000 19.0154 0.0000 0.0000
# 5 0.0000 0.0000 0.0000 0.0000 1.4272 0.0000
# 6 0.0000 0.0000 0.0000 0.0000 0.0000 25.0384
#
#
#
# Elastic Compliance Matrix: (Units=1/GPa)
#
#
# Indices 1 2 3 4 5 6 
#
# 1 0.031198 -0.007769 -0.001631 0.000000 0.000000 0.000000
# 2 -0.007769 0.008933 -0.000105 0.000000 0.000000 0.000000
# 3 -0.001631 -0.000105 0.015348 0.000000 0.000000 0.000000
# 4 0.000000 0.000000 0.000000 0.052589 0.000000 0.000000
# 5 0.000000 0.000000 0.000000 0.000000 0.700661 0.000000
# 6 0.000000 0.000000 0.000000 0.000000 0.000000 0.039939
#
#
# Mechanical properties :
#
#
# Convention : Reuss Voigt Hill
#
# Bulk Modulus (GPa) = 27.42117 37.87256 32.64687
# Shear Modulus (GPa) = 5.68289 22.75013 14.21651
#
# Velocity S-wave (km/s) = 1.68026 3.36190 2.65760
# Velocity P-wave (km/s) = 4.16981 5.82109 5.06322
#
# Compressibility (1/GPa) = 0.03646817
#
# Stress axis : x y z
#
# Youngs Moduli (GPa) = 32.05338 111.94370 65.15652
#
# Poissons Ratio (x) = 0.86964 0.10630
# Poissons Ratio (y) = 0.24901 0.00686
# Poissons Ratio (z) = 0.05229 0.01178
#
# Static dielectric constant tensor:
#      x y z
#    x 1.701940 0.000000 0.000000 
#    y 0.000000 1.703480 0.000000 
#    z 0.000000 0.000000 1.724820 
# 
# From -- ./inp_files/20676.got.cif
#   From: 2010.05.17/outbox.cif.g08.bks.cpg/sg67_11_cif.got.tgz:20676.got - 2010.06.03 18:28:57.
