data_PCOD9504146
_publ_section_title
;
Structure prediction by ZEFSAII (Michael W. Deem and Ramdas Pophale) SiO2 
 PCOD9504146
Probable space group: C M M A
;
_chemical_formula_sum "Si O2"
_cell_formula_units_Z 72
_cell_length_a 8.869581
_cell_length_b 16.218425
_cell_length_c 24.966101
_cell_angle_alpha 90.000000
_cell_angle_beta 90.000000
_cell_angle_gamma 90.000000
_cell_volume 3591.389463
_symmetry_space_group_name_H-M "C M M A"
_symmetry_group_IT_number 67
_symmetry_cell_setting 'orthorhombic'
loop_
_space_group_symop_operation_xyz
x,y,z
-x,1/2-y,z
x,-y,-z
-x,1/2+y,-z
-x,-y,-z
x,1/2+y,-z
-x,y,z
x,1/2-y,z
1/2+x,1/2+y,z
1/2-x,-y,z
1/2+x,1/2-y,-z
1/2-x,y,-z
1/2-x,1/2-y,-z
1/2+x,y,-z
1/2-x,1/2+y,z
1/2+x,-y,z
loop_
_atom_site_type_symbol
_atom_site_label
_atom_site_fract_x
_atom_site_fract_y
_atom_site_fract_z
Si Si1 0.824347 0.154116 0.770127
Si Si2 0.179809 0.089923 0.335389
Si Si3 0.819278 0.914164 0.875315
Si Si4 0.318148 0.750000 0.058962
Si Si5 0.173573 0.650288 0.444644
O O1 0.816527 0.250000 0.786016
O O2 0.746262 0.144011 0.712775
O O3 0.741249 0.101554 0.815356
O O4 0.000000 0.130048 0.766345
O O5 0.235264 0.121425 0.392976
O O6 0.000000 0.088071 0.333164
O O7 0.250000 0.000000 0.327244
O O8 0.773810 0.833625 0.909705
O O9 0.000000 0.919490 0.874907
O O10 0.750000 0.000000 0.895651
O O11 0.500000 0.750000 0.056137
O O12 0.250000 0.750000 0.000000
O O13 0.173104 0.750000 0.444985
O O14 0.250000 0.622336 0.500000
O O15 0.000000 0.622049 0.441321
#
# Coordination Sequence:
#
# PCOD9504146 Si02
#       5
#    16  16  16   8  16
#     4  11  23  40  64  93 125 164 208 258 316 379
#     4  12  25  40  59  85 120 159 202 253 310 372
#     4  11  23  42  66  97 133 173 219 269 324 383
#     4  10  24  44  68  96 134 176 221 270 321 380
#     4  10  21  39  62  87 116 151 196 248 304 371
#
# _framework density 20.04795
#
# number of rings (size 3 to 8) (size 9 to 14) (size 15 to 20)
#    0.000    1.111    1.111    5.333    0.000    8.000 
#    0.000    4.444    0.000    0.000    0.000    0.000 
#    0.000    0.000    0.000    0.000    0.000    0.000 
#
# Total GULP energy -201395.791846 kJ/mol
# GULP energy per Si atom -5594.327551 kJ/mol
# Density = 2.000232 g / cm^3
# Si number density = 20.047950 Si / 1000 Ang^3
#
#
#
# Elastic Constant Matrix: (Units=GPa)
#
#
# Indices 1 2 3 4 5 6 
#
# 1 136.7419 51.8819 47.7624 0.0000 0.0000 0.0000
# 2 51.8819 104.6315 48.5377 0.0000 0.0000 0.0000
# 3 47.7624 48.5377 122.4913 0.0000 0.0000 0.0000
# 4 0.0000 0.0000 0.0000 5.9800 0.0000 0.0000
# 5 0.0000 0.0000 0.0000 0.0000 39.5118 0.0000
# 6 0.0000 0.0000 0.0000 0.0000 0.0000 32.1472
#
#
#
# Elastic Compliance Matrix: (Units=1/GPa)
#
#
# Indices 1 2 3 4 5 6 
#
# 1 0.009488 -0.003661 -0.002249 0.000000 0.000000 0.000000
# 2 -0.003661 0.013123 -0.003772 0.000000 0.000000 0.000000
# 3 -0.002249 -0.003772 0.010535 0.000000 0.000000 0.000000
# 4 0.000000 0.000000 0.000000 0.167223 0.000000 0.000000
# 5 0.000000 0.000000 0.000000 0.000000 0.025309 0.000000
# 6 0.000000 0.000000 0.000000 0.000000 0.000000 0.031107
#
#
# Mechanical properties :
#
#
# Convention : Reuss Voigt Hill
#
# Bulk Modulus (GPa) = 72.56227 73.35873 72.96050
# Shear Modulus (GPa) = 17.80989 29.90665 23.85827
#
# Velocity S-wave (km/s) = 2.98378 3.86652 3.45347
# Velocity P-wave (km/s) = 6.93855 7.52359 7.23698
#
# Compressibility (1/GPa) = 0.01378127
#
# Stress axis : x y z
#
# Youngs Moduli (GPa) = 105.40021 76.20331 94.91771
#
# Poissons Ratio (x) = 0.27901 0.21344
# Poissons Ratio (y) = 0.38591 0.35806
# Poissons Ratio (z) = 0.23701 0.28746
#
# Static dielectric constant tensor:
#      x y z
#    x 1.673130 0.000000 0.000000 
#    y 0.000000 1.867600 0.000000 
#    z 0.000000 0.000000 1.670620 
# 
# From -- ./inp_files/43092.got.cif
#   From: 2010.05.17/outbox.cif.g08.bks.cpg/sg67_22_cif.got.tgz:43092.got - 2010.06.03 18:28:57.
