data_PCOD9504683
_publ_section_title
;
Structure prediction by ZEFSAII (Michael W. Deem and Ramdas Pophale) SiO2 
 PCOD9504683
Probable space group: C M M A
;
_chemical_formula_sum "Si O2"
_cell_formula_units_Z 88
_cell_length_a 16.106085
_cell_length_b 8.947186
_cell_length_c 30.593748
_cell_angle_alpha 90.000000
_cell_angle_beta 90.000000
_cell_angle_gamma 90.000000
_cell_volume 4408.685691
_symmetry_space_group_name_H-M "C M M A"
_symmetry_group_IT_number 67
_symmetry_cell_setting 'orthorhombic'
loop_
_space_group_symop_operation_xyz
x,y,z
-x,1/2-y,z
x,-y,-z
-x,1/2+y,-z
-x,-y,-z
x,1/2+y,-z
-x,y,z
x,1/2-y,z
1/2+x,1/2+y,z
1/2-x,-y,z
1/2+x,1/2-y,-z
1/2-x,y,-z
1/2-x,1/2-y,-z
1/2+x,y,-z
1/2-x,1/2+y,z
1/2+x,-y,z
loop_
_atom_site_type_symbol
_atom_site_label
_atom_site_fract_x
_atom_site_fract_y
_atom_site_fract_z
Si Si1 0.839511 0.572293 0.271905
Si Si2 0.164460 0.429109 0.897691
Si Si3 0.000000 0.070004 0.952206
Si Si4 0.096198 0.576803 0.812568
Si Si5 0.400816 0.571515 0.455939
Si Si6 0.899493 0.924402 0.640205
O O1 0.837438 0.750000 0.268254
O O2 0.750000 0.500000 0.264250
O O3 0.896189 0.501199 0.234313
O O4 0.868150 0.522566 0.319979
O O5 0.170620 0.250000 0.896929
O O6 0.250000 0.500000 0.914578
O O7 0.083717 0.472554 0.926120
O O8 0.148609 0.490761 0.848938
O O9 0.000000 0.250000 0.955336
O O10 0.000000 0.000000 0.000000
O O11 0.122431 0.750000 0.809471
O O12 0.000000 0.572696 0.826205
O O13 0.365248 0.500000 0.500000
O O14 0.500000 0.538063 0.455608
O O15 0.392354 0.750000 0.458340
O O16 0.369586 0.524511 0.407959
O O17 0.875101 0.750000 0.646605
O O18 0.000000 0.927358 0.639846
#
# Coordination Sequence:
#
# PCOD9504683 Si02
#       6
#    16  16   8  16  16  16
#     4  12  25  39  56  79 111 150 192 239 291 350
#     4  11  23  42  66  97 133 172 217 267 320 375
#     4  10  24  44  68  96 134 176 220 272 323 376
#     4  11  23  40  64  92 122 159 200 247 303 364
#     4   8  14  25  44  71 102 135 171 217 272 331
#     4   9  18  34  54  77 108 143 180 226 282 343
#
# _framework density 19.960597
#
# number of rings (size 3 to 8) (size 9 to 14) (size 15 to 20)
#    0.000    1.818    0.909    4.909    0.000    6.182 
#    0.000    3.636    0.000    0.545    0.000    3.818 
#    0.000    0.000    0.000    0.000    0.000    0.000 
#
# Total GULP energy -245771.714618 kJ/mol
# GULP energy per Si atom -5585.720787 kJ/mol
# Density = 1.991517 g / cm^3
# Si number density = 19.960597 Si / 1000 Ang^3
#
#
#
# Elastic Constant Matrix: (Units=GPa)
#
#
# Indices 1 2 3 4 5 6 
#
# 1 85.2792 39.0684 40.0102 0.0000 0.0000 0.0000
# 2 39.0684 90.8712 51.7554 0.0000 0.0000 0.0000
# 3 40.0102 51.7554 132.6053 0.0000 0.0000 0.0000
# 4 0.0000 0.0000 0.0000 39.0007 0.0000 0.0000
# 5 0.0000 0.0000 0.0000 0.0000 3.9502 0.0000
# 6 0.0000 0.0000 0.0000 0.0000 0.0000 26.1100
#
#
#
# Elastic Compliance Matrix: (Units=1/GPa)
#
#
# Indices 1 2 3 4 5 6 
#
# 1 0.015285 -0.005072 -0.002632 0.000000 0.000000 0.000000
# 2 -0.005072 0.015833 -0.004649 0.000000 0.000000 0.000000
# 3 -0.002632 -0.004649 0.010150 0.000000 0.000000 0.000000
# 4 0.000000 0.000000 0.000000 0.025641 0.000000 0.000000
# 5 0.000000 0.000000 0.000000 0.000000 0.253154 0.000000
# 6 0.000000 0.000000 0.000000 0.000000 0.000000 0.038300
#
#
# Mechanical properties :
#
#
# Convention : Reuss Voigt Hill
#
# Bulk Modulus (GPa) = 60.38380 63.38042 61.88211
# Shear Modulus (GPa) = 12.86703 25.67360 19.27031
#
# Velocity S-wave (km/s) = 2.54169 3.59027 3.11049
# Velocity P-wave (km/s) = 6.23945 7.00060 6.63096
#
# Compressibility (1/GPa) = 0.01656073
#
# Stress axis : x y z
#
# Youngs Moduli (GPa) = 65.42429 63.15798 98.52292
#
# Poissons Ratio (x) = 0.32036 0.25932
# Poissons Ratio (y) = 0.33185 0.45806
# Poissons Ratio (z) = 0.17220 0.29364
#
# Static dielectric constant tensor:
#      x y z
#    x 1.558590 0.000000 0.000000 
#    y 0.000000 1.666200 0.000000 
#    z 0.000000 0.000000 1.707340 
# 
# From -- ./inp_files/45793.got.cif
#   From: 2010.05.17/outbox.cif.g08.bks.cpg/sg67_23_cif.got.tgz:45793.got - 2010.06.03 18:28:57.
