data_PCOD9504221
_publ_section_title
;
Structure prediction by ZEFSAII (Michael W. Deem and Ramdas Pophale) SiO2 
 PCOD9504221
Probable space group: C M M A
;
_chemical_formula_sum "Si O2"
_cell_formula_units_Z 96
_cell_length_a 18.071429
_cell_length_b 15.997422
_cell_length_c 16.649073
_cell_angle_alpha 90.000000
_cell_angle_beta 90.000000
_cell_angle_gamma 90.000000
_cell_volume 4813.185001
_symmetry_space_group_name_H-M "C M M A"
_symmetry_group_IT_number 67
_symmetry_cell_setting 'orthorhombic'
loop_
_space_group_symop_operation_xyz
x,y,z
-x,1/2-y,z
x,-y,-z
-x,1/2+y,-z
-x,-y,-z
x,1/2+y,-z
-x,y,z
x,1/2-y,z
1/2+x,1/2+y,z
1/2-x,-y,z
1/2+x,1/2-y,-z
1/2-x,y,-z
1/2-x,1/2-y,-z
1/2+x,y,-z
1/2-x,1/2+y,z
1/2+x,-y,z
loop_
_atom_site_type_symbol
_atom_site_label
_atom_site_fract_x
_atom_site_fract_y
_atom_site_fract_z
Si Si1 0.824907 0.949666 0.198314
Si Si2 0.590937 0.250000 0.616172
Si Si3 0.088106 0.586299 0.901480
Si Si4 0.328054 0.156548 0.044977
Si Si5 0.589606 0.750000 0.198498
Si Si6 0.086754 0.653392 0.324888
Si Si7 0.087710 0.404762 0.492835
O O1 0.812595 0.876490 0.133632
O O2 0.863401 0.910427 0.275544
O O3 0.750000 0.000000 0.215710
O O4 0.879186 0.011345 0.150147
O O5 0.500000 0.250000 0.613101
O O6 0.614834 0.250000 0.709131
O O7 0.615841 0.164568 0.570993
O O8 0.111526 0.669087 0.851923
O O9 0.000000 0.581508 0.905115
O O10 0.120331 0.597670 0.990682
O O11 0.360032 0.250000 0.046891
O O12 0.250000 0.157730 0.000000
O O13 0.500000 0.750000 0.201797
O O14 0.105307 0.750000 0.307493
O O15 0.094005 0.636498 0.419599
O O16 0.000000 0.640615 0.304138
O O17 0.117989 0.500000 0.500000
O O18 0.000000 0.414402 0.473627
#
# Coordination Sequence:
#
# PCOD9504221 Si02
#       7
#    16   8  16  16   8  16  16
#     4  12  25  40  61  90 121 164 210 254 304 378
#     4   9  16  30  54  85 125 163 196 247 314 382
#     4  11  23  40  62  91 122 153 199 263 316 359
#     4  11  23  42  64  84 116 159 203 245 301 372
#     4   9  20  36  55  89 127 153 191 251 314 363
#     4  10  21  40  63  93 130 163 208 265 316 375
#     4   9  17  30  55  90 125 162 203 254 319 377
#
# _framework density 19.945214
#
# number of rings (size 3 to 8) (size 9 to 14) (size 15 to 20)
#    0.000    1.667    3.333    1.500    2.333    2.000 
#    1.500    0.000    0.000    0.500    0.000    2.333 
#    0.000    0.000    0.000    0.000    0.000    0.000 
#
# Total GULP energy -268010.514587 kJ/mol
# GULP energy per Si atom -5583.552387 kJ/mol
# Density = 1.989982 g / cm^3
# Si number density = 19.945214 Si / 1000 Ang^3
#
#
#
# Elastic Constant Matrix: (Units=GPa)
#
#
# Indices 1 2 3 4 5 6 
#
# 1 57.5739 21.6826 15.8945 0.0000 0.0000 0.0000
# 2 21.6826 95.6595 18.4449 0.0000 0.0000 0.0000
# 3 15.8945 18.4449 60.3492 0.0000 0.0000 0.0000
# 4 0.0000 0.0000 0.0000 43.5998 0.0000 0.0000
# 5 0.0000 0.0000 0.0000 0.0000 4.9147 0.0000
# 6 0.0000 0.0000 0.0000 0.0000 0.0000 14.3801
#
#
#
# Elastic Compliance Matrix: (Units=1/GPa)
#
#
# Indices 1 2 3 4 5 6 
#
# 1 0.019903 -0.003720 -0.004105 0.000000 0.000000 0.000000
# 2 -0.003720 0.011804 -0.002628 0.000000 0.000000 0.000000
# 3 -0.004105 -0.002628 0.018455 0.000000 0.000000 0.000000
# 4 0.000000 0.000000 0.000000 0.022936 0.000000 0.000000
# 5 0.000000 0.000000 0.000000 0.000000 0.203473 0.000000
# 6 0.000000 0.000000 0.000000 0.000000 0.000000 0.069540
#
#
# Mechanical properties :
#
#
# Convention : Reuss Voigt Hill
#
# Bulk Modulus (GPa) = 34.18130 36.18072 35.18101
# Shear Modulus (GPa) = 13.27075 23.08296 18.17686
#
# Velocity S-wave (km/s) = 2.58226 3.40563 3.02211
# Velocity P-wave (km/s) = 5.10544 5.80033 5.46394
#
# Compressibility (1/GPa) = 0.02925576
#
# Stress axis : x y z
#
# Youngs Moduli (GPa) = 50.24320 84.71990 54.18700
#
# Poissons Ratio (x) = 0.31514 0.22244
# Poissons Ratio (y) = 0.18689 0.14240
# Poissons Ratio (z) = 0.20625 0.22264
#
# Static dielectric constant tensor:
#      x y z
#    x 1.676460 0.000000 0.000000 
#    y 0.000000 1.742540 0.000000 
#    z 0.000000 0.000000 1.668100 
# 
# From -- ./inp_files/29350.got.cif
#   From: 2010.05.17/outbox.cif.g08.bks.cpg/sg67_15_cif.got.tgz:29350.got - 2010.06.03 18:28:57.
