data_PCOD9504250
_publ_section_title
;
Structure prediction by ZEFSAII (Michael W. Deem and Ramdas Pophale) SiO2 
 PCOD9504250
Probable space group: C M M A
;
_chemical_formula_sum "Si O2"
_cell_formula_units_Z 92
_cell_length_a 20.306732
_cell_length_b 14.416410
_cell_length_c 15.661869
_cell_angle_alpha 90.000000
_cell_angle_beta 90.000000
_cell_angle_gamma 90.000000
_cell_volume 4585.014879
_symmetry_space_group_name_H-M "C M M A"
_symmetry_group_IT_number 67
_symmetry_cell_setting 'orthorhombic'
loop_
_space_group_symop_operation_xyz
x,y,z
-x,1/2-y,z
x,-y,-z
-x,1/2+y,-z
-x,-y,-z
x,1/2+y,-z
-x,y,z
x,1/2-y,z
1/2+x,1/2+y,z
1/2-x,-y,z
1/2+x,1/2-y,-z
1/2-x,y,-z
1/2-x,1/2-y,-z
1/2+x,y,-z
1/2-x,1/2+y,z
1/2+x,-y,z
loop_
_atom_site_type_symbol
_atom_site_label
_atom_site_fract_x
_atom_site_fract_y
_atom_site_fract_z
Si Si1 0.000000 0.250000 0.575031
Si Si2 0.308933 0.572077 0.700262
Si Si3 0.075560 0.358199 0.784968
Si Si4 0.260470 0.750000 0.240808
Si Si5 0.885384 0.397771 0.531211
Si Si6 0.075186 0.390154 0.987006
Si Si7 0.310959 0.250000 0.567326
Si Si8 0.318553 0.750000 0.054969
O O1 0.942330 0.331919 0.568042
O O2 0.250000 0.500000 0.703291
O O3 0.380053 0.561107 0.744009
O O4 0.283376 0.658694 0.755052
O O5 0.328375 0.593489 0.603040
O O6 0.089209 0.250000 0.759183
O O7 0.080288 0.364947 0.886992
O O8 0.000000 0.372853 0.760219
O O9 0.294360 0.750000 0.333436
O O10 0.301772 0.750000 0.154918
O O11 0.905703 0.500000 0.500000
O O12 0.853374 0.341051 0.453459
O O13 0.000000 0.364337 0.014311
O O14 0.081498 0.500000 0.000000
O O15 0.134484 0.336849 0.032580
O O16 0.250000 0.250000 0.500000
O O17 0.250000 0.750000 0.000000
#
# Coordination Sequence:
#
# PCOD9504250 Si02
#       8
#     4  16  16   8  16  16   8   8
#     4  10  24  44  70  98 132 174 226 288 346 404
#     4  12  25  39  64 100 137 174 224 281 338 402
#     4  10  21  40  68  96 127 170 227 284 334 405
#     4  12  24  41  60  97 138 177 223 269 341 410
#     4  11  24  42  70  97 133 181 232 278 341 403
#     4  10  22  44  70  92 127 176 228 271 335 417
#     4  11  21  41  65  90 134 184 224 272 333 405
#     4  12  25  41  66 100 137 174 213 284 352 392
#
# _framework density 20.065366999999998
#
# number of rings (size 3 to 8) (size 9 to 14) (size 15 to 20)
#    0.000    1.043    3.478    3.130    3.652    0.348 
#    0.000    0.000    7.652    0.000    0.000    0.000 
#    0.000    0.000    0.000    0.000    0.000    0.000 
#
# Total GULP energy -256224.546394 kJ/mol
# GULP energy per Si atom -5570.098835 kJ/mol
# Density = 2.001970 g / cm^3
# Si number density = 20.065367 Si / 1000 Ang^3
#
#
#
# Elastic Constant Matrix: (Units=GPa)
#
#
# Indices 1 2 3 4 5 6 
#
# 1 151.1470 70.1847 50.4683 0.0000 0.0000 0.0000
# 2 70.1847 126.1810 15.9902 0.0000 0.0000 0.0000
# 3 50.4683 15.9902 97.9982 0.0000 0.0000 0.0000
# 4 0.0000 0.0000 0.0000 20.8629 0.0000 0.0000
# 5 0.0000 0.0000 0.0000 0.0000 24.1670 0.0000
# 6 0.0000 0.0000 0.0000 0.0000 0.0000 47.1025
#
#
#
# Elastic Compliance Matrix: (Units=1/GPa)
#
#
# Indices 1 2 3 4 5 6 
#
# 1 0.010627 -0.005328 -0.004604 0.000000 0.000000 0.000000
# 2 -0.005328 0.010763 0.000987 0.000000 0.000000 0.000000
# 3 -0.004604 0.000987 0.012414 0.000000 0.000000 0.000000
# 4 0.000000 0.000000 0.000000 0.047932 0.000000 0.000000
# 5 0.000000 0.000000 0.000000 0.000000 0.041379 0.000000
# 6 0.000000 0.000000 0.000000 0.000000 0.000000 0.021230
#
#
# Mechanical properties :
#
#
# Convention : Reuss Voigt Hill
#
# Bulk Modulus (GPa) = 62.82636 72.06805 67.44720
# Shear Modulus (GPa) = 29.84390 34.33869 32.09129
#
# Velocity S-wave (km/s) = 3.86078 4.14132 4.00351
# Velocity P-wave (km/s) = 7.15912 7.67216 7.42007
#
# Compressibility (1/GPa) = 0.01591688
#
# Stress axis : x y z
#
# Youngs Moduli (GPa) = 94.09912 92.90798 80.55452
#
# Poissons Ratio (x) = 0.49498 0.37084
# Poissons Ratio (y) = 0.50133 -0.07954
# Poissons Ratio (z) = 0.43319 -0.09174
#
# Static dielectric constant tensor:
#      x y z
#    x 1.791450 0.000000 0.000000 
#    y 0.000000 1.483120 0.000000 
#    z 0.000000 0.000000 1.726270 
# 
# From -- ./inp_files/34970.got.cif
#   From: 2010.05.17/outbox.cif.g08.bks.cpg/sg67_18_cif.got.tgz:34970.got - 2010.06.03 18:28:57.
