data_PCOD9504303
_publ_section_title
;
Structure prediction by ZEFSAII (Michael W. Deem and Ramdas Pophale) SiO2 
 PCOD9504303
Probable space group: C M M A
;
_chemical_formula_sum "Si O2"
_cell_formula_units_Z 60
_cell_length_a 21.716958
_cell_length_b 22.793560
_cell_length_c 5.148834
_cell_angle_alpha 90.000000
_cell_angle_beta 90.000000
_cell_angle_gamma 90.000000
_cell_volume 2548.707766
_symmetry_space_group_name_H-M "C M M A"
_symmetry_group_IT_number 67
_symmetry_cell_setting 'orthorhombic'
loop_
_space_group_symop_operation_xyz
x,y,z
-x,1/2-y,z
x,-y,-z
-x,1/2+y,-z
-x,-y,-z
x,1/2+y,-z
-x,y,z
x,1/2-y,z
1/2+x,1/2+y,z
1/2-x,-y,z
1/2+x,1/2-y,-z
1/2-x,y,-z
1/2-x,1/2-y,-z
1/2+x,y,-z
1/2-x,1/2+y,z
1/2+x,-y,z
loop_
_atom_site_type_symbol
_atom_site_label
_atom_site_fract_x
_atom_site_fract_y
_atom_site_fract_z
Si Si1 0.250000 0.000000 0.000000
Si Si2 0.709441 0.750000 0.255082
Si Si3 0.639856 0.569191 0.725484
Si Si4 0.000000 0.445197 0.697490
Si Si5 0.127200 0.139506 0.209969
Si Si6 0.500000 0.680069 0.411961
O O1 0.200695 0.033475 0.811709
O O2 0.750000 0.750000 0.500000
O O3 0.669997 0.692201 0.281806
O O4 0.750000 0.750000 0.000000
O O5 0.570310 0.547366 0.804314
O O6 0.636765 0.586799 0.420837
O O7 0.643537 0.624411 0.915975
O O8 0.000000 0.500000 0.500000
O O9 0.000000 0.375551 0.615069
O O10 0.059120 0.164612 0.241508
O O11 0.500000 0.750000 0.491265
#
# Coordination Sequence:
#
# PCOD9504303 Si02
#       6
#     4   8  16   8  16   8
#     4  12  32  48  80 108 152 204 268 318 386 468
#     4  12  26  43  70 103 148 202 242 303 387 463
#     4  11  28  48  75 108 148 199 255 316 385 458
#     4  10  25  51  79 113 157 205 253 325 401 464
#     4  11  25  49  73 107 148 192 251 317 378 462
#     4  10  21  46  77 111 142 192 254 314 374 444
#
# _framework density 23.541340999999999
#
# number of rings (size 3 to 8) (size 9 to 14) (size 15 to 20)
#    0.000    1.067    1.333    2.400   13.067    1.600 
#    2.400    1.333    0.000    0.000    0.000    0.000 
#    0.000    0.000    0.000    0.000    0.000    0.000 
#
# Total GULP energy -167208.813361 kJ/mol
# GULP energy per Si atom -5573.627112 kJ/mol
# Density = 2.348776 g / cm^3
# Si number density = 23.541341 Si / 1000 Ang^3
#
#
#
# Elastic Constant Matrix: (Units=GPa)
#
#
# Indices 1 2 3 4 5 6 
#
# 1 197.2537 45.6088 4.1007 0.0000 0.0000 0.0000
# 2 45.6088 105.7890 10.8029 0.0000 0.0000 0.0000
# 3 4.1007 10.8029 56.2556 0.0000 0.0000 0.0000
# 4 0.0000 0.0000 0.0000 59.9588 0.0000 0.0000
# 5 0.0000 0.0000 0.0000 0.0000 126.9798 0.0000
# 6 0.0000 0.0000 0.0000 0.0000 0.0000 48.3823
#
#
#
# Elastic Compliance Matrix: (Units=1/GPa)
#
#
# Indices 1 2 3 4 5 6 
#
# 1 0.005631 -0.002434 0.000057 0.000000 0.000000 0.000000
# 2 -0.002434 0.010694 -0.001876 0.000000 0.000000 0.000000
# 3 0.000057 -0.001876 0.018132 0.000000 0.000000 0.000000
# 4 0.000000 0.000000 0.000000 0.016678 0.000000 0.000000
# 5 0.000000 0.000000 0.000000 0.000000 0.007875 0.000000
# 6 0.000000 0.000000 0.000000 0.000000 0.000000 0.020669
#
#
# Mechanical properties :
#
#
# Convention : Reuss Voigt Hill
#
# Bulk Modulus (GPa) = 38.53394 53.36925 45.95160
# Shear Modulus (GPa) = 51.63428 66.98326 59.30877
#
# Velocity S-wave (km/s) = 4.68840 5.33997 5.02475
# Velocity P-wave (km/s) = 6.76108 7.79358 7.29562
#
# Compressibility (1/GPa) = 0.02595115
#
# Stress axis : x y z
#
# Youngs Moduli (GPa) = 177.58477 93.51441 55.15069
#
# Poissons Ratio (x) = 0.22757 -0.00314
# Poissons Ratio (y) = 0.43216 0.10347
# Poissons Ratio (z) = -0.01010 0.17544
#
# Static dielectric constant tensor:
#      x y z
#    x 1.909110 0.000000 0.000000 
#    y 0.000000 1.914940 0.000000 
#    z 0.000000 0.000000 1.592280 
# 
# From -- ./inp_files/2782.got.cif
#   From: 2010.05.17/outbox.cif.g08.bks.cpg/sg67_2_cif.got.tgz:2782.got - 2010.06.03 18:28:57.
