data_PCOD9504508
_publ_section_title
;
Structure prediction by ZEFSAII (Michael W. Deem and Ramdas Pophale) SiO2 
 PCOD9504508
Probable space group: C M M A
;
_chemical_formula_sum "Si O2"
_cell_formula_units_Z 84
_cell_length_a 24.794831
_cell_length_b 20.340996
_cell_length_c 7.824057
_cell_angle_alpha 90.000000
_cell_angle_beta 90.000000
_cell_angle_gamma 90.000000
_cell_volume 3946.075339
_symmetry_space_group_name_H-M "C M M A"
_symmetry_group_IT_number 67
_symmetry_cell_setting 'orthorhombic'
loop_
_space_group_symop_operation_xyz
x,y,z
-x,1/2-y,z
x,-y,-z
-x,1/2+y,-z
-x,-y,-z
x,1/2+y,-z
-x,y,z
x,1/2-y,z
1/2+x,1/2+y,z
1/2-x,-y,z
1/2+x,1/2-y,-z
1/2-x,y,-z
1/2-x,1/2-y,-z
1/2+x,y,-z
1/2-x,1/2+y,z
1/2+x,-y,z
loop_
_atom_site_type_symbol
_atom_site_label
_atom_site_fract_x
_atom_site_fract_y
_atom_site_fract_z
Si Si1 0.000000 0.400368 0.376104
Si Si2 0.500000 0.750000 0.707962
Si Si3 0.082041 0.143296 0.838518
Si Si4 0.810296 0.925539 0.705911
Si Si5 0.901859 0.824729 0.778407
Si Si6 0.000000 0.040016 0.757145
Si Si7 0.314054 0.575888 0.707534
O O1 0.052290 0.356798 0.339224
O O2 0.000000 0.433541 0.561307
O O3 0.000000 0.462031 0.246403
O O4 0.547324 0.692322 0.721501
O O5 0.142630 0.127106 0.779201
O O6 0.052081 0.073060 0.839770
O O7 0.078047 0.173741 0.026612
O O8 0.849994 0.870998 0.775522
O O9 0.748296 0.912533 0.755819
O O10 0.815113 0.922883 0.499354
O O11 0.825835 0.999960 0.758001
O O12 0.890972 0.750000 0.726148
#
# Coordination Sequence:
#
# PCOD9504508 Si02
#       7
#     8   4  16  16  16   8  16
#     4  11  23  42  63  88 122 152 206 261 322 353
#     4  10  22  42  54  78 120 166 204 244 286 378
#     4  11  22  40  62  86 122 165 207 245 312 356
#     4   9  20  41  66  96 127 152 210 251 322 362
#     4  12  25  40  57  88 129 169 199 251 302 377
#     4  10  23  40  65  93 112 151 209 271 303 371
#     4   9  19  41  70  93 120 163 197 271 306 365
#
# _framework density 21.286973
#
# number of rings (size 3 to 8) (size 9 to 14) (size 15 to 20)
#    0.000    1.714    0.952    4.857    0.000    7.619 
#   17.143    3.810    0.000    0.000    0.000    0.000 
#    0.000    0.000    0.000    0.000    0.000    0.000 
#
# Total GULP energy -234287.325379 kJ/mol
# GULP energy per Si atom -5578.269652 kJ/mol
# Density = 2.123852 g / cm^3
# Si number density = 21.286973 Si / 1000 Ang^3
#
#
#
# Elastic Constant Matrix: (Units=GPa)
#
#
# Indices 1 2 3 4 5 6 
#
# 1 124.0788 70.0792 17.1059 0.0000 0.0000 0.0000
# 2 70.0792 142.3910 18.9177 0.0000 0.0000 0.0000
# 3 17.1059 18.9177 48.7280 0.0000 0.0000 0.0000
# 4 0.0000 0.0000 0.0000 -36.3572 0.0000 0.0000
# 5 0.0000 0.0000 0.0000 0.0000 15.2562 0.0000
# 6 0.0000 0.0000 0.0000 0.0000 0.0000 -22.6686
#
#
#
# Elastic Compliance Matrix: (Units=1/GPa)
#
#
# Indices 1 2 3 4 5 6 
#
# 1 0.011328 -0.005322 -0.001911 0.000000 0.000000 0.000000
# 2 -0.005322 0.009905 -0.001977 0.000000 0.000000 0.000000
# 3 -0.001911 -0.001977 0.021960 0.000000 0.000000 0.000000
# 4 0.000000 0.000000 0.000000 -0.027505 0.000000 0.000000
# 5 0.000000 0.000000 0.000000 0.000000 0.065547 0.000000
# 6 0.000000 0.000000 0.000000 0.000000 0.000000 -0.044114
#
#
# Mechanical properties :
#
#
# Convention : Reuss Voigt Hill
#
# Bulk Modulus (GPa) = 40.36415 58.60036 49.48226
# Shear Modulus (GPa) = 78.37101 5.18575 41.77838
#
# Velocity S-wave (km/s) = 6.07424 1.56250 4.43496
# Velocity P-wave (km/s) = 8.25822 5.55371 7.03711
#
# Compressibility (1/GPa) = 0.02477446
#
# Stress axis : x y z
#
# Youngs Moduli (GPa) = 88.27373 100.96284 45.53636
#
# Poissons Ratio (x) = 0.53728 0.08701
# Poissons Ratio (y) = 0.46975 0.09003
# Poissons Ratio (z) = 0.16868 0.19962
#
# Static dielectric constant tensor:
#      x y z
#    x 1.761690 0.000000 0.000000 
#    y 0.000000 1.743750 0.000000 
#    z 0.000000 0.000000 1.837420 
# 
# From -- ./inp_files/12411.got.cif
#   From: 2010.05.17/outbox.cif.g08.bks.cpg/sg67_7_cif.got.tgz:12411.got - 2010.06.03 18:28:57.
