data_PCOD9504115
_publ_section_title
;
Structure prediction by ZEFSAII (Michael W. Deem and Ramdas Pophale) SiO2 
 PCOD9504115
Probable space group: C M M A
;
_chemical_formula_sum "Si O2"
_cell_formula_units_Z 52
_cell_length_a 15.356120
_cell_length_b 29.482746
_cell_length_c 5.009498
_cell_angle_alpha 90.000000
_cell_angle_beta 90.000000
_cell_angle_gamma 90.000000
_cell_volume 2268.003058
_symmetry_space_group_name_H-M "C M M A"
_symmetry_group_IT_number 67
_symmetry_cell_setting 'orthorhombic'
loop_
_space_group_symop_operation_xyz
x,y,z
-x,1/2-y,z
x,-y,-z
-x,1/2+y,-z
-x,-y,-z
x,1/2+y,-z
-x,y,z
x,1/2-y,z
1/2+x,1/2+y,z
1/2-x,-y,z
1/2+x,1/2-y,-z
1/2-x,y,-z
1/2-x,1/2-y,-z
1/2+x,y,-z
1/2-x,1/2+y,z
1/2+x,-y,z
loop_
_atom_site_type_symbol
_atom_site_label
_atom_site_fract_x
_atom_site_fract_y
_atom_site_fract_z
Si Si1 0.750000 0.750000 0.000000
Si Si2 0.899757 0.469097 0.761337
Si Si3 0.403479 0.676787 0.046555
Si Si4 0.850018 0.126374 0.536456
O O1 0.823052 0.789157 0.917425
O O2 0.901538 0.500000 0.500000
O O3 0.854367 0.422995 0.670066
O O4 0.000000 0.457337 0.835971
O O5 0.862666 0.500000 0.000000
O O6 0.500000 0.695956 0.092410
O O7 0.392276 0.634073 0.247376
O O8 0.395842 0.659911 0.743310
O O9 0.750000 0.138909 0.500000
#
# Coordination Sequence:
#
# PCOD9504115 Si02
#       4
#     4  16  16  16
#     4  12  26  50  72 112 138 182 250 310 356 444
#     4  10  21  38  64  97 134 177 229 281 337 413
#     4  12  26  46  74 102 144 192 236 298 370 434
#     4  12  24  46  69 103 145 189 240 298 354 433
#
# _framework density 22.927658999999998
#
# number of rings (size 3 to 8) (size 9 to 14) (size 15 to 20)
#    0.000    0.615    3.077    5.077    0.000    5.538 
#    0.000    4.615    0.000    0.000    0.000    0.000 
#    0.000    0.000    0.000    0.000    0.000    0.000 
#
# Total GULP energy -144815.243714 kJ/mol
# GULP energy per Si atom -5569.817066 kJ/mol
# Density = 2.287547 g / cm^3
# Si number density = 22.927659 Si / 1000 Ang^3
#
#
#
# Elastic Constant Matrix: (Units=GPa)
#
#
# Indices 1 2 3 4 5 6 
#
# 1 157.2838 38.9377 34.9449 0.0000 0.0000 0.0000
# 2 38.9377 95.5071 22.9656 0.0000 0.0000 0.0000
# 3 34.9449 22.9656 105.8549 0.0000 0.0000 0.0000
# 4 0.0000 0.0000 0.0000 -45.4086 0.0000 0.0000
# 5 0.0000 0.0000 0.0000 0.0000 31.4991 0.0000
# 6 0.0000 0.0000 0.0000 0.0000 0.0000 17.9114
#
#
#
# Elastic Compliance Matrix: (Units=1/GPa)
#
#
# Indices 1 2 3 4 5 6 
#
# 1 0.007414 -0.002568 -0.001890 0.000000 0.000000 0.000000
# 2 -0.002568 0.011936 -0.001742 0.000000 0.000000 0.000000
# 3 -0.001890 -0.001742 0.010449 0.000000 0.000000 0.000000
# 4 0.000000 0.000000 0.000000 -0.022022 0.000000 0.000000
# 5 0.000000 0.000000 0.000000 0.000000 0.031747 0.000000
# 6 0.000000 0.000000 0.000000 0.000000 0.000000 0.055830
#
#
# Mechanical properties :
#
#
# Convention : Reuss Voigt Hill
#
# Bulk Modulus (GPa) = 57.47631 61.37136 59.42384
# Shear Modulus (GPa) = 44.03220 18.25356 31.14288
#
# Velocity S-wave (km/s) = 4.38709 2.82465 3.68952
# Velocity P-wave (km/s) = 7.12636 6.12076 6.64262
#
# Compressibility (1/GPa) = 0.01739847
#
# Stress axis : x y z
#
# Youngs Moduli (GPa) = 134.88650 83.77865 95.70461
#
# Poissons Ratio (x) = 0.21514 0.18091
# Poissons Ratio (y) = 0.34638 0.16671
# Poissons Ratio (z) = 0.25497 0.14593
#
# Static dielectric constant tensor:
#      x y z
#    x 1.857370 0.000000 0.000000 
#    y 0.000000 1.806450 0.000000 
#    z 0.000000 0.000000 1.824960 
# 
# From -- ./inp_files/1406.got.cif
#   From: 2010.05.17/outbox.cif.g08.bks.cpg/sg67_1_cif.got.tgz:1406.got - 2010.06.03 18:28:57.
