data_PCOD9504452
_publ_section_title
;
Structure prediction by ZEFSAII (Michael W. Deem and Ramdas Pophale) SiO2 
 PCOD9504452
Probable space group: C M M A
;
_chemical_formula_sum "Si O2"
_cell_formula_units_Z 112
_cell_length_a 22.229059
_cell_length_b 16.825834
_cell_length_c 13.478051
_cell_angle_alpha 90.000000
_cell_angle_beta 90.000000
_cell_angle_gamma 90.000000
_cell_volume 5041.093747
_symmetry_space_group_name_H-M "C M M A"
_symmetry_group_IT_number 67
_symmetry_cell_setting 'orthorhombic'
loop_
_space_group_symop_operation_xyz
x,y,z
-x,1/2-y,z
x,-y,-z
-x,1/2+y,-z
-x,-y,-z
x,1/2+y,-z
-x,y,z
x,1/2-y,z
1/2+x,1/2+y,z
1/2-x,-y,z
1/2+x,1/2-y,-z
1/2-x,y,-z
1/2-x,1/2-y,-z
1/2+x,y,-z
1/2-x,1/2+y,z
1/2+x,-y,z
loop_
_atom_site_type_symbol
_atom_site_label
_atom_site_fract_x
_atom_site_fract_y
_atom_site_fract_z
Si Si1 0.566743 0.926741 0.575981
Si Si2 0.786640 0.067867 0.290023
Si Si3 0.931859 0.163396 0.896222
Si Si4 0.598762 0.494452 0.210324
Si Si5 0.588815 0.337039 0.872587
Si Si6 0.179285 0.343935 0.475573
Si Si7 0.733733 0.659912 0.108053
O O1 0.500000 0.887199 0.568041
O O2 0.627106 0.878263 0.546468
O O3 0.566597 0.000000 0.500000
O O4 0.573653 0.962213 0.685834
O O5 0.832250 0.017511 0.224419
O O6 0.825428 0.119983 0.365302
O O7 0.748489 0.119531 0.212173
O O8 0.750000 0.000000 0.347264
O O9 0.904863 0.250000 0.866681
O O10 0.000000 0.162495 0.857143
O O11 0.904375 0.080152 0.863072
O O12 0.933598 0.162725 0.014895
O O13 0.570593 0.579429 0.177529
O O14 0.572429 0.250000 0.827535
O O15 0.661383 0.337110 0.882869
O O16 0.172191 0.250000 0.473233
O O17 0.250000 0.359876 0.500000
O O18 0.757508 0.750000 0.106529
O O19 0.750000 0.623820 0.000000
#
# Coordination Sequence:
#
# PCOD9504452 Si02
#       7
#    16  16  16  16  16  16  16
#     4  11  24  44  68  99 136 179 232 295 361 421
#     4  11  23  38  62  94 130 172 221 277 336 414
#     4  10  22  40  62  89 125 169 220 276 332 402
#     4  11  22  39  65  95 129 177 221 283 345 416
#     4   9  20  38  61  93 133 175 223 275 336 413
#     4  11  25  46  73 102 134 178 231 287 354 428
#     4   9  19  36  57  85 126 172 216 272 331 395
#
# _framework density 22.217400999999999
#
# number of rings (size 3 to 8) (size 9 to 14) (size 15 to 20)
#    0.000    1.714    1.429    2.143    2.000    3.429 
#    0.000    0.714    0.000    0.000    0.000    0.000 
#    0.000    0.000    0.000    0.000    0.000    0.000 
#
# Total GULP energy -312174.610744 kJ/mol
# GULP energy per Si atom -5574.546620 kJ/mol
# Density = 2.216683 g / cm^3
# Si number density = 22.217401 Si / 1000 Ang^3
#
#
#
# Elastic Constant Matrix: (Units=GPa)
#
#
# Indices 1 2 3 4 5 6 
#
# 1 74.1590 59.9426 6.6731 0.0000 0.0000 0.0000
# 2 59.9426 181.0448 70.1926 0.0000 0.0000 0.0000
# 3 6.6731 70.1926 92.9176 0.0000 0.0000 0.0000
# 4 0.0000 0.0000 0.0000 30.9157 0.0000 0.0000
# 5 0.0000 0.0000 0.0000 0.0000 32.6328 0.0000
# 6 0.0000 0.0000 0.0000 0.0000 0.0000 25.7373
#
#
#
# Elastic Compliance Matrix: (Units=1/GPa)
#
#
# Indices 1 2 3 4 5 6 
#
# 1 0.019946 -0.008554 0.005029 0.000000 0.000000 0.000000
# 2 -0.008554 0.011480 -0.008058 0.000000 0.000000 0.000000
# 3 0.005029 -0.008058 0.016488 0.000000 0.000000 0.000000
# 4 0.000000 0.000000 0.000000 0.032346 0.000000 0.000000
# 5 0.000000 0.000000 0.000000 0.000000 0.030644 0.000000
# 6 0.000000 0.000000 0.000000 0.000000 0.000000 0.038854
#
#
# Mechanical properties :
#
#
# Convention : Reuss Voigt Hill
#
# Bulk Modulus (GPa) = 40.40512 69.08199 54.74356
# Shear Modulus (GPa) = 27.59798 31.94469 29.77134
#
# Velocity S-wave (km/s) = 3.52828 3.79598 3.66457
# Velocity P-wave (km/s) = 5.90119 7.09745 6.52678
#
# Compressibility (1/GPa) = 0.02474934
#
# Stress axis : x y z
#
# Youngs Moduli (GPa) = 50.13497 87.11005 60.64977
#
# Poissons Ratio (x) = 0.74514 -0.30503
# Poissons Ratio (y) = 0.42885 0.48870
# Poissons Ratio (z) = -0.25215 0.70191
#
# Static dielectric constant tensor:
#      x y z
#    x 1.891210 0.000000 0.000000 
#    y 0.000000 1.864640 0.000000 
#    z 0.000000 0.000000 1.850410 
# 
# From -- ./inp_files/30177.got.cif
#   From: 2010.05.17/outbox.cif.g08.bks.cpg/sg67_16_cif.got.tgz:30177.got - 2010.06.03 18:28:57.
