data_PCOD9504001
_publ_section_title
;
Structure prediction by ZEFSAII (Michael W. Deem and Ramdas Pophale) SiO2 
 PCOD9504001
Probable space group: C M M A
;
_chemical_formula_sum "Si O2"
_cell_formula_units_Z 112
_cell_length_a 15.223516
_cell_length_b 15.246300
_cell_length_c 24.475671
_cell_angle_alpha 90.000000
_cell_angle_beta 90.000000
_cell_angle_gamma 90.000000
_cell_volume 5680.859337
_symmetry_space_group_name_H-M "C M M A"
_symmetry_group_IT_number 67
_symmetry_cell_setting 'orthorhombic'
loop_
_space_group_symop_operation_xyz
x,y,z
-x,1/2-y,z
x,-y,-z
-x,1/2+y,-z
-x,-y,-z
x,1/2+y,-z
-x,y,z
x,1/2-y,z
1/2+x,1/2+y,z
1/2-x,-y,z
1/2+x,1/2-y,-z
1/2-x,y,-z
1/2-x,1/2-y,-z
1/2+x,y,-z
1/2-x,1/2+y,z
1/2+x,-y,z
loop_
_atom_site_type_symbol
_atom_site_label
_atom_site_fract_x
_atom_site_fract_y
_atom_site_fract_z
Si Si1 0.897330 0.850603 0.145834
Si Si2 0.602670 0.149397 0.854166
Si Si3 0.893250 0.000000 0.938030
Si Si4 0.250000 0.894501 0.231340
Si Si5 0.250000 0.107436 0.643589
Si Si6 0.600690 0.893034 0.438693
Si Si7 0.100690 0.106966 0.561307
O O1 0.891184 0.750000 0.127945
O O2 0.835380 0.864248 0.197859
O O3 0.000000 0.869509 0.158643
O O4 0.868149 0.915648 0.097724
O O5 0.500000 0.130491 0.841357
O O6 0.608816 0.250000 0.872055
O O7 0.631851 0.084352 0.902276
O O8 0.664620 0.135752 0.802141
O O9 0.000000 0.000000 0.940754
O O10 0.860498 0.000000 0.000000
O O11 0.250000 0.863595 0.293837
O O12 0.250000 0.000000 0.231266
O O13 0.334477 0.135950 0.608763
O O14 0.165523 0.135950 0.608763
O O15 0.250000 0.000000 0.644284
O O16 0.500000 0.865723 0.430418
O O17 0.628489 0.866318 0.500000
O O18 0.601692 0.000000 0.438558
O O19 0.000000 0.134277 0.569582
#
# Coordination Sequence:
#
# PCOD9504001 Si02
#       7
#    16  16  16  16  16  16  16
#     4  10  21  38  59  82 113 152 189 230 281 333
#     4  10  21  38  59  82 113 152 189 230 281 333
#     4   9  18  35  61  91 118 145 183 230 280 336
#     4  11  21  34  53  76 109 150 192 238 281 329
#     4   9  17  25  38  63  92 131 180 224 268 322
#     4   8  13  22  36  56  88 129 170 216 272 330
#     4   8  13  22  36  56  88 129 170 216 272 330
#
# _framework density 19.715326999999998
#
# number of rings (size 3 to 8) (size 9 to 14) (size 15 to 20)
#    0.000    2.714    1.429    1.714    0.000    3.429 
#    0.000    7.143    0.000    1.714    0.000    0.000 
#    0.000    9.143    0.000   25.143    0.000   20.571 
#
# Total GULP energy -312577.475193 kJ/mol
# GULP energy per Si atom -5581.740628 kJ/mol
# Density = 1.967045 g / cm^3
# Si number density = 19.715327 Si / 1000 Ang^3
#
#
#
# Elastic Constant Matrix: (Units=GPa)
#
#
# Indices 1 2 3 4 5 6 
#
# 1 102.6912 32.3470 99.4700 0.0000 0.0000 0.0000
# 2 32.3470 77.3358 49.6147 0.0000 0.0000 0.0000
# 3 99.4700 49.6147 221.0985 0.0000 0.0000 0.0000
# 4 0.0000 0.0000 0.0000 -12.3632 0.0000 0.0000
# 5 0.0000 0.0000 0.0000 0.0000 2.7066 0.0000
# 6 0.0000 0.0000 0.0000 0.0000 0.0000 11.6459
#
#
#
# Elastic Compliance Matrix: (Units=1/GPa)
#
#
# Indices 1 2 3 4 5 6 
#
# 1 0.017723 -0.002684 -0.007371 0.000000 0.000000 0.000000
# 2 -0.002684 0.015512 -0.002273 0.000000 0.000000 0.000000
# 3 -0.007371 -0.002273 0.008349 0.000000 0.000000 0.000000
# 4 0.000000 0.000000 0.000000 -0.080885 0.000000 0.000000
# 5 0.000000 0.000000 0.000000 0.000000 0.369472 0.000000
# 6 0.000000 0.000000 0.000000 0.000000 0.000000 0.085867
#
#
# Mechanical properties :
#
#
# Convention : Reuss Voigt Hill
#
# Bulk Modulus (GPa) = 59.07692 84.88765 71.98229
# Shear Modulus (GPa) = 11.20228 15.04411 13.12319
#
# Velocity S-wave (km/s) = 2.38628 2.76536 2.58279
# Velocity P-wave (km/s) = 6.13372 7.30387 6.74422
#
# Compressibility (1/GPa) = 0.01692708
#
# Stress axis : x y z
#
# Youngs Moduli (GPa) = 56.42234 64.46741 119.77099
#
# Poissons Ratio (x) = 0.17304 0.88287
# Poissons Ratio (y) = 0.15144 0.27227
# Poissons Ratio (z) = 0.41591 0.14655
#
# Static dielectric constant tensor:
#      x y z
#    x 1.694580 0.000000 0.000000 
#    y 0.000000 1.733970 0.000000 
#    z 0.000000 0.000000 1.648550 
# 
# From -- ./inp_files/41988.got.cif
#   From: 2010.05.17/outbox.cif.g08.bks.cpg/sg67_21_cif.got.tgz:41988.got - 2010.06.03 18:28:57.
