data_PCOD9504611
_publ_section_title
;
Structure prediction by ZEFSAII (Michael W. Deem and Ramdas Pophale) SiO2 
 PCOD9504611
Probable space group: C M M A
;
_chemical_formula_sum "Si O2"
_cell_formula_units_Z 72
_cell_length_a 15.812315
_cell_length_b 28.386480
_cell_length_c 8.391235
_cell_angle_alpha 90.000000
_cell_angle_beta 90.000000
_cell_angle_gamma 90.000000
_cell_volume 3766.455871
_symmetry_space_group_name_H-M "C M M A"
_symmetry_group_IT_number 67
_symmetry_cell_setting 'orthorhombic'
loop_
_space_group_symop_operation_xyz
x,y,z
-x,1/2-y,z
x,-y,-z
-x,1/2+y,-z
-x,-y,-z
x,1/2+y,-z
-x,y,z
x,1/2-y,z
1/2+x,1/2+y,z
1/2-x,-y,z
1/2+x,1/2-y,-z
1/2-x,y,-z
1/2-x,1/2-y,-z
1/2+x,y,-z
1/2-x,1/2+y,z
1/2+x,-y,z
loop_
_atom_site_type_symbol
_atom_site_label
_atom_site_fract_x
_atom_site_fract_y
_atom_site_fract_z
Si Si1 0.333315 0.694636 0.100410
Si Si2 0.000000 0.488187 0.813091
Si Si3 0.000000 0.386167 0.628469
Si Si4 0.500000 0.196283 0.115765
Si Si5 0.833728 0.630307 0.592413
Si Si6 0.171620 0.524257 0.673949
O O1 0.321394 0.750000 0.139597
O O2 0.348592 0.665100 0.260347
O O3 0.250000 0.679371 0.000000
O O4 0.416132 0.690514 0.990597
O O5 0.000000 0.435177 0.732697
O O6 0.916984 0.513773 0.750666
O O7 0.000000 0.500000 0.000000
O O8 0.000000 0.342764 0.749443
O O9 0.915822 0.379863 0.518843
O O10 0.500000 0.250000 0.179393
O O11 0.750000 0.647640 0.500000
O O12 0.810588 0.579016 0.659755
O O13 0.166480 0.500000 0.500000
O O14 0.250000 0.500000 0.761402
#
# Coordination Sequence:
#
# PCOD9504611 Si02
#       6
#    16   8   8   8  16  16
#     4  10  23  43  65  91 126 164 204 259 324 382
#     4  12  26  39  60  92 127 163 207 261 304 369
#     4  12  24  39  63  95 124 162 215 260 308 368
#     4  10  23  43  62  86 125 162 198 254 316 373
#     4  12  23  39  66  92 120 165 208 256 309 375
#     4  11  21  43  62  84 125 164 200 249 312 368
#
# _framework density 19.116114
#
# number of rings (size 3 to 8) (size 9 to 14) (size 15 to 20)
#    0.000    0.889    4.444    3.000    3.111    1.778 
#    0.000    0.000    0.000    0.000    0.000    0.000 
#    0.000    0.000    0.000    0.000    0.000    0.000 
#
# Total GULP energy -200955.387264 kJ/mol
# GULP energy per Si atom -5582.094091 kJ/mol
# Density = 1.907261 g / cm^3
# Si number density = 19.116114 Si / 1000 Ang^3
#
#
#
# Elastic Constant Matrix: (Units=GPa)
#
#
# Indices 1 2 3 4 5 6 
#
# 1 110.5655 -11.1920 15.9333 0.0000 0.0000 0.0000
# 2 -11.1920 74.9935 31.6760 0.0000 0.0000 0.0000
# 3 15.9333 31.6760 71.0522 0.0000 0.0000 0.0000
# 4 0.0000 0.0000 0.0000 28.6135 0.0000 0.0000
# 5 0.0000 0.0000 0.0000 0.0000 75.6834 0.0000
# 6 0.0000 0.0000 0.0000 0.0000 0.0000 13.0667
#
#
#
# Elastic Compliance Matrix: (Units=1/GPa)
#
#
# Indices 1 2 3 4 5 6 
#
# 1 0.009853 0.002961 -0.003530 0.000000 0.000000 0.000000
# 2 0.002961 0.017318 -0.008385 0.000000 0.000000 0.000000
# 3 -0.003530 -0.008385 0.018604 0.000000 0.000000 0.000000
# 4 0.000000 0.000000 0.000000 0.034948 0.000000 0.000000
# 5 0.000000 0.000000 0.000000 0.000000 0.013213 0.000000
# 6 0.000000 0.000000 0.000000 0.000000 0.000000 0.076530
#
#
# Mechanical properties :
#
#
# Convention : Reuss Voigt Hill
#
# Bulk Modulus (GPa) = 35.88288 36.60509 36.24399
# Shear Modulus (GPa) = 25.29576 38.15233 31.72404
#
# Velocity S-wave (km/s) = 3.64162 4.47231 4.07817
# Velocity P-wave (km/s) = 6.04100 6.77193 6.41688
#
# Compressibility (1/GPa) = 0.02786844
#
# Stress axis : x y z
#
# Youngs Moduli (GPa) = 101.49379 57.74350 53.75288
#
# Poissons Ratio (x) = -0.17100 0.18973
# Poissons Ratio (y) = -0.30055 0.45070
# Poissons Ratio (z) = 0.35824 0.48416
#
# Static dielectric constant tensor:
#      x y z
#    x 1.758780 0.000000 0.000000 
#    y 0.000000 1.647390 0.000000 
#    z 0.000000 0.000000 1.700550 
# 
# From -- ./inp_files/8338.got.cif
#   From: 2010.05.17/outbox.cif.g08.bks.cpg/sg67_5_cif.got.tgz:8338.got - 2010.06.03 18:28:57.
