data_PCOD9504913
_publ_section_title
;
Structure prediction by ZEFSAII (Michael W. Deem and Ramdas Pophale) SiO2 
 PCOD9504913
Probable space group: C M M A
;
_chemical_formula_sum "Si O2"
_cell_formula_units_Z 88
_cell_length_a 20.309024
_cell_length_b 9.873630
_cell_length_c 23.489668
_cell_angle_alpha 90.000000
_cell_angle_beta 90.000000
_cell_angle_gamma 90.000000
_cell_volume 4710.237221
_symmetry_space_group_name_H-M "C M M A"
_symmetry_group_IT_number 67
_symmetry_cell_setting 'orthorhombic'
loop_
_space_group_symop_operation_xyz
x,y,z
-x,1/2-y,z
x,-y,-z
-x,1/2+y,-z
-x,-y,-z
x,1/2+y,-z
-x,y,z
x,1/2-y,z
1/2+x,1/2+y,z
1/2-x,-y,z
1/2+x,1/2-y,-z
1/2-x,y,-z
1/2-x,1/2-y,-z
1/2+x,y,-z
1/2-x,1/2+y,z
1/2+x,-y,z
loop_
_atom_site_type_symbol
_atom_site_label
_atom_site_fract_x
_atom_site_fract_y
_atom_site_fract_z
Si Si1 0.500000 0.096795 0.556691
Si Si2 0.373608 0.999195 0.380399
Si Si3 0.079510 0.406327 0.051985
Si Si4 0.183424 0.591029 0.262287
Si Si5 0.077240 0.409209 0.838048
Si Si6 0.304330 0.250000 0.579507
Si Si7 0.154439 0.750000 0.456564
O O1 0.500000 0.250000 0.534459
O O2 0.500000 0.000000 0.500000
O O3 0.439690 0.074754 0.600473
O O4 0.359791 0.061257 0.318920
O O5 0.371677 0.116799 0.427191
O O6 0.317368 0.886600 0.387231
O O7 0.103506 0.250000 0.051921
O O8 0.091224 0.488472 0.110209
O O9 0.000000 0.398613 0.046029
O O10 0.104147 0.500000 0.000000
O O11 0.202398 0.750000 0.263004
O O12 0.250000 0.500000 0.259508
O O13 0.132031 0.568625 0.210473
O O14 0.081418 0.250000 0.855783
O O15 0.000000 0.429871 0.819976
O O16 0.230965 0.250000 0.558235
O O17 0.350581 0.250000 0.523903
#
# Coordination Sequence:
#
# PCOD9504913 Si02
#       7
#     8  16  16  16  16   8   8
#     4  12  28  46  66  90 120 156 191 240 307 376
#     4  12  25  41  63  87 120 152 198 243 300 365
#     4   9  16  28  51  87 126 166 206 248 301 354
#     4  11  25  43  66  90 120 164 208 254 306 364
#     4   9  19  37  60  87 124 162 207 256 302 355
#     4  11  22  39  63  87 119 146 190 245 300 362
#     4  11  22  39  63  91 113 152 188 243 302 360
#
# _framework density 18.682711999999999
#
# number of rings (size 3 to 8) (size 9 to 14) (size 15 to 20)
#    0.000    1.455    1.818    3.818    3.818    4.364 
#    0.000    0.000    0.000    0.545    0.000    3.818 
#    0.000    0.000    0.000    0.000    0.000    0.000 
#
# Total GULP energy -245349.148102 kJ/mol
# GULP energy per Si atom -5576.117002 kJ/mol
# Density = 1.864019 g / cm^3
# Si number density = 18.682712 Si / 1000 Ang^3
#
#
#
# Elastic Constant Matrix: (Units=GPa)
#
#
# Indices 1 2 3 4 5 6 
#
# 1 81.4628 39.0590 35.8231 0.0000 0.0000 0.0000
# 2 39.0590 144.8791 68.0753 0.0000 0.0000 0.0000
# 3 35.8231 68.0753 108.6742 0.0000 0.0000 0.0000
# 4 0.0000 0.0000 0.0000 25.9455 0.0000 0.0000
# 5 0.0000 0.0000 0.0000 0.0000 19.1302 0.0000
# 6 0.0000 0.0000 0.0000 0.0000 0.0000 22.0661
#
#
#
# Elastic Compliance Matrix: (Units=1/GPa)
#
#
# Indices 1 2 3 4 5 6 
#
# 1 0.014936 -0.002428 -0.003403 0.000000 0.000000 0.000000
# 2 -0.002428 0.010176 -0.005574 0.000000 0.000000 0.000000
# 3 -0.003403 -0.005574 0.013815 0.000000 0.000000 0.000000
# 4 0.000000 0.000000 0.000000 0.038542 0.000000 0.000000
# 5 0.000000 0.000000 0.000000 0.000000 0.052273 0.000000
# 6 0.000000 0.000000 0.000000 0.000000 0.000000 0.045318
#
#
# Mechanical properties :
#
#
# Convention : Reuss Voigt Hill
#
# Bulk Modulus (GPa) = 62.04265 68.99232 65.51749
# Shear Modulus (GPa) = 24.60111 26.23228 25.41669
#
# Velocity S-wave (km/s) = 3.63269 3.75119 3.69241
# Velocity P-wave (km/s) = 7.13274 7.46796 7.30227
#
# Compressibility (1/GPa) = 0.01611794
#
# Stress axis : x y z
#
# Youngs Moduli (GPa) = 66.95272 98.27059 72.38441
#
# Poissons Ratio (x) = 0.23859 0.24629
# Poissons Ratio (y) = 0.16255 0.40348
# Poissons Ratio (z) = 0.22781 0.54777
#
# Static dielectric constant tensor:
#      x y z
#    x 1.673610 0.000000 0.000000 
#    y 0.000000 1.650670 0.000000 
#    z 0.000000 0.000000 1.632340 
# 
# From -- ./inp_files/42423.got.cif
#   From: 2010.05.17/outbox.cif.g08.bks.cpg/sg67_22_cif.got.tgz:42423.got - 2010.06.03 18:28:57.
