data_PCOD9504932
_publ_section_title
;
Structure prediction by ZEFSAII (Michael W. Deem and Ramdas Pophale) SiO2 
 PCOD9504932
Probable space group: C M M A
;
_chemical_formula_sum "Si O2"
_cell_formula_units_Z 56
_cell_length_a 8.626334
_cell_length_b 15.652698
_cell_length_c 20.627256
_cell_angle_alpha 90.000000
_cell_angle_beta 90.000000
_cell_angle_gamma 90.000000
_cell_volume 2785.203512
_symmetry_space_group_name_H-M "C M M A"
_symmetry_group_IT_number 67
_symmetry_cell_setting 'orthorhombic'
loop_
_space_group_symop_operation_xyz
x,y,z
-x,1/2-y,z
x,-y,-z
-x,1/2+y,-z
-x,-y,-z
x,1/2+y,-z
-x,y,z
x,1/2-y,z
1/2+x,1/2+y,z
1/2-x,-y,z
1/2+x,1/2-y,-z
1/2-x,y,-z
1/2-x,1/2-y,-z
1/2+x,y,-z
1/2-x,1/2+y,z
1/2+x,-y,z
loop_
_atom_site_type_symbol
_atom_site_label
_atom_site_fract_x
_atom_site_fract_y
_atom_site_fract_z
Si Si1 0.186486 0.590035 0.652367
Si Si2 0.818795 0.645918 0.932442
Si Si3 0.811212 0.149915 0.207610
Si Si4 0.685332 0.250000 0.427342
O O1 0.250000 0.500000 0.628293
O O2 0.238257 0.602674 0.727386
O O3 0.252329 0.667439 0.610620
O O4 0.000000 0.592145 0.650583
O O5 0.803891 0.750000 0.931722
O O6 0.753346 0.617462 0.862527
O O7 0.000000 0.626054 0.933693
O O8 0.750000 0.614470 0.000000
O O9 0.768923 0.250000 0.214299
O O10 0.000000 0.147336 0.205274
O O11 0.500000 0.250000 0.428106
O O12 0.750000 0.250000 0.500000
#
# Coordination Sequence:
#
# PCOD9504932 Si02
#       4
#    16  16  16   8
#     4  11  22  40  65  94 127 164 204 250 302 358
#     4   8  13  22  39  66 100 140 189 241 294 350
#     4   8  14  28  52  77 107 153 199 241 297 359
#     4  12  26  46  70  98 127 160 199 242 295 358
#
# _framework density 20.106248999999998
#
# number of rings (size 3 to 8) (size 9 to 14) (size 15 to 20)
#    0.000    2.571    1.429    3.857    0.000    0.571 
#    0.000    5.714    0.000    0.857    0.000    6.000 
#    0.000    0.000    0.000    0.000    0.000    0.000 
#
# Total GULP energy -156198.181224 kJ/mol
# GULP energy per Si atom -5578.506472 kJ/mol
# Density = 2.006049 g / cm^3
# Si number density = 20.106249 Si / 1000 Ang^3
#
#
#
# Elastic Constant Matrix: (Units=GPa)
#
#
# Indices 1 2 3 4 5 6 
#
# 1 56.8823 33.4398 55.1084 0.0000 0.0000 0.0000
# 2 33.4398 112.7329 69.3836 0.0000 0.0000 0.0000
# 3 55.1084 69.3836 178.5875 0.0000 0.0000 0.0000
# 4 0.0000 0.0000 0.0000 -10.5075 0.0000 0.0000
# 5 0.0000 0.0000 0.0000 0.0000 28.8652 0.0000
# 6 0.0000 0.0000 0.0000 0.0000 0.0000 17.3552
#
#
#
# Elastic Compliance Matrix: (Units=1/GPa)
#
#
# Indices 1 2 3 4 5 6 
#
# 1 0.026185 -0.003672 -0.006653 0.000000 0.000000 0.000000
# 2 -0.003672 0.012173 -0.003596 0.000000 0.000000 0.000000
# 3 -0.006653 -0.003596 0.009050 0.000000 0.000000 0.000000
# 4 0.000000 0.000000 0.000000 -0.095170 0.000000 0.000000
# 5 0.000000 0.000000 0.000000 0.000000 0.034644 0.000000
# 6 0.000000 0.000000 0.000000 0.000000 0.000000 0.057620
#
#
# Mechanical properties :
#
#
# Convention : Reuss Voigt Hill
#
# Bulk Modulus (GPa) = 51.11411 73.78516 62.44963
# Shear Modulus (GPa) = 63.39807 19.82730 41.61269
#
# Velocity S-wave (km/s) = 5.62139 3.14367 4.55426
# Velocity P-wave (km/s) = 8.22256 7.06783 7.66696
#
# Compressibility (1/GPa) = 0.01956407
#
# Stress axis : x y z
#
# Youngs Moduli (GPa) = 38.18999 82.14763 110.49966
#
# Poissons Ratio (x) = 0.30166 0.73520
# Poissons Ratio (y) = 0.14024 0.39739
# Poissons Ratio (z) = 0.25409 0.29543
#
# Static dielectric constant tensor:
#      x y z
#    x 1.701360 0.000000 0.000000 
#    y 0.000000 1.618830 0.000000 
#    z 0.000000 0.000000 1.746390 
# 
# From -- ./inp_files/36518.got.cif
#   From: 2010.05.17/outbox.cif.g08.bks.cpg/sg67_19_cif.got.tgz:36518.got - 2010.06.03 18:28:57.
