data_PCOD9504172
_publ_section_title
;
Structure prediction by ZEFSAII (Michael W. Deem and Ramdas Pophale) SiO2 
 PCOD9504172
Probable space group: C M M A
;
_chemical_formula_sum "Si O2"
_cell_formula_units_Z 72
_cell_length_a 8.056221
_cell_length_b 15.318150
_cell_length_c 27.152907
_cell_angle_alpha 90.000000
_cell_angle_beta 90.000000
_cell_angle_gamma 90.000000
_cell_volume 3350.842549
_symmetry_space_group_name_H-M "C M M A"
_symmetry_group_IT_number 67
_symmetry_cell_setting 'orthorhombic'
loop_
_space_group_symop_operation_xyz
x,y,z
-x,1/2-y,z
x,-y,-z
-x,1/2+y,-z
-x,-y,-z
x,1/2+y,-z
-x,y,z
x,1/2-y,z
1/2+x,1/2+y,z
1/2-x,-y,z
1/2+x,1/2-y,-z
1/2-x,y,-z
1/2-x,1/2-y,-z
1/2+x,y,-z
1/2-x,1/2+y,z
1/2+x,-y,z
loop_
_atom_site_type_symbol
_atom_site_label
_atom_site_fract_x
_atom_site_fract_y
_atom_site_fract_z
Si Si1 0.700436 0.648468 0.552262
Si Si2 0.190095 0.354420 0.656719
Si Si3 0.304635 0.250000 0.943539
Si Si4 0.299504 0.600751 0.763366
Si Si5 0.802392 0.899311 0.129774
O O1 0.500000 0.648776 0.554808
O O2 0.758426 0.750000 0.550308
O O3 0.750000 0.607829 0.500000
O O4 0.763685 0.612045 0.604870
O O5 0.180557 0.250000 0.651057
O O6 0.267946 0.369117 0.710338
O O7 0.000000 0.388646 0.659383
O O8 0.500000 0.250000 0.942672
O O9 0.246320 0.335315 0.913865
O O10 0.250000 0.250000 0.000000
O O11 0.500000 0.614383 0.762036
O O12 0.250000 0.500000 0.765719
O O13 0.239812 0.635149 0.816553
O O14 0.000000 0.899575 0.132983
O O15 0.750000 0.000000 0.122445
#
# Coordination Sequence:
#
# PCOD9504172 Si02
#       5
#    16  16   8  16  16
#     4   8  13  22  37  58  85 117 156 204 256 311
#     4   8  14  25  44  69  93 124 168 211 256 315
#     4  12  26  44  66  94 126 160 201 246 289 340
#     4   9  18  32  53  76 104 138 175 217 265 325
#     4  10  21  39  63  92 124 161 201 243 294 350
#
# _framework density 21.487134000000001
#
# number of rings (size 3 to 8) (size 9 to 14) (size 15 to 20)
#    0.000    2.889    0.000    3.000    1.556    1.333 
#    0.000    3.333    0.000    2.000    0.000    4.667 
#    0.000    0.000    0.000    0.000    0.000    0.000 
#
# Total GULP energy -200431.309387 kJ/mol
# GULP energy per Si atom -5567.536372 kJ/mol
# Density = 2.143823 g / cm^3
# Si number density = 21.487134 Si / 1000 Ang^3
#
#
#
# Elastic Constant Matrix: (Units=GPa)
#
#
# Indices 1 2 3 4 5 6 
#
# 1 29.6802 5.1019 26.0230 0.0000 0.0000 0.0000
# 2 5.1019 59.6690 68.7066 0.0000 0.0000 0.0000
# 3 26.0230 68.7066 288.0402 0.0000 0.0000 0.0000
# 4 0.0000 0.0000 0.0000 110.3699 0.0000 0.0000
# 5 0.0000 0.0000 0.0000 0.0000 19.5963 0.0000
# 6 0.0000 0.0000 0.0000 0.0000 0.0000 17.1498
#
#
#
# Elastic Compliance Matrix: (Units=1/GPa)
#
#
# Indices 1 2 3 4 5 6 
#
# 1 0.036629 0.000936 -0.003532 0.000000 0.000000 0.000000
# 2 0.000936 0.023129 -0.005602 0.000000 0.000000 0.000000
# 3 -0.003532 -0.005602 0.005127 0.000000 0.000000 0.000000
# 4 0.000000 0.000000 0.000000 0.009060 0.000000 0.000000
# 5 0.000000 0.000000 0.000000 0.000000 0.051030 0.000000
# 6 0.000000 0.000000 0.000000 0.000000 0.000000 0.058310
#
#
# Mechanical properties :
#
#
# Convention : Reuss Voigt Hill
#
# Bulk Modulus (GPa) = 20.62361 64.11692 42.37027
# Shear Modulus (GPa) = 23.16482 47.92706 35.54594
#
# Velocity S-wave (km/s) = 3.28697 4.72794 4.07171
# Velocity P-wave (km/s) = 4.90148 7.72716 6.47045
#
# Compressibility (1/GPa) = 0.04848812
#
# Stress axis : x y z
#
# Youngs Moduli (GPa) = 27.30092 43.23565 195.04548
#
# Poissons Ratio (x) = -0.04045 0.68897
# Poissons Ratio (y) = -0.02554 1.09255
# Poissons Ratio (z) = 0.09644 0.24219
#
# Static dielectric constant tensor:
#      x y z
#    x 1.806830 0.000000 0.000000 
#    y 0.000000 1.771810 0.000000 
#    z 0.000000 0.000000 1.831070 
# 
# From -- ./inp_files/43087.got.cif
#   From: 2010.05.17/outbox.cif.g08.bks.cpg/sg67_22_cif.got.tgz:43087.got - 2010.06.03 18:28:57.
