data_PCOD9504820
_publ_section_title
;
Structure prediction by ZEFSAII (Michael W. Deem and Ramdas Pophale) SiO2 
 PCOD9504820
Probable space group: C M M A
;
_chemical_formula_sum "Si O2"
_cell_formula_units_Z 64
_cell_length_a 22.399403
_cell_length_b 18.781348
_cell_length_c 7.402140
_cell_angle_alpha 90.000000
_cell_angle_beta 90.000000
_cell_angle_gamma 90.000000
_cell_volume 3114.013551
_symmetry_space_group_name_H-M "C M M A"
_symmetry_group_IT_number 67
_symmetry_cell_setting 'orthorhombic'
loop_
_space_group_symop_operation_xyz
x,y,z
-x,1/2-y,z
x,-y,-z
-x,1/2+y,-z
-x,-y,-z
x,1/2+y,-z
-x,y,z
x,1/2-y,z
1/2+x,1/2+y,z
1/2-x,-y,z
1/2+x,1/2-y,-z
1/2-x,y,-z
1/2-x,1/2-y,-z
1/2+x,y,-z
1/2-x,1/2+y,z
1/2+x,-y,z
loop_
_atom_site_type_symbol
_atom_site_label
_atom_site_fract_x
_atom_site_fract_y
_atom_site_fract_z
Si Si1 0.431676 0.579455 0.033435
Si Si2 0.361409 0.665645 0.741221
Si Si3 0.242035 0.916852 0.783296
Si Si4 0.883367 0.079527 0.411113
O O1 0.500000 0.582447 0.968086
O O2 0.429687 0.586087 0.248309
O O3 0.406315 0.500000 0.000000
O O4 0.391376 0.634076 0.922077
O O5 0.359145 0.750000 0.746568
O O6 0.295776 0.631664 0.713483
O O7 0.396811 0.633901 0.571333
O O8 0.178617 0.900605 0.692525
O O9 0.250000 0.000000 0.739682
O O10 0.250000 0.910218 0.000000
O O11 0.880696 0.000000 0.500000
#
# Coordination Sequence:
#
# PCOD9504820 Si02
#       4
#    16  16  16  16
#     4  11  24  46  74  99 130 182 241 287 337 410
#     4  12  27  44  66 103 144 178 222 289 357 410
#     4  11  21  39  69  97 135 180 223 272 338 417
#     4  12  23  41  71 105 134 177 231 288 340 414
#
# _framework density 20.552256
#
# number of rings (size 3 to 8) (size 9 to 14) (size 15 to 20)
#    0.000    0.500    7.500    0.750    0.000    5.500 
#    0.000    0.000    0.000    0.000    0.000    0.000 
#    0.000    0.000    0.000    0.000    0.000    0.000 
#
# Total GULP energy -178755.846608 kJ/mol
# GULP energy per Si atom -5586.120207 kJ/mol
# Density = 2.050548 g / cm^3
# Si number density = 20.552256 Si / 1000 Ang^3
#
#
#
# Elastic Constant Matrix: (Units=GPa)
#
#
# Indices 1 2 3 4 5 6 
#
# 1 62.1894 32.9168 16.8603 0.0000 0.0000 0.0000
# 2 32.9168 164.8699 54.2771 0.0000 0.0000 0.0000
# 3 16.8603 54.2771 120.8495 0.0000 0.0000 0.0000
# 4 0.0000 0.0000 0.0000 22.0557 0.0000 0.0000
# 5 0.0000 0.0000 0.0000 0.0000 25.5581 0.0000
# 6 0.0000 0.0000 0.0000 0.0000 0.0000 6.5727
#
#
#
# Elastic Compliance Matrix: (Units=1/GPa)
#
#
# Indices 1 2 3 4 5 6 
#
# 1 0.018095 -0.003264 -0.001058 0.000000 0.000000 0.000000
# 2 -0.003264 0.007707 -0.003006 0.000000 0.000000 0.000000
# 3 -0.001058 -0.003006 0.009772 0.000000 0.000000 0.000000
# 4 0.000000 0.000000 0.000000 0.045340 0.000000 0.000000
# 5 0.000000 0.000000 0.000000 0.000000 0.039126 0.000000
# 6 0.000000 0.000000 0.000000 0.000000 0.000000 0.152144
#
#
# Mechanical properties :
#
#
# Convention : Reuss Voigt Hill
#
# Bulk Modulus (GPa) = 47.80866 61.77967 54.79416
# Shear Modulus (GPa) = 17.01760 27.09429 22.05594
#
# Velocity S-wave (km/s) = 2.88065 3.63480 3.27947
# Velocity P-wave (km/s) = 5.86316 6.90947 6.40771
#
# Compressibility (1/GPa) = 0.02091671
#
# Stress axis : x y z
#
# Youngs Moduli (GPa) = 55.26512 129.75773 102.32841
#
# Poissons Ratio (x) = 0.42356 0.10831
# Poissons Ratio (y) = 0.18040 0.30759
# Poissons Ratio (z) = 0.05849 0.39004
#
# Static dielectric constant tensor:
#      x y z
#    x 1.776810 0.000000 0.000000 
#    y 0.000000 1.683740 0.000000 
#    z 0.000000 0.000000 1.804130 
# 
# From -- ./inp_files/7973.got.cif
#   From: 2010.05.17/outbox.cif.g08.bks.cpg/sg67_4_cif.got.tgz:7973.got - 2010.06.03 18:28:57.
