data_PCOD9504132
_publ_section_title
;
Structure prediction by ZEFSAII (Michael W. Deem and Ramdas Pophale) SiO2 
 PCOD9504132
Probable space group: C M M A
;
_chemical_formula_sum "Si O2"
_cell_formula_units_Z 64
_cell_length_a 13.667470
_cell_length_b 23.432493
_cell_length_c 8.324032
_cell_angle_alpha 90.000000
_cell_angle_beta 90.000000
_cell_angle_gamma 90.000000
_cell_volume 2665.878587
_symmetry_space_group_name_H-M "C M M A"
_symmetry_group_IT_number 67
_symmetry_cell_setting 'orthorhombic'
loop_
_space_group_symop_operation_xyz
x,y,z
-x,1/2-y,z
x,-y,-z
-x,1/2+y,-z
-x,-y,-z
x,1/2+y,-z
-x,y,z
x,1/2-y,z
1/2+x,1/2+y,z
1/2-x,-y,z
1/2+x,1/2-y,-z
1/2-x,y,-z
1/2-x,1/2-y,-z
1/2+x,y,-z
1/2-x,1/2+y,z
1/2+x,-y,z
loop_
_atom_site_type_symbol
_atom_site_label
_atom_site_fract_x
_atom_site_fract_y
_atom_site_fract_z
Si Si1 0.883192 0.523637 0.741681
Si Si2 0.789521 0.316831 0.750176
Si Si3 0.616443 0.585425 0.916413
Si Si4 0.883630 0.633824 0.573635
O O1 0.844362 0.460778 0.784916
O O2 0.855710 0.566990 0.600115
O O3 0.000000 0.515049 0.721512
O O4 0.869594 0.558382 0.908418
O O5 0.802970 0.250000 0.771897
O O6 0.832202 0.354934 0.891365
O O7 0.850055 0.339967 0.594908
O O8 0.677780 0.331432 0.705839
O O9 0.500000 0.591845 0.893954
O O10 0.000000 0.638317 0.593300
#
# Coordination Sequence:
#
# PCOD9504132 Si02
#       4
#    16  16  16  16
#     4   8  17  36  62  89 114 147 188 233 291 338
#     4  11  24  38  56  84 114 153 197 230 280 346
#     4   9  18  36  61  89 121 149 184 236 282 333
#     4  10  21  39  60  81 111 149 191 240 287 336
#
# _framework density 24.007092
#
# number of rings (size 3 to 8) (size 9 to 14) (size 15 to 20)
#    0.000    2.500    0.000    3.750    0.000    6.500 
#    0.000   12.500    0.000    9.000    0.000    0.000 
#    0.000    0.000    0.000    0.000    0.000    0.000 
#
# Total GULP energy -179075.645655 kJ/mol
# GULP energy per Si atom -5596.113927 kJ/mol
# Density = 2.395245 g / cm^3
# Si number density = 24.007092 Si / 1000 Ang^3
#
#
#
# Elastic Constant Matrix: (Units=GPa)
#
#
# Indices 1 2 3 4 5 6 
#
# 1 148.9946 60.9829 34.7374 0.0000 0.0000 0.0000
# 2 60.9829 169.8839 23.9284 0.0000 0.0000 0.0000
# 3 34.7374 23.9284 54.8286 0.0000 0.0000 0.0000
# 4 0.0000 0.0000 0.0000 27.9249 0.0000 0.0000
# 5 0.0000 0.0000 0.0000 0.0000 20.0101 0.0000
# 6 0.0000 0.0000 0.0000 0.0000 0.0000 9.0836
#
#
#
# Elastic Compliance Matrix: (Units=1/GPa)
#
#
# Indices 1 2 3 4 5 6 
#
# 1 0.008786 -0.002525 -0.004465 0.000000 0.000000 0.000000
# 2 -0.002525 0.006998 -0.001454 0.000000 0.000000 0.000000
# 3 -0.004465 -0.001454 0.021702 0.000000 0.000000 0.000000
# 4 0.000000 0.000000 0.000000 0.035810 0.000000 0.000000
# 5 0.000000 0.000000 0.000000 0.000000 0.049975 0.000000
# 6 0.000000 0.000000 0.000000 0.000000 0.000000 0.110089
#
#
# Mechanical properties :
#
#
# Convention : Reuss Voigt Hill
#
# Bulk Modulus (GPa) = 48.54826 68.11161 58.32994
# Shear Modulus (GPa) = 19.44670 28.34093 23.89381
#
# Velocity S-wave (km/s) = 2.84921 3.43960 3.15823
# Velocity P-wave (km/s) = 5.57587 6.64887 6.13587
#
# Compressibility (1/GPa) = 0.02059806
#
# Stress axis : x y z
#
# Youngs Moduli (GPa) = 113.81700 142.90596 46.07908
#
# Poissons Ratio (x) = 0.36085 0.20572
# Poissons Ratio (y) = 0.28740 0.06700
# Poissons Ratio (z) = 0.50814 0.20780
#
# Static dielectric constant tensor:
#      x y z
#    x 1.931800 0.000000 0.000000 
#    y 0.000000 1.873870 0.000000 
#    z 0.000000 0.000000 1.984910 
# 
# From -- ./inp_files/7983.got.cif
#   From: 2010.05.17/outbox.cif.g08.bks.cpg/sg67_4_cif.got.tgz:7983.got - 2010.06.03 18:28:57.
