data_PCOD9504831
_publ_section_title
;
Structure prediction by ZEFSAII (Michael W. Deem and Ramdas Pophale) SiO2 
 PCOD9504831
Probable space group: C M M A
;
_chemical_formula_sum "Si O2"
_cell_formula_units_Z 72
_cell_length_a 17.185063
_cell_length_b 15.527555
_cell_length_c 14.121341
_cell_angle_alpha 90.000000
_cell_angle_beta 90.000000
_cell_angle_gamma 90.000000
_cell_volume 3768.167029
_symmetry_space_group_name_H-M "C M M A"
_symmetry_group_IT_number 67
_symmetry_cell_setting 'orthorhombic'
loop_
_space_group_symop_operation_xyz
x,y,z
-x,1/2-y,z
x,-y,-z
-x,1/2+y,-z
-x,-y,-z
x,1/2+y,-z
-x,y,z
x,1/2-y,z
1/2+x,1/2+y,z
1/2-x,-y,z
1/2+x,1/2-y,-z
1/2-x,y,-z
1/2-x,1/2-y,-z
1/2+x,y,-z
1/2-x,1/2+y,z
1/2+x,-y,z
loop_
_atom_site_type_symbol
_atom_site_label
_atom_site_fract_x
_atom_site_fract_y
_atom_site_fract_z
Si Si1 0.907200 0.924262 0.426570
Si Si2 0.159522 0.096825 0.970020
Si Si3 0.342911 0.250000 0.517879
Si Si4 0.196111 0.416337 0.757304
Si Si5 0.697135 0.250000 0.727017
Si Si6 0.089565 0.250000 0.088220
O O1 0.880058 0.834301 0.471596
O O2 0.863181 0.935450 0.327330
O O3 0.000000 0.925049 0.413390
O O4 0.885950 0.000000 0.500000
O O5 0.155418 0.104938 0.856948
O O6 0.109749 0.166794 0.025249
O O7 0.250000 0.110484 0.000000
O O8 0.138467 0.000000 0.000000
O O9 0.250000 0.250000 0.500000
O O10 0.352400 0.250000 0.630960
O O11 0.250000 0.500000 0.773454
O O12 0.249093 0.334890 0.729043
O O13 0.644247 0.250000 0.819982
O O14 0.000000 0.250000 0.116225
#
# Coordination Sequence:
#
# PCOD9504831 Si02
#       6
#    16  16   8  16   8   8
#     4  11  26  44  64  97 138 168 206 273 334 378
#     4  11  21  42  68  95 125 168 217 266 313 373
#     4  12  23  41  68  97 124 171 223 265 312 387
#     4  12  22  39  71  96 123 169 224 262 312 385
#     4  12  23  39  64  97 121 170 222 262 308 383
#     4  12  26  41  62  97 138 169 205 266 332 386
#
# _framework density 19.107434000000001
#
# number of rings (size 3 to 8) (size 9 to 14) (size 15 to 20)
#    0.000    0.444    6.667    2.667    0.000    2.222 
#    0.000    5.556    0.000    0.000    0.000    0.000 
#    0.000    0.000    0.000    0.000    0.000    0.000 
#
# Total GULP energy -201461.328793 kJ/mol
# GULP energy per Si atom -5596.148022 kJ/mol
# Density = 1.906394 g / cm^3
# Si number density = 19.107434 Si / 1000 Ang^3
#
#
#
# Elastic Constant Matrix: (Units=GPa)
#
#
# Indices 1 2 3 4 5 6 
#
# 1 74.7146 26.8599 42.6519 0.0000 0.0000 0.0000
# 2 26.8599 77.7473 3.2449 0.0000 0.0000 0.0000
# 3 42.6519 3.2449 165.7437 0.0000 0.0000 0.0000
# 4 0.0000 0.0000 0.0000 33.7666 0.0000 0.0000
# 5 0.0000 0.0000 0.0000 0.0000 26.5544 0.0000
# 6 0.0000 0.0000 0.0000 0.0000 0.0000 91.1852
#
#
#
# Elastic Compliance Matrix: (Units=1/GPa)
#
#
# Indices 1 2 3 4 5 6 
#
# 1 0.018175 -0.006089 -0.004558 0.000000 0.000000 0.000000
# 2 -0.006089 0.014913 0.001275 0.000000 0.000000 0.000000
# 3 -0.004558 0.001275 0.007181 0.000000 0.000000 0.000000
# 4 0.000000 0.000000 0.000000 0.029615 0.000000 0.000000
# 5 0.000000 0.000000 0.000000 0.000000 0.037659 0.000000
# 6 0.000000 0.000000 0.000000 0.000000 0.000000 0.010967
#
#
# Mechanical properties :
#
#
# Convention : Reuss Voigt Hill
#
# Bulk Modulus (GPa) = 46.45685 51.52433 48.99059
# Shear Modulus (GPa) = 34.61927 46.66449 40.64188
#
# Velocity S-wave (km/s) = 4.26117 4.94724 4.61697
# Velocity P-wave (km/s) = 6.96967 7.72384 7.35643
#
# Compressibility (1/GPa) = 0.02152535
#
# Stress axis : x y z
#
# Youngs Moduli (GPa) = 55.02009 67.05761 139.24916
#
# Poissons Ratio (x) = 0.40831 0.63469
# Poissons Ratio (y) = 0.33501 -0.17753
# Poissons Ratio (z) = 0.25078 -0.08549
#
# Static dielectric constant tensor:
#      x y z
#    x 1.635430 0.000000 0.000000 
#    y 0.000000 1.645650 0.000000 
#    z 0.000000 0.000000 1.654690 
# 
# From -- ./inp_files/19194.got.cif
#   From: 2010.05.17/outbox.cif.g08.bks.cpg/sg67_10_cif.got.tgz:19194.got - 2010.06.03 18:28:57.
