data_PCOD9504333
_publ_section_title
;
Structure prediction by ZEFSAII (Michael W. Deem and Ramdas Pophale) SiO2 
 PCOD9504333
Probable space group: C M M A
;
_chemical_formula_sum "Si O2"
_cell_formula_units_Z 112
_cell_length_a 30.157558
_cell_length_b 14.670321
_cell_length_c 11.830082
_cell_angle_alpha 90.000000
_cell_angle_beta 90.000000
_cell_angle_gamma 90.000000
_cell_volume 5233.877376
_symmetry_space_group_name_H-M "C M M A"
_symmetry_group_IT_number 67
_symmetry_cell_setting 'orthorhombic'
loop_
_space_group_symop_operation_xyz
x,y,z
-x,1/2-y,z
x,-y,-z
-x,1/2+y,-z
-x,-y,-z
x,1/2+y,-z
-x,y,z
x,1/2-y,z
1/2+x,1/2+y,z
1/2-x,-y,z
1/2+x,1/2-y,-z
1/2-x,y,-z
1/2-x,1/2-y,-z
1/2+x,y,-z
1/2-x,1/2+y,z
1/2+x,-y,z
loop_
_atom_site_type_symbol
_atom_site_label
_atom_site_fract_x
_atom_site_fract_y
_atom_site_fract_z
Si Si1 0.143548 0.852069 0.438503
Si Si2 0.334237 0.348799 0.696513
Si Si3 0.714102 0.854133 0.912131
Si Si4 0.264663 0.098387 0.331573
Si Si5 0.051566 0.147072 0.164858
Si Si6 0.383235 0.396734 0.036949
Si Si7 0.107563 0.990517 0.261598
O O1 0.129164 0.750000 0.403054
O O2 0.142493 0.856461 0.573865
O O3 0.195537 0.861914 0.404925
O O4 0.117848 0.933440 0.375016
O O5 0.345592 0.250000 0.748369
O O6 0.281738 0.349988 0.677656
O O7 0.350973 0.439306 0.759270
O O8 0.727002 0.750000 0.884394
O O9 0.715914 0.907148 0.795015
O O10 0.664945 0.852294 0.962119
O O11 0.750000 0.889909 0.000000
O O12 0.250000 0.000000 0.373552
O O13 0.055721 0.250000 0.212724
O O14 0.068407 0.065073 0.246011
O O15 0.000000 0.132560 0.137400
O O16 0.081154 0.142344 0.050512
O O17 0.398106 0.412215 0.166504
O O18 0.375996 0.500000 0.000000
#
# Coordination Sequence:
#
# PCOD9504333 Si02
#       7
#    16  16  16  16  16  16  16
#     4  11  23  39  59  85 123 172 224 274 326 377
#     4  11  23  38  59  87 121 169 224 276 321 372
#     4  11  24  35  50  78 118 167 212 253 306 371
#     4  12  23  36  55  81 120 171 224 274 318 370
#     4  10  23  44  71 101 130 161 203 256 319 395
#     4  10  22  37  58  86 121 164 203 248 303 377
#     4  11  22  39  63  91 124 159 202 264 323 384
#
# _framework density 21.399049000000002
#
# number of rings (size 3 to 8) (size 9 to 14) (size 15 to 20)
#    0.000    1.143    2.857    3.000    6.000    4.857 
#    0.000    0.000    0.000    2.143    0.000    2.000 
#    0.000    2.286    0.000    0.000    0.000    0.000 
#
# Total GULP energy -312678.250522 kJ/mol
# GULP energy per Si atom -5583.540188 kJ/mol
# Density = 2.135034 g / cm^3
# Si number density = 21.399049 Si / 1000 Ang^3
#
#
#
# Elastic Constant Matrix: (Units=GPa)
#
#
# Indices 1 2 3 4 5 6 
#
# 1 114.6026 39.5303 41.6338 0.0000 0.0000 0.0000
# 2 39.5303 124.8141 11.6151 0.0000 0.0000 0.0000
# 3 41.6338 11.6151 46.5803 0.0000 0.0000 0.0000
# 4 0.0000 0.0000 0.0000 30.7847 0.0000 0.0000
# 5 0.0000 0.0000 0.0000 0.0000 18.3650 0.0000
# 6 0.0000 0.0000 0.0000 0.0000 0.0000 33.0084
#
#
#
# Elastic Compliance Matrix: (Units=1/GPa)
#
#
# Indices 1 2 3 4 5 6 
#
# 1 0.014200 -0.003395 -0.011846 0.000000 0.000000 0.000000
# 2 -0.003395 0.009014 0.000787 0.000000 0.000000 0.000000
# 3 -0.011846 0.000787 0.031860 0.000000 0.000000 0.000000
# 4 0.000000 0.000000 0.000000 0.032484 0.000000 0.000000
# 5 0.000000 0.000000 0.000000 0.000000 0.054452 0.000000
# 6 0.000000 0.000000 0.000000 0.000000 0.000000 0.030295
#
#
# Mechanical properties :
#
#
# Convention : Reuss Voigt Hill
#
# Bulk Modulus (GPa) = 38.21722 52.39505 45.30614
# Shear Modulus (GPa) = 23.81695 29.31281 26.56488
#
# Velocity S-wave (km/s) = 3.33977 3.70512 3.52718
# Velocity P-wave (km/s) = 5.72452 6.54537 6.14866
#
# Compressibility (1/GPa) = 0.02616621
#
# Stress axis : x y z
#
# Youngs Moduli (GPa) = 70.42110 110.93905 31.38747
#
# Poissons Ratio (x) = 0.37665 0.37181
# Poissons Ratio (y) = 0.23908 -0.02470
# Poissons Ratio (z) = 0.83419 -0.08729
#
# Static dielectric constant tensor:
#      x y z
#    x 1.772700 0.000000 0.000000 
#    y 0.000000 1.808510 0.000000 
#    z 0.000000 0.000000 1.863860 
# 
# From -- ./inp_files/18634.got.cif
#   From: 2010.05.17/outbox.cif.g08.bks.cpg/sg67_10_cif.got.tgz:18634.got - 2010.06.03 18:28:57.
