data_PCOD9504731
_publ_section_title
;
Structure prediction by ZEFSAII (Michael W. Deem and Ramdas Pophale) SiO2 
 PCOD9504731
Probable space group: C M M A
;
_chemical_formula_sum "Si O2"
_cell_formula_units_Z 72
_cell_length_a 10.100678
_cell_length_b 19.052463
_cell_length_c 17.694781
_cell_angle_alpha 90.000000
_cell_angle_beta 90.000000
_cell_angle_gamma 90.000000
_cell_volume 3405.233093
_symmetry_space_group_name_H-M "C M M A"
_symmetry_group_IT_number 67
_symmetry_cell_setting 'orthorhombic'
loop_
_space_group_symop_operation_xyz
x,y,z
-x,1/2-y,z
x,-y,-z
-x,1/2+y,-z
-x,-y,-z
x,1/2+y,-z
-x,y,z
x,1/2-y,z
1/2+x,1/2+y,z
1/2-x,-y,z
1/2+x,1/2-y,-z
1/2-x,y,-z
1/2-x,1/2-y,-z
1/2+x,y,-z
1/2-x,1/2+y,z
1/2+x,-y,z
loop_
_atom_site_type_symbol
_atom_site_label
_atom_site_fract_x
_atom_site_fract_y
_atom_site_fract_z
Si Si1 0.726884 0.144106 0.586758
Si Si2 0.000000 0.087742 0.841169
Si Si3 0.500000 0.892586 0.664570
Si Si4 0.000000 0.532442 0.581258
Si Si5 0.500000 0.678759 0.300181
Si Si6 0.500000 0.083596 0.839302
Si Si7 0.247853 0.166901 0.090830
O O1 0.750000 0.168813 0.500000
O O2 0.868892 0.138067 0.625614
O O3 0.638889 0.073705 0.581614
O O4 0.627034 0.180803 0.645248
O O5 0.000000 0.112125 0.754039
O O6 0.874112 0.124095 0.879604
O O7 0.000000 0.998285 0.154155
O O8 0.500000 0.974575 0.644902
O O9 0.000000 0.500000 0.500000
O O10 0.500000 0.750000 0.251933
O O11 0.500000 0.610409 0.247884
O O12 0.374835 0.121814 0.877659
O O13 0.246517 0.250000 0.114135
O O14 0.250000 0.166558 0.000000
#
# Coordination Sequence:
#
# PCOD9504731 Si02
#       7
#    16   8   8   8   8   8  16
#     4  11  22  38  60  90 123 166 234 287 344 413
#     4  12  26  42  67 108 151 174 228 301 359 405
#     4  12  23  36  59  96 136 173 219 285 355 413
#     4  11  20  35  59  90 127 173 218 280 347 424
#     4  11  25  45  65  85 125 183 231 281 352 429
#     4  12  25  44  68 102 139 183 226 281 343 426
#     4  11  25  47  75 103 137 185 233 277 343 433
#
# _framework density 21.143927000000001
#
# number of rings (size 3 to 8) (size 9 to 14) (size 15 to 20)
#    0.000    0.667    2.222    6.667    0.000    6.667 
#    0.000    1.667    0.000    0.000    0.000    0.000 
#    0.000    0.000    0.000    0.000    0.000    0.000 
#
# Total GULP energy -200853.420250 kJ/mol
# GULP energy per Si atom -5579.261674 kJ/mol
# Density = 2.109580 g / cm^3
# Si number density = 21.143927 Si / 1000 Ang^3
#
#
#
# Elastic Constant Matrix: (Units=GPa)
#
#
# Indices 1 2 3 4 5 6 
#
# 1 237.4836 86.3627 74.9511 0.0000 0.0000 0.0000
# 2 86.3627 158.1578 71.4425 0.0000 0.0000 0.0000
# 3 74.9511 71.4425 145.0540 0.0000 0.0000 0.0000
# 4 0.0000 0.0000 0.0000 9.6608 0.0000 0.0000
# 5 0.0000 0.0000 0.0000 0.0000 49.9435 0.0000
# 6 0.0000 0.0000 0.0000 0.0000 0.0000 51.4113
#
#
#
# Elastic Compliance Matrix: (Units=1/GPa)
#
#
# Indices 1 2 3 4 5 6 
#
# 1 0.005591 -0.002248 -0.001782 0.000000 0.000000 0.000000
# 2 -0.002248 0.009036 -0.003289 0.000000 0.000000 0.000000
# 3 -0.001782 -0.003289 0.009434 0.000000 0.000000 0.000000
# 4 0.000000 0.000000 0.000000 0.103512 0.000000 0.000000
# 5 0.000000 0.000000 0.000000 0.000000 0.020023 0.000000
# 6 0.000000 0.000000 0.000000 0.000000 0.000000 0.019451
#
#
# Mechanical properties :
#
#
# Convention : Reuss Voigt Hill
#
# Bulk Modulus (GPa) = 106.11057 111.80087 108.95572
# Shear Modulus (GPa) = 27.05273 42.73240 34.89256
#
# Velocity S-wave (km/s) = 3.58083 4.50046 4.06672
# Velocity P-wave (km/s) = 8.20916 8.94407 8.58448
#
# Compressibility (1/GPa) = 0.00942413
#
# Stress axis : x y z
#
# Youngs Moduli (GPa) = 178.87233 110.66887 105.99571
#
# Poissons Ratio (x) = 0.24879 0.18883
# Poissons Ratio (y) = 0.40211 0.34860
# Poissons Ratio (z) = 0.31866 0.36397
#
# Static dielectric constant tensor:
#      x y z
#    x 2.988200 0.000000 0.000000 
#    y 0.000000 1.843050 0.000000 
#    z 0.000000 0.000000 1.736280 
# 
# From -- ./inp_files/25170.got.cif
#   From: 2010.05.17/outbox.cif.g08.bks.cpg/sg67_13_cif.got.tgz:25170.got - 2010.06.03 18:28:57.
