data_PCOD9504557
_publ_section_title
;
Structure prediction by ZEFSAII (Michael W. Deem and Ramdas Pophale) SiO2 
 PCOD9504557
Probable space group: C M M A
;
_chemical_formula_sum "Si O2"
_cell_formula_units_Z 108
_cell_length_a 14.831996
_cell_length_b 30.066926
_cell_length_c 11.534769
_cell_angle_alpha 90.000000
_cell_angle_beta 90.000000
_cell_angle_gamma 90.000000
_cell_volume 5143.959374
_symmetry_space_group_name_H-M "C M M A"
_symmetry_group_IT_number 67
_symmetry_cell_setting 'orthorhombic'
loop_
_space_group_symop_operation_xyz
x,y,z
-x,1/2-y,z
x,-y,-z
-x,1/2+y,-z
-x,-y,-z
x,1/2+y,-z
-x,y,z
x,1/2-y,z
1/2+x,1/2+y,z
1/2-x,-y,z
1/2+x,1/2-y,-z
1/2-x,y,-z
1/2-x,1/2-y,-z
1/2+x,y,-z
1/2-x,1/2+y,z
1/2+x,-y,z
loop_
_atom_site_type_symbol
_atom_site_label
_atom_site_fract_x
_atom_site_fract_y
_atom_site_fract_z
Si Si1 0.250000 0.000000 0.500000
Si Si2 0.639330 0.199692 0.234357
Si Si3 0.391913 0.553382 0.657112
Si Si4 0.108510 0.043767 0.930082
Si Si5 0.853972 0.643508 0.014542
Si Si6 0.666286 0.200461 0.660045
Si Si7 0.899825 0.148833 0.546451
Si Si8 0.500000 0.821687 0.173401
O O1 0.319487 0.972934 0.580812
O O2 0.617927 0.250000 0.197802
O O3 0.613373 0.164768 0.135889
O O4 0.745725 0.195906 0.260891
O O5 0.598282 0.187499 0.358240
O O6 0.500000 0.543269 0.637512
O O7 0.372640 0.543900 0.792373
O O8 0.377754 0.604492 0.618319
O O9 0.143795 0.090091 0.980633
O O10 0.000000 0.045267 0.941425
O O11 0.139698 0.000000 0.000000
O O12 0.750000 0.658054 0.000000
O O13 0.920675 0.660311 0.915858
O O14 0.669253 0.250000 0.606772
O O15 0.661693 0.163364 0.560245
O O16 0.578623 0.195892 0.737890
O O17 0.000000 0.141988 0.496854
#
# Coordination Sequence:
#
# PCOD9504557 Si02
#       8
#     4  16  16  16  16  16  16   8
#     4  12  26  44  70 102 130 192 222 274 368 406
#     4  11  25  42  66 100 135 180 236 286 338 408
#     4  10  24  45  69 102 141 171 225 288 339 418
#     4  10  22  46  74 102 135 177 222 287 346 410
#     4  12  25  44  70 100 138 180 233 285 346 413
#     4  11  24  44  67  97 139 186 237 285 336 408
#     4  11  23  42  69 100 138 179 220 282 348 403
#     4  12  25  44  65  98 137 187 227 289 341 411
#
# _framework density 20.995501999999998
#
# number of rings (size 3 to 8) (size 9 to 14) (size 15 to 20)
#    0.000    1.037    4.444    1.333    3.111    5.037 
#    2.667    0.000    0.000    0.000    0.000    0.000 
#    0.000    0.000    0.000    0.000    0.000    0.000 
#
# Total GULP energy -300618.179876 kJ/mol
# GULP energy per Si atom -5567.003331 kJ/mol
# Density = 2.094772 g / cm^3
# Si number density = 20.995502 Si / 1000 Ang^3
#
#
#
# Elastic Constant Matrix: (Units=GPa)
#
#
# Indices 1 2 3 4 5 6 
#
# 1 120.9904 22.8785 29.9634 0.0000 0.0000 0.0000
# 2 22.8785 100.1248 58.0178 0.0000 0.0000 0.0000
# 3 29.9634 58.0178 90.8953 0.0000 0.0000 0.0000
# 4 0.0000 0.0000 0.0000 25.6369 0.0000 0.0000
# 5 0.0000 0.0000 0.0000 0.0000 104.5684 0.0000
# 6 0.0000 0.0000 0.0000 0.0000 0.0000 18.6845
#
#
#
# Elastic Compliance Matrix: (Units=1/GPa)
#
#
# Indices 1 2 3 4 5 6 
#
# 1 0.009018 -0.000536 -0.002630 0.000000 0.000000 0.000000
# 2 -0.000536 0.015882 -0.009960 0.000000 0.000000 0.000000
# 3 -0.002630 -0.009960 0.018226 0.000000 0.000000 0.000000
# 4 0.000000 0.000000 0.000000 0.039006 0.000000 0.000000
# 5 0.000000 0.000000 0.000000 0.000000 0.009563 0.000000
# 6 0.000000 0.000000 0.000000 0.000000 0.000000 0.053520
#
#
# Mechanical properties :
#
#
# Convention : Reuss Voigt Hill
#
# Bulk Modulus (GPa) = 59.27055 59.30332 59.28693
# Shear Modulus (GPa) = 28.23366 43.18804 35.71085
#
# Velocity S-wave (km/s) = 3.67106 4.54035 4.12865
# Velocity P-wave (km/s) = 6.80149 7.46950 7.14331
#
# Compressibility (1/GPa) = 0.01687179
#
# Stress axis : x y z
#
# Youngs Moduli (GPa) = 110.88981 62.96573 54.86563
#
# Poissons Ratio (x) = 0.03378 0.14432
# Poissons Ratio (y) = 0.05949 0.54648
# Poissons Ratio (z) = 0.29168 0.62716
#
# Static dielectric constant tensor:
#      x y z
#    x 1.775180 0.000000 0.000000 
#    y 0.000000 1.750880 0.000000 
#    z 0.000000 0.000000 1.720700 
# 
# From -- ./inp_files/18687.got.cif
#   From: 2010.05.17/outbox.cif.g08.bks.cpg/sg67_10_cif.got.tgz:18687.got - 2010.06.03 18:28:57.
