data_PCOD9504077
_publ_section_title
;
Structure prediction by ZEFSAII (Michael W. Deem and Ramdas Pophale) SiO2 
 PCOD9504077
Probable space group: C M M A
;
_chemical_formula_sum "Si O2"
_cell_formula_units_Z 88
_cell_length_a 23.400174
_cell_length_b 15.916359
_cell_length_c 11.778195
_cell_angle_alpha 90.000000
_cell_angle_beta 90.000000
_cell_angle_gamma 90.000000
_cell_volume 4386.736551
_symmetry_space_group_name_H-M "C M M A"
_symmetry_group_IT_number 67
_symmetry_cell_setting 'orthorhombic'
loop_
_space_group_symop_operation_xyz
x,y,z
-x,1/2-y,z
x,-y,-z
-x,1/2+y,-z
-x,-y,-z
x,1/2+y,-z
-x,y,z
x,1/2-y,z
1/2+x,1/2+y,z
1/2-x,-y,z
1/2+x,1/2-y,-z
1/2-x,y,-z
1/2-x,1/2-y,-z
1/2+x,y,-z
1/2-x,1/2+y,z
1/2+x,-y,z
loop_
_atom_site_type_symbol
_atom_site_label
_atom_site_fract_x
_atom_site_fract_y
_atom_site_fract_z
Si Si1 0.066731 0.989649 0.249465
Si Si2 0.757246 0.100372 0.721019
Si Si3 0.355270 0.590285 0.561292
Si Si4 0.686816 0.156963 0.050044
Si Si5 0.871388 0.657489 0.676036
Si Si6 0.613015 0.500000 0.000000
O O1 0.102310 0.927598 0.332863
O O2 0.000000 0.981127 0.273488
O O3 0.089642 0.082752 0.277925
O O4 0.078713 0.980651 0.115162
O O5 0.793895 0.115939 0.608709
O O6 0.798138 0.133662 0.820677
O O7 0.694412 0.139722 0.712989
O O8 0.750000 0.000000 0.736469
O O9 0.348534 0.500000 0.500000
O O10 0.374937 0.650648 0.460882
O O11 0.660442 0.250000 0.040578
O O12 0.652446 0.082911 0.988575
O O13 0.750000 0.159986 0.000000
O O14 0.887919 0.750000 0.715278
#
# Coordination Sequence:
#
# PCOD9504077 Si02
#       6
#    16  16  16  16  16   8
#     4  11  24  43  67  89 117 165 223 270 314 377
#     4  12  19  36  61  93 130 166 204 250 314 392
#     4  10  21  38  61  91 123 162 207 251 309 385
#     4  11  23  36  58  93 130 167 205 253 320 394
#     4  11  24  38  62  97 131 164 205 260 318 383
#     4  12  22  44  66  90 122 169 219 272 326 380
#
# _framework density 20.060472000000001
#
# number of rings (size 3 to 8) (size 9 to 14) (size 15 to 20)
#    0.000    0.909    5.455    3.818    0.000    8.000 
#    0.000    0.000    0.000    2.727    0.000    0.000 
#    0.000    0.000    0.000    0.000    0.000    0.000 
#
# Total GULP energy -245745.642187 kJ/mol
# GULP energy per Si atom -5585.128232 kJ/mol
# Density = 2.001481 g / cm^3
# Si number density = 20.060472 Si / 1000 Ang^3
#
#
#
# Elastic Constant Matrix: (Units=GPa)
#
#
# Indices 1 2 3 4 5 6 
#
# 1 80.4401 5.3427 13.6817 0.0000 0.0000 0.0000
# 2 5.3427 72.2685 -15.0332 0.0000 0.0000 0.0000
# 3 13.6817 -15.0332 77.7461 0.0000 0.0000 0.0000
# 4 0.0000 0.0000 0.0000 -19.9360 0.0000 0.0000
# 5 0.0000 0.0000 0.0000 0.0000 18.8164 0.0000
# 6 0.0000 0.0000 0.0000 0.0000 0.0000 -19.9292
#
#
#
# Elastic Compliance Matrix: (Units=1/GPa)
#
#
# Indices 1 2 3 4 5 6 
#
# 1 0.012968 -0.001494 -0.002571 0.000000 0.000000 0.000000
# 2 -0.001494 0.014589 0.003084 0.000000 0.000000 0.000000
# 3 -0.002571 0.003084 0.013911 0.000000 0.000000 0.000000
# 4 0.000000 0.000000 0.000000 -0.050161 0.000000 0.000000
# 5 0.000000 0.000000 0.000000 0.000000 0.053145 0.000000
# 6 0.000000 0.000000 0.000000 0.000000 0.000000 -0.050178
#
#
# Mechanical properties :
#
#
# Convention : Reuss Voigt Hill
#
# Bulk Modulus (GPa) = 25.31182 26.49301 25.90242
# Shear Modulus (GPa) = 531.59483 10.88781 271.24132
#
# Velocity S-wave (km/s) = 16.29636 2.33223 11.64068
# Velocity P-wave (km/s) = 19.15047 4.52632 13.91453
#
# Compressibility (1/GPa) = 0.03950723
#
# Stress axis : x y z
#
# Youngs Moduli (GPa) = 77.11245 68.54392 71.88502
#
# Poissons Ratio (x) = 0.10237 0.18481
# Poissons Ratio (y) = 0.11517 -0.22168
# Poissons Ratio (z) = 0.19825 -0.21138
#
# Static dielectric constant tensor:
#      x y z
#    x 1.675230 0.000000 0.000000 
#    y 0.000000 1.726310 0.000000 
#    z 0.000000 0.000000 1.822290 
# 
# From -- ./inp_files/22823.got.cif
#   From: 2010.05.17/outbox.cif.g08.bks.cpg/sg67_12_cif.got.tgz:22823.got - 2010.06.03 18:28:57.
