data_PCOD9504454
_publ_section_title
;
Structure prediction by ZEFSAII (Michael W. Deem and Ramdas Pophale) SiO2 
 PCOD9504454
Probable space group: C M M A
;
_chemical_formula_sum "Si O2"
_cell_formula_units_Z 112
_cell_length_a 14.559807
_cell_length_b 28.321279
_cell_length_c 13.605732
_cell_angle_alpha 90.000000
_cell_angle_beta 90.000000
_cell_angle_gamma 90.000000
_cell_volume 5610.355648
_symmetry_space_group_name_H-M "C M M A"
_symmetry_group_IT_number 67
_symmetry_cell_setting 'orthorhombic'
loop_
_space_group_symop_operation_xyz
x,y,z
-x,1/2-y,z
x,-y,-z
-x,1/2+y,-z
-x,-y,-z
x,1/2+y,-z
-x,y,z
x,1/2-y,z
1/2+x,1/2+y,z
1/2-x,-y,z
1/2+x,1/2-y,-z
1/2-x,y,-z
1/2-x,1/2-y,-z
1/2+x,y,-z
1/2-x,1/2+y,z
1/2+x,-y,z
loop_
_atom_site_type_symbol
_atom_site_label
_atom_site_fract_x
_atom_site_fract_y
_atom_site_fract_z
Si Si1 0.389540 0.538748 0.277275
Si Si2 0.252783 0.697963 0.882868
Si Si3 0.606790 0.805930 0.275981
Si Si4 0.351256 0.452330 0.952455
Si Si5 0.774768 0.882333 0.614096
Si Si6 0.900959 0.380031 0.899960
Si Si7 0.395685 0.068897 0.293728
O O1 0.500000 0.544384 0.274753
O O2 0.353495 0.545498 0.165239
O O3 0.341787 0.575481 0.350049
O O4 0.369510 0.485289 0.311293
O O5 0.283301 0.750000 0.846450
O O6 0.155591 0.688508 0.830554
O O7 0.322817 0.655679 0.867238
O O8 0.250000 0.700552 0.000000
O O9 0.500000 0.821465 0.276841
O O10 0.608091 0.750000 0.299126
O O11 0.672502 0.835776 0.347806
O O12 0.393611 0.500000 0.000000
O O13 0.250000 0.450511 0.000000
O O14 0.393085 0.403870 0.993711
O O15 0.750000 0.880750 0.500000
O O16 0.677657 0.894831 0.664429
O O17 0.897240 0.423239 0.823430
O O18 0.000000 0.356360 0.890396
O O19 0.500000 0.077049 0.329604
#
# Coordination Sequence:
#
# PCOD9504454 Si02
#       7
#    16  16  16  16  16  16  16
#     4  11  24  41  63  95 134 179 227 272 323 387
#     4  10  22  40  62  93 134 173 211 257 317 393
#     4  10  23  46  74 101 130 167 215 274 335 396
#     4  11  22  34  58  91 131 176 223 266 317 375
#     4  12  26  44  68  94 126 165 220 278 342 397
#     4  11  21  35  58  90 129 173 215 261 318 379
#     4  10  22  40  62  90 132 173 217 269 321 384
#
# _framework density 19.963083999999998
#
# number of rings (size 3 to 8) (size 9 to 14) (size 15 to 20)
#    0.000    1.286    2.857    2.571    4.000    4.000 
#    0.000    2.857    0.000    0.429    0.000    0.000 
#    0.000    0.000    0.000    0.000    0.000    0.000 
#
# Total GULP energy -312566.488343 kJ/mol
# GULP energy per Si atom -5581.544435 kJ/mol
# Density = 1.991765 g / cm^3
# Si number density = 19.963084 Si / 1000 Ang^3
#
#
#
# Elastic Constant Matrix: (Units=GPa)
#
#
# Indices 1 2 3 4 5 6 
#
# 1 140.9734 57.4479 49.0525 0.0000 0.0000 0.0000
# 2 57.4479 98.4010 36.4141 0.0000 0.0000 0.0000
# 3 49.0525 36.4141 117.0516 0.0000 0.0000 0.0000
# 4 0.0000 0.0000 0.0000 29.7296 0.0000 0.0000
# 5 0.0000 0.0000 0.0000 0.0000 7.6105 0.0000
# 6 0.0000 0.0000 0.0000 0.0000 0.0000 34.0183
#
#
#
# Elastic Compliance Matrix: (Units=1/GPa)
#
#
# Indices 1 2 3 4 5 6 
#
# 1 0.010002 -0.004846 -0.002684 0.000000 0.000000 0.000000
# 2 -0.004846 0.013833 -0.002272 0.000000 0.000000 0.000000
# 3 -0.002684 -0.002272 0.010375 0.000000 0.000000 0.000000
# 4 0.000000 0.000000 0.000000 0.033636 0.000000 0.000000
# 5 0.000000 0.000000 0.000000 0.000000 0.131397 0.000000
# 6 0.000000 0.000000 0.000000 0.000000 0.000000 0.029396
#
#
# Mechanical properties :
#
#
# Convention : Reuss Voigt Hill
#
# Bulk Modulus (GPa) = 68.47102 71.36166 69.91634
# Shear Modulus (GPa) = 19.75401 28.50580 24.12990
#
# Velocity S-wave (km/s) = 3.14909 3.78289 3.48045
# Velocity P-wave (km/s) = 6.89896 7.40977 7.15892
#
# Compressibility (1/GPa) = 0.01460472
#
# Stress axis : x y z
#
# Youngs Moduli (GPa) = 99.97655 72.29229 96.38604
#
# Poissons Ratio (x) = 0.35035 0.25870
# Poissons Ratio (y) = 0.48451 0.21903
# Poissons Ratio (z) = 0.26834 0.16428
#
# Static dielectric constant tensor:
#      x y z
#    x 1.786730 0.000000 0.000000 
#    y 0.000000 1.741960 0.000000 
#    z 0.000000 0.000000 1.758740 
# 
# From -- ./inp_files/18561.got.cif
#   From: 2010.05.17/outbox.cif.g08.bks.cpg/sg67_10_cif.got.tgz:18561.got - 2010.06.03 18:28:57.
