data_PCOD9504818
_publ_section_title
;
Structure prediction by ZEFSAII (Michael W. Deem and Ramdas Pophale) SiO2 
 PCOD9504818
Probable space group: C M M A
;
_chemical_formula_sum "Si O2"
_cell_formula_units_Z 52
_cell_length_a 17.016725
_cell_length_b 23.090683
_cell_length_c 6.717968
_cell_angle_alpha 90.000000
_cell_angle_beta 90.000000
_cell_angle_gamma 90.000000
_cell_volume 2639.676405
_symmetry_space_group_name_H-M "C M M A"
_symmetry_group_IT_number 67
_symmetry_cell_setting 'orthorhombic'
loop_
_space_group_symop_operation_xyz
x,y,z
-x,1/2-y,z
x,-y,-z
-x,1/2+y,-z
-x,-y,-z
x,1/2+y,-z
-x,y,z
x,1/2-y,z
1/2+x,1/2+y,z
1/2-x,-y,z
1/2+x,1/2-y,-z
1/2-x,y,-z
1/2-x,1/2-y,-z
1/2+x,y,-z
1/2-x,1/2+y,z
1/2+x,-y,z
loop_
_atom_site_type_symbol
_atom_site_label
_atom_site_fract_x
_atom_site_fract_y
_atom_site_fract_z
Si Si1 0.250000 0.341634 0.500000
Si Si2 0.370868 0.564291 0.558029
Si Si3 0.186024 0.250000 0.183312
Si Si4 0.500000 0.620806 0.286714
Si Si5 0.000000 0.750000 0.778465
Si Si6 0.500000 0.939329 0.890909
O O1 0.308748 0.386295 0.396970
O O2 0.206627 0.303503 0.331920
O O3 0.342666 0.500000 0.500000
O O4 0.425151 0.588286 0.378788
O O5 0.425697 0.561025 0.748690
O O6 0.091329 0.250000 0.128224
O O7 0.250000 0.250000 0.000000
O O8 0.500000 0.688814 0.337391
O O9 0.500000 0.612139 0.050221
O O10 0.500000 0.000000 0.000000
#
# Coordination Sequence:
#
# PCOD9504818 Si02
#       6
#     8  16   8   8   4   8
#     4  11  25  44  66  98 139 171 228 278 348 417
#     4  11  22  40  67  97 135 176 218 282 345 403
#     4  11  27  49  69 100 138 178 233 295 335 419
#     4  11  22  42  64 103 132 171 237 276 334 414
#     4  12  24  46  76  92 136 186 226 280 350 402
#     4  11  21  39  68  96 132 175 230 281 334 413
#
# _framework density 19.699386000000001
#
# number of rings (size 3 to 8) (size 9 to 14) (size 15 to 20)
#    0.000    0.923    6.154    1.385    4.308    0.000 
#    0.000    6.154    0.000    0.000    0.000    0.000 
#    0.000    0.000    0.000    0.000    0.000    0.000 
#
# Total GULP energy -144887.705538 kJ/mol
# GULP energy per Si atom -5572.604059 kJ/mol
# Density = 1.965455 g / cm^3
# Si number density = 19.699386 Si / 1000 Ang^3
#
#
#
# Elastic Constant Matrix: (Units=GPa)
#
#
# Indices 1 2 3 4 5 6 
#
# 1 129.8598 49.3971 33.7494 0.0000 0.0000 0.0000
# 2 49.3971 162.8654 30.6914 0.0000 0.0000 0.0000
# 3 33.7494 30.6914 91.6477 0.0000 0.0000 0.0000
# 4 0.0000 0.0000 0.0000 17.8963 0.0000 0.0000
# 5 0.0000 0.0000 0.0000 0.0000 -59.8810 0.0000
# 6 0.0000 0.0000 0.0000 0.0000 0.0000 37.0225
#
#
#
# Elastic Compliance Matrix: (Units=1/GPa)
#
#
# Indices 1 2 3 4 5 6 
#
# 1 0.009266 -0.002313 -0.002638 0.000000 0.000000 0.000000
# 2 -0.002313 0.007131 -0.001536 0.000000 0.000000 0.000000
# 3 -0.002638 -0.001536 0.012397 0.000000 0.000000 0.000000
# 4 0.000000 0.000000 0.000000 0.055878 0.000000 0.000000
# 5 0.000000 0.000000 0.000000 0.000000 -0.016700 0.000000
# 6 0.000000 0.000000 0.000000 0.000000 0.000000 0.027011
#
#
# Mechanical properties :
#
#
# Convention : Reuss Voigt Hill
#
# Bulk Modulus (GPa) = 63.21079 68.00542 65.60810
# Shear Modulus (GPa) = 44.15784 17.04324 30.60054
#
# Velocity S-wave (km/s) = 4.73967 2.94456 3.94556
# Velocity P-wave (km/s) = 7.88099 6.79390 7.35755
#
# Compressibility (1/GPa) = 0.01582008
#
# Stress axis : x y z
#
# Youngs Moduli (GPa) = 107.92079 140.22928 80.66421
#
# Poissons Ratio (x) = 0.32440 0.21275
# Poissons Ratio (y) = 0.24966 0.12392
# Poissons Ratio (z) = 0.28464 0.21542
#
# Static dielectric constant tensor:
#      x y z
#    x 1.699310 0.000000 0.000000 
#    y 0.000000 1.751930 0.000000 
#    z 0.000000 0.000000 1.688570 
# 
# From -- ./inp_files/2011.got.cif
#   From: 2010.05.17/outbox.cif.g08.bks.cpg/sg67_2_cif.got.tgz:2011.got - 2010.06.03 18:28:57.
