data_PCOD9504379
_publ_section_title
;
Structure prediction by ZEFSAII (Michael W. Deem and Ramdas Pophale) SiO2 
 PCOD9504379
Probable space group: C M M A
;
_chemical_formula_sum "Si O2"
_cell_formula_units_Z 64
_cell_length_a 21.961944
_cell_length_b 15.942294
_cell_length_c 8.562623
_cell_angle_alpha 90.000000
_cell_angle_beta 90.000000
_cell_angle_gamma 90.000000
_cell_volume 2997.977829
_symmetry_space_group_name_H-M "C M M A"
_symmetry_group_IT_number 67
_symmetry_cell_setting 'orthorhombic'
loop_
_space_group_symop_operation_xyz
x,y,z
-x,1/2-y,z
x,-y,-z
-x,1/2+y,-z
-x,-y,-z
x,1/2+y,-z
-x,y,z
x,1/2-y,z
1/2+x,1/2+y,z
1/2-x,-y,z
1/2+x,1/2-y,-z
1/2-x,y,-z
1/2-x,1/2-y,-z
1/2+x,y,-z
1/2-x,1/2+y,z
1/2+x,-y,z
loop_
_atom_site_type_symbol
_atom_site_label
_atom_site_fract_x
_atom_site_fract_y
_atom_site_fract_z
Si Si1 0.778666 0.653770 0.673110
Si Si2 0.893897 0.469439 0.334674
Si Si3 0.672910 0.417109 0.107173
Si Si4 0.934608 0.344366 0.087452
O O1 0.795795 0.750000 0.708963
O O2 0.750000 0.653782 0.500000
O O3 0.834388 0.590194 0.653975
O O4 0.732201 0.622076 0.809178
O O5 0.918188 0.500000 0.500000
O O6 0.869768 0.551006 0.246580
O O7 0.934899 0.414717 0.220587
O O8 0.684456 0.500000 0.000000
O O9 0.627880 0.358195 0.007880
O O10 0.933393 0.250000 0.151375
O O11 0.000000 0.352805 0.999581
#
# Coordination Sequence:
#
# PCOD9504379 Si02
#       4
#    16  16  16  16
#     4  11  22  37  61  92 130 166 204 252 311 376
#     4  11  22  38  61  92 128 163 206 256 308 370
#     4  10  22  38  64  94 125 165 205 258 308 370
#     4  10  23  44  65  88 124 166 212 262 309 362
#
# _framework density 21.347722999999998
#
# number of rings (size 3 to 8) (size 9 to 14) (size 15 to 20)
#    0.000    1.500    2.500    2.250    0.000   12.000 
#    0.000    6.250    0.000    3.000    0.000    0.000 
#    0.000    0.000    0.000    0.000    0.000    0.000 
#
# Total GULP energy -178558.065604 kJ/mol
# GULP energy per Si atom -5579.939550 kJ/mol
# Density = 2.129913 g / cm^3
# Si number density = 21.347723 Si / 1000 Ang^3
#
#
#
# Elastic Constant Matrix: (Units=GPa)
#
#
# Indices 1 2 3 4 5 6 
#
# 1 111.4090 18.8256 12.2526 0.0000 0.0000 0.0000
# 2 18.8256 80.3149 11.7922 0.0000 0.0000 0.0000
# 3 12.2526 11.7922 74.8489 0.0000 0.0000 0.0000
# 4 0.0000 0.0000 0.0000 29.7590 0.0000 0.0000
# 5 0.0000 0.0000 0.0000 0.0000 14.1155 0.0000
# 6 0.0000 0.0000 0.0000 0.0000 0.0000 25.6666
#
#
#
# Elastic Compliance Matrix: (Units=1/GPa)
#
#
# Indices 1 2 3 4 5 6 
#
# 1 0.009455 -0.002036 -0.001227 0.000000 0.000000 0.000000
# 2 -0.002036 0.013184 -0.001744 0.000000 0.000000 0.000000
# 3 -0.001227 -0.001744 0.013836 0.000000 0.000000 0.000000
# 4 0.000000 0.000000 0.000000 0.033603 0.000000 0.000000
# 5 0.000000 0.000000 0.000000 0.000000 0.070844 0.000000
# 6 0.000000 0.000000 0.000000 0.000000 0.000000 0.038961
#
#
# Mechanical properties :
#
#
# Convention : Reuss Voigt Hill
#
# Bulk Modulus (GPa) = 37.79107 39.14596 38.46852
# Shear Modulus (GPa) = 25.16133 28.82173 26.99153
#
# Velocity S-wave (km/s) = 3.43686 3.67837 3.55966
# Velocity P-wave (km/s) = 5.78709 6.03470 5.91219
#
# Compressibility (1/GPa) = 0.02646128
#
# Stress axis : x y z
#
# Youngs Moduli (GPa) = 105.76498 75.84787 72.27609
#
# Poissons Ratio (x) = 0.15443 0.08868
# Poissons Ratio (y) = 0.21534 0.12604
# Poissons Ratio (z) = 0.12977 0.13227
#
# Static dielectric constant tensor:
#      x y z
#    x 1.816380 0.000000 0.000000 
#    y 0.000000 1.743670 0.000000 
#    z 0.000000 0.000000 1.805810 
# 
# From -- ./inp_files/7966.got.cif
#   From: 2010.05.17/outbox.cif.g08.bks.cpg/sg67_4_cif.got.tgz:7966.got - 2010.06.03 18:28:57.
