data_PCOD9504895
_publ_section_title
;
Structure prediction by ZEFSAII (Michael W. Deem and Ramdas Pophale) SiO2 
 PCOD9504895
Probable space group: C M M A
;
_chemical_formula_sum "Si O2"
_cell_formula_units_Z 88
_cell_length_a 22.592013
_cell_length_b 8.698074
_cell_length_c 24.342379
_cell_angle_alpha 90.000000
_cell_angle_beta 90.000000
_cell_angle_gamma 90.000000
_cell_volume 4783.447892
_symmetry_space_group_name_H-M "C M M A"
_symmetry_group_IT_number 67
_symmetry_cell_setting 'orthorhombic'
loop_
_space_group_symop_operation_xyz
x,y,z
-x,1/2-y,z
x,-y,-z
-x,1/2+y,-z
-x,-y,-z
x,1/2+y,-z
-x,y,z
x,1/2-y,z
1/2+x,1/2+y,z
1/2-x,-y,z
1/2+x,1/2-y,-z
1/2-x,y,-z
1/2-x,1/2-y,-z
1/2+x,y,-z
1/2-x,1/2+y,z
1/2+x,-y,z
loop_
_atom_site_type_symbol
_atom_site_label
_atom_site_fract_x
_atom_site_fract_y
_atom_site_fract_z
Si Si1 0.500000 0.933323 0.561604
Si Si2 0.070575 0.925737 0.251006
Si Si3 0.930684 0.563668 0.123389
Si Si4 0.315049 0.567467 0.554597
Si Si5 0.686187 0.064602 0.937943
Si Si6 0.603359 0.568817 0.362687
O O1 0.500000 0.750000 0.557772
O O2 0.500000 0.000000 0.500000
O O3 0.445708 0.989908 0.598812
O O4 0.092092 0.750000 0.257173
O O5 0.078939 0.973767 0.187910
O O6 0.000000 0.923782 0.259834
O O7 0.096393 0.029123 0.298965
O O8 0.928352 0.750000 0.117756
O O9 0.874937 0.491015 0.091215
O O10 0.000000 0.519658 0.109223
O O11 0.347220 0.500000 0.500000
O O12 0.316714 0.750000 0.551460
O O13 0.250000 0.500000 0.552140
O O14 0.338903 0.504961 0.611633
O O15 0.688613 0.250000 0.937810
O O16 0.750000 0.000000 0.915579
O O17 0.682844 0.000000 0.000000
O O18 0.600940 0.750000 0.370934
#
# Coordination Sequence:
#
# PCOD9504895 Si02
#       6
#     8  16  16  16  16  16
#     4  12  24  38  54  78 110 142 179 226 281 336
#     4   9  18  35  58  82 112 151 190 231 283 338
#     4   9  19  37  61  89 121 158 200 246 295 352
#     4  11  22  39  59  79 104 137 177 225 277 338
#     4  11  22  38  61  88 122 162 203 249 300 358
#     4  12  23  36  55  82 111 143 181 226 277 336
#
# _framework density 18.396773
#
# number of rings (size 3 to 8) (size 9 to 14) (size 15 to 20)
#    0.000    1.455    0.909    8.455    0.000    1.455 
#    0.000    2.727    0.000    4.364    0.000    0.000 
#    0.000    0.000    0.000    0.000    0.000    0.000 
#
# Total GULP energy -245321.741952 kJ/mol
# GULP energy per Si atom -5575.494135 kJ/mol
# Density = 1.835490 g / cm^3
# Si number density = 18.396773 Si / 1000 Ang^3
#
#
#
# Elastic Constant Matrix: (Units=GPa)
#
#
# Indices 1 2 3 4 5 6 
#
# 1 117.6314 53.0406 61.2732 0.0000 0.0000 0.0000
# 2 53.0406 153.4988 58.1641 0.0000 0.0000 0.0000
# 3 61.2732 58.1641 86.7346 0.0000 0.0000 0.0000
# 4 0.0000 0.0000 0.0000 31.6511 0.0000 0.0000
# 5 0.0000 0.0000 0.0000 0.0000 15.9237 0.0000
# 6 0.0000 0.0000 0.0000 0.0000 0.0000 21.7361
#
#
#
# Elastic Compliance Matrix: (Units=1/GPa)
#
#
# Indices 1 2 3 4 5 6 
#
# 1 0.013680 -0.001428 -0.008707 0.000000 0.000000 0.000000
# 2 -0.001428 0.008883 -0.004948 0.000000 0.000000 0.000000
# 3 -0.008707 -0.004948 0.020999 0.000000 0.000000 0.000000
# 4 0.000000 0.000000 0.000000 0.031594 0.000000 0.000000
# 5 0.000000 0.000000 0.000000 0.000000 0.062799 0.000000
# 6 0.000000 0.000000 0.000000 0.000000 0.000000 0.046007
#
#
# Mechanical properties :
#
#
# Convention : Reuss Voigt Hill
#
# Bulk Modulus (GPa) = 74.64898 78.09118 76.37008
# Shear Modulus (GPa) = 22.87348 26.22130 24.54739
#
# Velocity S-wave (km/s) = 3.52993 3.77944 3.65681
# Velocity P-wave (km/s) = 7.56830 7.84767 7.70925
#
# Compressibility (1/GPa) = 0.01339603
#
# Stress axis : x y z
#
# Youngs Moduli (GPa) = 73.09771 112.57295 47.62220
#
# Poissons Ratio (x) = 0.16075 0.41464
# Poissons Ratio (y) = 0.10438 0.23565
# Poissons Ratio (z) = 0.63645 0.55704
#
# Static dielectric constant tensor:
#      x y z
#    x 1.703960 0.000000 0.000000 
#    y 0.000000 1.625590 0.000000 
#    z 0.000000 0.000000 1.634510 
# 
# From -- ./inp_files/39584.got.cif
#   From: 2010.05.17/outbox.cif.g08.bks.cpg/sg67_20_cif.got.tgz:39584.got - 2010.06.03 18:28:57.
