data_PCOD9504793
_publ_section_title
;
Structure prediction by ZEFSAII (Michael W. Deem and Ramdas Pophale) SiO2 
 PCOD9504793
Probable space group: C M M A
;
_chemical_formula_sum "Si O2"
_cell_formula_units_Z 112
_cell_length_a 14.844013
_cell_length_b 23.195500
_cell_length_c 16.324253
_cell_angle_alpha 90.000000
_cell_angle_beta 90.000000
_cell_angle_gamma 90.000000
_cell_volume 5620.673803
_symmetry_space_group_name_H-M "C M M A"
_symmetry_group_IT_number 67
_symmetry_cell_setting 'orthorhombic'
loop_
_space_group_symop_operation_xyz
x,y,z
-x,1/2-y,z
x,-y,-z
-x,1/2+y,-z
-x,-y,-z
x,1/2+y,-z
-x,y,z
x,1/2-y,z
1/2+x,1/2+y,z
1/2-x,-y,z
1/2+x,1/2-y,-z
1/2-x,y,-z
1/2-x,1/2-y,-z
1/2+x,y,-z
1/2-x,1/2+y,z
1/2+x,-y,z
loop_
_atom_site_type_symbol
_atom_site_label
_atom_site_fract_x
_atom_site_fract_y
_atom_site_fract_z
Si Si1 0.142181 0.684688 0.010564
Si Si2 0.749560 0.592791 0.598071
Si Si3 0.603400 0.108569 0.165217
Si Si4 0.758283 0.317951 0.729242
Si Si5 0.898287 0.365577 0.160533
Si Si6 0.102668 0.999337 0.599937
Si Si7 0.109844 0.489633 0.094135
O O1 0.122619 0.750000 0.037689
O O2 0.101572 0.671786 0.922298
O O3 0.250000 0.679151 0.000000
O O4 0.107753 0.639044 0.076191
O O5 0.750000 0.595853 0.500000
O O6 0.746935 0.654406 0.639709
O O7 0.838169 0.556317 0.623898
O O8 0.662554 0.554654 0.623518
O O9 0.500000 0.106791 0.193049
O O10 0.664043 0.147577 0.222959
O O11 0.636981 0.043474 0.150403
O O12 0.772890 0.250000 0.730919
O O13 0.667028 0.334967 0.776216
O O14 0.862792 0.428392 0.131620
O O15 0.000000 0.371940 0.191692
O O16 0.000000 0.999411 0.630233
O O17 0.099881 0.000000 0.500000
O O18 0.000000 0.489308 0.091839
O O19 0.139563 0.500000 0.000000
#
# Coordination Sequence:
#
# PCOD9504793 Si02
#       7
#    16  16  16  16  16  16  16
#     4  11  21  36  57  83 116 156 203 242 280 350
#     4   9  20  39  64  93 123 161 203 242 303 371
#     4  11  23  40  61  85 117 157 197 246 308 361
#     4  12  27  43  57  83 122 158 207 263 297 348
#     4  11  23  40  61  85 117 157 197 246 308 361
#     4   8  15  33  65 100 127 147 179 237 299 362
#     4   9  18  35  58  86 116 147 190 241 293 355
#
# _framework density 19.926437
#
# number of rings (size 3 to 8) (size 9 to 14) (size 15 to 20)
#    0.000    1.857    2.857    2.143    0.000    7.143 
#    0.000    2.857    0.000    0.000    0.000    6.000 
#    0.000    0.000    0.000    0.000    0.000    0.000 
#
# Total GULP energy -313031.253582 kJ/mol
# GULP energy per Si atom -5589.843814 kJ/mol
# Density = 1.988108 g / cm^3
# Si number density = 19.926437 Si / 1000 Ang^3
#
#
#
# Elastic Constant Matrix: (Units=GPa)
#
#
# Indices 1 2 3 4 5 6 
#
# 1 114.1629 24.7729 17.9451 0.0000 0.0000 0.0000
# 2 24.7729 107.5191 24.6484 0.0000 0.0000 0.0000
# 3 17.9451 24.6484 44.4266 0.0000 0.0000 0.0000
# 4 0.0000 0.0000 0.0000 30.2193 0.0000 0.0000
# 5 0.0000 0.0000 0.0000 0.0000 71.9450 0.0000
# 6 0.0000 0.0000 0.0000 0.0000 0.0000 18.1709
#
#
#
# Elastic Compliance Matrix: (Units=1/GPa)
#
#
# Indices 1 2 3 4 5 6 
#
# 1 0.009563 -0.001510 -0.003025 0.000000 0.000000 0.000000
# 2 -0.001510 0.010894 -0.005434 0.000000 0.000000 0.000000
# 3 -0.003025 -0.005434 0.026746 0.000000 0.000000 0.000000
# 4 0.000000 0.000000 0.000000 0.033091 0.000000 0.000000
# 5 0.000000 0.000000 0.000000 0.000000 0.013900 0.000000
# 6 0.000000 0.000000 0.000000 0.000000 0.000000 0.055033
#
#
# Mechanical properties :
#
#
# Convention : Reuss Voigt Hill
#
# Bulk Modulus (GPa) = 36.67772 44.53795 40.60783
# Shear Modulus (GPa) = 28.04997 37.31653 32.68325
#
# Velocity S-wave (km/s) = 3.75597 4.33218 4.05433
# Velocity P-wave (km/s) = 6.10379 6.88647 6.50691
#
# Compressibility (1/GPa) = 0.02726451
#
# Stress axis : x y z
#
# Youngs Moduli (GPa) = 104.57506 91.79048 37.38874
#
# Poissons Ratio (x) = 0.13858 0.11310
# Poissons Ratio (y) = 0.15789 0.20319
# Poissons Ratio (z) = 0.31633 0.49883
#
# Static dielectric constant tensor:
#      x y z
#    x 1.757100 0.000000 0.000000 
#    y 0.000000 1.675040 0.000000 
#    z 0.000000 0.000000 1.700570 
# 
# From -- ./inp_files/27571.got.cif
#   From: 2010.05.17/outbox.cif.g08.bks.cpg/sg67_14_cif.got.tgz:27571.got - 2010.06.03 18:28:57.
