data_PCOD9504695
_publ_section_title
;
Structure prediction by ZEFSAII (Michael W. Deem and Ramdas Pophale) SiO2 
 PCOD9504695
Probable space group: C M M A
;
_chemical_formula_sum "Si O2"
_cell_formula_units_Z 60
_cell_length_a 23.504026
_cell_length_b 19.101648
_cell_length_c 6.128486
_cell_angle_alpha 90.000000
_cell_angle_beta 90.000000
_cell_angle_gamma 90.000000
_cell_volume 2751.479586
_symmetry_space_group_name_H-M "C M M A"
_symmetry_group_IT_number 67
_symmetry_cell_setting 'orthorhombic'
loop_
_space_group_symop_operation_xyz
x,y,z
-x,1/2-y,z
x,-y,-z
-x,1/2+y,-z
-x,-y,-z
x,1/2+y,-z
-x,y,z
x,1/2-y,z
1/2+x,1/2+y,z
1/2-x,-y,z
1/2+x,1/2-y,-z
1/2-x,y,-z
1/2-x,1/2-y,-z
1/2+x,y,-z
1/2-x,1/2+y,z
1/2+x,-y,z
loop_
_atom_site_type_symbol
_atom_site_label
_atom_site_fract_x
_atom_site_fract_y
_atom_site_fract_z
Si Si1 0.152539 0.168162 0.797759
Si Si2 0.341835 0.437422 0.828864
Si Si3 0.750000 0.606949 0.500000
Si Si4 0.437542 0.888173 0.469036
Si Si5 0.500000 0.250000 0.660836
O O1 0.140851 0.250000 0.811950
O O2 0.206969 0.152680 0.645972
O O3 0.099571 0.129269 0.681785
O O4 0.162293 0.133547 0.031396
O O5 0.290091 0.436939 0.660708
O O6 0.399989 0.435148 0.691232
O O7 0.339073 0.500000 0.000000
O O8 0.500000 0.916737 0.523585
O O9 0.451403 0.812839 0.356278
#
# Coordination Sequence:
#
# PCOD9504695 Si02
#       5
#    16  16   8  16   4
#     4  11  22  39  66  94 122 167 224 274 332 401
#     4  11  26  42  63  95 129 178 223 268 332 402
#     4  10  25  43  60  86 135 163 216 288 341 383
#     4   9  20  40  65  94 137 167 213 270 330 383
#     4   8  16  40  64  96 134 180 202 270 344 376
#
# _framework density 21.806448
#
# number of rings (size 3 to 8) (size 9 to 14) (size 15 to 20)
#    0.800    1.067    1.333    1.200    1.867   12.267 
#    0.000    2.667    0.000    0.000    0.000    0.000 
#    0.000    0.000    0.000    0.000    0.000    0.000 
#
# Total GULP energy -167216.062019 kJ/mol
# GULP energy per Si atom -5573.868734 kJ/mol
# Density = 2.175682 g / cm^3
# Si number density = 21.806448 Si / 1000 Ang^3
#
#
#
# Elastic Constant Matrix: (Units=GPa)
#
#
# Indices 1 2 3 4 5 6 
#
# 1 158.9062 25.2847 76.2154 0.0000 0.0000 0.0000
# 2 25.2847 69.7759 42.2166 0.0000 0.0000 0.0000
# 3 76.2154 42.2166 112.5129 0.0000 0.0000 0.0000
# 4 0.0000 0.0000 0.0000 27.5735 0.0000 0.0000
# 5 0.0000 0.0000 0.0000 0.0000 -3.0971 0.0000
# 6 0.0000 0.0000 0.0000 0.0000 0.0000 20.4180
#
#
#
# Elastic Compliance Matrix: (Units=1/GPa)
#
#
# Indices 1 2 3 4 5 6 
#
# 1 0.009339 0.000574 -0.006542 0.000000 0.000000 0.000000
# 2 0.000574 0.018576 -0.007358 0.000000 0.000000 0.000000
# 3 -0.006542 -0.007358 0.016080 0.000000 0.000000 0.000000
# 4 0.000000 0.000000 0.000000 0.036267 0.000000 0.000000
# 5 0.000000 0.000000 0.000000 0.000000 -0.322881 0.000000
# 6 0.000000 0.000000 0.000000 0.000000 0.000000 0.048976
#
#
# Mechanical properties :
#
#
# Convention : Reuss Voigt Hill
#
# Bulk Modulus (GPa) = 57.66256 69.84760 63.75508
# Shear Modulus (GPa) = -31.01558 22.14408 -4.43575
#
# Velocity S-wave (km/s) = -3.77545 3.19012 -1.42778
# Velocity P-wave (km/s) = 2.73769 6.75791 5.15579
#
# Compressibility (1/GPa) = 0.01734228
#
# Stress axis : x y z
#
# Youngs Moduli (GPa) = 107.07498 53.83328 62.18875
#
# Poissons Ratio (x) = -0.03088 0.40681
# Poissons Ratio (y) = -0.06141 0.45761
# Poissons Ratio (z) = 0.70044 0.39613
#
# Static dielectric constant tensor:
#      x y z
#    x 1.788930 0.000000 0.000000 
#    y 0.000000 1.788560 0.000000 
#    z 0.000000 0.000000 1.767850 
# 
# From -- ./inp_files/3310.got.cif
#   From: 2010.05.17/outbox.cif.g08.bks.cpg/sg67_2_cif.got.tgz:3310.got - 2010.06.03 18:28:57.
