data_PCOD9504277
_publ_section_title
;
Structure prediction by ZEFSAII (Michael W. Deem and Ramdas Pophale) SiO2 
 PCOD9504277
Probable space group: C M M A
;
_chemical_formula_sum "Si O2"
_cell_formula_units_Z 100
_cell_length_a 17.970934
_cell_length_b 14.898893
_cell_length_c 19.510764
_cell_angle_alpha 90.000000
_cell_angle_beta 90.000000
_cell_angle_gamma 90.000000
_cell_volume 5223.948973
_symmetry_space_group_name_H-M "C M M A"
_symmetry_group_IT_number 67
_symmetry_cell_setting 'orthorhombic'
loop_
_space_group_symop_operation_xyz
x,y,z
-x,1/2-y,z
x,-y,-z
-x,1/2+y,-z
-x,-y,-z
x,1/2+y,-z
-x,y,z
x,1/2-y,z
1/2+x,1/2+y,z
1/2-x,-y,z
1/2+x,1/2-y,-z
1/2-x,y,-z
1/2-x,1/2-y,-z
1/2+x,y,-z
1/2-x,1/2+y,z
1/2+x,-y,z
loop_
_atom_site_type_symbol
_atom_site_label
_atom_site_fract_x
_atom_site_fract_y
_atom_site_fract_z
Si Si1 0.416269 0.486024 0.725968
Si Si2 0.627309 0.497072 0.117707
Si Si3 0.500000 0.500000 0.000000
Si Si4 0.815476 0.645818 0.642550
Si Si5 0.584966 0.607122 0.489357
Si Si6 0.751927 0.145125 0.082877
Si Si7 0.141109 0.351109 0.638727
O O1 0.500000 0.454202 0.711108
O O2 0.405504 0.500836 0.806301
O O3 0.356336 0.415918 0.697551
O O4 0.401776 0.577754 0.684871
O O5 0.564888 0.495233 0.059840
O O6 0.680629 0.410249 0.109291
O O7 0.677675 0.586328 0.106860
O O8 0.820625 0.750000 0.661865
O O9 0.858460 0.632356 0.570765
O O10 0.728365 0.623164 0.635815
O O11 0.586802 0.500000 0.500000
O O12 0.500000 0.633042 0.472263
O O13 0.609399 0.646920 0.561922
O O14 0.753751 0.250000 0.103725
O O15 0.750000 0.142328 0.000000
O O16 0.135065 0.250000 0.665999
#
# Coordination Sequence:
#
# PCOD9504277 Si02
#       7
#    16  16   4  16  16  16  16
#     4  12  26  42  63  93 129 171 208 262 331 389
#     4  11  23  42  69  93 132 171 211 268 320 379
#     4  12  20  46  70 100 132 174 216 264 326 386
#     4  11  25  43  65  94 127 169 221 271 321 382
#     4  11  22  39  66  95 126 171 218 269 327 379
#     4  10  21  41  68  97 125 164 213 260 314 382
#     4  11  25  43  65  94 127 169 221 271 321 382
#
# _framework density 19.142607000000002
#
# number of rings (size 3 to 8) (size 9 to 14) (size 15 to 20)
#    0.000    0.960    4.000    2.880    4.480    6.400 
#    0.000    1.600    0.000    0.000    0.000    0.000 
#    0.000    0.000    0.000    0.000    0.000    0.000 
#
# Total GULP energy -279052.035200 kJ/mol
# GULP energy per Si atom -5581.040704 kJ/mol
# Density = 1.909904 g / cm^3
# Si number density = 19.142607 Si / 1000 Ang^3
#
#
#
# Elastic Constant Matrix: (Units=GPa)
#
#
# Indices 1 2 3 4 5 6 
#
# 1 87.9380 18.8551 7.6744 0.0000 0.0000 0.0000
# 2 18.8551 92.9843 6.3083 0.0000 0.0000 0.0000
# 3 7.6744 6.3083 104.1320 0.0000 0.0000 0.0000
# 4 0.0000 0.0000 0.0000 -50.8534 0.0000 0.0000
# 5 0.0000 0.0000 0.0000 0.0000 38.9020 0.0000
# 6 0.0000 0.0000 0.0000 0.0000 0.0000 377.4066
#
#
#
# Elastic Compliance Matrix: (Units=1/GPa)
#
#
# Indices 1 2 3 4 5 6 
#
# 1 0.011945 -0.002372 -0.000737 0.000000 0.000000 0.000000
# 2 -0.002372 0.011270 -0.000508 0.000000 0.000000 0.000000
# 3 -0.000737 -0.000508 0.009688 0.000000 0.000000 0.000000
# 4 0.000000 0.000000 0.000000 -0.019664 0.000000 0.000000
# 5 0.000000 0.000000 0.000000 0.000000 0.025706 0.000000
# 6 0.000000 0.000000 0.000000 0.000000 0.000000 0.002650
#
#
# Mechanical properties :
#
#
# Convention : Reuss Voigt Hill
#
# Bulk Modulus (GPa) = 38.95668 38.96998 38.96333
# Shear Modulus (GPa) = 87.13317 89.90548 88.51932
#
# Velocity S-wave (km/s) = 6.75402 6.86062 6.80753
# Velocity P-wave (km/s) = 9.01206 9.11918 9.06578
#
# Compressibility (1/GPa) = 0.02566954
#
# Stress axis : x y z
#
# Youngs Moduli (GPa) = 83.72024 88.73133 103.21781
#
# Poissons Ratio (x) = 0.21048 0.07603
# Poissons Ratio (y) = 0.19859 0.05243
# Poissons Ratio (z) = 0.06167 0.04507
#
# Static dielectric constant tensor:
#      x y z
#    x 1.649950 0.000000 0.000000 
#    y 0.000000 1.641970 0.000000 
#    z 0.000000 0.000000 1.631990 
# 
# From -- ./inp_files/39003.got.cif
#   From: 2010.05.17/outbox.cif.g08.bks.cpg/sg67_20_cif.got.tgz:39003.got - 2010.06.03 18:28:57.
