data_PCOD9504196
_publ_section_title
;
Structure prediction by ZEFSAII (Michael W. Deem and Ramdas Pophale) SiO2 
 PCOD9504196
Probable space group: C M M A
;
_chemical_formula_sum "Si O2"
_cell_formula_units_Z 116
_cell_length_a 23.692579
_cell_length_b 26.846476
_cell_length_c 8.544186
_cell_angle_alpha 90.000000
_cell_angle_beta 90.000000
_cell_angle_gamma 90.000000
_cell_volume 5434.634201
_symmetry_space_group_name_H-M "C M M A"
_symmetry_group_IT_number 67
_symmetry_cell_setting 'orthorhombic'
loop_
_space_group_symop_operation_xyz
x,y,z
-x,1/2-y,z
x,-y,-z
-x,1/2+y,-z
-x,-y,-z
x,1/2+y,-z
-x,y,z
x,1/2-y,z
1/2+x,1/2+y,z
1/2-x,-y,z
1/2+x,1/2-y,-z
1/2-x,y,-z
1/2-x,1/2-y,-z
1/2+x,y,-z
1/2-x,1/2+y,z
1/2+x,-y,z
loop_
_atom_site_type_symbol
_atom_site_label
_atom_site_fract_x
_atom_site_fract_y
_atom_site_fract_z
Si Si1 0.933539 0.692726 0.337815
Si Si2 0.500000 0.000000 0.000000
Si Si3 0.665187 0.196162 0.912898
Si Si4 0.118434 0.074542 0.405764
Si Si5 0.063478 0.830084 0.699583
Si Si6 0.772970 0.645103 0.652696
Si Si7 0.100569 0.972642 0.249433
Si Si8 0.661190 0.879124 0.817079
O O1 0.925762 0.750000 0.284766
O O2 0.925151 0.690989 0.525701
O O3 0.888126 0.655121 0.263262
O O4 0.000000 0.678893 0.308908
O O5 0.451307 0.014550 0.135080
O O6 0.672134 0.250000 0.987082
O O7 0.604581 0.190642 0.830652
O O8 0.707557 0.186559 0.772401
O O9 0.674177 0.150807 0.027483
O O10 0.072867 0.110742 0.324293
O O11 0.175380 0.108166 0.393636
O O12 0.096766 0.057472 0.579709
O O13 0.126275 0.024746 0.306106
O O14 0.000000 0.818689 0.742658
O O15 0.750000 0.671375 0.500000
O O16 0.718962 0.616812 0.721321
O O17 0.138357 0.933979 0.154093
#
# Coordination Sequence:
#
# PCOD9504196 Si02
#       8
#    16   4  16  16  16  16  16  16
#     4  10  21  39  65  99 134 178 241 299 356 425
#     4  12  32  42  72 114 150 186 232 272 362 450
#     4  11  26  43  64 100 143 183 229 295 368 430
#     4  10  23  45  72 102 137 184 240 299 350 408
#     4  10  21  39  68  97 133 182 233 288 351 422
#     4  11  23  46  72 101 130 181 246 300 351 424
#     4  11  26  45  70 104 143 186 232 285 349 423
#     4  12  24  43  69  98 138 183 231 296 365 434
#
# _framework density 21.344583
#
# number of rings (size 3 to 8) (size 9 to 14) (size 15 to 20)
#    0.000    1.241    2.759    2.069    6.759    4.414 
#    0.000    0.000    0.000    0.000    0.000    0.000 
#    0.000    0.000    0.000    0.000    0.000    0.000 
#
# Total GULP energy -323041.009202 kJ/mol
# GULP energy per Si atom -5569.672572 kJ/mol
# Density = 2.129600 g / cm^3
# Si number density = 21.344583 Si / 1000 Ang^3
#
#
#
# Elastic Constant Matrix: (Units=GPa)
#
#
# Indices 1 2 3 4 5 6 
#
# 1 98.1305 -1.2734 28.6061 0.0000 0.0000 0.0000
# 2 -1.2734 97.1348 16.8533 0.0000 0.0000 0.0000
# 3 28.6061 16.8533 75.2849 0.0000 0.0000 0.0000
# 4 0.0000 0.0000 0.0000 512.0029 0.0000 0.0000
# 5 0.0000 0.0000 0.0000 0.0000 50.9403 0.0000
# 6 0.0000 0.0000 0.0000 0.0000 0.0000 -5.6426
#
#
#
# Elastic Compliance Matrix: (Units=1/GPa)
#
#
# Indices 1 2 3 4 5 6 
#
# 1 0.011543 0.000949 -0.004599 0.000000 0.000000 0.000000
# 2 0.000949 0.010789 -0.002776 0.000000 0.000000 0.000000
# 3 -0.004599 -0.002776 0.015652 0.000000 0.000000 0.000000
# 4 0.000000 0.000000 0.000000 0.001953 0.000000 0.000000
# 5 0.000000 0.000000 0.000000 0.000000 0.019631 0.000000
# 6 0.000000 0.000000 0.000000 0.000000 0.000000 -0.177222
#
#
# Mechanical properties :
#
#
# Convention : Reuss Voigt Hill
#
# Bulk Modulus (GPa) = 39.78773 39.88026 39.83399
# Shear Modulus (GPa) = -51.85340 126.55107 37.34883
#
# Velocity S-wave (km/s) = -4.93419 7.70832 4.18760
# Velocity P-wave (km/s) = 3.71221 9.89692 6.48724
#
# Compressibility (1/GPa) = 0.02513338
#
# Stress axis : x y z
#
# Youngs Moduli (GPa) = 86.62972 92.68655 63.89107
#
# Poissons Ratio (x) = -0.08798 0.29381
# Poissons Ratio (y) = -0.08223 0.17736
# Poissons Ratio (z) = 0.39838 0.25729
#
# Static dielectric constant tensor:
#      x y z
#    x 1.784310 0.000000 0.000000 
#    y 0.000000 1.762490 0.000000 
#    z 0.000000 0.000000 1.843400 
# 
# From -- ./inp_files/12925.got.cif
#   From: 2010.05.17/outbox.cif.g08.bks.cpg/sg67_7_cif.got.tgz:12925.got - 2010.06.03 18:28:57.
