data_PCOD9504296
_publ_section_title
;
Structure prediction by ZEFSAII (Michael W. Deem and Ramdas Pophale) SiO2 
 PCOD9504296
Probable space group: C M M A
;
_chemical_formula_sum "Si O2"
_cell_formula_units_Z 64
_cell_length_a 15.405750
_cell_length_b 10.814160
_cell_length_c 16.974747
_cell_angle_alpha 90.000000
_cell_angle_beta 90.000000
_cell_angle_gamma 90.000000
_cell_volume 2827.997016
_symmetry_space_group_name_H-M "C M M A"
_symmetry_group_IT_number 67
_symmetry_cell_setting 'orthorhombic'
loop_
_space_group_symop_operation_xyz
x,y,z
-x,1/2-y,z
x,-y,-z
-x,1/2+y,-z
-x,-y,-z
x,1/2+y,-z
-x,y,z
x,1/2-y,z
1/2+x,1/2+y,z
1/2-x,-y,z
1/2+x,1/2-y,-z
1/2-x,y,-z
1/2-x,1/2-y,-z
1/2+x,y,-z
1/2-x,1/2+y,z
1/2+x,-y,z
loop_
_atom_site_type_symbol
_atom_site_label
_atom_site_fract_x
_atom_site_fract_y
_atom_site_fract_z
Si Si1 0.401982 0.250000 0.876238
Si Si2 0.779933 0.750000 0.089546
Si Si3 0.344726 0.114719 0.458929
Si Si4 0.600983 0.892484 0.711370
Si Si5 0.597634 0.523592 0.878502
O O1 0.500000 0.250000 0.837425
O O2 0.301069 0.250000 0.848920
O O3 0.400869 0.386797 0.915558
O O4 0.834021 0.624682 0.097107
O O5 0.750000 0.750000 0.000000
O O6 0.385746 0.250000 0.468365
O O7 0.250000 0.121811 0.500000
O O8 0.341196 0.090073 0.365611
O O9 0.390871 0.000000 0.500000
O O10 0.500000 0.901391 0.686335
O O11 0.613445 0.750000 0.740379
O O12 0.612480 0.985892 0.783716
O O13 0.500000 0.573239 0.888779
#
# Coordination Sequence:
#
# PCOD9504296 Si02
#       5
#     8   8  16  16  16
#     4  10  24  43  62  95 140 172 208 269 338 395
#     4  12  25  43  68 101 129 170 224 269 326 399
#     4   9  18  34  50  77 116 155 201 252 312 379
#     4   9  17  34  62  87 114 159 214 267 321 386
#     4  10  21  43  69  98 132 172 224 279 332 393
#
# _framework density 22.630859000000001
#
# number of rings (size 3 to 8) (size 9 to 14) (size 15 to 20)
#    0.000    2.250    1.250    1.125    0.000    3.500 
#   11.250    2.500    0.000    0.000    0.000    0.000 
#    0.000    0.000    0.000    0.000    0.000    0.000 
#
# Total GULP energy -178140.957156 kJ/mol
# GULP energy per Si atom -5566.904911 kJ/mol
# Density = 2.257935 g / cm^3
# Si number density = 22.630859 Si / 1000 Ang^3
#
#
#
# Elastic Constant Matrix: (Units=GPa)
#
#
# Indices 1 2 3 4 5 6 
#
# 1 121.4601 49.8168 38.2814 0.0000 0.0000 0.0000
# 2 49.8168 152.3136 22.7472 0.0000 0.0000 0.0000
# 3 38.2814 22.7472 90.3172 0.0000 0.0000 0.0000
# 4 0.0000 0.0000 0.0000 20.8023 0.0000 0.0000
# 5 0.0000 0.0000 0.0000 0.0000 24.4790 0.0000
# 6 0.0000 0.0000 0.0000 0.0000 0.0000 24.4469
#
#
#
# Elastic Compliance Matrix: (Units=1/GPa)
#
#
# Indices 1 2 3 4 5 6 
#
# 1 0.010613 -0.002909 -0.003766 0.000000 0.000000 0.000000
# 2 -0.002909 0.007619 -0.000686 0.000000 0.000000 0.000000
# 3 -0.003766 -0.000686 0.012841 0.000000 0.000000 0.000000
# 4 0.000000 0.000000 0.000000 0.048072 0.000000 0.000000
# 5 0.000000 0.000000 0.000000 0.000000 0.040851 0.000000
# 6 0.000000 0.000000 0.000000 0.000000 0.000000 0.040905
#
#
# Mechanical properties :
#
#
# Convention : Reuss Voigt Hill
#
# Bulk Modulus (GPa) = 61.15451 65.08688 63.12070
# Shear Modulus (GPa) = 27.61312 30.82866 29.22089
#
# Velocity S-wave (km/s) = 3.49686 3.69486 3.59722
# Velocity P-wave (km/s) = 6.58675 6.85750 6.72349
#
# Compressibility (1/GPa) = 0.01635202
#
# Stress axis : x y z
#
# Youngs Moduli (GPa) = 94.22324 131.24674 77.87532
#
# Poissons Ratio (x) = 0.38177 0.29326
# Poissons Ratio (y) = 0.27408 0.05343
# Poissons Ratio (z) = 0.35483 0.09004
#
# Static dielectric constant tensor:
#      x y z
#    x 1.885220 0.000000 0.000000 
#    y 0.000000 1.893980 0.000000 
#    z 0.000000 0.000000 1.860990 
# 
# From -- ./inp_files/33409.got.cif
#   From: 2010.05.17/outbox.cif.g08.bks.cpg/sg67_17_cif.got.tgz:33409.got - 2010.06.03 18:28:57.
