data_PCOD9504113
_publ_section_title
;
Structure prediction by ZEFSAII (Michael W. Deem and Ramdas Pophale) SiO2 
 PCOD9504113
Probable space group: C M M A
;
_chemical_formula_sum "Si O2"
_cell_formula_units_Z 96
_cell_length_a 23.331621
_cell_length_b 17.776525
_cell_length_c 12.247255
_cell_angle_alpha 90.000000
_cell_angle_beta 90.000000
_cell_angle_gamma 90.000000
_cell_volume 5079.612011
_symmetry_space_group_name_H-M "C M M A"
_symmetry_group_IT_number 67
_symmetry_cell_setting 'orthorhombic'
loop_
_space_group_symop_operation_xyz
x,y,z
-x,1/2-y,z
x,-y,-z
-x,1/2+y,-z
-x,-y,-z
x,1/2+y,-z
-x,y,z
x,1/2-y,z
1/2+x,1/2+y,z
1/2-x,-y,z
1/2+x,1/2-y,-z
1/2-x,y,-z
1/2-x,1/2-y,-z
1/2+x,y,-z
1/2-x,1/2+y,z
1/2+x,-y,z
loop_
_atom_site_type_symbol
_atom_site_label
_atom_site_fract_x
_atom_site_fract_y
_atom_site_fract_z
Si Si1 0.933636 0.661471 0.490725
Si Si2 0.871932 0.098210 0.707017
Si Si3 0.932748 0.163820 0.152220
Si Si4 0.638680 0.076623 0.672041
Si Si5 0.751472 0.662631 0.368235
Si Si6 0.432788 0.077681 0.064855
O O1 0.922116 0.750000 0.506530
O O2 0.919787 0.638233 0.367224
O O3 0.892319 0.613901 0.568107
O O4 0.000000 0.647076 0.517272
O O5 0.812889 0.141569 0.682061
O O6 0.892957 0.092790 0.831544
O O7 0.863624 0.012716 0.666888
O O8 0.916195 0.250000 0.174404
O O9 0.896280 0.107022 0.224210
O O10 0.000000 0.155232 0.180276
O O11 0.927018 0.142847 0.025395
O O12 0.702797 0.108024 0.677477
O O13 0.738047 0.750000 0.345246
O O14 0.750000 0.653767 0.500000
O O15 0.500000 0.072627 0.098778
O O16 0.419790 0.000000 0.000000
#
# Coordination Sequence:
#
# PCOD9504113 Si02
#       6
#    16  16  16  16  16  16
#     4  11  24  39  58  91 132 167 205 258 319 385
#     4  12  24  39  66  95 124 164 214 267 319 379
#     4  10  21  38  64  94 125 166 210 254 315 387
#     4  12  23  39  64  92 125 164 211 262 318 382
#     4  11  24  43  65  89 125 170 209 255 317 383
#     4  10  21  41  65  93 130 167 207 261 322 378
#
# _framework density 18.899082
#
# number of rings (size 3 to 8) (size 9 to 14) (size 15 to 20)
#    0.000    1.000    3.333    4.000    0.000    6.000 
#    0.000    2.500    0.000    2.000    0.000    0.000 
#    0.000    0.000    0.000    0.000    0.000    0.000 
#
# Total GULP energy -268374.810879 kJ/mol
# GULP energy per Si atom -5591.141893 kJ/mol
# Density = 1.885607 g / cm^3
# Si number density = 18.899082 Si / 1000 Ang^3
#
#
#
# Elastic Constant Matrix: (Units=GPa)
#
#
# Indices 1 2 3 4 5 6 
#
# 1 47.4733 0.5793 20.4069 0.0000 0.0000 0.0000
# 2 0.5793 38.0321 -15.1646 0.0000 0.0000 0.0000
# 3 20.4069 -15.1646 73.7392 0.0000 0.0000 0.0000
# 4 0.0000 0.0000 0.0000 14.5803 0.0000 0.0000
# 5 0.0000 0.0000 0.0000 0.0000 22.6028 0.0000
# 6 0.0000 0.0000 0.0000 0.0000 0.0000 25.2894
#
#
#
# Elastic Compliance Matrix: (Units=1/GPa)
#
#
# Indices 1 2 3 4 5 6 
#
# 1 0.024288 -0.003322 -0.007405 0.000000 0.000000 0.000000
# 2 -0.003322 0.029097 0.006903 0.000000 0.000000 0.000000
# 3 -0.007405 0.006903 0.017030 0.000000 0.000000 0.000000
# 4 0.000000 0.000000 0.000000 0.068586 0.000000 0.000000
# 5 0.000000 0.000000 0.000000 0.000000 0.044242 0.000000
# 6 0.000000 0.000000 0.000000 0.000000 0.000000 0.039542
#
#
# Mechanical properties :
#
#
# Convention : Reuss Voigt Hill
#
# Bulk Modulus (GPa) = 15.93197 18.98754 17.45975
# Shear Modulus (GPa) = 19.89214 22.72272 21.30743
#
# Velocity S-wave (km/s) = 3.24781 3.47121 3.36137
# Velocity P-wave (km/s) = 4.74476 5.11217 4.93189
#
# Compressibility (1/GPa) = 0.06276688
#
# Stress axis : x y z
#
# Youngs Moduli (GPa) = 41.17251 34.36810 58.71912
#
# Poissons Ratio (x) = 0.11419 0.43481
# Poissons Ratio (y) = 0.13680 -0.40535
# Poissons Ratio (z) = 0.30488 -0.23725
#
# Static dielectric constant tensor:
#      x y z
#    x 1.637480 0.000000 0.000000 
#    y 0.000000 1.643170 0.000000 
#    z 0.000000 0.000000 1.656130 
# 
# From -- ./inp_files/21949.got.cif
#   From: 2010.05.17/outbox.cif.g08.bks.cpg/sg67_11_cif.got.tgz:21949.got - 2010.06.03 18:28:57.
