data_PCOD9504606
_publ_section_title
;
Structure prediction by ZEFSAII (Michael W. Deem and Ramdas Pophale) SiO2 
 PCOD9504606
Probable space group: C M M A
;
_chemical_formula_sum "Si O2"
_cell_formula_units_Z 56
_cell_length_a 10.090205
_cell_length_b 16.599556
_cell_length_c 16.807853
_cell_angle_alpha 90.000000
_cell_angle_beta 90.000000
_cell_angle_gamma 90.000000
_cell_volume 2815.196427
_symmetry_space_group_name_H-M "C M M A"
_symmetry_group_IT_number 67
_symmetry_cell_setting 'orthorhombic'
loop_
_space_group_symop_operation_xyz
x,y,z
-x,1/2-y,z
x,-y,-z
-x,1/2+y,-z
-x,-y,-z
x,1/2+y,-z
-x,y,z
x,1/2-y,z
1/2+x,1/2+y,z
1/2-x,-y,z
1/2+x,1/2-y,-z
1/2-x,y,-z
1/2-x,1/2-y,-z
1/2+x,y,-z
1/2-x,1/2+y,z
1/2+x,-y,z
loop_
_atom_site_type_symbol
_atom_site_label
_atom_site_fract_x
_atom_site_fract_y
_atom_site_fract_z
Si Si1 0.341350 0.250000 0.077387
Si Si2 0.500000 0.654909 0.550207
Si Si3 0.347821 0.425670 0.154151
Si Si4 0.223181 0.588442 0.336860
Si Si5 0.000000 0.154697 0.370652
O O1 0.500000 0.250000 0.060600
O O2 0.314324 0.335433 0.122416
O O3 0.250000 0.250000 0.000000
O O4 0.500000 0.750000 0.541466
O O5 0.371883 0.632010 0.601402
O O6 0.500000 0.620176 0.460960
O O7 0.500000 0.443783 0.130375
O O8 0.250000 0.500000 0.130865
O O9 0.341186 0.419635 0.250100
O O10 0.250000 0.500000 0.369409
O O11 0.366131 0.628480 0.328149
O O12 0.000000 0.250000 0.375188
#
# Coordination Sequence:
#
# PCOD9504606 Si02
#       5
#     8   8  16  16   8
#     4  10  24  46  70 102 133 171 210 246 315 383
#     4  11  23  39  61  83 119 168 211 262 322 372
#     4  10  23  42  67  98 131 169 214 260 312 376
#     4  11  23  39  60  88 121 162 213 259 316 370
#     4  11  25  39  55  89 123 160 213 270 316 370
#
# _framework density 19.892040999999999
#
# number of rings (size 3 to 8) (size 9 to 14) (size 15 to 20)
#    0.000    1.429    1.429    2.571   10.000    7.429 
#    0.000    2.857    0.000    0.000    0.000    0.000 
#    0.000    0.000    0.000    0.000    0.000    0.000 
#
# Total GULP energy -156303.823599 kJ/mol
# GULP energy per Si atom -5582.279414 kJ/mol
# Density = 1.984677 g / cm^3
# Si number density = 19.892041 Si / 1000 Ang^3
#
#
#
# Elastic Constant Matrix: (Units=GPa)
#
#
# Indices 1 2 3 4 5 6 
#
# 1 116.2386 58.1542 11.4223 0.0000 0.0000 0.0000
# 2 58.1542 136.0972 21.0489 0.0000 0.0000 0.0000
# 3 11.4223 21.0489 27.4668 0.0000 0.0000 0.0000
# 4 0.0000 0.0000 0.0000 74.5118 0.0000 0.0000
# 5 0.0000 0.0000 0.0000 0.0000 36.7155 0.0000
# 6 0.0000 0.0000 0.0000 0.0000 0.0000 46.2982
#
#
#
# Elastic Compliance Matrix: (Units=1/GPa)
#
#
# Indices 1 2 3 4 5 6 
#
# 1 0.010971 -0.004518 -0.001100 0.000000 0.000000 0.000000
# 2 -0.004518 0.010196 -0.005935 0.000000 0.000000 0.000000
# 3 -0.001100 -0.005935 0.041413 0.000000 0.000000 0.000000
# 4 0.000000 0.000000 0.000000 0.013421 0.000000 0.000000
# 5 0.000000 0.000000 0.000000 0.000000 0.027236 0.000000
# 6 0.000000 0.000000 0.000000 0.000000 0.000000 0.021599
#
#
# Mechanical properties :
#
#
# Convention : Reuss Voigt Hill
#
# Bulk Modulus (GPa) = 25.33275 51.22816 38.28046
# Shear Modulus (GPa) = 31.03638 44.11693 37.57665
#
# Velocity S-wave (km/s) = 3.95427 4.71448 4.35101
# Velocity P-wave (km/s) = 5.79751 7.44608 6.67290
#
# Compressibility (1/GPa) = 0.03947460
#
# Stress axis : x y z
#
# Youngs Moduli (GPa) = 91.14590 98.07703 24.14688
#
# Poissons Ratio (x) = 0.44310 0.02657
# Poissons Ratio (y) = 0.41179 0.14331
# Poissons Ratio (z) = 0.10029 0.58207
#
# Static dielectric constant tensor:
#      x y z
#    x 1.682920 0.000000 0.000000 
#    y 0.000000 1.708820 0.000000 
#    z 0.000000 0.000000 1.667090 
# 
# From -- ./inp_files/26622.got.cif
#   From: 2010.05.17/outbox.cif.g08.bks.cpg/sg67_14_cif.got.tgz:26622.got - 2010.06.03 18:28:57.
