data_PCOD9504472
_publ_section_title
;
Structure prediction by ZEFSAII (Michael W. Deem and Ramdas Pophale) SiO2 
 PCOD9504472
Probable space group: C M M A
;
_chemical_formula_sum "Si O2"
_cell_formula_units_Z 72
_cell_length_a 17.342922
_cell_length_b 15.452799
_cell_length_c 14.000660
_cell_angle_alpha 90.000000
_cell_angle_beta 90.000000
_cell_angle_gamma 90.000000
_cell_volume 3752.130506
_symmetry_space_group_name_H-M "C M M A"
_symmetry_group_IT_number 67
_symmetry_cell_setting 'orthorhombic'
loop_
_space_group_symop_operation_xyz
x,y,z
-x,1/2-y,z
x,-y,-z
-x,1/2+y,-z
-x,-y,-z
x,1/2+y,-z
-x,y,z
x,1/2-y,z
1/2+x,1/2+y,z
1/2-x,-y,z
1/2+x,1/2-y,-z
1/2-x,y,-z
1/2-x,1/2-y,-z
1/2+x,y,-z
1/2-x,1/2+y,z
1/2+x,-y,z
loop_
_atom_site_type_symbol
_atom_site_label
_atom_site_fract_x
_atom_site_fract_y
_atom_site_fract_z
Si Si1 0.660248 0.901806 0.971586
Si Si2 0.196507 0.250000 0.279384
Si Si3 0.910794 0.750000 0.907104
Si Si4 0.590647 0.750000 0.466322
Si Si5 0.091456 0.571640 0.422382
Si Si6 0.802231 0.584480 0.241162
O O1 0.655930 0.891529 0.857734
O O2 0.750000 0.887041 0.000000
O O3 0.610378 0.833507 0.029639
O O4 0.640713 0.000000 0.000000
O O5 0.141490 0.250000 0.187070
O O6 0.145433 0.250000 0.374764
O O7 0.249163 0.164580 0.273054
O O8 0.000000 0.750000 0.881008
O O9 0.500000 0.750000 0.437516
O O10 0.604145 0.834816 0.530150
O O11 0.115089 0.500000 0.500000
O O12 0.138893 0.563317 0.325639
O O13 0.000000 0.561218 0.404381
O O14 0.750000 0.500000 0.221233
#
# Coordination Sequence:
#
# PCOD9504472 Si02
#       6
#    16   8   8   8  16  16
#     4  11  21  43  66  88 126 169 204 257 319 368
#     4  12  23  38  62  92 122 162 206 264 304 371
#     4  12  25  40  63  96 129 166 211 259 319 382
#     4  10  22  41  59  81 123 166 197 247 315 366
#     4  10  23  42  61  87 126 163 201 258 314 367
#     4  12  23  38  67  93 118 162 210 252 311 373
#
# _framework density 19.189098000000001
#
# number of rings (size 3 to 8) (size 9 to 14) (size 15 to 20)
#    0.000    0.889    4.444    3.333    0.000    5.333 
#    0.000    6.667    0.000    0.000    0.000    0.000 
#    0.000    0.000    0.000    0.000    0.000    0.000 
#
# Total GULP energy -201427.314103 kJ/mol
# GULP energy per Si atom -5595.203170 kJ/mol
# Density = 1.914542 g / cm^3
# Si number density = 19.189098 Si / 1000 Ang^3
#
#
#
# Elastic Constant Matrix: (Units=GPa)
#
#
# Indices 1 2 3 4 5 6 
#
# 1 48.8781 11.4829 41.1193 0.0000 0.0000 0.0000
# 2 11.4829 55.9251 -20.6473 0.0000 0.0000 0.0000
# 3 41.1193 -20.6473 122.7741 0.0000 0.0000 0.0000
# 4 0.0000 0.0000 0.0000 22.5423 0.0000 0.0000
# 5 0.0000 0.0000 0.0000 0.0000 23.6441 0.0000
# 6 0.0000 0.0000 0.0000 0.0000 0.0000 234.5802
#
#
#
# Elastic Compliance Matrix: (Units=1/GPa)
#
#
# Indices 1 2 3 4 5 6 
#
# 1 0.034900 -0.012241 -0.013747 0.000000 0.000000 0.000000
# 2 -0.012241 0.023358 0.008028 0.000000 0.000000 0.000000
# 3 -0.013747 0.008028 0.014099 0.000000 0.000000 0.000000
# 4 0.000000 0.000000 0.000000 0.044361 0.000000 0.000000
# 5 0.000000 0.000000 0.000000 0.000000 0.042294 0.000000
# 6 0.000000 0.000000 0.000000 0.000000 0.000000 0.004263
#
#
# Mechanical properties :
#
#
# Convention : Reuss Voigt Hill
#
# Bulk Modulus (GPa) = 27.44480 32.38747 29.91613
# Shear Modulus (GPa) = 23.65830 69.19481 46.42656
#
# Velocity S-wave (km/s) = 3.51508 6.01147 4.92410
# Velocity P-wave (km/s) = 5.55047 8.06835 6.92481
#
# Compressibility (1/GPa) = 0.03643678
#
# Stress axis : x y z
#
# Youngs Moduli (GPa) = 28.65331 42.81097 70.92513
#
# Poissons Ratio (x) = 0.52406 0.97503
# Poissons Ratio (y) = 0.35076 -0.56940
# Poissons Ratio (z) = 0.39391 -0.34369
#
# Static dielectric constant tensor:
#      x y z
#    x 1.646780 0.000000 0.000000 
#    y 0.000000 1.651320 0.000000 
#    z 0.000000 0.000000 1.633480 
# 
# From -- ./inp_files/28294.got.cif
#   From: 2010.05.17/outbox.cif.g08.bks.cpg/sg67_15_cif.got.tgz:28294.got - 2010.06.03 18:28:57.
