data_PCOD9504534
_publ_section_title
;
Structure prediction by ZEFSAII (Michael W. Deem and Ramdas Pophale) SiO2 
 PCOD9504534
Probable space group: C M M A
;
_chemical_formula_sum "Si O2"
_cell_formula_units_Z 88
_cell_length_a 22.776420
_cell_length_b 14.898223
_cell_length_c 13.209859
_cell_angle_alpha 90.000000
_cell_angle_beta 90.000000
_cell_angle_gamma 90.000000
_cell_volume 4482.477469
_symmetry_space_group_name_H-M "C M M A"
_symmetry_group_IT_number 67
_symmetry_cell_setting 'orthorhombic'
loop_
_space_group_symop_operation_xyz
x,y,z
-x,1/2-y,z
x,-y,-z
-x,1/2+y,-z
-x,-y,-z
x,1/2+y,-z
-x,y,z
x,1/2-y,z
1/2+x,1/2+y,z
1/2-x,-y,z
1/2+x,1/2-y,-z
1/2-x,y,-z
1/2-x,1/2-y,-z
1/2+x,y,-z
1/2-x,1/2+y,z
1/2+x,-y,z
loop_
_atom_site_type_symbol
_atom_site_label
_atom_site_fract_x
_atom_site_fract_y
_atom_site_fract_z
Si Si1 0.146927 0.111659 0.899628
Si Si2 0.065178 0.750000 0.208545
Si Si3 0.500000 0.398815 0.541790
Si Si4 0.256345 0.606580 0.234059
Si Si5 0.875236 0.100136 0.127844
Si Si6 0.919903 0.750000 0.445308
Si Si7 0.000000 0.356089 0.227119
Si Si8 0.216016 0.250000 0.603786
O O1 0.102602 0.165796 0.828984
O O2 0.213131 0.126401 0.860767
O O3 0.133114 0.006784 0.885270
O O4 0.136606 0.138130 0.015752
O O5 0.059966 0.750000 0.328869
O O6 0.000000 0.750000 0.163395
O O7 0.500000 0.500000 0.500000
O O8 0.445420 0.337949 0.501921
O O9 0.500000 0.402491 0.663173
O O10 0.250000 0.500000 0.254509
O O11 0.323193 0.629074 0.203798
O O12 0.232803 0.664807 0.326940
O O13 0.940303 0.120651 0.167224
O O14 0.850893 0.750000 0.431293
O O15 0.000000 0.250000 0.246427
O O16 0.250000 0.250000 0.500000
#
# Coordination Sequence:
#
# PCOD9504534 Si02
#       8
#    16   8   8  16  16   8   8   8
#     4  10  22  43  64 102 129 177 215 272 329 408
#     4  12  24  37  68  91 134 164 223 269 324 387
#     4  11  27  46  76  94 131 183 224 274 349 408
#     4  10  22  44  69  98 130 175 224 275 338 410
#     4  10  25  40  69  92 141 171 220 269 337 404
#     4  11  24  50  65 100 131 168 228 283 323 408
#     4  12  28  44  60  99 133 173 224 276 336 408
#     4  12  27  42  68  95 133 171 221 290 341 378
#
# _framework density 19.632000000000001
#
# number of rings (size 3 to 8) (size 9 to 14) (size 15 to 20)
#    0.000    1.273    3.636    0.545   10.182    3.273 
#    0.000    1.818    0.000    0.000    0.000    0.000 
#    0.000    0.000    0.000    0.000    0.000    0.000 
#
# Total GULP energy -245827.012227 kJ/mol
# GULP energy per Si atom -5586.977551 kJ/mol
# Density = 1.958732 g / cm^3
# Si number density = 19.632000 Si / 1000 Ang^3
#
#
#
# Elastic Constant Matrix: (Units=GPa)
#
#
# Indices 1 2 3 4 5 6 
#
# 1 199.2455 38.8647 69.0227 0.0000 0.0000 0.0000
# 2 38.8647 86.6499 40.4582 0.0000 0.0000 0.0000
# 3 69.0227 40.4582 137.9631 0.0000 0.0000 0.0000
# 4 0.0000 0.0000 0.0000 14.6020 0.0000 0.0000
# 5 0.0000 0.0000 0.0000 0.0000 38.6984 0.0000
# 6 0.0000 0.0000 0.0000 0.0000 0.0000 24.2504
#
#
#
# Elastic Compliance Matrix: (Units=1/GPa)
#
#
# Indices 1 2 3 4 5 6 
#
# 1 0.006247 -0.001556 -0.002669 0.000000 0.000000 0.000000
# 2 -0.001556 0.013759 -0.003257 0.000000 0.000000 0.000000
# 3 -0.002669 -0.003257 0.009539 0.000000 0.000000 0.000000
# 4 0.000000 0.000000 0.000000 0.068484 0.000000 0.000000
# 5 0.000000 0.000000 0.000000 0.000000 0.025841 0.000000
# 6 0.000000 0.000000 0.000000 0.000000 0.000000 0.041236
#
#
# Mechanical properties :
#
#
# Convention : Reuss Voigt Hill
#
# Bulk Modulus (GPa) = 68.57826 80.06109 74.31968
# Shear Modulus (GPa) = 27.03735 33.87768 30.45752
#
# Velocity S-wave (km/s) = 3.71510 4.15858 3.94308
# Velocity P-wave (km/s) = 7.30824 7.99549 7.65958
#
# Compressibility (1/GPa) = 0.01458188
#
# Stress axis : x y z
#
# Youngs Moduli (GPa) = 160.07587 72.67972 104.83614
#
# Poissons Ratio (x) = 0.11307 0.27983
# Poissons Ratio (y) = 0.24903 0.34141
# Poissons Ratio (z) = 0.42727 0.23669
#
# Static dielectric constant tensor:
#      x y z
#    x 1.215590 0.000000 0.000000 
#    y 0.000000 1.702160 0.000000 
#    z 0.000000 0.000000 1.668160 
# 
# From -- ./inp_files/21824.got.cif
#   From: 2010.05.17/outbox.cif.g08.bks.cpg/sg67_11_cif.got.tgz:21824.got - 2010.06.03 18:28:57.
