data_PCOD9504738
_publ_section_title
;
Structure prediction by ZEFSAII (Michael W. Deem and Ramdas Pophale) SiO2 
 PCOD9504738
Probable space group: C M M A
;
_chemical_formula_sum "Si O2"
_cell_formula_units_Z 116
_cell_length_a 23.157667
_cell_length_b 17.001450
_cell_length_c 14.800923
_cell_angle_alpha 90.000000
_cell_angle_beta 90.000000
_cell_angle_gamma 90.000000
_cell_volume 5827.329379
_symmetry_space_group_name_H-M "C M M A"
_symmetry_group_IT_number 67
_symmetry_cell_setting 'orthorhombic'
loop_
_space_group_symop_operation_xyz
x,y,z
-x,1/2-y,z
x,-y,-z
-x,1/2+y,-z
-x,-y,-z
x,1/2+y,-z
-x,y,z
x,1/2-y,z
1/2+x,1/2+y,z
1/2-x,-y,z
1/2+x,1/2-y,-z
1/2-x,y,-z
1/2-x,1/2-y,-z
1/2+x,y,-z
1/2-x,1/2+y,z
1/2+x,-y,z
loop_
_atom_site_type_symbol
_atom_site_label
_atom_site_fract_x
_atom_site_fract_y
_atom_site_fract_z
Si Si1 0.500000 0.250000 0.853048
Si Si2 0.809442 0.406144 0.390734
Si Si3 0.586998 0.076391 0.108938
Si Si4 0.420216 0.605820 0.094253
Si Si5 0.675649 0.405166 0.406726
Si Si6 0.224914 0.587476 0.094996
Si Si7 0.064441 0.344088 0.702136
Si Si8 0.683217 0.842001 0.201236
O O1 0.451267 0.321277 0.858077
O O2 0.741918 0.379988 0.386833
O O3 0.817594 0.500486 0.393858
O O4 0.833762 0.381496 0.488248
O O5 0.835921 0.374761 0.298286
O O6 0.656454 0.080754 0.100138
O O7 0.567968 0.124915 0.195361
O O8 0.567622 0.985318 0.118663
O O9 0.567133 0.110244 0.012486
O O10 0.353954 0.617618 0.122521
O O11 0.620930 0.376713 0.349596
O O12 0.250000 0.500000 0.103944
O O13 0.250947 0.636518 0.177440
O O14 0.250000 0.619669 0.000000
O O15 0.067599 0.250000 0.700650
O O16 0.000000 0.366980 0.666300
O O17 0.676010 0.750000 0.199318
#
# Coordination Sequence:
#
# PCOD9504738 Si02
#       8
#     4  16  16  16  16  16  16  16
#     4  12  28  42  64  82 126 170 212 284 312 354
#     4   9  20  37  69  97 124 158 205 260 333 406
#     4  11  23  41  66  92 120 171 223 260 318 385
#     4  11  24  42  63  87 122 168 217 263 314 370
#     4   9  19  42  66  95 124 162 206 266 328 389
#     4  11  20  37  60  90 130 167 205 256 310 376
#     4  11  26  42  63  91 128 171 223 273 316 369
#     4  12  23  36  57  96 131 164 202 253 320 390
#
# _framework density 19.906203000000001
#
# number of rings (size 3 to 8) (size 9 to 14) (size 15 to 20)
#    0.000    1.379    3.448    3.310    4.828    3.586 
#    0.000    2.759    1.517    0.000    0.000    0.000 
#    0.000    0.000    0.000    0.000    0.000    0.000 
#
# Total GULP energy -322984.737524 kJ/mol
# GULP energy per Si atom -5568.702371 kJ/mol
# Density = 1.986090 g / cm^3
# Si number density = 19.906203 Si / 1000 Ang^3
#
#
#
# Elastic Constant Matrix: (Units=GPa)
#
#
# Indices 1 2 3 4 5 6 
#
# 1 126.8673 21.9682 31.5614 0.0000 0.0000 0.0000
# 2 21.9682 48.9630 32.2911 0.0000 0.0000 0.0000
# 3 31.5614 32.2911 108.7835 0.0000 0.0000 0.0000
# 4 0.0000 0.0000 0.0000 -28.9447 0.0000 0.0000
# 5 0.0000 0.0000 0.0000 0.0000 -5.3437 0.0000
# 6 0.0000 0.0000 0.0000 0.0000 0.0000 30.9422
#
#
#
# Elastic Compliance Matrix: (Units=1/GPa)
#
#
# Indices 1 2 3 4 5 6 
#
# 1 0.008797 -0.002815 -0.001717 0.000000 0.000000 0.000000
# 2 -0.002815 0.026296 -0.006989 0.000000 0.000000 0.000000
# 3 -0.001717 -0.006989 0.011765 0.000000 0.000000 0.000000
# 4 0.000000 0.000000 0.000000 -0.034549 0.000000 0.000000
# 5 0.000000 0.000000 0.000000 0.000000 -0.187135 0.000000
# 6 0.000000 0.000000 0.000000 0.000000 0.000000 0.032318
#
#
# Mechanical properties :
#
#
# Convention : Reuss Voigt Hill
#
# Bulk Modulus (GPa) = 41.98680 50.69501 46.34090
# Shear Modulus (GPa) = -44.83177 12.58362 -16.12407
#
# Velocity S-wave (km/s) = -4.75083 2.51698 -2.84914
# Velocity P-wave (km/s) = 2.99262 5.82830 3.53648
#
# Compressibility (1/GPa) = 0.02381701
#
# Stress axis : x y z
#
# Youngs Moduli (GPa) = 113.67892 38.02913 84.99632
#
# Poissons Ratio (x) = 0.10704 0.14591
# Poissons Ratio (y) = 0.31997 0.59403
# Poissons Ratio (z) = 0.19515 0.26578
#
# Static dielectric constant tensor:
#      x y z
#    x 1.731250 0.000000 0.000000 
#    y 0.000000 1.673320 0.000000 
#    z 0.000000 0.000000 1.725170 
# 
# From -- ./inp_files/30280.got.cif
#   From: 2010.05.17/outbox.cif.g08.bks.cpg/sg67_16_cif.got.tgz:30280.got - 2010.06.03 18:28:57.
