data_PCOD9504988
_publ_section_title
;
Structure prediction by ZEFSAII (Michael W. Deem and Ramdas Pophale) SiO2 
 PCOD9504988
Probable space group: C M M A
;
_chemical_formula_sum "Si O2"
_cell_formula_units_Z 80
_cell_length_a 9.957274
_cell_length_b 17.275241
_cell_length_c 24.677796
_cell_angle_alpha 90.000000
_cell_angle_beta 90.000000
_cell_angle_gamma 90.000000
_cell_volume 4244.934003
_symmetry_space_group_name_H-M "C M M A"
_symmetry_group_IT_number 67
_symmetry_cell_setting 'orthorhombic'
loop_
_space_group_symop_operation_xyz
x,y,z
-x,1/2-y,z
x,-y,-z
-x,1/2+y,-z
-x,-y,-z
x,1/2+y,-z
-x,y,z
x,1/2-y,z
1/2+x,1/2+y,z
1/2-x,-y,z
1/2+x,1/2-y,-z
1/2-x,y,-z
1/2-x,1/2-y,-z
1/2+x,y,-z
1/2-x,1/2+y,z
1/2+x,-y,z
loop_
_atom_site_type_symbol
_atom_site_label
_atom_site_fract_x
_atom_site_fract_y
_atom_site_fract_z
Si Si1 0.246075 0.338627 0.618390
Si Si2 0.345054 0.155441 0.048718
Si Si3 0.000000 0.571490 0.576240
Si Si4 0.000000 0.608520 0.449503
Si Si5 0.341658 0.073640 0.277514
Si Si6 0.836934 0.661211 0.168651
O O1 0.291379 0.250000 0.619579
O O2 0.368604 0.395085 0.604770
O O3 0.131886 0.349911 0.572985
O O4 0.182079 0.363581 0.675500
O O5 0.500000 0.131379 0.040975
O O6 0.344986 0.250000 0.049216
O O7 0.296202 0.132570 0.108882
O O8 0.250000 0.129564 0.000000
O O9 0.000000 0.600410 0.514005
O O10 0.000000 0.478677 0.574663
O O11 0.500000 0.054039 0.276040
O O12 0.299666 0.109086 0.219531
O O13 0.250000 0.000000 0.289531
O O14 0.790656 0.750000 0.176177
O O15 0.000000 0.663613 0.167372
#
# Coordination Sequence:
#
# PCOD9504988 Si02
#       6
#    16  16   8   8  16  16
#     4  12  25  40  63  91 119 153 195 243 290 339
#     4   8  13  23  43  72 105 139 176 222 277 333
#     4  11  25  43  63  91 123 159 186 239 288 343
#     4  11  23  43  67  89 121 157 200 225 282 353
#     4  11  23  39  61  83 111 149 194 240 289 352
#     4   8  15  30  53  79 107 142 187 234 278 335
#
# _framework density 18.845994000000001
#
# number of rings (size 3 to 8) (size 9 to 14) (size 15 to 20)
#    0.000    2.000    1.000    4.800    1.400    4.800 
#    0.000    1.000    0.000    1.800    0.000    4.200 
#    0.000    0.000    0.000    0.000    0.000    0.000 
#
# Total GULP energy -223346.080770 kJ/mol
# GULP energy per Si atom -5583.652019 kJ/mol
# Density = 1.880310 g / cm^3
# Si number density = 18.845994 Si / 1000 Ang^3
#
#
#
# Elastic Constant Matrix: (Units=GPa)
#
#
# Indices 1 2 3 4 5 6 
#
# 1 66.7726 7.4879 20.2684 0.0000 0.0000 0.0000
# 2 7.4879 52.6430 25.1315 0.0000 0.0000 0.0000
# 3 20.2684 25.1315 95.3070 0.0000 0.0000 0.0000
# 4 0.0000 0.0000 0.0000 20.1571 0.0000 0.0000
# 5 0.0000 0.0000 0.0000 0.0000 30.0713 0.0000
# 6 0.0000 0.0000 0.0000 0.0000 0.0000 19.6523
#
#
#
# Elastic Compliance Matrix: (Units=1/GPa)
#
#
# Indices 1 2 3 4 5 6 
#
# 1 0.016035 -0.000747 -0.003213 0.000000 0.000000 0.000000
# 2 -0.000747 0.021766 -0.005581 0.000000 0.000000 0.000000
# 3 -0.003213 -0.005581 0.012647 0.000000 0.000000 0.000000
# 4 0.000000 0.000000 0.000000 0.049610 0.000000 0.000000
# 5 0.000000 0.000000 0.000000 0.000000 0.033254 0.000000
# 6 0.000000 0.000000 0.000000 0.000000 0.000000 0.050885
#
#
# Mechanical properties :
#
#
# Convention : Reuss Voigt Hill
#
# Bulk Modulus (GPa) = 31.88031 35.61093 33.74562
# Shear Modulus (GPa) = 23.39339 24.76513 24.07926
#
# Velocity S-wave (km/s) = 3.52702 3.62896 3.57835
# Velocity P-wave (km/s) = 5.79133 6.04118 5.91757
#
# Compressibility (1/GPa) = 0.03136732
#
# Stress axis : x y z
#
# Youngs Moduli (GPa) = 62.36241 45.94249 79.06802
#
# Poissons Ratio (x) = 0.03431 0.25406
# Poissons Ratio (y) = 0.04658 0.44126
# Poissons Ratio (z) = 0.20038 0.25639
#
# Static dielectric constant tensor:
#      x y z
#    x 1.625140 0.000000 0.000000 
#    y 0.000000 1.635820 0.000000 
#    z 0.000000 0.000000 1.667910 
# 
# From -- ./inp_files/43346.got.cif
#   From: 2010.05.17/outbox.cif.g08.bks.cpg/sg67_22_cif.got.tgz:43346.got - 2010.06.03 18:28:57.
