data_PCOD9504766
_publ_section_title
;
Structure prediction by ZEFSAII (Michael W. Deem and Ramdas Pophale) SiO2 
 PCOD9504766
Probable space group: C M M A
;
_chemical_formula_sum "Si O2"
_cell_formula_units_Z 96
_cell_length_a 22.374207
_cell_length_b 17.349632
_cell_length_c 13.869120
_cell_angle_alpha 90.000000
_cell_angle_beta 90.000000
_cell_angle_gamma 90.000000
_cell_volume 5383.774053
_symmetry_space_group_name_H-M "C M M A"
_symmetry_group_IT_number 67
_symmetry_cell_setting 'orthorhombic'
loop_
_space_group_symop_operation_xyz
x,y,z
-x,1/2-y,z
x,-y,-z
-x,1/2+y,-z
-x,-y,-z
x,1/2+y,-z
-x,y,z
x,1/2-y,z
1/2+x,1/2+y,z
1/2-x,-y,z
1/2+x,1/2-y,-z
1/2-x,y,-z
1/2-x,1/2-y,-z
1/2+x,y,-z
1/2-x,1/2+y,z
1/2+x,-y,z
loop_
_atom_site_type_symbol
_atom_site_label
_atom_site_fract_x
_atom_site_fract_y
_atom_site_fract_z
Si Si1 0.428117 0.995981 0.614575
Si Si2 0.241099 0.158231 0.114345
Si Si3 0.370523 0.603602 0.869706
Si Si4 0.432228 0.341228 0.946568
Si Si5 0.429543 0.667089 0.694085
Si Si6 0.870732 0.570018 0.792739
O O1 0.500000 0.004570 0.636954
O O2 0.389247 0.053428 0.681781
O O3 0.421425 0.000000 0.500000
O O4 0.407370 0.909698 0.642732
O O5 0.228525 0.250000 0.118957
O O6 0.306023 0.137820 0.155915
O O7 0.191144 0.110880 0.173854
O O8 0.250000 0.138037 0.000000
O O9 0.417877 0.651019 0.806365
O O10 0.372779 0.514147 0.842584
O O11 0.386997 0.618461 0.980022
O O12 0.500000 0.356464 0.976946
O O13 0.421474 0.250000 0.947398
O O14 0.420542 0.376415 0.842045
O O15 0.500000 0.669776 0.675688
O O16 0.403502 0.750000 0.666268
#
# Coordination Sequence:
#
# PCOD9504766 Si02
#       6
#    16  16  16  16  16  16
#     4   9  19  37  59  83 112 144 184 241 301 349
#     4  11  22  36  54  76 111 153 192 229 275 340
#     4  11  21  33  53  77 107 145 186 227 274 333
#     4  11  22  34  49  75 113 150 183 225 280 343
#     4   9  17  31  53  80 106 135 177 227 282 345
#     4  11  22  35  55  80 107 144 190 235 282 339
#
# _framework density 17.831357000000001
#
# number of rings (size 3 to 8) (size 9 to 14) (size 15 to 20)
#    0.000    1.667    1.667    4.000    0.000    4.667 
#    0.000    1.667    0.000   12.000    0.000    5.833 
#    0.000    0.000    0.000    0.000    0.000    0.000 
#
# Total GULP energy -267484.731987 kJ/mol
# GULP energy per Si atom -5572.598583 kJ/mol
# Density = 1.779077 g / cm^3
# Si number density = 17.831357 Si / 1000 Ang^3
#
#
#
# Elastic Constant Matrix: (Units=GPa)
#
#
# Indices 1 2 3 4 5 6 
#
# 1 65.4352 27.9276 17.9196 0.0000 0.0000 0.0000
# 2 27.9276 66.0406 27.1880 0.0000 0.0000 0.0000
# 3 17.9196 27.1880 89.0438 0.0000 0.0000 0.0000
# 4 0.0000 0.0000 0.0000 9.6136 0.0000 0.0000
# 5 0.0000 0.0000 0.0000 0.0000 20.2139 0.0000
# 6 0.0000 0.0000 0.0000 0.0000 0.0000 26.1094
#
#
#
# Elastic Compliance Matrix: (Units=1/GPa)
#
#
# Indices 1 2 3 4 5 6 
#
# 1 0.018834 -0.007325 -0.001554 0.000000 0.000000 0.000000
# 2 -0.007325 0.020168 -0.004684 0.000000 0.000000 0.000000
# 3 -0.001554 -0.004684 0.012973 0.000000 0.000000 0.000000
# 4 0.000000 0.000000 0.000000 0.104019 0.000000 0.000000
# 5 0.000000 0.000000 0.000000 0.000000 0.049471 0.000000
# 6 0.000000 0.000000 0.000000 0.000000 0.000000 0.038300
#
#
# Mechanical properties :
#
#
# Convention : Reuss Voigt Hill
#
# Bulk Modulus (GPa) = 40.24099 40.73222 40.48660
# Shear Modulus (GPa) = 17.90997 21.01969 19.46483
#
# Velocity S-wave (km/s) = 3.17268 3.43710 3.30753
# Velocity P-wave (km/s) = 6.00314 6.21644 6.11072
#
# Compressibility (1/GPa) = 0.02485028
#
# Stress axis : x y z
#
# Youngs Moduli (GPa) = 53.09528 49.58319 77.08174
#
# Poissons Ratio (x) = 0.36320 0.11976
# Poissons Ratio (y) = 0.38892 0.36104
# Poissons Ratio (z) = 0.08249 0.23224
#
# Static dielectric constant tensor:
#      x y z
#    x 1.647610 0.000000 0.000000 
#    y 0.000000 1.625340 0.000000 
#    z 0.000000 0.000000 1.630410 
# 
# From -- ./inp_files/21924.got.cif
#   From: 2010.05.17/outbox.cif.g08.bks.cpg/sg67_11_cif.got.tgz:21924.got - 2010.06.03 18:28:57.
