data_PCOD9504029
_publ_section_title
;
Structure prediction by ZEFSAII (Michael W. Deem and Ramdas Pophale) SiO2 
 PCOD9504029
Probable space group: C M M A
;
_chemical_formula_sum "Si O2"
_cell_formula_units_Z 72
_cell_length_a 16.261610
_cell_length_b 9.076085
_cell_length_c 24.956179
_cell_angle_alpha 90.000000
_cell_angle_beta 90.000000
_cell_angle_gamma 90.000000
_cell_volume 3683.326247
_symmetry_space_group_name_H-M "C M M A"
_symmetry_group_IT_number 67
_symmetry_cell_setting 'orthorhombic'
loop_
_space_group_symop_operation_xyz
x,y,z
-x,1/2-y,z
x,-y,-z
-x,1/2+y,-z
-x,-y,-z
x,1/2+y,-z
-x,y,z
x,1/2-y,z
1/2+x,1/2+y,z
1/2-x,-y,z
1/2+x,1/2-y,-z
1/2-x,y,-z
1/2-x,1/2-y,-z
1/2+x,y,-z
1/2-x,1/2+y,z
1/2+x,-y,z
loop_
_atom_site_type_symbol
_atom_site_label
_atom_site_fract_x
_atom_site_fract_y
_atom_site_fract_z
Si Si1 0.599109 0.418169 0.553575
Si Si2 0.000000 0.927699 0.941896
Si Si3 0.404127 0.923525 0.776660
Si Si4 0.165769 0.925842 0.877498
Si Si5 0.338124 0.925826 0.659980
O O1 0.629209 0.500000 0.500000
O O2 0.500000 0.413539 0.550714
O O3 0.629719 0.250000 0.555784
O O4 0.622931 0.505296 0.606838
O O5 0.083736 0.969436 0.910501
O O6 0.000000 0.750000 0.946120
O O7 0.000000 0.000000 0.000000
O O8 0.500000 0.948084 0.788614
O O9 0.385478 0.750000 0.785196
O O10 0.388401 0.956109 0.714309
O O11 0.350576 0.019854 0.816905
O O12 0.173671 0.750000 0.879247
O O13 0.250000 0.000000 0.897377
O O14 0.331544 0.750000 0.653957
O O15 0.250000 0.000000 0.667178
#
# Coordination Sequence:
#
# PCOD9504029 Si02
#       5
#    16   8  16  16  16
#     4  10  21  38  60  84 110 145 190 240 298 361
#     4  10  24  44  66  94 130 170 215 262 313 368
#     4  10  21  38  62  91 122 160 203 250 308 368
#     4  11  23  41  64  95 130 168 213 262 314 372
#     4  11  23  38  56  83 118 153 195 245 297 360
#
# _framework density 19.547547999999999
#
# number of rings (size 3 to 8) (size 9 to 14) (size 15 to 20)
#    0.000    1.556    1.111    3.333    0.000    8.444 
#    0.000    4.444    0.000    0.000    0.000    0.000 
#    0.000    0.000    0.000    0.000    0.000    0.000 
#
# Total GULP energy -201200.509904 kJ/mol
# GULP energy per Si atom -5588.903053 kJ/mol
# Density = 1.950306 g / cm^3
# Si number density = 19.547548 Si / 1000 Ang^3
#
#
#
# Elastic Constant Matrix: (Units=GPa)
#
#
# Indices 1 2 3 4 5 6 
#
# 1 102.8210 54.3851 51.3235 0.0000 0.0000 0.0000
# 2 54.3851 85.2974 58.6929 0.0000 0.0000 0.0000
# 3 51.3235 58.6929 122.3786 0.0000 0.0000 0.0000
# 4 0.0000 0.0000 0.0000 38.2248 0.0000 0.0000
# 5 0.0000 0.0000 0.0000 0.0000 -26.1223 0.0000
# 6 0.0000 0.0000 0.0000 0.0000 0.0000 32.5835
#
#
#
# Elastic Compliance Matrix: (Units=1/GPa)
#
#
# Indices 1 2 3 4 5 6 
#
# 1 0.015200 -0.007918 -0.002577 0.000000 0.000000 0.000000
# 2 -0.007918 0.021623 -0.007050 0.000000 0.000000 0.000000
# 3 -0.002577 -0.007050 0.012633 0.000000 0.000000 0.000000
# 4 0.000000 0.000000 0.000000 0.026161 0.000000 0.000000
# 5 0.000000 0.000000 0.000000 0.000000 -0.038281 0.000000
# 6 0.000000 0.000000 0.000000 0.000000 0.000000 0.030690
#
#
# Mechanical properties :
#
#
# Convention : Reuss Voigt Hill
#
# Bulk Modulus (GPa) = 69.60661 71.03332 70.31996
# Shear Modulus (GPa) = 46.33678 18.67690 32.50684
#
# Velocity S-wave (km/s) = 4.87402 3.09440 4.08237
# Velocity P-wave (km/s) = 8.20737 7.01318 7.63367
#
# Compressibility (1/GPa) = 0.01436645
#
# Stress axis : x y z
#
# Youngs Moduli (GPa) = 65.78861 46.24657 79.15633
#
# Poissons Ratio (x) = 0.36619 0.20399
# Poissons Ratio (y) = 0.52093 0.55803
# Poissons Ratio (z) = 0.16954 0.32603
#
# Static dielectric constant tensor:
#      x y z
#    x 1.696230 0.000000 0.000000 
#    y 0.000000 1.659560 0.000000 
#    z 0.000000 0.000000 1.663070 
# 
# From -- ./inp_files/40487.got.cif
#   From: 2010.05.17/outbox.cif.g08.bks.cpg/sg67_21_cif.got.tgz:40487.got - 2010.06.03 18:28:57.
