data_PCOD9504247
_publ_section_title
;
Structure prediction by ZEFSAII (Michael W. Deem and Ramdas Pophale) SiO2 
 PCOD9504247
Probable space group: C M M A
;
_chemical_formula_sum "Si O2"
_cell_formula_units_Z 112
_cell_length_a 29.240945
_cell_length_b 14.167508
_cell_length_c 11.715818
_cell_angle_alpha 90.000000
_cell_angle_beta 90.000000
_cell_angle_gamma 90.000000
_cell_volume 4853.527414
_symmetry_space_group_name_H-M "C M M A"
_symmetry_group_IT_number 67
_symmetry_cell_setting 'orthorhombic'
loop_
_space_group_symop_operation_xyz
x,y,z
-x,1/2-y,z
x,-y,-z
-x,1/2+y,-z
-x,-y,-z
x,1/2+y,-z
-x,y,z
x,1/2-y,z
1/2+x,1/2+y,z
1/2-x,-y,z
1/2+x,1/2-y,-z
1/2-x,y,-z
1/2-x,1/2-y,-z
1/2+x,y,-z
1/2-x,1/2+y,z
1/2+x,-y,z
loop_
_atom_site_type_symbol
_atom_site_label
_atom_site_fract_x
_atom_site_fract_y
_atom_site_fract_z
Si Si1 0.552206 0.452012 0.786461
Si Si2 0.343972 0.649383 0.796691
Si Si3 0.102480 0.863784 0.568931
Si Si4 0.566771 0.643632 0.666919
Si Si5 0.205214 0.042422 0.179041
Si Si6 0.791892 0.136613 0.418780
Si Si7 0.122051 0.359302 0.052228
O O1 0.500000 0.417016 0.792279
O O2 0.581732 0.406002 0.684269
O O3 0.550038 0.562656 0.752135
O O4 0.580909 0.422259 0.898200
O O5 0.318038 0.750000 0.801072
O O6 0.379975 0.653913 0.696191
O O7 0.318141 0.553510 0.779690
O O8 0.371477 0.641048 0.916181
O O9 0.102570 0.750000 0.576456
O O10 0.068354 0.887894 0.464478
O O11 0.155632 0.894041 0.553604
O O12 0.548000 0.750000 0.679672
O O13 0.217210 0.103236 0.289864
O O14 0.169399 0.099179 0.102272
O O15 0.250000 0.000000 0.120582
O O16 0.792422 0.250000 0.423202
O O17 0.750000 0.105597 0.500000
O O18 0.115948 0.250000 0.088744
#
# Coordination Sequence:
#
# PCOD9504247 Si02
#       7
#    16  16  16  16  16  16  16
#     4  12  25  42  71 105 137 181 236 295 357 426
#     4  10  23  44  70  97 133 183 233 283 348 423
#     4  10  21  40  67  97 134 178 229 287 347 414
#     4  10  22  41  65  94 132 179 224 278 343 415
#     4  12  25  40  67 102 136 179 231 283 351 422
#     4  10  22  40  65  99 139 182 228 284 350 414
#     4  11  24  46  72  98 136 179 230 299 359 412
#
# _framework density 23.076001999999999
#
# number of rings (size 3 to 8) (size 9 to 14) (size 15 to 20)
#    0.000    1.286    2.857    1.714    2.000    5.143 
#    0.000    4.286    0.000    3.000    0.000    0.000 
#    0.000    0.000    0.000    0.000    0.000    0.000 
#
# Total GULP energy -312947.144090 kJ/mol
# GULP energy per Si atom -5588.341859 kJ/mol
# Density = 2.302348 g / cm^3
# Si number density = 23.076002 Si / 1000 Ang^3
#
#
#
# Elastic Constant Matrix: (Units=GPa)
#
#
# Indices 1 2 3 4 5 6 
#
# 1 117.3945 23.4873 14.0184 0.0000 0.0000 0.0000
# 2 23.4873 102.0746 0.3039 0.0000 0.0000 0.0000
# 3 14.0184 0.3039 59.1620 0.0000 0.0000 0.0000
# 4 0.0000 0.0000 0.0000 17.2810 0.0000 0.0000
# 5 0.0000 0.0000 0.0000 0.0000 -20.5829 0.0000
# 6 0.0000 0.0000 0.0000 0.0000 0.0000 -87.3354
#
#
#
# Elastic Compliance Matrix: (Units=1/GPa)
#
#
# Indices 1 2 3 4 5 6 
#
# 1 0.009200 -0.002110 -0.002169 0.000000 0.000000 0.000000
# 2 -0.002110 0.010281 0.000447 0.000000 0.000000 0.000000
# 3 -0.002169 0.000447 0.017414 0.000000 0.000000 0.000000
# 4 0.000000 0.000000 0.000000 0.057867 0.000000 0.000000
# 5 0.000000 0.000000 0.000000 0.000000 -0.048584 0.000000
# 6 0.000000 0.000000 0.000000 0.000000 0.000000 -0.011450
#
#
# Mechanical properties :
#
#
# Convention : Reuss Voigt Hill
#
# Bulk Modulus (GPa) = 34.21058 39.36115 36.78586
# Shear Modulus (GPa) = 95.90376 -2.07269 46.91554
#
# Velocity S-wave (km/s) = 6.45370 -0.94876 4.51387
# Velocity P-wave (km/s) = 8.38993 3.98673 6.56829
#
# Compressibility (1/GPa) = 0.02923073
#
# Stress axis : x y z
#
# Youngs Moduli (GPa) = 108.70149 97.26671 57.42379
#
# Poissons Ratio (x) = 0.20527 0.12455
# Poissons Ratio (y) = 0.22940 -0.02568
# Poissons Ratio (z) = 0.23577 -0.04350
#
# Static dielectric constant tensor:
#      x y z
#    x 1.915850 0.000000 0.000000 
#    y 0.000000 1.925350 0.000000 
#    z 0.000000 0.000000 1.841550 
# 
# From -- ./inp_files/18625.got.cif
#   From: 2010.05.17/outbox.cif.g08.bks.cpg/sg67_10_cif.got.tgz:18625.got - 2010.06.03 18:28:57.
