data_PCOD9504850
_publ_section_title
;
Structure prediction by ZEFSAII (Michael W. Deem and Ramdas Pophale) SiO2 
 PCOD9504850
Probable space group: C M M A
;
_chemical_formula_sum "Si O2"
_cell_formula_units_Z 112
_cell_length_a 16.204724
_cell_length_b 14.321501
_cell_length_c 23.549893
_cell_angle_alpha 90.000000
_cell_angle_beta 90.000000
_cell_angle_gamma 90.000000
_cell_volume 5465.364284
_symmetry_space_group_name_H-M "C M M A"
_symmetry_group_IT_number 67
_symmetry_cell_setting 'orthorhombic'
loop_
_space_group_symop_operation_xyz
x,y,z
-x,1/2-y,z
x,-y,-z
-x,1/2+y,-z
-x,-y,-z
x,1/2+y,-z
-x,y,z
x,1/2-y,z
1/2+x,1/2+y,z
1/2-x,-y,z
1/2+x,1/2-y,-z
1/2-x,y,-z
1/2-x,1/2-y,-z
1/2+x,y,-z
1/2-x,1/2+y,z
1/2+x,-y,z
loop_
_atom_site_type_symbol
_atom_site_label
_atom_site_fract_x
_atom_site_fract_y
_atom_site_fract_z
Si Si1 0.092306 0.863783 0.589082
Si Si2 0.592565 0.363721 0.457146
Si Si3 0.214096 0.642656 0.060259
Si Si4 0.730484 0.635728 0.632707
Si Si5 0.591472 0.448698 0.143010
Si Si6 0.797803 0.639501 0.240584
Si Si7 0.851251 0.646415 0.840680
O O1 0.091927 0.750000 0.590359
O O2 0.102193 0.891536 0.522900
O O3 0.174981 0.893594 0.621549
O O4 0.000000 0.892934 0.608420
O O5 0.500000 0.391786 0.438341
O O6 0.593908 0.250000 0.456894
O O7 0.666603 0.394046 0.416321
O O8 0.184398 0.750000 0.054134
O O9 0.143229 0.579881 0.087481
O O10 0.286772 0.644409 0.106866
O O11 0.250000 0.612350 0.000000
O O12 0.730713 0.750000 0.632488
O O13 0.700310 0.606345 0.694873
O O14 0.500000 0.409595 0.140539
O O15 0.640712 0.409729 0.197246
O O16 0.590480 0.559748 0.149829
O O17 0.816430 0.750000 0.239204
O O18 0.706016 0.629626 0.214558
O O19 0.887764 0.750000 0.837328
#
# Coordination Sequence:
#
# PCOD9504850 Si02
#       7
#    16  16  16  16  16  16  16
#     4   8  13  21  33  52  83 126 177 227 269 316
#     4   8  13  20  31  51  84 128 174 219 268 322
#     4   9  18  35  60  86 114 152 190 220 255 308
#     4   9  15  23  38  61  91 132 179 223 270 324
#     4  11  22  35  56  84 113 145 181 230 285 329
#     4   9  18  32  51  75 105 144 187 227 270 329
#     4   9  19  37  57  76 104 145 188 227 273 328
#
# _framework density 20.492688000000001
#
# number of rings (size 3 to 8) (size 9 to 14) (size 15 to 20)
#    0.000    3.000    0.000    4.286    0.000    4.857 
#    0.000    3.571    0.000    5.143    0.000    0.000 
#    0.000    9.143    0.000   20.000    0.000   36.857 
#
# Total GULP energy -312549.322663 kJ/mol
# GULP energy per Si atom -5581.237905 kJ/mol
# Density = 2.044605 g / cm^3
# Si number density = 20.492688 Si / 1000 Ang^3
#
#
#
# Elastic Constant Matrix: (Units=GPa)
#
#
# Indices 1 2 3 4 5 6 
#
# 1 124.2469 29.2367 56.9410 0.0000 0.0000 0.0000
# 2 29.2367 73.9993 7.7447 0.0000 0.0000 0.0000
# 3 56.9410 7.7447 95.0492 0.0000 0.0000 0.0000
# 4 0.0000 0.0000 0.0000 -5.8871 0.0000 0.0000
# 5 0.0000 0.0000 0.0000 0.0000 7.7838 0.0000
# 6 0.0000 0.0000 0.0000 0.0000 0.0000 -35.3413
#
#
#
# Elastic Compliance Matrix: (Units=1/GPa)
#
#
# Indices 1 2 3 4 5 6 
#
# 1 0.012212 -0.004094 -0.006982 0.000000 0.000000 0.000000
# 2 -0.004094 0.015002 0.001230 0.000000 0.000000 0.000000
# 3 -0.006982 0.001230 0.014603 0.000000 0.000000 0.000000
# 4 0.000000 0.000000 0.000000 -0.169864 0.000000 0.000000
# 5 0.000000 0.000000 0.000000 0.000000 0.128472 0.000000
# 6 0.000000 0.000000 0.000000 0.000000 0.000000 -0.028296
#
#
# Mechanical properties :
#
#
# Convention : Reuss Voigt Hill
#
# Bulk Modulus (GPa) = 45.19633 53.46003 49.32818
# Shear Modulus (GPa) = -6222.22303 6.60263 -3107.81020
#
# Velocity S-wave (km/s) = -55.16253 1.79692 -38.98510
# Velocity P-wave (km/s) = 63.52247 5.51808 44.74737
#
# Compressibility (1/GPa) = 0.02212569
#
# Stress axis : x y z
#
# Youngs Moduli (GPa) = 81.88905 66.65588 68.47747
#
# Poissons Ratio (x) = 0.27289 0.47811
# Poissons Ratio (y) = 0.33526 -0.08424
# Poissons Ratio (z) = 0.57175 -0.08200
#
# Static dielectric constant tensor:
#      x y z
#    x 1.699980 0.000000 0.000000 
#    y 0.000000 1.793280 0.000000 
#    z 0.000000 0.000000 1.689830 
# 
# From -- ./inp_files/41980.got.cif
#   From: 2010.05.17/outbox.cif.g08.bks.cpg/sg67_21_cif.got.tgz:41980.got - 2010.06.03 18:28:57.
