data_PCOD9504982
_publ_section_title
;
Structure prediction by ZEFSAII (Michael W. Deem and Ramdas Pophale) SiO2 
 PCOD9504982
Probable space group: C M M A
;
_chemical_formula_sum "Si O2"
_cell_formula_units_Z 72
_cell_length_a 24.856369
_cell_length_b 16.762861
_cell_length_c 7.307667
_cell_angle_alpha 90.000000
_cell_angle_beta 90.000000
_cell_angle_gamma 90.000000
_cell_volume 3044.840729
_symmetry_space_group_name_H-M "C M M A"
_symmetry_group_IT_number 67
_symmetry_cell_setting 'orthorhombic'
loop_
_space_group_symop_operation_xyz
x,y,z
-x,1/2-y,z
x,-y,-z
-x,1/2+y,-z
-x,-y,-z
x,1/2+y,-z
-x,y,z
x,1/2-y,z
1/2+x,1/2+y,z
1/2-x,-y,z
1/2+x,1/2-y,-z
1/2-x,y,-z
1/2-x,1/2-y,-z
1/2+x,y,-z
1/2-x,1/2+y,z
1/2+x,-y,z
loop_
_atom_site_type_symbol
_atom_site_label
_atom_site_fract_x
_atom_site_fract_y
_atom_site_fract_z
Si Si1 0.250000 0.114810 0.000000
Si Si2 0.941503 0.571881 0.749007
Si Si3 0.441806 0.612811 0.819283
Si Si4 0.165996 0.160079 0.320700
Si Si5 0.824189 0.339788 0.733810
O O1 0.208556 0.146513 0.158257
O O2 0.296779 0.090620 0.144460
O O3 0.940497 0.476420 0.738351
O O4 0.886035 0.604546 0.673955
O O5 0.000000 0.598799 0.674021
O O6 0.940352 0.598883 0.961930
O O7 0.500000 0.649412 0.774839
O O8 0.388159 0.656542 0.757918
O O9 0.145523 0.250000 0.297657
O O10 0.190514 0.153429 0.522748
O O11 0.806559 0.250000 0.798899
#
# Coordination Sequence:
#
# PCOD9504982 Si02
#       5
#     8  16  16  16  16
#     4  12  23  42  63  82 119 162 195 244 299 340
#     4   9  19  38  63  89 119 156 195 237 292 354
#     4   9  19  38  63  89 119 156 195 237 292 354
#     4  11  23  38  61  91 118 152 199 243 289 349
#     4  11  23  38  61  91 118 152 199 243 289 349
#
# _framework density 23.646557000000001
#
# number of rings (size 3 to 8) (size 9 to 14) (size 15 to 20)
#    0.000    1.778    2.222    4.000    0.000    4.444 
#    0.000    8.889    0.000    2.667    0.000    0.000 
#    0.000    0.000    0.000    0.000    0.000    0.000 
#
# Total GULP energy -200583.192773 kJ/mol
# GULP energy per Si atom -5571.755355 kJ/mol
# Density = 2.359274 g / cm^3
# Si number density = 23.646557 Si / 1000 Ang^3
#
#
#
# Elastic Constant Matrix: (Units=GPa)
#
#
# Indices 1 2 3 4 5 6 
#
# 1 184.6129 27.5936 28.9628 0.0000 0.0000 0.0000
# 2 27.5936 24.6737 13.0950 0.0000 0.0000 0.0000
# 3 28.9628 13.0950 105.2356 0.0000 0.0000 0.0000
# 4 0.0000 0.0000 0.0000 14.5732 0.0000 0.0000
# 5 0.0000 0.0000 0.0000 0.0000 -24.1938 0.0000
# 6 0.0000 0.0000 0.0000 0.0000 0.0000 23.6970
#
#
#
# Elastic Compliance Matrix: (Units=1/GPa)
#
#
# Indices 1 2 3 4 5 6 
#
# 1 0.006593 -0.006864 -0.000961 0.000000 0.000000 0.000000
# 2 -0.006864 0.050540 -0.004400 0.000000 0.000000 0.000000
# 3 -0.000961 -0.004400 0.010314 0.000000 0.000000 0.000000
# 4 0.000000 0.000000 0.000000 0.068619 0.000000 0.000000
# 5 0.000000 0.000000 0.000000 0.000000 -0.041333 0.000000
# 6 0.000000 0.000000 0.000000 0.000000 0.000000 0.042199
#
#
# Mechanical properties :
#
#
# Convention : Reuss Voigt Hill
#
# Bulk Modulus (GPa) = 23.25618 50.42500 36.84059
# Shear Modulus (GPa) = 28.45513 19.13999 23.79756
#
# Velocity S-wave (km/s) = 3.47270 2.84812 3.17580
# Velocity P-wave (km/s) = 5.09272 5.67331 5.39084
#
# Compressibility (1/GPa) = 0.04299933
#
# Stress axis : x y z
#
# Youngs Moduli (GPa) = 151.66804 19.78626 96.95239
#
# Poissons Ratio (x) = 0.13581 0.09312
# Poissons Ratio (y) = 1.04102 0.42658
# Poissons Ratio (z) = 0.14568 0.08706
#
# Static dielectric constant tensor:
#      x y z
#    x 2.024440 0.000000 0.000000 
#    y 0.000000 1.905820 0.000000 
#    z 0.000000 0.000000 1.898890 
# 
# From -- ./inp_files/12217.got.cif
#   From: 2010.05.17/outbox.cif.g08.bks.cpg/sg67_7_cif.got.tgz:12217.got - 2010.06.03 18:28:57.
