data_PCOD9504595
_publ_section_title
;
Structure prediction by ZEFSAII (Michael W. Deem and Ramdas Pophale) SiO2 
 PCOD9504595
Probable space group: C M M A
;
_chemical_formula_sum "Si O2"
_cell_formula_units_Z 44
_cell_length_a 10.371779
_cell_length_b 21.397148
_cell_length_c 7.581514
_cell_angle_alpha 90.000000
_cell_angle_beta 90.000000
_cell_angle_gamma 90.000000
_cell_volume 1682.538793
_symmetry_space_group_name_H-M "C M M A"
_symmetry_group_IT_number 67
_symmetry_cell_setting 'orthorhombic'
loop_
_space_group_symop_operation_xyz
x,y,z
-x,1/2-y,z
x,-y,-z
-x,1/2+y,-z
-x,-y,-z
x,1/2+y,-z
-x,y,z
x,1/2-y,z
1/2+x,1/2+y,z
1/2-x,-y,z
1/2+x,1/2-y,-z
1/2-x,y,-z
1/2-x,1/2-y,-z
1/2+x,y,-z
1/2-x,1/2+y,z
1/2+x,-y,z
loop_
_atom_site_type_symbol
_atom_site_label
_atom_site_fract_x
_atom_site_fract_y
_atom_site_fract_z
Si Si1 0.500000 0.750000 0.897805
Si Si2 0.500000 0.613948 0.790723
Si Si3 0.781562 0.882233 0.792843
Si Si4 0.774810 0.250000 0.295688
Si Si5 0.000000 0.520899 0.703725
O O1 0.500000 0.672223 0.928229
O O2 0.639120 0.750000 0.805538
O O3 0.359653 0.619492 0.697368
O O4 0.500000 0.540113 0.830290
O O5 0.841522 0.814086 0.757897
O O6 0.874367 0.937195 0.736424
O O7 0.750000 0.889764 0.000000
O O8 0.750000 0.250000 0.500000
O O9 0.000000 0.500000 0.500000
#
# Coordination Sequence:
#
# PCOD9504595 Si02
#       5
#     4   8  16   8   8
#     4   8  20  40  64  98 136 186 238 318 374 450
#     4  10  23  44  70  98 148 191 255 300 400 447
#     4  11  25  46  74 109 151 200 255 323 398 471
#     4  10  23  41  75 104 147 192 257 320 383 462
#     4  12  29  44  73 110 159 197 264 325 388 474
#
# _framework density 26.150956999999998
#
# number of rings (size 3 to 8) (size 9 to 14) (size 15 to 20)
#    0.000    1.455    0.000    2.727   10.182    6.545 
#    0.000    3.636    0.000    0.000    0.000    0.000 
#    0.000    0.000    0.000    0.000    0.000    0.000 
#
# Total GULP energy -122761.508671 kJ/mol
# GULP energy per Si atom -5580.068576 kJ/mol
# Density = 2.609144 g / cm^3
# Si number density = 26.150957 Si / 1000 Ang^3
#
#
#
# Elastic Constant Matrix: (Units=GPa)
#
#
# Indices 1 2 3 4 5 6 
#
# 1 158.8056 82.6742 16.7612 0.0000 0.0000 0.0000
# 2 82.6742 293.5749 71.8590 0.0000 0.0000 0.0000
# 3 16.7612 71.8590 121.5912 0.0000 0.0000 0.0000
# 4 0.0000 0.0000 0.0000 140.2434 0.0000 0.0000
# 5 0.0000 0.0000 0.0000 0.0000 -15.1365 0.0000
# 6 0.0000 0.0000 0.0000 0.0000 0.0000 148.6038
#
#
#
# Elastic Compliance Matrix: (Units=1/GPa)
#
#
# Indices 1 2 3 4 5 6 
#
# 1 0.007385 -0.002140 0.000247 0.000000 0.000000 0.000000
# 2 -0.002140 0.004603 -0.002425 0.000000 0.000000 0.000000
# 3 0.000247 -0.002425 0.009623 0.000000 0.000000 0.000000
# 4 0.000000 0.000000 0.000000 0.007130 0.000000 0.000000
# 5 0.000000 0.000000 0.000000 0.000000 -0.066066 0.000000
# 6 0.000000 0.000000 0.000000 0.000000 0.000000 0.006729
#
#
# Mechanical properties :
#
#
# Convention : Reuss Voigt Hill
#
# Bulk Modulus (GPa) = 77.07556 101.84006 89.45781
# Shear Modulus (GPa) = -283.55703 81.58730 -100.98486
#
# Velocity S-wave (km/s) = -10.42431 5.59163 -6.22093
# Velocity P-wave (km/s) = 10.74016 8.98421 4.16142
#
# Compressibility (1/GPa) = 0.01297428
#
# Stress axis : x y z
#
# Youngs Moduli (GPa) = 135.40746 217.27053 103.91302
#
# Poissons Ratio (x) = 0.46499 -0.02564
# Poissons Ratio (y) = 0.28979 0.25199
# Poissons Ratio (z) = -0.03341 0.52689
#
# Static dielectric constant tensor:
#      x y z
#    x 2.070950 0.000000 0.000000 
#    y 0.000000 2.135900 0.000000 
#    z 0.000000 0.000000 2.060740 
# 
# From -- ./inp_files/6313.got.cif
#   From: 2010.05.17/outbox.cif.g08.bks.cpg/sg67_4_cif.got.tgz:6313.got - 2010.06.03 18:28:57.
