data_PCOD9504554
_publ_section_title
;
Structure prediction by ZEFSAII (Michael W. Deem and Ramdas Pophale) SiO2 
 PCOD9504554
Probable space group: C M M A
;
_chemical_formula_sum "Si O2"
_cell_formula_units_Z 116
_cell_length_a 18.208644
_cell_length_b 15.586016
_cell_length_c 19.324704
_cell_angle_alpha 90.000000
_cell_angle_beta 90.000000
_cell_angle_gamma 90.000000
_cell_volume 5484.355183
_symmetry_space_group_name_H-M "C M M A"
_symmetry_group_IT_number 67
_symmetry_cell_setting 'orthorhombic'
loop_
_space_group_symop_operation_xyz
x,y,z
-x,1/2-y,z
x,-y,-z
-x,1/2+y,-z
-x,-y,-z
x,1/2+y,-z
-x,y,z
x,1/2-y,z
1/2+x,1/2+y,z
1/2-x,-y,z
1/2+x,1/2-y,-z
1/2-x,y,-z
1/2-x,1/2-y,-z
1/2+x,y,-z
1/2-x,1/2+y,z
1/2+x,-y,z
loop_
_atom_site_type_symbol
_atom_site_label
_atom_site_fract_x
_atom_site_fract_y
_atom_site_fract_z
Si Si1 0.688956 0.646550 0.056625
Si Si2 0.632191 0.655461 0.653663
Si Si3 0.866855 0.887877 0.799223
Si Si4 0.587426 0.081491 0.205225
Si Si5 0.917752 0.984865 0.581512
Si Si6 0.713842 0.093312 0.664354
Si Si7 0.412789 0.849379 0.940242
Si Si8 0.500000 0.750000 0.185948
O O1 0.693247 0.750000 0.065531
O O2 0.684031 0.608183 0.132531
O O3 0.750000 0.621715 0.000000
O O4 0.615469 0.622137 0.014734
O O5 0.604699 0.750000 0.636663
O O6 0.625146 0.638220 0.735900
O O7 0.589701 0.577546 0.617927
O O8 0.717838 0.645443 0.634292
O O9 0.818844 0.863296 0.732671
O O10 0.934535 0.824451 0.813234
O O11 0.897521 0.982032 0.781425
O O12 0.500000 0.098559 0.208472
O O13 0.614163 0.102413 0.127750
O O14 0.000000 0.950541 0.594790
O O15 0.908309 0.000000 0.500000
O O16 0.853255 0.926358 0.612691
O O17 0.750000 0.000000 0.682373
O O18 0.500000 0.853134 0.940467
O O19 0.389649 0.750000 0.932631
#
# Coordination Sequence:
#
# PCOD9504554 Si02
#       8
#    16  16  16  16  16  16  16   4
#     4  10  23  39  58  84 121 169 219 283 344 402
#     4  11  24  41  69 103 138 178 226 275 336 404
#     4  12  24  41  64  94 129 172 230 274 346 407
#     4  11  22  39  64  94 127 168 219 279 338 404
#     4  10  22  44  73 103 137 184 227 272 336 398
#     4  10  23  42  65  99 135 179 221 275 334 402
#     4   9  20  37  58  82 115 157 209 267 334 395
#     4  12  28  40  66  98 128 190 226 298 338 418
#
# _framework density 21.151073
#
# number of rings (size 3 to 8) (size 9 to 14) (size 15 to 20)
#    0.000    1.517    4.138    0.828    4.828    4.690 
#    0.000    3.448    0.000    0.828    0.000    0.000 
#    0.000    0.000    0.000    0.000    0.000    0.000 
#
# Total GULP energy -323471.262221 kJ/mol
# GULP energy per Si atom -5577.090728 kJ/mol
# Density = 2.110293 g / cm^3
# Si number density = 21.151073 Si / 1000 Ang^3
#
#
#
# Elastic Constant Matrix: (Units=GPa)
#
#
# Indices 1 2 3 4 5 6 
#
# 1 100.8130 0.8397 29.8614 0.0000 0.0000 0.0000
# 2 0.8397 40.9878 -3.0914 0.0000 0.0000 0.0000
# 3 29.8614 -3.0914 84.3089 0.0000 0.0000 0.0000
# 4 0.0000 0.0000 0.0000 -14.5027 0.0000 0.0000
# 5 0.0000 0.0000 0.0000 0.0000 24.9017 0.0000
# 6 0.0000 0.0000 0.0000 0.0000 0.0000 11.1157
#
#
#
# Elastic Compliance Matrix: (Units=1/GPa)
#
#
# Indices 1 2 3 4 5 6 
#
# 1 0.011093 -0.000525 -0.003948 0.000000 0.000000 0.000000
# 2 -0.000525 0.024490 0.001084 0.000000 0.000000 0.000000
# 3 -0.003948 0.001084 0.013299 0.000000 0.000000 0.000000
# 4 0.000000 0.000000 0.000000 -0.068953 0.000000 0.000000
# 5 0.000000 0.000000 0.000000 0.000000 0.040158 0.000000
# 6 0.000000 0.000000 0.000000 0.000000 0.000000 0.089963
#
#
# Mechanical properties :
#
#
# Convention : Reuss Voigt Hill
#
# Bulk Modulus (GPa) = 23.75091 31.25880 27.50486
# Shear Modulus (GPa) = 38.20759 17.53627 27.87193
#
# Velocity S-wave (km/s) = 4.25480 2.88253 3.63403
# Velocity P-wave (km/s) = 5.94906 5.08817 5.53538
#
# Compressibility (1/GPa) = 0.04210365
#
# Stress axis : x y z
#
# Youngs Moduli (GPa) = 90.14476 40.83301 75.19149
#
# Poissons Ratio (x) = 0.02144 0.29689
# Poissons Ratio (y) = 0.04733 -0.08150
# Poissons Ratio (z) = 0.35593 -0.04426
#
# Static dielectric constant tensor:
#      x y z
#    x 1.803540 0.000000 0.000000 
#    y 0.000000 1.763410 0.000000 
#    z 0.000000 0.000000 1.768190 
# 
# From -- ./inp_files/34331.got.cif
#   From: 2010.05.17/outbox.cif.g08.bks.cpg/sg67_18_cif.got.tgz:34331.got - 2010.06.03 18:28:57.
