data_PCOD9504391
_publ_section_title
;
Structure prediction by ZEFSAII (Michael W. Deem and Ramdas Pophale) SiO2 
 PCOD9504391
Probable space group: C M M A
;
_chemical_formula_sum "Si O2"
_cell_formula_units_Z 80
_cell_length_a 16.979735
_cell_length_b 26.068442
_cell_length_c 8.934509
_cell_angle_alpha 90.000000
_cell_angle_beta 90.000000
_cell_angle_gamma 90.000000
_cell_volume 3954.728509
_symmetry_space_group_name_H-M "C M M A"
_symmetry_group_IT_number 67
_symmetry_cell_setting 'orthorhombic'
loop_
_space_group_symop_operation_xyz
x,y,z
-x,1/2-y,z
x,-y,-z
-x,1/2+y,-z
-x,-y,-z
x,1/2+y,-z
-x,y,z
x,1/2-y,z
1/2+x,1/2+y,z
1/2-x,-y,z
1/2+x,1/2-y,-z
1/2-x,y,-z
1/2-x,1/2-y,-z
1/2+x,y,-z
1/2-x,1/2+y,z
1/2+x,-y,z
loop_
_atom_site_type_symbol
_atom_site_label
_atom_site_fract_x
_atom_site_fract_y
_atom_site_fract_z
Si Si1 0.163710 0.390324 0.924369
Si Si2 0.590356 0.601634 0.239605
Si Si3 0.658510 0.994752 0.818494
Si Si4 0.836849 0.808461 0.571075
Si Si5 0.912723 0.190520 0.745351
O O1 0.140496 0.434670 0.805029
O O2 0.155141 0.338092 0.835693
O O3 0.250000 0.399239 0.000000
O O4 0.104142 0.390240 0.062848
O O5 0.500000 0.609476 0.281407
O O6 0.613888 0.541499 0.260174
O O7 0.643968 0.644118 0.320787
O O8 0.750000 0.000000 0.780125
O O9 0.649911 0.000000 0.000000
O O10 0.844159 0.750000 0.634915
O O11 0.750000 0.812574 0.500000
O O12 0.895936 0.812606 0.430815
O O13 0.911663 0.250000 0.786322
O O14 0.000000 0.169456 0.779203
#
# Coordination Sequence:
#
# PCOD9504391 Si02
#       5
#    16  16  16  16  16
#     4  11  20  36  62  88 119 157 202 244 293 355
#     4  11  22  35  60  94 120 151 201 254 300 349
#     4   9  17  35  57  82 117 157 192 235 295 355
#     4  10  22  41  63  86 116 160 205 243 296 364
#     4  10  22  39  58  83 120 161 195 239 303 359
#
# _framework density 20.228949
#
# number of rings (size 3 to 8) (size 9 to 14) (size 15 to 20)
#    0.000    1.800    4.000    2.400    0.000    6.800 
#    0.000    1.000    0.000    2.400    0.000    0.000 
#    0.000    0.000    0.000    0.000    0.000    0.000 
#
# Total GULP energy -222914.312130 kJ/mol
# GULP energy per Si atom -5572.857803 kJ/mol
# Density = 2.018291 g / cm^3
# Si number density = 20.228949 Si / 1000 Ang^3
#
#
#
# Elastic Constant Matrix: (Units=GPa)
#
#
# Indices 1 2 3 4 5 6 
#
# 1 73.7155 42.8560 11.9858 0.0000 0.0000 0.0000
# 2 42.8560 140.3209 47.8732 0.0000 0.0000 0.0000
# 3 11.9858 47.8732 25.8625 0.0000 0.0000 0.0000
# 4 0.0000 0.0000 0.0000 45.9500 0.0000 0.0000
# 5 0.0000 0.0000 0.0000 0.0000 19.4709 0.0000
# 6 0.0000 0.0000 0.0000 0.0000 0.0000 28.7049
#
#
#
# Elastic Compliance Matrix: (Units=1/GPa)
#
#
# Indices 1 2 3 4 5 6 
#
# 1 0.016695 -0.006674 0.004617 0.000000 0.000000 0.000000
# 2 -0.006674 0.022009 -0.037647 0.000000 0.000000 0.000000
# 3 0.004617 -0.037647 0.106213 0.000000 0.000000 0.000000
# 4 0.000000 0.000000 0.000000 0.021763 0.000000 0.000000
# 5 0.000000 0.000000 0.000000 0.000000 0.051359 0.000000
# 6 0.000000 0.000000 0.000000 0.000000 0.000000 0.034837
#
#
# Mechanical properties :
#
#
# Convention : Reuss Voigt Hill
#
# Bulk Modulus (GPa) = 15.26505 49.48099 32.37302
# Shear Modulus (GPa) = 14.11954 27.97077 21.04515
#
# Velocity S-wave (km/s) = 2.64481 3.72251 3.22894
# Velocity P-wave (km/s) = 4.10965 6.55666 5.47170
#
# Compressibility (1/GPa) = 0.06550914
#
# Stress axis : x y z
#
# Youngs Moduli (GPa) = 59.89789 45.43649 9.41506
#
# Poissons Ratio (x) = 0.30325 -0.04347
# Poissons Ratio (y) = 0.39976 0.35445
# Poissons Ratio (z) = -0.27654 1.71053
#
# Static dielectric constant tensor:
#      x y z
#    x 1.743960 0.000000 0.000000 
#    y 0.000000 1.802020 0.000000 
#    z 0.000000 0.000000 1.708010 
# 
# From -- ./inp_files/9920.got.cif
#   From: 2010.05.17/outbox.cif.g08.bks.cpg/sg67_5_cif.got.tgz:9920.got - 2010.06.03 18:28:57.
