data_PCOD9504987
_publ_section_title
;
Structure prediction by ZEFSAII (Michael W. Deem and Ramdas Pophale) SiO2 
 PCOD9504987
Probable space group: C M M A
;
_chemical_formula_sum "Si O2"
_cell_formula_units_Z 80
_cell_length_a 25.999430
_cell_length_b 8.669329
_cell_length_c 18.050538
_cell_angle_alpha 90.000000
_cell_angle_beta 90.000000
_cell_angle_gamma 90.000000
_cell_volume 4068.548169
_symmetry_space_group_name_H-M "C M M A"
_symmetry_group_IT_number 67
_symmetry_cell_setting 'orthorhombic'
loop_
_space_group_symop_operation_xyz
x,y,z
-x,1/2-y,z
x,-y,-z
-x,1/2+y,-z
-x,-y,-z
x,1/2+y,-z
-x,y,z
x,1/2-y,z
1/2+x,1/2+y,z
1/2-x,-y,z
1/2+x,1/2-y,-z
1/2-x,y,-z
1/2-x,1/2-y,-z
1/2+x,y,-z
1/2-x,1/2+y,z
1/2+x,-y,z
loop_
_atom_site_type_symbol
_atom_site_label
_atom_site_fract_x
_atom_site_fract_y
_atom_site_fract_z
Si Si1 0.304487 0.935569 0.365728
Si Si2 0.500000 0.435019 0.139970
Si Si3 0.804699 0.564239 0.806314
Si Si4 0.893229 0.935436 0.919723
Si Si5 0.000000 0.565214 0.313636
Si Si6 0.585055 0.935225 0.421372
O O1 0.302041 0.750000 0.367716
O O2 0.311000 0.984262 0.279517
O O3 0.355737 0.984386 0.408460
O O4 0.250000 0.000000 0.393034
O O5 0.500000 0.750000 0.866602
O O6 0.449055 0.501862 0.102423
O O7 0.500000 0.476666 0.227126
O O8 0.802916 0.750000 0.807078
O O9 0.750000 0.500000 0.832747
O O10 0.851668 0.514938 0.858014
O O11 0.894528 0.750000 0.921783
O O12 0.878770 0.000000 0.000000
O O13 0.049529 0.498208 0.355784
O O14 0.000000 0.750000 0.319707
O O15 0.582540 0.750000 0.421480
O O16 0.566870 0.000000 0.500000
#
# Coordination Sequence:
#
# PCOD9504987 Si02
#       6
#    16   8  16  16   8  16
#     4   9  19  36  58  83 111 147 190 234 281 333
#     4  11  24  41  62  87 113 145 188 235 284 339
#     4   9  19  36  58  83 111 147 190 234 281 333
#     4  11  23  39  59  84 117 153 190 233 283 338
#     4  11  24  41  62  87 113 145 188 235 284 339
#     4  11  23  39  59  84 117 153 190 233 283 338
#
# _framework density 19.663032999999999
#
# number of rings (size 3 to 8) (size 9 to 14) (size 15 to 20)
#    0.000    1.800    0.000    3.600    0.000    7.200 
#    0.000    8.000    0.000    0.000    0.000    0.000 
#    0.000    0.000    0.000    0.000    0.000    0.000 
#
# Total GULP energy -223595.840336 kJ/mol
# GULP energy per Si atom -5589.896008 kJ/mol
# Density = 1.961828 g / cm^3
# Si number density = 19.663033 Si / 1000 Ang^3
#
#
#
# Elastic Constant Matrix: (Units=GPa)
#
#
# Indices 1 2 3 4 5 6 
#
# 1 89.0535 9.1284 3.1164 0.0000 0.0000 0.0000
# 2 9.1284 29.6512 12.2444 0.0000 0.0000 0.0000
# 3 3.1164 12.2444 48.3689 0.0000 0.0000 0.0000
# 4 0.0000 0.0000 0.0000 21.0461 0.0000 0.0000
# 5 0.0000 0.0000 0.0000 0.0000 172.7970 0.0000
# 6 0.0000 0.0000 0.0000 0.0000 0.0000 35.1106
#
#
#
# Elastic Compliance Matrix: (Units=1/GPa)
#
#
# Indices 1 2 3 4 5 6 
#
# 1 0.011596 -0.003642 0.000175 0.000000 0.000000 0.000000
# 2 -0.003642 0.038806 -0.009589 0.000000 0.000000 0.000000
# 3 0.000175 -0.009589 0.023091 0.000000 0.000000 0.000000
# 4 0.000000 0.000000 0.000000 0.047515 0.000000 0.000000
# 5 0.000000 0.000000 0.000000 0.000000 0.005787 0.000000
# 6 0.000000 0.000000 0.000000 0.000000 0.000000 0.028481
#
#
# Mechanical properties :
#
#
# Convention : Reuss Voigt Hill
#
# Bulk Modulus (GPa) = 21.10567 24.00579 22.55573
# Shear Modulus (GPa) = 25.35713 55.29636 40.32674
#
# Velocity S-wave (km/s) = 3.59497 5.30877 4.53359
# Velocity P-wave (km/s) = 5.29044 7.05780 6.23704
#
# Compressibility (1/GPa) = 0.04738063
#
# Stress axis : x y z
#
# Youngs Moduli (GPa) = 86.23341 25.76890 43.30767
#
# Poissons Ratio (x) = 0.09386 -0.00757
# Poissons Ratio (y) = 0.31409 0.41528
# Poissons Ratio (z) = -0.01508 0.24710
#
# Static dielectric constant tensor:
#      x y z
#    x 1.672190 0.000000 0.000000 
#    y 0.000000 1.659180 0.000000 
#    z 0.000000 0.000000 1.671050 
# 
# From -- ./inp_files/35807.got.cif
#   From: 2010.05.17/outbox.cif.g08.bks.cpg/sg67_18_cif.got.tgz:35807.got - 2010.06.03 18:28:57.
