data_PCOD9504484
_publ_section_title
;
Structure prediction by ZEFSAII (Michael W. Deem and Ramdas Pophale) SiO2 
 PCOD9504484
Probable space group: C M M A
;
_chemical_formula_sum "Si O2"
_cell_formula_units_Z 72
_cell_length_a 24.876888
_cell_length_b 18.881069
_cell_length_c 7.233257
_cell_angle_alpha 90.000000
_cell_angle_beta 90.000000
_cell_angle_gamma 90.000000
_cell_volume 3397.477007
_symmetry_space_group_name_H-M "C M M A"
_symmetry_group_IT_number 67
_symmetry_cell_setting 'orthorhombic'
loop_
_space_group_symop_operation_xyz
x,y,z
-x,1/2-y,z
x,-y,-z
-x,1/2+y,-z
-x,-y,-z
x,1/2+y,-z
-x,y,z
x,1/2-y,z
1/2+x,1/2+y,z
1/2-x,-y,z
1/2+x,1/2-y,-z
1/2-x,y,-z
1/2-x,1/2-y,-z
1/2+x,y,-z
1/2-x,1/2+y,z
1/2+x,-y,z
loop_
_atom_site_type_symbol
_atom_site_label
_atom_site_fract_x
_atom_site_fract_y
_atom_site_fract_z
Si Si1 0.856478 0.829893 0.130031
Si Si2 0.258371 0.917797 0.776685
Si Si3 0.060535 0.851311 0.424243
Si Si4 0.403350 0.000000 0.500000
Si Si5 0.354289 0.121507 0.712614
O O1 0.833739 0.750000 0.117800
O O2 0.816261 0.881244 0.245209
O O3 0.912738 0.826783 0.235582
O O4 0.863957 0.860806 0.925785
O O5 0.209809 0.873241 0.686554
O O6 0.250000 0.000000 0.722933
O O7 0.250000 0.915404 0.000000
O O8 0.062097 0.936822 0.416808
O O9 0.104420 0.834963 0.584664
O O10 0.000000 0.828132 0.458861
O O11 0.368861 0.040534 0.655910
#
# Coordination Sequence:
#
# PCOD9504484 Si02
#       5
#    16  16  16   8  16
#     4  11  24  41  63  94 130 171 211 261 327 390
#     4   9  18  36  62  92 126 161 206 259 319 381
#     4  10  22  41  62  92 127 166 219 275 318 377
#     4   8  19  40  63  92 124 161 213 274 326 372
#     4   9  21  39  62  92 124 166 208 262 324 381
#
# _framework density 21.192197
#
# number of rings (size 3 to 8) (size 9 to 14) (size 15 to 20)
#    1.333    1.111    0.000    1.667    0.000    9.778 
#    0.000    2.222    0.000    0.000    0.000    0.000 
#    0.000    0.000    0.000    0.000    0.000    0.000 
#
# Total GULP energy -200519.258808 kJ/mol
# GULP energy per Si atom -5569.979411 kJ/mol
# Density = 2.114396 g / cm^3
# Si number density = 21.192197 Si / 1000 Ang^3
#
#
#
# Elastic Constant Matrix: (Units=GPa)
#
#
# Indices 1 2 3 4 5 6 
#
# 1 149.2461 23.2098 49.4502 0.0000 0.0000 0.0000
# 2 23.2098 125.8491 24.5299 0.0000 0.0000 0.0000
# 3 49.4502 24.5299 105.1563 0.0000 0.0000 0.0000
# 4 0.0000 0.0000 0.0000 77.6115 0.0000 0.0000
# 5 0.0000 0.0000 0.0000 0.0000 24.8896 0.0000
# 6 0.0000 0.0000 0.0000 0.0000 0.0000 19.1098
#
#
#
# Elastic Compliance Matrix: (Units=1/GPa)
#
#
# Indices 1 2 3 4 5 6 
#
# 1 0.008009 -0.000778 -0.003585 0.000000 0.000000 0.000000
# 2 -0.000778 0.008400 -0.001593 0.000000 0.000000 0.000000
# 3 -0.003585 -0.001593 0.011567 0.000000 0.000000 0.000000
# 4 0.000000 0.000000 0.000000 0.012885 0.000000 0.000000
# 5 0.000000 0.000000 0.000000 0.000000 0.040177 0.000000
# 6 0.000000 0.000000 0.000000 0.000000 0.000000 0.052329
#
#
# Mechanical properties :
#
#
# Convention : Reuss Voigt Hill
#
# Bulk Modulus (GPa) = 62.25409 63.84793 63.05101
# Shear Modulus (GPa) = 33.19273 43.19294 38.19284
#
# Velocity S-wave (km/s) = 3.96191 4.51949 4.24985
# Velocity P-wave (km/s) = 7.09709 7.57811 7.34154
#
# Compressibility (1/GPa) = 0.01606320
#
# Stress axis : x y z
#
# Youngs Moduli (GPa) = 124.85731 119.04523 86.45197
#
# Poissons Ratio (x) = 0.09266 0.30991
# Poissons Ratio (y) = 0.09719 0.13776
# Poissons Ratio (z) = 0.44758 0.18970
#
# Static dielectric constant tensor:
#      x y z
#    x 1.770950 0.000000 0.000000 
#    y 0.000000 1.826990 0.000000 
#    z 0.000000 0.000000 1.759380 
# 
# From -- ./inp_files/12314.got.cif
#   From: 2010.05.17/outbox.cif.g08.bks.cpg/sg67_7_cif.got.tgz:12314.got - 2010.06.03 18:28:57.
