data_PCOD9504678
_publ_section_title
;
Structure prediction by ZEFSAII (Michael W. Deem and Ramdas Pophale) SiO2 
 PCOD9504678
Probable space group: C M M A
;
_chemical_formula_sum "Si O2"
_cell_formula_units_Z 72
_cell_length_a 15.073097
_cell_length_b 9.539530
_cell_length_c 25.370053
_cell_angle_alpha 90.000000
_cell_angle_beta 90.000000
_cell_angle_gamma 90.000000
_cell_volume 3647.966543
_symmetry_space_group_name_H-M "C M M A"
_symmetry_group_IT_number 67
_symmetry_cell_setting 'orthorhombic'
loop_
_space_group_symop_operation_xyz
x,y,z
-x,1/2-y,z
x,-y,-z
-x,1/2+y,-z
-x,-y,-z
x,1/2+y,-z
-x,y,z
x,1/2-y,z
1/2+x,1/2+y,z
1/2-x,-y,z
1/2+x,1/2-y,-z
1/2-x,y,-z
1/2-x,1/2-y,-z
1/2+x,y,-z
1/2-x,1/2+y,z
1/2+x,-y,z
loop_
_atom_site_type_symbol
_atom_site_label
_atom_site_fract_x
_atom_site_fract_y
_atom_site_fract_z
Si Si1 0.665503 0.583438 0.629651
Si Si2 0.392722 0.087224 0.730305
Si Si3 0.391319 0.589762 0.949311
Si Si4 0.500000 0.585371 0.553601
Si Si5 0.891712 0.089320 0.150194
O O1 0.679707 0.750000 0.633571
O O2 0.750000 0.500000 0.609002
O O3 0.643864 0.517224 0.686666
O O4 0.584501 0.556649 0.590298
O O5 0.500000 0.081111 0.728521
O O6 0.367710 0.250000 0.719578
O O7 0.364798 0.052518 0.790162
O O8 0.500000 0.590635 0.949152
O O9 0.361646 0.750000 0.952683
O O10 0.362310 0.515156 0.895400
O O11 0.363998 0.500000 0.000000
O O12 0.500000 0.750000 0.540736
O O13 0.500000 0.500000 0.500000
O O14 0.864998 0.250000 0.139087
O O15 0.000000 0.088464 0.149997
#
# Coordination Sequence:
#
# PCOD9504678 Si02
#       5
#    16  16  16   8  16
#     4  11  23  40  61  90 123 157 199 244 291 344
#     4   9  17  31  53  79 108 146 188 233 290 349
#     4   9  15  21  30  47  76 118 167 219 277 335
#     4  10  24  44  66  92 124 160 199 242 289 340
#     4   8  14  24  38  59  88 124 170 220 273 337
#
# _framework density 19.737023000000001
#
# number of rings (size 3 to 8) (size 9 to 14) (size 15 to 20)
#    0.000    2.667    1.111    2.667    0.000    5.778 
#    0.000    4.444    0.000    0.000    0.000    0.000 
#    0.000    0.889    0.000    9.333    0.000   12.889 
#
# Total GULP energy -201039.511433 kJ/mol
# GULP energy per Si atom -5584.430873 kJ/mol
# Density = 1.969210 g / cm^3
# Si number density = 19.737023 Si / 1000 Ang^3
#
#
#
# Elastic Constant Matrix: (Units=GPa)
#
#
# Indices 1 2 3 4 5 6 
#
# 1 74.6507 58.1440 46.7962 0.0000 0.0000 0.0000
# 2 58.1440 155.2250 122.9148 0.0000 0.0000 0.0000
# 3 46.7962 122.9148 161.3390 0.0000 0.0000 0.0000
# 4 0.0000 0.0000 0.0000 44.4588 0.0000 0.0000
# 5 0.0000 0.0000 0.0000 0.0000 -16.2141 0.0000
# 6 0.0000 0.0000 0.0000 0.0000 0.0000 16.7270
#
#
#
# Elastic Compliance Matrix: (Units=1/GPa)
#
#
# Indices 1 2 3 4 5 6 
#
# 1 0.018917 -0.006909 -0.000223 0.000000 0.000000 0.000000
# 2 -0.006909 0.018762 -0.012289 0.000000 0.000000 0.000000
# 3 -0.000223 -0.012289 0.015625 0.000000 0.000000 0.000000
# 4 0.000000 0.000000 0.000000 0.022493 0.000000 0.000000
# 5 0.000000 0.000000 0.000000 0.000000 -0.061675 0.000000
# 6 0.000000 0.000000 0.000000 0.000000 0.000000 0.059784
#
#
# Mechanical properties :
#
#
# Convention : Reuss Voigt Hill
#
# Bulk Modulus (GPa) = 69.15333 94.10276 81.62804
# Shear Modulus (GPa) = 42.52802 19.88499 31.20651
#
# Velocity S-wave (km/s) = 4.64695 3.17755 3.98064
# Velocity P-wave (km/s) = 7.99410 7.82587 7.91043
#
# Compressibility (1/GPa) = 0.01446062
#
# Stress axis : x y z
#
# Youngs Moduli (GPa) = 52.86227 53.30004 63.99824
#
# Poissons Ratio (x) = 0.36827 0.01428
# Poissons Ratio (y) = 0.36524 0.78650
# Poissons Ratio (z) = 0.01179 0.65503
#
# Static dielectric constant tensor:
#      x y z
#    x 1.816150 0.000000 0.000000 
#    y 0.000000 1.657270 0.000000 
#    z 0.000000 0.000000 1.661730 
# 
# From -- ./inp_files/40517.got.cif
#   From: 2010.05.17/outbox.cif.g08.bks.cpg/sg67_21_cif.got.tgz:40517.got - 2010.06.03 18:28:57.
