data_PCOD9504297
_publ_section_title
;
Structure prediction by ZEFSAII (Michael W. Deem and Ramdas Pophale) SiO2 
 PCOD9504297
Probable space group: C M M A
;
_chemical_formula_sum "Si O2"
_cell_formula_units_Z 60
_cell_length_a 21.454718
_cell_length_b 15.784822
_cell_length_c 8.476130
_cell_angle_alpha 90.000000
_cell_angle_beta 90.000000
_cell_angle_gamma 90.000000
_cell_volume 2870.516902
_symmetry_space_group_name_H-M "C M M A"
_symmetry_group_IT_number 67
_symmetry_cell_setting 'orthorhombic'
loop_
_space_group_symop_operation_xyz
x,y,z
-x,1/2-y,z
x,-y,-z
-x,1/2+y,-z
-x,-y,-z
x,1/2+y,-z
-x,y,z
x,1/2-y,z
1/2+x,1/2+y,z
1/2-x,-y,z
1/2+x,1/2-y,-z
1/2-x,y,-z
1/2-x,1/2-y,-z
1/2+x,y,-z
1/2-x,1/2+y,z
1/2+x,-y,z
loop_
_atom_site_type_symbol
_atom_site_label
_atom_site_fract_x
_atom_site_fract_y
_atom_site_fract_z
Si Si1 0.182869 0.250000 0.421442
Si Si2 0.132791 0.413110 0.594610
Si Si3 0.819701 0.090541 0.933638
Si Si4 0.000000 0.653398 0.389812
Si Si5 0.000000 0.250000 0.295838
Si Si6 0.126850 0.250000 0.097223
O O1 0.250000 0.250000 0.500000
O O2 0.148508 0.333606 0.483930
O O3 0.179802 0.250000 0.233632
O O4 0.137819 0.500000 0.500000
O O5 0.178097 0.412482 0.744818
O O6 0.062229 0.396658 0.652267
O O7 0.750000 0.103323 0.000000
O O8 0.862422 0.166884 0.993605
O O9 0.841636 0.000000 0.000000
O O10 0.000000 0.671321 0.580103
O O11 0.000000 0.750000 0.323039
O O12 0.061429 0.250000 0.189120
#
# Coordination Sequence:
#
# PCOD9504297 Si02
#       6
#     8  16  16   8   4   8
#     4  12  23  40  68  99 130 181 237 269 334 409
#     4  12  24  44  73  99 134 186 235 278 333 408
#     4  11  26  45  65 100 143 174 222 284 344 403
#     4  10  21  44  70  97 138 170 238 287 327 396
#     4  10  22  40  72  96 140 170 232 280 336 400
#     4  12  22  43  67  97 139 179 212 287 347 385
#
# _framework density 20.902159000000001
#
# number of rings (size 3 to 8) (size 9 to 14) (size 15 to 20)
#    0.400    0.267    4.000    4.800    0.000    3.733 
#    0.000    1.333    0.000    0.000    0.000    0.000 
#    0.000    0.000    0.000    0.000    0.000    0.000 
#
# Total GULP energy -167836.838371 kJ/mol
# GULP energy per Si atom -5594.561279 kJ/mol
# Density = 2.085458 g / cm^3
# Si number density = 20.902159 Si / 1000 Ang^3
#
#
#
# Elastic Constant Matrix: (Units=GPa)
#
#
# Indices 1 2 3 4 5 6 
#
# 1 101.8689 20.3801 12.4695 0.0000 0.0000 0.0000
# 2 20.3801 156.1320 46.3774 0.0000 0.0000 0.0000
# 3 12.4695 46.3774 99.0539 0.0000 0.0000 0.0000
# 4 0.0000 0.0000 0.0000 7.3799 0.0000 0.0000
# 5 0.0000 0.0000 0.0000 0.0000 28.5523 0.0000
# 6 0.0000 0.0000 0.0000 0.0000 0.0000 8.5532
#
#
#
# Elastic Compliance Matrix: (Units=1/GPa)
#
#
# Indices 1 2 3 4 5 6 
#
# 1 0.010129 -0.001096 -0.000762 0.000000 0.000000 0.000000
# 2 -0.001096 0.007558 -0.003401 0.000000 0.000000 0.000000
# 3 -0.000762 -0.003401 0.011784 0.000000 0.000000 0.000000
# 4 0.000000 0.000000 0.000000 0.135503 0.000000 0.000000
# 5 0.000000 0.000000 0.000000 0.000000 0.035023 0.000000
# 6 0.000000 0.000000 0.000000 0.000000 0.000000 0.116916
#
#
# Mechanical properties :
#
#
# Convention : Reuss Voigt Hill
#
# Bulk Modulus (GPa) = 52.76049 57.27874 55.01962
# Shear Modulus (GPa) = 14.98139 27.41894 21.20016
#
# Velocity S-wave (km/s) = 2.68010 3.62577 3.18820
# Velocity P-wave (km/s) = 5.90540 6.70754 6.31921
#
# Compressibility (1/GPa) = 0.01895358
#
# Stress axis : x y z
#
# Youngs Moduli (GPa) = 98.72602 132.30953 84.86302
#
# Poissons Ratio (x) = 0.14498 0.06467
# Poissons Ratio (y) = 0.10818 0.28860
# Poissons Ratio (z) = 0.07523 0.44995
#
# Static dielectric constant tensor:
#      x y z
#    x 1.786500 0.000000 0.000000 
#    y 0.000000 1.727490 0.000000 
#    z 0.000000 0.000000 1.724400 
# 
# From -- ./inp_files/12053.got.cif
#   From: 2010.05.17/outbox.cif.g08.bks.cpg/sg67_7_cif.got.tgz:12053.got - 2010.06.03 18:28:57.
