data_PCOD9504684
_publ_section_title
;
Structure prediction by ZEFSAII (Michael W. Deem and Ramdas Pophale) SiO2 
 PCOD9504684
Probable space group: C M M A
;
_chemical_formula_sum "Si O2"
_cell_formula_units_Z 44
_cell_length_a 7.779343
_cell_length_b 15.031757
_cell_length_c 16.991340
_cell_angle_alpha 90.000000
_cell_angle_beta 90.000000
_cell_angle_gamma 90.000000
_cell_volume 1986.919615
_symmetry_space_group_name_H-M "C M M A"
_symmetry_group_IT_number 67
_symmetry_cell_setting 'orthorhombic'
loop_
_space_group_symop_operation_xyz
x,y,z
-x,1/2-y,z
x,-y,-z
-x,1/2+y,-z
-x,-y,-z
x,1/2+y,-z
-x,y,z
x,1/2-y,z
1/2+x,1/2+y,z
1/2-x,-y,z
1/2+x,1/2-y,-z
1/2-x,y,-z
1/2-x,1/2-y,-z
1/2+x,y,-z
1/2-x,1/2+y,z
1/2+x,-y,z
loop_
_atom_site_type_symbol
_atom_site_label
_atom_site_fract_x
_atom_site_fract_y
_atom_site_fract_z
Si Si1 0.206395 0.250000 0.408679
Si Si2 0.294538 0.397834 0.711458
Si Si3 0.202376 0.648319 0.111887
Si Si4 0.750000 0.000000 0.000000
O O1 0.250000 0.250000 0.500000
O O2 0.267796 0.335700 0.359621
O O3 0.000000 0.250000 0.404417
O O4 0.500000 0.388769 0.717812
O O5 0.250000 0.500000 0.697972
O O6 0.220644 0.366967 0.795143
O O7 0.251764 0.750000 0.093903
O O8 0.000000 0.635174 0.091536
O O9 0.308524 0.574341 0.064288
#
# Coordination Sequence:
#
# PCOD9504684 Si02
#       4
#     8  16  16   4
#     4  10  24  44  68  99 132 169 210 263 320 381
#     4  11  23  42  67  96 130 169 214 265 323 384
#     4  11  24  41  63  93 129 172 218 266 324 383
#     4  12  24  40  64  96 132 172 220 272 318 378
#
# _framework density 22.144829999999999
#
# number of rings (size 3 to 8) (size 9 to 14) (size 15 to 20)
#    0.000    1.091    3.636    2.182    0.000    5.091 
#    0.000    3.636    0.000    0.000    0.000    0.000 
#    0.000    0.000    0.000    0.000    0.000    0.000 
#
# Total GULP energy -122813.701415 kJ/mol
# GULP energy per Si atom -5582.440973 kJ/mol
# Density = 2.209443 g / cm^3
# Si number density = 22.144830 Si / 1000 Ang^3
#
#
#
# Elastic Constant Matrix: (Units=GPa)
#
#
# Indices 1 2 3 4 5 6 
#
# 1 72.0422 24.8199 14.2414 0.0000 0.0000 0.0000
# 2 24.8199 235.4450 105.8832 0.0000 0.0000 0.0000
# 3 14.2414 105.8832 215.2179 0.0000 0.0000 0.0000
# 4 0.0000 0.0000 0.0000 41.3695 0.0000 0.0000
# 5 0.0000 0.0000 0.0000 0.0000 5.4972 0.0000
# 6 0.0000 0.0000 0.0000 0.0000 0.0000 9.9538
#
#
#
# Elastic Compliance Matrix: (Units=1/GPa)
#
#
# Indices 1 2 3 4 5 6 
#
# 1 0.014416 -0.001401 -0.000265 0.000000 0.000000 0.000000
# 2 -0.001401 0.005590 -0.002658 0.000000 0.000000 0.000000
# 3 -0.000265 -0.002658 0.005971 0.000000 0.000000 0.000000
# 4 0.000000 0.000000 0.000000 0.024172 0.000000 0.000000
# 5 0.000000 0.000000 0.000000 0.000000 0.181912 0.000000
# 6 0.000000 0.000000 0.000000 0.000000 0.000000 0.100464
#
#
# Mechanical properties :
#
#
# Convention : Reuss Voigt Hill
#
# Bulk Modulus (GPa) = 57.69924 90.28823 73.99373
# Shear Modulus (GPa) = 14.41137 36.54814 25.47976
#
# Velocity S-wave (km/s) = 2.55380 4.06694 3.39572
# Velocity P-wave (km/s) = 5.89982 7.93180 6.99004
#
# Compressibility (1/GPa) = 0.01733125
#
# Stress axis : x y z
#
# Youngs Moduli (GPa) = 69.36913 178.88946 167.46402
#
# Poissons Ratio (x) = 0.25054 0.04436
# Poissons Ratio (y) = 0.09715 0.44504
# Poissons Ratio (z) = 0.01837 0.47540
#
# Static dielectric constant tensor:
#      x y z
#    x 1.912070 0.000000 0.000000 
#    y 0.000000 1.824230 0.000000 
#    z 0.000000 0.000000 1.770630 
# 
# From -- ./inp_files/27978.got.cif
#   From: 2010.05.17/outbox.cif.g08.bks.cpg/sg67_14_cif.got.tgz:27978.got - 2010.06.03 18:28:57.
