data_PCOD9504445
_publ_section_title
;
Structure prediction by ZEFSAII (Michael W. Deem and Ramdas Pophale) SiO2 
 PCOD9504445
Probable space group: C M M A
;
_chemical_formula_sum "Si O2"
_cell_formula_units_Z 64
_cell_length_a 15.760019
_cell_length_b 10.364887
_cell_length_c 19.184214
_cell_angle_alpha 90.000000
_cell_angle_beta 90.000000
_cell_angle_gamma 90.000000
_cell_volume 3133.757012
_symmetry_space_group_name_H-M "C M M A"
_symmetry_group_IT_number 67
_symmetry_cell_setting 'orthorhombic'
loop_
_space_group_symop_operation_xyz
x,y,z
-x,1/2-y,z
x,-y,-z
-x,1/2+y,-z
-x,-y,-z
x,1/2+y,-z
-x,y,z
x,1/2-y,z
1/2+x,1/2+y,z
1/2-x,-y,z
1/2+x,1/2-y,-z
1/2-x,y,-z
1/2-x,1/2-y,-z
1/2+x,y,-z
1/2-x,1/2+y,z
1/2+x,-y,z
loop_
_atom_site_type_symbol
_atom_site_label
_atom_site_fract_x
_atom_site_fract_y
_atom_site_fract_z
Si Si1 0.342132 0.886805 0.461789
Si Si2 0.397638 0.605784 0.945190
Si Si3 0.830443 0.904253 0.211965
Si Si4 0.903301 0.896448 0.686072
O O1 0.384507 0.750000 0.471394
O O2 0.250000 0.878997 0.500000
O O3 0.339741 0.910236 0.379273
O O4 0.389583 0.000000 0.500000
O O5 0.500000 0.595814 0.940341
O O6 0.376851 0.750000 0.970365
O O7 0.361576 0.590427 0.867816
O O8 0.367035 0.500000 0.000000
O O9 0.819113 0.750000 0.229022
O O10 0.750000 0.000000 0.217480
O O11 0.893623 0.982976 0.262334
O O12 0.889658 0.750000 0.716380
O O13 0.000000 0.897112 0.659470
#
# Coordination Sequence:
#
# PCOD9504445 Si02
#       4
#    16  16  16  16
#     4   9  19  35  56  82 113 152 193 239 295 354
#     4   9  19  37  61  88 119 157 201 248 298 353
#     4  11  24  40  60  88 123 162 204 250 302 359
#     4  10  22  40  61  87 120 158 203 252 301 357
#
# _framework density 20.422771000000001
#
# number of rings (size 3 to 8) (size 9 to 14) (size 15 to 20)
#    0.000    2.250    0.000    1.500    3.500    5.500 
#    0.000    5.000    0.000    0.000    0.000    0.000 
#    0.000    0.000    0.000    0.000    0.000    0.000 
#
# Total GULP energy -178135.474089 kJ/mol
# GULP energy per Si atom -5566.733565 kJ/mol
# Density = 2.037629 g / cm^3
# Si number density = 20.422771 Si / 1000 Ang^3
#
#
#
# Elastic Constant Matrix: (Units=GPa)
#
#
# Indices 1 2 3 4 5 6 
#
# 1 62.9842 27.9347 24.5992 0.0000 0.0000 0.0000
# 2 27.9347 207.8485 77.3140 0.0000 0.0000 0.0000
# 3 24.5992 77.3140 78.2762 0.0000 0.0000 0.0000
# 4 0.0000 0.0000 0.0000 43.9703 0.0000 0.0000
# 5 0.0000 0.0000 0.0000 0.0000 -7.5694 0.0000
# 6 0.0000 0.0000 0.0000 0.0000 0.0000 15.0516
#
#
#
# Elastic Compliance Matrix: (Units=1/GPa)
#
#
# Indices 1 2 3 4 5 6 
#
# 1 0.018131 -0.000502 -0.005203 0.000000 0.000000 0.000000
# 2 -0.000502 0.007619 -0.007368 0.000000 0.000000 0.000000
# 3 -0.005203 -0.007368 0.021688 0.000000 0.000000 0.000000
# 4 0.000000 0.000000 0.000000 0.022743 0.000000 0.000000
# 5 0.000000 0.000000 0.000000 0.000000 -0.132111 0.000000
# 6 0.000000 0.000000 0.000000 0.000000 0.000000 0.066438
#
#
# Mechanical properties :
#
#
# Convention : Reuss Voigt Hill
#
# Bulk Modulus (GPa) = 46.96157 67.64497 57.30327
# Shear Modulus (GPa) = 132.44961 24.90791 78.67876
#
# Velocity S-wave (km/s) = 8.06193 3.49609 6.21359
# Velocity P-wave (km/s) = 10.47398 7.03499 8.92175
#
# Compressibility (1/GPa) = 0.02129401
#
# Stress axis : x y z
#
# Youngs Moduli (GPa) = 55.15295 131.24542 46.10919
#
# Poissons Ratio (x) = 0.06584 0.23988
# Poissons Ratio (y) = 0.02767 0.33973
# Poissons Ratio (z) = 0.28693 0.96702
#
# Static dielectric constant tensor:
#      x y z
#    x 1.776910 0.000000 0.000000 
#    y 0.000000 1.843380 0.000000 
#    z 0.000000 0.000000 1.725270 
# 
# From -- ./inp_files/25763.got.cif
#   From: 2010.05.17/outbox.cif.g08.bks.cpg/sg67_13_cif.got.tgz:25763.got - 2010.06.03 18:28:57.
