data_PCOD9504983
_publ_section_title
;
Structure prediction by ZEFSAII (Michael W. Deem and Ramdas Pophale) SiO2 
 PCOD9504983
Probable space group: C M M A
;
_chemical_formula_sum "Si O2"
_cell_formula_units_Z 96
_cell_length_a 24.318558
_cell_length_b 17.512400
_cell_length_c 11.616198
_cell_angle_alpha 90.000000
_cell_angle_beta 90.000000
_cell_angle_gamma 90.000000
_cell_volume 4947.063600
_symmetry_space_group_name_H-M "C M M A"
_symmetry_group_IT_number 67
_symmetry_cell_setting 'orthorhombic'
loop_
_space_group_symop_operation_xyz
x,y,z
-x,1/2-y,z
x,-y,-z
-x,1/2+y,-z
-x,-y,-z
x,1/2+y,-z
-x,y,z
x,1/2-y,z
1/2+x,1/2+y,z
1/2-x,-y,z
1/2+x,1/2-y,-z
1/2-x,y,-z
1/2-x,1/2-y,-z
1/2+x,y,-z
1/2-x,1/2+y,z
1/2+x,-y,z
loop_
_atom_site_type_symbol
_atom_site_label
_atom_site_fract_x
_atom_site_fract_y
_atom_site_fract_z
Si Si1 0.500000 0.158527 0.974260
Si Si2 0.500000 0.843770 0.301596
Si Si3 0.618101 0.838090 0.999935
Si Si4 0.806386 0.159095 0.563311
Si Si5 0.605534 0.425411 0.581646
Si Si6 0.325665 0.934593 0.188046
Si Si7 0.702917 0.893778 0.819958
O O1 0.500000 0.250000 0.979329
O O2 0.500000 0.139745 0.837003
O O3 0.556789 0.135564 0.035641
O O4 0.500000 0.750000 0.314454
O O5 0.447426 0.884083 0.362405
O O6 0.615522 0.750000 0.038014
O O7 0.632997 0.891443 0.105881
O O8 0.665305 0.844743 0.904358
O O9 0.802795 0.250000 0.574405
O O10 0.750000 0.132610 0.500000
O O11 0.859713 0.134457 0.493247
O O12 0.811200 0.122974 0.688576
O O13 0.594335 0.500000 0.500000
O O14 0.647500 0.443613 0.686524
O O15 0.268890 0.886938 0.177952
O O16 0.311493 0.019466 0.147744
#
# Coordination Sequence:
#
# PCOD9504983 Si02
#       7
#     8   8  16  16  16  16  16
#     4   9  20  39  64  88 120 169 216 267 331 384
#     4  11  23  43  67  95 133 170 220 285 331 383
#     4  11  23  41  64  93 126 167 223 277 330 391
#     4  11  23  38  62  96 131 170 217 264 327 397
#     4  12  23  41  67  96 130 175 222 270 328 395
#     4  11  23  39  65  91 129 169 216 264 333 399
#     4  11  23  41  61  93 133 172 207 267 335 403
#
# _framework density 19.405452
#
# number of rings (size 3 to 8) (size 9 to 14) (size 15 to 20)
#    0.000    1.000    5.000    2.250    0.000    4.333 
#    0.000    3.333    0.000    1.000    0.000    0.000 
#    0.000    0.000    0.000    0.000    0.000    0.000 
#
# Total GULP energy -267775.398286 kJ/mol
# GULP energy per Si atom -5578.654131 kJ/mol
# Density = 1.936128 g / cm^3
# Si number density = 19.405452 Si / 1000 Ang^3
#
#
#
# Elastic Constant Matrix: (Units=GPa)
#
#
# Indices 1 2 3 4 5 6 
#
# 1 114.3883 30.1710 11.4086 0.0000 0.0000 0.0000
# 2 30.1710 55.1665 17.5050 0.0000 0.0000 0.0000
# 3 11.4086 17.5050 58.3925 0.0000 0.0000 0.0000
# 4 0.0000 0.0000 0.0000 -44.2629 0.0000 0.0000
# 5 0.0000 0.0000 0.0000 0.0000 31.7956 0.0000
# 6 0.0000 0.0000 0.0000 0.0000 0.0000 31.3243
#
#
#
# Elastic Compliance Matrix: (Units=1/GPa)
#
#
# Indices 1 2 3 4 5 6 
#
# 1 0.010222 -0.005478 -0.000355 0.000000 0.000000 0.000000
# 2 -0.005478 0.022968 -0.005815 0.000000 0.000000 0.000000
# 3 -0.000355 -0.005815 0.018938 0.000000 0.000000 0.000000
# 4 0.000000 0.000000 0.000000 -0.022592 0.000000 0.000000
# 5 0.000000 0.000000 0.000000 0.000000 0.031451 0.000000
# 6 0.000000 0.000000 0.000000 0.000000 0.000000 0.031924
#
#
# Mechanical properties :
#
#
# Convention : Reuss Voigt Hill
#
# Bulk Modulus (GPa) = 34.68337 38.45741 36.57039
# Shear Modulus (GPa) = 39.73971 15.02891 27.38431
#
# Velocity S-wave (km/s) = 4.53024 2.78595 3.76062
# Velocity P-wave (km/s) = 6.72874 5.49632 6.14351
#
# Compressibility (1/GPa) = 0.02883226
#
# Stress axis : x y z
#
# Youngs Moduli (GPa) = 97.82381 43.53851 52.80355
#
# Poissons Ratio (x) = 0.23851 0.01875
# Poissons Ratio (y) = 0.53589 0.30706
# Poissons Ratio (z) = 0.03473 0.25318
#
# Static dielectric constant tensor:
#      x y z
#    x 1.778930 0.000000 0.000000 
#    y 0.000000 1.669990 0.000000 
#    z 0.000000 0.000000 1.680680 
# 
# From -- ./inp_files/21986.got.cif
#   From: 2010.05.17/outbox.cif.g08.bks.cpg/sg67_11_cif.got.tgz:21986.got - 2010.06.03 18:28:57.
