data_PCOD9504674
_publ_section_title
;
Structure prediction by ZEFSAII (Michael W. Deem and Ramdas Pophale) SiO2 
 PCOD9504674
Probable space group: C M M A
;
_chemical_formula_sum "Si O2"
_cell_formula_units_Z 72
_cell_length_a 15.300186
_cell_length_b 9.163059
_cell_length_c 26.319055
_cell_angle_alpha 90.000000
_cell_angle_beta 90.000000
_cell_angle_gamma 90.000000
_cell_volume 3689.839579
_symmetry_space_group_name_H-M "C M M A"
_symmetry_group_IT_number 67
_symmetry_cell_setting 'orthorhombic'
loop_
_space_group_symop_operation_xyz
x,y,z
-x,1/2-y,z
x,-y,-z
-x,1/2+y,-z
-x,-y,-z
x,1/2+y,-z
-x,y,z
x,1/2-y,z
1/2+x,1/2+y,z
1/2-x,-y,z
1/2+x,1/2-y,-z
1/2-x,y,-z
1/2-x,1/2-y,-z
1/2+x,y,-z
1/2-x,1/2+y,z
1/2+x,-y,z
loop_
_atom_site_type_symbol
_atom_site_label
_atom_site_fract_x
_atom_site_fract_y
_atom_site_fract_z
Si Si1 0.392994 0.419991 0.550667
Si Si2 0.102732 0.427553 0.339713
Si Si3 0.161780 0.924196 0.126329
Si Si4 0.606197 0.079052 0.771235
Si Si5 0.500000 0.575298 0.945674
O O1 0.362826 0.500000 0.500000
O O2 0.500000 0.427901 0.551570
O O3 0.370111 0.250000 0.547124
O O4 0.361912 0.478709 0.605695
O O5 0.106251 0.250000 0.340388
O O6 0.137923 0.472464 0.284625
O O7 0.000000 0.467042 0.339302
O O8 0.170159 0.750000 0.128006
O O9 0.083831 0.963657 0.088226
O O10 0.250000 0.000000 0.108575
O O11 0.140566 0.984623 0.182404
O O12 0.500000 0.072950 0.771200
O O13 0.630063 0.250000 0.778019
O O14 0.500000 0.750000 0.952488
O O15 0.500000 0.500000 0.000000
#
# Coordination Sequence:
#
# PCOD9504674 Si02
#       5
#    16  16  16  16   8
#     4   8  12  18  28  44  73 114 159 210 262 315
#     4   7  11  20  35  57  85 121 168 216 265 323
#     4  11  23  40  60  88 121 154 191 235 282 330
#     4   9  16  29  52  78 104 141 186 230 280 338
#     4  10  24  44  66  90 122 156 191 232 277 324
#
# _framework density 19.513045000000002
#
# number of rings (size 3 to 8) (size 9 to 14) (size 15 to 20)
#    0.000    3.111    1.111    3.333    0.000    2.222 
#    0.000    3.333    0.000    4.000    0.000    0.000 
#    0.000    0.889    0.000   10.222    0.000   12.000 
#
# Total GULP energy -200629.284402 kJ/mol
# GULP energy per Si atom -5573.035678 kJ/mol
# Density = 1.946863 g / cm^3
# Si number density = 19.513045 Si / 1000 Ang^3
#
#
#
# Elastic Constant Matrix: (Units=GPa)
#
#
# Indices 1 2 3 4 5 6 
#
# 1 81.4405 34.9825 64.0886 0.0000 0.0000 0.0000
# 2 34.9825 41.2258 64.1937 0.0000 0.0000 0.0000
# 3 64.0886 64.1937 211.4750 0.0000 0.0000 0.0000
# 4 0.0000 0.0000 0.0000 35.0163 0.0000 0.0000
# 5 0.0000 0.0000 0.0000 0.0000 -17.0400 0.0000
# 6 0.0000 0.0000 0.0000 0.0000 0.0000 15.9592
#
#
#
# Elastic Compliance Matrix: (Units=1/GPa)
#
#
# Indices 1 2 3 4 5 6 
#
# 1 0.019636 -0.014026 -0.001693 0.000000 0.000000 0.000000
# 2 -0.014026 0.056017 -0.012754 0.000000 0.000000 0.000000
# 3 -0.001693 -0.012754 0.009113 0.000000 0.000000 0.000000
# 4 0.000000 0.000000 0.000000 0.028558 0.000000 0.000000
# 5 0.000000 0.000000 0.000000 0.000000 -0.058686 0.000000
# 6 0.000000 0.000000 0.000000 0.000000 0.000000 0.062660
#
#
# Mechanical properties :
#
#
# Convention : Reuss Voigt Hill
#
# Bulk Modulus (GPa) = 35.94355 73.40790 54.67573
# Shear Modulus (GPa) = 27.24523 18.17886 22.71204
#
# Velocity S-wave (km/s) = 3.74071 3.05557 3.41536
# Velocity P-wave (km/s) = 6.09241 7.08168 6.60559
#
# Compressibility (1/GPa) = 0.02782140
#
# Stress axis : x y z
#
# Youngs Moduli (GPa) = 50.92655 17.85161 109.73048
#
# Poissons Ratio (x) = 0.25038 0.18580
# Poissons Ratio (y) = 0.71428 1.39946
# Poissons Ratio (z) = 0.08623 0.22767
#
# Static dielectric constant tensor:
#      x y z
#    x 1.745810 0.000000 0.000000 
#    y 0.000000 1.578130 0.000000 
#    z 0.000000 0.000000 1.710460 
# 
# From -- ./inp_files/40523.got.cif
#   From: 2010.05.17/outbox.cif.g08.bks.cpg/sg67_21_cif.got.tgz:40523.got - 2010.06.03 18:28:57.
