data_PCOD9504512
_publ_section_title
;
Structure prediction by ZEFSAII (Michael W. Deem and Ramdas Pophale) SiO2 
 PCOD9504512
Probable space group: C M M A
;
_chemical_formula_sum "Si O2"
_cell_formula_units_Z 60
_cell_length_a 24.899597
_cell_length_b 21.353931
_cell_length_c 5.117120
_cell_angle_alpha 90.000000
_cell_angle_beta 90.000000
_cell_angle_gamma 90.000000
_cell_volume 2720.794586
_symmetry_space_group_name_H-M "C M M A"
_symmetry_group_IT_number 67
_symmetry_cell_setting 'orthorhombic'
loop_
_space_group_symop_operation_xyz
x,y,z
-x,1/2-y,z
x,-y,-z
-x,1/2+y,-z
-x,-y,-z
x,1/2+y,-z
-x,y,z
x,1/2-y,z
1/2+x,1/2+y,z
1/2-x,-y,z
1/2+x,1/2-y,-z
1/2-x,y,-z
1/2-x,1/2-y,-z
1/2+x,y,-z
1/2-x,1/2+y,z
1/2+x,-y,z
loop_
_atom_site_type_symbol
_atom_site_label
_atom_site_fract_x
_atom_site_fract_y
_atom_site_fract_z
Si Si1 0.610114 0.115760 0.277922
Si Si2 0.315924 0.390884 0.775586
Si Si3 0.750000 0.000000 0.500000
Si Si4 0.500000 0.042334 0.248708
Si Si5 0.691898 0.750000 0.318718
Si Si6 0.123849 0.750000 0.177569
O O1 0.636630 0.109233 0.561126
O O2 0.556296 0.077999 0.246016
O O3 0.593766 0.187465 0.240588
O O4 0.656598 0.103118 0.060208
O O5 0.281421 0.450993 0.688953
O O6 0.287236 0.321442 0.745043
O O7 0.500000 0.000000 0.500000
O O8 0.500000 0.000000 0.000000
O O9 0.675669 0.750000 0.624314
O O10 0.641355 0.750000 0.122640
#
# Coordination Sequence:
#
# PCOD9504512 Si02
#       6
#    16  16   4   8   8   8
#     4  10  22  42  64  90 127 160 207 260 309 368
#     4  10  23  40  64  90 127 162 207 267 310 375
#     4  12  28  40  64  96 120 172 220 254 332 374
#     4  12  26  39  62  95 126 176 206 237 311 384
#     4   8  16  37  60  87 118 161 201 253 326 362
#     4   8  16  35  64  89 114 159 201 255 313 356
#
# _framework density 22.052382999999999
#
# number of rings (size 3 to 8) (size 9 to 14) (size 15 to 20)
#    0.000    2.133    0.000    1.600    5.600    3.200 
#    0.000    0.000    0.000   20.800    0.000    0.000 
#    0.000    0.000    0.000    0.000    0.000    0.000 
#
# Total GULP energy -167422.926949 kJ/mol
# GULP energy per Si atom -5580.764232 kJ/mol
# Density = 2.200219 g / cm^3
# Si number density = 22.052383 Si / 1000 Ang^3
#
#
#
# Elastic Constant Matrix: (Units=GPa)
#
#
# Indices 1 2 3 4 5 6 
#
# 1 72.3829 68.0878 24.2705 0.0000 0.0000 0.0000
# 2 68.0878 195.9118 14.1093 0.0000 0.0000 0.0000
# 3 24.2705 14.1093 106.2421 0.0000 0.0000 0.0000
# 4 0.0000 0.0000 0.0000 21.1158 0.0000 0.0000
# 5 0.0000 0.0000 0.0000 0.0000 25.6882 0.0000
# 6 0.0000 0.0000 0.0000 0.0000 0.0000 52.4801
#
#
#
# Elastic Compliance Matrix: (Units=1/GPa)
#
#
# Indices 1 2 3 4 5 6 
#
# 1 0.022146 -0.007403 -0.004076 0.000000 0.000000 0.000000
# 2 -0.007403 0.007628 0.000678 0.000000 0.000000 0.000000
# 3 -0.004076 0.000678 0.010254 0.000000 0.000000 0.000000
# 4 0.000000 0.000000 0.000000 0.047358 0.000000 0.000000
# 5 0.000000 0.000000 0.000000 0.000000 0.038928 0.000000
# 6 0.000000 0.000000 0.000000 0.000000 0.000000 0.019055
#
#
# Mechanical properties :
#
#
# Convention : Reuss Voigt Hill
#
# Bulk Modulus (GPa) = 54.27125 65.27467 59.77296
# Shear Modulus (GPa) = 28.88290 37.72812 33.30551
#
# Velocity S-wave (km/s) = 3.62296 4.14072 3.89046
# Velocity P-wave (km/s) = 6.49343 7.24740 6.88075
#
# Compressibility (1/GPa) = 0.01842596
#
# Stress axis : x y z
#
# Youngs Moduli (GPa) = 45.15502 131.08901 97.52728
#
# Poissons Ratio (x) = 0.97047 0.39752
# Poissons Ratio (y) = 0.33429 -0.06614
# Poissons Ratio (z) = 0.18405 -0.08889
#
# Static dielectric constant tensor:
#      x y z
#    x 1.742360 0.000000 0.000000 
#    y 0.000000 1.853980 0.000000 
#    z 0.000000 0.000000 1.781790 
# 
# From -- ./inp_files/2783.got.cif
#   From: 2010.05.17/outbox.cif.g08.bks.cpg/sg67_2_cif.got.tgz:2783.got - 2010.06.03 18:28:57.
