data_PCOD9504412
_publ_section_title
;
Structure prediction by ZEFSAII (Michael W. Deem and Ramdas Pophale) SiO2 
 PCOD9504412
Probable space group: C M M A
;
_chemical_formula_sum "Si O2"
_cell_formula_units_Z 116
_cell_length_a 17.351751
_cell_length_b 18.636638
_cell_length_c 17.245414
_cell_angle_alpha 90.000000
_cell_angle_beta 90.000000
_cell_angle_gamma 90.000000
_cell_volume 5576.792698
_symmetry_space_group_name_H-M "C M M A"
_symmetry_group_IT_number 67
_symmetry_cell_setting 'orthorhombic'
loop_
_space_group_symop_operation_xyz
x,y,z
-x,1/2-y,z
x,-y,-z
-x,1/2+y,-z
-x,-y,-z
x,1/2+y,-z
-x,y,z
x,1/2-y,z
1/2+x,1/2+y,z
1/2-x,-y,z
1/2+x,1/2-y,-z
1/2-x,y,-z
1/2-x,1/2-y,-z
1/2+x,y,-z
1/2-x,1/2+y,z
1/2+x,-y,z
loop_
_atom_site_type_symbol
_atom_site_label
_atom_site_fract_x
_atom_site_fract_y
_atom_site_fract_z
Si Si1 0.204593 0.332451 0.266318
Si Si2 0.910586 0.081912 0.654728
Si Si3 0.324916 0.051767 0.599575
Si Si4 0.591248 0.917512 0.976496
Si Si5 0.911867 0.664756 0.871743
Si Si6 0.500000 0.750000 0.812377
Si Si7 0.363686 0.368347 0.187170
Si Si8 0.840525 0.169673 0.521558
O O1 0.197528 0.250000 0.296958
O O2 0.199775 0.392749 0.332733
O O3 0.136674 0.347740 0.205247
O O4 0.282630 0.337358 0.216314
O O5 0.886683 0.077682 0.744308
O O6 0.862660 0.143180 0.607825
O O7 0.000000 0.100197 0.646826
O O8 0.889652 0.004942 0.621391
O O9 0.360606 0.102615 0.533118
O O10 0.250000 0.000000 0.582702
O O11 0.500000 0.899599 0.963214
O O12 0.637259 0.901344 0.898301
O O13 0.618662 0.872026 0.050365
O O14 0.595621 0.000000 0.000000
O O15 0.912509 0.750000 0.884956
O O16 0.000000 0.639719 0.861111
O O17 0.431998 0.688895 0.812381
O O18 0.872762 0.250000 0.508488
O O19 0.750000 0.174609 0.500000
#
# Coordination Sequence:
#
# PCOD9504412 Si02
#       8
#    16  16  16  16  16   4  16  16
#     4  11  24  42  68 102 134 175 231 285 340 410
#     4  12  27  44  70 103 139 176 226 280 345 402
#     4  12  24  43  69  96 135 179 221 272 334 408
#     4  10  22  39  62  92 133 177 226 278 342 407
#     4   9  21  40  63  90 126 175 225 278 336 400
#     4  12  24  40  70  98 142 180 224 288 344 412
#     4  12  24  41  68 100 136 179 224 284 341 410
#     4  11  24  43  70  99 133 177 221 269 328 399
#
# _framework density 20.800485999999999
#
# number of rings (size 3 to 8) (size 9 to 14) (size 15 to 20)
#    0.000    0.966    4.828    0.828    3.862    3.586 
#    0.000    2.069    0.000    2.483    0.000    0.000 
#    0.000    0.000    0.000    0.000    0.000    0.000 
#
# Total GULP energy -323305.501606 kJ/mol
# GULP energy per Si atom -5574.232786 kJ/mol
# Density = 2.075314 g / cm^3
# Si number density = 20.800486 Si / 1000 Ang^3
#
#
#
# Elastic Constant Matrix: (Units=GPa)
#
#
# Indices 1 2 3 4 5 6 
#
# 1 65.1852 5.8454 23.5997 0.0000 0.0000 0.0000
# 2 5.8454 98.8799 55.5577 0.0000 0.0000 0.0000
# 3 23.5997 55.5577 99.4229 0.0000 0.0000 0.0000
# 4 0.0000 0.0000 0.0000 -148.7480 0.0000 0.0000
# 5 0.0000 0.0000 0.0000 0.0000 19.8308 0.0000
# 6 0.0000 0.0000 0.0000 0.0000 0.0000 21.3853
#
#
#
# Elastic Compliance Matrix: (Units=1/GPa)
#
#
# Indices 1 2 3 4 5 6 
#
# 1 0.017010 0.001841 -0.005066 0.000000 0.000000 0.000000
# 2 0.001841 0.014941 -0.008786 0.000000 0.000000 0.000000
# 3 -0.005066 -0.008786 0.016170 0.000000 0.000000 0.000000
# 4 0.000000 0.000000 0.000000 -0.006723 0.000000 0.000000
# 5 0.000000 0.000000 0.000000 0.000000 0.050426 0.000000
# 6 0.000000 0.000000 0.000000 0.000000 0.000000 0.046761
#
#
# Mechanical properties :
#
#
# Convention : Reuss Voigt Hill
#
# Bulk Modulus (GPa) = 41.49619 48.16595 44.83107
# Shear Modulus (GPa) = 29.30107 -9.60736 9.84685
#
# Velocity S-wave (km/s) = 3.75730 -2.15147 2.17813
# Velocity P-wave (km/s) = 6.23025 4.12730 5.28444
#
# Compressibility (1/GPa) = 0.02409860
#
# Stress axis : x y z
#
# Youngs Moduli (GPa) = 58.78870 66.92937 61.84148
#
# Poissons Ratio (x) = -0.12322 0.31332
# Poissons Ratio (y) = -0.10824 0.54335
# Poissons Ratio (z) = 0.29785 0.58805
#
# Static dielectric constant tensor:
#      x y z
#    x 1.757350 0.000000 0.000000 
#    y 0.000000 1.729440 0.000000 
#    z 0.000000 0.000000 1.832430 
# 
# From -- ./inp_files/34378.got.cif
#   From: 2010.05.17/outbox.cif.g08.bks.cpg/sg67_18_cif.got.tgz:34378.got - 2010.06.03 18:28:57.
