data_PCOD9504550
_publ_section_title
;
Structure prediction by ZEFSAII (Michael W. Deem and Ramdas Pophale) SiO2 
 PCOD9504550
Probable space group: C M M A
;
_chemical_formula_sum "Si O2"
_cell_formula_units_Z 88
_cell_length_a 22.105690
_cell_length_b 14.787128
_cell_length_c 13.168639
_cell_angle_alpha 90.000000
_cell_angle_beta 90.000000
_cell_angle_gamma 90.000000
_cell_volume 4304.560339
_symmetry_space_group_name_H-M "C M M A"
_symmetry_group_IT_number 67
_symmetry_cell_setting 'orthorhombic'
loop_
_space_group_symop_operation_xyz
x,y,z
-x,1/2-y,z
x,-y,-z
-x,1/2+y,-z
-x,-y,-z
x,1/2+y,-z
-x,y,z
x,1/2-y,z
1/2+x,1/2+y,z
1/2-x,-y,z
1/2+x,1/2-y,-z
1/2-x,y,-z
1/2-x,1/2-y,-z
1/2+x,y,-z
1/2-x,1/2+y,z
1/2+x,-y,z
loop_
_atom_site_type_symbol
_atom_site_label
_atom_site_fract_x
_atom_site_fract_y
_atom_site_fract_z
Si Si1 0.127612 0.111240 0.877986
Si Si2 0.070926 0.750000 0.273746
Si Si3 0.500000 0.403083 0.550833
Si Si4 0.255685 0.607663 0.221455
Si Si5 0.881421 0.105771 0.111717
Si Si6 0.904602 0.750000 0.500715
Si Si7 0.000000 0.349186 0.235224
Si Si8 0.279549 0.250000 0.609369
O O1 0.086965 0.164367 0.797107
O O2 0.196614 0.130803 0.844692
O O3 0.116645 0.003517 0.878092
O O4 0.117078 0.136559 0.994979
O O5 0.108493 0.750000 0.379208
O O6 0.000000 0.750000 0.301121
O O7 0.500000 0.500000 0.500000
O O8 0.443097 0.340911 0.520166
O O9 0.500000 0.417546 0.671694
O O10 0.250000 0.500000 0.239937
O O11 0.317228 0.630397 0.161403
O O12 0.259632 0.663786 0.324659
O O13 0.939856 0.141721 0.169469
O O14 0.850349 0.750000 0.581263
O O15 0.000000 0.250000 0.284644
O O16 0.250000 0.250000 0.500000
#
# Coordination Sequence:
#
# PCOD9504550 Si02
#       8
#    16   8   8  16  16   8   8   8
#     4  10  23  42  64 100 130 175 224 271 326 409
#     4  12  26  41  65  91 138 177 225 274 334 401
#     4  11  25  46  72  96 127 181 228 278 331 406
#     4  10  22  44  69  98 128 176 224 273 342 407
#     4  10  24  40  69  93 140 173 215 276 334 405
#     4  11  24  48  66  99 132 173 229 281 340 398
#     4  12  26  42  62 103 135 171 226 274 340 402
#     4  12  25  44  66  95 134 168 215 295 336 391
#
# _framework density 20.443435000000001
#
# number of rings (size 3 to 8) (size 9 to 14) (size 15 to 20)
#    0.000    1.273    1.818    3.273    7.636    3.273 
#    3.273    1.818    0.000    0.000    0.000    0.000 
#    0.000    0.000    0.000    0.000    0.000    0.000 
#
# Total GULP energy -245982.798975 kJ/mol
# GULP energy per Si atom -5590.518159 kJ/mol
# Density = 2.039691 g / cm^3
# Si number density = 20.443435 Si / 1000 Ang^3
#
#
#
# Elastic Constant Matrix: (Units=GPa)
#
#
# Indices 1 2 3 4 5 6 
#
# 1 96.2476 32.9396 34.6088 0.0000 0.0000 0.0000
# 2 32.9396 83.9952 39.6038 0.0000 0.0000 0.0000
# 3 34.6088 39.6038 160.7892 0.0000 0.0000 0.0000
# 4 0.0000 0.0000 0.0000 28.3953 0.0000 0.0000
# 5 0.0000 0.0000 0.0000 0.0000 32.4638 0.0000
# 6 0.0000 0.0000 0.0000 0.0000 0.0000 10.8833
#
#
#
# Elastic Compliance Matrix: (Units=1/GPa)
#
#
# Indices 1 2 3 4 5 6 
#
# 1 0.012381 -0.004072 -0.001662 0.000000 0.000000 0.000000
# 2 -0.004072 0.014809 -0.002771 0.000000 0.000000 0.000000
# 3 -0.001662 -0.002771 0.007260 0.000000 0.000000 0.000000
# 4 0.000000 0.000000 0.000000 0.035217 0.000000 0.000000
# 5 0.000000 0.000000 0.000000 0.000000 0.030804 0.000000
# 6 0.000000 0.000000 0.000000 0.000000 0.000000 0.091884
#
#
# Mechanical properties :
#
#
# Convention : Reuss Voigt Hill
#
# Bulk Modulus (GPa) = 57.34044 61.70404 59.52224
# Shear Modulus (GPa) = 23.23668 29.94045 26.58856
#
# Velocity S-wave (km/s) = 3.37506 3.83110 3.61028
# Velocity P-wave (km/s) = 6.58006 7.05819 6.82332
#
# Compressibility (1/GPa) = 0.01743970
#
# Stress axis : x y z
#
# Youngs Moduli (GPa) = 80.76899 67.52748 137.74825
#
# Poissons Ratio (x) = 0.27495 0.22894
# Poissons Ratio (y) = 0.32887 0.38172
# Poissons Ratio (z) = 0.13424 0.18713
#
# Static dielectric constant tensor:
#      x y z
#    x 1.738950 0.000000 0.000000 
#    y 0.000000 1.732110 0.000000 
#    z 0.000000 0.000000 1.697750 
# 
# From -- ./inp_files/21823.got.cif
#   From: 2010.05.17/outbox.cif.g08.bks.cpg/sg67_11_cif.got.tgz:21823.got - 2010.06.03 18:28:57.
