data_PCOD9504868
_publ_section_title
;
Structure prediction by ZEFSAII (Michael W. Deem and Ramdas Pophale) SiO2 
 PCOD9504868
Probable space group: C M M A
;
_chemical_formula_sum "Si O2"
_cell_formula_units_Z 80
_cell_length_a 14.918763
_cell_length_b 9.056229
_cell_length_c 27.650628
_cell_angle_alpha 90.000000
_cell_angle_beta 90.000000
_cell_angle_gamma 90.000000
_cell_volume 3735.813696
_symmetry_space_group_name_H-M "C M M A"
_symmetry_group_IT_number 67
_symmetry_cell_setting 'orthorhombic'
loop_
_space_group_symop_operation_xyz
x,y,z
-x,1/2-y,z
x,-y,-z
-x,1/2+y,-z
-x,-y,-z
x,1/2+y,-z
-x,y,z
x,1/2-y,z
1/2+x,1/2+y,z
1/2-x,-y,z
1/2+x,1/2-y,-z
1/2-x,y,-z
1/2-x,1/2-y,-z
1/2+x,y,-z
1/2-x,1/2+y,z
1/2+x,-y,z
loop_
_atom_site_type_symbol
_atom_site_label
_atom_site_fract_x
_atom_site_fract_y
_atom_site_fract_z
Si Si1 0.393902 0.416897 0.855813
Si Si2 0.109197 0.923216 0.346274
Si Si3 0.607262 0.574132 0.249239
Si Si4 0.109229 0.077475 0.548583
Si Si5 0.847857 0.926092 0.047170
O O1 0.500000 0.399946 0.848812
O O2 0.357877 0.250000 0.866283
O O3 0.358447 0.473060 0.803894
O O4 0.384097 0.524393 0.900982
O O5 0.130989 0.750000 0.343991
O O6 0.138370 0.983174 0.398890
O O7 0.000000 0.933964 0.346331
O O8 0.143332 0.001305 0.297963
O O9 0.500000 0.544143 0.249993
O O10 0.619192 0.750000 0.251384
O O11 0.132285 0.250000 0.546810
O O12 0.000000 0.068501 0.548154
O O13 0.141757 0.000000 0.500000
O O14 0.845666 0.750000 0.041819
O O15 0.750000 0.000000 0.047958
O O16 0.893497 0.000000 0.000000
#
# Coordination Sequence:
#
# PCOD9504868 Si02
#       5
#    16  16  16  16  16
#     4   9  18  33  51  72  99 126 154 192 233 272
#     4   8  13  20  29  42  63  91 124 165 211 256
#     4   8  14  24  38  56  78 105 136 171 213 259
#     4   8  13  19  25  35  53  80 117 162 208 250
#     4  11  22  37  56  75  97 125 157 190 227 273
#
# _framework density 21.414342999999999
#
# number of rings (size 3 to 8) (size 9 to 14) (size 15 to 20)
#    0.000    3.200    0.000    4.800    0.000    2.400 
#    0.000    6.000    0.000    0.000    0.000    0.000 
#    0.000    0.000    0.000    0.000    0.000    1.000 
#
# Total GULP energy -222833.889559 kJ/mol
# GULP energy per Si atom -5570.847239 kJ/mol
# Density = 2.136560 g / cm^3
# Si number density = 21.414343 Si / 1000 Ang^3
#
#
#
# Elastic Constant Matrix: (Units=GPa)
#
#
# Indices 1 2 3 4 5 6 
#
# 1 39.9233 9.5276 13.7848 0.0000 0.0000 0.0000
# 2 9.5276 76.8075 94.6189 0.0000 0.0000 0.0000
# 3 13.7848 94.6189 268.1837 0.0000 0.0000 0.0000
# 4 0.0000 0.0000 0.0000 35.9509 0.0000 0.0000
# 5 0.0000 0.0000 0.0000 0.0000 35.2947 0.0000
# 6 0.0000 0.0000 0.0000 0.0000 0.0000 4.3839
#
#
#
# Elastic Compliance Matrix: (Units=1/GPa)
#
#
# Indices 1 2 3 4 5 6 
#
# 1 0.025831 -0.002774 -0.000349 0.000000 0.000000 0.000000
# 2 -0.002774 0.023326 -0.008087 0.000000 0.000000 0.000000
# 3 -0.000349 -0.008087 0.006600 0.000000 0.000000 0.000000
# 4 0.000000 0.000000 0.000000 0.027816 0.000000 0.000000
# 5 0.000000 0.000000 0.000000 0.000000 0.028333 0.000000
# 6 0.000000 0.000000 0.000000 0.000000 0.000000 0.228110
#
#
# Mechanical properties :
#
#
# Convention : Reuss Voigt Hill
#
# Bulk Modulus (GPa) = 29.99763 68.97524 49.48643
# Shear Modulus (GPa) = 13.38515 32.92477 23.15496
#
# Velocity S-wave (km/s) = 2.50282 3.92536 3.29185
# Velocity P-wave (km/s) = 4.73189 7.26804 6.13250
#
# Compressibility (1/GPa) = 0.03333597
#
# Stress axis : x y z
#
# Youngs Moduli (GPa) = 38.71378 42.86993 151.51477
#
# Poissons Ratio (x) = 0.11894 0.05286
# Poissons Ratio (y) = 0.10741 1.22534
# Poissons Ratio (z) = 0.01351 0.34670
#
# Static dielectric constant tensor:
#      x y z
#    x 1.933900 0.000000 0.000000 
#    y 0.000000 1.728830 0.000000 
#    z 0.000000 0.000000 1.874490 
# 
# From -- ./inp_files/44448.got.cif
#   From: 2010.05.17/outbox.cif.g08.bks.cpg/sg67_23_cif.got.tgz:44448.got - 2010.06.03 18:28:57.
