data_PCOD9504701
_publ_section_title
;
Structure prediction by ZEFSAII (Michael W. Deem and Ramdas Pophale) SiO2 
 PCOD9504701
Probable space group: C M M A
;
_chemical_formula_sum "Si O2"
_cell_formula_units_Z 60
_cell_length_a 28.005239
_cell_length_b 10.478986
_cell_length_c 10.379929
_cell_angle_alpha 90.000000
_cell_angle_beta 90.000000
_cell_angle_gamma 90.000000
_cell_volume 3046.161511
_symmetry_space_group_name_H-M "C M M A"
_symmetry_group_IT_number 67
_symmetry_cell_setting 'orthorhombic'
loop_
_space_group_symop_operation_xyz
x,y,z
-x,1/2-y,z
x,-y,-z
-x,1/2+y,-z
-x,-y,-z
x,1/2+y,-z
-x,y,z
x,1/2-y,z
1/2+x,1/2+y,z
1/2-x,-y,z
1/2+x,1/2-y,-z
1/2-x,y,-z
1/2-x,1/2-y,-z
1/2+x,y,-z
1/2-x,1/2+y,z
1/2+x,-y,z
loop_
_atom_site_type_symbol
_atom_site_label
_atom_site_fract_x
_atom_site_fract_y
_atom_site_fract_z
Si Si1 0.000000 0.394246 0.676964
Si Si2 0.765493 0.750000 0.645557
Si Si3 0.378088 0.750000 0.369581
Si Si4 0.250000 0.500000 0.799899
Si Si5 0.500000 0.250000 0.069647
Si Si6 0.336542 0.000000 0.000000
Si Si7 0.919603 0.500000 0.500000
Si Si8 0.898403 0.750000 0.930736
O O1 0.953823 0.462293 0.619485
O O2 0.000000 0.250000 0.620714
O O3 0.000000 0.370021 0.829744
O O4 0.750000 0.750000 0.500000
O O5 0.822174 0.750000 0.654859
O O6 0.747083 0.625156 0.715272
O O7 0.391303 0.876166 0.451429
O O8 0.400678 0.750000 0.225661
O O9 0.298699 0.499442 0.882571
O O10 0.451718 0.250000 0.988210
O O11 0.369484 0.125039 0.981177
#
# Coordination Sequence:
#
# PCOD9504701 Si02
#       8
#     8   8   8   8   4   8   8   8
#     4   9  21  45  67 102 133 186 235 280 354 404
#     4  12  27  43  67 103 141 174 230 289 358 417
#     4  12  27  46  69 107 138 184 240 286 352 429
#     4  11  23  48  72 100 135 185 228 292 354 423
#     4  10  26  42  68 104 146 182 228 292 354 398
#     4  11  24  47  74  98 140 183 236 283 352 432
#     4  11  24  46  73  96 140 186 239 288 342 417
#     4  12  27  44  69 110 140 187 234 286 352 423
#
# _framework density 19.696919000000001
#
# number of rings (size 3 to 8) (size 9 to 14) (size 15 to 20)
#    0.400    0.533    4.000    1.200    7.467    4.800 
#    4.800    0.000    0.000    0.000    0.000    0.000 
#    0.000    0.000    0.000    0.000    0.000    0.000 
#
# Total GULP energy -167572.089288 kJ/mol
# GULP energy per Si atom -5585.736310 kJ/mol
# Density = 1.965209 g / cm^3
# Si number density = 19.696919 Si / 1000 Ang^3
#
#
#
# Elastic Constant Matrix: (Units=GPa)
#
#
# Indices 1 2 3 4 5 6 
#
# 1 114.9990 47.5288 53.8963 0.0000 0.0000 0.0000
# 2 47.5288 178.5096 61.6952 0.0000 0.0000 0.0000
# 3 53.8963 61.6952 144.4230 0.0000 0.0000 0.0000
# 4 0.0000 0.0000 0.0000 32.6887 0.0000 0.0000
# 5 0.0000 0.0000 0.0000 0.0000 -11.3762 0.0000
# 6 0.0000 0.0000 0.0000 0.0000 0.0000 13.6544
#
#
#
# Elastic Compliance Matrix: (Units=1/GPa)
#
#
# Indices 1 2 3 4 5 6 
#
# 1 0.010996 -0.001771 -0.003347 0.000000 0.000000 0.000000
# 2 -0.001771 0.006857 -0.002268 0.000000 0.000000 0.000000
# 3 -0.003347 -0.002268 0.009142 0.000000 0.000000 0.000000
# 4 0.000000 0.000000 0.000000 0.030592 0.000000 0.000000
# 5 0.000000 0.000000 0.000000 0.000000 -0.087903 0.000000
# 6 0.000000 0.000000 0.000000 0.000000 0.000000 0.073237
#
#
# Mechanical properties :
#
#
# Convention : Reuss Voigt Hill
#
# Bulk Modulus (GPa) = 81.81385 84.90801 83.36093
# Shear Modulus (GPa) = 80.94641 25.31413 53.13027
#
# Velocity S-wave (km/s) = 6.41757 3.58883 5.19927
# Velocity P-wave (km/s) = 9.82548 7.77006 8.85759
#
# Compressibility (1/GPa) = 0.01222287
#
# Stress axis : x y z
#
# Youngs Moduli (GPa) = 90.93910 145.82576 109.38222
#
# Poissons Ratio (x) = 0.25826 0.36611
# Poissons Ratio (y) = 0.16105 0.24813
# Poissons Ratio (z) = 0.30438 0.33081
#
# Static dielectric constant tensor:
#      x y z
#    x 1.684130 0.000000 0.000000 
#    y 0.000000 1.759870 0.000000 
#    z 0.000000 0.000000 1.681050 
# 
# From -- ./inp_files/13202.got.cif
#   From: 2010.05.17/outbox.cif.g08.bks.cpg/sg67_7_cif.got.tgz:13202.got - 2010.06.03 18:28:57.
