data_PCOD9504761
_publ_section_title
;
Structure prediction by ZEFSAII (Michael W. Deem and Ramdas Pophale) SiO2 
 PCOD9504761
Probable space group: C M M A
;
_chemical_formula_sum "Si O2"
_cell_formula_units_Z 96
_cell_length_a 28.498714
_cell_length_b 8.429005
_cell_length_c 24.668787
_cell_angle_alpha 90.000000
_cell_angle_beta 90.000000
_cell_angle_gamma 90.000000
_cell_volume 5925.832473
_symmetry_space_group_name_H-M "C M M A"
_symmetry_group_IT_number 67
_symmetry_cell_setting 'orthorhombic'
loop_
_space_group_symop_operation_xyz
x,y,z
-x,1/2-y,z
x,-y,-z
-x,1/2+y,-z
-x,-y,-z
x,1/2+y,-z
-x,y,z
x,1/2-y,z
1/2+x,1/2+y,z
1/2-x,-y,z
1/2+x,1/2-y,-z
1/2-x,y,-z
1/2-x,1/2-y,-z
1/2+x,y,-z
1/2-x,1/2+y,z
1/2+x,-y,z
loop_
_atom_site_type_symbol
_atom_site_label
_atom_site_fract_x
_atom_site_fract_y
_atom_site_fract_z
Si Si1 0.054352 0.558419 0.940815
Si Si2 0.105784 0.443502 0.166716
Si Si3 0.802714 0.438062 0.559358
Si Si4 0.947202 0.943427 0.724192
Si Si5 0.802097 0.058835 0.227023
Si Si6 0.354820 0.558310 0.336232
O O1 0.054921 0.750000 0.940806
O O2 0.086282 0.501937 0.890979
O O3 0.000000 0.508482 0.932533
O O4 0.069422 0.500000 0.000000
O O5 0.105889 0.250000 0.165778
O O6 0.071238 0.489388 0.216039
O O7 0.158010 0.493974 0.184314
O O8 0.816832 0.500000 0.500000
O O9 0.800921 0.250000 0.557655
O O10 0.750000 0.500000 0.570317
O O11 0.836569 0.493661 0.607197
O O12 0.947821 0.750000 0.723637
O O13 0.907145 0.992265 0.681613
O O14 0.000000 0.999120 0.713906
O O15 0.801909 0.250000 0.226719
O O16 0.820522 0.009180 0.286702
O O17 0.750000 0.000000 0.216288
O O18 0.354149 0.750000 0.338225
#
# Coordination Sequence:
#
# PCOD9504761 Si02
#       6
#    16  16  16  16  16  16
#     4   9  16  26  42  63  86 111 139 173 213 257
#     4   8  14  25  41  62  87 114 144 177 214 256
#     4  11  21  33  49  68  91 118 148 181 218 259
#     4   8  13  23  43  69  92 115 146 182 216 253
#     4   9  17  28  43  63  87 114 143 177 214 255
#     4   9  17  29  45  68  95 118 143 177 217 260
#
# _framework density 16.200256
#
# number of rings (size 3 to 8) (size 9 to 14) (size 15 to 20)
#    0.000    3.000    0.000    5.000    0.000    4.000 
#    0.000    0.833    0.000    2.500    0.000    3.500 
#    0.000    0.000    0.000    0.000    0.000    0.000 
#
# Total GULP energy -267445.215921 kJ/mol
# GULP energy per Si atom -5571.775332 kJ/mol
# Density = 1.616338 g / cm^3
# Si number density = 16.200256 Si / 1000 Ang^3
#
#
#
# Elastic Constant Matrix: (Units=GPa)
#
#
# Indices 1 2 3 4 5 6 
#
# 1 141.8012 21.9151 100.6324 0.0000 0.0000 0.0000
# 2 21.9151 21.1788 26.9592 0.0000 0.0000 0.0000
# 3 100.6324 26.9592 158.9764 0.0000 0.0000 0.0000
# 4 0.0000 0.0000 0.0000 18.4757 0.0000 0.0000
# 5 0.0000 0.0000 0.0000 0.0000 23.6510 0.0000
# 6 0.0000 0.0000 0.0000 0.0000 0.0000 14.8041
#
#
#
# Elastic Compliance Matrix: (Units=1/GPa)
#
#
# Indices 1 2 3 4 5 6 
#
# 1 0.013040 -0.003808 -0.007609 0.000000 0.000000 0.000000
# 2 -0.003808 0.061328 -0.007989 0.000000 0.000000 0.000000
# 3 -0.007609 -0.007989 0.012461 0.000000 0.000000 0.000000
# 4 0.000000 0.000000 0.000000 0.054125 0.000000 0.000000
# 5 0.000000 0.000000 0.000000 0.000000 0.042282 0.000000
# 6 0.000000 0.000000 0.000000 0.000000 0.000000 0.067549
#
#
# Mechanical properties :
#
#
# Convention : Reuss Voigt Hill
#
# Bulk Modulus (GPa) = 20.82607 68.99664 44.91135
# Shear Modulus (GPa) = 16.36106 22.88279 19.62193
#
# Velocity S-wave (km/s) = 3.18138 3.76240 3.48402
# Velocity P-wave (km/s) = 5.13597 7.84579 6.63079
#
# Compressibility (1/GPa) = 0.04801675
#
# Stress axis : x y z
#
# Youngs Moduli (GPa) = 76.68431 16.30587 80.24732
#
# Poissons Ratio (x) = 0.06210 0.61059
# Poissons Ratio (y) = 0.29204 0.64112
# Poissons Ratio (z) = 0.58348 0.13027
#
# Static dielectric constant tensor:
#      x y z
#    x 1.542380 0.000000 0.000000 
#    y 0.000000 1.566140 0.000000 
#    z 0.000000 0.000000 1.533820 
# 
# From -- ./inp_files/40946.got.cif
#   From: 2010.05.17/outbox.cif.g08.bks.cpg/sg67_21_cif.got.tgz:40946.got - 2010.06.03 18:28:57.
