data_PCOD9504096
_publ_section_title
;
Structure prediction by ZEFSAII (Michael W. Deem and Ramdas Pophale) SiO2 
 PCOD9504096
Probable space group: C M M A
;
_chemical_formula_sum "Si O2"
_cell_formula_units_Z 112
_cell_length_a 16.285646
_cell_length_b 28.730374
_cell_length_c 11.249765
_cell_angle_alpha 90.000000
_cell_angle_beta 90.000000
_cell_angle_gamma 90.000000
_cell_volume 5263.682925
_symmetry_space_group_name_H-M "C M M A"
_symmetry_group_IT_number 67
_symmetry_cell_setting 'orthorhombic'
loop_
_space_group_symop_operation_xyz
x,y,z
-x,1/2-y,z
x,-y,-z
-x,1/2+y,-z
-x,-y,-z
x,1/2+y,-z
-x,y,z
x,1/2-y,z
1/2+x,1/2+y,z
1/2-x,-y,z
1/2+x,1/2-y,-z
1/2-x,y,-z
1/2-x,1/2-y,-z
1/2+x,y,-z
1/2-x,1/2+y,z
1/2+x,-y,z
loop_
_atom_site_type_symbol
_atom_site_label
_atom_site_fract_x
_atom_site_fract_y
_atom_site_fract_z
Si Si1 0.834936 0.198628 0.071567
Si Si2 0.338286 0.105908 0.539597
Si Si3 0.402873 0.483776 0.631610
Si Si4 0.159816 0.977990 0.118674
Si Si5 0.773825 0.301228 0.340670
Si Si6 0.908359 0.381334 0.922967
Si Si7 0.591467 0.337722 0.337609
O O1 0.873407 0.250000 0.050780
O O2 0.806792 0.195627 0.207024
O O3 0.750000 0.197135 0.000000
O O4 0.887473 0.155477 0.025333
O O5 0.250000 0.086290 0.500000
O O6 0.377701 0.070490 0.631990
O O7 0.316690 0.156020 0.594219
O O8 0.393798 0.117960 0.425142
O O9 0.372383 0.500000 0.500000
O O10 0.500000 0.488197 0.629038
O O11 0.374713 0.510220 0.750432
O O12 0.155654 0.923081 0.093556
O O13 0.250000 0.000000 0.122080
O O14 0.118309 0.000000 0.000000
O O15 0.796274 0.250000 0.385881
O O16 0.674961 0.307624 0.347482
O O17 0.908764 0.354101 0.798358
O O18 0.000000 0.401108 0.940537
O O19 0.500000 0.318023 0.364177
#
# Coordination Sequence:
#
# PCOD9504096 Si02
#       7
#    16  16  16  16  16  16  16
#     4  10  21  39  67  95 127 170 218 267 324 399
#     4  10  23  38  65  95 127 173 221 270 320 397
#     4  11  25  44  68  98 134 171 221 282 340 400
#     4  11  28  43  66  99 134 178 224 276 332 410
#     4  10  22  40  62  93 130 169 217 268 322 390
#     4  11  24  42  67  95 132 168 212 277 336 387
#     4  10  21  38  62  93 127 165 214 270 331 386
#
# _framework density 21.277878000000001
#
# number of rings (size 3 to 8) (size 9 to 14) (size 15 to 20)
#    0.000    1.571    1.429    1.714   10.000    6.571 
#    0.000    2.143    0.000    3.000    0.000    0.000 
#    0.000    0.000    0.000    0.000    0.000    0.000 
#
# Total GULP energy -312489.966875 kJ/mol
# GULP energy per Si atom -5580.177980 kJ/mol
# Density = 2.122945 g / cm^3
# Si number density = 21.277878 Si / 1000 Ang^3
#
#
#
# Elastic Constant Matrix: (Units=GPa)
#
#
# Indices 1 2 3 4 5 6 
#
# 1 75.0183 36.8746 26.4562 0.0000 0.0000 0.0000
# 2 36.8746 113.4564 42.8360 0.0000 0.0000 0.0000
# 3 26.4562 42.8360 128.8008 0.0000 0.0000 0.0000
# 4 0.0000 0.0000 0.0000 32.7837 0.0000 0.0000
# 5 0.0000 0.0000 0.0000 0.0000 12.5281 0.0000
# 6 0.0000 0.0000 0.0000 0.0000 0.0000 -13.5036
#
#
#
# Elastic Compliance Matrix: (Units=1/GPa)
#
#
# Indices 1 2 3 4 5 6 
#
# 1 0.016224 -0.004591 -0.001805 0.000000 0.000000 0.000000
# 2 -0.004591 0.011379 -0.002841 0.000000 0.000000 0.000000
# 3 -0.001805 -0.002841 0.009080 0.000000 0.000000 0.000000
# 4 0.000000 0.000000 0.000000 0.030503 0.000000 0.000000
# 5 0.000000 0.000000 0.000000 0.000000 0.079820 0.000000
# 6 0.000000 0.000000 0.000000 0.000000 0.000000 -0.074055
#
#
# Mechanical properties :
#
#
# Convention : Reuss Voigt Hill
#
# Bulk Modulus (GPa) = 54.92609 58.84547 56.88578
# Shear Modulus (GPa) = 51.28436 20.43556 35.85996
#
# Velocity S-wave (km/s) = 4.91472 3.10242 4.10971
# Velocity P-wave (km/s) = 7.62075 6.36781 7.02228
#
# Compressibility (1/GPa) = 0.01820628
#
# Stress axis : x y z
#
# Youngs Moduli (GPa) = 61.63869 87.88204 110.13546
#
# Poissons Ratio (x) = 0.40348 0.19885
# Poissons Ratio (y) = 0.28299 0.31293
# Poissons Ratio (z) = 0.11129 0.24970
#
# Static dielectric constant tensor:
#      x y z
#    x 1.777850 0.000000 0.000000 
#    y 0.000000 1.800380 0.000000 
#    z 0.000000 0.000000 1.853630 
# 
# From -- ./inp_files/18591.got.cif
#   From: 2010.05.17/outbox.cif.g08.bks.cpg/sg67_10_cif.got.tgz:18591.got - 2010.06.03 18:28:57.
