data_PCOD9504165
_publ_section_title
;
Structure prediction by ZEFSAII (Michael W. Deem and Ramdas Pophale) SiO2 
 PCOD9504165
Probable space group: C M M A
;
_chemical_formula_sum "Si O2"
_cell_formula_units_Z 68
_cell_length_a 9.193483
_cell_length_b 15.322237
_cell_length_c 22.956000
_cell_angle_alpha 90.000000
_cell_angle_beta 90.000000
_cell_angle_gamma 90.000000
_cell_volume 3233.690636
_symmetry_space_group_name_H-M "C M M A"
_symmetry_group_IT_number 67
_symmetry_cell_setting 'orthorhombic'
loop_
_space_group_symop_operation_xyz
x,y,z
-x,1/2-y,z
x,-y,-z
-x,1/2+y,-z
-x,-y,-z
x,1/2+y,-z
-x,y,z
x,1/2-y,z
1/2+x,1/2+y,z
1/2-x,-y,z
1/2+x,1/2-y,-z
1/2-x,y,-z
1/2-x,1/2-y,-z
1/2+x,y,-z
1/2-x,1/2+y,z
1/2+x,-y,z
loop_
_atom_site_type_symbol
_atom_site_label
_atom_site_fract_x
_atom_site_fract_y
_atom_site_fract_z
Si Si1 0.326246 0.092080 0.665254
Si Si2 0.250000 0.000000 0.000000
Si Si3 0.671244 0.650448 0.909120
Si Si4 0.333661 0.145371 0.218341
Si Si5 0.837321 0.148321 0.554206
O O1 0.500000 0.090431 0.663273
O O2 0.268861 0.120897 0.728475
O O3 0.258046 0.146515 0.612531
O O4 0.250000 0.000000 0.655095
O O5 0.315750 0.927684 0.955401
O O6 0.500000 0.661140 0.899552
O O7 0.726533 0.750000 0.924748
O O8 0.728615 0.621802 0.845522
O O9 0.500000 0.110846 0.226895
O O10 0.344135 0.250000 0.217212
O O11 0.857288 0.250000 0.540025
O O12 0.750000 0.107728 0.500000
O O13 0.000000 0.110436 0.562769
#
# Coordination Sequence:
#
# PCOD9504165 Si02
#       5
#    16   4  16  16  16
#     4  12  25  39  58  87 121 157 200 250 306 365
#     4  12  20  32  60  96 120 160 214 260 306 362
#     4   9  20  38  58  84 122 165 207 255 315 379
#     4   9  19  39  63  84 114 159 204 249 307 370
#     4  10  21  39  63  90 121 159 202 248 300 359
#
# _framework density 21.028603
#
# number of rings (size 3 to 8) (size 9 to 14) (size 15 to 20)
#    0.000    1.882    0.000    5.647    1.647    5.176 
#    0.000    3.529    0.000    2.824    0.000    0.000 
#    0.000    0.000    0.000    0.000    0.000    0.000 
#
# Total GULP energy -189334.713919 kJ/mol
# GULP energy per Si atom -5568.668056 kJ/mol
# Density = 2.098074 g / cm^3
# Si number density = 21.028603 Si / 1000 Ang^3
#
#
#
# Elastic Constant Matrix: (Units=GPa)
#
#
# Indices 1 2 3 4 5 6 
#
# 1 143.0705 23.7979 75.9854 0.0000 0.0000 0.0000
# 2 23.7979 71.0853 32.0213 0.0000 0.0000 0.0000
# 3 75.9854 32.0213 137.1792 0.0000 0.0000 0.0000
# 4 0.0000 0.0000 0.0000 27.7664 0.0000 0.0000
# 5 0.0000 0.0000 0.0000 0.0000 18.8924 0.0000
# 6 0.0000 0.0000 0.0000 0.0000 0.0000 20.6296
#
#
#
# Elastic Compliance Matrix: (Units=1/GPa)
#
#
# Indices 1 2 3 4 5 6 
#
# 1 0.009960 -0.000949 -0.005295 0.000000 0.000000 0.000000
# 2 -0.000949 0.015811 -0.003165 0.000000 0.000000 0.000000
# 3 -0.005295 -0.003165 0.010962 0.000000 0.000000 0.000000
# 4 0.000000 0.000000 0.000000 0.036015 0.000000 0.000000
# 5 0.000000 0.000000 0.000000 0.000000 0.052931 0.000000
# 6 0.000000 0.000000 0.000000 0.000000 0.000000 0.048474
#
#
# Mechanical properties :
#
#
# Convention : Reuss Voigt Hill
#
# Bulk Modulus (GPa) = 55.82299 68.32713 62.07506
# Shear Modulus (GPa) = 25.13283 28.09302 26.61293
#
# Velocity S-wave (km/s) = 3.46088 3.65902 3.56133
# Velocity P-wave (km/s) = 6.52488 7.10030 6.81866
#
# Compressibility (1/GPa) = 0.01791377
#
# Stress axis : x y z
#
# Youngs Moduli (GPa) = 100.40373 63.24690 91.22661
#
# Poissons Ratio (x) = 0.06002 0.48308
# Poissons Ratio (y) = 0.09528 0.28874
# Poissons Ratio (z) = 0.53167 0.20018
#
# Static dielectric constant tensor:
#      x y z
#    x 1.745710 0.000000 0.000000 
#    y 0.000000 1.861780 0.000000 
#    z 0.000000 0.000000 1.870980 
# 
# From -- ./inp_files/36646.got.cif
#   From: 2010.05.17/outbox.cif.g08.bks.cpg/sg67_19_cif.got.tgz:36646.got - 2010.06.03 18:28:57.
