data_PCOD9504295
_publ_section_title
;
Structure prediction by ZEFSAII (Michael W. Deem and Ramdas Pophale) SiO2 
 PCOD9504295
Probable space group: C M M A
;
_chemical_formula_sum "Si O2"
_cell_formula_units_Z 96
_cell_length_a 28.550587
_cell_length_b 20.407190
_cell_length_c 9.008564
_cell_angle_alpha 90.000000
_cell_angle_beta 90.000000
_cell_angle_gamma 90.000000
_cell_volume 5248.724987
_symmetry_space_group_name_H-M "C M M A"
_symmetry_group_IT_number 67
_symmetry_cell_setting 'orthorhombic'
loop_
_space_group_symop_operation_xyz
x,y,z
-x,1/2-y,z
x,-y,-z
-x,1/2+y,-z
-x,-y,-z
x,1/2+y,-z
-x,y,z
x,1/2-y,z
1/2+x,1/2+y,z
1/2-x,-y,z
1/2+x,1/2-y,-z
1/2-x,y,-z
1/2-x,1/2-y,-z
1/2+x,y,-z
1/2-x,1/2+y,z
1/2+x,-y,z
loop_
_atom_site_type_symbol
_atom_site_label
_atom_site_fract_x
_atom_site_fract_y
_atom_site_fract_z
Si Si1 0.703013 0.375705 0.583743
Si Si2 0.865638 0.445502 0.204425
Si Si3 0.883922 0.826839 0.389056
Si Si4 0.265442 0.820516 0.829734
Si Si5 0.055249 0.428305 0.426097
Si Si6 0.648714 0.904064 0.876637
O O1 0.750000 0.398601 0.500000
O O2 0.673215 0.429701 0.671300
O O3 0.666019 0.341740 0.472125
O O4 0.723724 0.328969 0.712874
O O5 0.915745 0.428314 0.273519
O O6 0.862915 0.522262 0.170255
O O7 0.856181 0.404519 0.054375
O O8 0.893755 0.750000 0.397450
O O9 0.921785 0.871771 0.473479
O O10 0.881475 0.853546 0.220475
O O11 0.289349 0.750000 0.796781
O O12 0.299165 0.883020 0.828894
O O13 0.250000 0.817438 0.000000
O O14 0.063219 0.500000 0.500000
O O15 0.000000 0.419228 0.407533
#
# Coordination Sequence:
#
# PCOD9504295 Si02
#       6
#    16  16  16  16  16  16
#     4  11  22  37  56  84 120 162 209 251 293 353
#     4  10  23  40  58  87 123 155 202 250 306 363
#     4  11  23  39  63  92 122 158 203 255 304 355
#     4  11  22  37  53  78 119 170 212 245 295 356
#     4  10  21  43  69  92 119 153 195 247 307 372
#     4  11  21  39  57  84 125 158 201 253 299 356
#
# _framework density 18.290157000000001
#
# number of rings (size 3 to 8) (size 9 to 14) (size 15 to 20)
#    0.000    1.333    5.000    1.000    0.000    1.667 
#    3.000    3.333    0.000    0.000    0.000    0.000 
#    0.000    0.000    0.000    0.000    0.000    0.000 
#
# Total GULP energy -267688.215371 kJ/mol
# GULP energy per Si atom -5576.837820 kJ/mol
# Density = 1.824853 g / cm^3
# Si number density = 18.290157 Si / 1000 Ang^3
#
#
#
# Elastic Constant Matrix: (Units=GPa)
#
#
# Indices 1 2 3 4 5 6 
#
# 1 107.7557 48.5152 45.6549 0.0000 0.0000 0.0000
# 2 48.5152 99.3498 44.1894 0.0000 0.0000 0.0000
# 3 45.6549 44.1894 110.4274 0.0000 0.0000 0.0000
# 4 0.0000 0.0000 0.0000 8.8873 0.0000 0.0000
# 5 0.0000 0.0000 0.0000 0.0000 17.3805 0.0000
# 6 0.0000 0.0000 0.0000 0.0000 0.0000 17.8785
#
#
#
# Elastic Compliance Matrix: (Units=1/GPa)
#
#
# Indices 1 2 3 4 5 6 
#
# 1 0.012874 -0.004768 -0.003415 0.000000 0.000000 0.000000
# 2 -0.004768 0.014011 -0.003635 0.000000 0.000000 0.000000
# 3 -0.003415 -0.003635 0.011922 0.000000 0.000000 0.000000
# 4 0.000000 0.000000 0.000000 0.112520 0.000000 0.000000
# 5 0.000000 0.000000 0.000000 0.000000 0.057536 0.000000
# 6 0.000000 0.000000 0.000000 0.000000 0.000000 0.055933
#
#
# Mechanical properties :
#
#
# Convention : Reuss Voigt Hill
#
# Bulk Modulus (GPa) = 65.91532 66.02800 65.97166
# Shear Modulus (GPa) = 17.03651 20.77415 18.90533
#
# Velocity S-wave (km/s) = 3.05529 3.37383 3.21851
# Velocity P-wave (km/s) = 6.96874 7.16629 7.06820
#
# Compressibility (1/GPa) = 0.01517098
#
# Stress axis : x y z
#
# Youngs Moduli (GPa) = 77.67860 71.37412 83.87715
#
# Poissons Ratio (x) = 0.34030 0.28640
# Poissons Ratio (y) = 0.37035 0.30493
# Poissons Ratio (z) = 0.26523 0.25948
#
# Static dielectric constant tensor:
#      x y z
#    x 1.620460 0.000000 0.000000 
#    y 0.000000 1.616180 0.000000 
#    z 0.000000 0.000000 1.660250 
# 
# From -- ./inp_files/13716.got.cif
#   From: 2010.05.17/outbox.cif.g08.bks.cpg/sg67_7_cif.got.tgz:13716.got - 2010.06.03 18:28:57.
