data_PCOD9504071
_publ_section_title
;
Structure prediction by ZEFSAII (Michael W. Deem and Ramdas Pophale) SiO2 
 PCOD9504071
Probable space group: C M M A
;
_chemical_formula_sum "Si O2"
_cell_formula_units_Z 88
_cell_length_a 16.054989
_cell_length_b 9.361729
_cell_length_c 30.358183
_cell_angle_alpha 90.000000
_cell_angle_beta 90.000000
_cell_angle_gamma 90.000000
_cell_volume 4562.909468
_symmetry_space_group_name_H-M "C M M A"
_symmetry_group_IT_number 67
_symmetry_cell_setting 'orthorhombic'
loop_
_space_group_symop_operation_xyz
x,y,z
-x,1/2-y,z
x,-y,-z
-x,1/2+y,-z
-x,-y,-z
x,1/2+y,-z
-x,y,z
x,1/2-y,z
1/2+x,1/2+y,z
1/2-x,-y,z
1/2+x,1/2-y,-z
1/2-x,y,-z
1/2-x,1/2-y,-z
1/2+x,y,-z
1/2-x,1/2+y,z
1/2+x,-y,z
loop_
_atom_site_type_symbol
_atom_site_label
_atom_site_fract_x
_atom_site_fract_y
_atom_site_fract_z
Si Si1 0.167229 0.079591 0.601315
Si Si2 0.398593 0.916832 0.957335
Si Si3 0.000000 0.420941 0.546359
Si Si4 0.097024 0.414771 0.319342
Si Si5 0.334803 0.918868 0.224633
Si Si6 0.600484 0.916098 0.859837
O O1 0.178497 0.250000 0.601176
O O2 0.084305 0.043956 0.573259
O O3 0.250000 0.000000 0.584659
O O4 0.148910 0.021252 0.650401
O O5 0.500000 0.927470 0.957540
O O6 0.378254 0.750000 0.961196
O O7 0.371395 0.965756 0.908602
O O8 0.367130 0.000000 0.000000
O O9 0.000000 0.500000 0.500000
O O10 0.000000 0.250000 0.539890
O O11 0.123098 0.250000 0.327903
O O12 0.107457 0.440328 0.267320
O O13 0.000000 0.428610 0.330732
O O14 0.322177 0.750000 0.218951
O O15 0.250000 0.000000 0.235238
O O16 0.368843 0.987315 0.179876
O O17 0.500000 0.917332 0.859818
O O18 0.626352 0.750000 0.853919
#
# Coordination Sequence:
#
# PCOD9504071 Si02
#       6
#    16  16   8  16  16  16
#     4  11  23  41  64  95 129 166 211 258 307 366
#     4   8  14  25  43  69  99 129 165 211 264 325
#     4  10  24  44  66  94 130 168 214 262 311 366
#     4  10  21  38  61  89 119 153 194 242 296 353
#     4  11  23  37  53  77 109 145 187 232 280 340
#     4   9  18  33  52  75 104 138 176 220 274 333
#
# _framework density 19.285941000000001
#
# number of rings (size 3 to 8) (size 9 to 14) (size 15 to 20)
#    0.000    2.182    0.909    3.273    0.000    6.545 
#    0.000    3.636    0.000    0.545    0.000    3.818 
#    0.000    0.000    0.000    0.000    0.000    0.000 
#
# Total GULP energy -245567.295582 kJ/mol
# GULP energy per Si atom -5581.074900 kJ/mol
# Density = 1.924205 g / cm^3
# Si number density = 19.285941 Si / 1000 Ang^3
#
#
#
# Elastic Constant Matrix: (Units=GPa)
#
#
# Indices 1 2 3 4 5 6 
#
# 1 79.1940 46.8541 40.2251 0.0000 0.0000 0.0000
# 2 46.8541 80.0293 67.7993 0.0000 0.0000 0.0000
# 3 40.2251 67.7993 124.8325 0.0000 0.0000 0.0000
# 4 0.0000 0.0000 0.0000 39.7403 0.0000 0.0000
# 5 0.0000 0.0000 0.0000 0.0000 -0.4573 0.0000
# 6 0.0000 0.0000 0.0000 0.0000 0.0000 27.2077
#
#
#
# Elastic Compliance Matrix: (Units=1/GPa)
#
#
# Indices 1 2 3 4 5 6 
#
# 1 0.019321 -0.011182 -0.000152 0.000000 0.000000 0.000000
# 2 -0.011182 0.029617 -0.012482 0.000000 0.000000 0.000000
# 3 -0.000152 -0.012482 0.014839 0.000000 0.000000 0.000000
# 4 0.000000 0.000000 0.000000 0.025163 0.000000 0.000000
# 5 0.000000 0.000000 0.000000 0.000000 -2.186589 0.000000
# 6 0.000000 0.000000 0.000000 0.000000 0.000000 0.036754
#
#
# Mechanical properties :
#
#
# Convention : Reuss Voigt Hill
#
# Bulk Modulus (GPa) = 61.94732 65.97921 63.96327
# Shear Modulus (GPa) = -2.49019 21.90995 9.70988
#
# Velocity S-wave (km/s) = -1.13754 3.37420 2.24625
# Velocity P-wave (km/s) = 5.51950 7.03318 6.32181
#
# Compressibility (1/GPa) = 0.01614275
#
# Stress axis : x y z
#
# Youngs Moduli (GPa) = 51.75843 33.76417 67.38868
#
# Poissons Ratio (x) = 0.37757 0.01026
# Poissons Ratio (y) = 0.57879 0.84117
# Poissons Ratio (z) = 0.00788 0.42146
#
# Static dielectric constant tensor:
#      x y z
#    x 1.695040 0.000000 0.000000 
#    y 0.000000 1.642720 0.000000 
#    z 0.000000 0.000000 1.676200 
# 
# From -- ./inp_files/45775.got.cif
#   From: 2010.05.17/outbox.cif.g08.bks.cpg/sg67_23_cif.got.tgz:45775.got - 2010.06.03 18:28:57.
