data_PCOD9504205
_publ_section_title
;
Structure prediction by ZEFSAII (Michael W. Deem and Ramdas Pophale) SiO2 
 PCOD9504205
Probable space group: C M M A
;
_chemical_formula_sum "Si O2"
_cell_formula_units_Z 88
_cell_length_a 23.307496
_cell_length_b 21.082624
_cell_length_c 8.839602
_cell_angle_alpha 90.000000
_cell_angle_beta 90.000000
_cell_angle_gamma 90.000000
_cell_volume 4343.631693
_symmetry_space_group_name_H-M "C M M A"
_symmetry_group_IT_number 67
_symmetry_cell_setting 'orthorhombic'
loop_
_space_group_symop_operation_xyz
x,y,z
-x,1/2-y,z
x,-y,-z
-x,1/2+y,-z
-x,-y,-z
x,1/2+y,-z
-x,y,z
x,1/2-y,z
1/2+x,1/2+y,z
1/2-x,-y,z
1/2+x,1/2-y,-z
1/2-x,y,-z
1/2-x,1/2-y,-z
1/2+x,y,-z
1/2-x,1/2+y,z
1/2+x,-y,z
loop_
_atom_site_type_symbol
_atom_site_label
_atom_site_fract_x
_atom_site_fract_y
_atom_site_fract_z
Si Si1 0.160851 0.427793 0.491439
Si Si2 0.286076 0.321435 0.722681
Si Si3 0.170520 0.620309 0.171703
Si Si4 0.854463 0.500000 0.000000
Si Si5 0.064560 0.438898 0.249819
Si Si6 0.600179 0.179431 0.927380
O O1 0.183551 0.500000 0.500000
O O2 0.198909 0.377925 0.394745
O O3 0.155356 0.402999 0.660861
O O4 0.100062 0.431584 0.404152
O O5 0.283424 0.250000 0.656490
O O6 0.227142 0.337649 0.807348
O O7 0.338635 0.320939 0.839959
O O8 0.180724 0.559657 0.062369
O O9 0.117609 0.656624 0.094240
O O10 0.895696 0.519587 0.861553
O O11 0.063490 0.371550 0.163078
O O12 0.000000 0.462948 0.268883
O O13 0.576541 0.250000 0.925703
#
# Coordination Sequence:
#
# PCOD9504205 Si02
#       6
#    16  16  16   8  16  16
#     4  11  23  41  55  90 128 159 204 250 300 360
#     4  10  22  40  62  87 122 169 206 243 300 366
#     4  11  21  36  58  85 122 160 203 242 305 359
#     4  10  21  40  57  88 118 150 200 256 302 356
#     4  10  21  40  64  85 111 154 199 249 310 362
#     4   9  20  39  60  88 118 149 202 256 296 356
#
# _framework density 20.259544000000002
#
# number of rings (size 3 to 8) (size 9 to 14) (size 15 to 20)
#    0.000    1.818    1.818    1.909    0.000    5.818 
#    3.273    0.909    0.000    0.000    0.000    0.000 
#    0.000    0.000    0.000    0.000    0.000    0.000 
#
# Total GULP energy -245736.390571 kJ/mol
# GULP energy per Si atom -5584.917968 kJ/mol
# Density = 2.021343 g / cm^3
# Si number density = 20.259544 Si / 1000 Ang^3
#
#
#
# Elastic Constant Matrix: (Units=GPa)
#
#
# Indices 1 2 3 4 5 6 
#
# 1 81.1837 12.8939 27.9617 0.0000 0.0000 0.0000
# 2 12.8939 133.0744 10.8759 0.0000 0.0000 0.0000
# 3 27.9617 10.8759 74.2539 0.0000 0.0000 0.0000
# 4 0.0000 0.0000 0.0000 26.4983 0.0000 0.0000
# 5 0.0000 0.0000 0.0000 0.0000 6.2773 0.0000
# 6 0.0000 0.0000 0.0000 0.0000 0.0000 5.9798
#
#
#
# Elastic Compliance Matrix: (Units=1/GPa)
#
#
# Indices 1 2 3 4 5 6 
#
# 1 0.014272 -0.000955 -0.005235 0.000000 0.000000 0.000000
# 2 -0.000955 0.007670 -0.000764 0.000000 0.000000 0.000000
# 3 -0.005235 -0.000764 0.015550 0.000000 0.000000 0.000000
# 4 0.000000 0.000000 0.000000 0.037738 0.000000 0.000000
# 5 0.000000 0.000000 0.000000 0.000000 0.159305 0.000000
# 6 0.000000 0.000000 0.000000 0.000000 0.000000 0.167230
#
#
# Mechanical properties :
#
#
# Convention : Reuss Voigt Hill
#
# Bulk Modulus (GPa) = 42.39902 43.55280 42.97591
# Shear Modulus (GPa) = 11.80542 23.53645 17.67093
#
# Velocity S-wave (km/s) = 2.41656 3.41214 2.95655
# Velocity P-wave (km/s) = 5.36280 6.08832 5.73704
#
# Compressibility (1/GPa) = 0.02358545
#
# Stress axis : x y z
#
# Youngs Moduli (GPa) = 70.06547 130.38581 64.30719
#
# Poissons Ratio (x) = 0.12453 0.33662
# Poissons Ratio (y) = 0.06692 0.04911
# Poissons Ratio (z) = 0.36677 0.09958
#
# Static dielectric constant tensor:
#      x y z
#    x 1.700650 0.000000 0.000000 
#    y 0.000000 1.767240 0.000000 
#    z 0.000000 0.000000 1.716440 
# 
# From -- ./inp_files/12438.got.cif
#   From: 2010.05.17/outbox.cif.g08.bks.cpg/sg67_7_cif.got.tgz:12438.got - 2010.06.03 18:28:57.
