data_PCOD9504819
_publ_section_title
;
Structure prediction by ZEFSAII (Michael W. Deem and Ramdas Pophale) SiO2 
 PCOD9504819
Probable space group: C M M A
;
_chemical_formula_sum "Si O2"
_cell_formula_units_Z 72
_cell_length_a 22.798961
_cell_length_b 14.990670
_cell_length_c 9.390277
_cell_angle_alpha 90.000000
_cell_angle_beta 90.000000
_cell_angle_gamma 90.000000
_cell_volume 3209.330940
_symmetry_space_group_name_H-M "C M M A"
_symmetry_group_IT_number 67
_symmetry_cell_setting 'orthorhombic'
loop_
_space_group_symop_operation_xyz
x,y,z
-x,1/2-y,z
x,-y,-z
-x,1/2+y,-z
-x,-y,-z
x,1/2+y,-z
-x,y,z
x,1/2-y,z
1/2+x,1/2+y,z
1/2-x,-y,z
1/2+x,1/2-y,-z
1/2-x,y,-z
1/2-x,1/2-y,-z
1/2+x,y,-z
1/2-x,1/2+y,z
1/2+x,-y,z
loop_
_atom_site_type_symbol
_atom_site_label
_atom_site_fract_x
_atom_site_fract_y
_atom_site_fract_z
Si Si1 0.858012 0.901080 0.300777
Si Si2 0.610202 0.904952 0.261260
Si Si3 0.102645 0.250000 0.472011
Si Si4 0.241588 0.356337 0.164793
Si Si5 0.065858 0.145971 0.971249
O O1 0.873653 0.828156 0.417552
O O2 0.788888 0.902668 0.266462
O O3 0.887876 0.872794 0.151593
O O4 0.882615 0.998945 0.331671
O O5 0.583471 0.829020 0.359572
O O6 0.675952 0.872947 0.218101
O O7 0.576403 0.911464 0.111784
O O8 0.253010 0.250000 0.170800
O O9 0.250000 0.384741 0.000000
O O10 0.072699 0.250000 0.013325
O O11 0.000000 0.133899 0.915066
#
# Coordination Sequence:
#
# PCOD9504819 Si02
#       5
#    16  16   8  16  16
#     4  12  25  43  70 101 133 177 224 272 331 393
#     4  12  25  43  70 101 133 177 224 272 331 393
#     4  12  26  47  63  96 144 184 213 271 328 404
#     4  11  21  39  68  98 138 172 217 275 331 388
#     4  11  23  46  75 101 131 169 222 286 337 384
#
# _framework density 22.434583
#
# number of rings (size 3 to 8) (size 9 to 14) (size 15 to 20)
#    0.000    0.444    6.667    2.000    0.000    4.444 
#    0.000    4.444    0.000    2.667    0.000    0.000 
#    0.000    0.000    0.000    0.000    0.000    0.000 
#
# Total GULP energy -200479.470015 kJ/mol
# GULP energy per Si atom -5568.874167 kJ/mol
# Density = 2.238352 g / cm^3
# Si number density = 22.434583 Si / 1000 Ang^3
#
#
#
# Elastic Constant Matrix: (Units=GPa)
#
#
# Indices 1 2 3 4 5 6 
#
# 1 50.4728 -11.3761 -10.9892 0.0000 0.0000 0.0000
# 2 -11.3761 141.8717 -7.9309 0.0000 0.0000 0.0000
# 3 -10.9892 -7.9309 56.3167 0.0000 0.0000 0.0000
# 4 0.0000 0.0000 0.0000 20.2676 0.0000 0.0000
# 5 0.0000 0.0000 0.0000 0.0000 123.8728 0.0000
# 6 0.0000 0.0000 0.0000 0.0000 0.0000 13.7159
#
#
#
# Elastic Compliance Matrix: (Units=1/GPa)
#
#
# Indices 1 2 3 4 5 6 
#
# 1 0.021213 0.001948 0.004414 0.000000 0.000000 0.000000
# 2 0.001948 0.007283 0.001406 0.000000 0.000000 0.000000
# 3 0.004414 0.001406 0.018816 0.000000 0.000000 0.000000
# 4 0.000000 0.000000 0.000000 0.049340 0.000000 0.000000
# 5 0.000000 0.000000 0.000000 0.000000 0.008073 0.000000
# 6 0.000000 0.000000 0.000000 0.000000 0.000000 0.072908
#
#
# Mechanical properties :
#
#
# Convention : Reuss Voigt Hill
#
# Bulk Modulus (GPa) = 15.91197 20.89654 18.40426
# Shear Modulus (GPa) = 27.31534 50.16841 38.74188
#
# Velocity S-wave (km/s) = 3.49313 4.73399 4.16009
# Velocity P-wave (km/s) = 4.83501 6.26223 5.59432
#
# Compressibility (1/GPa) = 0.06284577
#
# Stress axis : x y z
#
# Youngs Moduli (GPa) = 47.14187 137.29889 53.14650
#
# Poissons Ratio (x) = -0.26741 -0.23456
# Poissons Ratio (y) = -0.09182 -0.07471
# Poissons Ratio (z) = -0.20806 -0.19301
#
# Static dielectric constant tensor:
#      x y z
#    x 1.815450 0.000000 0.000000 
#    y 0.000000 1.836090 0.000000 
#    z 0.000000 0.000000 1.805750 
# 
# From -- ./inp_files/8293.got.cif
#   From: 2010.05.17/outbox.cif.g08.bks.cpg/sg67_5_cif.got.tgz:8293.got - 2010.06.03 18:28:57.
