data_PCOD9504492
_publ_section_title
;
Structure prediction by ZEFSAII (Michael W. Deem and Ramdas Pophale) SiO2 
 PCOD9504492
Probable space group: C M M A
;
_chemical_formula_sum "Si O2"
_cell_formula_units_Z 68
_cell_length_a 18.779528
_cell_length_b 15.266706
_cell_length_c 12.487565
_cell_angle_alpha 90.000000
_cell_angle_beta 90.000000
_cell_angle_gamma 90.000000
_cell_volume 3580.204026
_symmetry_space_group_name_H-M "C M M A"
_symmetry_group_IT_number 67
_symmetry_cell_setting 'orthorhombic'
loop_
_space_group_symop_operation_xyz
x,y,z
-x,1/2-y,z
x,-y,-z
-x,1/2+y,-z
-x,-y,-z
x,1/2+y,-z
-x,y,z
x,1/2-y,z
1/2+x,1/2+y,z
1/2-x,-y,z
1/2+x,1/2-y,-z
1/2-x,y,-z
1/2-x,1/2-y,-z
1/2+x,y,-z
1/2-x,1/2+y,z
1/2+x,-y,z
loop_
_atom_site_type_symbol
_atom_site_label
_atom_site_fract_x
_atom_site_fract_y
_atom_site_fract_z
Si Si1 0.500000 0.354498 0.288409
Si Si2 0.500000 0.598596 0.959837
Si Si3 0.656011 0.350555 0.380363
Si Si4 0.262241 0.903427 0.821522
Si Si5 0.750000 0.500000 0.500000
Si Si6 0.153077 0.348078 0.015895
O O1 0.500000 0.250000 0.268768
O O2 0.500000 0.396234 0.169600
O O3 0.573457 0.373328 0.352053
O O4 0.430245 0.642616 0.007942
O O5 0.500000 0.500000 0.000000
O O6 0.658411 0.250000 0.425949
O O7 0.698298 0.348224 0.267648
O O8 0.695869 0.428950 0.443761
O O9 0.313181 0.909973 0.925328
O O10 0.250000 0.000000 0.777283
O O11 0.188987 0.866915 0.870289
O O12 0.173098 0.250000 0.982570
#
# Coordination Sequence:
#
# PCOD9504492 Si02
#       6
#     8   8  16  16   4  16
#     4  10  22  41  65  88 117 160 204 253 305 360
#     4  12  22  32  51  82 121 162 200 242 284 347
#     4  11  23  43  67  92 122 157 203 256 310 369
#     4  11  20  35  56  84 118 156 198 241 292 351
#     4  12  26  42  68  96 120 150 198 260 324 382
#     4  11  21  33  52  82 118 161 202 242 288 347
#
# _framework density 18.993331000000001
#
# number of rings (size 3 to 8) (size 9 to 14) (size 15 to 20)
#    0.000    0.941    3.529    7.059    0.000    0.471 
#    0.000    0.000    0.000    0.000    0.000    4.941 
#    0.000    0.000    0.000    0.000    0.000    0.000 
#
# Total GULP energy -189526.331684 kJ/mol
# GULP energy per Si atom -5574.303873 kJ/mol
# Density = 1.895010 g / cm^3
# Si number density = 18.993331 Si / 1000 Ang^3
#
#
#
# Elastic Constant Matrix: (Units=GPa)
#
#
# Indices 1 2 3 4 5 6 
#
# 1 184.9208 52.8071 53.3123 0.0000 0.0000 0.0000
# 2 52.8071 113.9063 39.2428 0.0000 0.0000 0.0000
# 3 53.3123 39.2428 60.0132 0.0000 0.0000 0.0000
# 4 0.0000 0.0000 0.0000 26.9583 0.0000 0.0000
# 5 0.0000 0.0000 0.0000 0.0000 20.3127 0.0000
# 6 0.0000 0.0000 0.0000 0.0000 0.0000 29.2457
#
#
#
# Elastic Compliance Matrix: (Units=1/GPa)
#
#
# Indices 1 2 3 4 5 6 
#
# 1 0.007468 -0.001519 -0.005641 0.000000 0.000000 0.000000
# 2 -0.001519 0.011641 -0.006263 0.000000 0.000000 0.000000
# 3 -0.005641 -0.006263 0.025769 0.000000 0.000000 0.000000
# 4 0.000000 0.000000 0.000000 0.037094 0.000000 0.000000
# 5 0.000000 0.000000 0.000000 0.000000 0.049230 0.000000
# 6 0.000000 0.000000 0.000000 0.000000 0.000000 0.034193
#
#
# Mechanical properties :
#
#
# Convention : Reuss Voigt Hill
#
# Bulk Modulus (GPa) = 55.45357 72.17387 63.81372
# Shear Modulus (GPa) = 25.22055 29.53521 27.37788
#
# Velocity S-wave (km/s) = 3.64794 3.94767 3.80076
# Velocity P-wave (km/s) = 6.85587 7.67208 7.27543
#
# Compressibility (1/GPa) = 0.01803311
#
# Stress axis : x y z
#
# Youngs Moduli (GPa) = 133.91152 85.90412 38.80594
#
# Poissons Ratio (x) = 0.13046 0.21889
# Poissons Ratio (y) = 0.20337 0.24304
# Poissons Ratio (z) = 0.75536 0.53801
#
# Static dielectric constant tensor:
#      x y z
#    x 1.629960 0.000000 0.000000 
#    y 0.000000 1.729190 0.000000 
#    z 0.000000 0.000000 1.653060 
# 
# From -- ./inp_files/20450.got.cif
#   From: 2010.05.17/outbox.cif.g08.bks.cpg/sg67_11_cif.got.tgz:20450.got - 2010.06.03 18:28:57.
