data_PCOD9504174
_publ_section_title
;
Structure prediction by ZEFSAII (Michael W. Deem and Ramdas Pophale) SiO2 
 PCOD9504174
Probable space group: C M M A
;
_chemical_formula_sum "Si O2"
_cell_formula_units_Z 60
_cell_length_a 10.538571
_cell_length_b 9.431734
_cell_length_c 31.221524
_cell_angle_alpha 90.000000
_cell_angle_beta 90.000000
_cell_angle_gamma 90.000000
_cell_volume 3103.325771
_symmetry_space_group_name_H-M "C M M A"
_symmetry_group_IT_number 67
_symmetry_cell_setting 'orthorhombic'
loop_
_space_group_symop_operation_xyz
x,y,z
-x,1/2-y,z
x,-y,-z
-x,1/2+y,-z
-x,-y,-z
x,1/2+y,-z
-x,y,z
x,1/2-y,z
1/2+x,1/2+y,z
1/2-x,-y,z
1/2+x,1/2-y,-z
1/2-x,y,-z
1/2-x,1/2-y,-z
1/2+x,y,-z
1/2-x,1/2+y,z
1/2+x,-y,z
loop_
_atom_site_type_symbol
_atom_site_label
_atom_site_fract_x
_atom_site_fract_y
_atom_site_fract_z
Si Si1 0.856477 0.250000 0.943149
Si Si2 0.750000 0.500000 0.000000
Si Si3 0.750000 0.000000 0.186500
Si Si4 0.847262 0.250000 0.658463
Si Si5 0.856807 0.250000 0.129698
Si Si6 0.148062 0.250000 0.755086
Si Si7 0.750000 0.500000 0.400872
Si Si8 0.500000 0.582659 0.455328
O O1 0.832612 0.391723 0.971276
O O2 0.750708 0.250000 0.906423
O O3 0.000000 0.250000 0.926293
O O4 0.834603 0.105997 0.157311
O O5 0.680695 0.111387 0.217351
O O6 0.795191 0.250000 0.707224
O O7 0.798283 0.380292 0.631051
O O8 0.000000 0.250000 0.658999
O O9 0.000000 0.250000 0.112455
O O10 0.000000 0.250000 0.748660
O O11 0.628701 0.544680 0.429458
O O12 0.500000 0.750000 0.463399
O O13 0.500000 0.500000 0.500000
#
# Coordination Sequence:
#
# PCOD9504174 Si02
#       8
#     8   4   8   8   8   8   8   8
#     4  11  24  42  65  94 123 171 215 267 321 385
#     4  10  24  42  64  90 130 162 218 272 322 372
#     4  10  22  40  62  90 126 168 208 260 310 378
#     4  11  23  40  67  96 128 167 206 261 314 380
#     4  11  24  40  63  93 130 166 212 262 321 377
#     4  10  21  39  63  92 124 163 210 252 316 373
#     4  12  24  44  66  96 130 164 212 260 316 370
#     4  12  28  44  68  96 128 170 214 262 314 376
#
# _framework density 19.334095000000001
#
# number of rings (size 3 to 8) (size 9 to 14) (size 15 to 20)
#    0.000    1.067    2.667    3.200    1.867    9.600 
#    0.000    0.000    2.933    0.000    0.000    0.000 
#    0.000    0.000    0.000    0.000    0.000    0.000 
#
# Total GULP energy -167512.296532 kJ/mol
# GULP energy per Si atom -5583.743218 kJ/mol
# Density = 1.929009 g / cm^3
# Si number density = 19.334095 Si / 1000 Ang^3
#
#
#
# Elastic Constant Matrix: (Units=GPa)
#
#
# Indices 1 2 3 4 5 6 
#
# 1 154.9464 57.9692 77.6770 0.0000 0.0000 0.0000
# 2 57.9692 179.3839 76.8111 0.0000 0.0000 0.0000
# 3 77.6770 76.8111 144.8786 0.0000 0.0000 0.0000
# 4 0.0000 0.0000 0.0000 30.4610 0.0000 0.0000
# 5 0.0000 0.0000 0.0000 0.0000 30.6177 0.0000
# 6 0.0000 0.0000 0.0000 0.0000 0.0000 12.9283
#
#
#
# Elastic Compliance Matrix: (Units=1/GPa)
#
#
# Indices 1 2 3 4 5 6 
#
# 1 0.008987 -0.001088 -0.004242 0.000000 0.000000 0.000000
# 2 -0.001088 0.007344 -0.003310 0.000000 0.000000 0.000000
# 3 -0.004242 -0.003310 0.010931 0.000000 0.000000 0.000000
# 4 0.000000 0.000000 0.000000 0.032829 0.000000 0.000000
# 5 0.000000 0.000000 0.000000 0.000000 0.032661 0.000000
# 6 0.000000 0.000000 0.000000 0.000000 0.000000 0.077350
#
#
# Mechanical properties :
#
#
# Convention : Reuss Voigt Hill
#
# Bulk Modulus (GPa) = 100.17270 100.45817 100.31543
# Shear Modulus (GPa) = 26.21797 32.58484 29.40140
#
# Velocity S-wave (km/s) = 3.68645 4.10976 3.90385
# Velocity P-wave (km/s) = 8.36922 8.63667 8.50400
#
# Compressibility (1/GPa) = 0.00998276
#
# Stress axis : x y z
#
# Youngs Moduli (GPa) = 111.26746 136.17334 91.47919
#
# Poissons Ratio (x) = 0.14816 0.38803
# Poissons Ratio (y) = 0.12106 0.30280
# Poissons Ratio (z) = 0.47197 0.45074
#
# Static dielectric constant tensor:
#      x y z
#    x 1.644500 0.000000 0.000000 
#    y 0.000000 1.627000 0.000000 
#    z 0.000000 0.000000 1.672240 
# 
# From -- ./inp_files/44005.got.cif
#   From: 2010.05.17/outbox.cif.g08.bks.cpg/sg67_23_cif.got.tgz:44005.got - 2010.06.03 18:28:57.
