data_PCOD9504658
_publ_section_title
;
Structure prediction by ZEFSAII (Michael W. Deem and Ramdas Pophale) SiO2 
 PCOD9504658
Probable space group: C M M A
;
_chemical_formula_sum "Si O2"
_cell_formula_units_Z 52
_cell_length_a 14.690364
_cell_length_b 10.501920
_cell_length_c 15.320361
_cell_angle_alpha 90.000000
_cell_angle_beta 90.000000
_cell_angle_gamma 90.000000
_cell_volume 2363.579755
_symmetry_space_group_name_H-M "C M M A"
_symmetry_group_IT_number 67
_symmetry_cell_setting 'orthorhombic'
loop_
_space_group_symop_operation_xyz
x,y,z
-x,1/2-y,z
x,-y,-z
-x,1/2+y,-z
-x,-y,-z
x,1/2+y,-z
-x,y,z
x,1/2-y,z
1/2+x,1/2+y,z
1/2-x,-y,z
1/2+x,1/2-y,-z
1/2-x,y,-z
1/2-x,1/2-y,-z
1/2+x,y,-z
1/2-x,1/2+y,z
1/2+x,-y,z
loop_
_atom_site_type_symbol
_atom_site_label
_atom_site_fract_x
_atom_site_fract_y
_atom_site_fract_z
Si Si1 0.500000 0.250000 0.528681
Si Si2 0.652529 0.888271 0.949787
Si Si3 0.635884 0.750000 0.636469
Si Si4 0.342157 0.750000 0.324034
Si Si5 0.606824 0.513393 0.764985
O O1 0.579294 0.250000 0.452030
O O2 0.421447 0.250000 0.605002
O O3 0.609632 0.750000 0.954383
O O4 0.656872 0.930071 0.849595
O O5 0.750000 0.878232 0.000000
O O6 0.602357 0.000000 0.000000
O O7 0.744663 0.750000 0.629146
O O8 0.612180 0.622126 0.690781
O O9 0.352568 0.879110 0.267143
O O10 0.500000 0.494129 0.785766
#
# Coordination Sequence:
#
# PCOD9504658 Si02
#       5
#     4  16   8   8  16
#     4  12  26  58  76 124 154 194 276 320 396 460
#     4  10  24  41  69 108 149 199 250 317 367 450
#     4  12  27  47  85 109 154 209 255 323 398 471
#     4  12  29  47  81 119 154 205 259 327 388 475
#     4  12  25  50  75 115 158 208 256 321 400 458
#
# _framework density 22.000526000000001
#
# number of rings (size 3 to 8) (size 9 to 14) (size 15 to 20)
#    0.000    0.615    4.615    1.385   10.769    3.077 
#    0.000    3.077    0.000    0.000    0.000    0.000 
#    0.000    0.000    0.000    0.000    0.000    0.000 
#
# Total GULP energy -144813.433848 kJ/mol
# GULP energy per Si atom -5569.747456 kJ/mol
# Density = 2.195045 g / cm^3
# Si number density = 22.000526 Si / 1000 Ang^3
#
#
#
# Elastic Constant Matrix: (Units=GPa)
#
#
# Indices 1 2 3 4 5 6 
#
# 1 189.4142 17.0211 40.9090 0.0000 0.0000 0.0000
# 2 17.0211 219.7026 68.9235 0.0000 0.0000 0.0000
# 3 40.9090 68.9235 148.4965 0.0000 0.0000 0.0000
# 4 0.0000 0.0000 0.0000 13.7822 0.0000 0.0000
# 5 0.0000 0.0000 0.0000 0.0000 78.1461 0.0000
# 6 0.0000 0.0000 0.0000 0.0000 0.0000 18.5304
#
#
#
# Elastic Compliance Matrix: (Units=1/GPa)
#
#
# Indices 1 2 3 4 5 6 
#
# 1 0.005614 0.000059 -0.001574 0.000000 0.000000 0.000000
# 2 0.000059 0.005328 -0.002489 0.000000 0.000000 0.000000
# 3 -0.001574 -0.002489 0.008323 0.000000 0.000000 0.000000
# 4 0.000000 0.000000 0.000000 0.072557 0.000000 0.000000
# 5 0.000000 0.000000 0.000000 0.000000 0.012797 0.000000
# 6 0.000000 0.000000 0.000000 0.000000 0.000000 0.053965
#
#
# Mechanical properties :
#
#
# Convention : Reuss Voigt Hill
#
# Bulk Modulus (GPa) = 88.83647 90.14673 89.49160
# Shear Modulus (GPa) = 29.35224 50.80906 40.08065
#
# Velocity S-wave (km/s) = 3.65658 4.81088 4.27289
# Velocity P-wave (km/s) = 7.63507 8.48076 8.06900
#
# Compressibility (1/GPa) = 0.01125664
#
# Stress axis : x y z
#
# Youngs Moduli (GPa) = 178.12368 187.69059 120.14814
#
# Poissons Ratio (x) = -0.01104 0.18910
# Poissons Ratio (y) = -0.01048 0.29906
# Poissons Ratio (z) = 0.28035 0.46718
#
# Static dielectric constant tensor:
#      x y z
#    x 1.843490 0.000000 0.000000 
#    y 0.000000 1.848130 0.000000 
#    z 0.000000 0.000000 1.765970 
# 
# From -- ./inp_files/26628.got.cif
#   From: 2010.05.17/outbox.cif.g08.bks.cpg/sg67_14_cif.got.tgz:26628.got - 2010.06.03 18:28:57.
