data_PCOD9504320
_publ_section_title
;
Structure prediction by ZEFSAII (Michael W. Deem and Ramdas Pophale) SiO2 
 PCOD9504320
Probable space group: C M M A
;
_chemical_formula_sum "Si O2"
_cell_formula_units_Z 80
_cell_length_a 22.281972
_cell_length_b 17.984975
_cell_length_c 10.986271
_cell_angle_alpha 90.000000
_cell_angle_beta 90.000000
_cell_angle_gamma 90.000000
_cell_volume 4402.646034
_symmetry_space_group_name_H-M "C M M A"
_symmetry_group_IT_number 67
_symmetry_cell_setting 'orthorhombic'
loop_
_space_group_symop_operation_xyz
x,y,z
-x,1/2-y,z
x,-y,-z
-x,1/2+y,-z
-x,-y,-z
x,1/2+y,-z
-x,y,z
x,1/2-y,z
1/2+x,1/2+y,z
1/2-x,-y,z
1/2+x,1/2-y,-z
1/2-x,y,-z
1/2-x,1/2-y,-z
1/2+x,y,-z
1/2-x,1/2+y,z
1/2+x,-y,z
loop_
_atom_site_type_symbol
_atom_site_label
_atom_site_fract_x
_atom_site_fract_y
_atom_site_fract_z
Si Si1 0.620473 0.526650 0.137057
Si Si2 0.793438 0.433451 0.688373
Si Si3 0.500000 0.619803 0.528020
Si Si4 0.865714 0.667422 0.494207
Si Si5 0.000000 0.514173 0.708321
Si Si6 0.684826 0.663833 0.233379
O O1 0.664892 0.471459 0.210114
O O2 0.558473 0.526316 0.210423
O O3 0.650086 0.608358 0.143856
O O4 0.612515 0.500000 0.000000
O O5 0.750000 0.500000 0.644056
O O6 0.833126 0.396216 0.583377
O O7 0.750674 0.370142 0.744458
O O8 0.562895 0.662698 0.524541
O O9 0.500000 0.566907 0.646198
O O10 0.500000 0.569594 0.406312
O O11 0.844117 0.750000 0.457367
O O12 0.848636 0.657980 0.635587
O O13 0.685816 0.750000 0.197343
#
# Coordination Sequence:
#
# PCOD9504320 Si02
#       6
#    16  16   8  16   8  16
#     4  11  23  41  62  85 115 158 204 245 283 339
#     4  10  22  36  59  89 121 156 198 243 288 349
#     4  11  21  36  64  92 113 154 189 247 306 356
#     4  11  21  37  59  90 127 155 186 242 312 362
#     4  11  21  38  64  88 117 146 197 247 305 342
#     4  10  22  39  60  88 120 155 193 239 298 356
#
# _framework density 18.170891000000001
#
# number of rings (size 3 to 8) (size 9 to 14) (size 15 to 20)
#    0.000    1.400    4.000    1.800    0.000   10.800 
#    0.000    3.500    0.000    0.000    0.000    0.000 
#    0.000    0.000    0.000    0.000    0.000    0.000 
#
# Total GULP energy -223466.218250 kJ/mol
# GULP energy per Si atom -5586.655456 kJ/mol
# Density = 1.812953 g / cm^3
# Si number density = 18.170891 Si / 1000 Ang^3
#
#
#
# Elastic Constant Matrix: (Units=GPa)
#
#
# Indices 1 2 3 4 5 6 
#
# 1 113.4746 38.0809 24.0905 0.0000 0.0000 0.0000
# 2 38.0809 123.1040 41.2729 0.0000 0.0000 0.0000
# 3 24.0905 41.2729 70.6376 0.0000 0.0000 0.0000
# 4 0.0000 0.0000 0.0000 19.1855 0.0000 0.0000
# 5 0.0000 0.0000 0.0000 0.0000 -1.2872 0.0000
# 6 0.0000 0.0000 0.0000 0.0000 0.0000 20.6152
#
#
#
# Elastic Compliance Matrix: (Units=1/GPa)
#
#
# Indices 1 2 3 4 5 6 
#
# 1 0.010057 -0.002439 -0.002005 0.000000 0.000000 0.000000
# 2 -0.002439 0.010694 -0.005416 0.000000 0.000000 0.000000
# 3 -0.002005 -0.005416 0.018005 0.000000 0.000000 0.000000
# 4 0.000000 0.000000 0.000000 0.052123 0.000000 0.000000
# 5 0.000000 0.000000 0.000000 0.000000 -0.776868 0.000000
# 6 0.000000 0.000000 0.000000 0.000000 0.000000 0.048508
#
#
# Mechanical properties :
#
#
# Convention : Reuss Voigt Hill
#
# Bulk Modulus (GPa) = 52.53356 57.12276 54.82816
# Shear Modulus (GPa) = -8.17773 21.28748 6.55487
#
# Velocity S-wave (km/s) = -2.12373 3.42645 1.90136
# Velocity P-wave (km/s) = 4.79165 6.86722 5.92109
#
# Compressibility (1/GPa) = 0.01903545
#
# Stress axis : x y z
#
# Youngs Moduli (GPa) = 99.43731 93.51411 55.53933
#
# Poissons Ratio (x) = 0.22806 0.11135
# Poissons Ratio (y) = 0.24250 0.30082
# Poissons Ratio (z) = 0.19935 0.50651
#
# Static dielectric constant tensor:
#      x y z
#    x 1.621610 0.000000 0.000000 
#    y 0.000000 1.634620 0.000000 
#    z 0.000000 0.000000 1.581920 
# 
# From -- ./inp_files/20573.got.cif
#   From: 2010.05.17/outbox.cif.g08.bks.cpg/sg67_11_cif.got.tgz:20573.got - 2010.06.03 18:28:57.
