data_PCOD9504648
_publ_section_title
;
Structure prediction by ZEFSAII (Michael W. Deem and Ramdas Pophale) SiO2 
 PCOD9504648
Probable space group: C M M A
;
_chemical_formula_sum "Si O2"
_cell_formula_units_Z 116
_cell_length_a 16.816271
_cell_length_b 17.110890
_cell_length_c 20.154627
_cell_angle_alpha 90.000000
_cell_angle_beta 90.000000
_cell_angle_gamma 90.000000
_cell_volume 5799.319850
_symmetry_space_group_name_H-M "C M M A"
_symmetry_group_IT_number 67
_symmetry_cell_setting 'orthorhombic'
loop_
_space_group_symop_operation_xyz
x,y,z
-x,1/2-y,z
x,-y,-z
-x,1/2+y,-z
-x,-y,-z
x,1/2+y,-z
-x,y,z
x,1/2-y,z
1/2+x,1/2+y,z
1/2-x,-y,z
1/2+x,1/2-y,-z
1/2-x,y,-z
1/2-x,1/2-y,-z
1/2+x,y,-z
1/2-x,1/2+y,z
1/2+x,-y,z
loop_
_atom_site_type_symbol
_atom_site_label
_atom_site_fract_x
_atom_site_fract_y
_atom_site_fract_z
Si Si1 0.876972 0.864108 0.866542
Si Si2 0.093854 0.335794 0.979990
Si Si3 0.590350 0.844409 0.409569
Si Si4 0.339238 0.034426 0.112882
Si Si5 0.000000 0.750000 0.807831
Si Si6 0.331874 0.338864 0.457613
Si Si7 0.289929 0.663257 0.798565
Si Si8 0.254690 0.909556 0.338566
O O1 0.896093 0.836037 0.940803
O O2 0.787191 0.843826 0.846009
O O3 0.931576 0.818157 0.815421
O O4 0.888942 0.957138 0.871009
O O5 0.123140 0.250000 0.956053
O O6 0.000000 0.341227 0.965073
O O7 0.136422 0.411031 0.948775
O O8 0.500000 0.861646 0.389069
O O9 0.602378 0.750000 0.403695
O O10 0.603761 0.863524 0.487644
O O11 0.659205 0.886869 0.368445
O O12 0.344402 0.093843 0.174476
O O13 0.250000 0.000000 0.103639
O O14 0.348799 0.250000 0.435426
O O15 0.250000 0.336376 0.500000
O O16 0.310993 0.392298 0.395411
O O17 0.323671 0.750000 0.802036
O O18 0.262302 0.643630 0.724675
O O19 0.250000 0.000000 0.319388
#
# Coordination Sequence:
#
# PCOD9504648 Si02
#       8
#    16  16  16  16   4  16  16  16
#     4  11  21  38  57  85 114 148 185 232 291 352
#     4  11  21  38  60  86 113 148 192 236 290 350
#     4   9  18  35  58  90 121 145 185 241 286 328
#     4  10  24  38  58  84 116 149 191 243 289 339
#     4  12  20  40  58  86 122 148 180 230 296 380
#     4   8  15  30  53  79 109 149 189 222 265 327
#     4  11  22  41  60  81 111 151 199 241 286 343
#     4  11  21  35  56  82 116 155 195 229 277 345
#
# _framework density 20.002345999999999
#
# number of rings (size 3 to 8) (size 9 to 14) (size 15 to 20)
#    0.000    1.793    2.069    4.138    0.966    6.897 
#    1.241    4.828    0.000    0.828    0.000    1.931 
#    0.000    0.000    0.000    0.000    0.000    0.000 
#
# Total GULP energy -323106.947008 kJ/mol
# GULP energy per Si atom -5570.809431 kJ/mol
# Density = 1.995682 g / cm^3
# Si number density = 20.002346 Si / 1000 Ang^3
#
#
#
# Elastic Constant Matrix: (Units=GPa)
#
#
# Indices 1 2 3 4 5 6 
#
# 1 40.3839 24.2208 7.8341 0.0000 0.0000 0.0000
# 2 24.2208 150.8380 18.1725 0.0000 0.0000 0.0000
# 3 7.8341 18.1725 42.4818 0.0000 0.0000 0.0000
# 4 0.0000 0.0000 0.0000 23.7738 0.0000 0.0000
# 5 0.0000 0.0000 0.0000 0.0000 98.6320 0.0000
# 6 0.0000 0.0000 0.0000 0.0000 0.0000 31.3193
#
#
#
# Elastic Compliance Matrix: (Units=1/GPa)
#
#
# Indices 1 2 3 4 5 6 
#
# 1 0.027859 -0.004064 -0.003399 0.000000 0.000000 0.000000
# 2 -0.004064 0.007583 -0.002494 0.000000 0.000000 0.000000
# 3 -0.003399 -0.002494 0.025233 0.000000 0.000000 0.000000
# 4 0.000000 0.000000 0.000000 0.042063 0.000000 0.000000
# 5 0.000000 0.000000 0.000000 0.000000 0.010139 0.000000
# 6 0.000000 0.000000 0.000000 0.000000 0.000000 0.031929
#
#
# Mechanical properties :
#
#
# Convention : Reuss Voigt Hill
#
# Bulk Modulus (GPa) = 24.53352 37.12873 30.83112
# Shear Modulus (GPa) = 28.04144 42.97677 35.50911
#
# Velocity S-wave (km/s) = 3.74827 4.64031 4.21794
# Velocity P-wave (km/s) = 5.56998 6.87841 6.25848
#
# Compressibility (1/GPa) = 0.04076056
#
# Stress axis : x y z
#
# Youngs Moduli (GPa) = 35.89482 131.87928 39.63025
#
# Poissons Ratio (x) = 0.53595 0.13471
# Poissons Ratio (y) = 0.14588 0.09885
# Poissons Ratio (z) = 0.12201 0.32894
#
# Static dielectric constant tensor:
#      x y z
#    x 1.721560 0.000000 0.000000 
#    y 0.000000 1.731330 0.000000 
#    z 0.000000 0.000000 1.733340 
# 
# From -- ./inp_files/42203.got.cif
#   From: 2010.05.17/outbox.cif.g08.bks.cpg/sg67_22_cif.got.tgz:42203.got - 2010.06.03 18:28:57.
