data_PCOD9504755
_publ_section_title
;
Structure prediction by ZEFSAII (Michael W. Deem and Ramdas Pophale) SiO2 
 PCOD9504755
Probable space group: C M M A
;
_chemical_formula_sum "Si O2"
_cell_formula_units_Z 88
_cell_length_a 9.969882
_cell_length_b 22.595519
_cell_length_c 22.492127
_cell_angle_alpha 90.000000
_cell_angle_beta 90.000000
_cell_angle_gamma 90.000000
_cell_volume 5066.906221
_symmetry_space_group_name_H-M "C M M A"
_symmetry_group_IT_number 67
_symmetry_cell_setting 'orthorhombic'
loop_
_space_group_symop_operation_xyz
x,y,z
-x,1/2-y,z
x,-y,-z
-x,1/2+y,-z
-x,-y,-z
x,1/2+y,-z
-x,y,z
x,1/2-y,z
1/2+x,1/2+y,z
1/2-x,-y,z
1/2+x,1/2-y,-z
1/2-x,y,-z
1/2-x,1/2-y,-z
1/2+x,y,-z
1/2-x,1/2+y,z
1/2+x,-y,z
loop_
_atom_site_type_symbol
_atom_site_label
_atom_site_fract_x
_atom_site_fract_y
_atom_site_fract_z
Si Si1 0.772483 0.620419 0.866901
Si Si2 0.339608 0.250000 0.267347
Si Si3 0.152457 0.750000 0.555368
Si Si4 0.500000 0.558996 0.061759
Si Si5 0.654760 0.750000 0.154121
Si Si6 0.500000 0.916799 0.928564
Si Si7 0.344784 0.162778 0.662918
Si Si8 0.841720 0.058213 0.255733
O O1 0.821023 0.687539 0.877583
O O2 0.626503 0.607991 0.892781
O O3 0.793102 0.601422 0.797941
O O4 0.869449 0.578233 0.903264
O O5 0.500000 0.250000 0.266565
O O6 0.270889 0.250000 0.203474
O O7 0.272646 0.194908 0.301045
O O8 0.250000 0.750000 0.500000
O O9 0.168732 0.808205 0.597602
O O10 0.000000 0.750000 0.533806
O O11 0.500000 0.488073 0.065540
O O12 0.500000 0.594579 0.999322
O O13 0.500000 0.750000 0.176651
O O14 0.500000 0.178586 0.681322
O O15 0.332233 0.094451 0.682029
O O16 0.000000 0.044715 0.245626
O O17 0.750000 0.000000 0.255162
#
# Coordination Sequence:
#
# PCOD9504755 Si02
#       8
#    16   8   8   8   8   8  16  16
#     4  12  24  39  63  89 113 155 200 244 300 367
#     4  11  21  31  53  84 115 144 185 235 283 327
#     4   9  18  34  60  89 119 157 201 241 277 333
#     4  11  22  47  63  89 109 156 193 236 310 365
#     4  12  23  41  59  78 115 161 191 230 295 378
#     4  11  26  41  67  85 121 140 193 262 298 353
#     4   9  19  37  57  82 118 162 195 227 285 358
#     4  11  22  36  58  85 118 152 195 246 300 357
#
# _framework density 17.367598999999998
#
# number of rings (size 3 to 8) (size 9 to 14) (size 15 to 20)
#    0.000    1.273    3.636    3.545    2.545    3.636 
#    0.000    2.727    0.000    0.545    0.000    3.818 
#    0.000    0.000    0.000    0.000    0.000    0.000 
#
# Total GULP energy -245055.610487 kJ/mol
# GULP energy per Si atom -5569.445693 kJ/mol
# Density = 1.732807 g / cm^3
# Si number density = 17.367599 Si / 1000 Ang^3
#
#
#
# Elastic Constant Matrix: (Units=GPa)
#
#
# Indices 1 2 3 4 5 6 
#
# 1 131.3726 23.2209 38.2303 0.0000 0.0000 0.0000
# 2 23.2209 89.8484 19.6220 0.0000 0.0000 0.0000
# 3 38.2303 19.6220 74.3917 0.0000 0.0000 0.0000
# 4 0.0000 0.0000 0.0000 9.9789 0.0000 0.0000
# 5 0.0000 0.0000 0.0000 0.0000 39.9164 0.0000
# 6 0.0000 0.0000 0.0000 0.0000 0.0000 142.1427
#
#
#
# Elastic Compliance Matrix: (Units=1/GPa)
#
#
# Indices 1 2 3 4 5 6 
#
# 1 0.009117 -0.001414 -0.004312 0.000000 0.000000 0.000000
# 2 -0.001414 0.012030 -0.002446 0.000000 0.000000 0.000000
# 3 -0.004312 -0.002446 0.016304 0.000000 0.000000 0.000000
# 4 0.000000 0.000000 0.000000 0.100211 0.000000 0.000000
# 5 0.000000 0.000000 0.000000 0.000000 0.025052 0.000000
# 6 0.000000 0.000000 0.000000 0.000000 0.000000 0.007035
#
#
# Mechanical properties :
#
#
# Convention : Reuss Voigt Hill
#
# Bulk Modulus (GPa) = 47.38288 50.86213 49.12251
# Shear Modulus (GPa) = 25.88944 52.71024 39.29984
#
# Velocity S-wave (km/s) = 3.86511 5.51504 4.76208
# Velocity P-wave (km/s) = 6.87462 8.36083 7.65388
#
# Compressibility (1/GPa) = 0.02110467
#
# Stress axis : x y z
#
# Youngs Moduli (GPa) = 109.68767 83.12806 61.33635
#
# Poissons Ratio (x) = 0.11758 0.26449
# Poissons Ratio (y) = 0.15515 0.15003
# Poissons Ratio (z) = 0.47298 0.20334
#
# Static dielectric constant tensor:
#      x y z
#    x 1.543390 0.000000 0.000000 
#    y 0.000000 1.631790 0.000000 
#    z 0.000000 0.000000 1.607750 
# 
# From -- ./inp_files/37031.got.cif
#   From: 2010.05.17/outbox.cif.g08.bks.cpg/sg67_19_cif.got.tgz:37031.got - 2010.06.03 18:28:57.
