data_PCOD9504460
_publ_section_title
;
Structure prediction by ZEFSAII (Michael W. Deem and Ramdas Pophale) SiO2 
 PCOD9504460
Probable space group: C M M A
;
_chemical_formula_sum "Si O2"
_cell_formula_units_Z 108
_cell_length_a 15.492544
_cell_length_b 24.439811
_cell_length_c 12.990384
_cell_angle_alpha 90.000000
_cell_angle_beta 90.000000
_cell_angle_gamma 90.000000
_cell_volume 4918.612062
_symmetry_space_group_name_H-M "C M M A"
_symmetry_group_IT_number 67
_symmetry_cell_setting 'orthorhombic'
loop_
_space_group_symop_operation_xyz
x,y,z
-x,1/2-y,z
x,-y,-z
-x,1/2+y,-z
-x,-y,-z
x,1/2+y,-z
-x,y,z
x,1/2-y,z
1/2+x,1/2+y,z
1/2-x,-y,z
1/2+x,1/2-y,-z
1/2-x,y,-z
1/2-x,1/2-y,-z
1/2+x,y,-z
1/2-x,1/2+y,z
1/2+x,-y,z
loop_
_atom_site_type_symbol
_atom_site_label
_atom_site_fract_x
_atom_site_fract_y
_atom_site_fract_z
Si Si1 0.000000 0.500000 0.000000
Si Si2 0.397947 0.687383 0.873231
Si Si3 0.598129 0.998176 0.616371
Si Si4 0.350942 0.580850 0.997868
Si Si5 0.159129 0.387834 0.699073
Si Si6 0.250000 0.839719 0.500000
Si Si7 0.837707 0.912145 0.770500
Si Si8 0.098127 0.809801 0.641858
O O1 0.077834 0.459913 0.950424
O O2 0.500000 0.688823 0.892481
O O3 0.364409 0.750000 0.881807
O O4 0.383132 0.662918 0.758175
O O5 0.359510 0.641922 0.950847
O O6 0.500000 0.018392 0.608679
O O7 0.645738 0.038529 0.692971
O O8 0.634293 0.000000 0.500000
O O9 0.600516 0.938133 0.665446
O O10 0.378402 0.580846 0.118233
O O11 0.250000 0.564194 0.000000
O O12 0.208953 0.372369 0.594679
O O13 0.234532 0.407159 0.776395
O O14 0.168291 0.810085 0.551007
O O15 0.875999 0.857557 0.719319
O O16 0.101708 0.750000 0.692353
O O17 0.000000 0.818684 0.604399
#
# Coordination Sequence:
#
# PCOD9504460 Si02
#       8
#     4  16  16  16  16   8  16  16
#     4  12  30  44  82 102 150 188 234 298 370 438
#     4  11  26  48  73 105 145 192 251 313 380 453
#     4  11  24  40  64  99 139 182 233 296 363 437
#     4  12  27  50  72 111 146 190 245 304 372 448
#     4  11  23  42  67  95 137 186 235 294 366 440
#     4  10  23  42  65 100 138 182 238 292 356 438
#     4  11  25  41  66  98 134 180 235 287 356 434
#     4  10  22  40  64  95 133 176 230 290 349 422
#
# _framework density 21.957414
#
# number of rings (size 3 to 8) (size 9 to 14) (size 15 to 20)
#    0.000    1.037    2.222    3.556    4.148    8.000 
#    0.000    2.963    0.000    0.000    0.000    0.000 
#    0.000    0.000    0.000    0.000    0.000    0.000 
#
# Total GULP energy -301049.690969 kJ/mol
# GULP energy per Si atom -5574.994277 kJ/mol
# Density = 2.190744 g / cm^3
# Si number density = 21.957414 Si / 1000 Ang^3
#
#
#
# Elastic Constant Matrix: (Units=GPa)
#
#
# Indices 1 2 3 4 5 6 
#
# 1 123.9120 35.7125 5.3624 0.0000 0.0000 0.0000
# 2 35.7125 144.2015 42.4016 0.0000 0.0000 0.0000
# 3 5.3624 42.4016 106.1070 0.0000 0.0000 0.0000
# 4 0.0000 0.0000 0.0000 21.1286 0.0000 0.0000
# 5 0.0000 0.0000 0.0000 0.0000 9.8113 0.0000
# 6 0.0000 0.0000 0.0000 0.0000 0.0000 30.9516
#
#
#
# Elastic Compliance Matrix: (Units=1/GPa)
#
#
# Indices 1 2 3 4 5 6 
#
# 1 0.008712 -0.002298 0.000478 0.000000 0.000000 0.000000
# 2 -0.002298 0.008464 -0.003266 0.000000 0.000000 0.000000
# 3 0.000478 -0.003266 0.010706 0.000000 0.000000 0.000000
# 4 0.000000 0.000000 0.000000 0.047329 0.000000 0.000000
# 5 0.000000 0.000000 0.000000 0.000000 0.101924 0.000000
# 6 0.000000 0.000000 0.000000 0.000000 0.000000 0.032309
#
#
# Mechanical properties :
#
#
# Convention : Reuss Voigt Hill
#
# Bulk Modulus (GPa) = 56.46829 60.13038 58.29933
# Shear Modulus (GPa) = 22.17109 31.76122 26.96615
#
# Velocity S-wave (km/s) = 3.18107 3.80740 3.50824
# Velocity P-wave (km/s) = 6.26621 6.83907 6.55889
#
# Compressibility (1/GPa) = 0.01770905
#
# Stress axis : x y z
#
# Youngs Moduli (GPa) = 114.78557 118.14292 93.40958
#
# Poissons Ratio (x) = 0.27151 -0.04466
# Poissons Ratio (y) = 0.26379 0.30510
# Poissons Ratio (z) = -0.05488 0.38589
#
# Static dielectric constant tensor:
#      x y z
#    x 1.800540 0.000000 0.000000 
#    y 0.000000 1.817810 0.000000 
#    z 0.000000 0.000000 1.805720 
# 
# From -- ./inp_files/27597.got.cif
#   From: 2010.05.17/outbox.cif.g08.bks.cpg/sg67_14_cif.got.tgz:27597.got - 2010.06.03 18:28:57.
