data_PCOD9504362
_publ_section_title
;
Structure prediction by ZEFSAII (Michael W. Deem and Ramdas Pophale) SiO2 
 PCOD9504362
Probable space group: C M M A
;
_chemical_formula_sum "Si O2"
_cell_formula_units_Z 88
_cell_length_a 14.636311
_cell_length_b 10.838803
_cell_length_c 28.831983
_cell_angle_alpha 90.000000
_cell_angle_beta 90.000000
_cell_angle_gamma 90.000000
_cell_volume 4573.908423
_symmetry_space_group_name_H-M "C M M A"
_symmetry_group_IT_number 67
_symmetry_cell_setting 'orthorhombic'
loop_
_space_group_symop_operation_xyz
x,y,z
-x,1/2-y,z
x,-y,-z
-x,1/2+y,-z
-x,-y,-z
x,1/2+y,-z
-x,y,z
x,1/2-y,z
1/2+x,1/2+y,z
1/2-x,-y,z
1/2+x,1/2-y,-z
1/2-x,y,-z
1/2-x,1/2-y,-z
1/2+x,y,-z
1/2-x,1/2+y,z
1/2+x,-y,z
loop_
_atom_site_type_symbol
_atom_site_label
_atom_site_fract_x
_atom_site_fract_y
_atom_site_fract_z
Si Si1 0.325504 0.891848 0.395475
Si Si2 0.319715 0.611821 0.290271
Si Si3 0.850438 0.116735 0.976811
Si Si4 0.500000 0.107294 0.538083
Si Si5 0.892894 0.616047 0.810057
Si Si6 0.889113 0.611890 0.129349
O O1 0.289362 0.750000 0.401457
O O2 0.360140 0.899243 0.342006
O O3 0.409736 0.906706 0.430258
O O4 0.250000 0.000000 0.401779
O O5 0.277293 0.750000 0.288448
O O6 0.250000 0.500000 0.285848
O O7 0.383045 0.603564 0.245321
O O8 0.893969 0.250000 0.985071
O O9 0.846783 0.098727 0.921697
O O10 0.750000 0.122514 0.000000
O O11 0.897147 0.000000 0.000000
O O12 0.500000 0.250000 0.520129
O O13 0.500000 0.000000 0.500000
O O14 0.852563 0.750000 0.823493
O O15 0.857371 0.496948 0.836987
O O16 0.000000 0.620721 0.820913
O O17 0.868972 0.750000 0.147070
O O18 0.000000 0.605262 0.123967
#
# Coordination Sequence:
#
# PCOD9504362 Si02
#       6
#    16  16  16   8  16  16
#     4   9  19  36  58  83 114 154 197 243 294 346
#     4   9  18  33  53  78 108 141 181 223 266 319
#     4   9  18  33  50  68  90 118 155 197 241 292
#     4  10  22  38  58  86 118 156 202 248 299 352
#     4   9  18  32  52  78 104 133 169 211 256 307
#     4   9  18  33  51  71  98 129 160 199 252 309
#
# _framework density 19.239564000000001
#
# number of rings (size 3 to 8) (size 9 to 14) (size 15 to 20)
#    0.000    2.909    0.000    0.000    1.273    2.909 
#    3.273    1.818    0.000    0.000    0.000    0.000 
#    0.000    0.000    0.000    0.000    0.000    0.000 
#
# Total GULP energy -245015.773384 kJ/mol
# GULP energy per Si atom -5568.540304 kJ/mol
# Density = 1.919577 g / cm^3
# Si number density = 19.239564 Si / 1000 Ang^3
#
#
#
# Elastic Constant Matrix: (Units=GPa)
#
#
# Indices 1 2 3 4 5 6 
#
# 1 64.1240 41.8082 32.6651 0.0000 0.0000 0.0000
# 2 41.8082 209.4297 103.4882 0.0000 0.0000 0.0000
# 3 32.6651 103.4882 96.6980 0.0000 0.0000 0.0000
# 4 0.0000 0.0000 0.0000 35.2739 0.0000 0.0000
# 5 0.0000 0.0000 0.0000 0.0000 27.4386 0.0000
# 6 0.0000 0.0000 0.0000 0.0000 0.0000 -0.8320
#
#
#
# Elastic Compliance Matrix: (Units=1/GPa)
#
#
# Indices 1 2 3 4 5 6 
#
# 1 0.019006 -0.001319 -0.005009 0.000000 0.000000 0.000000
# 2 -0.001319 0.010226 -0.010498 0.000000 0.000000 0.000000
# 3 -0.005009 -0.010498 0.023269 0.000000 0.000000 0.000000
# 4 0.000000 0.000000 0.000000 0.028350 0.000000 0.000000
# 5 0.000000 0.000000 0.000000 0.000000 0.036445 0.000000
# 6 0.000000 0.000000 0.000000 0.000000 0.000000 -1.201954
#
#
# Mechanical properties :
#
#
# Convention : Reuss Voigt Hill
#
# Bulk Modulus (GPa) = 53.05354 80.68609 66.86981
# Shear Modulus (GPa) = -4.78596 25.19543 10.20474
#
# Velocity S-wave (km/s) = -1.57891 3.62272 2.30555
# Velocity P-wave (km/s) = 4.93063 7.71540 6.47451
#
# Compressibility (1/GPa) = 0.01884888
#
# Stress axis : x y z
#
# Youngs Moduli (GPa) = 52.61410 97.79076 42.97577
#
# Poissons Ratio (x) = 0.12901 0.21525
# Poissons Ratio (y) = 0.06941 0.45117
# Poissons Ratio (z) = 0.26352 1.02664
#
# Static dielectric constant tensor:
#      x y z
#    x 1.659500 0.000000 0.000000 
#    y 0.000000 1.705580 0.000000 
#    z 0.000000 0.000000 1.656000 
# 
# From -- ./inp_files/41818.got.cif
#   From: 2010.05.17/outbox.cif.g08.bks.cpg/sg67_21_cif.got.tgz:41818.got - 2010.06.03 18:28:57.
