data_PCOD9504313
_publ_section_title
;
Structure prediction by ZEFSAII (Michael W. Deem and Ramdas Pophale) SiO2 
 PCOD9504313
Probable space group: C M M A
;
_chemical_formula_sum "Si O2"
_cell_formula_units_Z 64
_cell_length_a 14.029927
_cell_length_b 17.921514
_cell_length_c 13.856139
_cell_angle_alpha 90.000000
_cell_angle_beta 90.000000
_cell_angle_gamma 90.000000
_cell_volume 3483.953409
_symmetry_space_group_name_H-M "C M M A"
_symmetry_group_IT_number 67
_symmetry_cell_setting 'orthorhombic'
loop_
_space_group_symop_operation_xyz
x,y,z
-x,1/2-y,z
x,-y,-z
-x,1/2+y,-z
-x,-y,-z
x,1/2+y,-z
-x,y,z
x,1/2-y,z
1/2+x,1/2+y,z
1/2-x,-y,z
1/2+x,1/2-y,-z
1/2-x,y,-z
1/2-x,1/2-y,-z
1/2+x,y,-z
1/2-x,1/2+y,z
1/2+x,-y,z
loop_
_atom_site_type_symbol
_atom_site_label
_atom_site_fract_x
_atom_site_fract_y
_atom_site_fract_z
Si Si1 0.638681 0.522375 0.103813
Si Si2 0.666583 0.338992 0.778236
Si Si3 0.500000 0.838236 0.367679
Si Si4 0.500000 0.075808 0.438992
Si Si5 0.332485 0.560881 0.711734
O O1 0.750000 0.500000 0.099718
O O2 0.634091 0.609633 0.131362
O O3 0.609899 0.475189 0.198093
O O4 0.599361 0.500000 0.000000
O O5 0.662870 0.250000 0.794421
O O6 0.593716 0.361087 0.692277
O O7 0.771261 0.367982 0.747791
O O8 0.500000 0.750000 0.364748
O O9 0.500000 0.863268 0.477268
O O10 0.594000 0.078111 0.372698
O O11 0.500000 0.000000 0.500000
O O12 0.250000 0.500000 0.684421
#
# Coordination Sequence:
#
# PCOD9504313 Si02
#       5
#    16  16   8   8  16
#     4   8  15  31  52  77 104 130 164 208 253 302
#     4   9  18  35  55  75 101 135 172 211 255 307
#     4  10  22  36  52  75 102 133 173 218 263 306
#     4  12  22  34  52  75 103 137 176 218 261 306
#     4   9  20  34  50  75 105 135 171 215 257 301
#
# _framework density 18.369935999999999
#
# number of rings (size 3 to 8) (size 9 to 14) (size 15 to 20)
#    0.000    3.250    0.000    3.000    0.000    4.500 
#    0.000   15.000    0.000    0.000    0.000    0.000 
#    0.000    0.000    0.000    0.000    0.000    0.000 
#
# Total GULP energy -178138.850101 kJ/mol
# GULP energy per Si atom -5566.839066 kJ/mol
# Density = 1.832813 g / cm^3
# Si number density = 18.369936 Si / 1000 Ang^3
#
#
#
# Elastic Constant Matrix: (Units=GPa)
#
#
# Indices 1 2 3 4 5 6 
#
# 1 96.2888 37.0001 50.7159 0.0000 0.0000 0.0000
# 2 37.0001 101.6326 67.2418 0.0000 0.0000 0.0000
# 3 50.7159 67.2418 140.3665 0.0000 0.0000 0.0000
# 4 0.0000 0.0000 0.0000 27.5836 0.0000 0.0000
# 5 0.0000 0.0000 0.0000 0.0000 38.3077 0.0000
# 6 0.0000 0.0000 0.0000 0.0000 0.0000 11.4668
#
#
#
# Elastic Compliance Matrix: (Units=1/GPa)
#
#
# Indices 1 2 3 4 5 6 
#
# 1 0.013221 -0.002420 -0.003618 0.000000 0.000000 0.000000
# 2 -0.002420 0.014848 -0.006239 0.000000 0.000000 0.000000
# 3 -0.003618 -0.006239 0.011420 0.000000 0.000000 0.000000
# 4 0.000000 0.000000 0.000000 0.036253 0.000000 0.000000
# 5 0.000000 0.000000 0.000000 0.000000 0.026104 0.000000
# 6 0.000000 0.000000 0.000000 0.000000 0.000000 0.087208
#
#
# Mechanical properties :
#
#
# Convention : Reuss Voigt Hill
#
# Bulk Modulus (GPa) = 66.94917 72.02261 69.48589
# Shear Modulus (GPa) = 22.87444 27.69362 25.28403
#
# Velocity S-wave (km/s) = 3.53258 3.88693 3.71399
# Velocity P-wave (km/s) = 7.29129 7.70949 7.50330
#
# Compressibility (1/GPa) = 0.01493671
#
# Stress axis : x y z
#
# Youngs Moduli (GPa) = 75.63942 67.35040 87.56688
#
# Poissons Ratio (x) = 0.16296 0.31679
# Poissons Ratio (y) = 0.18301 0.54629
# Poissons Ratio (z) = 0.27364 0.42017
#
# Static dielectric constant tensor:
#      x y z
#    x 1.678610 0.000000 0.000000 
#    y 0.000000 1.422760 0.000000 
#    z 0.000000 0.000000 1.133860 
# 
# From -- ./inp_files/26806.got.cif
#   From: 2010.05.17/outbox.cif.g08.bks.cpg/sg67_14_cif.got.tgz:26806.got - 2010.06.03 18:28:57.
