data_PCOD9504495
_publ_section_title
;
Structure prediction by ZEFSAII (Michael W. Deem and Ramdas Pophale) SiO2 
 PCOD9504495
Probable space group: C M M A
;
_chemical_formula_sum "Si O2"
_cell_formula_units_Z 68
_cell_length_a 21.040627
_cell_length_b 7.894889
_cell_length_c 19.758703
_cell_angle_alpha 90.000000
_cell_angle_beta 90.000000
_cell_angle_gamma 90.000000
_cell_volume 3282.185624
_symmetry_space_group_name_H-M "C M M A"
_symmetry_group_IT_number 67
_symmetry_cell_setting 'orthorhombic'
loop_
_space_group_symop_operation_xyz
x,y,z
-x,1/2-y,z
x,-y,-z
-x,1/2+y,-z
-x,-y,-z
x,1/2+y,-z
-x,y,z
x,1/2-y,z
1/2+x,1/2+y,z
1/2-x,-y,z
1/2+x,1/2-y,-z
1/2-x,y,-z
1/2-x,1/2-y,-z
1/2+x,y,-z
1/2-x,1/2+y,z
1/2+x,-y,z
loop_
_atom_site_type_symbol
_atom_site_label
_atom_site_fract_x
_atom_site_fract_y
_atom_site_fract_z
Si Si1 0.600380 0.561273 0.295868
Si Si2 0.318813 0.555705 0.821821
Si Si3 0.323030 0.549168 0.577873
Si Si4 0.570733 0.047044 0.921146
Si Si5 0.000000 0.250000 0.722878
O O1 0.572367 0.750000 0.288433
O O2 0.658496 0.548458 0.243001
O O3 0.628931 0.538867 0.370685
O O4 0.554850 0.402570 0.279779
O O5 0.314670 0.750000 0.801664
O O6 0.250000 0.500000 0.847496
O O7 0.373317 0.532475 0.877897
O O8 0.335254 0.500000 0.500000
O O9 0.329685 0.750000 0.585494
O O10 0.250000 0.500000 0.592890
O O11 0.500000 0.990369 0.898015
O O12 0.573721 0.250000 0.914392
O O13 0.576306 0.000000 0.000000
#
# Coordination Sequence:
#
# PCOD9504495 Si02
#       5
#    16  16  16  16   4
#     4  12  25  45  69  98 136 172 223 276 333 396
#     4  12  25  43  66  99 134 172 220 277 337 396
#     4  11  21  39  66 100 133 173 224 277 336 396
#     4  10  22  41  65  96 130 174 221 270 328 394
#     4  12  26  48  66 100 128 182 224 266 338 400
#
# _framework density 20.7179
#
# number of rings (size 3 to 8) (size 9 to 14) (size 15 to 20)
#    0.000    0.706    2.353    6.706    1.647    1.882 
#    0.000    2.941    0.000    0.000    0.000    0.000 
#    0.000    0.000    0.000    0.000    0.000    0.000 
#
# Total GULP energy -189671.500678 kJ/mol
# GULP energy per Si atom -5578.573549 kJ/mol
# Density = 2.067075 g / cm^3
# Si number density = 20.717900 Si / 1000 Ang^3
#
#
#
# Elastic Constant Matrix: (Units=GPa)
#
#
# Indices 1 2 3 4 5 6 
#
# 1 128.8984 36.3812 40.7308 0.0000 0.0000 0.0000
# 2 36.3812 171.5044 5.9248 0.0000 0.0000 0.0000
# 3 40.7308 5.9248 55.4737 0.0000 0.0000 0.0000
# 4 0.0000 0.0000 0.0000 24.7587 0.0000 0.0000
# 5 0.0000 0.0000 0.0000 0.0000 -8.2696 0.0000
# 6 0.0000 0.0000 0.0000 0.0000 0.0000 15.5557
#
#
#
# Elastic Compliance Matrix: (Units=1/GPa)
#
#
# Indices 1 2 3 4 5 6 
#
# 1 0.010754 -0.002016 -0.007681 0.000000 0.000000 0.000000
# 2 -0.002016 0.006230 0.000815 0.000000 0.000000 0.000000
# 3 -0.007681 0.000815 0.023579 0.000000 0.000000 0.000000
# 4 0.000000 0.000000 0.000000 0.040390 0.000000 0.000000
# 5 0.000000 0.000000 0.000000 0.000000 -0.120925 0.000000
# 6 0.000000 0.000000 0.000000 0.000000 0.000000 0.064285
#
#
# Mechanical properties :
#
#
# Convention : Reuss Voigt Hill
#
# Bulk Modulus (GPa) = 43.86053 57.99444 50.92748
# Shear Modulus (GPa) = 100.65024 24.59827 62.62425
#
# Velocity S-wave (km/s) = 6.97759 3.44945 5.50388
# Velocity P-wave (km/s) = 9.28073 6.62708 8.06381
#
# Compressibility (1/GPa) = 0.02279954
#
# Stress axis : x y z
#
# Youngs Moduli (GPa) = 92.98800 160.50731 42.41061
#
# Poissons Ratio (x) = 0.32357 0.32574
# Poissons Ratio (y) = 0.18746 -0.03455
# Poissons Ratio (z) = 0.71421 -0.13077
#
# Static dielectric constant tensor:
#      x y z
#    x 1.739600 0.000000 0.000000 
#    y 0.000000 1.722830 0.000000 
#    z 0.000000 0.000000 1.724250 
# 
# From -- ./inp_files/31812.got.cif
#   From: 2010.05.17/outbox.cif.g08.bks.cpg/sg67_16_cif.got.tgz:31812.got - 2010.06.03 18:28:57.
