data_PCOD9504439
_publ_section_title
;
Structure prediction by ZEFSAII (Michael W. Deem and Ramdas Pophale) SiO2 
 PCOD9504439
Probable space group: C M M A
;
_chemical_formula_sum "Si O2"
_cell_formula_units_Z 116
_cell_length_a 17.796905
_cell_length_b 14.889135
_cell_length_c 24.219884
_cell_angle_alpha 90.000000
_cell_angle_beta 90.000000
_cell_angle_gamma 90.000000
_cell_volume 6417.797484
_symmetry_space_group_name_H-M "C M M A"
_symmetry_group_IT_number 67
_symmetry_cell_setting 'orthorhombic'
loop_
_space_group_symop_operation_xyz
x,y,z
-x,1/2-y,z
x,-y,-z
-x,1/2+y,-z
-x,-y,-z
x,1/2+y,-z
-x,y,z
x,1/2-y,z
1/2+x,1/2+y,z
1/2-x,-y,z
1/2+x,1/2-y,-z
1/2-x,y,-z
1/2-x,1/2-y,-z
1/2+x,y,-z
1/2-x,1/2+y,z
1/2+x,-y,z
loop_
_atom_site_type_symbol
_atom_site_label
_atom_site_fract_x
_atom_site_fract_y
_atom_site_fract_z
Si Si1 0.338517 0.513681 0.687238
Si Si2 0.500000 0.250000 0.187006
Si Si3 0.082837 0.935828 0.200229
Si Si4 0.341234 0.852866 0.002627
Si Si5 0.836121 0.107296 0.491970
Si Si6 0.586684 0.647929 0.603868
Si Si7 0.088323 0.146288 0.374629
Si Si8 0.340817 0.498086 0.089297
O O1 0.250000 0.500000 0.688657
O O2 0.369187 0.550751 0.744867
O O3 0.361117 0.583259 0.639171
O O4 0.378531 0.421002 0.670371
O O5 0.564431 0.330930 0.188873
O O6 0.121935 0.981753 0.147988
O O7 0.000000 0.022752 0.790371
O O8 0.368482 0.750000 0.001421
O O9 0.362217 0.910451 0.056898
O O10 0.250000 0.850148 0.000000
O O11 0.363372 0.914642 0.950540
O O12 0.750000 0.137405 0.500000
O O13 0.887824 0.145778 0.540485
O O14 0.867718 0.130934 0.432066
O O15 0.837483 0.000000 0.500000
O O16 0.500000 0.618512 0.608913
O O17 0.591727 0.750000 0.624627
O O18 0.096742 0.250000 0.358435
O O19 0.000000 0.127763 0.383727
O O20 0.250000 0.500000 0.093978
#
# Coordination Sequence:
#
# PCOD9504439 Si02
#       8
#    16   4  16  16  16  16  16  16
#     4  12  25  41  63  88 114 148 191 246 298 347
#     4   8  24  40  64  90 112 162 204 238 314 350
#     4  10  22  40  60  85 118 152 197 242 296 356
#     4   8  15  28  51  85 123 162 203 245 294 346
#     4  11  22  37  58  88 119 152 191 237 291 345
#     4  11  24  39  62  90 117 150 190 238 298 354
#     4  11  24  42  62  84 115 154 193 230 287 362
#     4   9  17  32  56  85 121 160 202 252 296 345
#
# _framework density 18.074736000000001
#
# number of rings (size 3 to 8) (size 9 to 14) (size 15 to 20)
#    0.414    1.379    1.379    4.138    1.931    4.414 
#    0.000    2.069    0.000    2.069    0.000    0.000 
#    0.000    0.000    0.000    0.000    0.000    0.000 
#
# Total GULP energy -323149.608512 kJ/mol
# GULP energy per Si atom -5571.544974 kJ/mol
# Density = 1.803360 g / cm^3
# Si number density = 18.074736 Si / 1000 Ang^3
#
#
#
# Elastic Constant Matrix: (Units=GPa)
#
#
# Indices 1 2 3 4 5 6 
#
# 1 82.0268 27.3598 13.9395 0.0000 0.0000 0.0000
# 2 27.3598 111.9088 23.5661 0.0000 0.0000 0.0000
# 3 13.9395 23.5661 65.7569 0.0000 0.0000 0.0000
# 4 0.0000 0.0000 0.0000 8.8922 0.0000 0.0000
# 5 0.0000 0.0000 0.0000 0.0000 55.6292 0.0000
# 6 0.0000 0.0000 0.0000 0.0000 0.0000 33.3353
#
#
#
# Elastic Compliance Matrix: (Units=1/GPa)
#
#
# Indices 1 2 3 4 5 6 
#
# 1 0.013470 -0.002912 -0.001812 0.000000 0.000000 0.000000
# 2 -0.002912 0.010295 -0.003072 0.000000 0.000000 0.000000
# 3 -0.001812 -0.003072 0.016693 0.000000 0.000000 0.000000
# 4 0.000000 0.000000 0.000000 0.112458 0.000000 0.000000
# 5 0.000000 0.000000 0.000000 0.000000 0.017976 0.000000
# 6 0.000000 0.000000 0.000000 0.000000 0.000000 0.029998
#
#
# Mechanical properties :
#
#
# Convention : Reuss Voigt Hill
#
# Bulk Modulus (GPa) = 40.21581 43.26925 41.74253
# Shear Modulus (GPa) = 22.24494 32.55981 27.40237
#
# Velocity S-wave (km/s) = 3.51197 4.24889 3.89788
# Velocity P-wave (km/s) = 6.22441 6.93267 6.58806
#
# Compressibility (1/GPa) = 0.02486584
#
# Stress axis : x y z
#
# Youngs Moduli (GPa) = 74.23771 97.13782 59.90660
#
# Poissons Ratio (x) = 0.28283 0.10855
# Poissons Ratio (y) = 0.21616 0.18404
# Poissons Ratio (z) = 0.13452 0.29843
#
# Static dielectric constant tensor:
#      x y z
#    x 1.613290 0.000000 0.000000 
#    y 0.000000 1.633260 0.000000 
#    z 0.000000 0.000000 1.596520 
# 
# From -- ./inp_files/42204.got.cif
#   From: 2010.05.17/outbox.cif.g08.bks.cpg/sg67_22_cif.got.tgz:42204.got - 2010.06.03 18:28:57.
