data_PCOD9504825
_publ_section_title
;
Structure prediction by ZEFSAII (Michael W. Deem and Ramdas Pophale) SiO2 
 PCOD9504825
Probable space group: C M M A
;
_chemical_formula_sum "Si O2"
_cell_formula_units_Z 48
_cell_length_a 29.093847
_cell_length_b 11.612200
_cell_length_c 6.458641
_cell_angle_alpha 90.000000
_cell_angle_beta 90.000000
_cell_angle_gamma 90.000000
_cell_volume 2182.010334
_symmetry_space_group_name_H-M "C M M A"
_symmetry_group_IT_number 67
_symmetry_cell_setting 'orthorhombic'
loop_
_space_group_symop_operation_xyz
x,y,z
-x,1/2-y,z
x,-y,-z
-x,1/2+y,-z
-x,-y,-z
x,1/2+y,-z
-x,y,z
x,1/2-y,z
1/2+x,1/2+y,z
1/2-x,-y,z
1/2+x,1/2-y,-z
1/2-x,y,-z
1/2-x,1/2-y,-z
1/2+x,y,-z
1/2-x,1/2+y,z
1/2+x,-y,z
loop_
_atom_site_type_symbol
_atom_site_label
_atom_site_fract_x
_atom_site_fract_y
_atom_site_fract_z
Si Si1 0.051071 0.750000 0.493615
Si Si2 0.152468 0.500000 0.500000
Si Si3 0.625351 0.750000 0.881825
Si Si4 0.696360 0.250000 0.451821
Si Si5 0.583080 0.065818 0.821012
O O1 0.088850 0.750000 0.311542
O O2 0.057153 0.641343 0.649023
O O3 0.000000 0.750000 0.402844
O O4 0.178189 0.623123 0.529084
O O5 0.118178 0.487876 0.692567
O O6 0.675925 0.750000 0.781983
O O7 0.614688 0.852574 0.039755
O O8 0.750000 0.250000 0.500000
O O9 0.554884 0.000000 0.000000
#
# Coordination Sequence:
#
# PCOD9504825 Si02
#       5
#     8   8   8   8  16
#     4  11  24  42  66 102 145 188 247 313 369 431
#     4  12  23  48  71 104 144 192 237 306 363 430
#     4  11  22  43  69  99 144 189 236 297 367 435
#     4  12  24  43  76 105 142 188 238 299 361 430
#     4  11  21  40  73  95 136 197 241 291 371 436
#
# _framework density 21.998062999999998
#
# number of rings (size 3 to 8) (size 9 to 14) (size 15 to 20)
#    0.000    0.667    6.667    1.500    0.000    3.333 
#    0.000    9.167    0.000    0.000    0.000    0.000 
#    0.000    0.000    0.000    0.000    0.000    0.000 
#
# Total GULP energy -133618.529425 kJ/mol
# GULP energy per Si atom -5567.438726 kJ/mol
# Density = 2.194799 g / cm^3
# Si number density = 21.998063 Si / 1000 Ang^3
#
#
#
# Elastic Constant Matrix: (Units=GPa)
#
#
# Indices 1 2 3 4 5 6 
#
# 1 125.1307 46.4009 43.6083 0.0000 0.0000 0.0000
# 2 46.4009 141.3518 37.9721 0.0000 0.0000 0.0000
# 3 43.6083 37.9721 129.2121 0.0000 0.0000 0.0000
# 4 0.0000 0.0000 0.0000 60.6862 0.0000 0.0000
# 5 0.0000 0.0000 0.0000 0.0000 2.3914 0.0000
# 6 0.0000 0.0000 0.0000 0.0000 0.0000 -191.6387
#
#
#
# Elastic Compliance Matrix: (Units=1/GPa)
#
#
# Indices 1 2 3 4 5 6 
#
# 1 0.009828 -0.002535 -0.002572 0.000000 0.000000 0.000000
# 2 -0.002535 0.008335 -0.001594 0.000000 0.000000 0.000000
# 3 -0.002572 -0.001594 0.009076 0.000000 0.000000 0.000000
# 4 0.000000 0.000000 0.000000 0.016478 0.000000 0.000000
# 5 0.000000 0.000000 0.000000 0.000000 0.418167 0.000000
# 6 0.000000 0.000000 0.000000 0.000000 0.000000 -0.005218
#
#
# Mechanical properties :
#
#
# Convention : Reuss Voigt Hill
#
# Bulk Modulus (GPa) = 72.27156 72.40636 72.33896
# Shear Modulus (GPa) = 10.53341 -7.86467 1.33437
#
# Velocity S-wave (km/s) = 2.19060 -1.89286 0.77968
# Velocity P-wave (km/s) = 6.27082 5.31122 5.81087
#
# Compressibility (1/GPa) = 0.01383670
#
# Stress axis : x y z
#
# Youngs Moduli (GPa) = 101.74920 119.97669 110.18596
#
# Poissons Ratio (x) = 0.30418 0.28338
# Poissons Ratio (y) = 0.25797 0.17561
# Poissons Ratio (z) = 0.26168 0.19122
#
# Static dielectric constant tensor:
#      x y z
#    x 1.760150 0.000000 0.000000 
#    y 0.000000 2.095010 0.000000 
#    z 0.000000 0.000000 1.785820 
# 
# From -- ./inp_files/4428.got.cif
#   From: 2010.05.17/outbox.cif.g08.bks.cpg/sg67_3_cif.got.tgz:4428.got - 2010.06.03 18:28:57.
