data_PCOD9504970
_publ_section_title
;
Structure prediction by ZEFSAII (Michael W. Deem and Ramdas Pophale) SiO2 
 PCOD9504970
Probable space group: C M M A
;
_chemical_formula_sum "Si O2"
_cell_formula_units_Z 44
_cell_length_a 14.215250
_cell_length_b 14.038401
_cell_length_c 9.851276
_cell_angle_alpha 90.000000
_cell_angle_beta 90.000000
_cell_angle_gamma 90.000000
_cell_volume 1965.914529
_symmetry_space_group_name_H-M "C M M A"
_symmetry_group_IT_number 67
_symmetry_cell_setting 'orthorhombic'
loop_
_space_group_symop_operation_xyz
x,y,z
-x,1/2-y,z
x,-y,-z
-x,1/2+y,-z
-x,-y,-z
x,1/2+y,-z
-x,y,z
x,1/2-y,z
1/2+x,1/2+y,z
1/2-x,-y,z
1/2+x,1/2-y,-z
1/2-x,y,-z
1/2-x,1/2-y,-z
1/2+x,y,-z
1/2-x,1/2+y,z
1/2+x,-y,z
loop_
_atom_site_type_symbol
_atom_site_label
_atom_site_fract_x
_atom_site_fract_y
_atom_site_fract_z
Si Si1 0.000000 0.436066 0.799305
Si Si2 0.500000 0.750000 0.990088
Si Si3 0.806714 0.750000 0.861346
Si Si4 0.337893 0.562645 0.295815
Si Si5 0.000000 0.136873 0.490716
O O1 0.093197 0.502490 0.805296
O O2 0.000000 0.346117 0.899513
O O3 0.000000 0.394222 0.646386
O O4 0.413133 0.750000 0.090136
O O5 0.793281 0.844963 0.775200
O O6 0.750000 0.750000 0.000000
O O7 0.250000 0.500000 0.340655
O O8 0.408233 0.596926 0.413879
O O9 0.000000 0.250000 0.479564
#
# Coordination Sequence:
#
# PCOD9504970 Si02
#       5
#     8   4   8  16   8
#     4  11  25  41  70 100 139 172 227 275 337 408
#     4  12  24  42  64 100 132 186 220 274 332 392
#     4  12  26  43  67  95 137 176 233 274 328 398
#     4  11  24  44  70  99 133 179 225 280 339 394
#     4  11  22  47  73  99 136 176 220 280 339 407
#
# _framework density 22.381440000000001
#
# number of rings (size 3 to 8) (size 9 to 14) (size 15 to 20)
#    0.000    0.727    2.727    6.545    0.000    9.455 
#    0.000    1.818    0.000    0.000    0.000    0.000 
#    0.000    0.000    0.000    0.000    0.000    0.000 
#
# Total GULP energy -123267.612882 kJ/mol
# GULP energy per Si atom -5603.073313 kJ/mol
# Density = 2.233050 g / cm^3
# Si number density = 22.381440 Si / 1000 Ang^3
#
#
#
# Elastic Constant Matrix: (Units=GPa)
#
#
# Indices 1 2 3 4 5 6 
#
# 1 120.5098 47.0799 10.9447 0.0000 0.0000 0.0000
# 2 47.0799 196.4449 49.5019 0.0000 0.0000 0.0000
# 3 10.9447 49.5019 79.3176 0.0000 0.0000 0.0000
# 4 0.0000 0.0000 0.0000 1.6719 0.0000 0.0000
# 5 0.0000 0.0000 0.0000 0.0000 16.9696 0.0000
# 6 0.0000 0.0000 0.0000 0.0000 0.0000 77.4582
#
#
#
# Elastic Compliance Matrix: (Units=1/GPa)
#
#
# Indices 1 2 3 4 5 6 
#
# 1 0.009156 -0.002226 0.000126 0.000000 0.000000 0.000000
# 2 -0.002226 0.006582 -0.003800 0.000000 0.000000 0.000000
# 3 0.000126 -0.003800 0.014962 0.000000 0.000000 0.000000
# 4 0.000000 0.000000 0.000000 0.598121 0.000000 0.000000
# 5 0.000000 0.000000 0.000000 0.000000 0.058929 0.000000
# 6 0.000000 0.000000 0.000000 0.000000 0.000000 0.012910
#
#
# Mechanical properties :
#
#
# Convention : Reuss Voigt Hill
#
# Bulk Modulus (GPa) = 52.91380 67.92501 60.41941
# Shear Modulus (GPa) = 6.95641 38.46967 22.71304
#
# Velocity S-wave (km/s) = 1.76490 4.15036 3.18907
# Velocity P-wave (km/s) = 5.27696 7.30630 6.37293
#
# Compressibility (1/GPa) = 0.01889866
#
# Stress axis : x y z
#
# Youngs Moduli (GPa) = 109.21404 151.93735 66.83597
#
# Poissons Ratio (x) = 0.33823 -0.00841
# Poissons Ratio (y) = 0.24312 0.25400
# Poissons Ratio (z) = -0.01375 0.57743
#
# Static dielectric constant tensor:
#      x y z
#    x 1.777690 0.000000 0.000000 
#    y 0.000000 0.643690 0.000000 
#    z 0.000000 0.000000 1.782800 
# 
# From -- ./inp_files/17108.got.cif
#   From: 2010.05.17/outbox.cif.g08.bks.cpg/sg67_9_cif.got.tgz:17108.got - 2010.06.03 18:28:57.
