data_PCOD9504511
_publ_section_title
;
Structure prediction by ZEFSAII (Michael W. Deem and Ramdas Pophale) SiO2 
 PCOD9504511
Probable space group: C M M A
;
_chemical_formula_sum "Si O2"
_cell_formula_units_Z 64
_cell_length_a 9.236283
_cell_length_b 18.200909
_cell_length_c 19.440280
_cell_angle_alpha 90.000000
_cell_angle_beta 90.000000
_cell_angle_gamma 90.000000
_cell_volume 3268.081100
_symmetry_space_group_name_H-M "C M M A"
_symmetry_group_IT_number 67
_symmetry_cell_setting 'orthorhombic'
loop_
_space_group_symop_operation_xyz
x,y,z
-x,1/2-y,z
x,-y,-z
-x,1/2+y,-z
-x,-y,-z
x,1/2+y,-z
-x,y,z
x,1/2-y,z
1/2+x,1/2+y,z
1/2-x,-y,z
1/2+x,1/2-y,-z
1/2-x,y,-z
1/2-x,1/2-y,-z
1/2+x,y,-z
1/2-x,1/2+y,z
1/2+x,-y,z
loop_
_atom_site_type_symbol
_atom_site_label
_atom_site_fract_x
_atom_site_fract_y
_atom_site_fract_z
Si Si1 0.823583 0.080422 0.430647
Si Si2 0.000000 0.436213 0.910467
Si Si3 0.767640 0.666329 0.150859
Si Si4 0.000000 0.890624 0.930228
Si Si5 0.170217 0.663718 0.307560
O O1 0.750000 0.112938 0.500000
O O2 0.764932 0.123527 0.364661
O O3 0.000000 0.077374 0.434966
O O4 0.750000 0.000000 0.425276
O O5 0.866933 0.400225 0.872367
O O6 0.000000 0.523848 0.906787
O O7 0.000000 0.402973 0.987854
O O8 0.824160 0.750000 0.140753
O O9 0.632215 0.653841 0.101760
O O10 0.754068 0.657381 0.232881
O O11 0.165080 0.750000 0.323990
O O12 0.000000 0.638578 0.303886
#
# Coordination Sequence:
#
# PCOD9504511 Si02
#       5
#    16   8  16   8  16
#     4  11  23  41  66  96 131 168 210 258 308 370
#     4  11  23  43  61  87 126 167 212 259 333 382
#     4  11  23  41  64  90 124 167 214 264 318 383
#     4  11  25  39  61  93 126 161 208 275 321 388
#     4  10  22  42  64  89 126 167 209 260 317 377
#
# _framework density 19.583359000000002
#
# number of rings (size 3 to 8) (size 9 to 14) (size 15 to 20)
#    0.000    1.250    1.250    5.250    1.750    8.000 
#    0.000    0.000    0.000    0.000    0.000    0.000 
#    0.000    0.000    0.000    0.000    0.000    0.000 
#
# Total GULP energy -178394.331023 kJ/mol
# GULP energy per Si atom -5574.822844 kJ/mol
# Density = 1.953879 g / cm^3
# Si number density = 19.583359 Si / 1000 Ang^3
#
#
#
# Elastic Constant Matrix: (Units=GPa)
#
#
# Indices 1 2 3 4 5 6 
#
# 1 63.2440 8.6444 14.4056 0.0000 0.0000 0.0000
# 2 8.6444 70.9755 64.3882 0.0000 0.0000 0.0000
# 3 14.4056 64.3882 105.5940 0.0000 0.0000 0.0000
# 4 0.0000 0.0000 0.0000 43.3970 0.0000 0.0000
# 5 0.0000 0.0000 0.0000 0.0000 39.1322 0.0000
# 6 0.0000 0.0000 0.0000 0.0000 0.0000 28.5813
#
#
#
# Elastic Compliance Matrix: (Units=1/GPa)
#
#
# Indices 1 2 3 4 5 6 
#
# 1 0.016319 0.000072 -0.002270 0.000000 0.000000 0.000000
# 2 0.000072 0.031533 -0.019238 0.000000 0.000000 0.000000
# 3 -0.002270 -0.019238 0.021510 0.000000 0.000000 0.000000
# 4 0.000000 0.000000 0.000000 0.023043 0.000000 0.000000
# 5 0.000000 0.000000 0.000000 0.000000 0.025554 0.000000
# 6 0.000000 0.000000 0.000000 0.000000 0.000000 0.034988
#
#
# Mechanical properties :
#
#
# Convention : Reuss Voigt Hill
#
# Bulk Modulus (GPa) = 37.74923 46.07663 41.91293
# Shear Modulus (GPa) = 24.43203 32.38045 28.40624
#
# Velocity S-wave (km/s) = 3.53596 4.07070 3.81271
# Velocity P-wave (km/s) = 5.99906 6.75823 6.38993
#
# Compressibility (1/GPa) = 0.02649061
#
# Stress axis : x y z
#
# Youngs Moduli (GPa) = 61.27807 31.71311 46.48909
#
# Poissons Ratio (x) = -0.00228 0.10554
# Poissons Ratio (y) = -0.00441 0.89434
# Poissons Ratio (z) = 0.13911 0.61008
#
# Static dielectric constant tensor:
#      x y z
#    x 1.843340 0.000000 0.000000 
#    y 0.000000 1.658160 0.000000 
#    z 0.000000 0.000000 1.675170 
# 
# From -- ./inp_files/31760.got.cif
#   From: 2010.05.17/outbox.cif.g08.bks.cpg/sg67_16_cif.got.tgz:31760.got - 2010.06.03 18:28:57.
