data_PCOD9504756
_publ_section_title
;
Structure prediction by ZEFSAII (Michael W. Deem and Ramdas Pophale) SiO2 
 PCOD9504756
Probable space group: C M M A
;
_chemical_formula_sum "Si O2"
_cell_formula_units_Z 128
_cell_length_a 16.925563
_cell_length_b 24.702413
_cell_length_c 16.835408
_cell_angle_alpha 90.000000
_cell_angle_beta 90.000000
_cell_angle_gamma 90.000000
_cell_volume 7038.921922
_symmetry_space_group_name_H-M "C M M A"
_symmetry_group_IT_number 67
_symmetry_cell_setting 'orthorhombic'
loop_
_space_group_symop_operation_xyz
x,y,z
-x,1/2-y,z
x,-y,-z
-x,1/2+y,-z
-x,-y,-z
x,1/2+y,-z
-x,y,z
x,1/2-y,z
1/2+x,1/2+y,z
1/2-x,-y,z
1/2+x,1/2-y,-z
1/2-x,y,-z
1/2-x,1/2-y,-z
1/2+x,y,-z
1/2-x,1/2+y,z
1/2+x,-y,z
loop_
_atom_site_type_symbol
_atom_site_label
_atom_site_fract_x
_atom_site_fract_y
_atom_site_fract_z
Si Si1 0.410232 0.988484 0.911321
Si Si2 0.194151 0.590800 0.195714
Si Si3 0.585939 0.964465 0.580256
Si Si4 0.911290 0.422671 0.345024
Si Si5 0.259174 0.936491 0.625047
Si Si6 0.625539 0.399130 0.835447
Si Si7 0.405854 0.814812 0.858147
Si Si8 0.906302 0.810012 0.964269
O O1 0.500000 0.966525 0.918235
O O2 0.357381 0.950075 0.856922
O O3 0.411441 0.046737 0.870651
O O4 0.379359 0.000000 0.000000
O O5 0.215705 0.569157 0.283099
O O6 0.280096 0.597365 0.158162
O O7 0.145884 0.646990 0.198008
O O8 0.500000 0.938058 0.586310
O O9 0.659249 0.923650 0.580473
O O10 0.587791 0.000000 0.500000
O O11 0.589716 0.011124 0.649257
O O12 0.826505 0.409188 0.386345
O O13 0.901243 0.399267 0.256417
O O14 0.000000 0.407790 0.375029
O O15 0.250000 0.000000 0.604237
O O16 0.603824 0.348815 0.890155
O O17 0.500000 0.825228 0.848759
O O18 0.394261 0.750000 0.848764
O O19 0.378902 0.829532 0.948687
O O20 0.872898 0.750000 0.949428
O O21 0.000000 0.804763 0.976105
#
# Coordination Sequence:
#
# PCOD9504756 Si02
#       8
#    16  16  16  16  16  16  16  16
#     4  11  22  32  43  60  84 118 156 190 231 285
#     4  11  21  32  46  66  91 119 154 195 238 287
#     4   9  17  29  46  69  97 128 159 191 230 278
#     4   9  17  29  44  61  86 121 153 184 227 274
#     4   9  18  30  44  66  93 123 158 193 230 276
#     4  11  21  32  46  66  93 120 151 195 244 287
#     4   9  19  35  51  66  87 118 158 204 250 293
#     4   9  18  33  51  68  87 117 159 202 245 295
#
# _framework density 18.184602000000002
#
# number of rings (size 3 to 8) (size 9 to 14) (size 15 to 20)
#    0.000    2.250    0.000    5.625    0.000    9.250 
#    0.000    1.250    0.000    0.000    0.000    0.000 
#    0.000    1.000    0.000   16.000    0.000   20.750 
#
# Total GULP energy -356304.838155 kJ/mol
# GULP energy per Si atom -5567.263096 kJ/mol
# Density = 1.814321 g / cm^3
# Si number density = 18.184602 Si / 1000 Ang^3
#
#
#
# Elastic Constant Matrix: (Units=GPa)
#
#
# Indices 1 2 3 4 5 6 
#
# 1 142.1981 11.8189 16.6611 0.0000 0.0000 0.0000
# 2 11.8189 35.5846 2.6140 0.0000 0.0000 0.0000
# 3 16.6611 2.6140 29.0914 0.0000 0.0000 0.0000
# 4 0.0000 0.0000 0.0000 8.6707 0.0000 0.0000
# 5 0.0000 0.0000 0.0000 0.0000 18.2186 0.0000
# 6 0.0000 0.0000 0.0000 0.0000 0.0000 18.6858
#
#
#
# Elastic Compliance Matrix: (Units=1/GPa)
#
#
# Indices 1 2 3 4 5 6 
#
# 1 0.007714 -0.002252 -0.004215 0.000000 0.000000 0.000000
# 2 -0.002252 0.028946 -0.001311 0.000000 0.000000 0.000000
# 3 -0.004215 -0.001311 0.036906 0.000000 0.000000 0.000000
# 4 0.000000 0.000000 0.000000 0.115331 0.000000 0.000000
# 5 0.000000 0.000000 0.000000 0.000000 0.054889 0.000000
# 6 0.000000 0.000000 0.000000 0.000000 0.000000 0.053517
#
#
# Mechanical properties :
#
#
# Convention : Reuss Voigt Hill
#
# Bulk Modulus (GPa) = 17.23867 29.89577 23.56722
# Shear Modulus (GPa) = 15.05131 20.83368 17.94250
#
# Velocity S-wave (km/s) = 2.88009 3.38846 3.14456
# Velocity P-wave (km/s) = 4.53435 5.63779 5.11591
#
# Compressibility (1/GPa) = 0.05800912
#
# Stress axis : x y z
#
# Youngs Moduli (GPa) = 129.64220 34.54662 27.09555
#
# Poissons Ratio (x) = 0.07781 0.11422
# Poissons Ratio (y) = 0.29199 0.03552
# Poissons Ratio (z) = 0.54648 0.04529
#
# Static dielectric constant tensor:
#      x y z
#    x 1.722850 0.000000 0.000000 
#    y 0.000000 1.608380 0.000000 
#    z 0.000000 0.000000 1.666910 
# 
# From -- ./inp_files/34547.got.cif
#   From: 2010.05.17/outbox.cif.g08.bks.cpg/sg67_18_cif.got.tgz:34547.got - 2010.06.03 18:28:57.
