data_PCOD9504749
_publ_section_title
;
Structure prediction by ZEFSAII (Michael W. Deem and Ramdas Pophale) SiO2 
 PCOD9504749
Probable space group: C M M A
;
_chemical_formula_sum "Si O2"
_cell_formula_units_Z 96
_cell_length_a 15.640601
_cell_length_b 22.376418
_cell_length_c 14.096912
_cell_angle_alpha 90.000000
_cell_angle_beta 90.000000
_cell_angle_gamma 90.000000
_cell_volume 4933.646083
_symmetry_space_group_name_H-M "C M M A"
_symmetry_group_IT_number 67
_symmetry_cell_setting 'orthorhombic'
loop_
_space_group_symop_operation_xyz
x,y,z
-x,1/2-y,z
x,-y,-z
-x,1/2+y,-z
-x,-y,-z
x,1/2+y,-z
-x,y,z
x,1/2-y,z
1/2+x,1/2+y,z
1/2-x,-y,z
1/2+x,1/2-y,-z
1/2-x,y,-z
1/2-x,1/2-y,-z
1/2+x,y,-z
1/2-x,1/2+y,z
1/2+x,-y,z
loop_
_atom_site_type_symbol
_atom_site_label
_atom_site_fract_x
_atom_site_fract_y
_atom_site_fract_z
Si Si1 0.101469 0.250000 0.236148
Si Si2 0.154630 0.380413 0.209595
Si Si3 0.845033 0.879076 0.467257
Si Si4 0.904243 0.040196 0.373849
Si Si5 0.500000 0.576921 0.081323
Si Si6 0.902224 0.250000 0.463258
Si Si7 0.000000 0.062901 0.868097
Si Si8 0.337844 0.073280 0.267293
O O1 0.151259 0.309191 0.204827
O O2 0.101155 0.250000 0.349942
O O3 0.000000 0.250000 0.206497
O O4 0.111647 0.401672 0.308422
O O5 0.087884 0.401454 0.129927
O O6 0.248758 0.410248 0.214952
O O7 0.750000 0.894346 0.500000
O O8 0.896132 0.932333 0.520708
O O9 0.863627 0.812252 0.501278
O O10 0.851526 0.881346 0.354356
O O11 0.000000 0.017608 0.359506
O O12 0.844127 0.989714 0.326242
O O13 0.500000 0.506650 0.103698
O O14 0.500000 0.593828 0.970814
O O15 0.000000 0.250000 0.494899
O O16 0.915423 0.074895 0.806542
#
# Coordination Sequence:
#
# PCOD9504749 Si02
#       8
#     8  16  16  16   8   8   8  16
#     4  11  20  39  69 101 130 175 224 288 327 368
#     4  12  22  40  71  98 132 165 223 284 333 389
#     4  12  25  37  60  93 137 183 224 268 322 394
#     4  12  22  39  62  96 135 179 217 265 322 396
#     4  11  24  45  71 101 123 165 222 290 352 395
#     4  11  23  37  57  87 131 180 233 270 316 386
#     4  11  26  44  66  96 138 173 216 274 347 413
#     4  12  25  41  64  95 142 178 215 265 337 407
#
# _framework density 19.458226
#
# number of rings (size 3 to 8) (size 9 to 14) (size 15 to 20)
#    0.000    0.333    7.500    1.750    2.333    2.667 
#    0.000    1.667    0.000    5.000    0.000    0.000 
#    0.000    0.000    0.000    0.000    0.000    0.000 
#
# Total GULP energy -267892.235890 kJ/mol
# GULP energy per Si atom -5581.088248 kJ/mol
# Density = 1.941394 g / cm^3
# Si number density = 19.458226 Si / 1000 Ang^3
#
#
#
# Elastic Constant Matrix: (Units=GPa)
#
#
# Indices 1 2 3 4 5 6 
#
# 1 163.1559 49.1077 63.7803 0.0000 0.0000 0.0000
# 2 49.1077 102.8696 14.0455 0.0000 0.0000 0.0000
# 3 63.7803 14.0455 123.8267 0.0000 0.0000 0.0000
# 4 0.0000 0.0000 0.0000 17.2198 0.0000 0.0000
# 5 0.0000 0.0000 0.0000 0.0000 -2.0234 0.0000
# 6 0.0000 0.0000 0.0000 0.0000 0.0000 121.3426
#
#
#
# Elastic Compliance Matrix: (Units=1/GPa)
#
#
# Indices 1 2 3 4 5 6 
#
# 1 0.008850 -0.003659 -0.004143 0.000000 0.000000 0.000000
# 2 -0.003659 0.011387 0.000593 0.000000 0.000000 0.000000
# 3 -0.004143 0.000593 0.010143 0.000000 0.000000 0.000000
# 4 0.000000 0.000000 0.000000 0.058073 0.000000 0.000000
# 5 0.000000 0.000000 0.000000 0.000000 -0.494216 0.000000
# 6 0.000000 0.000000 0.000000 0.000000 0.000000 0.008241
#
#
# Mechanical properties :
#
#
# Convention : Reuss Voigt Hill
#
# Bulk Modulus (GPa) = 62.65343 71.52435 67.08889
# Shear Modulus (GPa) = -13.23509 44.83571 15.80031
#
# Velocity S-wave (km/s) = -2.61085 4.80542 2.85267
# Velocity P-wave (km/s) = 4.81457 8.22357 6.73822
#
# Compressibility (1/GPa) = 0.01596082
#
# Stress axis : x y z
#
# Youngs Moduli (GPa) = 112.99153 87.82051 98.59272
#
# Poissons Ratio (x) = 0.32135 0.40852
# Poissons Ratio (y) = 0.41345 -0.05848
# Poissons Ratio (z) = 0.46818 -0.05209
#
# Static dielectric constant tensor:
#      x y z
#    x 1.631850 0.000000 0.000000 
#    y 0.000000 1.276960 0.000000 
#    z 0.000000 0.000000 1.714300 
# 
# From -- ./inp_files/27314.got.cif
#   From: 2010.05.17/outbox.cif.g08.bks.cpg/sg67_14_cif.got.tgz:27314.got - 2010.06.03 18:28:57.
