data_PCOD9504360
_publ_section_title
;
Structure prediction by ZEFSAII (Michael W. Deem and Ramdas Pophale) SiO2 
 PCOD9504360
Probable space group: C M M A
;
_chemical_formula_sum "Si O2"
_cell_formula_units_Z 72
_cell_length_a 9.729264
_cell_length_b 15.034342
_cell_length_c 25.792658
_cell_angle_alpha 90.000000
_cell_angle_beta 90.000000
_cell_angle_gamma 90.000000
_cell_volume 3772.771589
_symmetry_space_group_name_H-M "C M M A"
_symmetry_group_IT_number 67
_symmetry_cell_setting 'orthorhombic'
loop_
_space_group_symop_operation_xyz
x,y,z
-x,1/2-y,z
x,-y,-z
-x,1/2+y,-z
-x,-y,-z
x,1/2+y,-z
-x,y,z
x,1/2-y,z
1/2+x,1/2+y,z
1/2-x,-y,z
1/2+x,1/2-y,-z
1/2-x,y,-z
1/2-x,1/2-y,-z
1/2+x,y,-z
1/2-x,1/2+y,z
1/2+x,-y,z
loop_
_atom_site_type_symbol
_atom_site_label
_atom_site_fract_x
_atom_site_fract_y
_atom_site_fract_z
Si Si1 0.343486 0.641048 0.548763
Si Si2 0.653793 0.854308 0.359627
Si Si3 0.162439 0.088951 0.245570
Si Si4 0.163708 0.409276 0.130594
Si Si5 0.664753 0.250000 0.947354
O O1 0.500000 0.609559 0.544715
O O2 0.348890 0.750000 0.548894
O O3 0.250000 0.615263 0.500000
O O4 0.268158 0.610216 0.601297
O O5 0.500000 0.893122 0.367118
O O6 0.642876 0.750000 0.371963
O O7 0.691667 0.860933 0.299047
O O8 0.189407 0.129538 0.188702
O O9 0.000000 0.069328 0.246478
O O10 0.250000 0.000000 0.247387
O O11 0.250000 0.500000 0.125062
O O12 0.197123 0.336756 0.087253
O O13 0.000000 0.428561 0.127213
O O14 0.500000 0.250000 0.957052
O O15 0.750000 0.250000 0.000000
#
# Coordination Sequence:
#
# PCOD9504360 Si02
#       5
#    16  16  16  16   8
#     4   9  16  26  41  62  91 125 160 201 248 299
#     4   9  17  28  45  70  95 122 159 202 247 299
#     4   9  18  32  51  73  99 131 166 204 251 305
#     4   9  19  36  57  81 110 146 185 226 272 323
#     4  10  22  38  58  84 114 148 187 228 271 320
#
# _framework density 19.084112999999999
#
# number of rings (size 3 to 8) (size 9 to 14) (size 15 to 20)
#    0.000    2.889    0.000    0.667    1.556    4.889 
#    0.000    2.222    0.000    0.667    0.000    4.667 
#    0.000    0.000    0.000    0.000    0.000    0.000 
#
# Total GULP energy -200601.471023 kJ/mol
# GULP energy per Si atom -5572.263084 kJ/mol
# Density = 1.904068 g / cm^3
# Si number density = 19.084113 Si / 1000 Ang^3
#
#
#
# Elastic Constant Matrix: (Units=GPa)
#
#
# Indices 1 2 3 4 5 6 
#
# 1 94.2492 36.2876 106.7734 0.0000 0.0000 0.0000
# 2 36.2876 45.6879 40.4647 0.0000 0.0000 0.0000
# 3 106.7734 40.4647 175.9100 0.0000 0.0000 0.0000
# 4 0.0000 0.0000 0.0000 -58.6785 0.0000 0.0000
# 5 0.0000 0.0000 0.0000 0.0000 35.8107 0.0000
# 6 0.0000 0.0000 0.0000 0.0000 0.0000 15.7290
#
#
#
# Elastic Compliance Matrix: (Units=1/GPa)
#
#
# Indices 1 2 3 4 5 6 
#
# 1 0.038971 -0.012562 -0.020765 0.000000 0.000000 0.000000
# 2 -0.012562 0.031537 0.000370 0.000000 0.000000 0.000000
# 3 -0.020765 0.000370 0.018203 0.000000 0.000000 0.000000
# 4 0.000000 0.000000 0.000000 -0.017042 0.000000 0.000000
# 5 0.000000 0.000000 0.000000 0.000000 0.027925 0.000000
# 6 0.000000 0.000000 0.000000 0.000000 0.000000 0.063577
#
#
# Mechanical properties :
#
#
# Convention : Reuss Voigt Hill
#
# Bulk Modulus (GPa) = 43.86264 75.87760 59.87012
# Shear Modulus (GPa) = 21.12539 7.39368 14.25953
#
# Velocity S-wave (km/s) = 3.33071 1.97045 2.73645
# Velocity P-wave (km/s) = 6.15023 6.70990 6.43615
#
# Compressibility (1/GPa) = 0.02279845
#
# Stress axis : x y z
#
# Youngs Moduli (GPa) = 25.66031 31.70892 54.93507
#
# Poissons Ratio (x) = 0.39832 1.14071
# Poissons Ratio (y) = 0.32234 -0.02034
# Poissons Ratio (z) = 0.53283 -0.01174
#
# Static dielectric constant tensor:
#      x y z
#    x 1.656260 0.000000 0.000000 
#    y 0.000000 1.661480 0.000000 
#    z 0.000000 0.000000 1.683240 
# 
# From -- ./inp_files/40514.got.cif
#   From: 2010.05.17/outbox.cif.g08.bks.cpg/sg67_21_cif.got.tgz:40514.got - 2010.06.03 18:28:57.
