data_PCOD9504814
_publ_section_title
;
Structure prediction by ZEFSAII (Michael W. Deem and Ramdas Pophale) SiO2 
 PCOD9504814
Probable space group: C M M A
;
_chemical_formula_sum "Si O2"
_cell_formula_units_Z 116
_cell_length_a 29.290273
_cell_length_b 17.350704
_cell_length_c 11.517564
_cell_angle_alpha 90.000000
_cell_angle_beta 90.000000
_cell_angle_gamma 90.000000
_cell_volume 5853.305000
_symmetry_space_group_name_H-M "C M M A"
_symmetry_group_IT_number 67
_symmetry_cell_setting 'orthorhombic'
loop_
_space_group_symop_operation_xyz
x,y,z
-x,1/2-y,z
x,-y,-z
-x,1/2+y,-z
-x,-y,-z
x,1/2+y,-z
-x,y,z
x,1/2-y,z
1/2+x,1/2+y,z
1/2-x,-y,z
1/2+x,1/2-y,-z
1/2-x,y,-z
1/2-x,1/2-y,-z
1/2+x,y,-z
1/2-x,1/2+y,z
1/2+x,-y,z
loop_
_atom_site_type_symbol
_atom_site_label
_atom_site_fract_x
_atom_site_fract_y
_atom_site_fract_z
Si Si1 0.922150 0.615352 0.772249
Si Si2 0.839164 0.409940 0.046971
Si Si3 0.697282 0.660667 0.618708
Si Si4 0.550151 0.038374 0.127831
Si Si5 0.371936 0.337120 0.170447
Si Si6 0.500000 0.250000 0.788557
Si Si7 0.276894 0.926737 0.248257
Si Si8 0.855622 0.571188 0.578344
O O1 0.884480 0.610716 0.876565
O O2 0.945677 0.531875 0.782813
O O3 0.959268 0.682175 0.787065
O O4 0.894427 0.616238 0.650304
O O5 0.798518 0.389788 0.134700
O O6 0.838995 0.500000 0.000000
O O7 0.838526 0.356365 0.935464
O O8 0.707237 0.750000 0.598663
O O9 0.657031 0.654122 0.713477
O O10 0.742407 0.620995 0.671389
O O11 0.675853 0.622945 0.504589
O O12 0.500000 0.074224 0.131553
O O13 0.588276 0.100629 0.156103
O O14 0.555004 0.000000 0.000000
O O15 0.389514 0.250000 0.162580
O O16 0.319826 0.957268 0.323910
O O17 0.250000 0.000000 0.204314
O O18 0.872730 0.500000 0.500000
#
# Coordination Sequence:
#
# PCOD9504814 Si02
#       8
#    16  16  16  16  16   4  16  16
#     4  11  23  42  67  96 132 169 212 284 337 402
#     4  11  22  40  64  95 136 177 215 270 340 395
#     4  11  25  42  61  90 132 174 218 279 328 381
#     4  11  21  39  64  94 130 163 206 271 341 399
#     4  11  23  40  63  89 130 177 223 265 325 406
#     4  12  28  44  68 108 134 162 232 290 344 416
#     4  11  23  38  64  99 127 169 227 275 318 397
#     4  11  23  41  70  92 126 174 225 270 333 400
#
# _framework density 19.817864
#
# number of rings (size 3 to 8) (size 9 to 14) (size 15 to 20)
#    0.000    0.966    4.828    2.069    1.931    3.862 
#    2.483    1.724    1.517    0.000    0.000    0.000 
#    0.000    0.000    0.000    0.000    0.000    0.000 
#
# Total GULP energy -323237.358397 kJ/mol
# GULP energy per Si atom -5573.057903 kJ/mol
# Density = 1.977276 g / cm^3
# Si number density = 19.817864 Si / 1000 Ang^3
#
#
#
# Elastic Constant Matrix: (Units=GPa)
#
#
# Indices 1 2 3 4 5 6 
#
# 1 92.4260 39.9646 38.9150 0.0000 0.0000 0.0000
# 2 39.9646 101.9180 23.5134 0.0000 0.0000 0.0000
# 3 38.9150 23.5134 72.3185 0.0000 0.0000 0.0000
# 4 0.0000 0.0000 0.0000 17.7789 0.0000 0.0000
# 5 0.0000 0.0000 0.0000 0.0000 18.1722 0.0000
# 6 0.0000 0.0000 0.0000 0.0000 0.0000 32.7778
#
#
#
# Elastic Compliance Matrix: (Units=1/GPa)
#
#
# Indices 1 2 3 4 5 6 
#
# 1 0.015730 -0.004557 -0.006983 0.000000 0.000000 0.000000
# 2 -0.004557 0.011928 -0.001426 0.000000 0.000000 0.000000
# 3 -0.006983 -0.001426 0.018049 0.000000 0.000000 0.000000
# 4 0.000000 0.000000 0.000000 0.056246 0.000000 0.000000
# 5 0.000000 0.000000 0.000000 0.000000 0.055029 0.000000
# 6 0.000000 0.000000 0.000000 0.000000 0.000000 0.030508
#
#
# Mechanical properties :
#
#
# Convention : Reuss Voigt Hill
#
# Bulk Modulus (GPa) = 50.56899 52.38317 51.47608
# Shear Modulus (GPa) = 22.72589 24.69709 23.71149
#
# Velocity S-wave (km/s) = 3.39003 3.53399 3.46276
# Velocity P-wave (km/s) = 6.39494 6.56824 6.48217
#
# Compressibility (1/GPa) = 0.01977497
#
# Stress axis : x y z
#
# Youngs Moduli (GPa) = 63.57306 83.83805 55.40553
#
# Poissons Ratio (x) = 0.38206 0.38688
# Poissons Ratio (y) = 0.28971 0.07900
# Poissons Ratio (z) = 0.44391 0.11955
#
# Static dielectric constant tensor:
#      x y z
#    x 1.735690 0.000000 0.000000 
#    y 0.000000 1.715440 0.000000 
#    z 0.000000 0.000000 1.708490 
# 
# From -- ./inp_files/23045.got.cif
#   From: 2010.05.17/outbox.cif.g08.bks.cpg/sg67_12_cif.got.tgz:23045.got - 2010.06.03 18:28:57.
