data_PCOD9504797
_publ_section_title
;
Structure prediction by ZEFSAII (Michael W. Deem and Ramdas Pophale) SiO2 
 PCOD9504797
Probable space group: C M M A
;
_chemical_formula_sum "Si O2"
_cell_formula_units_Z 96
_cell_length_a 28.832771
_cell_length_b 16.132438
_cell_length_c 9.894150
_cell_angle_alpha 90.000000
_cell_angle_beta 90.000000
_cell_angle_gamma 90.000000
_cell_volume 4602.193530
_symmetry_space_group_name_H-M "C M M A"
_symmetry_group_IT_number 67
_symmetry_cell_setting 'orthorhombic'
loop_
_space_group_symop_operation_xyz
x,y,z
-x,1/2-y,z
x,-y,-z
-x,1/2+y,-z
-x,-y,-z
x,1/2+y,-z
-x,y,z
x,1/2-y,z
1/2+x,1/2+y,z
1/2-x,-y,z
1/2+x,1/2-y,-z
1/2-x,y,-z
1/2-x,1/2-y,-z
1/2+x,y,-z
1/2-x,1/2+y,z
1/2+x,-y,z
loop_
_atom_site_type_symbol
_atom_site_label
_atom_site_fract_x
_atom_site_fract_y
_atom_site_fract_z
Si Si1 0.883433 0.151979 0.189592
Si Si2 0.553766 0.911536 0.427874
Si Si3 0.411045 0.845172 0.696112
Si Si4 0.209826 0.649356 0.685693
Si Si5 0.550944 0.096199 0.036538
Si Si6 0.310279 0.351170 0.375794
O O1 0.885594 0.250000 0.221770
O O2 0.913991 0.103759 0.299916
O O3 0.829872 0.125173 0.208591
O O4 0.907322 0.137769 0.045742
O O5 0.500000 0.903440 0.389370
O O6 0.567513 0.848857 0.547171
O O7 0.560729 0.000000 0.500000
O O8 0.409446 0.750000 0.741927
O O9 0.440976 0.893986 0.804463
O O10 0.358680 0.879456 0.685978
O O11 0.212116 0.750000 0.687366
O O12 0.263076 0.620733 0.697481
O O13 0.193390 0.625511 0.534111
O O14 0.500000 0.130848 0.000140
O O15 0.551257 0.000000 0.000000
O O16 0.311498 0.250000 0.373891
#
# Coordination Sequence:
#
# PCOD9504797 Si02
#       6
#    16  16  16  16  16  16
#     4  11  21  36  60  88 111 141 190 241 278 318
#     4  11  23  37  54  79 114 152 185 225 284 345
#     4  11  21  36  60  88 111 141 190 241 278 318
#     4   8  14  28  53  85 117 144 174 220 278 333
#     4  11  25  43  58  75 110 158 193 225 286 353
#     4   8  14  28  53  85 117 144 174 220 278 333
#
# _framework density 20.859618999999999
#
# number of rings (size 3 to 8) (size 9 to 14) (size 15 to 20)
#    0.000    2.000    1.667    4.000    0.000    6.667 
#    0.000    0.833    0.000   10.000    0.000    0.000 
#    0.000    0.000    0.000    0.000    0.000    0.000 
#
# Total GULP energy -268033.967387 kJ/mol
# GULP energy per Si atom -5584.040987 kJ/mol
# Density = 2.081214 g / cm^3
# Si number density = 20.859619 Si / 1000 Ang^3
#
#
#
# Elastic Constant Matrix: (Units=GPa)
#
#
# Indices 1 2 3 4 5 6 
#
# 1 64.7147 18.0917 -22.0569 0.0000 0.0000 0.0000
# 2 18.0917 23.5804 -4.8598 0.0000 0.0000 0.0000
# 3 -22.0569 -4.8598 26.9512 0.0000 0.0000 0.0000
# 4 0.0000 0.0000 0.0000 22.1998 0.0000 0.0000
# 5 0.0000 0.0000 0.0000 0.0000 27.2972 0.0000
# 6 0.0000 0.0000 0.0000 0.0000 0.0000 7.4843
#
#
#
# Elastic Compliance Matrix: (Units=1/GPa)
#
#
# Indices 1 2 3 4 5 6 
#
# 1 0.026393 -0.016408 0.018641 0.000000 0.000000 0.000000
# 2 -0.016408 0.054245 -0.003647 0.000000 0.000000 0.000000
# 3 0.018641 -0.003647 0.051703 0.000000 0.000000 0.000000
# 4 0.000000 0.000000 0.000000 0.045045 0.000000 0.000000
# 5 0.000000 0.000000 0.000000 0.000000 0.036634 0.000000
# 6 0.000000 0.000000 0.000000 0.000000 0.000000 0.133613
#
#
# Mechanical properties :
#
#
# Convention : Reuss Voigt Hill
#
# Bulk Modulus (GPa) = 7.72114 10.84405 9.28260
# Shear Modulus (GPa) = 12.70226 19.66769 16.18497
#
# Velocity S-wave (km/s) = 2.47035 3.07393 2.78852
# Velocity P-wave (km/s) = 3.44185 4.22003 3.85065
#
# Compressibility (1/GPa) = 0.12951451
#
# Stress axis : x y z
#
# Youngs Moduli (GPa) = 37.88885 18.43483 19.34138
#
# Poissons Ratio (x) = 0.30247 -0.36055
# Poissons Ratio (y) = 0.62167 0.07053
# Poissons Ratio (z) = -0.70630 0.06723
#
# Static dielectric constant tensor:
#      x y z
#    x 1.767300 0.000000 0.000000 
#    y 0.000000 1.789360 0.000000 
#    z 0.000000 0.000000 1.704050 
# 
# From -- ./inp_files/22928.got.cif
#   From: 2010.05.17/outbox.cif.g08.bks.cpg/sg67_12_cif.got.tgz:22928.got - 2010.06.03 18:28:57.
