data_PCOD9504463
_publ_section_title
;
Structure prediction by ZEFSAII (Michael W. Deem and Ramdas Pophale) SiO2 
 PCOD9504463
Probable space group: C M M A
;
_chemical_formula_sum "Si O2"
_cell_formula_units_Z 56
_cell_length_a 29.582759
_cell_length_b 14.916154
_cell_length_c 5.733979
_cell_angle_alpha 90.000000
_cell_angle_beta 90.000000
_cell_angle_gamma 90.000000
_cell_volume 2530.181244
_symmetry_space_group_name_H-M "C M M A"
_symmetry_group_IT_number 67
_symmetry_cell_setting 'orthorhombic'
loop_
_space_group_symop_operation_xyz
x,y,z
-x,1/2-y,z
x,-y,-z
-x,1/2+y,-z
-x,-y,-z
x,1/2+y,-z
-x,y,z
x,1/2-y,z
1/2+x,1/2+y,z
1/2-x,-y,z
1/2+x,1/2-y,-z
1/2-x,y,-z
1/2-x,1/2-y,-z
1/2+x,y,-z
1/2-x,1/2+y,z
1/2+x,-y,z
loop_
_atom_site_type_symbol
_atom_site_label
_atom_site_fract_x
_atom_site_fract_y
_atom_site_fract_z
Si Si1 0.267281 0.646027 0.252243
Si Si2 0.133512 0.407206 0.365486
Si Si3 0.451364 0.848694 0.658491
Si Si4 0.926484 0.500000 0.000000
O O1 0.251865 0.750000 0.250481
O O2 0.250000 0.606599 0.500000
O O3 0.321180 0.640877 0.283629
O O4 0.250000 0.608888 0.000000
O O5 0.145454 0.500000 0.500000
O O6 0.095622 0.357066 0.519056
O O7 0.105831 0.434445 0.140063
O O8 0.500000 0.852153 0.524196
O O9 0.450622 0.750000 0.774179
O O10 0.452039 0.934820 0.824756
#
# Coordination Sequence:
#
# PCOD9504463 Si02
#       4
#    16  16  16   8
#     4  10  23  42  66  95 128 171 224 280 343 412
#     4  10  23  41  60  92 129 172 219 279 338 404
#     4  10  22  40  65  96 133 178 225 278 343 411
#     4  10  23  40  63  96 132 170 226 281 339 404
#
# _framework density 22.132801000000001
#
# number of rings (size 3 to 8) (size 9 to 14) (size 15 to 20)
#    0.000    2.000    0.000    1.286    8.000    9.143 
#    0.000    2.857    0.000    0.000    0.000    0.000 
#    0.000    0.000    0.000    0.000    0.000    0.000 
#
# Total GULP energy -155929.032379 kJ/mol
# GULP energy per Si atom -5568.894014 kJ/mol
# Density = 2.208243 g / cm^3
# Si number density = 22.132801 Si / 1000 Ang^3
#
#
#
# Elastic Constant Matrix: (Units=GPa)
#
#
# Indices 1 2 3 4 5 6 
#
# 1 152.5155 30.1953 65.8397 0.0000 0.0000 0.0000
# 2 30.1953 73.8972 15.3881 0.0000 0.0000 0.0000
# 3 65.8397 15.3881 118.2487 0.0000 0.0000 0.0000
# 4 0.0000 0.0000 0.0000 -0.9782 0.0000 0.0000
# 5 0.0000 0.0000 0.0000 0.0000 -26.7539 0.0000
# 6 0.0000 0.0000 0.0000 0.0000 0.0000 48.4151
#
#
#
# Elastic Compliance Matrix: (Units=1/GPa)
#
#
# Indices 1 2 3 4 5 6 
#
# 1 0.009145 -0.002751 -0.004734 0.000000 0.000000 0.000000
# 2 -0.002751 0.014737 -0.000386 0.000000 0.000000 0.000000
# 3 -0.004734 -0.000386 0.011143 0.000000 0.000000 0.000000
# 4 0.000000 0.000000 0.000000 -1.022261 0.000000 0.000000
# 5 0.000000 0.000000 0.000000 0.000000 -0.037378 0.000000
# 6 0.000000 0.000000 0.000000 0.000000 0.000000 0.020655
#
#
# Mechanical properties :
#
#
# Convention : Reuss Voigt Hill
#
# Bulk Modulus (GPa) = 51.85970 63.05641 57.45805
# Shear Modulus (GPa) = -5.09274 19.68581 7.29654
#
# Velocity S-wave (km/s) = -1.51855 2.98558 1.81765
# Velocity P-wave (km/s) = 4.51745 6.35900 5.51562
#
# Compressibility (1/GPa) = 0.01928280
#
# Stress axis : x y z
#
# Youngs Moduli (GPa) = 109.35073 67.85739 89.74477
#
# Poissons Ratio (x) = 0.18667 0.42483
# Poissons Ratio (y) = 0.30082 0.03465
# Poissons Ratio (z) = 0.51764 0.02620
#
# Static dielectric constant tensor:
#      x y z
#    x 1.813880 0.000000 0.000000 
#    y 0.000000 1.914970 0.000000 
#    z 0.000000 0.000000 1.844820 
# 
# From -- ./inp_files/1390.got.cif
#   From: 2010.05.17/outbox.cif.g08.bks.cpg/sg67_1_cif.got.tgz:1390.got - 2010.06.03 18:28:57.
