data_PCOD9504031
_publ_section_title
;
Structure prediction by ZEFSAII (Michael W. Deem and Ramdas Pophale) SiO2 
 PCOD9504031
Probable space group: C M M A
;
_chemical_formula_sum "Si O2"
_cell_formula_units_Z 64
_cell_length_a 15.042761
_cell_length_b 8.661339
_cell_length_c 25.331003
_cell_angle_alpha 90.000000
_cell_angle_beta 90.000000
_cell_angle_gamma 90.000000
_cell_volume 3300.387844
_symmetry_space_group_name_H-M "C M M A"
_symmetry_group_IT_number 67
_symmetry_cell_setting 'orthorhombic'
loop_
_space_group_symop_operation_xyz
x,y,z
-x,1/2-y,z
x,-y,-z
-x,1/2+y,-z
-x,-y,-z
x,1/2+y,-z
-x,y,z
x,1/2-y,z
1/2+x,1/2+y,z
1/2-x,-y,z
1/2+x,1/2-y,-z
1/2-x,y,-z
1/2-x,1/2-y,-z
1/2+x,y,-z
1/2-x,1/2+y,z
1/2+x,-y,z
loop_
_atom_site_type_symbol
_atom_site_label
_atom_site_fract_x
_atom_site_fract_y
_atom_site_fract_z
Si Si1 0.350670 0.065419 0.946484
Si Si2 0.349104 0.935173 0.442917
Si Si3 0.650072 0.564744 0.170457
Si Si4 0.500000 0.065301 0.245138
Si Si5 0.500000 0.064158 0.368283
O O1 0.348346 0.250000 0.950598
O O2 0.386302 0.024087 0.888439
O O3 0.250000 0.000000 0.945531
O O4 0.393085 0.000000 0.000000
O O5 0.347808 0.750000 0.444581
O O6 0.378839 0.000000 0.500000
O O7 0.250000 0.000000 0.434253
O O8 0.414735 0.995948 0.398166
O O9 0.653117 0.750000 0.173518
O O10 0.750000 0.500000 0.175358
O O11 0.585873 0.499130 0.214871
O O12 0.500000 0.250000 0.241822
O O13 0.500000 0.021735 0.306663
O O14 0.500000 0.250000 0.372743
#
# Coordination Sequence:
#
# PCOD9504031 Si02
#       5
#    16  16  16   8   8
#     4   9  16  27  48  78 108 141 179 226 282 344
#     4  11  22  39  64  94 126 160 195 236 286 340
#     4  10  21  38  60  84 114 150 191 238 292 349
#     4  11  25  42  61  84 113 152 200 247 290 339
#     4  11  24  42  61  86 119 156 199 245 290 341
#
# _framework density 19.391660000000002
#
# number of rings (size 3 to 8) (size 9 to 14) (size 15 to 20)
#    0.000    1.750    0.000    6.375    0.000    6.000 
#    0.000    0.625    0.000    0.000    0.000    0.000 
#    0.000    0.000    0.000    0.000    0.000    0.000 
#
# Total GULP energy -178776.807769 kJ/mol
# GULP energy per Si atom -5586.775243 kJ/mol
# Density = 1.934752 g / cm^3
# Si number density = 19.391660 Si / 1000 Ang^3
#
#
#
# Elastic Constant Matrix: (Units=GPa)
#
#
# Indices 1 2 3 4 5 6 
#
# 1 102.5231 43.6849 97.6419 0.0000 0.0000 0.0000
# 2 43.6849 113.9713 91.2837 0.0000 0.0000 0.0000
# 3 97.6419 91.2837 225.9464 0.0000 0.0000 0.0000
# 4 0.0000 0.0000 0.0000 33.0398 0.0000 0.0000
# 5 0.0000 0.0000 0.0000 0.0000 156.2129 0.0000
# 6 0.0000 0.0000 0.0000 0.0000 0.0000 23.0369
#
#
#
# Elastic Compliance Matrix: (Units=1/GPa)
#
#
# Indices 1 2 3 4 5 6 
#
# 1 0.016640 -0.000915 -0.006822 0.000000 0.000000 0.000000
# 2 -0.000915 0.013022 -0.004866 0.000000 0.000000 0.000000
# 3 -0.006822 -0.004866 0.009340 0.000000 0.000000 0.000000
# 4 0.000000 0.000000 0.000000 0.030267 0.000000 0.000000
# 5 0.000000 0.000000 0.000000 0.000000 0.006402 0.000000
# 6 0.000000 0.000000 0.000000 0.000000 0.000000 0.043409
#
#
# Mechanical properties :
#
#
# Convention : Reuss Voigt Hill
#
# Bulk Modulus (GPa) = 72.47394 100.85131 86.66263
# Shear Modulus (GPa) = 33.58379 56.44661 45.01520
#
# Velocity S-wave (km/s) = 4.16609 5.40110 4.82329
# Velocity P-wave (km/s) = 7.78438 9.54025 8.70669
#
# Compressibility (1/GPa) = 0.01379806
#
# Stress axis : x y z
#
# Youngs Moduli (GPa) = 60.09465 76.79459 107.07197
#
# Poissons Ratio (x) = 0.07023 0.73040
# Poissons Ratio (y) = 0.05496 0.52097
# Poissons Ratio (z) = 0.40994 0.37366
#
# Static dielectric constant tensor:
#      x y z
#    x 1.666030 0.000000 0.000000 
#    y 0.000000 1.644790 0.000000 
#    z 0.000000 0.000000 1.688670 
# 
# From -- ./inp_files/41727.got.cif
#   From: 2010.05.17/outbox.cif.g08.bks.cpg/sg67_21_cif.got.tgz:41727.got - 2010.06.03 18:28:57.
