data_PCOD9504099
_publ_section_title
;
Structure prediction by ZEFSAII (Michael W. Deem and Ramdas Pophale) SiO2 
 PCOD9504099
Probable space group: C M M A
;
_chemical_formula_sum "Si O2"
_cell_formula_units_Z 88
_cell_length_a 23.187667
_cell_length_b 15.887885
_cell_length_c 10.676714
_cell_angle_alpha 90.000000
_cell_angle_beta 90.000000
_cell_angle_gamma 90.000000
_cell_volume 3933.333326
_symmetry_space_group_name_H-M "C M M A"
_symmetry_group_IT_number 67
_symmetry_cell_setting 'orthorhombic'
loop_
_space_group_symop_operation_xyz
x,y,z
-x,1/2-y,z
x,-y,-z
-x,1/2+y,-z
-x,-y,-z
x,1/2+y,-z
-x,y,z
x,1/2-y,z
1/2+x,1/2+y,z
1/2-x,-y,z
1/2+x,1/2-y,-z
1/2-x,y,-z
1/2-x,1/2-y,-z
1/2+x,y,-z
1/2-x,1/2+y,z
1/2+x,-y,z
loop_
_atom_site_type_symbol
_atom_site_label
_atom_site_fract_x
_atom_site_fract_y
_atom_site_fract_z
Si Si1 0.346109 0.000000 0.000000
Si Si2 0.892339 0.346362 0.594803
Si Si3 0.565404 0.387482 0.681215
Si Si4 0.179663 0.842829 0.838223
Si Si5 0.767234 0.597373 0.361357
Si Si6 0.938373 0.933091 0.189303
O O1 0.387362 0.946976 0.907553
O O2 0.314380 0.073873 0.924099
O O3 0.876550 0.250000 0.572764
O O4 0.918393 0.379349 0.464814
O O5 0.835576 0.395486 0.639167
O O6 0.932960 0.356796 0.714447
O O7 0.500000 0.353213 0.701212
O O8 0.618214 0.350180 0.763640
O O9 0.562921 0.484423 0.722517
O O10 0.181390 0.750000 0.899353
O O11 0.231684 0.850463 0.739377
O O12 0.750000 0.500000 0.346800
O O13 0.750000 0.625846 0.500000
O O14 0.000000 0.929793 0.122071
#
# Coordination Sequence:
#
# PCOD9504099 Si02
#       6
#     8  16  16  16  16  16
#     4  10  23  44  67  92 130 172 234 278 318 384
#     4  12  24  37  60  97 133 163 208 273 340 402
#     4  10  21  38  62  94 133 173 216 269 329 396
#     4  11  23  42  68  98 134 178 224 274 331 393
#     4  11  23  40  67  95 130 170 216 269 335 406
#     4  10  22  41  64  88 124 176 225 268 321 385
#
# _framework density 22.372882000000001
#
# number of rings (size 3 to 8) (size 9 to 14) (size 15 to 20)
#    0.000    1.273    1.818    4.636    2.545    6.182 
#    0.000    4.091    0.000    5.455    0.000    0.000 
#    0.000    0.000    0.000    0.000    0.000    0.000 
#
# Total GULP energy -245899.753087 kJ/mol
# GULP energy per Si atom -5588.630752 kJ/mol
# Density = 2.232196 g / cm^3
# Si number density = 22.372882 Si / 1000 Ang^3
#
#
#
# Elastic Constant Matrix: (Units=GPa)
#
#
# Indices 1 2 3 4 5 6 
#
# 1 98.0054 11.2426 14.8038 0.0000 0.0000 0.0000
# 2 11.2426 63.0319 21.1609 0.0000 0.0000 0.0000
# 3 14.8038 21.1609 84.8730 0.0000 0.0000 0.0000
# 4 0.0000 0.0000 0.0000 -13.4478 0.0000 0.0000
# 5 0.0000 0.0000 0.0000 0.0000 19.3640 0.0000
# 6 0.0000 0.0000 0.0000 0.0000 0.0000 0.4711
#
#
#
# Elastic Compliance Matrix: (Units=1/GPa)
#
#
# Indices 1 2 3 4 5 6 
#
# 1 0.010589 -0.001385 -0.001502 0.000000 0.000000 0.000000
# 2 -0.001385 0.017495 -0.004121 0.000000 0.000000 0.000000
# 3 -0.001502 -0.004121 0.013072 0.000000 0.000000 0.000000
# 4 0.000000 0.000000 0.000000 -0.074362 0.000000 0.000000
# 5 0.000000 0.000000 0.000000 0.000000 0.051642 0.000000
# 6 0.000000 0.000000 0.000000 0.000000 0.000000 2.122795
#
#
# Mechanical properties :
#
#
# Convention : Reuss Voigt Hill
#
# Bulk Modulus (GPa) = 36.84276 37.81387 37.32832
# Shear Modulus (GPa) = 2.31022 14.52431 8.41727
#
# Velocity S-wave (km/s) = 1.01727 2.55069 1.94176
# Velocity P-wave (km/s) = 4.22885 5.06093 4.66348
#
# Compressibility (1/GPa) = 0.02714237
#
# Stress axis : x y z
#
# Youngs Moduli (GPa) = 94.43591 57.15830 76.50170
#
# Poissons Ratio (x) = 0.07914 0.11489
# Poissons Ratio (y) = 0.13075 0.31523
# Poissons Ratio (z) = 0.14182 0.23552
#
# Static dielectric constant tensor:
#      x y z
#    x 2.095590 0.000000 0.000000 
#    y 0.000000 1.836510 0.000000 
#    z 0.000000 0.000000 1.846810 
# 
# From -- ./inp_files/21763.got.cif
#   From: 2010.05.17/outbox.cif.g08.bks.cpg/sg67_11_cif.got.tgz:21763.got - 2010.06.03 18:28:57.
