data_PCOD9504629
_publ_section_title
;
Structure prediction by ZEFSAII (Michael W. Deem and Ramdas Pophale) SiO2 
 PCOD9504629
Probable space group: C M M A
;
_chemical_formula_sum "Si O2"
_cell_formula_units_Z 112
_cell_length_a 15.026222
_cell_length_b 22.733712
_cell_length_c 15.700237
_cell_angle_alpha 90.000000
_cell_angle_beta 90.000000
_cell_angle_gamma 90.000000
_cell_volume 5363.229273
_symmetry_space_group_name_H-M "C M M A"
_symmetry_group_IT_number 67
_symmetry_cell_setting 'orthorhombic'
loop_
_space_group_symop_operation_xyz
x,y,z
-x,1/2-y,z
x,-y,-z
-x,1/2+y,-z
-x,-y,-z
x,1/2+y,-z
-x,y,z
x,1/2-y,z
1/2+x,1/2+y,z
1/2-x,-y,z
1/2+x,1/2-y,-z
1/2-x,y,-z
1/2-x,1/2-y,-z
1/2+x,y,-z
1/2-x,1/2+y,z
1/2+x,-y,z
loop_
_atom_site_type_symbol
_atom_site_label
_atom_site_fract_x
_atom_site_fract_y
_atom_site_fract_z
Si Si1 0.395936 0.944846 0.440771
Si Si2 0.152147 0.480304 0.260471
Si Si3 0.762156 0.316009 0.263952
Si Si4 0.892125 0.064506 0.971051
Si Si5 0.657036 0.815168 0.450829
Si Si6 0.899490 0.397382 0.779969
Si Si7 0.603017 0.125248 0.859680
O O1 0.500000 0.953155 0.420771
O O2 0.343193 0.950012 0.352257
O O3 0.386420 0.877949 0.475166
O O4 0.368649 0.000000 0.500000
O O5 0.250000 0.500000 0.232298
O O6 0.098333 0.540367 0.267873
O O7 0.109562 0.436079 0.192956
O O8 0.728899 0.250000 0.254328
O O9 0.818443 0.318853 0.350985
O O10 0.676884 0.358139 0.261500
O O11 0.829562 0.332533 0.188522
O O12 0.869630 0.085829 0.876544
O O13 0.000000 0.060741 0.971443
O O14 0.868136 0.110531 0.044452
O O15 0.859129 0.000000 0.000000
O O16 0.613914 0.750000 0.465563
O O17 0.750000 0.813781 0.500000
O O18 0.000000 0.372478 0.781688
O O19 0.500000 0.144865 0.858014
#
# Coordination Sequence:
#
# PCOD9504629 Si02
#       7
#    16  16  16  16  16  16  16
#     4  11  25  39  60  96 129 160 202 258 318 375
#     4  12  22  37  60  93 128 161 199 249 312 378
#     4  11  25  44  63  89 119 162 219 257 302 366
#     4   9  18  33  57  90 125 161 199 249 315 377
#     4  10  23  44  66  87 121 167 210 255 309 373
#     4  11  22  39  62  90 126 165 206 256 312 372
#     4  11  21  38  62  91 125 157 203 260 311 367
#
# _framework density 20.882940999999999
#
# number of rings (size 3 to 8) (size 9 to 14) (size 15 to 20)
#    0.000    1.286    4.286    1.286    4.000    1.429 
#    0.000    4.286    0.000    5.143    0.000    0.000 
#    0.000    0.000    0.000    0.000    0.000    0.000 
#
# Total GULP energy -312691.876536 kJ/mol
# GULP energy per Si atom -5583.783510 kJ/mol
# Density = 2.083541 g / cm^3
# Si number density = 20.882941 Si / 1000 Ang^3
#
#
#
# Elastic Constant Matrix: (Units=GPa)
#
#
# Indices 1 2 3 4 5 6 
#
# 1 54.4600 2.8934 -5.4420 0.0000 0.0000 0.0000
# 2 2.8934 125.9903 14.8077 0.0000 0.0000 0.0000
# 3 -5.4420 14.8077 25.6700 0.0000 0.0000 0.0000
# 4 0.0000 0.0000 0.0000 46.3687 0.0000 0.0000
# 5 0.0000 0.0000 0.0000 0.0000 17.0474 0.0000
# 6 0.0000 0.0000 0.0000 0.0000 0.0000 6.6142
#
#
#
# Elastic Compliance Matrix: (Units=1/GPa)
#
#
# Indices 1 2 3 4 5 6 
#
# 1 0.018869 -0.000969 0.004559 0.000000 0.000000 0.000000
# 2 -0.000969 0.008564 -0.005146 0.000000 0.000000 0.000000
# 3 0.004559 -0.005146 0.042891 0.000000 0.000000 0.000000
# 4 0.000000 0.000000 0.000000 0.021566 0.000000 0.000000
# 5 0.000000 0.000000 0.000000 0.000000 0.058660 0.000000
# 6 0.000000 0.000000 0.000000 0.000000 0.000000 0.151191
#
#
# Mechanical properties :
#
#
# Convention : Reuss Voigt Hill
#
# Bulk Modulus (GPa) = 14.87806 25.62651 20.25228
# Shear Modulus (GPa) = 15.27852 26.93011 21.10431
#
# Velocity S-wave (km/s) = 2.70779 3.59496 3.18244
# Velocity P-wave (km/s) = 4.11293 5.43413 4.81902
#
# Compressibility (1/GPa) = 0.06721307
#
# Stress axis : x y z
#
# Youngs Moduli (GPa) = 52.99640 116.76575 23.31500
#
# Poissons Ratio (x) = 0.11317 -0.10630
# Poissons Ratio (y) = 0.05136 0.11997
# Poissons Ratio (z) = -0.24163 0.60084
#
# Static dielectric constant tensor:
#      x y z
#    x 1.823200 0.000000 0.000000 
#    y 0.000000 1.780910 0.000000 
#    z 0.000000 0.000000 1.832960 
# 
# From -- ./inp_files/27559.got.cif
#   From: 2010.05.17/outbox.cif.g08.bks.cpg/sg67_14_cif.got.tgz:27559.got - 2010.06.03 18:28:57.
