data_PCOD9504367
_publ_section_title
;
Structure prediction by ZEFSAII (Michael W. Deem and Ramdas Pophale) SiO2 
 PCOD9504367
Probable space group: C M M A
;
_chemical_formula_sum "Si O2"
_cell_formula_units_Z 116
_cell_length_a 17.535527
_cell_length_b 27.724450
_cell_length_c 12.597140
_cell_angle_alpha 90.000000
_cell_angle_beta 90.000000
_cell_angle_gamma 90.000000
_cell_volume 6124.261378
_symmetry_space_group_name_H-M "C M M A"
_symmetry_group_IT_number 67
_symmetry_cell_setting 'orthorhombic'
loop_
_space_group_symop_operation_xyz
x,y,z
-x,1/2-y,z
x,-y,-z
-x,1/2+y,-z
-x,-y,-z
x,1/2+y,-z
-x,y,z
x,1/2-y,z
1/2+x,1/2+y,z
1/2-x,-y,z
1/2+x,1/2-y,-z
1/2-x,y,-z
1/2-x,1/2-y,-z
1/2+x,y,-z
1/2-x,1/2+y,z
1/2+x,-y,z
loop_
_atom_site_type_symbol
_atom_site_label
_atom_site_fract_x
_atom_site_fract_y
_atom_site_fract_z
Si Si1 0.914121 0.475535 0.884387
Si Si2 0.143072 0.068644 0.238040
Si Si3 0.840757 0.945817 0.514103
Si Si4 0.500000 0.250000 0.750128
Si Si5 0.116506 0.832444 0.692647
Si Si6 0.705879 0.807278 0.725822
Si Si7 0.287890 0.393314 0.115656
Si Si8 0.911455 0.148775 0.557432
O O1 0.890688 0.519523 0.807467
O O2 0.858714 0.429825 0.886944
O O3 0.000000 0.460170 0.859614
O O4 0.911762 0.500000 0.000000
O O5 0.148627 0.064844 0.363399
O O6 0.101231 0.120276 0.234109
O O7 0.224353 0.078333 0.184371
O O8 0.750000 0.942929 0.500000
O O9 0.883224 0.906841 0.441851
O O10 0.868164 0.000000 0.500000
O O11 0.566383 0.291164 0.742038
O O12 0.206870 0.820165 0.693450
O O13 0.094909 0.837204 0.567574
O O14 0.700175 0.750000 0.747864
O O15 0.691838 0.843261 0.825428
O O16 0.646456 0.821632 0.632232
O O17 0.250000 0.385478 0.000000
O O18 0.000000 0.153846 0.589156
#
# Coordination Sequence:
#
# PCOD9504367 Si02
#       8
#    16  16  16   4  16  16  16  16
#     4  11  24  40  64  98 125 158 207 269 328 379
#     4  10  22  38  65  91 129 166 208 255 319 382
#     4  10  22  38  59  89 131 176 213 256 309 378
#     4  12  20  36  70  96 124 170 222 268 318 360
#     4  10  22  39  62  94 130 165 214 266 314 374
#     4  11  25  42  64  93 126 171 218 271 323 380
#     4  11  23  43  67  91 118 162 214 266 321 392
#     4  11  23  39  60  93 130 171 218 258 310 378
#
# _framework density 18.94106
#
# number of rings (size 3 to 8) (size 9 to 14) (size 15 to 20)
#    0.000    1.379    2.759    3.310    7.724    2.483 
#    0.000    0.000    0.000    0.000    0.000    0.000 
#    0.000    0.000    0.000    0.000    0.000    0.000 
#
# Total GULP energy -323023.008051 kJ/mol
# GULP energy per Si atom -5569.362208 kJ/mol
# Density = 1.889795 g / cm^3
# Si number density = 18.941060 Si / 1000 Ang^3
#
#
#
# Elastic Constant Matrix: (Units=GPa)
#
#
# Indices 1 2 3 4 5 6 
#
# 1 115.3779 56.5079 30.4979 0.0000 0.0000 0.0000
# 2 56.5079 142.2570 39.1601 0.0000 0.0000 0.0000
# 3 30.4979 39.1601 46.4895 0.0000 0.0000 0.0000
# 4 0.0000 0.0000 0.0000 -0.5220 0.0000 0.0000
# 5 0.0000 0.0000 0.0000 0.0000 1.9673 0.0000
# 6 0.0000 0.0000 0.0000 0.0000 0.0000 16.8478
#
#
#
# Elastic Compliance Matrix: (Units=1/GPa)
#
#
# Indices 1 2 3 4 5 6 
#
# 1 0.011537 -0.003254 -0.004828 0.000000 0.000000 0.000000
# 2 -0.003254 0.010069 -0.006347 0.000000 0.000000 0.000000
# 3 -0.004828 -0.006347 0.030024 0.000000 0.000000 0.000000
# 4 0.000000 0.000000 0.000000 -1.915570 0.000000 0.000000
# 5 0.000000 0.000000 0.000000 0.000000 0.508307 0.000000
# 6 0.000000 0.000000 0.000000 0.000000 0.000000 0.059355
#
#
# Mechanical properties :
#
#
# Convention : Reuss Voigt Hill
#
# Bulk Modulus (GPa) = 43.91227 61.82846 52.87036
# Shear Modulus (GPa) = -3.96879 15.52252 5.77686
#
# Velocity S-wave (km/s) = -1.44910 2.86583 1.74830
# Velocity P-wave (km/s) = 4.52041 6.60788 5.66119
#
# Compressibility (1/GPa) = 0.02277268
#
# Stress axis : x y z
#
# Youngs Moduli (GPa) = 86.67898 99.31220 33.30701
#
# Poissons Ratio (x) = 0.32314 0.16079
# Poissons Ratio (y) = 0.28203 0.21141
# Poissons Ratio (z) = 0.41845 0.63036
#
# Static dielectric constant tensor:
#      x y z
#    x 1.657560 0.000000 0.000000 
#    y 0.000000 1.950100 0.000000 
#    z 0.000000 0.000000 1.657360 
# 
# From -- ./inp_files/20009.got.cif
#   From: 2010.05.17/outbox.cif.g08.bks.cpg/sg67_11_cif.got.tgz:20009.got - 2010.06.03 18:28:57.
