data_PCOD9504282
_publ_section_title
;
Structure prediction by ZEFSAII (Michael W. Deem and Ramdas Pophale) SiO2 
 PCOD9504282
Probable space group: C M M A
;
_chemical_formula_sum "Si O2"
_cell_formula_units_Z 88
_cell_length_a 33.348372
_cell_length_b 21.559600
_cell_length_c 5.564726
_cell_angle_alpha 90.000000
_cell_angle_beta 90.000000
_cell_angle_gamma 90.000000
_cell_volume 4000.913127
_symmetry_space_group_name_H-M "C M M A"
_symmetry_group_IT_number 67
_symmetry_cell_setting 'orthorhombic'
loop_
_space_group_symop_operation_xyz
x,y,z
-x,1/2-y,z
x,-y,-z
-x,1/2+y,-z
-x,-y,-z
x,1/2+y,-z
-x,y,z
x,1/2-y,z
1/2+x,1/2+y,z
1/2-x,-y,z
1/2+x,1/2-y,-z
1/2-x,y,-z
1/2-x,1/2-y,-z
1/2+x,y,-z
1/2-x,1/2+y,z
1/2+x,-y,z
loop_
_atom_site_type_symbol
_atom_site_label
_atom_site_fract_x
_atom_site_fract_y
_atom_site_fract_z
Si Si1 0.266081 0.429370 0.255900
Si Si2 0.121032 0.679828 0.850467
Si Si3 0.424704 0.404370 0.517388
Si Si4 0.541671 0.315806 0.156864
Si Si5 0.142480 0.938705 0.162819
Si Si6 0.000000 0.462070 0.249545
O O1 0.250000 0.500000 0.253580
O O2 0.250000 0.398289 0.500000
O O3 0.313818 0.434718 0.279634
O O4 0.250000 0.402705 0.000000
O O5 0.138494 0.750000 0.833421
O O6 0.106616 0.648775 0.603824
O O7 0.079232 0.685906 0.988843
O O8 0.141454 0.623968 0.999486
O O9 0.455012 0.371932 0.335436
O O10 0.394735 0.443781 0.347834
O O11 0.455086 0.430071 0.722513
O O12 0.500000 0.319938 0.017131
O O13 0.541760 0.250000 0.293830
O O14 0.141167 0.000000 0.000000
O O15 0.000000 0.500000 0.500000
O O16 0.000000 0.500000 0.000000
#
# Coordination Sequence:
#
# PCOD9504282 Si02
#       6
#    16  16  16  16  16   8
#     4  10  21  41  70 110 148 176 229 300 365 443
#     4  10  24  41  64  99 142 190 243 299 367 441
#     4  11  25  41  67  91 137 188 246 300 366 441
#     4   9  18  36  61  90 121 168 237 302 353 410
#     4  11  25  44  74 110 141 187 241 303 380 448
#     4  12  32  48  63  94 147 194 249 313 383 428
#
# _framework density 21.994976999999999
#
# number of rings (size 3 to 8) (size 9 to 14) (size 15 to 20)
#    0.000    1.636    2.727    0.545   11.455    0.727 
#    0.000    0.000    0.000    1.091    0.000    0.000 
#    0.000    0.000    0.000    0.000    0.000    0.000 
#
# Total GULP energy -245078.519456 kJ/mol
# GULP energy per Si atom -5569.966351 kJ/mol
# Density = 2.194492 g / cm^3
# Si number density = 21.994977 Si / 1000 Ang^3
#
#
#
# Elastic Constant Matrix: (Units=GPa)
#
#
# Indices 1 2 3 4 5 6 
#
# 1 131.2633 34.4573 25.6274 0.0000 0.0000 0.0000
# 2 34.4573 106.3513 34.4455 0.0000 0.0000 0.0000
# 3 25.6274 34.4455 105.8094 0.0000 0.0000 0.0000
# 4 0.0000 0.0000 0.0000 19.5601 0.0000 0.0000
# 5 0.0000 0.0000 0.0000 0.0000 29.0966 0.0000
# 6 0.0000 0.0000 0.0000 0.0000 0.0000 -5.6349
#
#
#
# Elastic Compliance Matrix: (Units=1/GPa)
#
#
# Indices 1 2 3 4 5 6 
#
# 1 0.008483 -0.002328 -0.001297 0.000000 0.000000 0.000000
# 2 -0.002328 0.011150 -0.003066 0.000000 0.000000 0.000000
# 3 -0.001297 -0.003066 0.010763 0.000000 0.000000 0.000000
# 4 0.000000 0.000000 0.000000 0.051124 0.000000 0.000000
# 5 0.000000 0.000000 0.000000 0.000000 0.034368 0.000000
# 6 0.000000 0.000000 0.000000 0.000000 0.000000 -0.177465
#
#
# Mechanical properties :
#
#
# Convention : Reuss Voigt Hill
#
# Bulk Modulus (GPa) = 58.77448 59.16493 58.96970
# Shear Modulus (GPa) = -117.58233 25.19727 -46.19253
#
# Velocity S-wave (km/s) = -7.31948 3.38833 -4.58770
# Velocity P-wave (km/s) = 6.68231 6.50119 1.09267
#
# Compressibility (1/GPa) = 0.01701419
#
# Stress axis : x y z
#
# Youngs Moduli (GPa) = 117.88803 89.68456 92.91030
#
# Poissons Ratio (x) = 0.20882 0.12046
# Poissons Ratio (y) = 0.27449 0.28486
# Poissons Ratio (z) = 0.15284 0.27497
#
# Static dielectric constant tensor:
#      x y z
#    x 1.792970 0.000000 0.000000 
#    y 0.000000 1.943320 0.000000 
#    z 0.000000 0.000000 1.905830 
# 
# From -- ./inp_files/4751.got.cif
#   From: 2010.05.17/outbox.cif.g08.bks.cpg/sg67_3_cif.got.tgz:4751.got - 2010.06.03 18:28:57.
