data_PCOD9504638
_publ_section_title
;
Structure prediction by ZEFSAII (Michael W. Deem and Ramdas Pophale) SiO2 
 PCOD9504638
Probable space group: C M M A
;
_chemical_formula_sum "Si O2"
_cell_formula_units_Z 60
_cell_length_a 9.459328
_cell_length_b 24.136082
_cell_length_c 13.780272
_cell_angle_alpha 90.000000
_cell_angle_beta 90.000000
_cell_angle_gamma 90.000000
_cell_volume 3146.189283
_symmetry_space_group_name_H-M "C M M A"
_symmetry_group_IT_number 67
_symmetry_cell_setting 'orthorhombic'
loop_
_space_group_symop_operation_xyz
x,y,z
-x,1/2-y,z
x,-y,-z
-x,1/2+y,-z
-x,-y,-z
x,1/2+y,-z
-x,y,z
x,1/2-y,z
1/2+x,1/2+y,z
1/2-x,-y,z
1/2+x,1/2-y,-z
1/2-x,y,-z
1/2-x,1/2-y,-z
1/2+x,y,-z
1/2-x,1/2+y,z
1/2+x,-y,z
loop_
_atom_site_type_symbol
_atom_site_label
_atom_site_fract_x
_atom_site_fract_y
_atom_site_fract_z
Si Si1 0.000000 0.059803 0.053139
Si Si2 0.000000 0.250000 0.791077
Si Si3 0.320999 0.250000 0.683901
Si Si4 0.727810 0.564441 0.221175
Si Si5 0.156786 0.631473 0.588859
Si Si6 0.500000 0.373968 0.140572
O O1 0.131593 0.065399 0.125163
O O2 0.000000 0.106013 0.970486
O O3 0.000000 0.000000 0.000000
O O4 0.835460 0.250000 0.742435
O O5 0.000000 0.308108 0.847907
O O6 0.500000 0.250000 0.718362
O O7 0.309957 0.306105 0.622896
O O8 0.750000 0.500000 0.243404
O O9 0.665571 0.594178 0.315243
O O10 0.866991 0.598007 0.192904
O O11 0.250000 0.611836 0.500000
O O12 0.000000 0.631723 0.549766
#
# Coordination Sequence:
#
# PCOD9504638 Si02
#       6
#     8   4   8  16  16   8
#     4  12  24  46  72 104 138 184 250 298 349 430
#     4  12  24  46  74 108 152 192 244 298 376 448
#     4  10  23  45  71 103 138 193 252 308 352 435
#     4  12  24  44  69 105 139 182 240 300 351 430
#     4  11  25  44  68 100 139 185 235 295 367 432
#     4  12  26  42  73 105 144 188 237 298 366 437
#
# _framework density 19.070689999999999
#
# number of rings (size 3 to 8) (size 9 to 14) (size 15 to 20)
#    0.000    0.533    6.667    1.200    3.733    0.533 
#    0.000    5.333    0.000    0.000    0.000    0.000 
#    0.000    0.000    0.000    0.000    0.000    0.000 
#
# Total GULP energy -167095.791108 kJ/mol
# GULP energy per Si atom -5569.859704 kJ/mol
# Density = 1.902728 g / cm^3
# Si number density = 19.070690 Si / 1000 Ang^3
#
#
#
# Elastic Constant Matrix: (Units=GPa)
#
#
# Indices 1 2 3 4 5 6 
#
# 1 118.9717 35.1746 43.2889 0.0000 0.0000 0.0000
# 2 35.1746 120.6706 40.3292 0.0000 0.0000 0.0000
# 3 43.2889 40.3292 96.8039 0.0000 0.0000 0.0000
# 4 0.0000 0.0000 0.0000 -19.1064 0.0000 0.0000
# 5 0.0000 0.0000 0.0000 0.0000 31.1088 0.0000
# 6 0.0000 0.0000 0.0000 0.0000 0.0000 26.9732
#
#
#
# Elastic Compliance Matrix: (Units=1/GPa)
#
#
# Indices 1 2 3 4 5 6 
#
# 1 0.010332 -0.001705 -0.003910 0.000000 0.000000 0.000000
# 2 -0.001705 0.009909 -0.003366 0.000000 0.000000 0.000000
# 3 -0.003910 -0.003366 0.013481 0.000000 0.000000 0.000000
# 4 0.000000 0.000000 0.000000 -0.052338 0.000000 0.000000
# 5 0.000000 0.000000 0.000000 0.000000 0.032145 0.000000
# 6 0.000000 0.000000 0.000000 0.000000 0.000000 0.037074
#
#
# Mechanical properties :
#
#
# Convention : Reuss Voigt Hill
#
# Bulk Modulus (GPa) = 63.44994 63.78129 63.61562
# Shear Modulus (GPa) = 67.73475 22.30534 45.02005
#
# Velocity S-wave (km/s) = 5.96614 3.42367 4.86397
# Velocity P-wave (km/s) = 8.98904 7.01042 8.06067
#
# Compressibility (1/GPa) = 0.01576046
#
# Stress axis : x y z
#
# Youngs Moduli (GPa) = 96.78533 100.91992 74.17954
#
# Poissons Ratio (x) = 0.17207 0.29004
# Poissons Ratio (y) = 0.16502 0.24966
# Poissons Ratio (z) = 0.37843 0.33966
#
# Static dielectric constant tensor:
#      x y z
#    x 1.739990 0.000000 0.000000 
#    y 0.000000 1.618470 0.000000 
#    z 0.000000 0.000000 1.628750 
# 
# From -- ./inp_files/15604.got.cif
#   From: 2010.05.17/outbox.cif.g08.bks.cpg/sg67_8_cif.got.tgz:15604.got - 2010.06.03 18:28:57.
