data_PCOD9504307
_publ_section_title
;
Structure prediction by ZEFSAII (Michael W. Deem and Ramdas Pophale) SiO2 
 PCOD9504307
Probable space group: C M M A
;
_chemical_formula_sum "Si O2"
_cell_formula_units_Z 72
_cell_length_a 8.727841
_cell_length_b 25.786035
_cell_length_c 20.450963
_cell_angle_alpha 90.000000
_cell_angle_beta 90.000000
_cell_angle_gamma 90.000000
_cell_volume 4602.620385
_symmetry_space_group_name_H-M "C M M A"
_symmetry_group_IT_number 67
_symmetry_cell_setting 'orthorhombic'
loop_
_space_group_symop_operation_xyz
x,y,z
-x,1/2-y,z
x,-y,-z
-x,1/2+y,-z
-x,-y,-z
x,1/2+y,-z
-x,y,z
x,1/2-y,z
1/2+x,1/2+y,z
1/2-x,-y,z
1/2+x,1/2-y,-z
1/2-x,y,-z
1/2-x,1/2-y,-z
1/2+x,y,-z
1/2-x,1/2+y,z
1/2+x,-y,z
loop_
_atom_site_type_symbol
_atom_site_label
_atom_site_fract_x
_atom_site_fract_y
_atom_site_fract_z
Si Si1 0.816418 0.148305 0.155448
Si Si2 0.683412 0.311345 0.432967
Si Si3 0.684378 0.250000 0.927269
Si Si4 0.816861 0.442828 0.929228
Si Si5 0.184621 0.688228 0.288508
O O1 0.769250 0.198715 0.112736
O O2 0.738090 0.098198 0.124180
O O3 0.764672 0.158987 0.229374
O O4 0.000000 0.143345 0.151811
O O5 0.500000 0.314788 0.435888
O O6 0.723648 0.250000 0.432313
O O7 0.750000 0.334080 0.500000
O O8 0.731925 0.330659 0.361198
O O9 0.500000 0.250000 0.930962
O O10 0.750000 0.250000 0.000000
O O11 0.750000 0.500000 0.915902
O O12 0.000000 0.445150 0.932945
O O13 0.750000 0.426568 0.000000
O O14 0.218871 0.750000 0.283501
O O15 0.000000 0.683212 0.283455
#
# Coordination Sequence:
#
# PCOD9504307 Si02
#       5
#    16  16   8  16  16
#     4  11  21  34  49  71  98 128 163 200 240 289
#     4   8  14  24  38  58  85 119 160 198 233 276
#     4  10  22  34  46  66  93 124 159 194 233 280
#     4  11  22  38  57  76  95 122 157 201 248 292
#     4   9  17  29  44  64  93 129 164 198 239 286
#
# _framework density 15.643262
#
# number of rings (size 3 to 8) (size 9 to 14) (size 15 to 20)
#    0.000    2.222    1.111    5.333    0.000    4.444 
#    0.000    2.222    0.000    0.000    0.000    0.000 
#    0.000    0.889    0.000    9.333    0.000    5.556 
#
# Total GULP energy -200734.483956 kJ/mol
# GULP energy per Si atom -5575.957888 kJ/mol
# Density = 1.560766 g / cm^3
# Si number density = 15.643262 Si / 1000 Ang^3
#
#
#
# Elastic Constant Matrix: (Units=GPa)
#
#
# Indices 1 2 3 4 5 6 
#
# 1 64.8114 29.2921 48.2938 0.0000 0.0000 0.0000
# 2 29.2921 44.6831 50.9537 0.0000 0.0000 0.0000
# 3 48.2938 50.9537 162.5142 0.0000 0.0000 0.0000
# 4 0.0000 0.0000 0.0000 13.5795 0.0000 0.0000
# 5 0.0000 0.0000 0.0000 0.0000 31.6700 0.0000
# 6 0.0000 0.0000 0.0000 0.0000 0.0000 17.1175
#
#
#
# Elastic Compliance Matrix: (Units=1/GPa)
#
#
# Indices 1 2 3 4 5 6 
#
# 1 0.022996 -0.011335 -0.003280 0.000000 0.000000 0.000000
# 2 -0.011335 0.040422 -0.009305 0.000000 0.000000 0.000000
# 3 -0.003280 -0.009305 0.010045 0.000000 0.000000 0.000000
# 4 0.000000 0.000000 0.000000 0.073640 0.000000 0.000000
# 5 0.000000 0.000000 0.000000 0.000000 0.031576 0.000000
# 6 0.000000 0.000000 0.000000 0.000000 0.000000 0.058420
#
#
# Mechanical properties :
#
#
# Convention : Reuss Voigt Hill
#
# Bulk Modulus (GPa) = 39.02725 58.78753 48.90739
# Shear Modulus (GPa) = 17.03693 22.03803 19.53748
#
# Velocity S-wave (km/s) = 3.30372 3.75745 3.53787
# Velocity P-wave (km/s) = 6.28929 7.51574 6.92970
#
# Compressibility (1/GPa) = 0.02562312
#
# Stress axis : x y z
#
# Youngs Moduli (GPa) = 43.48512 24.73930 99.54820
#
# Poissons Ratio (x) = 0.28043 0.32649
# Poissons Ratio (y) = 0.49292 0.92630
# Poissons Ratio (z) = 0.14262 0.23020
#
# Static dielectric constant tensor:
#      x y z
#    x 1.525530 0.000000 0.000000 
#    y 0.000000 1.497830 0.000000 
#    z 0.000000 0.000000 1.543580 
# 
# From -- ./inp_files/32066.got.cif
#   From: 2010.05.17/outbox.cif.g08.bks.cpg/sg67_17_cif.got.tgz:32066.got - 2010.06.03 18:28:57.
