data_PCOD9504474
_publ_section_title
;
Structure prediction by ZEFSAII (Michael W. Deem and Ramdas Pophale) SiO2 
 PCOD9504474
Probable space group: C M M A
;
_chemical_formula_sum "Si O2"
_cell_formula_units_Z 88
_cell_length_a 17.086203
_cell_length_b 15.801057
_cell_length_c 15.013923
_cell_angle_alpha 90.000000
_cell_angle_beta 90.000000
_cell_angle_gamma 90.000000
_cell_volume 4053.459945
_symmetry_space_group_name_H-M "C M M A"
_symmetry_group_IT_number 67
_symmetry_cell_setting 'orthorhombic'
loop_
_space_group_symop_operation_xyz
x,y,z
-x,1/2-y,z
x,-y,-z
-x,1/2+y,-z
-x,-y,-z
x,1/2+y,-z
-x,y,z
x,1/2-y,z
1/2+x,1/2+y,z
1/2-x,-y,z
1/2+x,1/2-y,-z
1/2-x,y,-z
1/2-x,1/2-y,-z
1/2+x,y,-z
1/2-x,1/2+y,z
1/2+x,-y,z
loop_
_atom_site_type_symbol
_atom_site_label
_atom_site_fract_x
_atom_site_fract_y
_atom_site_fract_z
Si Si1 0.710822 0.592679 0.118803
Si Si2 0.214969 0.406603 0.317791
Si Si3 0.087099 0.352273 0.457593
Si Si4 0.500000 0.909246 0.811698
Si Si5 0.870723 0.652586 0.052536
Si Si6 0.115014 0.347338 0.662420
O O1 0.750000 0.500000 0.108781
O O2 0.680345 0.602627 0.218706
O O3 0.785732 0.651909 0.100283
O O4 0.646937 0.612532 0.043991
O O5 0.250000 0.500000 0.326630
O O6 0.153058 0.388744 0.394070
O O7 0.292089 0.349419 0.324493
O O8 0.091995 0.250000 0.453395
O O9 0.098626 0.374580 0.561176
O O10 0.000000 0.378315 0.429384
O O11 0.431510 0.899127 0.888667
O O12 0.568542 0.903007 0.733327
O O13 0.897603 0.750000 0.045923
O O14 0.088026 0.250000 0.675296
#
# Coordination Sequence:
#
# PCOD9504474 Si02
#       6
#    16  16  16   8  16  16
#     4  10  22  41  60  82 121 163 200 250 310 381
#     4  11  24  42  63  91 129 172 213 256 322 389
#     4  10  22  41  65  94 128 168 217 269 323 381
#     4  12  23  38  63  95 125 157 211 271 318 375
#     4  11  21  36  62  91 115 149 200 258 316 364
#     4  11  21  39  66  92 122 165 215 265 316 378
#
# _framework density 21.709848999999998
#
# number of rings (size 3 to 8) (size 9 to 14) (size 15 to 20)
#    0.000    1.273    2.727    4.909    0.000    5.091 
#    3.273    2.727    0.000    0.000    0.000    0.000 
#    0.000    0.000    0.000    0.000    0.000    0.000 
#
# Total GULP energy -245069.487540 kJ/mol
# GULP energy per Si atom -5569.761080 kJ/mol
# Density = 2.166044 g / cm^3
# Si number density = 21.709849 Si / 1000 Ang^3
#
#
#
# Elastic Constant Matrix: (Units=GPa)
#
#
# Indices 1 2 3 4 5 6 
#
# 1 121.2684 7.4020 97.6838 0.0000 0.0000 0.0000
# 2 7.4020 37.6871 14.9877 0.0000 0.0000 0.0000
# 3 97.6838 14.9877 174.9675 0.0000 0.0000 0.0000
# 4 0.0000 0.0000 0.0000 22.6323 0.0000 0.0000
# 5 0.0000 0.0000 0.0000 0.0000 52.7241 0.0000
# 6 0.0000 0.0000 0.0000 0.0000 0.0000 0.8973
#
#
#
# Elastic Compliance Matrix: (Units=1/GPa)
#
#
# Indices 1 2 3 4 5 6 
#
# 1 0.014991 0.000398 -0.008404 0.000000 0.000000 0.000000
# 2 0.000398 0.027481 -0.002576 0.000000 0.000000 0.000000
# 3 -0.008404 -0.002576 0.010628 0.000000 0.000000 0.000000
# 4 0.000000 0.000000 0.000000 0.044185 0.000000 0.000000
# 5 0.000000 0.000000 0.000000 0.000000 0.018967 0.000000
# 6 0.000000 0.000000 0.000000 0.000000 0.000000 1.114482
#
#
# Mechanical properties :
#
#
# Convention : Reuss Voigt Hill
#
# Bulk Modulus (GPa) = 31.31301 63.78556 47.54928
# Shear Modulus (GPa) = 3.96026 29.50738 16.73382
#
# Velocity S-wave (km/s) = 1.35209 3.69069 2.77933
# Velocity P-wave (km/s) = 4.11002 6.89973 5.67885
#
# Compressibility (1/GPa) = 0.03193561
#
# Stress axis : x y z
#
# Youngs Moduli (GPa) = 66.70627 36.38927 94.09391
#
# Poissons Ratio (x) = -0.01447 0.79072
# Poissons Ratio (y) = -0.02653 0.24239
# Poissons Ratio (z) = 0.56057 0.09374
#
# Static dielectric constant tensor:
#      x y z
#    x 1.780760 0.000000 0.000000 
#    y 0.000000 1.890180 0.000000 
#    z 0.000000 0.000000 1.775490 
# 
# From -- ./inp_files/28519.got.cif
#   From: 2010.05.17/outbox.cif.g08.bks.cpg/sg67_15_cif.got.tgz:28519.got - 2010.06.03 18:28:57.
