data_PCOD9504668
_publ_section_title
;
Structure prediction by ZEFSAII (Michael W. Deem and Ramdas Pophale) SiO2 
 PCOD9504668
Probable space group: C M M A
;
_chemical_formula_sum "Si O2"
_cell_formula_units_Z 60
_cell_length_a 9.760795
_cell_length_b 15.135904
_cell_length_c 21.388070
_cell_angle_alpha 90.000000
_cell_angle_beta 90.000000
_cell_angle_gamma 90.000000
_cell_volume 3159.840440
_symmetry_space_group_name_H-M "C M M A"
_symmetry_group_IT_number 67
_symmetry_cell_setting 'orthorhombic'
loop_
_space_group_symop_operation_xyz
x,y,z
-x,1/2-y,z
x,-y,-z
-x,1/2+y,-z
-x,-y,-z
x,1/2+y,-z
-x,y,z
x,1/2-y,z
1/2+x,1/2+y,z
1/2-x,-y,z
1/2+x,1/2-y,-z
1/2-x,y,-z
1/2-x,1/2-y,-z
1/2+x,y,-z
1/2-x,1/2+y,z
1/2+x,-y,z
loop_
_atom_site_type_symbol
_atom_site_label
_atom_site_fract_x
_atom_site_fract_y
_atom_site_fract_z
Si Si1 0.843343 0.143004 0.826006
Si Si2 0.661746 0.415540 0.315935
Si Si3 0.000000 0.750000 0.513973
Si Si4 0.157510 0.858147 0.941174
Si Si5 0.271173 0.750000 0.596829
O O1 0.839633 0.250000 0.823073
O O2 0.813892 0.107612 0.756892
O O3 0.734020 0.114255 0.877695
O O4 0.000000 0.118559 0.843623
O O5 0.500000 0.432115 0.323313
O O6 0.750000 0.500000 0.333493
O O7 0.703397 0.334586 0.359539
O O8 0.878933 0.750000 0.567512
O O9 0.881486 0.750000 0.458664
O O10 0.155395 0.750000 0.941542
O O11 0.000000 0.887782 0.944988
O O12 0.250000 0.885495 0.000000
#
# Coordination Sequence:
#
# PCOD9504668 Si02
#       5
#    16  16   4  16   8
#     4   9  17  32  54  79 111 158 202 251 306 362
#     4  11  23  40  64  93 129 167 210 257 309 367
#     4  10  24  42  78  94 128 168 206 246 302 368
#     4   9  16  26  43  73 111 151 198 252 304 364
#     4  11  22  48  68  98 129 168 204 250 306 366
#
# _framework density 18.988301
#
# number of rings (size 3 to 8) (size 9 to 14) (size 15 to 20)
#    0.000    2.133    2.667    0.800    1.867    4.267 
#    0.000    4.000    0.000    0.800    0.000    5.600 
#    0.000    0.000    0.000    0.000    0.000    0.000 
#
# Total GULP energy -167031.908082 kJ/mol
# GULP energy per Si atom -5567.730269 kJ/mol
# Density = 1.894508 g / cm^3
# Si number density = 18.988301 Si / 1000 Ang^3
#
#
#
# Elastic Constant Matrix: (Units=GPa)
#
#
# Indices 1 2 3 4 5 6 
#
# 1 199.2328 59.7453 114.9666 0.0000 0.0000 0.0000
# 2 59.7453 79.3587 53.9023 0.0000 0.0000 0.0000
# 3 114.9666 53.9023 140.3993 0.0000 0.0000 0.0000
# 4 0.0000 0.0000 0.0000 -8.2699 0.0000 0.0000
# 5 0.0000 0.0000 0.0000 0.0000 43.5111 0.0000
# 6 0.0000 0.0000 0.0000 0.0000 0.0000 4.4852
#
#
#
# Elastic Compliance Matrix: (Units=1/GPa)
#
#
# Indices 1 2 3 4 5 6 
#
# 1 0.009907 -0.002636 -0.007100 0.000000 0.000000 0.000000
# 2 -0.002636 0.017747 -0.004655 0.000000 0.000000 0.000000
# 3 -0.007100 -0.004655 0.014724 0.000000 0.000000 0.000000
# 4 0.000000 0.000000 0.000000 -0.120921 0.000000 0.000000
# 5 0.000000 0.000000 0.000000 0.000000 0.022983 0.000000
# 6 0.000000 0.000000 0.000000 0.000000 0.000000 0.222956
#
#
# Mechanical properties :
#
#
# Convention : Reuss Voigt Hill
#
# Bulk Modulus (GPa) = 73.55436 97.35769 85.45602
# Shear Modulus (GPa) = 24.91154 20.63706 22.77430
#
# Velocity S-wave (km/s) = 3.62600 3.30029 3.46697
# Velocity P-wave (km/s) = 7.50675 8.11827 7.81849
#
# Compressibility (1/GPa) = 0.01359539
#
# Stress axis : x y z
#
# Youngs Moduli (GPa) = 100.93975 56.34662 67.91610
#
# Poissons Ratio (x) = 0.14851 0.48223
# Poissons Ratio (y) = 0.26604 0.31617
# Poissons Ratio (z) = 0.71672 0.26231
#
# Static dielectric constant tensor:
#      x y z
#    x 1.635410 0.000000 0.000000 
#    y 0.000000 1.660830 0.000000 
#    z 0.000000 0.000000 1.628180 
# 
# From -- ./inp_files/36599.got.cif
#   From: 2010.05.17/outbox.cif.g08.bks.cpg/sg67_19_cif.got.tgz:36599.got - 2010.06.03 18:28:57.
