data_PCOD9504239
_publ_section_title
;
Structure prediction by ZEFSAII (Michael W. Deem and Ramdas Pophale) SiO2 
 PCOD9504239
Probable space group: C M M A
;
_chemical_formula_sum "Si O2"
_cell_formula_units_Z 64
_cell_length_a 14.259121
_cell_length_b 24.140346
_cell_length_c 8.396147
_cell_angle_alpha 90.000000
_cell_angle_beta 90.000000
_cell_angle_gamma 90.000000
_cell_volume 2890.122683
_symmetry_space_group_name_H-M "C M M A"
_symmetry_group_IT_number 67
_symmetry_cell_setting 'orthorhombic'
loop_
_space_group_symop_operation_xyz
x,y,z
-x,1/2-y,z
x,-y,-z
-x,1/2+y,-z
-x,-y,-z
x,1/2+y,-z
-x,y,z
x,1/2-y,z
1/2+x,1/2+y,z
1/2-x,-y,z
1/2+x,1/2-y,-z
1/2-x,y,-z
1/2-x,1/2-y,-z
1/2+x,y,-z
1/2-x,1/2+y,z
1/2+x,-y,z
loop_
_atom_site_type_symbol
_atom_site_label
_atom_site_fract_x
_atom_site_fract_y
_atom_site_fract_z
Si Si1 0.193539 0.354030 0.143930
Si Si2 0.389690 0.811440 0.464290
Si Si3 0.320314 0.419701 0.360539
Si Si4 0.500000 0.018835 0.253546
Si Si5 0.500000 0.410628 0.928656
O O1 0.169708 0.319893 0.303071
O O2 0.257867 0.405562 0.205475
O O3 0.093854 0.375100 0.080645
O O4 0.250000 0.326257 0.000000
O O5 0.500000 0.815761 0.424599
O O6 0.372587 0.750000 0.530173
O O7 0.364411 0.860941 0.582975
O O8 0.250000 0.436587 0.500000
O O9 0.404742 0.461866 0.336870
O O10 0.500000 0.046119 0.782138
O O11 0.500000 0.053158 0.088244
#
# Coordination Sequence:
#
# PCOD9504239 Si02
#       5
#    16  16  16   8   8
#     4  11  22  40  64  92 129 164 212 266 316 376
#     4  10  21  40  66  92 126 170 210 257 323 384
#     4  10  22  39  65  94 127 167 207 266 318 375
#     4  11  22  43  65  92 130 169 215 260 321 380
#     4  11  24  41  65  92 126 170 212 263 320 379
#
# _framework density 22.144387999999999
#
# number of rings (size 3 to 8) (size 9 to 14) (size 15 to 20)
#    0.000    1.500    5.000    0.000    0.000    6.000 
#    0.000   13.750    0.000    4.500    0.000    0.000 
#    0.000    0.000    0.000    0.000    0.000    0.000 
#
# Total GULP energy -179027.416160 kJ/mol
# GULP energy per Si atom -5594.606755 kJ/mol
# Density = 2.209399 g / cm^3
# Si number density = 22.144388 Si / 1000 Ang^3
#
#
#
# Elastic Constant Matrix: (Units=GPa)
#
#
# Indices 1 2 3 4 5 6 
#
# 1 160.1596 29.6172 26.1740 0.0000 0.0000 0.0000
# 2 29.6172 70.9016 -0.8349 0.0000 0.0000 0.0000
# 3 26.1740 -0.8349 54.2113 0.0000 0.0000 0.0000
# 4 0.0000 0.0000 0.0000 17.1612 0.0000 0.0000
# 5 0.0000 0.0000 0.0000 0.0000 40.2568 0.0000
# 6 0.0000 0.0000 0.0000 0.0000 0.0000 -8.0543
#
#
#
# Elastic Compliance Matrix: (Units=1/GPa)
#
#
# Indices 1 2 3 4 5 6 
#
# 1 0.007418 -0.003141 -0.003630 0.000000 0.000000 0.000000
# 2 -0.003141 0.015437 0.001754 0.000000 0.000000 0.000000
# 3 -0.003630 0.001754 0.020226 0.000000 0.000000 0.000000
# 4 0.000000 0.000000 0.000000 0.058271 0.000000 0.000000
# 5 0.000000 0.000000 0.000000 0.000000 0.024841 0.000000
# 6 0.000000 0.000000 0.000000 0.000000 0.000000 -0.124157
#
#
# Mechanical properties :
#
#
# Convention : Reuss Voigt Hill
#
# Bulk Modulus (GPa) = 30.25976 43.90946 37.08461
# Shear Modulus (GPa) = 216.59629 25.22716 120.91172
#
# Velocity S-wave (km/s) = 9.90067 3.37888 7.39730
# Velocity P-wave (km/s) = 12.01633 5.92404 9.47329
#
# Compressibility (1/GPa) = 0.03304719
#
# Stress axis : x y z
#
# Youngs Moduli (GPa) = 134.80927 64.77976 49.44153
#
# Poissons Ratio (x) = 0.20350 0.17947
# Poissons Ratio (y) = 0.42348 -0.08674
# Poissons Ratio (z) = 0.48934 -0.11365
#
# Static dielectric constant tensor:
#      x y z
#    x 1.799000 0.000000 0.000000 
#    y 0.000000 1.779820 0.000000 
#    z 0.000000 0.000000 1.837900 
# 
# From -- ./inp_files/8210.got.cif
#   From: 2010.05.17/outbox.cif.g08.bks.cpg/sg67_5_cif.got.tgz:8210.got - 2010.06.03 18:28:57.
