data_PCOD9504359
_publ_section_title
;
Structure prediction by ZEFSAII (Michael W. Deem and Ramdas Pophale) SiO2 
 PCOD9504359
Probable space group: C M M A
;
_chemical_formula_sum "Si O2"
_cell_formula_units_Z 88
_cell_length_a 10.490627
_cell_length_b 14.641585
_cell_length_c 30.405620
_cell_angle_alpha 90.000000
_cell_angle_beta 90.000000
_cell_angle_gamma 90.000000
_cell_volume 4670.285199
_symmetry_space_group_name_H-M "C M M A"
_symmetry_group_IT_number 67
_symmetry_cell_setting 'orthorhombic'
loop_
_space_group_symop_operation_xyz
x,y,z
-x,1/2-y,z
x,-y,-z
-x,1/2+y,-z
-x,-y,-z
x,1/2+y,-z
-x,y,z
x,1/2-y,z
1/2+x,1/2+y,z
1/2-x,-y,z
1/2+x,1/2-y,-z
1/2-x,y,-z
1/2-x,1/2-y,-z
1/2+x,y,-z
1/2-x,1/2+y,z
1/2+x,-y,z
loop_
_atom_site_type_symbol
_atom_site_label
_atom_site_fract_x
_atom_site_fract_y
_atom_site_fract_z
Si Si1 0.145342 0.361433 0.965046
Si Si2 0.148930 0.750000 0.539171
Si Si3 0.644382 0.861608 0.864745
Si Si4 0.147788 0.418355 0.395088
Si Si5 0.645600 0.578207 0.296677
Si Si6 0.639828 0.356975 0.799704
O O1 0.145617 0.250000 0.965671
O O2 0.175616 0.388640 0.914864
O O3 0.000000 0.389709 0.975359
O O4 0.250000 0.392185 0.000000
O O5 0.250000 0.750000 0.500000
O O6 0.167813 0.660766 0.569515
O O7 0.000000 0.750000 0.524435
O O8 0.500000 0.890469 0.854682
O O9 0.643448 0.750000 0.864165
O O10 0.746462 0.894318 0.829291
O O11 0.250000 0.500000 0.399851
O O12 0.159582 0.378981 0.345216
O O13 0.000000 0.450851 0.399446
O O14 0.500000 0.542408 0.295061
O O15 0.750000 0.500000 0.294499
O O16 0.662751 0.635914 0.252534
O O17 0.500000 0.397669 0.808974
O O18 0.632685 0.250000 0.810422
#
# Coordination Sequence:
#
# PCOD9504359 Si02
#       6
#    16   8  16  16  16  16
#     4   8  13  20  30  45  67 100 140 179 221 269
#     4  10  22  38  58  84 112 146 184 222 267 318
#     4   8  14  24  35  50  78 112 144 181 227 279
#     4   9  19  36  57  80 108 143 180 220 268 316
#     4   9  18  32  50  71  96 125 160 199 239 287
#     4   9  17  27  42  65  89 116 150 189 231 276
#
# _framework density 18.842533
#
# number of rings (size 3 to 8) (size 9 to 14) (size 15 to 20)
#    0.000    3.273    0.000    1.091    1.273    2.545 
#    0.000    5.455    0.000    0.000    0.000    0.000 
#    0.000    0.727    0.000    8.000    0.000   13.091 
#
# Total GULP energy -245051.419252 kJ/mol
# GULP energy per Si atom -5569.350438 kJ/mol
# Density = 1.879965 g / cm^3
# Si number density = 18.842533 Si / 1000 Ang^3
#
#
#
# Elastic Constant Matrix: (Units=GPa)
#
#
# Indices 1 2 3 4 5 6 
#
# 1 145.8740 39.3075 127.0072 0.0000 0.0000 0.0000
# 2 39.3075 47.1431 32.1965 0.0000 0.0000 0.0000
# 3 127.0072 32.1965 144.5558 0.0000 0.0000 0.0000
# 4 0.0000 0.0000 0.0000 -107.6217 0.0000 0.0000
# 5 0.0000 0.0000 0.0000 0.0000 40.6523 0.0000
# 6 0.0000 0.0000 0.0000 0.0000 0.0000 9.8500
#
#
#
# Elastic Compliance Matrix: (Units=1/GPa)
#
#
# Indices 1 2 3 4 5 6 
#
# 1 0.032003 -0.008823 -0.026153 0.000000 0.000000 0.000000
# 2 -0.008823 0.027450 0.001638 0.000000 0.000000 0.000000
# 3 -0.026153 0.001638 0.029531 0.000000 0.000000 0.000000
# 4 0.000000 0.000000 0.000000 -0.009292 0.000000 0.000000
# 5 0.000000 0.000000 0.000000 0.000000 0.024599 0.000000
# 6 0.000000 0.000000 0.000000 0.000000 0.000000 0.101522
#
#
# Mechanical properties :
#
#
# Convention : Reuss Voigt Hill
#
# Bulk Modulus (GPa) = 44.82657 81.62171 63.22414
# Shear Modulus (GPa) = 17.86200 -2.15309 7.85445
#
# Velocity S-wave (km/s) = 3.08224 -1.07012 2.04390
# Velocity P-wave (km/s) = 6.04224 6.47186 6.26074
#
# Compressibility (1/GPa) = 0.02230820
#
# Stress axis : x y z
#
# Youngs Moduli (GPa) = 31.24727 36.43033 33.86289
#
# Poissons Ratio (x) = 0.32141 0.88561
# Poissons Ratio (y) = 0.27568 -0.05546
# Poissons Ratio (z) = 0.81720 -0.05966
#
# Static dielectric constant tensor:
#      x y z
#    x 1.658370 0.000000 0.000000 
#    y 0.000000 1.685690 0.000000 
#    z 0.000000 0.000000 1.656080 
# 
# From -- ./inp_files/44050.got.cif
#   From: 2010.05.17/outbox.cif.g08.bks.cpg/sg67_23_cif.got.tgz:44050.got - 2010.06.03 18:28:57.
