data_PCOD9504485
_publ_section_title
;
Structure prediction by ZEFSAII (Michael W. Deem and Ramdas Pophale) SiO2 
 PCOD9504485
Probable space group: C M M A
;
_chemical_formula_sum "Si O2"
_cell_formula_units_Z 52
_cell_length_a 14.651681
_cell_length_b 13.754271
_cell_length_c 11.935453
_cell_angle_alpha 90.000000
_cell_angle_beta 90.000000
_cell_angle_gamma 90.000000
_cell_volume 2405.270576
_symmetry_space_group_name_H-M "C M M A"
_symmetry_group_IT_number 67
_symmetry_cell_setting 'orthorhombic'
loop_
_space_group_symop_operation_xyz
x,y,z
-x,1/2-y,z
x,-y,-z
-x,1/2+y,-z
-x,-y,-z
x,1/2+y,-z
-x,y,z
x,1/2-y,z
1/2+x,1/2+y,z
1/2-x,-y,z
1/2+x,1/2-y,-z
1/2-x,y,-z
1/2-x,1/2-y,-z
1/2+x,y,-z
1/2-x,1/2+y,z
1/2+x,-y,z
loop_
_atom_site_type_symbol
_atom_site_label
_atom_site_fract_x
_atom_site_fract_y
_atom_site_fract_z
Si Si1 0.103589 0.131586 0.947004
Si Si2 0.000000 0.500000 0.500000
Si Si3 0.289185 0.631659 0.169358
Si Si4 0.336162 0.134344 0.580289
O O1 0.101228 0.250000 0.943128
O O2 0.186363 0.101452 0.865155
O O3 0.000000 0.098419 0.923685
O O4 0.139526 0.104586 0.071214
O O5 0.921078 0.579245 0.531258
O O6 0.287905 0.750000 0.168822
O O7 0.316211 0.600393 0.292884
O O8 0.352730 0.250000 0.584851
O O9 0.250000 0.118661 0.500000
#
# Coordination Sequence:
#
# PCOD9504485 Si02
#       4
#    16   4  16  16
#     4   8  13  23  45  80 120 157 197 247 307 380
#     4  12  24  40  64  92 122 164 220 264 320 378
#     4   8  15  28  48  81 123 160 198 250 309 375
#     4  10  22  41  63  91 128 168 214 265 317 379
#
# _framework density 21.619188000000001
#
# number of rings (size 3 to 8) (size 9 to 14) (size 15 to 20)
#    0.000    3.077    0.000    2.769    2.154    0.000 
#    2.769    0.000    0.000    0.000    0.000   25.846 
#    0.000    0.000    0.000    6.769    0.000    1.846 
#
# Total GULP energy -144817.460757 kJ/mol
# GULP energy per Si atom -5569.902337 kJ/mol
# Density = 2.156998 g / cm^3
# Si number density = 21.619188 Si / 1000 Ang^3
#
#
#
# Elastic Constant Matrix: (Units=GPa)
#
#
# Indices 1 2 3 4 5 6 
#
# 1 227.3090 45.7950 54.2482 0.0000 0.0000 0.0000
# 2 45.7950 75.5575 22.7564 0.0000 0.0000 0.0000
# 3 54.2482 22.7564 62.6217 0.0000 0.0000 0.0000
# 4 0.0000 0.0000 0.0000 7.0058 0.0000 0.0000
# 5 0.0000 0.0000 0.0000 0.0000 2.5686 0.0000
# 6 0.0000 0.0000 0.0000 0.0000 0.0000 34.5206
#
#
#
# Elastic Compliance Matrix: (Units=1/GPa)
#
#
# Indices 1 2 3 4 5 6 
#
# 1 0.005875 -0.002277 -0.004262 0.000000 0.000000 0.000000
# 2 -0.002277 0.015744 -0.003749 0.000000 0.000000 0.000000
# 3 -0.004262 -0.003749 0.021023 0.000000 0.000000 0.000000
# 4 0.000000 0.000000 0.000000 0.142740 0.000000 0.000000
# 5 0.000000 0.000000 0.000000 0.000000 0.389320 0.000000
# 6 0.000000 0.000000 0.000000 0.000000 0.000000 0.028968
#
#
# Mechanical properties :
#
#
# Convention : Reuss Voigt Hill
#
# Bulk Modulus (GPa) = 45.31686 67.89859 56.60772
# Shear Modulus (GPa) = 7.91637 24.99823 16.45730
#
# Velocity S-wave (km/s) = 1.91564 3.40413 2.76204
# Velocity P-wave (km/s) = 5.08919 6.85023 6.03429
#
# Compressibility (1/GPa) = 0.02206684
#
# Stress axis : x y z
#
# Youngs Moduli (GPa) = 170.20524 63.51537 47.56626
#
# Poissons Ratio (x) = 0.14464 0.20273
# Poissons Ratio (y) = 0.38761 0.17831
# Poissons Ratio (z) = 0.72543 0.23809
#
# Static dielectric constant tensor:
#      x y z
#    x 1.716350 0.000000 0.000000 
#    y 0.000000 1.872040 0.000000 
#    z 0.000000 0.000000 1.764880 
# 
# From -- ./inp_files/17215.got.cif
#   From: 2010.05.17/outbox.cif.g08.bks.cpg/sg67_9_cif.got.tgz:17215.got - 2010.06.03 18:28:57.
