data_PCOD9504149
_publ_section_title
;
Structure prediction by ZEFSAII (Michael W. Deem and Ramdas Pophale) SiO2 
 PCOD9504149
Probable space group: C M M A
;
_chemical_formula_sum "Si O2"
_cell_formula_units_Z 112
_cell_length_a 28.117115
_cell_length_b 13.731291
_cell_length_c 15.442480
_cell_angle_alpha 90.000000
_cell_angle_beta 90.000000
_cell_angle_gamma 90.000000
_cell_volume 5962.098898
_symmetry_space_group_name_H-M "C M M A"
_symmetry_group_IT_number 67
_symmetry_cell_setting 'orthorhombic'
loop_
_space_group_symop_operation_xyz
x,y,z
-x,1/2-y,z
x,-y,-z
-x,1/2+y,-z
-x,-y,-z
x,1/2+y,-z
-x,y,z
x,1/2-y,z
1/2+x,1/2+y,z
1/2-x,-y,z
1/2+x,1/2-y,-z
1/2-x,y,-z
1/2-x,1/2-y,-z
1/2+x,y,-z
1/2-x,1/2+y,z
1/2+x,-y,z
loop_
_atom_site_type_symbol
_atom_site_label
_atom_site_fract_x
_atom_site_fract_y
_atom_site_fract_z
Si Si1 0.199424 0.635663 0.041565
Si Si2 0.708722 0.132750 0.379044
Si Si3 0.305407 0.483742 0.213827
Si Si4 0.376513 0.866816 0.267524
Si Si5 0.816655 0.132857 0.430240
Si Si6 0.094740 0.362836 0.980436
Si Si7 0.444574 0.529362 0.140054
O O1 0.204409 0.750000 0.061580
O O2 0.187789 0.577115 0.127652
O O3 0.149958 0.623330 0.990006
O O4 0.250000 0.606479 0.000000
O O5 0.706642 0.250000 0.369455
O O6 0.683962 0.080880 0.298541
O O7 0.765041 0.106436 0.389201
O O8 0.684325 0.102466 0.469567
O O9 0.250000 0.500000 0.217265
O O10 0.332300 0.586133 0.215593
O O11 0.380943 0.750000 0.257338
O O12 0.360525 0.889425 0.366722
O O13 0.420244 0.925557 0.225633
O O14 0.815113 0.250000 0.433581
O O15 0.088862 0.250000 0.957408
O O16 0.080575 0.433465 0.900921
O O17 0.063013 0.392960 0.062357
O O18 0.500000 0.510276 0.153192
#
# Coordination Sequence:
#
# PCOD9504149 Si02
#       7
#    16  16  16  16  16  16  16
#     4  10  23  39  57  84 122 165 199 231 278 347
#     4   9  17  32  54  81 115 150 191 233 274 338
#     4  12  23  33  54  82 113 160 203 236 278 342
#     4  11  23  39  55  80 119 153 192 242 296 351
#     4   8  16  32  53  80 115 153 186 229 287 340
#     4  10  21  39  62  88 119 151 194 248 298 345
#     4  11  24  41  63  87 110 145 198 252 307 360
#
# _framework density 18.785329999999998
#
# number of rings (size 3 to 8) (size 9 to 14) (size 15 to 20)
#    0.000    1.857    2.857    2.571    2.000    3.429 
#    0.000    0.000    0.000    0.429    0.000    2.000 
#    0.000    1.143    0.000    0.000    0.000    0.000 
#
# Total GULP energy -312388.574973 kJ/mol
# GULP energy per Si atom -5578.367410 kJ/mol
# Density = 1.874257 g / cm^3
# Si number density = 18.785330 Si / 1000 Ang^3
#
#
#
# Elastic Constant Matrix: (Units=GPa)
#
#
# Indices 1 2 3 4 5 6 
#
# 1 110.5592 28.1453 28.5830 0.0000 0.0000 0.0000
# 2 28.1453 95.6418 27.6851 0.0000 0.0000 0.0000
# 3 28.5830 27.6851 100.6989 0.0000 0.0000 0.0000
# 4 0.0000 0.0000 0.0000 16.2291 0.0000 0.0000
# 5 0.0000 0.0000 0.0000 0.0000 -209.5652 0.0000
# 6 0.0000 0.0000 0.0000 0.0000 0.0000 16.5875
#
#
#
# Elastic Compliance Matrix: (Units=1/GPa)
#
#
# Indices 1 2 3 4 5 6 
#
# 1 0.010228 -0.002357 -0.002255 0.000000 0.000000 0.000000
# 2 -0.002357 0.011903 -0.002603 0.000000 0.000000 0.000000
# 3 -0.002255 -0.002603 0.011286 0.000000 0.000000 0.000000
# 4 0.000000 0.000000 0.000000 0.061618 0.000000 0.000000
# 5 0.000000 0.000000 0.000000 0.000000 -0.004772 0.000000
# 6 0.000000 0.000000 0.000000 0.000000 0.000000 0.060286
#
#
# Mechanical properties :
#
#
# Convention : Reuss Voigt Hill
#
# Bulk Modulus (GPa) = 52.67012 52.85851 52.76431
# Shear Modulus (GPa) = 29.18695 -20.51728 4.33483
#
# Velocity S-wave (km/s) = 3.94599 -3.30843 1.52071
# Velocity P-wave (km/s) = 6.98998 3.68850 5.58860
#
# Compressibility (1/GPa) = 0.01898610
#
# Stress axis : x y z
#
# Youngs Moduli (GPa) = 97.77078 84.01304 88.60173
#
# Poissons Ratio (x) = 0.19803 0.19981
# Poissons Ratio (y) = 0.23045 0.23067
# Poissons Ratio (z) = 0.22049 0.21872
#
# Static dielectric constant tensor:
#      x y z
#    x 1.650440 0.000000 0.000000 
#    y 0.000000 1.706410 0.000000 
#    z 0.000000 0.000000 1.722600 
# 
# From -- ./inp_files/30809.got.cif
#   From: 2010.05.17/outbox.cif.g08.bks.cpg/sg67_16_cif.got.tgz:30809.got - 2010.06.03 18:28:57.
