data_PCOD9504475
_publ_section_title
;
Structure prediction by ZEFSAII (Michael W. Deem and Ramdas Pophale) SiO2 
 PCOD9504475
Probable space group: C M M A
;
_chemical_formula_sum "Si O2"
_cell_formula_units_Z 112
_cell_length_a 14.502014
_cell_length_b 17.581731
_cell_length_c 21.580606
_cell_angle_alpha 90.000000
_cell_angle_beta 90.000000
_cell_angle_gamma 90.000000
_cell_volume 5502.418099
_symmetry_space_group_name_H-M "C M M A"
_symmetry_group_IT_number 67
_symmetry_cell_setting 'orthorhombic'
loop_
_space_group_symop_operation_xyz
x,y,z
-x,1/2-y,z
x,-y,-z
-x,1/2+y,-z
-x,-y,-z
x,1/2+y,-z
-x,y,z
x,1/2-y,z
1/2+x,1/2+y,z
1/2-x,-y,z
1/2+x,1/2-y,-z
1/2-x,y,-z
1/2-x,1/2-y,-z
1/2+x,y,-z
1/2-x,1/2+y,z
1/2+x,-y,z
loop_
_atom_site_type_symbol
_atom_site_label
_atom_site_fract_x
_atom_site_fract_y
_atom_site_fract_z
Si Si1 0.788030 0.660107 0.355831
Si Si2 0.396179 0.341103 0.021317
Si Si3 0.894578 0.077048 0.326660
Si Si4 0.609508 0.934597 0.749530
Si Si5 0.899604 0.341277 0.123715
Si Si6 0.606799 0.045042 0.438225
Si Si7 0.781962 0.584217 0.127911
O O1 0.801620 0.750000 0.362163
O O2 0.681555 0.639628 0.341710
O O3 0.844162 0.624237 0.298067
O O4 0.827009 0.612544 0.414878
O O5 0.500000 0.360393 0.042473
O O6 0.385966 0.250000 0.022902
O O7 0.322844 0.376600 0.067095
O O8 0.390944 0.363298 0.949101
O O9 0.000000 0.104192 0.317866
O O10 0.865537 0.021045 0.270540
O O11 0.893817 0.017918 0.384034
O O12 0.500000 0.928737 0.742989
O O13 0.642458 0.918814 0.818500
O O14 0.900202 0.250000 0.126759
O O15 0.807648 0.372228 0.153770
O O16 0.000000 0.368797 0.146418
O O17 0.500000 0.071857 0.445765
O O18 0.634436 0.000000 0.500000
O O19 0.750000 0.500000 0.112047
#
# Coordination Sequence:
#
# PCOD9504475 Si02
#       7
#    16  16  16  16  16  16  16
#     4  11  22  36  59  91 122 150 187 243 300 339
#     4   9  19  37  58  78 105 145 189 231 282 347
#     4   9  19  38  60  80 111 158 199 226 270 342
#     4  10  22  41  61  79 107 150 195 236 283 348
#     4   9  20  39  58  76 106 150 192 228 278 351
#     4   9  18  35  60  86 115 157 201 235 273 331
#     4  12  23  34  54  85 114 140 180 237 293 342
#
# _framework density 20.354686999999998
#
# number of rings (size 3 to 8) (size 9 to 14) (size 15 to 20)
#    0.000    2.143    0.000    6.000    0.000    7.143 
#    0.000    3.571    0.000    2.571    0.000    0.000 
#    0.000    0.000    0.000    0.000    0.000    0.000 
#
# Total GULP energy -312842.444323 kJ/mol
# GULP energy per Si atom -5586.472220 kJ/mol
# Density = 2.030836 g / cm^3
# Si number density = 20.354687 Si / 1000 Ang^3
#
#
#
# Elastic Constant Matrix: (Units=GPa)
#
#
# Indices 1 2 3 4 5 6 
#
# 1 111.5530 44.9019 10.9642 0.0000 0.0000 0.0000
# 2 44.9019 68.5727 9.8560 0.0000 0.0000 0.0000
# 3 10.9642 9.8560 42.6714 0.0000 0.0000 0.0000
# 4 0.0000 0.0000 0.0000 44.0349 0.0000 0.0000
# 5 0.0000 0.0000 0.0000 0.0000 22.3471 0.0000
# 6 0.0000 0.0000 0.0000 0.0000 0.0000 14.8628
#
#
#
# Elastic Compliance Matrix: (Units=1/GPa)
#
#
# Indices 1 2 3 4 5 6 
#
# 1 0.012246 -0.007826 -0.001339 0.000000 0.000000 0.000000
# 2 -0.007826 0.020086 -0.002628 0.000000 0.000000 0.000000
# 3 -0.001339 -0.002628 0.024386 0.000000 0.000000 0.000000
# 4 0.000000 0.000000 0.000000 0.022709 0.000000 0.000000
# 5 0.000000 0.000000 0.000000 0.000000 0.044749 0.000000
# 6 0.000000 0.000000 0.000000 0.000000 0.000000 0.067282
#
#
# Mechanical properties :
#
#
# Convention : Reuss Voigt Hill
#
# Bulk Modulus (GPa) = 30.18363 39.36015 34.77189
# Shear Modulus (GPa) = 22.11523 26.72064 24.41793
#
# Velocity S-wave (km/s) = 3.29978 3.62712 3.46731
# Velocity P-wave (km/s) = 5.42025 6.07622 5.75758
#
# Compressibility (1/GPa) = 0.03313054
#
# Stress axis : x y z
#
# Youngs Moduli (GPa) = 81.65773 49.78675 41.00716
#
# Poissons Ratio (x) = 0.38966 0.05490
# Poissons Ratio (y) = 0.63909 0.10778
# Poissons Ratio (z) = 0.10933 0.13085
#
# Static dielectric constant tensor:
#      x y z
#    x 1.769300 0.000000 0.000000 
#    y 0.000000 1.684260 0.000000 
#    z 0.000000 0.000000 1.731200 
# 
# From -- ./inp_files/41950.got.cif
#   From: 2010.05.17/outbox.cif.g08.bks.cpg/sg67_21_cif.got.tgz:41950.got - 2010.06.03 18:28:57.
