data_PCOD9504986
_publ_section_title
;
Structure prediction by ZEFSAII (Michael W. Deem and Ramdas Pophale) SiO2 
 PCOD9504986
Probable space group: C M M A
;
_chemical_formula_sum "Si O2"
_cell_formula_units_Z 88
_cell_length_a 8.471626
_cell_length_b 25.731442
_cell_length_c 22.610616
_cell_angle_alpha 90.000000
_cell_angle_beta 90.000000
_cell_angle_gamma 90.000000
_cell_volume 4928.823811
_symmetry_space_group_name_H-M "C M M A"
_symmetry_group_IT_number 67
_symmetry_cell_setting 'orthorhombic'
loop_
_space_group_symop_operation_xyz
x,y,z
-x,1/2-y,z
x,-y,-z
-x,1/2+y,-z
-x,-y,-z
x,1/2+y,-z
-x,y,z
x,1/2-y,z
1/2+x,1/2+y,z
1/2-x,-y,z
1/2+x,1/2-y,-z
1/2-x,y,-z
1/2-x,1/2-y,-z
1/2+x,y,-z
1/2-x,1/2+y,z
1/2+x,-y,z
loop_
_atom_site_type_symbol
_atom_site_label
_atom_site_fract_x
_atom_site_fract_y
_atom_site_fract_z
Si Si1 0.190614 0.443564 0.796709
Si Si2 0.188912 0.640225 0.435829
Si Si3 0.809064 0.250000 0.933455
Si Si4 0.690479 0.056521 0.340110
Si Si5 0.308022 0.333781 0.161199
Si Si6 0.809263 0.750000 0.259196
Si Si7 0.313331 0.250000 0.607738
O O1 0.250000 0.500000 0.816529
O O2 0.240965 0.435928 0.728115
O O3 0.245718 0.393102 0.832965
O O4 0.000000 0.444364 0.797745
O O5 0.250000 0.623902 0.500000
O O6 0.245510 0.601506 0.384102
O O7 0.244556 0.698259 0.421609
O O8 0.000000 0.639377 0.436016
O O9 0.756531 0.199547 0.895573
O O10 0.000000 0.250000 0.933581
O O11 0.750000 0.250000 0.000000
O O12 0.500000 0.056625 0.340224
O O13 0.750000 0.000000 0.359360
O O14 0.500000 0.334354 0.159963
O O15 0.266492 0.300162 0.219482
O O16 0.732357 0.750000 0.323068
O O17 0.000000 0.750000 0.266556
O O18 0.500000 0.250000 0.600637
#
# Coordination Sequence:
#
# PCOD9504986 Si02
#       7
#    16  16   8  16  16   8   8
#     4   9  16  29  48  72  98 126 158 194 236 288
#     4  11  23  39  55  71  93 127 167 206 248 301
#     4   9  17  31  51  75 100 133 169 206 244 281
#     4   9  19  34  54  76  99 126 158 198 247 297
#     4   8  15  29  51  74  99 131 167 198 237 291
#     4   9  16  31  54  75  94 123 160 200 243 297
#     4  12  24  36  51  74 101 128 158 202 256 306
#
# _framework density 17.854158999999999
#
# number of rings (size 3 to 8) (size 9 to 14) (size 15 to 20)
#    0.000    2.545    0.000    3.818    0.000    4.727 
#    0.000    9.091    0.000    0.545    0.000    3.818 
#    0.000    0.000    0.000    0.000    0.000    0.000 
#
# Total GULP energy -245458.613843 kJ/mol
# GULP energy per Si atom -5578.604860 kJ/mol
# Density = 1.781352 g / cm^3
# Si number density = 17.854159 Si / 1000 Ang^3
#
#
#
# Elastic Constant Matrix: (Units=GPa)
#
#
# Indices 1 2 3 4 5 6 
#
# 1 19.2799 17.4093 13.0549 0.0000 0.0000 0.0000
# 2 17.4093 163.3414 55.7821 0.0000 0.0000 0.0000
# 3 13.0549 55.7821 79.7457 0.0000 0.0000 0.0000
# 4 0.0000 0.0000 0.0000 -17.5088 0.0000 0.0000
# 5 0.0000 0.0000 0.0000 0.0000 25.3811 0.0000
# 6 0.0000 0.0000 0.0000 0.0000 0.0000 24.7690
#
#
#
# Elastic Compliance Matrix: (Units=1/GPa)
#
#
# Indices 1 2 3 4 5 6 
#
# 1 0.060271 -0.004013 -0.007060 0.000000 0.000000 0.000000
# 2 -0.004013 0.008311 -0.005156 0.000000 0.000000 0.000000
# 3 -0.007060 -0.005156 0.017303 0.000000 0.000000 0.000000
# 4 0.000000 0.000000 0.000000 -0.057114 0.000000 0.000000
# 5 0.000000 0.000000 0.000000 0.000000 0.039399 0.000000
# 6 0.000000 0.000000 0.000000 0.000000 0.000000 0.040373
#
#
# Mechanical properties :
#
#
# Convention : Reuss Voigt Hill
#
# Bulk Modulus (GPa) = 18.71732 48.31774 33.51753
# Shear Modulus (GPa) = 31.48411 18.26964 24.87687
#
# Velocity S-wave (km/s) = 4.20385 3.20233 3.73679
# Velocity P-wave (km/s) = 5.83689 6.38705 6.11816
#
# Compressibility (1/GPa) = 0.05342645
#
# Stress axis : x y z
#
# Youngs Moduli (GPa) = 16.59160 120.32501 57.79490
#
# Poissons Ratio (x) = 0.48285 0.40802
# Poissons Ratio (y) = 0.06658 0.29802
# Poissons Ratio (z) = 0.11713 0.62045
#
# Static dielectric constant tensor:
#      x y z
#    x 1.616040 0.000000 0.000000 
#    y 0.000000 1.616730 0.000000 
#    z 0.000000 0.000000 1.590270 
# 
# From -- ./inp_files/37003.got.cif
#   From: 2010.05.17/outbox.cif.g08.bks.cpg/sg67_19_cif.got.tgz:37003.got - 2010.06.03 18:28:57.
