data_PCOD9504673
_publ_section_title
;
Structure prediction by ZEFSAII (Michael W. Deem and Ramdas Pophale) SiO2 
 PCOD9504673
Probable space group: C M M A
;
_chemical_formula_sum "Si O2"
_cell_formula_units_Z 68
_cell_length_a 9.430172
_cell_length_b 19.398945
_cell_length_c 18.995738
_cell_angle_alpha 90.000000
_cell_angle_beta 90.000000
_cell_angle_gamma 90.000000
_cell_volume 3474.992701
_symmetry_space_group_name_H-M "C M M A"
_symmetry_group_IT_number 67
_symmetry_cell_setting 'orthorhombic'
loop_
_space_group_symop_operation_xyz
x,y,z
-x,1/2-y,z
x,-y,-z
-x,1/2+y,-z
-x,-y,-z
x,1/2+y,-z
-x,y,z
x,1/2-y,z
1/2+x,1/2+y,z
1/2-x,-y,z
1/2+x,1/2-y,-z
1/2-x,y,-z
1/2-x,1/2-y,-z
1/2+x,y,-z
1/2-x,1/2+y,z
1/2+x,-y,z
loop_
_atom_site_type_symbol
_atom_site_label
_atom_site_fract_x
_atom_site_fract_y
_atom_site_fract_z
Si Si1 0.331055 0.169608 0.070160
Si Si2 0.500000 0.750000 0.344119
Si Si3 0.000000 0.440350 0.441448
Si Si4 0.725889 0.376578 0.648455
Si Si5 0.000000 0.831797 0.439737
Si Si6 0.330219 0.429152 0.200664
O O1 0.500000 0.165464 0.058154
O O2 0.294645 0.250000 0.082552
O O3 0.297332 0.124789 0.138501
O O4 0.250000 0.146432 0.000000
O O5 0.623393 0.689089 0.344017
O O6 0.000000 0.500000 0.500000
O O7 0.863130 0.436162 0.391611
O O8 0.000000 0.369283 0.485526
O O9 0.861171 0.355586 0.602098
O O10 0.777353 0.400875 0.724599
O O11 0.000000 0.750000 0.449531
O O12 0.500000 0.439099 0.203164
O O13 0.250000 0.500000 0.185828
#
# Coordination Sequence:
#
# PCOD9504673 Si02
#       6
#    16   4   8  16   8  16
#     4   9  20  42  69 102 135 174 224 272 330 399
#     4  10  24  44  66 102 128 166 218 290 332 406
#     4  11  29  46  68  97 134 177 223 286 349 406
#     4  11  25  45  68  96 134 171 230 274 343 410
#     4  12  25  43  71  94 126 174 219 278 349 402
#     4  11  26  44  68  97 138 182 223 279 333 401
#
# _framework density 19.568386
#
# number of rings (size 3 to 8) (size 9 to 14) (size 15 to 20)
#    0.000    1.412    2.353    0.706   11.529    3.294 
#    0.000    2.353    0.000    0.000    0.000    0.000 
#    0.000    0.000    0.000    0.000    0.000    0.000 
#
# Total GULP energy -189666.857228 kJ/mol
# GULP energy per Si atom -5578.436977 kJ/mol
# Density = 1.952385 g / cm^3
# Si number density = 19.568386 Si / 1000 Ang^3
#
#
#
# Elastic Constant Matrix: (Units=GPa)
#
#
# Indices 1 2 3 4 5 6 
#
# 1 119.1450 54.6074 70.5181 0.0000 0.0000 0.0000
# 2 54.6074 96.4732 75.7009 0.0000 0.0000 0.0000
# 3 70.5181 75.7009 176.6909 0.0000 0.0000 0.0000
# 4 0.0000 0.0000 0.0000 18.7996 0.0000 0.0000
# 5 0.0000 0.0000 0.0000 0.0000 36.1904 0.0000
# 6 0.0000 0.0000 0.0000 0.0000 0.0000 26.9486
#
#
#
# Elastic Compliance Matrix: (Units=1/GPa)
#
#
# Indices 1 2 3 4 5 6 
#
# 1 0.012239 -0.004662 -0.002887 0.000000 0.000000 0.000000
# 2 -0.004662 0.017391 -0.005590 0.000000 0.000000 0.000000
# 3 -0.002887 -0.005590 0.009207 0.000000 0.000000 0.000000
# 4 0.000000 0.000000 0.000000 0.053193 0.000000 0.000000
# 5 0.000000 0.000000 0.000000 0.000000 0.027632 0.000000
# 6 0.000000 0.000000 0.000000 0.000000 0.000000 0.037108
#
#
# Mechanical properties :
#
#
# Convention : Reuss Voigt Hill
#
# Bulk Modulus (GPa) = 79.63231 88.21799 83.92515
# Shear Modulus (GPa) = 26.70459 29.15323 27.92891
#
# Velocity S-wave (km/s) = 3.69817 3.86400 3.78199
# Velocity P-wave (km/s) = 7.68231 8.06765 7.87734
#
# Compressibility (1/GPa) = 0.01255772
#
# Stress axis : x y z
#
# Youngs Moduli (GPa) = 81.70816 57.50057 108.61347
#
# Poissons Ratio (x) = 0.26807 0.31358
# Poissons Ratio (y) = 0.38093 0.60719
# Poissons Ratio (z) = 0.23590 0.32145
#
# Static dielectric constant tensor:
#      x y z
#    x 1.643630 0.000000 0.000000 
#    y 0.000000 1.697120 0.000000 
#    z 0.000000 0.000000 1.663660 
# 
# From -- ./inp_files/34735.got.cif
#   From: 2010.05.17/outbox.cif.g08.bks.cpg/sg67_18_cif.got.tgz:34735.got - 2010.06.03 18:28:57.
