data_PCOD9504918
_publ_section_title
;
Structure prediction by ZEFSAII (Michael W. Deem and Ramdas Pophale) SiO2 
 PCOD9504918
Probable space group: C M M A
;
_chemical_formula_sum "Si O2"
_cell_formula_units_Z 88
_cell_length_a 9.409732
_cell_length_b 21.392933
_cell_length_c 23.326456
_cell_angle_alpha 90.000000
_cell_angle_beta 90.000000
_cell_angle_gamma 90.000000
_cell_volume 4695.656793
_symmetry_space_group_name_H-M "C M M A"
_symmetry_group_IT_number 67
_symmetry_cell_setting 'orthorhombic'
loop_
_space_group_symop_operation_xyz
x,y,z
-x,1/2-y,z
x,-y,-z
-x,1/2+y,-z
-x,-y,-z
x,1/2+y,-z
-x,y,z
x,1/2-y,z
1/2+x,1/2+y,z
1/2-x,-y,z
1/2+x,1/2-y,-z
1/2-x,y,-z
1/2-x,1/2-y,-z
1/2+x,y,-z
1/2-x,1/2+y,z
1/2+x,-y,z
loop_
_atom_site_type_symbol
_atom_site_label
_atom_site_fract_x
_atom_site_fract_y
_atom_site_fract_z
Si Si1 0.500000 0.408735 0.952099
Si Si2 0.665298 0.175695 0.236178
Si Si3 0.259960 0.869931 0.877179
Si Si4 0.000000 0.553139 0.079466
Si Si5 0.824444 0.564214 0.562629
Si Si6 0.669523 0.324496 0.371300
Si Si7 0.847907 0.750000 0.055334
O O1 0.632363 0.379255 0.920563
O O2 0.500000 0.481844 0.937587
O O3 0.500000 0.406508 0.020540
O O4 0.500000 0.159389 0.223124
O O5 0.680129 0.250000 0.228630
O O6 0.764302 0.141803 0.189885
O O7 0.689279 0.163749 0.303226
O O8 0.362352 0.928509 0.885276
O O9 0.333546 0.808602 0.902657
O O10 0.750000 0.500000 0.586654
O O11 0.750000 0.569579 0.500000
O O12 0.769126 0.626038 0.595939
O O13 0.000000 0.560070 0.560488
O O14 0.500000 0.334149 0.384178
O O15 0.698701 0.250000 0.382223
O O16 0.000000 0.750000 0.027501
O O17 0.750000 0.750000 0.000000
#
# Coordination Sequence:
#
# PCOD9504918 Si02
#       7
#     8  16  16   8  16  16   8
#     4  11  26  39  55  83 111 146 192 243 300 353
#     4   9  17  36  61  85 112 154 196 235 292 360
#     4  12  22  38  61  83 110 146 192 239 299 361
#     4  11  22  43  61  73 107 154 194 239 290 371
#     4  11  22  39  64  94 132 171 211 254 306 356
#     4   9  19  37  64  91 121 164 214 256 301 361
#     4  12  24  36  58  86 114 140 181 238 305 366
#
# _framework density 18.740722000000002
#
# number of rings (size 3 to 8) (size 9 to 14) (size 15 to 20)
#    0.000    1.455    2.727    5.455    1.273    2.182 
#    1.636    1.818    0.000    0.000    0.000    0.000 
#    0.000    0.000    0.000    0.000    0.000    0.000 
#
# Total GULP energy -245244.249191 kJ/mol
# GULP energy per Si atom -5573.732936 kJ/mol
# Density = 1.869807 g / cm^3
# Si number density = 18.740722 Si / 1000 Ang^3
#
#
#
# Elastic Constant Matrix: (Units=GPa)
#
#
# Indices 1 2 3 4 5 6 
#
# 1 105.9650 39.4939 31.8039 0.0000 0.0000 0.0000
# 2 39.4939 92.9945 40.9759 0.0000 0.0000 0.0000
# 3 31.8039 40.9759 81.7158 0.0000 0.0000 0.0000
# 4 0.0000 0.0000 0.0000 27.8994 0.0000 0.0000
# 5 0.0000 0.0000 0.0000 0.0000 -31.6843 0.0000
# 6 0.0000 0.0000 0.0000 0.0000 0.0000 24.8611
#
#
#
# Elastic Compliance Matrix: (Units=1/GPa)
#
#
# Indices 1 2 3 4 5 6 
#
# 1 0.011637 -0.003782 -0.002633 0.000000 0.000000 0.000000
# 2 -0.003782 0.015032 -0.006066 0.000000 0.000000 0.000000
# 3 -0.002633 -0.006066 0.016304 0.000000 0.000000 0.000000
# 4 0.000000 0.000000 0.000000 0.035843 0.000000 0.000000
# 5 0.000000 0.000000 0.000000 0.000000 -0.031561 0.000000
# 6 0.000000 0.000000 0.000000 0.000000 0.000000 0.040224
#
#
# Mechanical properties :
#
#
# Convention : Reuss Voigt Hill
#
# Bulk Modulus (GPa) = 55.51873 56.13585 55.82729
# Shear Modulus (GPa) = 42.21431 15.44200 28.82816
#
# Velocity S-wave (km/s) = 4.75125 2.87362 3.92632
# Velocity P-wave (km/s) = 7.73228 6.40541 7.09991
#
# Compressibility (1/GPa) = 0.01801194
#
# Stress axis : x y z
#
# Youngs Moduli (GPa) = 85.93427 66.52333 61.33523
#
# Poissons Ratio (x) = 0.25160 0.16147
# Poissons Ratio (y) = 0.32501 0.37205
# Poissons Ratio (z) = 0.22623 0.40352
#
# Static dielectric constant tensor:
#      x y z
#    x 1.666000 0.000000 0.000000 
#    y 0.000000 1.663170 0.000000 
#    z 0.000000 0.000000 1.645910 
# 
# From -- ./inp_files/40717.got.cif
#   From: 2010.05.17/outbox.cif.g08.bks.cpg/sg67_21_cif.got.tgz:40717.got - 2010.06.03 18:28:57.
