data_PCOD9504524
_publ_section_title
;
Structure prediction by ZEFSAII (Michael W. Deem and Ramdas Pophale) SiO2 
 PCOD9504524
Probable space group: C M M A
;
_chemical_formula_sum "Si O2"
_cell_formula_units_Z 64
_cell_length_a 20.545660
_cell_length_b 27.025600
_cell_length_c 5.192246
_cell_angle_alpha 90.000000
_cell_angle_beta 90.000000
_cell_angle_gamma 90.000000
_cell_volume 2883.040226
_symmetry_space_group_name_H-M "C M M A"
_symmetry_group_IT_number 67
_symmetry_cell_setting 'orthorhombic'
loop_
_space_group_symop_operation_xyz
x,y,z
-x,1/2-y,z
x,-y,-z
-x,1/2+y,-z
-x,-y,-z
x,1/2+y,-z
-x,y,z
x,1/2-y,z
1/2+x,1/2+y,z
1/2-x,-y,z
1/2+x,1/2-y,-z
1/2-x,y,-z
1/2-x,1/2-y,-z
1/2+x,y,-z
1/2-x,1/2+y,z
1/2+x,-y,z
loop_
_atom_site_type_symbol
_atom_site_label
_atom_site_fract_x
_atom_site_fract_y
_atom_site_fract_z
Si Si1 0.356711 0.532215 0.738901
Si Si2 0.429632 0.899935 0.386113
Si Si3 0.678087 0.626740 0.989570
Si Si4 0.571645 0.306912 0.260823
O O1 0.331762 0.500000 0.500000
O O2 0.419747 0.560218 0.616121
O O3 0.366643 0.500000 0.000000
O O4 0.312612 0.579653 0.800733
O O5 0.500000 0.909999 0.258196
O O6 0.364696 0.898759 0.215107
O O7 0.431640 0.845040 0.503641
O O8 0.750000 0.648205 0.000000
O O9 0.629705 0.670094 0.902317
O O10 0.500000 0.309756 0.131431
O O11 0.582369 0.250000 0.332459
#
# Coordination Sequence:
#
# PCOD9504524 Si02
#       4
#    16  16  16  16
#     4  11  23  45  64  99 132 181 231 285 342 405
#     4  10  22  42  67  95 134 176 227 286 347 408
#     4  11  24  42  64  97 139 179 228 283 340 408
#     4   9  20  40  67  99 134 176 227 282 343 410
#
# _framework density 22.198786999999999
#
# number of rings (size 3 to 8) (size 9 to 14) (size 15 to 20)
#    0.000    1.750    2.500    0.750    0.000    8.000 
#    4.500    3.750    0.000    0.000    0.000    0.000 
#    0.000    0.000    0.000    0.000    0.000    0.000 
#
# Total GULP energy -178141.067156 kJ/mol
# GULP energy per Si atom -5566.908349 kJ/mol
# Density = 2.214826 g / cm^3
# Si number density = 22.198787 Si / 1000 Ang^3
#
#
#
# Elastic Constant Matrix: (Units=GPa)
#
#
# Indices 1 2 3 4 5 6 
#
# 1 167.2808 27.2081 35.0783 0.0000 0.0000 0.0000
# 2 27.2081 135.3012 18.2797 0.0000 0.0000 0.0000
# 3 35.0783 18.2797 69.4522 0.0000 0.0000 0.0000
# 4 0.0000 0.0000 0.0000 -22.6422 0.0000 0.0000
# 5 0.0000 0.0000 0.0000 0.0000 54.8861 0.0000
# 6 0.0000 0.0000 0.0000 0.0000 0.0000 8.9390
#
#
#
# Elastic Compliance Matrix: (Units=1/GPa)
#
#
# Indices 1 2 3 4 5 6 
#
# 1 0.006799 -0.000937 -0.003187 0.000000 0.000000 0.000000
# 2 -0.000937 0.007792 -0.001578 0.000000 0.000000 0.000000
# 3 -0.003187 -0.001578 0.016424 0.000000 0.000000 0.000000
# 4 0.000000 0.000000 0.000000 -0.044165 0.000000 0.000000
# 5 0.000000 0.000000 0.000000 0.000000 0.018220 0.000000
# 6 0.000000 0.000000 0.000000 0.000000 0.000000 0.111869
#
#
# Mechanical properties :
#
#
# Convention : Reuss Voigt Hill
#
# Bulk Modulus (GPa) = 50.99169 59.24072 55.11620
# Shear Modulus (GPa) = 37.07037 27.66779 32.36908
#
# Velocity S-wave (km/s) = 4.09091 3.53422 3.82271
# Velocity P-wave (km/s) = 6.73308 6.58777 6.66082
#
# Compressibility (1/GPa) = 0.01961104
#
# Stress axis : x y z
#
# Youngs Moduli (GPa) = 147.08760 128.32955 60.88827
#
# Poissons Ratio (x) = 0.12019 0.19407
# Poissons Ratio (y) = 0.13775 0.09608
# Poissons Ratio (z) = 0.46881 0.20250
#
# Static dielectric constant tensor:
#      x y z
#    x 1.847180 0.000000 0.000000 
#    y 0.000000 1.793120 0.000000 
#    z 0.000000 0.000000 1.966100 
# 
# From -- ./inp_files/2848.got.cif
#   From: 2010.05.17/outbox.cif.g08.bks.cpg/sg67_2_cif.got.tgz:2848.got - 2010.06.03 18:28:57.
