data_PCOD9504713
_publ_section_title
;
Structure prediction by ZEFSAII (Michael W. Deem and Ramdas Pophale) SiO2 
 PCOD9504713
Probable space group: C M M A
;
_chemical_formula_sum "Si O2"
_cell_formula_units_Z 128
_cell_length_a 27.936566
_cell_length_b 22.803922
_cell_length_c 12.941408
_cell_angle_alpha 90.000000
_cell_angle_beta 90.000000
_cell_angle_gamma 90.000000
_cell_volume 8244.495725
_symmetry_space_group_name_H-M "C M M A"
_symmetry_group_IT_number 67
_symmetry_cell_setting 'orthorhombic'
loop_
_space_group_symop_operation_xyz
x,y,z
-x,1/2-y,z
x,-y,-z
-x,1/2+y,-z
-x,-y,-z
x,1/2+y,-z
-x,y,z
x,1/2-y,z
1/2+x,1/2+y,z
1/2-x,-y,z
1/2+x,1/2-y,-z
1/2-x,y,-z
1/2-x,1/2-y,-z
1/2+x,y,-z
1/2-x,1/2+y,z
1/2+x,-y,z
loop_
_atom_site_type_symbol
_atom_site_label
_atom_site_fract_x
_atom_site_fract_y
_atom_site_fract_z
Si Si1 0.688374 0.319323 0.107867
Si Si2 0.693109 0.004252 0.375334
Si Si3 0.197946 0.180716 0.129309
Si Si4 0.146310 0.884306 0.684962
Si Si5 0.944044 0.817561 0.636361
Si Si6 0.195667 0.181653 0.503368
Si Si7 0.352442 0.127140 0.306416
Si Si8 0.444467 0.681983 0.612932
O O1 0.678303 0.250000 0.120800
O O2 0.744742 0.327871 0.132082
O O3 0.658417 0.356432 0.188982
O O4 0.681427 0.333801 0.987225
O O5 0.662469 0.951231 0.326991
O O6 0.689769 0.000000 0.500000
O O7 0.750000 0.000000 0.349148
O O8 0.669812 0.064771 0.337176
O O9 0.189257 0.250000 0.146528
O O10 0.172384 0.143603 0.216690
O O11 0.090805 0.865318 0.686544
O O12 0.165943 0.853070 0.581216
O O13 0.929875 0.750000 0.662727
O O14 0.940300 0.822348 0.511589
O O15 0.000000 0.824806 0.662832
O O16 0.195290 0.250000 0.476131
O O17 0.250000 0.159476 0.500000
O O18 0.174899 0.172272 0.616990
O O19 0.407779 0.137556 0.334466
O O20 0.500000 0.671782 0.639441
O O21 0.432683 0.750000 0.639776
#
# Coordination Sequence:
#
# PCOD9504713 Si02
#       8
#    16  16  16  16  16  16  16  16
#     4   9  18  32  50  73 100 129 163 209 262 308
#     4  11  22  34  46  68 106 145 170 201 247 294
#     4   9  18  32  50  73 100 129 163 209 262 308
#     4  12  20  32  50  69  99 136 171 200 247 301
#     4   9  17  30  49  74 101 126 159 209 265 312
#     4  11  20  27  44  74  97 117 155 204 250 304
#     4  12  20  32  50  69  99 136 171 200 247 301
#     4   9  17  30  49  74 101 126 159 209 265 312
#
# _framework density 15.525509
#
# number of rings (size 3 to 8) (size 9 to 14) (size 15 to 20)
#    0.000    1.750    2.500    6.000    0.000    2.000 
#    0.000    1.250    0.000    5.250    0.000    3.500 
#    0.000    2.000    0.000    0.000    0.000    0.000 
#
# Total GULP energy -357050.046041 kJ/mol
# GULP energy per Si atom -5578.906969 kJ/mol
# Density = 1.549017 g / cm^3
# Si number density = 15.525509 Si / 1000 Ang^3
#
#
#
# Elastic Constant Matrix: (Units=GPa)
#
#
# Indices 1 2 3 4 5 6 
#
# 1 84.8489 46.4206 13.2273 0.0000 0.0000 0.0000
# 2 46.4206 67.4892 20.1354 0.0000 0.0000 0.0000
# 3 13.2273 20.1354 38.1463 0.0000 0.0000 0.0000
# 4 0.0000 0.0000 0.0000 109.7437 0.0000 0.0000
# 5 0.0000 0.0000 0.0000 0.0000 19.7442 0.0000
# 6 0.0000 0.0000 0.0000 0.0000 0.0000 16.8506
#
#
#
# Elastic Compliance Matrix: (Units=1/GPa)
#
#
# Indices 1 2 3 4 5 6 
#
# 1 0.018901 -0.013110 0.000366 0.000000 0.000000 0.000000
# 2 -0.013110 0.026680 -0.009537 0.000000 0.000000 0.000000
# 3 0.000366 -0.009537 0.031122 0.000000 0.000000 0.000000
# 4 0.000000 0.000000 0.000000 0.009112 0.000000 0.000000
# 5 0.000000 0.000000 0.000000 0.000000 0.050648 0.000000
# 6 0.000000 0.000000 0.000000 0.000000 0.000000 0.059345
#
#
# Mechanical properties :
#
#
# Convention : Reuss Voigt Hill
#
# Bulk Modulus (GPa) = 31.11267 38.89456 35.00361
# Shear Modulus (GPa) = 19.91379 36.64778 28.28078
#
# Velocity S-wave (km/s) = 3.58530 4.86376 4.27261
# Velocity P-wave (km/s) = 6.10101 7.52648 6.85092
#
# Compressibility (1/GPa) = 0.03214125
#
# Stress axis : x y z
#
# Youngs Moduli (GPa) = 52.90775 37.48186 32.13162
#
# Poissons Ratio (x) = 0.49137 -0.01176
# Poissons Ratio (y) = 0.69360 0.30644
# Poissons Ratio (z) = -0.01936 0.35746
#
# Static dielectric constant tensor:
#      x y z
#    x 1.538660 0.000000 0.000000 
#    y 0.000000 1.517890 0.000000 
#    z 0.000000 0.000000 1.492580 
# 
# From -- ./inp_files/23256.got.cif
#   From: 2010.05.17/outbox.cif.g08.bks.cpg/sg67_12_cif.got.tgz:23256.got - 2010.06.03 18:28:57.
