data_PCOD9504150
_publ_section_title
;
Structure prediction by ZEFSAII (Michael W. Deem and Ramdas Pophale) SiO2 
 PCOD9504150
Probable space group: C M M A
;
_chemical_formula_sum "Si O2"
_cell_formula_units_Z 80
_cell_length_a 25.404695
_cell_length_b 19.550546
_cell_length_c 8.062889
_cell_angle_alpha 90.000000
_cell_angle_beta 90.000000
_cell_angle_gamma 90.000000
_cell_volume 4004.640701
_symmetry_space_group_name_H-M "C M M A"
_symmetry_group_IT_number 67
_symmetry_cell_setting 'orthorhombic'
loop_
_space_group_symop_operation_xyz
x,y,z
-x,1/2-y,z
x,-y,-z
-x,1/2+y,-z
-x,-y,-z
x,1/2+y,-z
-x,y,z
x,1/2-y,z
1/2+x,1/2+y,z
1/2-x,-y,z
1/2+x,1/2-y,-z
1/2-x,y,-z
1/2-x,1/2-y,-z
1/2+x,y,-z
1/2-x,1/2+y,z
1/2+x,-y,z
loop_
_atom_site_type_symbol
_atom_site_label
_atom_site_fract_x
_atom_site_fract_y
_atom_site_fract_z
Si Si1 0.385419 0.620602 0.258453
Si Si2 0.000000 0.432580 0.690201
Si Si3 0.334152 0.250000 0.587663
Si Si4 0.193919 0.612482 0.051321
Si Si5 0.723049 0.250000 0.237858
Si Si6 0.500000 0.400674 0.690228
Si Si7 0.394224 0.972351 0.812341
O O1 0.366218 0.680106 0.380225
O O2 0.447728 0.630993 0.230367
O O3 0.386775 0.539373 0.303965
O O4 0.345756 0.623507 0.102855
O O5 0.942112 0.421708 0.766979
O O6 0.000000 0.516396 0.706543
O O7 0.000000 0.397264 0.510354
O O8 0.309961 0.250000 0.406185
O O9 0.284365 0.250000 0.712984
O O10 0.208298 0.683557 0.135125
O O11 0.161003 0.565831 0.176377
O O12 0.250000 0.581309 0.000000
O O13 0.405558 0.000000 0.000000
#
# Coordination Sequence:
#
# PCOD9504150 Si02
#       7
#    16   8   8  16   8   8  16
#     4  10  21  39  62  88 123 160 203 248 307 366
#     4   9  17  36  58  85 128 162 195 240 312 376
#     4  11  23  41  62  84 121 162 208 253 301 372
#     4  11  21  39  63  91 120 160 204 254 303 365
#     4  11  24  41  61  87 116 166 210 243 311 376
#     4   9  20  35  60  89 119 164 200 246 311 365
#     4   9  20  34  61  95 123 158 205 256 305 364
#
# _framework density 19.976821999999999
#
# number of rings (size 3 to 8) (size 9 to 14) (size 15 to 20)
#    0.000    2.000    2.000    1.200    2.800    6.400 
#    0.000    0.000    0.000    4.200    0.000    0.000 
#    0.000    0.000    0.000    0.000    0.000    0.000 
#
# Total GULP energy -222805.231624 kJ/mol
# GULP energy per Si atom -5570.130791 kJ/mol
# Density = 1.993135 g / cm^3
# Si number density = 19.976822 Si / 1000 Ang^3
#
#
#
# Elastic Constant Matrix: (Units=GPa)
#
#
# Indices 1 2 3 4 5 6 
#
# 1 199.0396 46.3355 35.0917 0.0000 0.0000 0.0000
# 2 46.3355 68.7266 12.0187 0.0000 0.0000 0.0000
# 3 35.0917 12.0187 32.3674 0.0000 0.0000 0.0000
# 4 0.0000 0.0000 0.0000 17.7583 0.0000 0.0000
# 5 0.0000 0.0000 0.0000 0.0000 23.6049 0.0000
# 6 0.0000 0.0000 0.0000 0.0000 0.0000 -1.5868
#
#
#
# Elastic Compliance Matrix: (Units=1/GPa)
#
#
# Indices 1 2 3 4 5 6 
#
# 1 0.006957 -0.003606 -0.006204 0.000000 0.000000 0.000000
# 2 -0.003606 0.017430 -0.002563 0.000000 0.000000 0.000000
# 3 -0.006204 -0.002563 0.038573 0.000000 0.000000 0.000000
# 4 0.000000 0.000000 0.000000 0.056312 0.000000 0.000000
# 5 0.000000 0.000000 0.000000 0.000000 0.042364 0.000000
# 6 0.000000 0.000000 0.000000 0.000000 0.000000 -0.630195
#
#
# Mechanical properties :
#
#
# Convention : Reuss Voigt Hill
#
# Bulk Modulus (GPa) = 26.16774 54.11392 40.14083
# Shear Modulus (GPa) = -11.59889 21.73448 5.06779
#
# Velocity S-wave (km/s) = -2.41221 3.30204 1.59447
# Velocity P-wave (km/s) = 2.31713 6.45640 4.85048
#
# Compressibility (1/GPa) = 0.03821500
#
# Stress axis : x y z
#
# Youngs Moduli (GPa) = 143.73365 57.37394 25.92476
#
# Poissons Ratio (x) = 0.20687 0.16084
# Poissons Ratio (y) = 0.51826 0.06644
# Poissons Ratio (z) = 0.89173 0.14704
#
# Static dielectric constant tensor:
#      x y z
#    x 1.771150 0.000000 0.000000 
#    y 0.000000 1.721190 0.000000 
#    z 0.000000 0.000000 1.744780 
# 
# From -- ./inp_files/12420.got.cif
#   From: 2010.05.17/outbox.cif.g08.bks.cpg/sg67_7_cif.got.tgz:12420.got - 2010.06.03 18:28:57.
