data_PCOD9504044
_publ_section_title
;
Structure prediction by ZEFSAII (Michael W. Deem and Ramdas Pophale) SiO2 
 PCOD9504044
Probable space group: C M M A
;
_chemical_formula_sum "Si O2"
_cell_formula_units_Z 64
_cell_length_a 14.581196
_cell_length_b 10.591730
_cell_length_c 19.453723
_cell_angle_alpha 90.000000
_cell_angle_beta 90.000000
_cell_angle_gamma 90.000000
_cell_volume 3004.434753
_symmetry_space_group_name_H-M "C M M A"
_symmetry_group_IT_number 67
_symmetry_cell_setting 'orthorhombic'
loop_
_space_group_symop_operation_xyz
x,y,z
-x,1/2-y,z
x,-y,-z
-x,1/2+y,-z
-x,-y,-z
x,1/2+y,-z
-x,y,z
x,1/2-y,z
1/2+x,1/2+y,z
1/2-x,-y,z
1/2+x,1/2-y,-z
1/2-x,y,-z
1/2-x,1/2-y,-z
1/2+x,y,-z
1/2-x,1/2+y,z
1/2+x,-y,z
loop_
_atom_site_type_symbol
_atom_site_label
_atom_site_fract_x
_atom_site_fract_y
_atom_site_fract_z
Si Si1 0.637163 0.250000 0.587474
Si Si2 0.358900 0.750000 0.569602
Si Si3 0.500000 0.402758 0.226023
Si Si4 0.139847 0.509873 0.338637
Si Si5 0.500000 0.393184 0.892073
Si Si6 0.296495 0.883283 0.074915
O O1 0.606598 0.250000 0.508316
O O2 0.747860 0.250000 0.576862
O O3 0.611415 0.375445 0.629236
O O4 0.385156 0.621734 0.608266
O O5 0.500000 0.250000 0.217283
O O6 0.412268 0.449686 0.269848
O O7 0.500000 0.487174 0.157759
O O8 0.250000 0.500000 0.329246
O O9 0.500000 0.250000 0.859541
O O10 0.595001 0.398921 0.933171
O O11 0.279261 0.750000 0.110844
O O12 0.250000 0.000000 0.112421
O O13 0.250000 0.876993 0.000000
#
# Coordination Sequence:
#
# PCOD9504044 Si02
#       6
#     8   8   8  16   8  16
#     4   9  18  31  61  89 120 157 205 263 336 391
#     4   9  16  35  57  89 122 159 203 263 330 395
#     4  12  26  44  62  85 125 170 218 263 308 373
#     4  10  21  38  60  87 120 164 211 265 324 380
#     4  10  24  43  63  92 129 171 209 252 302 367
#     4   9  19  38  65  98 133 165 200 244 299 360
#
# _framework density 21.301843000000002
#
# number of rings (size 3 to 8) (size 9 to 14) (size 15 to 20)
#    0.000    2.250    1.250    0.750    1.750    7.000 
#    0.000    7.500    0.000    0.000    0.000    0.000 
#    0.000    0.000    0.000    0.000    0.000    0.000 
#
# Total GULP energy -178486.063544 kJ/mol
# GULP energy per Si atom -5577.689486 kJ/mol
# Density = 2.125336 g / cm^3
# Si number density = 21.301843 Si / 1000 Ang^3
#
#
#
# Elastic Constant Matrix: (Units=GPa)
#
#
# Indices 1 2 3 4 5 6 
#
# 1 135.0140 62.4230 36.6357 0.0000 0.0000 0.0000
# 2 62.4230 226.7398 50.3864 0.0000 0.0000 0.0000
# 3 36.6357 50.3864 70.6456 0.0000 0.0000 0.0000
# 4 0.0000 0.0000 0.0000 14.1815 0.0000 0.0000
# 5 0.0000 0.0000 0.0000 0.0000 15.7361 0.0000
# 6 0.0000 0.0000 0.0000 0.0000 0.0000 -8.8221
#
#
#
# Elastic Compliance Matrix: (Units=1/GPa)
#
#
# Indices 1 2 3 4 5 6 
#
# 1 0.009165 -0.001743 -0.003509 0.000000 0.000000 0.000000
# 2 -0.001743 0.005573 -0.003070 0.000000 0.000000 0.000000
# 3 -0.003509 -0.003070 0.018165 0.000000 0.000000 0.000000
# 4 0.000000 0.000000 0.000000 0.070515 0.000000 0.000000
# 5 0.000000 0.000000 0.000000 0.000000 0.063548 0.000000
# 6 0.000000 0.000000 0.000000 0.000000 0.000000 -0.113351
#
#
# Mechanical properties :
#
#
# Convention : Reuss Voigt Hill
#
# Bulk Modulus (GPa) = 61.51512 81.25439 71.38476
# Shear Modulus (GPa) = 66.06820 23.08271 44.57546
#
# Velocity S-wave (km/s) = 5.57518 3.29538 4.57942
# Velocity P-wave (km/s) = 8.38952 7.25992 7.84508
#
# Compressibility (1/GPa) = 0.01625617
#
# Stress axis : x y z
#
# Youngs Moduli (GPa) = 109.11186 179.44914 55.05083
#
# Poissons Ratio (x) = 0.31283 0.19320
# Poissons Ratio (y) = 0.19021 0.16903
# Poissons Ratio (z) = 0.38292 0.55100
#
# Static dielectric constant tensor:
#      x y z
#    x 1.817920 0.000000 0.000000 
#    y 0.000000 1.837600 0.000000 
#    z 0.000000 0.000000 1.739480 
# 
# From -- ./inp_files/33454.got.cif
#   From: 2010.05.17/outbox.cif.g08.bks.cpg/sg67_17_cif.got.tgz:33454.got - 2010.06.03 18:28:57.
