data_PCOD9504997
_publ_section_title
;
Structure prediction by ZEFSAII (Michael W. Deem and Ramdas Pophale) SiO2 
 PCOD9504997
Probable space group: C M M A
;
_chemical_formula_sum "Si O2"
_cell_formula_units_Z 52
_cell_length_a 9.833149
_cell_length_b 15.151872
_cell_length_c 16.654145
_cell_angle_alpha 90.000000
_cell_angle_beta 90.000000
_cell_angle_gamma 90.000000
_cell_volume 2481.311306
_symmetry_space_group_name_H-M "C M M A"
_symmetry_group_IT_number 67
_symmetry_cell_setting 'orthorhombic'
loop_
_space_group_symop_operation_xyz
x,y,z
-x,1/2-y,z
x,-y,-z
-x,1/2+y,-z
-x,-y,-z
x,1/2+y,-z
-x,y,z
x,1/2-y,z
1/2+x,1/2+y,z
1/2-x,-y,z
1/2+x,1/2-y,-z
1/2-x,y,-z
1/2-x,1/2-y,-z
1/2+x,y,-z
1/2-x,1/2+y,z
1/2+x,-y,z
loop_
_atom_site_type_symbol
_atom_site_label
_atom_site_fract_x
_atom_site_fract_y
_atom_site_fract_z
Si Si1 0.750000 0.000000 0.500000
Si Si2 0.150870 0.847584 0.385400
Si Si3 0.163126 0.588417 0.748215
Si Si4 0.152586 0.856379 0.929920
O O1 0.832123 0.931125 0.444297
O O2 0.155011 0.750000 0.424591
O O3 0.270489 0.851206 0.320095
O O4 0.000000 0.855007 0.347378
O O5 0.250000 0.500000 0.738283
O O6 0.190217 0.620609 0.838826
O O7 0.000000 0.579147 0.738174
O O8 0.150762 0.750000 0.934672
O O9 0.000000 0.889328 0.943860
O O10 0.250000 0.889612 0.000000
#
# Coordination Sequence:
#
# PCOD9504997 Si02
#       4
#     4  16  16  16
#     4  12  24  44  72 100 136 172 208 268 322 394
#     4  11  25  44  68  99 134 173 217 265 323 389
#     4  11  23  40  63  91 128 169 215 269 323 383
#     4   9  19  36  58  86 120 162 211 262 317 377
#
# _framework density 20.956662000000001
#
# number of rings (size 3 to 8) (size 9 to 14) (size 15 to 20)
#    0.000    1.538    1.538    2.769    0.000    6.154 
#    0.000    6.154    0.000    0.000    0.000    0.000 
#    0.000    0.000    0.000    0.000    0.000    0.000 
#
# Total GULP energy -145055.934617 kJ/mol
# GULP energy per Si atom -5579.074408 kJ/mol
# Density = 2.090896 g / cm^3
# Si number density = 20.956662 Si / 1000 Ang^3
#
#
#
# Elastic Constant Matrix: (Units=GPa)
#
#
# Indices 1 2 3 4 5 6 
#
# 1 121.9516 36.3800 71.8938 0.0000 0.0000 0.0000
# 2 36.3800 119.1694 37.3946 0.0000 0.0000 0.0000
# 3 71.8938 37.3946 106.7906 0.0000 0.0000 0.0000
# 4 0.0000 0.0000 0.0000 36.7553 0.0000 0.0000
# 5 0.0000 0.0000 0.0000 0.0000 27.7754 0.0000
# 6 0.0000 0.0000 0.0000 0.0000 0.0000 8.7066
#
#
#
# Elastic Compliance Matrix: (Units=1/GPa)
#
#
# Indices 1 2 3 4 5 6 
#
# 1 0.013818 -0.001460 -0.008792 0.000000 0.000000 0.000000
# 2 -0.001460 0.009581 -0.002372 0.000000 0.000000 0.000000
# 3 -0.008792 -0.002372 0.016114 0.000000 0.000000 0.000000
# 4 0.000000 0.000000 0.000000 0.027207 0.000000 0.000000
# 5 0.000000 0.000000 0.000000 0.000000 0.036003 0.000000
# 6 0.000000 0.000000 0.000000 0.000000 0.000000 0.114856
#
#
# Mechanical properties :
#
#
# Convention : Reuss Voigt Hill
#
# Bulk Modulus (GPa) = 70.09746 71.02761 70.56253
# Shear Modulus (GPa) = 20.19533 28.13034 24.16284
#
# Velocity S-wave (km/s) = 3.10767 3.66773 3.39926
# Velocity P-wave (km/s) = 6.81162 7.20434 7.01073
#
# Compressibility (1/GPa) = 0.01426585
#
# Stress axis : x y z
#
# Youngs Moduli (GPa) = 72.36754 104.36797 62.05930
#
# Poissons Ratio (x) = 0.15234 0.54561
# Poissons Ratio (y) = 0.10563 0.14723
# Poissons Ratio (z) = 0.63623 0.24761
#
# Static dielectric constant tensor:
#      x y z
#    x 1.742580 0.000000 0.000000 
#    y 0.000000 1.792530 0.000000 
#    z 0.000000 0.000000 1.766520 
# 
# From -- ./inp_files/31555.got.cif
#   From: 2010.05.17/outbox.cif.g08.bks.cpg/sg67_16_cif.got.tgz:31555.got - 2010.06.03 18:28:57.
