data_PCOD9504570
_publ_section_title
;
Structure prediction by ZEFSAII (Michael W. Deem and Ramdas Pophale) SiO2 
 PCOD9504570
Probable space group: C M M A
;
_chemical_formula_sum "Si O2"
_cell_formula_units_Z 64
_cell_length_a 15.711579
_cell_length_b 17.136600
_cell_length_c 11.166758
_cell_angle_alpha 90.000000
_cell_angle_beta 90.000000
_cell_angle_gamma 90.000000
_cell_volume 3006.571923
_symmetry_space_group_name_H-M "C M M A"
_symmetry_group_IT_number 67
_symmetry_cell_setting 'orthorhombic'
loop_
_space_group_symop_operation_xyz
x,y,z
-x,1/2-y,z
x,-y,-z
-x,1/2+y,-z
-x,-y,-z
x,1/2+y,-z
-x,y,z
x,1/2-y,z
1/2+x,1/2+y,z
1/2-x,-y,z
1/2+x,1/2-y,-z
1/2-x,y,-z
1/2-x,1/2-y,-z
1/2+x,y,-z
1/2-x,1/2+y,z
1/2+x,-y,z
loop_
_atom_site_type_symbol
_atom_site_label
_atom_site_fract_x
_atom_site_fract_y
_atom_site_fract_z
Si Si1 0.654274 0.896311 0.046761
Si Si2 0.096857 0.449533 0.811764
Si Si3 0.397841 0.250000 0.801013
Si Si4 0.654966 0.919325 0.555311
Si Si5 0.148273 0.250000 0.476383
O O1 0.639889 0.823904 0.131308
O O2 0.626310 0.970676 0.124979
O O3 0.750000 0.904509 0.000000
O O4 0.601540 0.890404 0.923346
O O5 0.154310 0.428863 0.698481
O O6 0.000000 0.456647 0.768987
O O7 0.500000 0.250000 0.808362
O O8 0.370278 0.250000 0.663808
O O9 0.750000 0.916757 0.500000
O O10 0.615625 0.833913 0.526304
O O11 0.616334 0.000000 0.500000
O O12 0.250000 0.250000 0.500000
#
# Coordination Sequence:
#
# PCOD9504570 Si02
#       5
#    16  16   8  16   8
#     4  11  25  41  70  99 131 177 228 277 353 427
#     4  11  23  42  67  98 134 171 225 293 348 410
#     4  12  25  44  68  99 140 179 224 292 357 408
#     4  10  23  39  67  92 135 183 231 283 351 415
#     4  10  24  42  66  96 142 178 240 287 343 421
#
# _framework density 21.286702999999999
#
# number of rings (size 3 to 8) (size 9 to 14) (size 15 to 20)
#    0.000    1.250    0.000    6.375   14.000    2.500 
#    0.000    1.250    0.000    0.000    0.000    0.000 
#    0.000    0.000    0.000    0.000    0.000    0.000 
#
# Total GULP energy -178730.745054 kJ/mol
# GULP energy per Si atom -5585.335783 kJ/mol
# Density = 2.123825 g / cm^3
# Si number density = 21.286703 Si / 1000 Ang^3
#
#
#
# Elastic Constant Matrix: (Units=GPa)
#
#
# Indices 1 2 3 4 5 6 
#
# 1 87.9364 -15.2946 7.8811 0.0000 0.0000 0.0000
# 2 -15.2946 136.3666 55.3278 0.0000 0.0000 0.0000
# 3 7.8811 55.3278 181.8785 0.0000 0.0000 0.0000
# 4 0.0000 0.0000 0.0000 39.3500 0.0000 0.0000
# 5 0.0000 0.0000 0.0000 0.0000 4.8362 0.0000
# 6 0.0000 0.0000 0.0000 0.0000 0.0000 17.5144
#
#
#
# Elastic Compliance Matrix: (Units=1/GPa)
#
#
# Indices 1 2 3 4 5 6 
#
# 1 0.011768 0.001742 -0.001040 0.000000 0.000000 0.000000
# 2 0.001742 0.008623 -0.002699 0.000000 0.000000 0.000000
# 3 -0.001040 -0.002699 0.006364 0.000000 0.000000 0.000000
# 4 0.000000 0.000000 0.000000 0.025413 0.000000 0.000000
# 5 0.000000 0.000000 0.000000 0.000000 0.206774 0.000000
# 6 0.000000 0.000000 0.000000 0.000000 0.000000 0.057096
#
#
# Mechanical properties :
#
#
# Convention : Reuss Voigt Hill
#
# Bulk Modulus (GPa) = 43.93269 55.77889 49.85579
# Shear Modulus (GPa) = 15.26161 36.22461 25.74311
#
# Velocity S-wave (km/s) = 2.68051 4.12970 3.48135
# Velocity P-wave (km/s) = 5.50123 6.99998 6.29537
#
# Compressibility (1/GPa) = 0.02276209
#
# Stress axis : x y z
#
# Youngs Moduli (GPa) = 84.97636 115.96247 157.12903
#
# Poissons Ratio (x) = -0.20198 0.16338
# Poissons Ratio (y) = -0.14801 0.42405
# Poissons Ratio (z) = 0.08836 0.31295
#
# Static dielectric constant tensor:
#      x y z
#    x 1.799720 0.000000 0.000000 
#    y 0.000000 1.792670 0.000000 
#    z 0.000000 0.000000 1.720460 
# 
# From -- ./inp_files/17557.got.cif
#   From: 2010.05.17/outbox.cif.g08.bks.cpg/sg67_9_cif.got.tgz:17557.got - 2010.06.03 18:28:57.
