data_PCOD9504542
_publ_section_title
;
Structure prediction by ZEFSAII (Michael W. Deem and Ramdas Pophale) SiO2 
 PCOD9504542
Probable space group: C M M A
;
_chemical_formula_sum "Si O2"
_cell_formula_units_Z 64
_cell_length_a 14.212868
_cell_length_b 22.963174
_cell_length_c 9.286274
_cell_angle_alpha 90.000000
_cell_angle_beta 90.000000
_cell_angle_gamma 90.000000
_cell_volume 3030.785027
_symmetry_space_group_name_H-M "C M M A"
_symmetry_group_IT_number 67
_symmetry_cell_setting 'orthorhombic'
loop_
_space_group_symop_operation_xyz
x,y,z
-x,1/2-y,z
x,-y,-z
-x,1/2+y,-z
-x,-y,-z
x,1/2+y,-z
-x,y,z
x,1/2-y,z
1/2+x,1/2+y,z
1/2-x,-y,z
1/2+x,1/2-y,-z
1/2-x,y,-z
1/2-x,1/2-y,-z
1/2+x,y,-z
1/2-x,1/2+y,z
1/2+x,-y,z
loop_
_atom_site_type_symbol
_atom_site_label
_atom_site_fract_x
_atom_site_fract_y
_atom_site_fract_z
Si Si1 0.862120 0.250000 0.026218
Si Si2 0.286267 0.122597 0.339806
Si Si3 0.108260 0.250000 0.693871
Si Si4 0.392257 0.951669 0.885287
Si Si5 0.898448 0.370485 0.150153
O O1 0.894804 0.303234 0.119832
O O2 0.750000 0.250000 0.000000
O O3 0.900678 0.250000 0.865848
O O4 0.250000 0.111002 0.500000
O O5 0.336286 0.187954 0.338964
O O6 0.348725 0.071979 0.263341
O O7 0.191972 0.118092 0.244497
O O8 0.000000 0.250000 0.633717
O O9 0.500000 0.969407 0.856491
O O10 0.389521 0.896504 0.990505
O O11 0.353745 0.000000 0.000000
O O12 0.000000 0.389318 0.210343
#
# Coordination Sequence:
#
# PCOD9504542 Si02
#       5
#     8  16   8  16  16
#     4  12  18  35  64  92 127 170 228 285 323 389
#     4  12  25  41  63  98 141 179 217 271 345 417
#     4  12  23  39  64  97 138 183 227 273 335 408
#     4  10  22  43  70  95 123 168 229 289 337 390
#     4  11  22  38  62  91 125 172 228 278 326 394
#
# _framework density 21.116641999999999
#
# number of rings (size 3 to 8) (size 9 to 14) (size 15 to 20)
#    0.000    0.750    5.000    3.000    0.000    4.000 
#    0.000    2.500    0.000    4.500    0.000    0.000 
#    0.000    0.000    0.000    0.000    0.000    0.000 
#
# Total GULP energy -178198.376105 kJ/mol
# GULP energy per Si atom -5568.699253 kJ/mol
# Density = 2.106858 g / cm^3
# Si number density = 21.116642 Si / 1000 Ang^3
#
#
#
# Elastic Constant Matrix: (Units=GPa)
#
#
# Indices 1 2 3 4 5 6 
#
# 1 161.1064 16.4187 49.4247 0.0000 0.0000 0.0000
# 2 16.4187 59.0852 17.8879 0.0000 0.0000 0.0000
# 3 49.4247 17.8879 97.2437 0.0000 0.0000 0.0000
# 4 0.0000 0.0000 0.0000 12.4481 0.0000 0.0000
# 5 0.0000 0.0000 0.0000 0.0000 11.3114 0.0000
# 6 0.0000 0.0000 0.0000 0.0000 0.0000 24.6989
#
#
#
# Elastic Compliance Matrix: (Units=1/GPa)
#
#
# Indices 1 2 3 4 5 6 
#
# 1 0.007406 -0.000973 -0.003585 0.000000 0.000000 0.000000
# 2 -0.000973 0.018051 -0.002826 0.000000 0.000000 0.000000
# 3 -0.003585 -0.002826 0.012626 0.000000 0.000000 0.000000
# 4 0.000000 0.000000 0.000000 0.080333 0.000000 0.000000
# 5 0.000000 0.000000 0.000000 0.000000 0.088406 0.000000
# 6 0.000000 0.000000 0.000000 0.000000 0.000000 0.040488
#
#
# Mechanical properties :
#
#
# Convention : Reuss Voigt Hill
#
# Bulk Modulus (GPa) = 42.89207 53.87754 48.38481
# Shear Modulus (GPa) = 18.52890 25.27196 21.90043
#
# Velocity S-wave (km/s) = 2.96540 3.46320 3.22392
# Velocity P-wave (km/s) = 5.66400 6.44681 6.06804
#
# Compressibility (1/GPa) = 0.02331433
#
# Stress axis : x y z
#
# Youngs Moduli (GPa) = 135.02373 55.39996 79.20451
#
# Poissons Ratio (x) = 0.05388 0.28397
# Poissons Ratio (y) = 0.13132 0.22384
# Poissons Ratio (z) = 0.48410 0.15656
#
# Static dielectric constant tensor:
#      x y z
#    x 2.497200 0.000000 0.000000 
#    y 0.000000 1.792430 0.000000 
#    z 0.000000 0.000000 1.728480 
# 
# From -- ./inp_files/8016.got.cif
#   From: 2010.05.17/outbox.cif.g08.bks.cpg/sg67_5_cif.got.tgz:8016.got - 2010.06.03 18:28:57.
