data_PCOD9504257
_publ_section_title
;
Structure prediction by ZEFSAII (Michael W. Deem and Ramdas Pophale) SiO2 
 PCOD9504257
Probable space group: C M M A
;
_chemical_formula_sum "Si O2"
_cell_formula_units_Z 88
_cell_length_a 11.678550
_cell_length_b 25.669213
_cell_length_c 11.813830
_cell_angle_alpha 90.000000
_cell_angle_beta 90.000000
_cell_angle_gamma 90.000000
_cell_volume 3541.540358
_symmetry_space_group_name_H-M "C M M A"
_symmetry_group_IT_number 67
_symmetry_cell_setting 'orthorhombic'
loop_
_space_group_symop_operation_xyz
x,y,z
-x,1/2-y,z
x,-y,-z
-x,1/2+y,-z
-x,-y,-z
x,1/2+y,-z
-x,y,z
x,1/2-y,z
1/2+x,1/2+y,z
1/2-x,-y,z
1/2+x,1/2-y,-z
1/2-x,y,-z
1/2-x,1/2-y,-z
1/2+x,y,-z
1/2-x,1/2+y,z
1/2+x,-y,z
loop_
_atom_site_type_symbol
_atom_site_label
_atom_site_fract_x
_atom_site_fract_y
_atom_site_fract_z
Si Si1 0.500000 0.630628 0.712556
Si Si2 0.000000 0.621971 0.027096
Si Si3 0.254704 0.836395 0.752685
Si Si4 0.371286 0.689539 0.457911
Si Si5 0.000000 0.937753 0.510821
Si Si6 0.500000 0.973363 0.123217
Si Si7 0.681791 0.549320 0.303750
Si Si8 0.250000 0.826465 0.000000
O O1 0.500000 0.604927 0.839445
O O2 0.614285 0.666407 0.707171
O O3 0.500000 0.586804 0.614637
O O4 0.000000 0.585355 0.918617
O O5 0.875971 0.647814 0.013753
O O6 0.155160 0.814038 0.674689
O O7 0.239371 0.899949 0.753706
O O8 0.243112 0.807532 0.871590
O O9 0.500000 0.669289 0.481052
O O10 0.371596 0.750000 0.494173
O O11 0.250000 0.665360 0.500000
O O12 0.108317 0.927204 0.592606
O O13 0.000000 0.000000 0.500000
O O14 0.392036 0.978728 0.204930
O O15 0.500000 0.000000 0.000000
O O16 0.750000 0.500000 0.351617
#
# Coordination Sequence:
#
# PCOD9504257 Si02
#       8
#     8   8  16  16   8   8  16   8
#     4  10  25  39  63  97 130 176 226 275 344 407
#     4  10  21  41  60  90 126 170 226 285 336 391
#     4  11  24  41  70  96 136 179 227 282 348 409
#     4  10  25  47  76 109 140 176 226 287 346 419
#     4  11  25  42  56  80 128 173 225 286 330 401
#     4  11  25  36  64  85 117 177 235 294 340 398
#     4  11  26  40  59  91 125 178 230 284 336 404
#     4  10  22  40  64  96 134 170 224 284 336 400
#
# _framework density 24.847943999999998
#
# number of rings (size 3 to 8) (size 9 to 14) (size 15 to 20)
#    0.000    1.455    1.818    1.091   15.273    2.182 
#    0.000    0.455    0.000    0.000    0.000    0.000 
#    0.000    0.000    0.000    0.000    0.000    0.000 
#
# Total GULP energy -245180.721975 kJ/mol
# GULP energy per Si atom -5572.289136 kJ/mol
# Density = 2.479139 g / cm^3
# Si number density = 24.847944 Si / 1000 Ang^3
#
#
#
# Elastic Constant Matrix: (Units=GPa)
#
#
# Indices 1 2 3 4 5 6 
#
# 1 183.5077 37.8104 73.6531 0.0000 0.0000 0.0000
# 2 37.8104 79.3816 30.1716 0.0000 0.0000 0.0000
# 3 73.6531 30.1716 149.7800 0.0000 0.0000 0.0000
# 4 0.0000 0.0000 0.0000 -11.1264 0.0000 0.0000
# 5 0.0000 0.0000 0.0000 0.0000 143.3624 0.0000
# 6 0.0000 0.0000 0.0000 0.0000 0.0000 22.5303
#
#
#
# Elastic Compliance Matrix: (Units=1/GPa)
#
#
# Indices 1 2 3 4 5 6 
#
# 1 0.007138 -0.002237 -0.003060 0.000000 0.000000 0.000000
# 2 -0.002237 0.014343 -0.001789 0.000000 0.000000 0.000000
# 3 -0.003060 -0.001789 0.008541 0.000000 0.000000 0.000000
# 4 0.000000 0.000000 0.000000 -0.089876 0.000000 0.000000
# 5 0.000000 0.000000 0.000000 0.000000 0.006975 0.000000
# 6 0.000000 0.000000 0.000000 0.000000 0.000000 0.044385
#
#
# Mechanical properties :
#
#
# Convention : Reuss Voigt Hill
#
# Bulk Modulus (GPa) = 63.08772 77.32662 70.20717
# Shear Modulus (GPa) = 456.13400 49.02220 252.57810
#
# Velocity S-wave (km/s) = 13.56350 4.44654 10.09308
# Velocity P-wave (km/s) = 16.45406 7.58616 12.81183
#
# Compressibility (1/GPa) = 0.01585095
#
# Stress axis : x y z
#
# Youngs Moduli (GPa) = 140.08928 69.72051 117.07721
#
# Poissons Ratio (x) = 0.15598 0.35820
# Poissons Ratio (y) = 0.31340 0.20947
# Poissons Ratio (z) = 0.42861 0.12474
#
# Static dielectric constant tensor:
#      x y z
#    x 2.012660 0.000000 0.000000 
#    y 0.000000 1.992220 0.000000 
#    z 0.000000 0.000000 2.012370 
# 
# From -- ./inp_files/16927.got.cif
#   From: 2010.05.17/outbox.cif.g08.bks.cpg/sg67_9_cif.got.tgz:16927.got - 2010.06.03 18:28:57.
