data_PCOD9504647
_publ_section_title
;
Structure prediction by ZEFSAII (Michael W. Deem and Ramdas Pophale) SiO2 
 PCOD9504647
Probable space group: C M M A
;
_chemical_formula_sum "Si O2"
_cell_formula_units_Z 60
_cell_length_a 23.438791
_cell_length_b 23.541978
_cell_length_c 5.021936
_cell_angle_alpha 90.000000
_cell_angle_beta 90.000000
_cell_angle_gamma 90.000000
_cell_volume 2771.081696
_symmetry_space_group_name_H-M "C M M A"
_symmetry_group_IT_number 67
_symmetry_cell_setting 'orthorhombic'
loop_
_space_group_symop_operation_xyz
x,y,z
-x,1/2-y,z
x,-y,-z
-x,1/2+y,-z
-x,-y,-z
x,1/2+y,-z
-x,y,z
x,1/2-y,z
1/2+x,1/2+y,z
1/2-x,-y,z
1/2+x,1/2-y,-z
1/2-x,y,-z
1/2-x,1/2-y,-z
1/2+x,y,-z
1/2-x,1/2+y,z
1/2+x,-y,z
loop_
_atom_site_type_symbol
_atom_site_label
_atom_site_fract_x
_atom_site_fract_y
_atom_site_fract_z
Si Si1 0.211695 0.887414 0.237488
Si Si2 0.585533 0.644896 0.780307
Si Si3 0.936895 0.428876 0.283569
Si Si4 0.500000 0.750000 0.708414
Si Si5 0.656487 0.000000 0.000000
O O1 0.250000 0.890664 0.500000
O O2 0.153472 0.851906 0.263475
O O3 0.250000 0.863454 0.000000
O O4 0.192072 0.950482 0.142263
O O5 0.566915 0.594932 0.579779
O O6 0.549614 0.700246 0.716214
O O7 0.571905 0.623811 0.079084
O O8 0.000000 0.453216 0.239766
O O9 0.885566 0.470327 0.211320
#
# Coordination Sequence:
#
# PCOD9504647 Si02
#       5
#    16  16  16   4   8
#     4  11  24  44  63  94 135 174 217 258 307 385
#     4  11  25  41  69  96 126 168 219 274 323 379
#     4  11  21  41  58 101 137 168 209 264 323 386
#     4  12  24  50  72  96 124 162 224 272 352 380
#     4  10  24  36  68  94 134 183 213 248 318 384
#
# _framework density 21.652197000000001
#
# number of rings (size 3 to 8) (size 9 to 14) (size 15 to 20)
#    0.000    1.067    2.667    4.000    0.000   14.933 
#    0.000    8.000    0.000    0.000    0.000    0.000 
#    0.000    0.000    0.000    0.000    0.000    0.000 
#
# Total GULP energy -167395.546412 kJ/mol
# GULP energy per Si atom -5579.851547 kJ/mol
# Density = 2.160292 g / cm^3
# Si number density = 21.652197 Si / 1000 Ang^3
#
#
#
# Elastic Constant Matrix: (Units=GPa)
#
#
# Indices 1 2 3 4 5 6 
#
# 1 227.5915 54.2937 48.9140 0.0000 0.0000 0.0000
# 2 54.2937 92.8137 7.4074 0.0000 0.0000 0.0000
# 3 48.9140 7.4074 77.3013 0.0000 0.0000 0.0000
# 4 0.0000 0.0000 0.0000 -10.7644 0.0000 0.0000
# 5 0.0000 0.0000 0.0000 0.0000 39.9614 0.0000
# 6 0.0000 0.0000 0.0000 0.0000 0.0000 13.5776
#
#
#
# Elastic Compliance Matrix: (Units=1/GPa)
#
#
# Indices 1 2 3 4 5 6 
#
# 1 0.005885 -0.003170 -0.003420 0.000000 0.000000 0.000000
# 2 -0.003170 0.012564 0.000802 0.000000 0.000000 0.000000
# 3 -0.003420 0.000802 0.015024 0.000000 0.000000 0.000000
# 4 0.000000 0.000000 0.000000 -0.092899 0.000000 0.000000
# 5 0.000000 0.000000 0.000000 0.000000 0.025024 0.000000
# 6 0.000000 0.000000 0.000000 0.000000 0.000000 0.073651
#
#
# Mechanical properties :
#
#
# Convention : Reuss Voigt Hill
#
# Bulk Modulus (GPa) = 45.66838 68.77072 57.21955
# Shear Modulus (GPa) = 86.02236 27.69435 56.85835
#
# Velocity S-wave (km/s) = 6.30995 3.58027 5.13000
# Velocity P-wave (km/s) = 8.61538 6.99440 7.84686
#
# Compressibility (1/GPa) = 0.02189699
#
# Stress axis : x y z
#
# Youngs Moduli (GPa) = 169.92246 79.58967 66.56128
#
# Poissons Ratio (x) = 0.25227 0.22765
# Poissons Ratio (y) = 0.53859 -0.05336
# Poissons Ratio (z) = 0.58116 -0.06380
#
# Static dielectric constant tensor:
#      x y z
#    x 1.821860 0.000000 0.000000 
#    y 0.000000 1.745860 0.000000 
#    z 0.000000 0.000000 1.802480 
# 
# From -- ./inp_files/2769.got.cif
#   From: 2010.05.17/outbox.cif.g08.bks.cpg/sg67_2_cif.got.tgz:2769.got - 2010.06.03 18:28:57.
