data_PCOD9504141
_publ_section_title
;
Structure prediction by ZEFSAII (Michael W. Deem and Ramdas Pophale) SiO2 
 PCOD9504141
Probable space group: C M M A
;
_chemical_formula_sum "Si O2"
_cell_formula_units_Z 64
_cell_length_a 14.131458
_cell_length_b 11.206407
_cell_length_c 19.078641
_cell_angle_alpha 90.000000
_cell_angle_beta 90.000000
_cell_angle_gamma 90.000000
_cell_volume 3021.348342
_symmetry_space_group_name_H-M "C M M A"
_symmetry_group_IT_number 67
_symmetry_cell_setting 'orthorhombic'
loop_
_space_group_symop_operation_xyz
x,y,z
-x,1/2-y,z
x,-y,-z
-x,1/2+y,-z
-x,-y,-z
x,1/2+y,-z
-x,y,z
x,1/2-y,z
1/2+x,1/2+y,z
1/2-x,-y,z
1/2+x,1/2-y,-z
1/2-x,y,-z
1/2-x,1/2-y,-z
1/2+x,y,-z
1/2-x,1/2+y,z
1/2+x,-y,z
loop_
_atom_site_type_symbol
_atom_site_label
_atom_site_fract_x
_atom_site_fract_y
_atom_site_fract_z
Si Si1 0.000000 0.562049 0.075484
Si Si2 0.500000 0.381858 0.796813
Si Si3 0.885921 0.616937 0.544615
Si Si4 0.312480 0.384238 0.703243
Si Si5 0.785681 0.875108 0.080752
O O1 0.000000 0.471737 0.139734
O O2 0.101067 0.625506 0.080452
O O3 0.000000 0.500000 0.000000
O O4 0.500000 0.250000 0.828278
O O5 0.408115 0.393589 0.748244
O O6 0.859159 0.500000 0.500000
O O7 0.863920 0.750000 0.514269
O O8 0.840237 0.610362 0.621207
O O9 0.000000 0.612772 0.552723
O O10 0.271337 0.250000 0.715277
O O11 0.250000 0.500000 0.719135
O O12 0.750204 0.750000 0.112645
O O13 0.750000 0.000000 0.112234
O O14 0.750000 0.875799 0.000000
#
# Coordination Sequence:
#
# PCOD9504141 Si02
#       5
#     8   8  16  16  16
#     4  12  23  41  64  95 120 158 201 262 319 379
#     4  10  24  45  69  90 121 169 216 254 316 390
#     4   9  17  32  59  91 127 169 213 260 308 362
#     4  10  21  42  66  92 128 171 215 261 312 373
#     4  10  21  39  61  89 123 155 188 238 303 372
#
# _framework density 21.182594999999999
#
# number of rings (size 3 to 8) (size 9 to 14) (size 15 to 20)
#    0.000    2.000    3.750    0.375    0.000    4.500 
#    0.000    8.125    0.000    0.000    0.000    0.000 
#    0.000    0.000    0.000    0.000    0.000    0.000 
#
# Total GULP energy -178655.846844 kJ/mol
# GULP energy per Si atom -5582.995214 kJ/mol
# Density = 2.113438 g / cm^3
# Si number density = 21.182595 Si / 1000 Ang^3
#
#
#
# Elastic Constant Matrix: (Units=GPa)
#
#
# Indices 1 2 3 4 5 6 
#
# 1 110.1374 68.6814 4.1629 0.0000 0.0000 0.0000
# 2 68.6814 247.9596 58.1675 0.0000 0.0000 0.0000
# 3 4.1629 58.1675 89.0081 0.0000 0.0000 0.0000
# 4 0.0000 0.0000 0.0000 88.7514 0.0000 0.0000
# 5 0.0000 0.0000 0.0000 0.0000 5.4193 0.0000
# 6 0.0000 0.0000 0.0000 0.0000 0.0000 28.7807
#
#
#
# Elastic Compliance Matrix: (Units=1/GPa)
#
#
# Indices 1 2 3 4 5 6 
#
# 1 0.011208 -0.003521 0.001777 0.000000 0.000000 0.000000
# 2 -0.003521 0.005869 -0.003671 0.000000 0.000000 0.000000
# 3 0.001777 -0.003671 0.013551 0.000000 0.000000 0.000000
# 4 0.000000 0.000000 0.000000 0.011267 0.000000 0.000000
# 5 0.000000 0.000000 0.000000 0.000000 0.184527 0.000000
# 6 0.000000 0.000000 0.000000 0.000000 0.000000 0.034746
#
#
# Mechanical properties :
#
#
# Convention : Reuss Voigt Hill
#
# Bulk Modulus (GPa) = 50.51043 78.79207 64.65125
# Shear Modulus (GPa) = 17.94694 45.66315 31.80504
#
# Velocity S-wave (km/s) = 2.91391 4.64798 3.87909
# Velocity P-wave (km/s) = 5.93449 8.12910 7.11690
#
# Compressibility (1/GPa) = 0.01979789
#
# Stress axis : x y z
#
# Youngs Moduli (GPa) = 89.21908 170.37290 73.79596
#
# Poissons Ratio (x) = 0.59996 -0.13114
# Poissons Ratio (y) = 0.31418 0.27091
# Poissons Ratio (z) = -0.15855 0.62545
#
# Static dielectric constant tensor:
#      x y z
#    x 1.757840 0.000000 0.000000 
#    y 0.000000 1.831850 0.000000 
#    z 0.000000 0.000000 1.705180 
# 
# From -- ./inp_files/33414.got.cif
#   From: 2010.05.17/outbox.cif.g08.bks.cpg/sg67_17_cif.got.tgz:33414.got - 2010.06.03 18:28:57.
