data_PCOD9504131
_publ_section_title
;
Structure prediction by ZEFSAII (Michael W. Deem and Ramdas Pophale) SiO2 
 PCOD9504131
Probable space group: C M M A
;
_chemical_formula_sum "Si O2"
_cell_formula_units_Z 88
_cell_length_a 8.566240
_cell_length_b 22.290373
_cell_length_c 25.180572
_cell_angle_alpha 90.000000
_cell_angle_beta 90.000000
_cell_angle_gamma 90.000000
_cell_volume 4808.096384
_symmetry_space_group_name_H-M "C M M A"
_symmetry_group_IT_number 67
_symmetry_cell_setting 'orthorhombic'
loop_
_space_group_symop_operation_xyz
x,y,z
-x,1/2-y,z
x,-y,-z
-x,1/2+y,-z
-x,-y,-z
x,1/2+y,-z
-x,y,z
x,1/2-y,z
1/2+x,1/2+y,z
1/2-x,-y,z
1/2+x,1/2-y,-z
1/2-x,y,-z
1/2-x,1/2-y,-z
1/2+x,y,-z
1/2-x,1/2+y,z
1/2+x,-y,z
loop_
_atom_site_type_symbol
_atom_site_label
_atom_site_fract_x
_atom_site_fract_y
_atom_site_fract_z
Si Si1 0.686417 0.750000 0.941069
Si Si2 0.313984 0.349590 0.862823
Si Si3 0.311251 0.068756 0.326650
Si Si4 0.686539 0.933099 0.944859
Si Si5 0.186213 0.932137 0.446074
Si Si6 0.311414 0.181319 0.253460
O O1 0.500000 0.750000 0.941182
O O2 0.751703 0.805038 0.907706
O O3 0.750000 0.750000 0.000000
O O4 0.500000 0.348414 0.859477
O O5 0.251971 0.410401 0.888602
O O6 0.243493 0.331296 0.806473
O O7 0.500000 0.064664 0.323607
O O8 0.269434 0.088917 0.387017
O O9 0.259282 0.123404 0.288322
O O10 0.250000 0.000000 0.317084
O O11 0.500000 0.929285 0.945839
O O12 0.750000 0.000000 0.947781
O O13 0.750000 0.903184 0.000000
O O14 0.250000 0.902174 0.500000
O O15 0.000000 0.932979 0.449630
O O16 0.250000 0.000000 0.446504
O O17 0.500000 0.181523 0.255309
O O18 0.261135 0.250000 0.268584
#
# Coordination Sequence:
#
# PCOD9504131 Si02
#       6
#     8  16  16  16  16  16
#     4  12  24  40  60  84 110 138 173 222 275 326
#     4  12  24  39  58  83 110 140 180 225 274 332
#     4   9  19  34  54  82 112 146 188 235 284 338
#     4  11  22  39  60  84 113 145 179 219 272 332
#     4   9  15  25  44  73 108 142 180 225 278 333
#     4  10  21  39  60  79 107 148 193 237 285 339
#
# _framework density 18.302461999999998
#
# number of rings (size 3 to 8) (size 9 to 14) (size 15 to 20)
#    0.000    1.636    0.909    6.273    0.000    2.182 
#    0.000    1.818    0.000    0.545    0.000    0.000 
#    0.000    0.000    0.000    0.000    0.000    4.909 
#
# Total GULP energy -245107.992632 kJ/mol
# GULP energy per Si atom -5570.636196 kJ/mol
# Density = 1.826080 g / cm^3
# Si number density = 18.302462 Si / 1000 Ang^3
#
#
#
# Elastic Constant Matrix: (Units=GPa)
#
#
# Indices 1 2 3 4 5 6 
#
# 1 54.3109 18.4526 24.6232 0.0000 0.0000 0.0000
# 2 18.4526 101.4945 69.4452 0.0000 0.0000 0.0000
# 3 24.6232 69.4452 150.8406 0.0000 0.0000 0.0000
# 4 0.0000 0.0000 0.0000 228.3845 0.0000 0.0000
# 5 0.0000 0.0000 0.0000 0.0000 30.0837 0.0000
# 6 0.0000 0.0000 0.0000 0.0000 0.0000 22.0801
#
#
#
# Elastic Compliance Matrix: (Units=1/GPa)
#
#
# Indices 1 2 3 4 5 6 
#
# 1 0.020176 -0.002065 -0.002343 0.000000 0.000000 0.000000
# 2 -0.002065 0.014595 -0.006382 0.000000 0.000000 0.000000
# 3 -0.002343 -0.006382 0.009950 0.000000 0.000000 0.000000
# 4 0.000000 0.000000 0.000000 0.004379 0.000000 0.000000
# 5 0.000000 0.000000 0.000000 0.000000 0.033241 0.000000
# 6 0.000000 0.000000 0.000000 0.000000 0.000000 0.045290
#
#
# Mechanical properties :
#
#
# Convention : Reuss Voigt Hill
#
# Bulk Modulus (GPa) = 43.21305 59.07644 51.14474
# Shear Modulus (GPa) = 31.86235 69.05133 50.45684
#
# Velocity S-wave (km/s) = 4.17691 6.14897 5.25625
# Velocity P-wave (km/s) = 6.85010 9.09731 8.05248
#
# Compressibility (1/GPa) = 0.02314116
#
# Stress axis : x y z
#
# Youngs Moduli (GPa) = 49.56294 68.51580 100.49956
#
# Poissons Ratio (x) = 0.14150 0.23545
# Poissons Ratio (y) = 0.10236 0.64142
# Poissons Ratio (z) = 0.11611 0.43729
#
# Static dielectric constant tensor:
#      x y z
#    x 1.616070 0.000000 0.000000 
#    y 0.000000 1.546700 0.000000 
#    z 0.000000 0.000000 1.656850 
# 
# From -- ./inp_files/36943.got.cif
#   From: 2010.05.17/outbox.cif.g08.bks.cpg/sg67_19_cif.got.tgz:36943.got - 2010.06.03 18:28:57.
