data_PCOD9504682
_publ_section_title
;
Structure prediction by ZEFSAII (Michael W. Deem and Ramdas Pophale) SiO2 
 PCOD9504682
Probable space group: C M M A
;
_chemical_formula_sum "Si O2"
_cell_formula_units_Z 56
_cell_length_a 16.091717
_cell_length_b 8.748063
_cell_length_c 19.896391
_cell_angle_alpha 90.000000
_cell_angle_beta 90.000000
_cell_angle_gamma 90.000000
_cell_volume 2800.841903
_symmetry_space_group_name_H-M "C M M A"
_symmetry_group_IT_number 67
_symmetry_cell_setting 'orthorhombic'
loop_
_space_group_symop_operation_xyz
x,y,z
-x,1/2-y,z
x,-y,-z
-x,1/2+y,-z
-x,-y,-z
x,1/2+y,-z
-x,y,z
x,1/2-y,z
1/2+x,1/2+y,z
1/2-x,-y,z
1/2+x,1/2-y,-z
1/2-x,y,-z
1/2-x,1/2-y,-z
1/2+x,y,-z
1/2-x,1/2+y,z
1/2+x,-y,z
loop_
_atom_site_type_symbol
_atom_site_label
_atom_site_fract_x
_atom_site_fract_y
_atom_site_fract_z
Si Si1 0.000000 0.065480 0.074591
Si Si2 0.843228 0.067462 0.430737
Si Si3 0.097277 0.927800 0.293683
Si Si4 0.336952 0.433198 0.841426
O O1 0.083361 0.018575 0.114429
O O2 0.000000 0.250000 0.072058
O O3 0.000000 0.000000 0.000000
O O4 0.840386 0.250000 0.434486
O O5 0.879621 0.000000 0.500000
O O6 0.750000 0.000000 0.425698
O O7 0.889326 0.011779 0.364207
O O8 0.121593 0.750000 0.300475
O O9 0.000000 0.935197 0.275889
O O10 0.147928 0.005630 0.233869
O O11 0.333238 0.250000 0.840492
O O12 0.250000 0.500000 0.867146
#
# Coordination Sequence:
#
# PCOD9504682 Si02
#       4
#     8  16  16  16
#     4  10  24  44  68  96 133 170 209 258 312 374
#     4  11  22  38  59  83 117 158 205 260 316 376
#     4  11  23  39  61  89 121 161 209 261 315 374
#     4  11  23  42  66  96 130 169 214 261 315 374
#
# _framework density 19.993988000000002
#
# number of rings (size 3 to 8) (size 9 to 14) (size 15 to 20)
#    0.000    1.143    1.429    6.000    0.000    5.143 
#    0.000    2.857    0.000    0.000    0.000    0.000 
#    0.000    0.000    0.000    0.000    0.000    0.000 
#
# Total GULP energy -156627.215752 kJ/mol
# GULP energy per Si atom -5593.829134 kJ/mol
# Density = 1.994848 g / cm^3
# Si number density = 19.993988 Si / 1000 Ang^3
#
#
#
# Elastic Constant Matrix: (Units=GPa)
#
#
# Indices 1 2 3 4 5 6 
#
# 1 123.2153 50.9522 61.7481 0.0000 0.0000 0.0000
# 2 50.9522 129.9086 46.8761 0.0000 0.0000 0.0000
# 3 61.7481 46.8761 132.7026 0.0000 0.0000 0.0000
# 4 0.0000 0.0000 0.0000 37.5768 0.0000 0.0000
# 5 0.0000 0.0000 0.0000 0.0000 6.6628 0.0000
# 6 0.0000 0.0000 0.0000 0.0000 0.0000 29.7475
#
#
#
# Elastic Compliance Matrix: (Units=1/GPa)
#
#
# Indices 1 2 3 4 5 6 
#
# 1 0.011495 -0.002955 -0.004305 0.000000 0.000000 0.000000
# 2 -0.002955 0.009582 -0.002010 0.000000 0.000000 0.000000
# 3 -0.004305 -0.002010 0.010249 0.000000 0.000000 0.000000
# 4 0.000000 0.000000 0.000000 0.026612 0.000000 0.000000
# 5 0.000000 0.000000 0.000000 0.000000 0.150088 0.000000
# 6 0.000000 0.000000 0.000000 0.000000 0.000000 0.033616
#
#
# Mechanical properties :
#
#
# Convention : Reuss Voigt Hill
#
# Bulk Modulus (GPa) = 78.20908 78.33104 78.27006
# Shear Modulus (GPa) = 18.90760 29.88076 24.39418
#
# Velocity S-wave (km/s) = 3.07850 3.87005 3.49675
# Velocity P-wave (km/s) = 7.19982 7.69624 7.45217
#
# Compressibility (1/GPa) = 0.01278624
#
# Stress axis : x y z
#
# Youngs Moduli (GPa) = 86.99173 104.36272 97.57325
#
# Poissons Ratio (x) = 0.30842 0.42005
# Poissons Ratio (y) = 0.25708 0.19609
# Poissons Ratio (z) = 0.37450 0.20973
#
# Static dielectric constant tensor:
#      x y z
#    x 1.724680 0.000000 0.000000 
#    y 0.000000 1.672210 0.000000 
#    z 0.000000 0.000000 1.677710 
# 
# From -- ./inp_files/31607.got.cif
#   From: 2010.05.17/outbox.cif.g08.bks.cpg/sg67_16_cif.got.tgz:31607.got - 2010.06.03 18:28:57.
