data_PCOD9504696
_publ_section_title
;
Structure prediction by ZEFSAII (Michael W. Deem and Ramdas Pophale) SiO2 
 PCOD9504696
Probable space group: C M M A
;
_chemical_formula_sum "Si O2"
_cell_formula_units_Z 80
_cell_length_a 8.082000
_cell_length_b 20.631872
_cell_length_c 24.489192
_cell_angle_alpha 90.000000
_cell_angle_beta 90.000000
_cell_angle_gamma 90.000000
_cell_volume 4083.494144
_symmetry_space_group_name_H-M "C M M A"
_symmetry_group_IT_number 67
_symmetry_cell_setting 'orthorhombic'
loop_
_space_group_symop_operation_xyz
x,y,z
-x,1/2-y,z
x,-y,-z
-x,1/2+y,-z
-x,-y,-z
x,1/2+y,-z
-x,y,z
x,1/2-y,z
1/2+x,1/2+y,z
1/2-x,-y,z
1/2+x,1/2-y,-z
1/2-x,y,-z
1/2-x,1/2-y,-z
1/2+x,y,-z
1/2-x,1/2+y,z
1/2+x,-y,z
loop_
_atom_site_type_symbol
_atom_site_label
_atom_site_fract_x
_atom_site_fract_y
_atom_site_fract_z
Si Si1 0.316758 0.871652 0.618637
Si Si2 0.699251 0.926965 0.267233
Si Si3 0.302876 0.324469 0.057651
Si Si4 0.301573 0.675395 0.175886
Si Si5 0.000000 0.431810 0.527838
Si Si6 0.000000 0.320617 0.436905
O O1 0.500000 0.839752 0.622950
O O2 0.275955 0.907765 0.674566
O O3 0.345700 0.921728 0.568782
O O4 0.162419 0.828675 0.600597
O O5 0.500000 0.924083 0.271573
O O6 0.755417 0.873874 0.222603
O O7 0.750000 0.000000 0.252419
O O8 0.500000 0.322578 0.058759
O O9 0.236631 0.250000 0.056867
O O10 0.242212 0.350705 0.115552
O O11 0.250000 0.355049 0.000000
O O12 0.500000 0.678767 0.179656
O O13 0.237969 0.750000 0.181500
O O14 0.000000 0.500000 0.500000
O O15 0.000000 0.374527 0.483729
O O16 0.000000 0.250000 0.463186
#
# Coordination Sequence:
#
# PCOD9504696 Si02
#       6
#    16  16  16  16   8   8
#     4  10  25  43  67  96 123 166 209 263 312 378
#     4  11  23  41  64  91 126 165 211 263 314 379
#     4   9  16  27  48  80 117 157 202 254 307 365
#     4   9  19  36  58  84 119 162 206 255 314 373
#     4  10  26  46  72  98 128 168 215 267 318 383
#     4  12  26  46  68  98 136 166 203 259 323 385
#
# _framework density 19.591065
#
# number of rings (size 3 to 8) (size 9 to 14) (size 15 to 20)
#    0.600    1.400    1.000    1.800    2.800    7.600 
#    0.000    0.000    0.000    0.600    0.000    4.200 
#    0.000    0.000    0.000    0.000    0.000    0.000 
#
# Total GULP energy -223071.997777 kJ/mol
# GULP energy per Si atom -5576.799944 kJ/mol
# Density = 1.954648 g / cm^3
# Si number density = 19.591065 Si / 1000 Ang^3
#
#
#
# Elastic Constant Matrix: (Units=GPa)
#
#
# Indices 1 2 3 4 5 6 
#
# 1 83.4823 27.6871 38.5914 0.0000 0.0000 0.0000
# 2 27.6871 109.8947 78.8397 0.0000 0.0000 0.0000
# 3 38.5914 78.8397 139.8837 0.0000 0.0000 0.0000
# 4 0.0000 0.0000 0.0000 17.2090 0.0000 0.0000
# 5 0.0000 0.0000 0.0000 0.0000 33.9505 0.0000
# 6 0.0000 0.0000 0.0000 0.0000 0.0000 0.2063
#
#
#
# Elastic Compliance Matrix: (Units=1/GPa)
#
#
# Indices 1 2 3 4 5 6 
#
# 1 0.013832 -0.001254 -0.003109 0.000000 0.000000 0.000000
# 2 -0.001254 0.015390 -0.008328 0.000000 0.000000 0.000000
# 3 -0.003109 -0.008328 0.012700 0.000000 0.000000 0.000000
# 4 0.000000 0.000000 0.000000 0.058109 0.000000 0.000000
# 5 0.000000 0.000000 0.000000 0.000000 0.029455 0.000000
# 6 0.000000 0.000000 0.000000 0.000000 0.000000 4.847332
#
#
# Mechanical properties :
#
#
# Convention : Reuss Voigt Hill
#
# Bulk Modulus (GPa) = 60.46115 69.27744 64.86929
# Shear Modulus (GPa) = 0.99846 22.81599 11.90722
#
# Velocity S-wave (km/s) = 0.71467 3.41634 2.46801
# Velocity P-wave (km/s) = 5.62224 7.14146 6.42690
#
# Compressibility (1/GPa) = 0.01653955
#
# Stress axis : x y z
#
# Youngs Moduli (GPa) = 72.29724 64.97606 78.73857
#
# Poissons Ratio (x) = 0.08151 0.24479
# Poissons Ratio (y) = 0.09069 0.65574
# Poissons Ratio (z) = 0.22477 0.54112
#
# Static dielectric constant tensor:
#      x y z
#    x 1.728640 0.000000 0.000000 
#    y 0.000000 1.682250 0.000000 
#    z 0.000000 0.000000 1.696450 
# 
# From -- ./inp_files/40596.got.cif
#   From: 2010.05.17/outbox.cif.g08.bks.cpg/sg67_21_cif.got.tgz:40596.got - 2010.06.03 18:28:57.
