data_PCOD9504859
_publ_section_title
;
Structure prediction by ZEFSAII (Michael W. Deem and Ramdas Pophale) SiO2 
 PCOD9504859
Probable space group: C M M A
;
_chemical_formula_sum "Si O2"
_cell_formula_units_Z 96
_cell_length_a 8.635140
_cell_length_b 29.543684
_cell_length_c 20.910772
_cell_angle_alpha 90.000000
_cell_angle_beta 90.000000
_cell_angle_gamma 90.000000
_cell_volume 5334.627498
_symmetry_space_group_name_H-M "C M M A"
_symmetry_group_IT_number 67
_symmetry_cell_setting 'orthorhombic'
loop_
_space_group_symop_operation_xyz
x,y,z
-x,1/2-y,z
x,-y,-z
-x,1/2+y,-z
-x,-y,-z
x,1/2+y,-z
-x,y,z
x,1/2-y,z
1/2+x,1/2+y,z
1/2-x,-y,z
1/2+x,1/2-y,-z
1/2-x,y,-z
1/2-x,1/2-y,-z
1/2+x,y,-z
1/2-x,1/2+y,z
1/2+x,-y,z
loop_
_atom_site_type_symbol
_atom_site_label
_atom_site_fract_x
_atom_site_fract_y
_atom_site_fract_z
Si Si1 0.186025 0.050598 0.809955
Si Si2 0.684548 0.107806 0.316068
Si Si3 0.315858 0.049420 0.570329
Si Si4 0.313706 0.198870 0.735158
Si Si5 0.812093 0.200167 0.114446
Si Si6 0.813848 0.603372 0.932457
O O1 0.230786 0.079680 0.747474
O O2 0.253181 0.074388 0.873023
O O3 0.000000 0.049708 0.813845
O O4 0.250000 0.000000 0.804182
O O5 0.500000 0.104465 0.322937
O O6 0.763674 0.085524 0.377327
O O7 0.734237 0.159327 0.304144
O O8 0.500000 0.046601 0.566929
O O9 0.250000 0.060014 0.500000
O O10 0.250000 0.000000 0.588766
O O11 0.500000 0.194128 0.731168
O O12 0.273228 0.250000 0.715074
O O13 0.272226 0.194708 0.810480
O O14 0.756727 0.250000 0.092847
O O15 0.759085 0.155509 0.077803
O O16 0.000000 0.200849 0.111212
O O17 0.000000 0.602612 0.932554
O O18 0.750000 0.586522 0.000000
#
# Coordination Sequence:
#
# PCOD9504859 Si02
#       6
#    16  16  16  16  16  16
#     4  11  24  40  58  81 108 140 184 233 281 333
#     4  11  22  36  58  88 120 151 188 233 281 333
#     4  11  22  38  60  87 122 158 195 233 279 333
#     4   9  17  32  56  84 113 148 190 232 279 334
#     4   8  15  30  53  79 107 141 180 223 274 331
#     4  11  22  37  57  78 108 144 183 229 282 338
#
# _framework density 17.995633999999999
#
# number of rings (size 3 to 8) (size 9 to 14) (size 15 to 20)
#    0.000    1.833    1.667    5.000    0.000    4.333 
#    0.000    1.667    0.000    2.000    0.000    0.000 
#    0.000    0.000    0.000    0.000    0.000    0.000 
#
# Total GULP energy -268107.973454 kJ/mol
# GULP energy per Si atom -5585.582780 kJ/mol
# Density = 1.795467 g / cm^3
# Si number density = 17.995634 Si / 1000 Ang^3
#
#
#
# Elastic Constant Matrix: (Units=GPa)
#
#
# Indices 1 2 3 4 5 6 
#
# 1 68.3719 40.5823 39.0954 0.0000 0.0000 0.0000
# 2 40.5823 116.2935 56.9079 0.0000 0.0000 0.0000
# 3 39.0954 56.9079 82.2121 0.0000 0.0000 0.0000
# 4 0.0000 0.0000 0.0000 16.0993 0.0000 0.0000
# 5 0.0000 0.0000 0.0000 0.0000 20.4873 0.0000
# 6 0.0000 0.0000 0.0000 0.0000 0.0000 26.4872
#
#
#
# Elastic Compliance Matrix: (Units=1/GPa)
#
#
# Indices 1 2 3 4 5 6 
#
# 1 0.021096 -0.003709 -0.007465 0.000000 0.000000 0.000000
# 2 -0.003709 0.013656 -0.007689 0.000000 0.000000 0.000000
# 3 -0.007465 -0.007689 0.021036 0.000000 0.000000 0.000000
# 4 0.000000 0.000000 0.000000 0.062114 0.000000 0.000000
# 5 0.000000 0.000000 0.000000 0.000000 0.048811 0.000000
# 6 0.000000 0.000000 0.000000 0.000000 0.000000 0.037754
#
#
# Mechanical properties :
#
#
# Convention : Reuss Voigt Hill
#
# Bulk Modulus (GPa) = 55.36365 60.00541 57.68453
# Shear Modulus (GPa) = 20.14412 21.30090 20.72251
#
# Velocity S-wave (km/s) = 3.34936 3.44418 3.39710
# Velocity P-wave (km/s) = 6.76679 7.01665 6.89285
#
# Compressibility (1/GPa) = 0.01806239
#
# Stress axis : x y z
#
# Youngs Moduli (GPa) = 47.40338 73.22946 47.53833
#
# Poissons Ratio (x) = 0.27160 0.35485
# Poissons Ratio (y) = 0.17581 0.36552
# Poissons Ratio (z) = 0.35384 0.56305
#
# Static dielectric constant tensor:
#      x y z
#    x 1.606820 0.000000 0.000000 
#    y 0.000000 1.615410 0.000000 
#    z 0.000000 0.000000 1.590780 
# 
# From -- ./inp_files/37180.got.cif
#   From: 2010.05.17/outbox.cif.g08.bks.cpg/sg67_19_cif.got.tgz:37180.got - 2010.06.03 18:28:57.
