data_PCOD9504269
_publ_section_title
;
Structure prediction by ZEFSAII (Michael W. Deem and Ramdas Pophale) SiO2 
 PCOD9504269
Probable space group: C M M A
;
_chemical_formula_sum "Si O2"
_cell_formula_units_Z 72
_cell_length_a 27.916908
_cell_length_b 14.449456
_cell_length_c 9.606240
_cell_angle_alpha 90.000000
_cell_angle_beta 90.000000
_cell_angle_gamma 90.000000
_cell_volume 3875.004801
_symmetry_space_group_name_H-M "C M M A"
_symmetry_group_IT_number 67
_symmetry_cell_setting 'orthorhombic'
loop_
_space_group_symop_operation_xyz
x,y,z
-x,1/2-y,z
x,-y,-z
-x,1/2+y,-z
-x,-y,-z
x,1/2+y,-z
-x,y,z
x,1/2-y,z
1/2+x,1/2+y,z
1/2-x,-y,z
1/2+x,1/2-y,-z
1/2-x,y,-z
1/2-x,1/2-y,-z
1/2+x,y,-z
1/2-x,1/2+y,z
1/2+x,-y,z
loop_
_atom_site_type_symbol
_atom_site_label
_atom_site_fract_x
_atom_site_fract_y
_atom_site_fract_z
Si Si1 0.313901 0.750000 0.236251
Si Si2 0.656905 0.388164 0.999201
Si Si3 0.947656 0.404190 0.916139
Si Si4 0.701491 0.250000 0.212916
Si Si5 0.369431 0.750000 0.525468
Si Si6 0.553890 0.594432 0.585148
O O1 0.256839 0.750000 0.253126
O O2 0.341184 0.750000 0.381475
O O3 0.328401 0.839914 0.144888
O O4 0.601749 0.360238 0.032384
O O5 0.689045 0.339070 0.117172
O O6 0.660845 0.500000 0.000000
O O7 0.942387 0.421191 0.751132
O O8 0.000000 0.358407 0.937056
O O9 0.949683 0.500000 0.000000
O O10 0.667399 0.250000 0.346367
O O11 0.404611 0.837230 0.539124
O O12 0.557864 0.500000 0.500000
O O13 0.500000 0.631989 0.559981
#
# Coordination Sequence:
#
# PCOD9504269 Si02
#       6
#     8  16  16   8   8  16
#     4  11  27  40  60  87 122 153 206 258 299 347
#     4  10  21  41  66  90 116 157 198 247 305 357
#     4   9  18  34  61  92 120 151 194 239 291 352
#     4  11  23  44  61  87 117 158 202 255 302 347
#     4  12  24  40  61  90 121 163 200 240 298 366
#     4  10  22  40  63  90 125 162 195 239 293 359
#
# _framework density 18.580622999999999
#
# number of rings (size 3 to 8) (size 9 to 14) (size 15 to 20)
#    0.000    1.778    2.222    2.000    6.222    1.778 
#    0.000    3.333    0.000    4.000    0.000    0.000 
#    0.000    0.000    0.000    0.000    0.000    0.000 
#
# Total GULP energy -200888.962246 kJ/mol
# GULP energy per Si atom -5580.248951 kJ/mol
# Density = 1.853833 g / cm^3
# Si number density = 18.580623 Si / 1000 Ang^3
#
#
#
# Elastic Constant Matrix: (Units=GPa)
#
#
# Indices 1 2 3 4 5 6 
#
# 1 182.8825 60.5840 88.4347 0.0000 0.0000 0.0000
# 2 60.5840 126.1018 64.1346 0.0000 0.0000 0.0000
# 3 88.4347 64.1346 138.3460 0.0000 0.0000 0.0000
# 4 0.0000 0.0000 0.0000 12.9111 0.0000 0.0000
# 5 0.0000 0.0000 0.0000 0.0000 35.9917 0.0000
# 6 0.0000 0.0000 0.0000 0.0000 0.0000 30.4385
#
#
#
# Elastic Compliance Matrix: (Units=1/GPa)
#
#
# Indices 1 2 3 4 5 6 
#
# 1 0.008172 -0.001661 -0.004454 0.000000 0.000000 0.000000
# 2 -0.001661 0.010714 -0.003905 0.000000 0.000000 0.000000
# 3 -0.004454 -0.003905 0.011886 0.000000 0.000000 0.000000
# 4 0.000000 0.000000 0.000000 0.077453 0.000000 0.000000
# 5 0.000000 0.000000 0.000000 0.000000 0.027784 0.000000
# 6 0.000000 0.000000 0.000000 0.000000 0.000000 0.032853
#
#
# Mechanical properties :
#
#
# Convention : Reuss Voigt Hill
#
# Bulk Modulus (GPa) = 93.17948 97.07075 95.12511
# Shear Modulus (GPa) = 25.97690 31.48004 28.72847
#
# Velocity S-wave (km/s) = 3.74313 4.12058 3.93638
# Velocity P-wave (km/s) = 8.30295 8.65998 8.48334
#
# Compressibility (1/GPa) = 0.01073198
#
# Stress axis : x y z
#
# Youngs Moduli (GPa) = 122.37138 93.33370 84.13570
#
# Poissons Ratio (x) = 0.15502 0.37471
# Poissons Ratio (y) = 0.20325 0.32857
# Poissons Ratio (z) = 0.54500 0.36449
#
# Static dielectric constant tensor:
#      x y z
#    x 1.663100 0.000000 0.000000 
#    y 0.000000 1.638850 0.000000 
#    z 0.000000 0.000000 1.603680 
# 
# From -- ./inp_files/13358.got.cif
#   From: 2010.05.17/outbox.cif.g08.bks.cpg/sg67_7_cif.got.tgz:13358.got - 2010.06.03 18:28:57.
