data_PCOD9504828
_publ_section_title
;
Structure prediction by ZEFSAII (Michael W. Deem and Ramdas Pophale) SiO2 
 PCOD9504828
Probable space group: C M M A
;
_chemical_formula_sum "Si O2"
_cell_formula_units_Z 64
_cell_length_a 9.510919
_cell_length_b 15.509135
_cell_length_c 22.695906
_cell_angle_alpha 90.000000
_cell_angle_beta 90.000000
_cell_angle_gamma 90.000000
_cell_volume 3347.785187
_symmetry_space_group_name_H-M "C M M A"
_symmetry_group_IT_number 67
_symmetry_cell_setting 'orthorhombic'
loop_
_space_group_symop_operation_xyz
x,y,z
-x,1/2-y,z
x,-y,-z
-x,1/2+y,-z
-x,-y,-z
x,1/2+y,-z
-x,y,z
x,1/2-y,z
1/2+x,1/2+y,z
1/2-x,-y,z
1/2+x,1/2-y,-z
1/2-x,y,-z
1/2-x,1/2-y,-z
1/2+x,y,-z
1/2-x,1/2+y,z
1/2+x,-y,z
loop_
_atom_site_type_symbol
_atom_site_label
_atom_site_fract_x
_atom_site_fract_y
_atom_site_fract_z
Si Si1 0.323593 0.589236 0.564519
Si Si2 0.747070 0.096214 0.848300
Si Si3 0.834237 0.250000 0.233156
Si Si4 0.829419 0.750000 0.626087
Si Si5 0.500000 0.853648 0.930422
Si Si6 0.500000 0.645381 0.066074
O O1 0.500000 0.586887 0.562652
O O2 0.250000 0.500000 0.586387
O O3 0.250000 0.600367 0.500000
O O4 0.257566 0.667686 0.601783
O O5 0.732990 0.166289 0.797057
O O6 0.625700 0.110213 0.895569
O O7 0.874530 0.114079 0.891087
O O8 0.750000 0.000000 0.823853
O O9 0.822856 0.250000 0.303195
O O10 0.000000 0.250000 0.217669
O O11 0.000000 0.750000 0.609931
O O12 0.500000 0.750000 0.932440
O O13 0.500000 0.882853 0.998175
O O14 0.500000 0.750000 0.066611
#
# Coordination Sequence:
#
# PCOD9504828 Si02
#       6
#    16  16   8   8   8   8
#     4  11  22  41  69 106 144 179 219 269 326 385
#     4  12  23  40  63  88 118 159 204 258 320 385
#     4  11  24  47  64  84 122 170 215 258 315 378
#     4  11  24  42  67  92 130 182 232 277 326 387
#     4  11  23  37  61  96 119 153 194 265 320 386
#     4  11  21  41  65  82 125 159 198 245 328 400
#
# _framework density 19.117114999999998
#
# number of rings (size 3 to 8) (size 9 to 14) (size 15 to 20)
#    0.000    0.750    3.750    5.250    0.000    6.000 
#    4.500    0.000    0.000    0.000    0.000    0.000 
#    0.000    0.000    0.000    0.000    0.000    0.000 
#
# Total GULP energy -178359.629004 kJ/mol
# GULP energy per Si atom -5573.738406 kJ/mol
# Density = 1.907360 g / cm^3
# Si number density = 19.117115 Si / 1000 Ang^3
#
#
#
# Elastic Constant Matrix: (Units=GPa)
#
#
# Indices 1 2 3 4 5 6 
#
# 1 193.8164 52.1822 46.6803 0.0000 0.0000 0.0000
# 2 52.1822 182.0195 68.8190 0.0000 0.0000 0.0000
# 3 46.6803 68.8190 91.9594 0.0000 0.0000 0.0000
# 4 0.0000 0.0000 0.0000 16.8918 0.0000 0.0000
# 5 0.0000 0.0000 0.0000 0.0000 35.8357 0.0000
# 6 0.0000 0.0000 0.0000 0.0000 0.0000 27.7665
#
#
#
# Elastic Compliance Matrix: (Units=1/GPa)
#
#
# Indices 1 2 3 4 5 6 
#
# 1 0.005958 -0.000787 -0.002435 0.000000 0.000000 0.000000
# 2 -0.000787 0.007766 -0.005412 0.000000 0.000000 0.000000
# 3 -0.002435 -0.005412 0.016161 0.000000 0.000000 0.000000
# 4 0.000000 0.000000 0.000000 0.059200 0.000000 0.000000
# 5 0.000000 0.000000 0.000000 0.000000 0.027905 0.000000
# 6 0.000000 0.000000 0.000000 0.000000 0.000000 0.036015
#
#
# Mechanical properties :
#
#
# Convention : Reuss Voigt Hill
#
# Bulk Modulus (GPa) = 79.26785 89.23980 84.25383
# Shear Modulus (GPa) = 28.65681 36.10639 32.38160
#
# Velocity S-wave (km/s) = 3.87591 4.35063 4.12011
# Velocity P-wave (km/s) = 7.84758 8.48641 8.17324
#
# Compressibility (1/GPa) = 0.01261545
#
# Stress axis : x y z
#
# Youngs Moduli (GPa) = 167.84116 128.76918 61.87880
#
# Poissons Ratio (x) = 0.10139 0.15068
# Poissons Ratio (y) = 0.13215 0.33489
# Poissons Ratio (z) = 0.40872 0.69690
#
# Static dielectric constant tensor:
#      x y z
#    x 1.637330 0.000000 0.000000 
#    y 0.000000 1.706320 0.000000 
#    z 0.000000 0.000000 1.618870 
# 
# From -- ./inp_files/40458.got.cif
#   From: 2010.05.17/outbox.cif.g08.bks.cpg/sg67_21_cif.got.tgz:40458.got - 2010.06.03 18:28:57.
