data_PCOD9504792
_publ_section_title
;
Structure prediction by ZEFSAII (Michael W. Deem and Ramdas Pophale) SiO2 
 PCOD9504792
Probable space group: C M M A
;
_chemical_formula_sum "Si O2"
_cell_formula_units_Z 96
_cell_length_a 23.954940
_cell_length_b 8.594866
_cell_length_c 26.634123
_cell_angle_alpha 90.000000
_cell_angle_beta 90.000000
_cell_angle_gamma 90.000000
_cell_volume 5483.686250
_symmetry_space_group_name_H-M "C M M A"
_symmetry_group_IT_number 67
_symmetry_cell_setting 'orthorhombic'
loop_
_space_group_symop_operation_xyz
x,y,z
-x,1/2-y,z
x,-y,-z
-x,1/2+y,-z
-x,-y,-z
x,1/2+y,-z
-x,y,z
x,1/2-y,z
1/2+x,1/2+y,z
1/2-x,-y,z
1/2+x,1/2-y,-z
1/2-x,y,-z
1/2-x,1/2-y,-z
1/2+x,y,-z
1/2-x,1/2+y,z
1/2+x,-y,z
loop_
_atom_site_type_symbol
_atom_site_label
_atom_site_fract_x
_atom_site_fract_y
_atom_site_fract_z
Si Si1 0.500000 0.568534 0.321020
Si Si2 0.606241 0.563096 0.734859
Si Si3 0.500000 0.069552 0.428279
Si Si4 0.878795 0.064621 0.448099
Si Si5 0.434723 0.435272 0.948109
Si Si6 0.565240 0.436498 0.157403
Si Si7 0.312461 0.937798 0.347043
O O1 0.500000 0.750000 0.336649
O O2 0.554483 0.527660 0.289576
O O3 0.500000 0.456614 0.368720
O O4 0.598672 0.750000 0.729790
O O5 0.602342 0.525446 0.793996
O O6 0.659215 0.509535 0.702650
O O7 0.500000 0.250000 0.442293
O O8 0.557242 0.991401 0.445727
O O9 0.877558 0.250000 0.449782
O O10 0.847757 0.015208 0.396828
O O11 0.853639 0.000000 0.500000
O O12 0.500000 0.487305 0.947394
O O13 0.433226 0.250000 0.949616
O O14 0.412657 0.494169 0.894755
O O15 0.409929 0.500000 0.000000
O O16 0.500000 0.487235 0.165610
O O17 0.563869 0.250000 0.152685
O O18 0.313471 0.750000 0.343894
O O19 0.250000 0.000000 0.352311
#
# Coordination Sequence:
#
# PCOD9504792 Si02
#       7
#     8  16   8  16  16  16  16
#     4  12  22  33  53  82 113 143 177 217 266 325
#     4  11  21  36  57  81 109 142 180 222 273 324
#     4  12  23  37  60  86 115 147 177 215 264 317
#     4  11  24  41  61  86 114 143 177 219 266 318
#     4   9  16  25  38  59  91 136 181 220 260 305
#     4   9  17  29  45  70 102 137 177 218 261 315
#     4  11  25  43  62  82 107 140 180 225 271 322
#
# _framework density 17.506473
#
# number of rings (size 3 to 8) (size 9 to 14) (size 15 to 20)
#    0.000    1.500    2.500    3.750    0.000    5.667 
#    0.000    1.667    0.000    0.000    0.000    0.000 
#    0.000    0.667    0.000    7.000    0.000    3.333 
#
# Total GULP energy -267886.758558 kJ/mol
# GULP energy per Si atom -5580.974137 kJ/mol
# Density = 1.746663 g / cm^3
# Si number density = 17.506473 Si / 1000 Ang^3
#
#
#
# Elastic Constant Matrix: (Units=GPa)
#
#
# Indices 1 2 3 4 5 6 
#
# 1 76.8483 19.0246 43.5993 0.0000 0.0000 0.0000
# 2 19.0246 40.5345 33.0988 0.0000 0.0000 0.0000
# 3 43.5993 33.0988 166.1551 0.0000 0.0000 0.0000
# 4 0.0000 0.0000 0.0000 31.8440 0.0000 0.0000
# 5 0.0000 0.0000 0.0000 0.0000 8.9417 0.0000
# 6 0.0000 0.0000 0.0000 0.0000 0.0000 18.3472
#
#
#
# Elastic Compliance Matrix: (Units=1/GPa)
#
#
# Indices 1 2 3 4 5 6 
#
# 1 0.016062 -0.004893 -0.003240 0.000000 0.000000 0.000000
# 2 -0.004893 0.030953 -0.004882 0.000000 0.000000 0.000000
# 3 -0.003240 -0.004882 0.007841 0.000000 0.000000 0.000000
# 4 0.000000 0.000000 0.000000 0.031403 0.000000 0.000000
# 5 0.000000 0.000000 0.000000 0.000000 0.111836 0.000000
# 6 0.000000 0.000000 0.000000 0.000000 0.000000 0.054504
#
#
# Mechanical properties :
#
#
# Convention : Reuss Voigt Hill
#
# Bulk Modulus (GPa) = 34.69038 52.77593 43.73315
# Shear Modulus (GPa) = 17.34673 24.34759 20.84716
#
# Velocity S-wave (km/s) = 3.15123 3.73336 3.45458
# Velocity P-wave (km/s) = 5.75318 6.98541 6.39902
#
# Compressibility (1/GPa) = 0.02882644
#
# Stress axis : x y z
#
# Youngs Moduli (GPa) = 62.25810 32.30667 127.53154
#
# Poissons Ratio (x) = 0.15808 0.41321
# Poissons Ratio (y) = 0.30463 0.62262
# Poissons Ratio (z) = 0.20172 0.15772
#
# Static dielectric constant tensor:
#      x y z
#    x 1.575620 0.000000 0.000000 
#    y 0.000000 1.588230 0.000000 
#    z 0.000000 0.000000 1.639550 
# 
# From -- ./inp_files/42590.got.cif
#   From: 2010.05.17/outbox.cif.g08.bks.cpg/sg67_22_cif.got.tgz:42590.got - 2010.06.03 18:28:57.
