data_PCOD9504884
_publ_section_title
;
Structure prediction by ZEFSAII (Michael W. Deem and Ramdas Pophale) SiO2 
 PCOD9504884
Probable space group: C M M A
;
_chemical_formula_sum "Si O2"
_cell_formula_units_Z 84
_cell_length_a 24.254713
_cell_length_b 14.678427
_cell_length_c 11.656136
_cell_angle_alpha 90.000000
_cell_angle_beta 90.000000
_cell_angle_gamma 90.000000
_cell_volume 4149.829593
_symmetry_space_group_name_H-M "C M M A"
_symmetry_group_IT_number 67
_symmetry_cell_setting 'orthorhombic'
loop_
_space_group_symop_operation_xyz
x,y,z
-x,1/2-y,z
x,-y,-z
-x,1/2+y,-z
-x,-y,-z
x,1/2+y,-z
-x,y,z
x,1/2-y,z
1/2+x,1/2+y,z
1/2-x,-y,z
1/2+x,1/2-y,-z
1/2-x,y,-z
1/2-x,1/2-y,-z
1/2+x,y,-z
1/2-x,1/2+y,z
1/2+x,-y,z
loop_
_atom_site_type_symbol
_atom_site_label
_atom_site_fract_x
_atom_site_fract_y
_atom_site_fract_z
Si Si1 0.837323 0.394795 0.514016
Si Si2 0.750000 0.250000 0.500000
Si Si3 0.659353 0.151334 0.749749
Si Si4 0.061856 0.357757 0.683295
Si Si5 0.765982 0.393376 0.874602
Si Si6 0.616056 0.031033 0.130678
O O1 0.821272 0.500000 0.500000
O O2 0.789013 0.330188 0.557757
O O3 0.847629 0.356098 0.386337
O O4 0.890916 0.387668 0.593972
O O5 0.637721 0.250000 0.788924
O O6 0.724177 0.148460 0.783277
O O7 0.632221 0.063113 0.806111
O O8 0.068504 0.250000 0.706309
O O9 0.069545 0.417306 0.798138
O O10 0.000000 0.371769 0.637005
O O11 0.750000 0.500000 0.875269
O O12 0.831513 0.399283 0.861797
O O13 0.750000 0.356509 0.000000
O O14 0.605956 0.000000 0.000000
#
# Coordination Sequence:
#
# PCOD9504884 Si02
#       6
#    16   4  16  16  16  16
#     4  12  25  43  68 102 139 182 227 283 351 422
#     4  12  26  40  66 110 142 176 210 282 354 416
#     4  11  22  37  60  96 136 178 226 272 341 417
#     4  11  26  48  74  98 131 184 241 295 351 417
#     4   9  17  34  56  89 133 179 215 257 329 415
#     4  11  22  41  66  96 136 177 228 285 343 410
#
# _framework density 20.241795
#
# number of rings (size 3 to 8) (size 9 to 14) (size 15 to 20)
#    0.000    1.143    7.619    0.286    2.667    4.190 
#    0.000    0.000    0.000    0.571    0.000    0.000 
#    0.000    0.000    0.000    0.000    0.000    0.000 
#
# Total GULP energy -233877.621385 kJ/mol
# GULP energy per Si atom -5568.514795 kJ/mol
# Density = 2.019572 g / cm^3
# Si number density = 20.241795 Si / 1000 Ang^3
#
#
#
# Elastic Constant Matrix: (Units=GPa)
#
#
# Indices 1 2 3 4 5 6 
#
# 1 90.3537 35.8592 24.7791 0.0000 0.0000 0.0000
# 2 35.8592 152.7070 17.2645 0.0000 0.0000 0.0000
# 3 24.7791 17.2645 107.6408 0.0000 0.0000 0.0000
# 4 0.0000 0.0000 0.0000 130.4132 0.0000 0.0000
# 5 0.0000 0.0000 0.0000 0.0000 26.5860 0.0000
# 6 0.0000 0.0000 0.0000 0.0000 0.0000 -22.5495
#
#
#
# Elastic Compliance Matrix: (Units=1/GPa)
#
#
# Indices 1 2 3 4 5 6 
#
# 1 0.012842 -0.002731 -0.002518 0.000000 0.000000 0.000000
# 2 -0.002731 0.007250 -0.000534 0.000000 0.000000 0.000000
# 3 -0.002518 -0.000534 0.009956 0.000000 0.000000 0.000000
# 4 0.000000 0.000000 0.000000 0.007668 0.000000 0.000000
# 5 0.000000 0.000000 0.000000 0.000000 0.037614 0.000000
# 6 0.000000 0.000000 0.000000 0.000000 0.000000 -0.044347
#
#
# Mechanical properties :
#
#
# Convention : Reuss Voigt Hill
#
# Bulk Modulus (GPa) = 54.10946 56.27856 55.19401
# Shear Modulus (GPa) = 102.64918 45.07653 73.86285
#
# Velocity S-wave (km/s) = 7.12893 4.72413 6.04727
# Velocity P-wave (km/s) = 9.72377 7.59078 8.72272
#
# Compressibility (1/GPa) = 0.01848106
#
# Stress axis : x y z
#
# Youngs Moduli (GPa) = 77.86902 137.92783 100.44652
#
# Poissons Ratio (x) = 0.37667 0.25295
# Poissons Ratio (y) = 0.21265 0.05366
# Poissons Ratio (z) = 0.19609 0.07368
#
# Static dielectric constant tensor:
#      x y z
#    x 1.764910 0.000000 0.000000 
#    y 0.000000 1.721480 0.000000 
#    z 0.000000 0.000000 1.768110 
# 
# From -- ./inp_files/21734.got.cif
#   From: 2010.05.17/outbox.cif.g08.bks.cpg/sg67_11_cif.got.tgz:21734.got - 2010.06.03 18:28:57.
