data_PCOD9504856
_publ_section_title
;
Structure prediction by ZEFSAII (Michael W. Deem and Ramdas Pophale) SiO2 
 PCOD9504856
Probable space group: C M M A
;
_chemical_formula_sum "Si O2"
_cell_formula_units_Z 96
_cell_length_a 18.010839
_cell_length_b 18.154101
_cell_length_c 14.222576
_cell_angle_alpha 90.000000
_cell_angle_beta 90.000000
_cell_angle_gamma 90.000000
_cell_volume 4650.364070
_symmetry_space_group_name_H-M "C M M A"
_symmetry_group_IT_number 67
_symmetry_cell_setting 'orthorhombic'
loop_
_space_group_symop_operation_xyz
x,y,z
-x,1/2-y,z
x,-y,-z
-x,1/2+y,-z
-x,-y,-z
x,1/2+y,-z
-x,y,z
x,1/2-y,z
1/2+x,1/2+y,z
1/2-x,-y,z
1/2+x,1/2-y,-z
1/2-x,y,-z
1/2-x,1/2-y,-z
1/2+x,y,-z
1/2-x,1/2+y,z
1/2+x,-y,z
loop_
_atom_site_type_symbol
_atom_site_label
_atom_site_fract_x
_atom_site_fract_y
_atom_site_fract_z
Si Si1 0.915241 0.556192 0.694554
Si Si2 0.410297 0.662250 0.923624
Si Si3 0.869868 0.833957 0.538541
Si Si4 0.589471 0.830665 0.138993
Si Si5 0.712862 0.168173 0.355502
Si Si6 0.812541 0.445013 0.794910
O O1 0.909333 0.602310 0.597860
O O2 0.896837 0.612442 0.779228
O O3 0.859897 0.490324 0.717311
O O4 0.000000 0.530901 0.705116
O O5 0.500000 0.652274 0.914337
O O6 0.395831 0.750000 0.902320
O O7 0.366273 0.600998 0.863935
O O8 0.387633 0.650672 0.032990
O O9 0.901737 0.750000 0.544391
O O10 0.789287 0.829676 0.587377
O O11 0.851699 0.852812 0.430197
O O12 0.500000 0.825490 0.133469
O O13 0.619397 0.750000 0.164379
O O14 0.694131 0.250000 0.322711
O O15 0.725899 0.116445 0.268278
O O16 0.750000 0.500000 0.836685
#
# Coordination Sequence:
#
# PCOD9504856 Si02
#       6
#    16  16  16  16  16  16
#     4  11  22  36  56  88 123 151 186 239 299 354
#     4   9  19  39  65  87 110 152 209 255 289 337
#     4   9  18  36  61  84 106 144 193 239 281 337
#     4   8  16  34  60  85 111 151 198 240 288 346
#     4   9  19  38  61  81 106 146 198 236 275 339
#     4  12  23  37  55  86 121 160 191 237 297 359
#
# _framework density 20.643545
#
# number of rings (size 3 to 8) (size 9 to 14) (size 15 to 20)
#    0.000    2.333    1.667    3.500    0.000    2.333 
#    0.000    6.667    0.000    4.000    0.000    0.000 
#    0.000    0.000    0.000    0.000    0.000    0.000 
#
# Total GULP energy -267463.228728 kJ/mol
# GULP energy per Si atom -5572.150599 kJ/mol
# Density = 2.059656 g / cm^3
# Si number density = 20.643545 Si / 1000 Ang^3
#
#
#
# Elastic Constant Matrix: (Units=GPa)
#
#
# Indices 1 2 3 4 5 6 
#
# 1 60.7353 19.2947 5.2411 0.0000 0.0000 0.0000
# 2 19.2947 59.6660 22.3470 0.0000 0.0000 0.0000
# 3 5.2411 22.3470 31.0839 0.0000 0.0000 0.0000
# 4 0.0000 0.0000 0.0000 0.5176 0.0000 0.0000
# 5 0.0000 0.0000 0.0000 0.0000 -43.5368 0.0000
# 6 0.0000 0.0000 0.0000 0.0000 0.0000 21.4610
#
#
#
# Elastic Compliance Matrix: (Units=1/GPa)
#
#
# Indices 1 2 3 4 5 6 
#
# 1 0.018409 -0.006556 0.001609 0.000000 0.000000 0.000000
# 2 -0.006556 0.025270 -0.017062 0.000000 0.000000 0.000000
# 3 0.001609 -0.017062 0.044166 0.000000 0.000000 0.000000
# 4 0.000000 0.000000 0.000000 1.931922 0.000000 0.000000
# 5 0.000000 0.000000 0.000000 0.000000 -0.022969 0.000000
# 6 0.000000 0.000000 0.000000 0.000000 0.000000 0.046596
#
#
# Mechanical properties :
#
#
# Convention : Reuss Voigt Hill
#
# Bulk Modulus (GPa) = 22.81658 27.25009 25.03333
# Shear Modulus (GPa) = 2.37866 2.66185 2.52026
#
# Velocity S-wave (km/s) = 1.07460 1.13676 1.10612
# Velocity P-wave (km/s) = 3.55195 3.86677 3.71270
#
# Compressibility (1/GPa) = 0.04382779
#
# Stress axis : x y z
#
# Youngs Moduli (GPa) = 54.32226 39.57217 22.64178
#
# Poissons Ratio (x) = 0.25942 -0.03643
# Poissons Ratio (y) = 0.35612 0.38632
# Poissons Ratio (z) = -0.08741 0.67519
#
# Static dielectric constant tensor:
#      x y z
#    x 1.754080 0.000000 0.000000 
#    y 0.000000 1.780900 0.000000 
#    z 0.000000 0.000000 1.737260 
# 
# From -- ./inp_files/29236.got.cif
#   From: 2010.05.17/outbox.cif.g08.bks.cpg/sg67_15_cif.got.tgz:29236.got - 2010.06.03 18:28:57.
