data_PCOD9504461
_publ_section_title
;
Structure prediction by ZEFSAII (Michael W. Deem and Ramdas Pophale) SiO2 
 PCOD9504461
Probable space group: C M M A
;
_chemical_formula_sum "Si O2"
_cell_formula_units_Z 88
_cell_length_a 20.431208
_cell_length_b 15.169008
_cell_length_c 14.073686
_cell_angle_alpha 90.000000
_cell_angle_beta 90.000000
_cell_angle_gamma 90.000000
_cell_volume 4361.733057
_symmetry_space_group_name_H-M "C M M A"
_symmetry_group_IT_number 67
_symmetry_cell_setting 'orthorhombic'
loop_
_space_group_symop_operation_xyz
x,y,z
-x,1/2-y,z
x,-y,-z
-x,1/2+y,-z
-x,-y,-z
x,1/2+y,-z
-x,y,z
x,1/2-y,z
1/2+x,1/2+y,z
1/2-x,-y,z
1/2+x,1/2-y,-z
1/2-x,y,-z
1/2-x,1/2-y,-z
1/2+x,y,-z
1/2-x,1/2+y,z
1/2+x,-y,z
loop_
_atom_site_type_symbol
_atom_site_label
_atom_site_fract_x
_atom_site_fract_y
_atom_site_fract_z
Si Si1 0.789933 0.250000 0.266168
Si Si2 0.823518 0.250000 0.044471
Si Si3 0.078761 0.911950 0.935915
Si Si4 0.869803 0.563804 0.408748
Si Si5 0.128542 0.422088 0.280228
Si Si6 0.500000 0.148229 0.390807
Si Si7 0.693624 0.250000 0.423281
Si Si8 0.000000 0.647783 0.620001
O O1 0.802534 0.250000 0.154634
O O2 0.825585 0.161413 0.298471
O O3 0.719504 0.250000 0.314931
O O4 0.871852 0.334455 0.027383
O O5 0.750000 0.250000 0.000000
O O6 0.105061 0.929810 0.828657
O O7 0.000000 0.887742 0.932806
O O8 0.084183 0.000000 0.000000
O O9 0.874071 0.500000 0.500000
O O10 0.836755 0.507315 0.325489
O O11 0.842607 0.658172 0.439070
O O12 0.937704 0.593298 0.361599
O O13 0.063580 0.399736 0.340179
O O14 0.500000 0.250000 0.360033
O O15 0.500000 0.147230 0.506075
O O16 0.750000 0.250000 0.500000
O O17 0.000000 0.750000 0.652067
#
# Coordination Sequence:
#
# PCOD9504461 Si02
#       8
#     8   8  16  16  16   8   8   8
#     4  10  24  42  61  91 116 155 212 256 291 359
#     4  10  23  43  70  91 124 171 213 258 316 372
#     4  10  22  40  65 101 131 159 204 264 324 382
#     4  12  24  40  61  87 120 162 205 252 306 368
#     4  11  21  37  65  93 121 155 198 252 314 364
#     4  11  22  38  60  90 121 158 201 255 306 359
#     4  12  28  43  56  80 127 170 210 249 298 363
#     4  11  19  31  64  93 122 152 194 255 304 362
#
# _framework density 20.175467000000001
#
# number of rings (size 3 to 8) (size 9 to 14) (size 15 to 20)
#    0.000    1.091    4.545    2.182    0.000    4.364 
#    0.000    3.636    0.000    0.000    0.000    0.000 
#    0.000    0.000    0.000    0.000    0.000    0.000 
#
# Total GULP energy -245346.114907 kJ/mol
# GULP energy per Si atom -5576.048066 kJ/mol
# Density = 2.012955 g / cm^3
# Si number density = 20.175467 Si / 1000 Ang^3
#
#
#
# Elastic Constant Matrix: (Units=GPa)
#
#
# Indices 1 2 3 4 5 6 
#
# 1 65.8722 48.8233 5.6151 0.0000 0.0000 0.0000
# 2 48.8233 181.8727 37.1299 0.0000 0.0000 0.0000
# 3 5.6151 37.1299 36.5972 0.0000 0.0000 0.0000
# 4 0.0000 0.0000 0.0000 29.5645 0.0000 0.0000
# 5 0.0000 0.0000 0.0000 0.0000 16.3194 0.0000
# 6 0.0000 0.0000 0.0000 0.0000 0.0000 29.9366
#
#
#
# Elastic Compliance Matrix: (Units=1/GPa)
#
#
# Indices 1 2 3 4 5 6 
#
# 1 0.019189 -0.005739 0.002878 0.000000 0.000000 0.000000
# 2 -0.005739 0.008651 -0.007896 0.000000 0.000000 0.000000
# 3 0.002878 -0.007896 0.034894 0.000000 0.000000 0.000000
# 4 0.000000 0.000000 0.000000 0.033824 0.000000 0.000000
# 5 0.000000 0.000000 0.000000 0.000000 0.061277 0.000000
# 6 0.000000 0.000000 0.000000 0.000000 0.000000 0.033404
#
#
# Mechanical properties :
#
#
# Convention : Reuss Voigt Hill
#
# Bulk Modulus (GPa) = 24.25996 51.94210 38.10103
# Shear Modulus (GPa) = 22.07568 28.01569 25.04568
#
# Velocity S-wave (km/s) = 3.31143 3.73044 3.52716
# Velocity P-wave (km/s) = 5.16443 6.66003 5.95933
#
# Compressibility (1/GPa) = 0.04122019
#
# Stress axis : x y z
#
# Youngs Moduli (GPa) = 52.11288 115.59327 28.65804
#
# Poissons Ratio (x) = 0.66338 -0.08248
# Poissons Ratio (y) = 0.29907 0.22630
# Poissons Ratio (z) = -0.14999 0.91277
#
# Static dielectric constant tensor:
#      x y z
#    x 1.745940 0.000000 0.000000 
#    y 0.000000 2.162020 0.000000 
#    z 0.000000 0.000000 1.705700 
# 
# From -- ./inp_files/29219.got.cif
#   From: 2010.05.17/outbox.cif.g08.bks.cpg/sg67_15_cif.got.tgz:29219.got - 2010.06.03 18:28:57.
