data_PCOD9504420
_publ_section_title
;
Structure prediction by ZEFSAII (Michael W. Deem and Ramdas Pophale) SiO2 
 PCOD9504420
Probable space group: C M M A
;
_chemical_formula_sum "Si O2"
_cell_formula_units_Z 100
_cell_length_a 19.625696
_cell_length_b 9.459004
_cell_length_c 29.824592
_cell_angle_alpha 90.000000
_cell_angle_beta 90.000000
_cell_angle_gamma 90.000000
_cell_volume 5536.623449
_symmetry_space_group_name_H-M "C M M A"
_symmetry_group_IT_number 67
_symmetry_cell_setting 'orthorhombic'
loop_
_space_group_symop_operation_xyz
x,y,z
-x,1/2-y,z
x,-y,-z
-x,1/2+y,-z
-x,-y,-z
x,1/2+y,-z
-x,y,z
x,1/2-y,z
1/2+x,1/2+y,z
1/2-x,-y,z
1/2+x,1/2-y,-z
1/2-x,y,-z
1/2-x,1/2-y,-z
1/2+x,y,-z
1/2-x,1/2+y,z
1/2+x,-y,z
loop_
_atom_site_type_symbol
_atom_site_label
_atom_site_fract_x
_atom_site_fract_y
_atom_site_fract_z
Si Si1 0.581281 0.250000 0.536507
Si Si2 0.821268 0.081694 0.214864
Si Si3 0.082970 0.412962 0.956356
Si Si4 0.500000 0.750000 0.591880
Si Si5 0.308726 0.750000 0.538034
Si Si6 0.580431 0.418399 0.867083
Si Si7 0.376682 0.475090 0.407703
Si Si8 0.678805 0.418314 0.684783
O O1 0.500000 0.250000 0.529452
O O2 0.621059 0.250000 0.490008
O O3 0.605337 0.388336 0.562917
O O4 0.808014 0.250000 0.211925
O O5 0.874421 0.044363 0.176010
O O6 0.849783 0.055326 0.265096
O O7 0.750000 0.000000 0.209793
O O8 0.105517 0.250000 0.957223
O O9 0.101961 0.493081 0.910683
O O10 0.000000 0.412144 0.957475
O O11 0.105892 0.500000 0.000000
O O12 0.440605 0.627837 0.592552
O O13 0.250000 0.750000 0.500000
O O14 0.313943 0.612409 0.569814
O O15 0.500000 0.444437 0.858826
O O16 0.587729 0.250000 0.875914
O O17 0.362509 0.523914 0.357191
O O18 0.688436 0.250000 0.679723
O O19 0.750000 0.500000 0.683919
#
# Coordination Sequence:
#
# PCOD9504420 Si02
#       8
#     8  16  16   4   8  16  16  16
#     4  12  25  43  67  90 118 157 195 230 282 342
#     4   9  19  37  58  83 110 147 190 231 285 345
#     4   9  16  26  44  72 109 149 190 232 283 340
#     4  10  24  44  62  90 120 160 188 226 288 342
#     4  11  29  44  64  95 125 154 194 237 290 339
#     4   9  17  31  52  78 111 145 187 237 286 332
#     4  11  24  43  66  87 123 153 195 235 283 347
#     4  10  22  39  64  90 115 149 191 241 292 343
#
# _framework density 18.06155
#
# number of rings (size 3 to 8) (size 9 to 14) (size 15 to 20)
#    0.000    2.080    1.600    0.960    6.720    3.840 
#    1.440    0.000    0.000    0.480    0.000    3.360 
#    0.000    0.000    0.000    0.000    0.000    0.000 
#
# Total GULP energy -278501.684892 kJ/mol
# GULP energy per Si atom -5570.033698 kJ/mol
# Density = 1.802044 g / cm^3
# Si number density = 18.061550 Si / 1000 Ang^3
#
#
#
# Elastic Constant Matrix: (Units=GPa)
#
#
# Indices 1 2 3 4 5 6 
#
# 1 55.0159 42.1523 63.0768 0.0000 0.0000 0.0000
# 2 42.1523 119.5219 84.4216 0.0000 0.0000 0.0000
# 3 63.0768 84.4216 183.4041 0.0000 0.0000 0.0000
# 4 0.0000 0.0000 0.0000 33.1861 0.0000 0.0000
# 5 0.0000 0.0000 0.0000 0.0000 -361.7287 0.0000
# 6 0.0000 0.0000 0.0000 0.0000 0.0000 29.1520
#
#
#
# Elastic Compliance Matrix: (Units=1/GPa)
#
#
# Indices 1 2 3 4 5 6 
#
# 1 0.032063 -0.005214 -0.008627 0.000000 0.000000 0.000000
# 2 -0.005214 0.013245 -0.004304 0.000000 0.000000 0.000000
# 3 -0.008627 -0.004304 0.010400 0.000000 0.000000 0.000000
# 4 0.000000 0.000000 0.000000 0.030133 0.000000 0.000000
# 5 0.000000 0.000000 0.000000 0.000000 -0.002765 0.000000
# 6 0.000000 0.000000 0.000000 0.000000 0.000000 0.034303
#
#
# Mechanical properties :
#
#
# Convention : Reuss Voigt Hill
#
# Bulk Modulus (GPa) = 51.49638 81.91591 66.70614
# Shear Modulus (GPa) = 31.22225 -48.65871 -8.71823
#
# Velocity S-wave (km/s) = 4.16222 -5.19605 -2.19942
# Velocity P-wave (km/s) = 7.18835 3.07467 5.52838
#
# Compressibility (1/GPa) = 0.01941884
#
# Stress axis : x y z
#
# Youngs Moduli (GPa) = 31.18903 75.49829 96.15030
#
# Poissons Ratio (x) = 0.39366 0.82948
# Poissons Ratio (y) = 0.16263 0.41379
# Poissons Ratio (z) = 0.26906 0.32491
#
# Static dielectric constant tensor:
#      x y z
#    x 1.594630 0.000000 0.000000 
#    y 0.000000 1.714580 0.000000 
#    z 0.000000 0.000000 1.639010 
# 
# From -- ./inp_files/45940.got.cif
#   From: 2010.05.17/outbox.cif.g08.bks.cpg/sg67_23_cif.got.tgz:45940.got - 2010.06.03 18:28:57.
