data_PCOD9504238
_publ_section_title
;
Structure prediction by ZEFSAII (Michael W. Deem and Ramdas Pophale) SiO2 
 PCOD9504238
Probable space group: C M M A
;
_chemical_formula_sum "Si O2"
_cell_formula_units_Z 96
_cell_length_a 20.436956
_cell_length_b 26.326266
_cell_length_c 9.477714
_cell_angle_alpha 90.000000
_cell_angle_beta 90.000000
_cell_angle_gamma 90.000000
_cell_volume 5099.282520
_symmetry_space_group_name_H-M "C M M A"
_symmetry_group_IT_number 67
_symmetry_cell_setting 'orthorhombic'
loop_
_space_group_symop_operation_xyz
x,y,z
-x,1/2-y,z
x,-y,-z
-x,1/2+y,-z
-x,-y,-z
x,1/2+y,-z
-x,y,z
x,1/2-y,z
1/2+x,1/2+y,z
1/2-x,-y,z
1/2+x,1/2-y,-z
1/2-x,y,-z
1/2-x,1/2-y,-z
1/2+x,y,-z
1/2-x,1/2+y,z
1/2+x,-y,z
loop_
_atom_site_type_symbol
_atom_site_label
_atom_site_fract_x
_atom_site_fract_y
_atom_site_fract_z
Si Si1 0.816047 0.689647 0.586557
Si Si2 0.574437 0.522891 0.656359
Si Si3 0.576767 0.189808 0.085786
Si Si4 0.422341 0.140794 0.388959
Si Si5 0.189424 0.144800 0.102895
Si Si6 0.816265 0.524832 0.846188
O O1 0.827028 0.750000 0.576468
O O2 0.750000 0.677236 0.500000
O O3 0.876633 0.660855 0.513666
O O4 0.807454 0.673881 0.748842
O O5 0.575522 0.500000 0.500000
O O6 0.500000 0.520073 0.710618
O O7 0.592783 0.582190 0.646894
O O8 0.623186 0.491215 0.751704
O O9 0.500000 0.179349 0.058091
O O10 0.587962 0.250000 0.070691
O O11 0.589832 0.173160 0.247100
O O12 0.623824 0.159813 0.980710
O O13 0.500000 0.144061 0.423444
O O14 0.190877 0.084881 0.136090
O O15 0.250000 0.157327 0.000000
O O16 0.750000 0.500000 0.785378
O O17 0.824735 0.500000 0.000000
#
# Coordination Sequence:
#
# PCOD9504238 Si02
#       6
#    16  16  16  16  16  16
#     4  11  25  40  59  89 122 161 208 256 309 368
#     4  10  22  40  62  92 125 159 204 252 305 370
#     4  10  22  40  64  93 123 161 209 255 309 376
#     4  10  21  40  66  92 124 164 203 252 311 371
#     4  12  24  41  63  88 125 165 206 262 313 370
#     4  11  23  40  61  91 125 160 209 255 304 369
#
# _framework density 18.826177999999999
#
# number of rings (size 3 to 8) (size 9 to 14) (size 15 to 20)
#    0.000    1.333    1.667    4.000    2.333    5.667 
#    0.000    0.000    0.000    0.000    0.000    0.000 
#    0.000    0.000    0.000    0.000    0.000    0.000 
#
# Total GULP energy -268357.898965 kJ/mol
# GULP energy per Si atom -5590.789562 kJ/mol
# Density = 1.878333 g / cm^3
# Si number density = 18.826178 Si / 1000 Ang^3
#
#
#
# Elastic Constant Matrix: (Units=GPa)
#
#
# Indices 1 2 3 4 5 6 
#
# 1 82.5741 29.1971 54.5298 0.0000 0.0000 0.0000
# 2 29.1971 48.6233 9.4948 0.0000 0.0000 0.0000
# 3 54.5298 9.4948 87.0895 0.0000 0.0000 0.0000
# 4 0.0000 0.0000 0.0000 23.2957 0.0000 0.0000
# 5 0.0000 0.0000 0.0000 0.0000 44.4149 0.0000
# 6 0.0000 0.0000 0.0000 0.0000 0.0000 32.9105
#
#
#
# Elastic Compliance Matrix: (Units=1/GPa)
#
#
# Indices 1 2 3 4 5 6 
#
# 1 0.026976 -0.013181 -0.015454 0.000000 0.000000 0.000000
# 2 -0.013181 0.027454 0.005260 0.000000 0.000000 0.000000
# 3 -0.015454 0.005260 0.020585 0.000000 0.000000 0.000000
# 4 0.000000 0.000000 0.000000 0.042926 0.000000 0.000000
# 5 0.000000 0.000000 0.000000 0.000000 0.022515 0.000000
# 6 0.000000 0.000000 0.000000 0.000000 0.000000 0.030385
#
#
# Mechanical properties :
#
#
# Convention : Reuss Voigt Hill
#
# Bulk Modulus (GPa) = 35.37837 44.97003 40.17420
# Shear Modulus (GPa) = 22.02515 28.46191 25.24353
#
# Velocity S-wave (km/s) = 3.42412 3.89244 3.66577
# Velocity P-wave (km/s) = 5.87075 6.64381 6.26921
#
# Compressibility (1/GPa) = 0.02826586
#
# Stress axis : x y z
#
# Youngs Moduli (GPa) = 37.06982 36.42466 48.57882
#
# Poissons Ratio (x) = 0.48011 0.75072
# Poissons Ratio (y) = 0.48861 -0.25552
# Poissons Ratio (z) = 0.57287 -0.19159
#
# Static dielectric constant tensor:
#      x y z
#    x 1.656600 0.000000 0.000000 
#    y 0.000000 1.631280 0.000000 
#    z 0.000000 0.000000 1.612290 
# 
# From -- ./inp_files/11448.got.cif
#   From: 2010.05.17/outbox.cif.g08.bks.cpg/sg67_6_cif.got.tgz:11448.got - 2010.06.03 18:28:57.
