data_PCOD9504414
_publ_section_title
;
Structure prediction by ZEFSAII (Michael W. Deem and Ramdas Pophale) SiO2 
 PCOD9504414
Probable space group: C M M A
;
_chemical_formula_sum "Si O2"
_cell_formula_units_Z 88
_cell_length_a 9.463099
_cell_length_b 20.875098
_cell_length_c 24.001846
_cell_angle_alpha 90.000000
_cell_angle_beta 90.000000
_cell_angle_gamma 90.000000
_cell_volume 4741.399521
_symmetry_space_group_name_H-M "C M M A"
_symmetry_group_IT_number 67
_symmetry_cell_setting 'orthorhombic'
loop_
_space_group_symop_operation_xyz
x,y,z
-x,1/2-y,z
x,-y,-z
-x,1/2+y,-z
-x,-y,-z
x,1/2+y,-z
-x,y,z
x,1/2-y,z
1/2+x,1/2+y,z
1/2-x,-y,z
1/2+x,1/2-y,-z
1/2-x,y,-z
1/2-x,1/2-y,-z
1/2+x,y,-z
1/2-x,1/2+y,z
1/2+x,-y,z
loop_
_atom_site_type_symbol
_atom_site_label
_atom_site_fract_x
_atom_site_fract_y
_atom_site_fract_z
Si Si1 0.500000 0.405480 0.950295
Si Si2 0.672082 0.173452 0.243075
Si Si3 0.267357 0.865805 0.880143
Si Si4 0.000000 0.554437 0.076287
Si Si5 0.832354 0.567913 0.550944
Si Si6 0.829619 0.430191 0.320763
Si Si7 0.642577 0.750000 0.951288
O O1 0.631924 0.375527 0.918606
O O2 0.500000 0.480698 0.937670
O O3 0.500000 0.405999 0.017565
O O4 0.500000 0.163712 0.240716
O O5 0.694275 0.250000 0.253917
O O6 0.741793 0.154733 0.183602
O O7 0.747514 0.124161 0.285556
O O8 0.363652 0.927932 0.887899
O O9 0.347909 0.809152 0.910673
O O10 0.750000 0.500000 0.554423
O O11 0.750000 0.602427 0.500000
O O12 0.821015 0.591631 0.614308
O O13 0.000000 0.561568 0.538445
O O14 0.750000 0.500000 0.314410
O O15 0.000000 0.436049 0.307661
O O16 0.500000 0.750000 0.984678
O O17 0.750000 0.750000 0.000000
#
# Coordination Sequence:
#
# PCOD9504414 Si02
#       7
#     8  16  16   8  16  16   8
#     4  11  26  39  63  95 117 152 192 233 300 369
#     4  11  24  45  64  83 119 165 209 256 314 372
#     4  12  24  42  63  86 117 153 194 241 298 361
#     4  11  22  45  63  85 125 154 186 237 298 367
#     4   9  16  28  51  86 127 164 202 246 298 349
#     4  10  22  39  62  95 129 165 208 257 304 358
#     4  12  24  40  64  88 114 146 189 246 301 358
#
# _framework density 18.559922
#
# number of rings (size 3 to 8) (size 9 to 14) (size 15 to 20)
#    0.000    1.273    2.727    3.818    2.545    5.455 
#    0.000    0.000    0.000    0.545    0.000    0.000 
#    0.000    0.000    0.000    0.000    0.000    0.000 
#
# Total GULP energy -245029.353773 kJ/mol
# GULP energy per Si atom -5568.848949 kJ/mol
# Density = 1.851768 g / cm^3
# Si number density = 18.559922 Si / 1000 Ang^3
#
#
#
# Elastic Constant Matrix: (Units=GPa)
#
#
# Indices 1 2 3 4 5 6 
#
# 1 122.1455 36.2281 44.2334 0.0000 0.0000 0.0000
# 2 36.2281 92.0959 50.2306 0.0000 0.0000 0.0000
# 3 44.2334 50.2306 128.5243 0.0000 0.0000 0.0000
# 4 0.0000 0.0000 0.0000 14.2902 0.0000 0.0000
# 5 0.0000 0.0000 0.0000 0.0000 -6.9238 0.0000
# 6 0.0000 0.0000 0.0000 0.0000 0.0000 23.0319
#
#
#
# Elastic Compliance Matrix: (Units=1/GPa)
#
#
# Indices 1 2 3 4 5 6 
#
# 1 0.009807 -0.002563 -0.002373 0.000000 0.000000 0.000000
# 2 -0.002563 0.014470 -0.004773 0.000000 0.000000 0.000000
# 3 -0.002373 -0.004773 0.010463 0.000000 0.000000 0.000000
# 4 0.000000 0.000000 0.000000 0.069978 0.000000 0.000000
# 5 0.000000 0.000000 0.000000 0.000000 -0.144430 0.000000
# 6 0.000000 0.000000 0.000000 0.000000 0.000000 0.043418
#
#
# Mechanical properties :
#
#
# Convention : Reuss Voigt Hill
#
# Bulk Modulus (GPa) = 65.27320 67.12778 66.20049
# Shear Modulus (GPa) = 177.11000 20.21790 98.66395
#
# Velocity S-wave (km/s) = 9.77922 3.30408 7.29898
# Velocity P-wave (km/s) = 12.75759 7.12759 10.33341
#
# Compressibility (1/GPa) = 0.01532022
#
# Stress axis : x y z
#
# Youngs Moduli (GPa) = 101.97127 69.10930 95.57616
#
# Poissons Ratio (x) = 0.17714 0.22683
# Poissons Ratio (y) = 0.26138 0.45619
# Poissons Ratio (z) = 0.24201 0.32986
#
# Static dielectric constant tensor:
#      x y z
#    x 1.655000 0.000000 0.000000 
#    y 0.000000 1.663310 0.000000 
#    z 0.000000 0.000000 1.659890 
# 
# From -- ./inp_files/40716.got.cif
#   From: 2010.05.17/outbox.cif.g08.bks.cpg/sg67_21_cif.got.tgz:40716.got - 2010.06.03 18:28:57.
