data_PCOD9504012
_publ_section_title
;
Structure prediction by ZEFSAII (Michael W. Deem and Ramdas Pophale) SiO2 
 PCOD9504012
Probable space group: C M M A
;
_chemical_formula_sum "Si O2"
_cell_formula_units_Z 72
_cell_length_a 10.656245
_cell_length_b 14.426630
_cell_length_c 24.068873
_cell_angle_alpha 90.000000
_cell_angle_beta 90.000000
_cell_angle_gamma 90.000000
_cell_volume 3700.196993
_symmetry_space_group_name_H-M "C M M A"
_symmetry_group_IT_number 67
_symmetry_cell_setting 'orthorhombic'
loop_
_space_group_symop_operation_xyz
x,y,z
-x,1/2-y,z
x,-y,-z
-x,1/2+y,-z
-x,-y,-z
x,1/2+y,-z
-x,y,z
x,1/2-y,z
1/2+x,1/2+y,z
1/2-x,-y,z
1/2+x,1/2-y,-z
1/2-x,y,-z
1/2-x,1/2-y,-z
1/2+x,y,-z
1/2-x,1/2+y,z
1/2+x,-y,z
loop_
_atom_site_type_symbol
_atom_site_label
_atom_site_fract_x
_atom_site_fract_y
_atom_site_fract_z
Si Si1 0.140802 0.430953 0.879008
Si Si2 0.358221 0.136928 0.541829
Si Si3 0.141328 0.861983 0.246804
Si Si4 0.641539 0.362994 0.669276
Si Si5 0.360165 0.250000 0.044383
O O1 0.250000 0.500000 0.895732
O O2 0.157192 0.403624 0.814428
O O3 0.148317 0.339258 0.916100
O O4 0.000000 0.470418 0.885362
O O5 0.500000 0.109308 0.525677
O O6 0.356875 0.250000 0.541823
O O7 0.250000 0.106453 0.500000
O O8 0.335864 0.107785 0.605586
O O9 0.148229 0.750000 0.241616
O O10 0.249862 0.892196 0.288808
O O11 0.000000 0.884063 0.266757
O O12 0.500000 0.391294 0.685676
O O13 0.642396 0.250000 0.669085
O O14 0.500000 0.250000 0.018399
O O15 0.250000 0.250000 0.000000
#
# Coordination Sequence:
#
# PCOD9504012 Si02
#       5
#    16  16  16  16   8
#     4  10  21  38  59  84 115 149 185 228 274 321
#     4   8  13  20  29  44  73 113 156 204 257 309
#     4   9  16  29  49  70  96 133 173 214 264 319
#     4   8  14  23  35  56  86 120 161 212 265 314
#     4  10  22  42  64  86 118 154 187 226 271 318
#
# _framework density 19.458424000000001
#
# number of rings (size 3 to 8) (size 9 to 14) (size 15 to 20)
#    0.000    3.111    1.111    1.333    0.000    3.111 
#    0.000    6.667    0.000    0.000    0.000    0.000 
#    0.000    0.889    0.000    9.778    0.000   16.000 
#
# Total GULP energy -200893.153503 kJ/mol
# GULP energy per Si atom -5580.365375 kJ/mol
# Density = 1.941414 g / cm^3
# Si number density = 19.458424 Si / 1000 Ang^3
#
#
#
# Elastic Constant Matrix: (Units=GPa)
#
#
# Indices 1 2 3 4 5 6 
#
# 1 196.0582 43.2074 96.0387 0.0000 0.0000 0.0000
# 2 43.2074 63.1874 6.3046 0.0000 0.0000 0.0000
# 3 96.0387 6.3046 77.6746 0.0000 0.0000 0.0000
# 4 0.0000 0.0000 0.0000 -17.2724 0.0000 0.0000
# 5 0.0000 0.0000 0.0000 0.0000 42.1650 0.0000
# 6 0.0000 0.0000 0.0000 0.0000 0.0000 11.6251
#
#
#
# Elastic Compliance Matrix: (Units=1/GPa)
#
#
# Indices 1 2 3 4 5 6 
#
# 1 0.017450 -0.009860 -0.020776 0.000000 0.000000 0.000000
# 2 -0.009860 0.021526 0.010443 0.000000 0.000000 0.000000
# 3 -0.020776 0.010443 0.037714 0.000000 0.000000 0.000000
# 4 0.000000 0.000000 0.000000 -0.057896 0.000000 0.000000
# 5 0.000000 0.000000 0.000000 0.000000 0.023716 0.000000
# 6 0.000000 0.000000 0.000000 0.000000 0.000000 0.086021
#
#
# Mechanical properties :
#
#
# Convention : Reuss Voigt Hill
#
# Bulk Modulus (GPa) = 27.54322 69.78019 48.66170
# Shear Modulus (GPa) = 27.62167 20.06152 23.84159
#
# Velocity S-wave (km/s) = 3.77174 3.21439 3.50417
# Velocity P-wave (km/s) = 5.75792 7.05092 6.43697
#
# Compressibility (1/GPa) = 0.03630658
#
# Stress axis : x y z
#
# Youngs Moduli (GPa) = 57.30554 46.45574 26.51525
#
# Poissons Ratio (x) = 0.45803 0.55087
# Poissons Ratio (y) = 0.56501 -0.27691
# Poissons Ratio (z) = 1.19056 -0.48516
#
# Static dielectric constant tensor:
#      x y z
#    x 1.680690 0.000000 0.000000 
#    y 0.000000 1.730170 0.000000 
#    z 0.000000 0.000000 1.639330 
# 
# From -- ./inp_files/42107.got.cif
#   From: 2010.05.17/outbox.cif.g08.bks.cpg/sg67_22_cif.got.tgz:42107.got - 2010.06.03 18:28:57.
