data_PCOD9504862
_publ_section_title
;
Structure prediction by ZEFSAII (Michael W. Deem and Ramdas Pophale) SiO2 
 PCOD9504862
Probable space group: C M M A
;
_chemical_formula_sum "Si O2"
_cell_formula_units_Z 88
_cell_length_a 23.563111
_cell_length_b 15.577343
_cell_length_c 11.821427
_cell_angle_alpha 90.000000
_cell_angle_beta 90.000000
_cell_angle_gamma 90.000000
_cell_volume 4339.062608
_symmetry_space_group_name_H-M "C M M A"
_symmetry_group_IT_number 67
_symmetry_cell_setting 'orthorhombic'
loop_
_space_group_symop_operation_xyz
x,y,z
-x,1/2-y,z
x,-y,-z
-x,1/2+y,-z
-x,-y,-z
x,1/2+y,-z
-x,y,z
x,1/2-y,z
1/2+x,1/2+y,z
1/2-x,-y,z
1/2+x,1/2-y,-z
1/2-x,y,-z
1/2-x,1/2-y,-z
1/2+x,y,-z
1/2-x,1/2+y,z
1/2+x,-y,z
loop_
_atom_site_type_symbol
_atom_site_label
_atom_site_fract_x
_atom_site_fract_y
_atom_site_fract_z
Si Si1 0.611349 0.500000 0.500000
Si Si2 0.368389 0.848121 0.901156
Si Si3 0.758390 0.898271 0.203101
Si Si4 0.129285 0.154071 0.167734
Si Si5 0.566284 0.487439 0.252823
Si Si6 0.189097 0.845962 0.442202
O O1 0.576143 0.479582 0.387364
O O2 0.651933 0.416378 0.507236
O O3 0.379194 0.750000 0.864674
O O4 0.301237 0.867355 0.893127
O O5 0.401677 0.915253 0.822052
O O6 0.381983 0.855406 0.033540
O O7 0.696296 0.857144 0.195125
O O8 0.794121 0.875235 0.315877
O O9 0.750000 0.000000 0.198556
O O10 0.112451 0.250000 0.203052
O O11 0.094565 0.078387 0.224416
O O12 0.500000 0.485277 0.226097
O O13 0.163740 0.750000 0.441212
O O14 0.250000 0.841663 0.500000
#
# Coordination Sequence:
#
# PCOD9504862 Si02
#       6
#     8  16  16  16  16  16
#     4  12  24  44  66  92 126 173 229 276 334 388
#     4  11  24  43  68 100 135 173 216 268 333 405
#     4  12  21  37  65 103 139 171 209 259 327 406
#     4  11  24  42  68 101 137 173 215 268 332 403
#     4  12  27  46  68  93 127 175 234 287 331 382
#     4  11  22  36  61  96 136 174 210 260 325 401
#
# _framework density 20.280878000000001
#
# number of rings (size 3 to 8) (size 9 to 14) (size 15 to 20)
#    0.000    0.545    3.636    5.455    0.000    6.545 
#    0.000    1.818    0.000    3.273    0.000    0.000 
#    0.000    0.000    0.000    0.000    0.000    0.000 
#
# Total GULP energy -245993.531863 kJ/mol
# GULP energy per Si atom -5590.762088 kJ/mol
# Density = 2.023472 g / cm^3
# Si number density = 20.280878 Si / 1000 Ang^3
#
#
#
# Elastic Constant Matrix: (Units=GPa)
#
#
# Indices 1 2 3 4 5 6 
#
# 1 114.3754 38.8317 5.4494 0.0000 0.0000 0.0000
# 2 38.8317 146.8795 14.2779 0.0000 0.0000 0.0000
# 3 5.4494 14.2779 28.3286 0.0000 0.0000 0.0000
# 4 0.0000 0.0000 0.0000 27.4270 0.0000 0.0000
# 5 0.0000 0.0000 0.0000 0.0000 12.6036 0.0000
# 6 0.0000 0.0000 0.0000 0.0000 0.0000 -16.9134
#
#
#
# Elastic Compliance Matrix: (Units=1/GPa)
#
#
# Indices 1 2 3 4 5 6 
#
# 1 0.009615 -0.002484 -0.000598 0.000000 0.000000 0.000000
# 2 -0.002484 0.007801 -0.003454 0.000000 0.000000 0.000000
# 3 -0.000598 -0.003454 0.037156 0.000000 0.000000 0.000000
# 4 0.000000 0.000000 0.000000 0.036460 0.000000 0.000000
# 5 0.000000 0.000000 0.000000 0.000000 0.079342 0.000000
# 6 0.000000 0.000000 0.000000 0.000000 0.000000 -0.059125
#
#
# Mechanical properties :
#
#
# Convention : Reuss Voigt Hill
#
# Bulk Modulus (GPa) = 24.09601 45.18906 34.64254
# Shear Modulus (GPa) = 36.19156 20.02507 28.10832
#
# Velocity S-wave (km/s) = 4.22894 3.14568 3.72688
# Velocity P-wave (km/s) = 5.97931 5.96018 5.96975
#
# Compressibility (1/GPa) = 0.04150064
#
# Stress axis : x y z
#
# Youngs Moduli (GPa) = 104.00509 128.19319 26.91372
#
# Poissons Ratio (x) = 0.31842 0.01609
# Poissons Ratio (y) = 0.25834 0.09296
# Poissons Ratio (z) = 0.06216 0.44276
#
# Static dielectric constant tensor:
#      x y z
#    x 1.695130 0.000000 0.000000 
#    y 0.000000 1.718380 0.000000 
#    z 0.000000 0.000000 1.836680 
# 
# From -- ./inp_files/22817.got.cif
#   From: 2010.05.17/outbox.cif.g08.bks.cpg/sg67_12_cif.got.tgz:22817.got - 2010.06.03 18:28:57.
