data_PCOD9504714
_publ_section_title
;
Structure prediction by ZEFSAII (Michael W. Deem and Ramdas Pophale) SiO2 
 PCOD9504714
Probable space group: C M M A
;
_chemical_formula_sum "Si O2"
_cell_formula_units_Z 96
_cell_length_a 14.448415
_cell_length_b 27.159004
_cell_length_c 15.861519
_cell_angle_alpha 90.000000
_cell_angle_beta 90.000000
_cell_angle_gamma 90.000000
_cell_volume 6224.132396
_symmetry_space_group_name_H-M "C M M A"
_symmetry_group_IT_number 67
_symmetry_cell_setting 'orthorhombic'
loop_
_space_group_symop_operation_xyz
x,y,z
-x,1/2-y,z
x,-y,-z
-x,1/2+y,-z
-x,-y,-z
x,1/2+y,-z
-x,y,z
x,1/2-y,z
1/2+x,1/2+y,z
1/2-x,-y,z
1/2+x,1/2-y,-z
1/2-x,y,-z
1/2-x,1/2-y,-z
1/2+x,y,-z
1/2-x,1/2+y,z
1/2+x,-y,z
loop_
_atom_site_type_symbol
_atom_site_label
_atom_site_fract_x
_atom_site_fract_y
_atom_site_fract_z
Si Si1 0.611399 0.305753 0.601007
Si Si2 0.394644 0.453825 0.557674
Si Si3 0.604345 0.359742 0.435296
Si Si4 0.750656 0.440392 0.142114
Si Si5 0.273234 0.392067 0.677670
Si Si6 0.104044 0.559541 0.001730
O O1 0.500000 0.310206 0.606470
O O2 0.638494 0.250000 0.621383
O O3 0.634337 0.318340 0.503012
O O4 0.657196 0.346450 0.661097
O O5 0.369084 0.500000 0.500000
O O6 0.500000 0.461907 0.591656
O O7 0.399558 0.407742 0.494757
O O8 0.320237 0.437740 0.626963
O O9 0.500000 0.349413 0.404394
O O10 0.678510 0.373061 0.364842
O O11 0.750000 0.500000 0.156603
O O12 0.757460 0.410564 0.228172
O O13 0.660488 0.427815 0.086121
O O14 0.836468 0.427603 0.080677
O O15 0.000000 0.578767 0.000534
O O16 0.100801 0.500000 0.000000
#
# Coordination Sequence:
#
# PCOD9504714 Si02
#       6
#    16  16  16  16  16  16
#     4   9  18  34  52  68  91 124 166 212 248 278
#     4   9  18  30  41  57  88 127 162 190 225 278
#     4   9  19  31  41  61  89 123 164 197 229 274
#     4   9  19  30  43  72  98 119 158 195 231 288
#     4  11  20  28  47  71  94 124 157 204 239 288
#     4   8  15  32  51  63  88 126 158 193 236 281
#
# _framework density 15.423837000000001
#
# number of rings (size 3 to 8) (size 9 to 14) (size 15 to 20)
#    0.000    2.833    0.000    4.500    2.333    4.000 
#    0.000    0.000    0.000    0.000    0.000    2.333 
#    0.000    1.333    0.000    0.000    0.000    0.000 
#
# Total GULP energy -267289.126793 kJ/mol
# GULP energy per Si atom -5568.523475 kJ/mol
# Density = 1.538873 g / cm^3
# Si number density = 15.423837 Si / 1000 Ang^3
#
#
#
# Elastic Constant Matrix: (Units=GPa)
#
#
# Indices 1 2 3 4 5 6 
#
# 1 111.0614 26.1658 63.8927 0.0000 0.0000 0.0000
# 2 26.1658 62.2301 43.3963 0.0000 0.0000 0.0000
# 3 63.8927 43.3963 119.2728 0.0000 0.0000 0.0000
# 4 0.0000 0.0000 0.0000 17.3655 0.0000 0.0000
# 5 0.0000 0.0000 0.0000 0.0000 2.9243 0.0000
# 6 0.0000 0.0000 0.0000 0.0000 0.0000 11.5936
#
#
#
# Elastic Compliance Matrix: (Units=1/GPa)
#
#
# Indices 1 2 3 4 5 6 
#
# 1 0.013046 -0.000820 -0.006690 0.000000 0.000000 0.000000
# 2 -0.000820 0.021584 -0.007414 0.000000 0.000000 0.000000
# 3 -0.006690 -0.007414 0.014666 0.000000 0.000000 0.000000
# 4 0.000000 0.000000 0.000000 0.057585 0.000000 0.000000
# 5 0.000000 0.000000 0.000000 0.000000 0.341964 0.000000
# 6 0.000000 0.000000 0.000000 0.000000 0.000000 0.086255
#
#
# Mechanical properties :
#
#
# Convention : Reuss Voigt Hill
#
# Bulk Modulus (GPa) = 51.42064 62.16375 56.79219
# Shear Modulus (GPa) = 8.74996 16.98397 12.86696
#
# Velocity S-wave (km/s) = 2.38439 3.32196 2.89143
# Velocity P-wave (km/s) = 6.40244 7.42328 6.93168
#
# Compressibility (1/GPa) = 0.01944744
#
# Stress axis : x y z
#
# Youngs Moduli (GPa) = 76.65155 46.32990 68.18722
#
# Poissons Ratio (x) = 0.03799 0.45619
# Poissons Ratio (y) = 0.06286 0.50554
# Poissons Ratio (z) = 0.51282 0.34349
#
# Static dielectric constant tensor:
#      x y z
#    x 1.573420 0.000000 0.000000 
#    y 0.000000 1.524800 0.000000 
#    z 0.000000 0.000000 1.485790 
# 
# From -- ./inp_files/27793.got.cif
#   From: 2010.05.17/outbox.cif.g08.bks.cpg/sg67_14_cif.got.tgz:27793.got - 2010.06.03 18:28:57.
