data_PCOD9504968
_publ_section_title
;
Structure prediction by ZEFSAII (Michael W. Deem and Ramdas Pophale) SiO2 
 PCOD9504968
Probable space group: C M M A
;
_chemical_formula_sum "Si O2"
_cell_formula_units_Z 48
_cell_length_a 20.376775
_cell_length_b 16.491592
_cell_length_c 6.888189
_cell_angle_alpha 90.000000
_cell_angle_beta 90.000000
_cell_angle_gamma 90.000000
_cell_volume 2314.744638
_symmetry_space_group_name_H-M "C M M A"
_symmetry_group_IT_number 67
_symmetry_cell_setting 'orthorhombic'
loop_
_space_group_symop_operation_xyz
x,y,z
-x,1/2-y,z
x,-y,-z
-x,1/2+y,-z
-x,-y,-z
x,1/2+y,-z
-x,y,z
x,1/2-y,z
1/2+x,1/2+y,z
1/2-x,-y,z
1/2+x,1/2-y,-z
1/2-x,y,-z
1/2-x,1/2-y,-z
1/2+x,y,-z
1/2-x,1/2+y,z
1/2+x,-y,z
loop_
_atom_site_type_symbol
_atom_site_label
_atom_site_fract_x
_atom_site_fract_y
_atom_site_fract_z
Si Si1 0.636682 0.750000 0.498173
Si Si2 0.642803 0.383254 0.178664
Si Si3 0.180618 0.250000 0.098956
Si Si4 0.500000 0.750000 0.239795
Si Si5 0.750000 0.000000 0.000000
Si Si6 0.500000 0.907135 0.936440
O O1 0.650365 0.673160 0.634427
O O2 0.687264 0.750000 0.324391
O O3 0.565158 0.750000 0.382981
O O4 0.700174 0.448064 0.136796
O O5 0.645478 0.328488 0.983985
O O6 0.566711 0.405508 0.186720
O O7 0.250000 0.250000 0.000000
O O8 0.500000 0.831462 0.096748
O O9 0.500000 0.000000 0.000000
#
# Coordination Sequence:
#
# PCOD9504968 Si02
#       6
#     8  16   8   4   4   8
#     4  11  24  43  77 106 137 193 251 303 366 452
#     4  11  24  44  72 100 144 188 243 301 371 438
#     4  11  22  44  70  96 136 186 239 298 358 438
#     4  12  22  46  78 106 148 184 250 312 376 438
#     4  12  24  48  66 100 154 192 232 314 372 444
#     4  12  23  45  77 104 146 197 238 316 378 431
#
# _framework density 20.736630000000002
#
# number of rings (size 3 to 8) (size 9 to 14) (size 15 to 20)
#    0.000    0.667    6.667    2.000    0.000    2.667 
#    0.000   10.000    0.000    0.000    0.000    0.000 
#    0.000    0.000    0.000    0.000    0.000    0.000 
#
# Total GULP energy -133608.707922 kJ/mol
# GULP energy per Si atom -5567.029497 kJ/mol
# Density = 2.068943 g / cm^3
# Si number density = 20.736630 Si / 1000 Ang^3
#
#
#
# Elastic Constant Matrix: (Units=GPa)
#
#
# Indices 1 2 3 4 5 6 
#
# 1 185.9136 51.1219 55.9107 0.0000 0.0000 0.0000
# 2 51.1219 116.2608 58.1870 0.0000 0.0000 0.0000
# 3 55.9107 58.1870 152.6068 0.0000 0.0000 0.0000
# 4 0.0000 0.0000 0.0000 172.3624 0.0000 0.0000
# 5 0.0000 0.0000 0.0000 0.0000 36.1127 0.0000
# 6 0.0000 0.0000 0.0000 0.0000 0.0000 577.2028
#
#
#
# Elastic Compliance Matrix: (Units=1/GPa)
#
#
# Indices 1 2 3 4 5 6 
#
# 1 0.006411 -0.002031 -0.001574 0.000000 0.000000 0.000000
# 2 -0.002031 0.011273 -0.003554 0.000000 0.000000 0.000000
# 3 -0.001574 -0.003554 0.008485 0.000000 0.000000 0.000000
# 4 0.000000 0.000000 0.000000 0.005802 0.000000 0.000000
# 5 0.000000 0.000000 0.000000 0.000000 0.027691 0.000000
# 6 0.000000 0.000000 0.000000 0.000000 0.000000 0.001732
#
#
# Mechanical properties :
#
#
# Convention : Reuss Voigt Hill
#
# Bulk Modulus (GPa) = 84.39066 87.24671 85.81869
# Shear Modulus (GPa) = 62.76428 176.43970 119.60199
#
# Velocity S-wave (km/s) = 5.50755 9.23421 7.60276
# Velocity P-wave (km/s) = 9.01270 12.48436 10.88780
#
# Compressibility (1/GPa) = 0.01184965
#
# Stress axis : x y z
#
# Youngs Moduli (GPa) = 155.98743 88.70541 117.85832
#
# Poissons Ratio (x) = 0.18016 0.18555
# Poissons Ratio (y) = 0.31681 0.41890
# Poissons Ratio (z) = 0.24558 0.31528
#
# Static dielectric constant tensor:
#      x y z
#    x 1.852350 0.000000 0.000000 
#    y 0.000000 1.737820 0.000000 
#    z 0.000000 0.000000 1.711390 
# 
# From -- ./inp_files/1918.got.cif
#   From: 2010.05.17/outbox.cif.g08.bks.cpg/sg67_1_cif.got.tgz:1918.got - 2010.06.03 18:28:57.
