data_PCOD9504180
_publ_section_title
;
Structure prediction by ZEFSAII (Michael W. Deem and Ramdas Pophale) SiO2 
 PCOD9504180
Probable space group: C M M A
;
_chemical_formula_sum "Si O2"
_cell_formula_units_Z 56
_cell_length_a 14.415322
_cell_length_b 14.467133
_cell_length_c 13.238920
_cell_angle_alpha 90.000000
_cell_angle_beta 90.000000
_cell_angle_gamma 90.000000
_cell_volume 2760.955327
_symmetry_space_group_name_H-M "C M M A"
_symmetry_group_IT_number 67
_symmetry_cell_setting 'orthorhombic'
loop_
_space_group_symop_operation_xyz
x,y,z
-x,1/2-y,z
x,-y,-z
-x,1/2+y,-z
-x,-y,-z
x,1/2+y,-z
-x,y,z
x,1/2-y,z
1/2+x,1/2+y,z
1/2-x,-y,z
1/2+x,1/2-y,-z
1/2-x,y,-z
1/2-x,1/2-y,-z
1/2+x,y,-z
1/2-x,1/2+y,z
1/2+x,-y,z
loop_
_atom_site_type_symbol
_atom_site_label
_atom_site_fract_x
_atom_site_fract_y
_atom_site_fract_z
Si Si1 0.500000 0.750000 0.339949
Si Si2 0.642434 0.750000 0.022308
Si Si3 0.000000 0.750000 0.164626
Si Si4 0.139741 0.250000 0.519348
Si Si5 0.853101 0.455201 0.102035
Si Si6 0.500000 0.453228 0.735966
Si Si7 0.500000 0.374336 0.362902
O O1 0.589932 0.750000 0.411389
O O2 0.500000 0.655294 0.280366
O O3 0.631571 0.654494 0.083674
O O4 0.750000 0.750000 0.000000
O O5 0.584982 0.750000 0.916601
O O6 0.000000 0.665993 0.246864
O O7 0.250000 0.250000 0.500000
O O8 0.091766 0.165496 0.581557
O O9 0.750000 0.500000 0.110399
O O10 0.910115 0.479975 0.199959
O O11 0.892012 0.500000 0.000000
O O12 0.500000 0.515816 0.637498
#
# Coordination Sequence:
#
# PCOD9504180 Si02
#       7
#     4   8   4   8  16   8   8
#     4  10  25  43  62  94 120 156 196 255 313 380
#     4  12  21  38  59  82 124 174 213 255 305 352
#     4  10  21  39  64  86 118 168 212 255 301 352
#     4   9  21  46  69  94 124 146 190 249 324 394
#     4  11  23  38  55  85 121 169 212 254 296 347
#     4  12  23  41  60  89 127 157 209 255 301 366
#     4   9  22  40  69  95 114 164 201 249 314 381
#
# _framework density 20.282834000000001
#
# number of rings (size 3 to 8) (size 9 to 14) (size 15 to 20)
#    0.000    1.714    2.857    3.857    0.000    4.571 
#    5.143    1.429    0.000    0.000    0.000    0.000 
#    0.000    0.000    0.000    0.000    0.000    0.000 
#
# Total GULP energy -156012.443252 kJ/mol
# GULP energy per Si atom -5571.872973 kJ/mol
# Density = 2.023667 g / cm^3
# Si number density = 20.282834 Si / 1000 Ang^3
#
#
#
# Elastic Constant Matrix: (Units=GPa)
#
#
# Indices 1 2 3 4 5 6 
#
# 1 170.2695 31.1086 65.4873 0.0000 0.0000 0.0000
# 2 31.1086 151.3488 28.0991 0.0000 0.0000 0.0000
# 3 65.4873 28.0991 81.8755 0.0000 0.0000 0.0000
# 4 0.0000 0.0000 0.0000 10.7831 0.0000 0.0000
# 5 0.0000 0.0000 0.0000 0.0000 24.5637 0.0000
# 6 0.0000 0.0000 0.0000 0.0000 0.0000 -12.2466
#
#
#
# Elastic Compliance Matrix: (Units=1/GPa)
#
#
# Indices 1 2 3 4 5 6 
#
# 1 0.008520 -0.000519 -0.006637 0.000000 0.000000 0.000000
# 2 -0.000519 0.007089 -0.002018 0.000000 0.000000 0.000000
# 3 -0.006637 -0.002018 0.018215 0.000000 0.000000 0.000000
# 4 0.000000 0.000000 0.000000 0.092738 0.000000 0.000000
# 5 0.000000 0.000000 0.000000 0.000000 0.040710 0.000000
# 6 0.000000 0.000000 0.000000 0.000000 0.000000 -0.081656
#
#
# Mechanical properties :
#
#
# Convention : Reuss Voigt Hill
#
# Bulk Modulus (GPa) = 64.61414 72.54266 68.57840
# Shear Modulus (GPa) = 45.82015 23.20662 34.51338
#
# Velocity S-wave (km/s) = 4.75811 3.38620 4.12953
# Velocity P-wave (km/s) = 7.88111 7.15064 7.52474
#
# Compressibility (1/GPa) = 0.01547649
#
# Stress axis : x y z
#
# Youngs Moduli (GPa) = 117.36401 141.07307 54.90128
#
# Poissons Ratio (x) = 0.07324 0.36437
# Poissons Ratio (y) = 0.06093 0.11076
# Poissons Ratio (z) = 0.77893 0.28462
#
# Static dielectric constant tensor:
#      x y z
#    x 1.702130 0.000000 0.000000 
#    y 0.000000 1.831670 0.000000 
#    z 0.000000 0.000000 1.707590 
# 
# From -- ./inp_files/17311.got.cif
#   From: 2010.05.17/outbox.cif.g08.bks.cpg/sg67_9_cif.got.tgz:17311.got - 2010.06.03 18:28:57.
