data_PCOD9504082
_publ_section_title
;
Structure prediction by ZEFSAII (Michael W. Deem and Ramdas Pophale) SiO2 
 PCOD9504082
Probable space group: C M M A
;
_chemical_formula_sum "Si O2"
_cell_formula_units_Z 64
_cell_length_a 20.129811
_cell_length_b 25.587016
_cell_length_c 5.256148
_cell_angle_alpha 90.000000
_cell_angle_beta 90.000000
_cell_angle_gamma 90.000000
_cell_volume 2707.241030
_symmetry_space_group_name_H-M "C M M A"
_symmetry_group_IT_number 67
_symmetry_cell_setting 'orthorhombic'
loop_
_space_group_symop_operation_xyz
x,y,z
-x,1/2-y,z
x,-y,-z
-x,1/2+y,-z
-x,-y,-z
x,1/2+y,-z
-x,y,z
x,1/2-y,z
1/2+x,1/2+y,z
1/2-x,-y,z
1/2+x,1/2-y,-z
1/2-x,y,-z
1/2-x,1/2-y,-z
1/2+x,y,-z
1/2-x,1/2+y,z
1/2+x,-y,z
loop_
_atom_site_type_symbol
_atom_site_label
_atom_site_fract_x
_atom_site_fract_y
_atom_site_fract_z
Si Si1 0.659620 0.691830 0.280191
Si Si2 0.927628 0.559943 0.920513
Si Si3 0.577581 0.837195 0.783961
Si Si4 0.286736 0.417628 0.746528
O O1 0.687671 0.750000 0.291737
O O2 0.611512 0.687252 0.034695
O O3 0.712821 0.645661 0.253525
O O4 0.616956 0.679659 0.533557
O O5 0.918322 0.600482 0.154369
O O6 0.863855 0.567800 0.747292
O O7 0.000000 0.573412 0.804910
O O8 0.928876 0.500000 0.000000
O O9 0.500000 0.823267 0.763651
O O10 0.250000 0.437177 0.500000
O O11 0.250000 0.435935 0.000000
#
# Coordination Sequence:
#
# PCOD9504082 Si02
#       4
#    16  16  16  16
#     4  11  23  39  61  90 126 171 218 265 320 382
#     4   9  20  43  72 100 132 173 219 269 328 390
#     4  10  21  38  61  93 131 167 211 267 323 385
#     4  11  24  44  66  95 133 171 216 269 324 386
#
# _framework density 23.640305000000001
#
# number of rings (size 3 to 8) (size 9 to 14) (size 15 to 20)
#    0.000    1.750    0.000    4.500    0.000    5.500 
#    0.000   16.250    0.000   34.500    0.000    0.000 
#    0.000    0.000    0.000    0.000    0.000    0.000 
#
# Total GULP energy -179167.554568 kJ/mol
# GULP energy per Si atom -5598.986080 kJ/mol
# Density = 2.358650 g / cm^3
# Si number density = 23.640305 Si / 1000 Ang^3
#
#
#
# Elastic Constant Matrix: (Units=GPa)
#
#
# Indices 1 2 3 4 5 6 
#
# 1 121.2067 6.5458 75.4368 0.0000 0.0000 0.0000
# 2 6.5458 128.7942 7.0840 0.0000 0.0000 0.0000
# 3 75.4368 7.0840 188.5535 0.0000 0.0000 0.0000
# 4 0.0000 0.0000 0.0000 3.7174 0.0000 0.0000
# 5 0.0000 0.0000 0.0000 0.0000 32.2769 0.0000
# 6 0.0000 0.0000 0.0000 0.0000 0.0000 -1.9583
#
#
#
# Elastic Compliance Matrix: (Units=1/GPa)
#
#
# Indices 1 2 3 4 5 6 
#
# 1 0.010999 -0.000318 -0.004388 0.000000 0.000000 0.000000
# 2 -0.000318 0.007790 -0.000166 0.000000 0.000000 0.000000
# 3 -0.004388 -0.000166 0.007066 0.000000 0.000000 0.000000
# 4 0.000000 0.000000 0.000000 0.269005 0.000000 0.000000
# 5 0.000000 0.000000 0.000000 0.000000 0.030982 0.000000
# 6 0.000000 0.000000 0.000000 0.000000 0.000000 -0.510653
#
#
# Mechanical properties :
#
#
# Convention : Reuss Voigt Hill
#
# Bulk Modulus (GPa) = 62.07124 68.52084 65.29604
# Shear Modulus (GPa) = -29.46392 30.10641 0.32125
#
# Velocity S-wave (km/s) = -3.53419 3.57251 0.36903
# Velocity P-wave (km/s) = 3.10798 6.78711 5.27846
#
# Compressibility (1/GPa) = 0.01611052
#
# Stress axis : x y z
#
# Youngs Moduli (GPa) = 90.91869 128.37673 141.53260
#
# Poissons Ratio (x) = 0.04078 0.62112
# Poissons Ratio (y) = 0.02888 0.02344
# Poissons Ratio (z) = 0.39900 0.02126
#
# Static dielectric constant tensor:
#      x y z
#    x 1.878870 0.000000 0.000000 
#    y 0.000000 1.925610 0.000000 
#    z 0.000000 0.000000 1.813510 
# 
# From -- ./inp_files/2858.got.cif
#   From: 2010.05.17/outbox.cif.g08.bks.cpg/sg67_2_cif.got.tgz:2858.got - 2010.06.03 18:28:57.
