data_PCOD9504246
_publ_section_title
;
Structure prediction by ZEFSAII (Michael W. Deem and Ramdas Pophale) SiO2 
 PCOD9504246
Probable space group: C M M A
;
_chemical_formula_sum "Si O2"
_cell_formula_units_Z 96
_cell_length_a 14.914220
_cell_length_b 17.308059
_cell_length_c 19.167113
_cell_angle_alpha 90.000000
_cell_angle_beta 90.000000
_cell_angle_gamma 90.000000
_cell_volume 4947.725709
_symmetry_space_group_name_H-M "C M M A"
_symmetry_group_IT_number 67
_symmetry_cell_setting 'orthorhombic'
loop_
_space_group_symop_operation_xyz
x,y,z
-x,1/2-y,z
x,-y,-z
-x,1/2+y,-z
-x,-y,-z
x,1/2+y,-z
-x,y,z
x,1/2-y,z
1/2+x,1/2+y,z
1/2-x,-y,z
1/2+x,1/2-y,-z
1/2-x,y,-z
1/2-x,1/2-y,-z
1/2+x,y,-z
1/2-x,1/2+y,z
1/2+x,-y,z
loop_
_atom_site_type_symbol
_atom_site_label
_atom_site_fract_x
_atom_site_fract_y
_atom_site_fract_z
Si Si1 0.236261 0.161048 0.759752
Si Si2 0.749659 0.907447 0.605952
Si Si3 0.601531 0.885484 0.147524
Si Si4 0.142732 0.836959 0.007462
Si Si5 0.105617 0.343128 0.499348
Si Si6 0.396539 0.066209 0.142188
O O1 0.209108 0.250000 0.751599
O O2 0.247487 0.121752 0.684888
O O3 0.328642 0.156452 0.802849
O O4 0.165215 0.114507 0.806129
O O5 0.837877 0.875121 0.566445
O O6 0.662233 0.875717 0.564843
O O7 0.750000 0.000000 0.602367
O O8 0.500000 0.879279 0.173668
O O9 0.605360 0.853130 0.069143
O O10 0.627665 0.975904 0.143239
O O11 0.118259 0.750000 0.030419
O O12 0.250000 0.840580 0.000000
O O13 0.113456 0.898586 0.064833
O O14 0.111045 0.250000 0.499654
O O15 0.000000 0.364650 0.499377
O O16 0.500000 0.072680 0.163226
#
# Coordination Sequence:
#
# PCOD9504246 Si02
#       6
#    16  16  16  16  16  16
#     4  12  25  42  63  88 122 162 202 248 303 360
#     4  11  23  40  64  93 127 164 201 247 296 350
#     4  11  24  41  62  88 118 156 202 253 308 363
#     4  11  22  37  60  89 118 155 200 251 307 361
#     4  10  21  40  67  97 128 162 201 245 292 347
#     4  11  24  41  62  88 118 156 202 253 308 363
#
# _framework density 19.402853
#
# number of rings (size 3 to 8) (size 9 to 14) (size 15 to 20)
#    0.000    1.000    1.667    6.500    0.000    8.000 
#    0.000    0.000    0.000    0.000    0.000    0.000 
#    0.000    0.000    0.000    0.000    0.000    0.000 
#
# Total GULP energy -268497.867716 kJ/mol
# GULP energy per Si atom -5593.705577 kJ/mol
# Density = 1.935869 g / cm^3
# Si number density = 19.402853 Si / 1000 Ang^3
#
#
#
# Elastic Constant Matrix: (Units=GPa)
#
#
# Indices 1 2 3 4 5 6 
#
# 1 108.5436 30.7452 32.7708 0.0000 0.0000 0.0000
# 2 30.7452 95.0272 9.7732 0.0000 0.0000 0.0000
# 3 32.7708 9.7732 113.3576 0.0000 0.0000 0.0000
# 4 0.0000 0.0000 0.0000 37.0875 0.0000 0.0000
# 5 0.0000 0.0000 0.0000 0.0000 89.2253 0.0000
# 6 0.0000 0.0000 0.0000 0.0000 0.0000 40.7286
#
#
#
# Elastic Compliance Matrix: (Units=1/GPa)
#
#
# Indices 1 2 3 4 5 6 
#
# 1 0.011014 -0.003265 -0.002903 0.000000 0.000000 0.000000
# 2 -0.003265 0.011585 -0.000055 0.000000 0.000000 0.000000
# 3 -0.002903 -0.000055 0.009665 0.000000 0.000000 0.000000
# 4 0.000000 0.000000 0.000000 0.026963 0.000000 0.000000
# 5 0.000000 0.000000 0.000000 0.000000 0.011208 0.000000
# 6 0.000000 0.000000 0.000000 0.000000 0.000000 0.024553
#
#
# Mechanical properties :
#
#
# Convention : Reuss Voigt Hill
#
# Bulk Modulus (GPa) = 50.45455 51.50075 50.97765
# Shear Modulus (GPa) = 43.84424 49.65089 46.74756
#
# Velocity S-wave (km/s) = 4.75877 5.06409 4.91380
# Velocity P-wave (km/s) = 7.50031 7.79704 7.65011
#
# Compressibility (1/GPa) = 0.01981982
#
# Stress axis : x y z
#
# Youngs Moduli (GPa) = 90.79337 86.31620 103.46088
#
# Poissons Ratio (x) = 0.28182 0.30030
# Poissons Ratio (y) = 0.29644 0.00569
# Poissons Ratio (z) = 0.26353 0.00474
#
# Static dielectric constant tensor:
#      x y z
#    x 1.697880 0.000000 0.000000 
#    y 0.000000 1.670390 0.000000 
#    z 0.000000 0.000000 1.638050 
# 
# From -- ./inp_files/38389.got.cif
#   From: 2010.05.17/outbox.cif.g08.bks.cpg/sg67_20_cif.got.tgz:38389.got - 2010.06.03 18:28:57.
