data_PCOD9504216
_publ_section_title
;
Structure prediction by ZEFSAII (Michael W. Deem and Ramdas Pophale) SiO2 
 PCOD9504216
Probable space group: C M M A
;
_chemical_formula_sum "Si O2"
_cell_formula_units_Z 80
_cell_length_a 16.762240
_cell_length_b 27.123679
_cell_length_c 7.856949
_cell_angle_alpha 90.000000
_cell_angle_beta 90.000000
_cell_angle_gamma 90.000000
_cell_volume 3572.190282
_symmetry_space_group_name_H-M "C M M A"
_symmetry_group_IT_number 67
_symmetry_cell_setting 'orthorhombic'
loop_
_space_group_symop_operation_xyz
x,y,z
-x,1/2-y,z
x,-y,-z
-x,1/2+y,-z
-x,-y,-z
x,1/2+y,-z
-x,y,z
x,1/2-y,z
1/2+x,1/2+y,z
1/2-x,-y,z
1/2+x,1/2-y,-z
1/2-x,y,-z
1/2-x,1/2-y,-z
1/2+x,y,-z
1/2-x,1/2+y,z
1/2+x,-y,z
loop_
_atom_site_type_symbol
_atom_site_label
_atom_site_fract_x
_atom_site_fract_y
_atom_site_fract_z
Si Si1 0.139048 0.844849 0.883734
Si Si2 0.588880 0.158502 0.527701
Si Si3 0.805447 0.306143 0.776874
Si Si4 0.655841 0.445682 0.041199
Si Si5 0.905065 0.551057 0.415027
O O1 0.092120 0.824696 0.722413
O O2 0.230329 0.841167 0.814477
O O3 0.137358 0.815086 0.060480
O O4 0.118605 0.900794 0.935366
O O5 0.500000 0.166135 0.457799
O O6 0.651481 0.182670 0.399850
O O7 0.605163 0.099606 0.529275
O O8 0.776580 0.250000 0.779324
O O9 0.639971 0.438058 0.240036
O O10 0.623349 0.500000 0.000000
O O11 0.750000 0.445705 0.000000
O O12 0.877657 0.500000 0.500000
O O13 0.000000 0.545973 0.379738
#
# Coordination Sequence:
#
# PCOD9504216 Si02
#       5
#    16  16  16  16  16
#     4  11  21  41  66  93 125 164 216 262 314 387
#     4  11  24  40  63  95 129 164 208 264 321 378
#     4  11  24  44  67  90 123 168 217 267 319 380
#     4  11  21  36  61  95 130 163 207 261 319 369
#     4  10  21  40  62  89 128 171 210 250 309 386
#
# _framework density 22.395225
#
# number of rings (size 3 to 8) (size 9 to 14) (size 15 to 20)
#    0.000    1.200    4.000    3.000    0.000    4.800 
#    0.000    6.000    0.000    0.000    0.000    0.000 
#    0.000    0.000    0.000    0.000    0.000    0.000 
#
# Total GULP energy -223563.028025 kJ/mol
# GULP energy per Si atom -5589.075701 kJ/mol
# Density = 2.234425 g / cm^3
# Si number density = 22.395225 Si / 1000 Ang^3
#
#
#
# Elastic Constant Matrix: (Units=GPa)
#
#
# Indices 1 2 3 4 5 6 
#
# 1 31.7717 13.3435 30.2066 0.0000 0.0000 0.0000
# 2 13.3435 87.1294 10.3581 0.0000 0.0000 0.0000
# 3 30.2066 10.3581 130.3443 0.0000 0.0000 0.0000
# 4 0.0000 0.0000 0.0000 20.1063 0.0000 0.0000
# 5 0.0000 0.0000 0.0000 0.0000 24.1023 0.0000
# 6 0.0000 0.0000 0.0000 0.0000 0.0000 6.7062
#
#
#
# Elastic Compliance Matrix: (Units=1/GPa)
#
#
# Indices 1 2 3 4 5 6 
#
# 1 0.042764 -0.005422 -0.009480 0.000000 0.000000 0.000000
# 2 -0.005422 0.012274 0.000281 0.000000 0.000000 0.000000
# 3 -0.009480 0.000281 0.009846 0.000000 0.000000 0.000000
# 4 0.000000 0.000000 0.000000 0.049736 0.000000 0.000000
# 5 0.000000 0.000000 0.000000 0.000000 0.041490 0.000000
# 6 0.000000 0.000000 0.000000 0.000000 0.000000 0.149116
#
#
# Mechanical properties :
#
#
# Convention : Reuss Voigt Hill
#
# Bulk Modulus (GPa) = 28.05536 39.67355 33.86445
# Shear Modulus (GPa) = 14.43629 23.20544 18.82087
#
# Velocity S-wave (km/s) = 2.54168 3.22246 2.90210
# Velocity P-wave (km/s) = 4.60088 5.62133 5.13651
#
# Compressibility (1/GPa) = 0.03564382
#
# Stress axis : x y z
#
# Youngs Moduli (GPa) = 23.38396 81.47207 101.55917
#
# Poissons Ratio (x) = 0.44176 0.96273
# Poissons Ratio (y) = 0.12679 -0.02856
# Poissons Ratio (z) = 0.22167 -0.02291
#
# Static dielectric constant tensor:
#      x y z
#    x 1.845000 0.000000 0.000000 
#    y 0.000000 1.850070 0.000000 
#    z 0.000000 0.000000 1.820620 
# 
# From -- ./inp_files/9953.got.cif
#   From: 2010.05.17/outbox.cif.g08.bks.cpg/sg67_5_cif.got.tgz:9953.got - 2010.06.03 18:28:57.
