data_PCOD9504005
_publ_section_title
;
Structure prediction by ZEFSAII (Michael W. Deem and Ramdas Pophale) SiO2 
 PCOD9504005
Probable space group: C M M A
;
_chemical_formula_sum "Si O2"
_cell_formula_units_Z 88
_cell_length_a 10.076535
_cell_length_b 19.861399
_cell_length_c 22.783493
_cell_angle_alpha 90.000000
_cell_angle_beta 90.000000
_cell_angle_gamma 90.000000
_cell_volume 4559.753460
_symmetry_space_group_name_H-M "C M M A"
_symmetry_group_IT_number 67
_symmetry_cell_setting 'orthorhombic'
loop_
_space_group_symop_operation_xyz
x,y,z
-x,1/2-y,z
x,-y,-z
-x,1/2+y,-z
-x,-y,-z
x,1/2+y,-z
-x,y,z
x,1/2-y,z
1/2+x,1/2+y,z
1/2-x,-y,z
1/2+x,1/2-y,-z
1/2-x,y,-z
1/2-x,1/2-y,-z
1/2+x,y,-z
1/2-x,1/2+y,z
1/2+x,-y,z
loop_
_atom_site_type_symbol
_atom_site_label
_atom_site_fract_x
_atom_site_fract_y
_atom_site_fract_z
Si Si1 0.500000 0.332308 0.094719
Si Si2 0.849066 0.399943 0.554386
Si Si3 0.349147 0.750000 0.553040
Si Si4 0.350440 0.330804 0.733307
Si Si5 0.000000 0.832148 0.959082
Si Si6 0.156458 0.560032 0.316074
Si Si7 0.284184 0.168461 0.866201
O O1 0.500000 0.250000 0.095355
O O2 0.633742 0.355095 0.126334
O O3 0.500000 0.353295 0.026527
O O4 0.750000 0.412001 0.500000
O O5 0.829691 0.323492 0.579855
O O6 0.840057 0.443518 0.612832
O O7 0.000000 0.404918 0.531473
O O8 0.500000 0.750000 0.531564
O O9 0.250000 0.750000 0.500000
O O10 0.500000 0.347701 0.711470
O O11 0.332884 0.250000 0.726461
O O12 0.232482 0.372529 0.704034
O O13 0.343346 0.347203 0.802765
O O14 0.126833 0.853956 0.921017
O O15 0.000000 0.750000 0.960152
O O16 0.250000 0.500000 0.292793
O O17 0.000000 0.557924 0.299173
O O18 0.283236 0.250000 0.869176
#
# Coordination Sequence:
#
# PCOD9504005 Si02
#       7
#     8  16   8  16   8  16  16
#     4   9  16  22  38  68 105 145 188 225 274 336
#     4   9  19  35  58  85 114 148 182 226 281 339
#     4   8  14  28  50  78 112 140 174 214 259 320
#     4  10  21  38  59  83 114 154 197 243 292 343
#     4   9  14  24  40  64 103 151 184 223 276 336
#     4  11  25  42  61  85 116 151 193 244 290 346
#     4   9  16  27  43  68 106 146 188 230 277 335
#
# _framework density 19.299289999999999
#
# number of rings (size 3 to 8) (size 9 to 14) (size 15 to 20)
#    0.000    2.545    0.909    1.091    2.545    4.364 
#    0.000    1.818    0.000    0.000    0.000    0.000 
#    0.000    4.364    0.000    0.000    0.000    0.000 
#
# Total GULP energy -244957.400392 kJ/mol
# GULP energy per Si atom -5567.213645 kJ/mol
# Density = 1.925536 g / cm^3
# Si number density = 19.299290 Si / 1000 Ang^3
#
#
#
# Elastic Constant Matrix: (Units=GPa)
#
#
# Indices 1 2 3 4 5 6 
#
# 1 138.5579 44.6115 35.3020 0.0000 0.0000 0.0000
# 2 44.6115 34.3035 4.4267 0.0000 0.0000 0.0000
# 3 35.3020 4.4267 47.9848 0.0000 0.0000 0.0000
# 4 0.0000 0.0000 0.0000 0.5516 0.0000 0.0000
# 5 0.0000 0.0000 0.0000 0.0000 30.0393 0.0000
# 6 0.0000 0.0000 0.0000 0.0000 0.0000 14.9037
#
#
#
# Elastic Compliance Matrix: (Units=1/GPa)
#
#
# Indices 1 2 3 4 5 6 
#
# 1 0.016095 -0.019638 -0.010030 0.000000 0.000000 0.000000
# 2 -0.019638 0.053462 0.009515 0.000000 0.000000 0.000000
# 3 -0.010030 0.009515 0.027341 0.000000 0.000000 0.000000
# 4 0.000000 0.000000 0.000000 1.812789 0.000000 0.000000
# 5 0.000000 0.000000 0.000000 0.000000 0.033290 0.000000
# 6 0.000000 0.000000 0.000000 0.000000 0.000000 0.067097
#
#
# Mechanical properties :
#
#
# Convention : Reuss Voigt Hill
#
# Bulk Modulus (GPa) = 17.66956 43.28073 30.47514
# Shear Modulus (GPa) = 2.41634 18.19934 10.30784
#
# Velocity S-wave (km/s) = 1.12016 3.07417 2.31358
# Velocity P-wave (km/s) = 3.29370 5.92245 4.79186
#
# Compressibility (1/GPa) = 0.05659451
#
# Stress axis : x y z
#
# Youngs Moduli (GPa) = 62.13007 18.70478 36.57536
#
# Poissons Ratio (x) = 0.36732 0.36683
# Poissons Ratio (y) = 1.22008 -0.34802
# Poissons Ratio (z) = 0.62314 -0.17798
#
# Static dielectric constant tensor:
#      x y z
#    x 1.690510 0.000000 0.000000 
#    y 0.000000 1.750050 0.000000 
#    z 0.000000 0.000000 1.644590 
# 
# From -- ./inp_files/40730.got.cif
#   From: 2010.05.17/outbox.cif.g08.bks.cpg/sg67_21_cif.got.tgz:40730.got - 2010.06.03 18:28:57.
