data_PCOD9504068
_publ_section_title
;
Structure prediction by ZEFSAII (Michael W. Deem and Ramdas Pophale) SiO2 
 PCOD9504068
Probable space group: C M M A
;
_chemical_formula_sum "Si O2"
_cell_formula_units_Z 96
_cell_length_a 20.015010
_cell_length_b 20.939716
_cell_length_c 11.437893
_cell_angle_alpha 90.000000
_cell_angle_beta 90.000000
_cell_angle_gamma 90.000000
_cell_volume 4793.719610
_symmetry_space_group_name_H-M "C M M A"
_symmetry_group_IT_number 67
_symmetry_cell_setting 'orthorhombic'
loop_
_space_group_symop_operation_xyz
x,y,z
-x,1/2-y,z
x,-y,-z
-x,1/2+y,-z
-x,-y,-z
x,1/2+y,-z
-x,y,z
x,1/2-y,z
1/2+x,1/2+y,z
1/2-x,-y,z
1/2+x,1/2-y,-z
1/2-x,y,-z
1/2-x,1/2-y,-z
1/2+x,y,-z
1/2-x,1/2+y,z
1/2+x,-y,z
loop_
_atom_site_type_symbol
_atom_site_label
_atom_site_fract_x
_atom_site_fract_y
_atom_site_fract_z
Si Si1 0.077161 0.430551 0.051233
Si Si2 0.425945 0.825943 0.521998
Si Si3 0.217105 0.941079 0.627340
Si Si4 0.325633 0.177589 0.042968
Si Si5 0.072412 0.570382 0.668159
Si Si6 0.799655 0.676513 0.315667
O O1 0.078597 0.428851 0.192259
O O2 0.000000 0.419488 0.015106
O O3 0.096479 0.500000 0.000000
O O4 0.124991 0.375444 0.005254
O O5 0.500000 0.840947 0.574686
O O6 0.422541 0.750000 0.507804
O O7 0.425180 0.861355 0.397538
O O8 0.361395 0.843930 0.600004
O O9 0.250000 0.938124 0.500000
O O10 0.140014 0.959475 0.621229
O O11 0.237621 0.872340 0.677942
O O12 0.250000 0.000000 0.696049
O O13 0.343825 0.250000 0.005507
O O14 0.325559 0.175892 0.183376
O O15 0.250000 0.165981 0.000000
O O16 0.000000 0.541144 0.639148
O O17 0.780834 0.750000 0.345402
#
# Coordination Sequence:
#
# PCOD9504068 Si02
#       6
#    16  16  16  16  16  16
#     4  10  23  41  62  91 124 165 217 258 303 378
#     4   9  18  34  58  90 123 159 205 250 306 379
#     4  11  23  38  58  92 125 154 201 252 300 371
#     4  10  22  40  61  89 123 159 208 263 315 374
#     4  10  21  40  61  85 121 162 203 252 308 364
#     4  10  21  38  61  88 122 164 206 255 313 370
#
# _framework density 20.026202000000001
#
# number of rings (size 3 to 8) (size 9 to 14) (size 15 to 20)
#    0.000    2.000    1.667    1.000    2.333    3.000 
#    0.000    5.833    0.000    0.000    0.000    0.000 
#    0.000    0.000    0.000    0.000    0.000    0.000 
#
# Total GULP energy -267563.569906 kJ/mol
# GULP energy per Si atom -5574.241040 kJ/mol
# Density = 1.998062 g / cm^3
# Si number density = 20.026202 Si / 1000 Ang^3
#
#
#
# Elastic Constant Matrix: (Units=GPa)
#
#
# Indices 1 2 3 4 5 6 
#
# 1 148.0770 75.3360 34.7859 0.0000 0.0000 0.0000
# 2 75.3360 105.5415 31.2014 0.0000 0.0000 0.0000
# 3 34.7859 31.2014 83.0054 0.0000 0.0000 0.0000
# 4 0.0000 0.0000 0.0000 -6.1811 0.0000 0.0000
# 5 0.0000 0.0000 0.0000 0.0000 23.5688 0.0000
# 6 0.0000 0.0000 0.0000 0.0000 0.0000 40.9671
#
#
#
# Elastic Compliance Matrix: (Units=1/GPa)
#
#
# Indices 1 2 3 4 5 6 
#
# 1 0.010848 -0.007200 -0.001840 0.000000 0.000000 0.000000
# 2 -0.007200 0.015438 -0.002786 0.000000 0.000000 0.000000
# 3 -0.001840 -0.002786 0.013866 0.000000 0.000000 0.000000
# 4 0.000000 0.000000 0.000000 -0.161784 0.000000 0.000000
# 5 0.000000 0.000000 0.000000 0.000000 0.042429 0.000000
# 6 0.000000 0.000000 0.000000 0.000000 0.000000 0.024410
#
#
# Mechanical properties :
#
#
# Convention : Reuss Voigt Hill
#
# Bulk Modulus (GPa) = 60.60271 68.80782 64.70527
# Shear Modulus (GPa) = -194.99390 24.69100 -85.15145
#
# Velocity S-wave (km/s) = -9.87830 3.51513 -6.52781
# Velocity P-wave (km/s) = 9.98901 7.13501 4.94328
#
# Compressibility (1/GPa) = 0.01650091
#
# Stress axis : x y z
#
# Youngs Moduli (GPa) = 92.17927 64.77672 72.12059
#
# Poissons Ratio (x) = 0.46637 0.13270
# Poissons Ratio (y) = 0.66366 0.20091
# Poissons Ratio (z) = 0.16961 0.18045
#
# Static dielectric constant tensor:
#      x y z
#    x 1.778920 0.000000 0.000000 
#    y 0.000000 1.762740 0.000000 
#    z 0.000000 0.000000 1.702590 
# 
# From -- ./inp_files/20879.got.cif
#   From: 2010.05.17/outbox.cif.g08.bks.cpg/sg67_11_cif.got.tgz:20879.got - 2010.06.03 18:28:57.
