data_PCOD9504317
_publ_section_title
;
Structure prediction by ZEFSAII (Michael W. Deem and Ramdas Pophale) SiO2 
 PCOD9504317
Probable space group: C M M A
;
_chemical_formula_sum "Si O2"
_cell_formula_units_Z 64
_cell_length_a 9.211409
_cell_length_b 27.699718
_cell_length_c 13.199082
_cell_angle_alpha 90.000000
_cell_angle_beta 90.000000
_cell_angle_gamma 90.000000
_cell_volume 3367.791067
_symmetry_space_group_name_H-M "C M M A"
_symmetry_group_IT_number 67
_symmetry_cell_setting 'orthorhombic'
loop_
_space_group_symop_operation_xyz
x,y,z
-x,1/2-y,z
x,-y,-z
-x,1/2+y,-z
-x,-y,-z
x,1/2+y,-z
-x,y,z
x,1/2-y,z
1/2+x,1/2+y,z
1/2-x,-y,z
1/2+x,1/2-y,-z
1/2-x,y,-z
1/2-x,1/2-y,-z
1/2+x,y,-z
1/2-x,1/2+y,z
1/2+x,-y,z
loop_
_atom_site_type_symbol
_atom_site_label
_atom_site_fract_x
_atom_site_fract_y
_atom_site_fract_z
Si Si1 0.322896 0.750000 0.112450
Si Si2 0.750000 0.500000 0.266492
Si Si3 0.336259 0.430644 0.904191
Si Si4 0.333374 0.407580 0.395035
Si Si5 0.824155 0.344331 0.795587
O O1 0.500000 0.750000 0.106118
O O2 0.260086 0.796303 0.172347
O O3 0.250000 0.750000 0.000000
O O4 0.656137 0.531451 0.187939
O O5 0.679998 0.459010 0.337100
O O6 0.500000 0.415970 0.930697
O O7 0.238165 0.385949 0.868172
O O8 0.250000 0.450312 0.000000
O O9 0.500000 0.399209 0.418765
O O10 0.250000 0.408541 0.500000
O O11 0.288672 0.365492 0.316239
O O12 0.000000 0.339440 0.804160
#
# Coordination Sequence:
#
# PCOD9504317 Si02
#       5
#     8   8  16  16  16
#     4  12  24  40  65  94 121 152 189 230 282 340
#     4  10  22  36  56  82 114 154 198 242 286 340
#     4  11  22  36  55  81 116 156 197 240 289 345
#     4  10  22  39  60  85 114 150 192 240 290 339
#     4  10  22  41  61  85 118 153 192 237 286 341
#
# _framework density 19.003554999999999
#
# number of rings (size 3 to 8) (size 9 to 14) (size 15 to 20)
#    0.000    1.500    0.000    4.875    0.000   11.000 
#    0.000    0.625    0.000    0.000    0.000    0.000 
#    0.000    0.000    0.000    0.000    0.000    0.000 
#
# Total GULP energy -178495.017520 kJ/mol
# GULP energy per Si atom -5577.969297 kJ/mol
# Density = 1.896030 g / cm^3
# Si number density = 19.003555 Si / 1000 Ang^3
#
#
#
# Elastic Constant Matrix: (Units=GPa)
#
#
# Indices 1 2 3 4 5 6 
#
# 1 122.5434 52.8195 70.9462 0.0000 0.0000 0.0000
# 2 52.8195 149.1815 73.5765 0.0000 0.0000 0.0000
# 3 70.9462 73.5765 152.4336 0.0000 0.0000 0.0000
# 4 0.0000 0.0000 0.0000 11.0300 0.0000 0.0000
# 5 0.0000 0.0000 0.0000 0.0000 26.2224 0.0000
# 6 0.0000 0.0000 0.0000 0.0000 0.0000 -68.9607
#
#
#
# Elastic Compliance Matrix: (Units=1/GPa)
#
#
# Indices 1 2 3 4 5 6 
#
# 1 0.011562 -0.001889 -0.004469 0.000000 0.000000 0.000000
# 2 -0.001889 0.009106 -0.003516 0.000000 0.000000 0.000000
# 3 -0.004469 -0.003516 0.010338 0.000000 0.000000 0.000000
# 4 0.000000 0.000000 0.000000 0.090662 0.000000 0.000000
# 5 0.000000 0.000000 0.000000 0.000000 0.038135 0.000000
# 6 0.000000 0.000000 0.000000 0.000000 0.000000 -0.014501
#
#
# Mechanical properties :
#
#
# Convention : Reuss Voigt Hill
#
# Bulk Modulus (GPa) = 88.83829 90.98254 89.91041
# Shear Modulus (GPa) = 29.62004 8.77941 19.19972
#
# Velocity S-wave (km/s) = 3.95227 2.15172 3.18201
# Velocity P-wave (km/s) = 8.22660 7.35892 7.80483
#
# Compressibility (1/GPa) = 0.01125641
#
# Stress axis : x y z
#
# Youngs Moduli (GPa) = 86.48781 109.81348 96.73516
#
# Poissons Ratio (x) = 0.20749 0.43235
# Poissons Ratio (y) = 0.16342 0.34012
# Poissons Ratio (z) = 0.38655 0.38611
#
# Static dielectric constant tensor:
#      x y z
#    x 1.665130 0.000000 0.000000 
#    y 0.000000 1.670530 0.000000 
#    z 0.000000 0.000000 4.325760 
# 
# From -- ./inp_files/24864.got.cif
#   From: 2010.05.17/outbox.cif.g08.bks.cpg/sg67_13_cif.got.tgz:24864.got - 2010.06.03 18:28:57.
