data_PCOD9504887
_publ_section_title
;
Structure prediction by ZEFSAII (Michael W. Deem and Ramdas Pophale) SiO2 
 PCOD9504887
Probable space group: C M M A
;
_chemical_formula_sum "Si O2"
_cell_formula_units_Z 48
_cell_length_a 15.418786
_cell_length_b 27.573964
_cell_length_c 5.074073
_cell_angle_alpha 90.000000
_cell_angle_beta 90.000000
_cell_angle_gamma 90.000000
_cell_volume 2157.277909
_symmetry_space_group_name_H-M "C M M A"
_symmetry_group_IT_number 67
_symmetry_cell_setting 'orthorhombic'
loop_
_space_group_symop_operation_xyz
x,y,z
-x,1/2-y,z
x,-y,-z
-x,1/2+y,-z
-x,-y,-z
x,1/2+y,-z
-x,y,z
x,1/2-y,z
1/2+x,1/2+y,z
1/2-x,-y,z
1/2+x,1/2-y,-z
1/2-x,y,-z
1/2-x,1/2-y,-z
1/2+x,y,-z
1/2-x,1/2+y,z
1/2+x,-y,z
loop_
_atom_site_type_symbol
_atom_site_label
_atom_site_fract_x
_atom_site_fract_y
_atom_site_fract_z
Si Si1 0.347236 0.805335 0.387391
Si Si2 0.896874 0.468229 0.738698
Si Si3 0.599371 0.637084 0.881306
O O1 0.374199 0.750000 0.330934
O O2 0.250000 0.804685 0.500000
O O3 0.400530 0.829243 0.624228
O O4 0.353800 0.836846 0.123460
O O5 0.860114 0.500000 0.500000
O O6 0.861332 0.414632 0.793984
O O7 0.000000 0.460751 0.679597
O O8 0.889724 0.500000 0.000000
O O9 0.500000 0.628736 0.971209
#
# Coordination Sequence:
#
# PCOD9504887 Si02
#       3
#    16  16  16
#     4  11  24  41  59  82 119 164 201 240 303 371
#     4   9  17  31  53  83 117 148 182 230 288 347
#     4  11  22  37  62  92 117 150 202 256 297 343
#
# _framework density 22.250264000000001
#
# number of rings (size 3 to 8) (size 9 to 14) (size 15 to 20)
#    0.000    1.667    0.000    5.000    0.000   12.000 
#    0.000    0.000    0.000   15.000    0.000    0.000 
#    0.000    0.000    0.000    0.000    0.000    0.333 
#
# Total GULP energy -134205.683749 kJ/mol
# GULP energy per Si atom -5591.903490 kJ/mol
# Density = 2.219962 g / cm^3
# Si number density = 22.250264 Si / 1000 Ang^3
#
#
#
# Elastic Constant Matrix: (Units=GPa)
#
#
# Indices 1 2 3 4 5 6 
#
# 1 33.1553 21.6934 13.2265 0.0000 0.0000 0.0000
# 2 21.6934 203.8452 88.2439 0.0000 0.0000 0.0000
# 3 13.2265 88.2439 148.2900 0.0000 0.0000 0.0000
# 4 0.0000 0.0000 0.0000 29.5277 0.0000 0.0000
# 5 0.0000 0.0000 0.0000 0.0000 9.3081 0.0000
# 6 0.0000 0.0000 0.0000 0.0000 0.0000 35.9007
#
#
#
# Elastic Compliance Matrix: (Units=1/GPa)
#
#
# Indices 1 2 3 4 5 6 
#
# 1 0.032559 -0.002974 -0.001134 0.000000 0.000000 0.000000
# 2 -0.002974 0.006880 -0.003829 0.000000 0.000000 0.000000
# 3 -0.001134 -0.003829 0.009123 0.000000 0.000000 0.000000
# 4 0.000000 0.000000 0.000000 0.033867 0.000000 0.000000
# 5 0.000000 0.000000 0.000000 0.000000 0.107433 0.000000
# 6 0.000000 0.000000 0.000000 0.000000 0.000000 0.027855
#
#
# Mechanical properties :
#
#
# Convention : Reuss Voigt Hill
#
# Bulk Modulus (GPa) = 30.59205 70.17979 50.38592
# Shear Modulus (GPa) = 20.45105 32.42240 26.43673
#
# Velocity S-wave (km/s) = 3.03502 3.82143 3.45070
# Velocity P-wave (km/s) = 5.10497 7.14707 6.21053
#
# Compressibility (1/GPa) = 0.03268823
#
# Stress axis : x y z
#
# Youngs Moduli (GPa) = 30.71301 145.35792 109.61258
#
# Poissons Ratio (x) = 0.43229 0.12434
# Poissons Ratio (y) = 0.09134 0.41966
# Poissons Ratio (z) = 0.03484 0.55652
#
# Static dielectric constant tensor:
#      x y z
#    x 2.447350 0.000000 0.000000 
#    y 0.000000 1.816840 0.000000 
#    z 0.000000 0.000000 1.750320 
# 
# From -- ./inp_files/1153.got.cif
#   From: 2010.05.17/outbox.cif.g08.bks.cpg/sg67_1_cif.got.tgz:1153.got - 2010.06.03 18:28:57.
