data_PCOD9504008
_publ_section_title
;
Structure prediction by ZEFSAII (Michael W. Deem and Ramdas Pophale) SiO2 
 PCOD9504008
Probable space group: C M M A
;
_chemical_formula_sum "Si O2"
_cell_formula_units_Z 96
_cell_length_a 20.118488
_cell_length_b 8.726900
_cell_length_c 30.843765
_cell_angle_alpha 90.000000
_cell_angle_beta 90.000000
_cell_angle_gamma 90.000000
_cell_volume 5415.302524
_symmetry_space_group_name_H-M "C M M A"
_symmetry_group_IT_number 67
_symmetry_cell_setting 'orthorhombic'
loop_
_space_group_symop_operation_xyz
x,y,z
-x,1/2-y,z
x,-y,-z
-x,1/2+y,-z
-x,-y,-z
x,1/2+y,-z
-x,y,z
x,1/2-y,z
1/2+x,1/2+y,z
1/2-x,-y,z
1/2+x,1/2-y,-z
1/2-x,y,-z
1/2-x,1/2-y,-z
1/2+x,y,-z
1/2-x,1/2+y,z
1/2+x,-y,z
loop_
_atom_site_type_symbol
_atom_site_label
_atom_site_fract_x
_atom_site_fract_y
_atom_site_fract_z
Si Si1 0.676703 0.066692 0.381169
Si Si2 0.077606 0.934036 0.116861
Si Si3 0.078014 0.566780 0.547536
Si Si4 0.922121 0.566253 0.217249
Si Si5 0.676984 0.567561 0.046805
Si Si6 0.677374 0.567501 0.286966
O O1 0.679597 0.250000 0.380308
O O2 0.750000 0.000000 0.390922
O O3 0.624599 0.008683 0.416573
O O4 0.658317 0.003970 0.333501
O O5 0.084840 0.750000 0.112286
O O6 0.092734 0.972420 0.167046
O O7 0.000000 0.970976 0.109038
O O8 0.125507 0.017030 0.083464
O O9 0.093415 0.500000 0.500000
O O10 0.087070 0.750000 0.547395
O O11 0.000000 0.534519 0.556266
O O12 0.913575 0.750000 0.222076
O O13 0.874963 0.480461 0.250548
O O14 0.000000 0.532228 0.224946
O O15 0.681314 0.750000 0.043806
O O16 0.750000 0.500000 0.056550
O O17 0.656823 0.500000 0.000000
O O18 0.681908 0.750000 0.291063
O O19 0.750000 0.500000 0.276034
#
# Coordination Sequence:
#
# PCOD9504008 Si02
#       6
#    16  16  16  16  16  16
#     4  11  22  38  59  82 111 145 184 228 275 326
#     4   9  19  37  59  82 110 143 180 223 270 321
#     4  10  21  38  59  84 114 146 183 226 272 323
#     4   9  19  37  59  82 110 144 181 223 271 322
#     4  11  22  37  57  80 109 143 181 225 271 322
#     4  11  22  37  57  81 111 145 183 227 273 323
#
# _framework density 17.727542
#
# number of rings (size 3 to 8) (size 9 to 14) (size 15 to 20)
#    0.000    1.833    0.000    7.500    0.000    4.333 
#    0.000    3.333    0.000    0.000    0.000    0.000 
#    0.000    0.000    0.000    0.000    0.000    0.000 
#
# Total GULP energy -268174.271208 kJ/mol
# GULP energy per Si atom -5586.963984 kJ/mol
# Density = 1.768719 g / cm^3
# Si number density = 17.727542 Si / 1000 Ang^3
#
#
#
# Elastic Constant Matrix: (Units=GPa)
#
#
# Indices 1 2 3 4 5 6 
#
# 1 101.1779 83.1565 116.2567 0.0000 0.0000 0.0000
# 2 83.1565 146.2931 97.2196 0.0000 0.0000 0.0000
# 3 116.2567 97.2196 149.3476 0.0000 0.0000 0.0000
# 4 0.0000 0.0000 0.0000 29.8653 0.0000 0.0000
# 5 0.0000 0.0000 0.0000 0.0000 42.3855 0.0000
# 6 0.0000 0.0000 0.0000 0.0000 0.0000 28.4033
#
#
#
# Elastic Compliance Matrix: (Units=1/GPa)
#
#
# Indices 1 2 3 4 5 6 
#
# 1 0.099935 -0.009003 -0.071932 0.000000 0.000000 0.000000
# 2 -0.009003 0.012858 -0.001362 0.000000 0.000000 0.000000
# 3 -0.071932 -0.001362 0.063576 0.000000 0.000000 0.000000
# 4 0.000000 0.000000 0.000000 0.033484 0.000000 0.000000
# 5 0.000000 0.000000 0.000000 0.000000 0.023593 0.000000
# 6 0.000000 0.000000 0.000000 0.000000 0.000000 0.035207
#
#
# Mechanical properties :
#
#
# Convention : Reuss Voigt Hill
#
# Bulk Modulus (GPa) = 84.91912 110.00935 97.46424
# Shear Modulus (GPa) = 11.43715 26.80987 19.12351
#
# Velocity S-wave (km/s) = 2.54276 3.89309 3.28799
# Velocity P-wave (km/s) = 7.52510 9.07736 8.33744
#
# Compressibility (1/GPa) = 0.01177591
#
# Stress axis : x y z
#
# Youngs Moduli (GPa) = 10.00652 77.77115 15.72912
#
# Poissons Ratio (x) = 0.70016 1.13142
# Poissons Ratio (y) = 0.09009 0.02143
# Poissons Ratio (z) = 0.71979 0.10594
#
# Static dielectric constant tensor:
#      x y z
#    x 1.580530 0.000000 0.000000 
#    y 0.000000 1.589350 0.000000 
#    z 0.000000 0.000000 1.578850 
# 
# From -- ./inp_files/43450.got.cif
#   From: 2010.05.17/outbox.cif.g08.bks.cpg/sg67_22_cif.got.tgz:43450.got - 2010.06.03 18:28:57.
