data_PCOD9504337
_publ_section_title
;
Structure prediction by ZEFSAII (Michael W. Deem and Ramdas Pophale) SiO2 
 PCOD9504337
Probable space group: C M M A
;
_chemical_formula_sum "Si O2"
_cell_formula_units_Z 64
_cell_length_a 17.926404
_cell_length_b 16.389212
_cell_length_c 11.572167
_cell_angle_alpha 90.000000
_cell_angle_beta 90.000000
_cell_angle_gamma 90.000000
_cell_volume 3399.898447
_symmetry_space_group_name_H-M "C M M A"
_symmetry_group_IT_number 67
_symmetry_cell_setting 'orthorhombic'
loop_
_space_group_symop_operation_xyz
x,y,z
-x,1/2-y,z
x,-y,-z
-x,1/2+y,-z
-x,-y,-z
x,1/2+y,-z
-x,y,z
x,1/2-y,z
1/2+x,1/2+y,z
1/2-x,-y,z
1/2+x,1/2-y,-z
1/2-x,y,-z
1/2-x,1/2-y,-z
1/2+x,y,-z
1/2-x,1/2+y,z
1/2+x,-y,z
loop_
_atom_site_type_symbol
_atom_site_label
_atom_site_fract_x
_atom_site_fract_y
_atom_site_fract_z
Si Si1 0.912922 0.065799 0.234691
Si Si2 0.692583 0.928911 0.678889
Si Si3 0.416732 0.599288 0.492372
Si Si4 0.713058 0.152967 0.880249
O O1 0.904492 0.114931 0.356834
O O2 0.867447 0.112831 0.137801
O O3 0.000000 0.056191 0.213053
O O4 0.872608 0.979405 0.256242
O O5 0.651486 0.879900 0.576595
O O6 0.737370 0.876464 0.771724
O O7 0.750000 0.000000 0.636450
O O8 0.419521 0.500000 0.500000
O O9 0.500000 0.628885 0.525752
O O10 0.707606 0.250000 0.880928
O O11 0.750000 0.125430 0.000000
#
# Coordination Sequence:
#
# PCOD9504337 Si02
#       4
#    16  16  16  16
#     4   9  18  33  56  80 100 128 164 204 248 296
#     4   9  17  29  51  79 103 129 164 205 247 291
#     4   8  14  27  48  76 106 129 153 194 250 304
#     4  10  22  38  51  67  99 139 174 208 248 294
#
# _framework density 18.824092
#
# number of rings (size 3 to 8) (size 9 to 14) (size 15 to 20)
#    0.000    3.000    0.000    2.250    0.000   16.500 
#    0.000    6.250    0.000    7.500    0.000    0.000 
#    0.000    0.000    0.000    0.000    0.000    0.000 
#
# Total GULP energy -178322.627228 kJ/mol
# GULP energy per Si atom -5572.582101 kJ/mol
# Density = 1.878125 g / cm^3
# Si number density = 18.824092 Si / 1000 Ang^3
#
#
#
# Elastic Constant Matrix: (Units=GPa)
#
#
# Indices 1 2 3 4 5 6 
#
# 1 140.8285 14.1493 23.2784 0.0000 0.0000 0.0000
# 2 14.1493 14.9192 2.6661 0.0000 0.0000 0.0000
# 3 23.2784 2.6661 25.7712 0.0000 0.0000 0.0000
# 4 0.0000 0.0000 0.0000 1067.2035 0.0000 0.0000
# 5 0.0000 0.0000 0.0000 0.0000 33.5166 0.0000
# 6 0.0000 0.0000 0.0000 0.0000 0.0000 6.4929
#
#
#
# Elastic Compliance Matrix: (Units=1/GPa)
#
#
# Indices 1 2 3 4 5 6 
#
# 1 0.009059 -0.007263 -0.007431 0.000000 0.000000 0.000000
# 2 -0.007263 0.074114 -0.001106 0.000000 0.000000 0.000000
# 3 -0.007431 -0.001106 0.045630 0.000000 0.000000 0.000000
# 4 0.000000 0.000000 0.000000 0.000937 0.000000 0.000000
# 5 0.000000 0.000000 0.000000 0.000000 0.029836 0.000000
# 6 0.000000 0.000000 0.000000 0.000000 0.000000 0.154013
#
#
# Mechanical properties :
#
#
# Convention : Reuss Voigt Hill
#
# Bulk Modulus (GPa) = 10.28801 29.07851 19.68326
# Shear Modulus (GPa) = 13.24180 230.87093 122.05637
#
# Velocity S-wave (km/s) = 2.65514 11.08660 8.06110
# Velocity P-wave (km/s) = 3.85706 13.39271 9.85499
#
# Compressibility (1/GPa) = 0.09720054
#
# Stress axis : x y z
#
# Youngs Moduli (GPa) = 110.38780 13.49273 21.91541
#
# Poissons Ratio (x) = 0.09800 0.16286
# Poissons Ratio (y) = 0.80180 0.02425
# Poissons Ratio (z) = 0.82033 0.01493
#
# Static dielectric constant tensor:
#      x y z
#    x 1.683540 0.000000 0.000000 
#    y 0.000000 1.646140 0.000000 
#    z 0.000000 0.000000 1.705580 
# 
# From -- ./inp_files/17492.got.cif
#   From: 2010.05.17/outbox.cif.g08.bks.cpg/sg67_9_cif.got.tgz:17492.got - 2010.06.03 18:28:57.
