data_PCOD9504189
_publ_section_title
;
Structure prediction by ZEFSAII (Michael W. Deem and Ramdas Pophale) SiO2 
 PCOD9504189
Probable space group: C M M A
;
_chemical_formula_sum "Si O2"
_cell_formula_units_Z 56
_cell_length_a 19.488214
_cell_length_b 14.368494
_cell_length_c 8.061905
_cell_angle_alpha 90.000000
_cell_angle_beta 90.000000
_cell_angle_gamma 90.000000
_cell_volume 2257.464696
_symmetry_space_group_name_H-M "C M M A"
_symmetry_group_IT_number 67
_symmetry_cell_setting 'orthorhombic'
loop_
_space_group_symop_operation_xyz
x,y,z
-x,1/2-y,z
x,-y,-z
-x,1/2+y,-z
-x,-y,-z
x,1/2+y,-z
-x,y,z
x,1/2-y,z
1/2+x,1/2+y,z
1/2-x,-y,z
1/2+x,1/2-y,-z
1/2-x,y,-z
1/2-x,1/2-y,-z
1/2+x,y,-z
1/2-x,1/2+y,z
1/2+x,-y,z
loop_
_atom_site_type_symbol
_atom_site_label
_atom_site_fract_x
_atom_site_fract_y
_atom_site_fract_z
Si Si1 0.649865 0.859389 0.407238
Si Si2 0.250000 0.000000 0.212647
Si Si3 0.500000 0.146994 0.678385
Si Si4 0.352442 0.147019 0.196495
Si Si5 0.000000 0.893166 0.053162
O O1 0.656301 0.750000 0.350960
O O2 0.703007 0.928439 0.320502
O O3 0.572813 0.895652 0.369591
O O4 0.657199 0.857786 0.605094
O O5 0.195939 0.932028 0.123954
O O6 0.500000 0.250000 0.597992
O O7 0.500000 0.155724 0.875581
O O8 0.333058 0.250000 0.138328
O O9 0.431554 0.130707 0.152521
O O10 0.000000 0.000000 0.000000
#
# Coordination Sequence:
#
# PCOD9504189 Si02
#       5
#    16   8   8  16   8
#     4  10  21  39  65  95 126 164 210 260 315 373
#     4  12  23  38  63  96 131 166 209 260 313 376
#     4  10  21  40  63  86 117 158 206 256 305 362
#     4  11  23  41  66  95 128 166 209 260 318 377
#     4  12  25  42  64  90 123 164 213 264 315 374
#
# _framework density 24.806588000000001
#
# number of rings (size 3 to 8) (size 9 to 14) (size 15 to 20)
#    0.000    1.143    0.000    7.286    0.000    4.571 
#    0.000   10.714    0.000   10.286    0.000    0.000 
#    0.000    0.000    0.000    0.000    0.000    0.000 
#
# Total GULP energy -156878.620541 kJ/mol
# GULP energy per Si atom -5602.807876 kJ/mol
# Density = 2.475013 g / cm^3
# Si number density = 24.806588 Si / 1000 Ang^3
#
#
#
# Elastic Constant Matrix: (Units=GPa)
#
#
# Indices 1 2 3 4 5 6 
#
# 1 223.4308 86.5643 27.6435 0.0000 0.0000 0.0000
# 2 86.5643 201.5193 36.2284 0.0000 0.0000 0.0000
# 3 27.6435 36.2284 37.2272 0.0000 0.0000 0.0000
# 4 0.0000 0.0000 0.0000 29.3626 0.0000 0.0000
# 5 0.0000 0.0000 0.0000 0.0000 36.3855 0.0000
# 6 0.0000 0.0000 0.0000 0.0000 0.0000 48.8699
#
#
#
# Elastic Compliance Matrix: (Units=1/GPa)
#
#
# Indices 1 2 3 4 5 6 
#
# 1 0.005510 -0.001977 -0.002167 0.000000 0.000000 0.000000
# 2 -0.001977 0.006724 -0.005075 0.000000 0.000000 0.000000
# 3 -0.002167 -0.005075 0.033411 0.000000 0.000000 0.000000
# 4 0.000000 0.000000 0.000000 0.034057 0.000000 0.000000
# 5 0.000000 0.000000 0.000000 0.000000 0.027483 0.000000
# 6 0.000000 0.000000 0.000000 0.000000 0.000000 0.020462
#
#
# Mechanical properties :
#
#
# Convention : Reuss Voigt Hill
#
# Bulk Modulus (GPa) = 36.75830 84.78331 60.77080
# Shear Modulus (GPa) = 32.22571 43.70633 37.96602
#
# Velocity S-wave (km/s) = 3.60818 4.20203 3.91638
# Velocity P-wave (km/s) = 5.67528 7.60228 6.70833
#
# Compressibility (1/GPa) = 0.02720474
#
# Stress axis : x y z
#
# Youngs Moduli (GPa) = 181.49425 148.71961 29.93053
#
# Poissons Ratio (x) = 0.29404 0.06487
# Poissons Ratio (y) = 0.35884 0.15191
# Poissons Ratio (z) = 0.39335 0.75483
#
# Static dielectric constant tensor:
#      x y z
#    x 1.946810 0.000000 0.000000 
#    y 0.000000 1.918610 0.000000 
#    z 0.000000 0.000000 1.940150 
# 
# From -- ./inp_files/10580.got.cif
#   From: 2010.05.17/outbox.cif.g08.bks.cpg/sg67_6_cif.got.tgz:10580.got - 2010.06.03 18:28:57.
