data_PCOD9504798
_publ_section_title
;
Structure prediction by ZEFSAII (Michael W. Deem and Ramdas Pophale) SiO2 
 PCOD9504798
Probable space group: C M M A
;
_chemical_formula_sum "Si O2"
_cell_formula_units_Z 112
_cell_length_a 28.396739
_cell_length_b 15.274405
_cell_length_c 11.462781
_cell_angle_alpha 90.000000
_cell_angle_beta 90.000000
_cell_angle_gamma 90.000000
_cell_volume 4971.904368
_symmetry_space_group_name_H-M "C M M A"
_symmetry_group_IT_number 67
_symmetry_cell_setting 'orthorhombic'
loop_
_space_group_symop_operation_xyz
x,y,z
-x,1/2-y,z
x,-y,-z
-x,1/2+y,-z
-x,-y,-z
x,1/2+y,-z
-x,y,z
x,1/2-y,z
1/2+x,1/2+y,z
1/2-x,-y,z
1/2+x,1/2-y,-z
1/2-x,y,-z
1/2-x,1/2-y,-z
1/2+x,y,-z
1/2-x,1/2+y,z
1/2+x,-y,z
loop_
_atom_site_type_symbol
_atom_site_label
_atom_site_fract_x
_atom_site_fract_y
_atom_site_fract_z
Si Si1 0.946796 0.475249 0.732444
Si Si2 0.102620 0.345247 0.301672
Si Si3 0.194937 0.104839 0.736999
Si Si4 0.200646 0.902466 0.788027
Si Si5 0.842568 0.352219 0.989688
Si Si6 0.551812 0.645923 0.961735
Si Si7 0.885518 0.847318 0.420921
O O1 0.926139 0.572062 0.743962
O O2 0.947192 0.419010 0.851311
O O3 0.914927 0.421674 0.642850
O O4 0.000000 0.480580 0.688943
O O5 0.081818 0.250000 0.271279
O O6 0.155924 0.349602 0.256328
O O7 0.107073 0.352995 0.441537
O O8 0.248597 0.134666 0.754700
O O9 0.166005 0.130129 0.853367
O O10 0.167860 0.140156 0.624420
O O11 0.196267 0.999585 0.735808
O O12 0.192394 0.905685 0.927343
O O13 0.833088 0.250000 0.010235
O O14 0.897359 0.370214 0.020139
O O15 0.500000 0.631653 0.019578
O O16 0.553134 0.750000 0.929397
O O17 0.901050 0.750000 0.382712
#
# Coordination Sequence:
#
# PCOD9504798 Si02
#       7
#    16  16  16  16  16  16  16
#     4  11  22  40  67  96 127 164 210 267 323 373
#     4  11  25  43  62  90 131 173 214 258 313 387
#     4  11  23  40  65  92 124 164 219 273 316 375
#     4  11  24  41  62  91 126 173 214 255 323 392
#     4  11  21  36  61  92 130 168 209 265 320 376
#     4   9  18  35  63  98 131 169 220 271 320 377
#     4  11  23  41  67  96 125 163 213 269 323 376
#
# _framework density 22.526579999999999
#
# number of rings (size 3 to 8) (size 9 to 14) (size 15 to 20)
#    0.000    1.286    2.857    2.571    0.000    6.857 
#    0.000    5.000    0.000    4.286    0.000    0.000 
#    0.000    0.000    0.000    0.000    0.000    0.000 
#
# Total GULP energy -313226.386322 kJ/mol
# GULP energy per Si atom -5593.328327 kJ/mol
# Density = 2.247531 g / cm^3
# Si number density = 22.526580 Si / 1000 Ang^3
#
#
#
# Elastic Constant Matrix: (Units=GPa)
#
#
# Indices 1 2 3 4 5 6 
#
# 1 138.2505 36.0583 5.0691 0.0000 0.0000 0.0000
# 2 36.0583 114.6960 23.4808 0.0000 0.0000 0.0000
# 3 5.0691 23.4808 29.7236 0.0000 0.0000 0.0000
# 4 0.0000 0.0000 0.0000 50.2421 0.0000 0.0000
# 5 0.0000 0.0000 0.0000 0.0000 10.6984 0.0000
# 6 0.0000 0.0000 0.0000 0.0000 0.0000 13.8866
#
#
#
# Elastic Compliance Matrix: (Units=1/GPa)
#
#
# Indices 1 2 3 4 5 6 
#
# 1 0.007893 -0.002631 0.000733 0.000000 0.000000 0.000000
# 2 -0.002631 0.011278 -0.008461 0.000000 0.000000 0.000000
# 3 0.000733 -0.008461 0.040202 0.000000 0.000000 0.000000
# 4 0.000000 0.000000 0.000000 0.019904 0.000000 0.000000
# 5 0.000000 0.000000 0.000000 0.000000 0.093472 0.000000
# 6 0.000000 0.000000 0.000000 0.000000 0.000000 0.072012
#
#
# Mechanical properties :
#
#
# Convention : Reuss Voigt Hill
#
# Bulk Modulus (GPa) = 25.87047 45.76519 35.81783
# Shear Modulus (GPa) = 17.96216 29.50289 23.73253
#
# Velocity S-wave (km/s) = 2.82685 3.62289 3.24934
# Velocity P-wave (km/s) = 4.70788 6.15310 5.47836
#
# Compressibility (1/GPa) = 0.03865411
#
# Stress axis : x y z
#
# Youngs Moduli (GPa) = 126.69970 88.66830 24.87446
#
# Poissons Ratio (x) = 0.23331 -0.01822
# Poissons Ratio (y) = 0.33338 0.21045
# Poissons Ratio (z) = -0.09282 0.75018
#
# Static dielectric constant tensor:
#      x y z
#    x 1.828150 0.000000 0.000000 
#    y 0.000000 1.843280 0.000000 
#    z 0.000000 0.000000 1.851220 
# 
# From -- ./inp_files/23799.got.cif
#   From: 2010.05.17/outbox.cif.g08.bks.cpg/sg67_12_cif.got.tgz:23799.got - 2010.06.03 18:28:57.
