data_PCOD9504126
_publ_section_title
;
Structure prediction by ZEFSAII (Michael W. Deem and Ramdas Pophale) SiO2 
 PCOD9504126
Probable space group: C M M A
;
_chemical_formula_sum "Si O2"
_cell_formula_units_Z 96
_cell_length_a 21.835558
_cell_length_b 13.899163
_cell_length_c 16.084074
_cell_angle_alpha 90.000000
_cell_angle_beta 90.000000
_cell_angle_gamma 90.000000
_cell_volume 4881.451798
_symmetry_space_group_name_H-M "C M M A"
_symmetry_group_IT_number 67
_symmetry_cell_setting 'orthorhombic'
loop_
_space_group_symop_operation_xyz
x,y,z
-x,1/2-y,z
x,-y,-z
-x,1/2+y,-z
-x,-y,-z
x,1/2+y,-z
-x,y,z
x,1/2-y,z
1/2+x,1/2+y,z
1/2-x,-y,z
1/2+x,1/2-y,-z
1/2-x,y,-z
1/2-x,1/2-y,-z
1/2+x,y,-z
1/2-x,1/2+y,z
1/2+x,-y,z
loop_
_atom_site_type_symbol
_atom_site_label
_atom_site_fract_x
_atom_site_fract_y
_atom_site_fract_z
Si Si1 0.179721 0.485742 0.637656
Si Si2 0.156606 0.864021 0.070574
Si Si3 0.201259 0.636975 0.887702
Si Si4 0.000000 0.134762 0.451752
Si Si5 0.000000 0.367934 0.254894
Si Si6 0.885049 0.505959 0.797236
Si Si7 0.864813 0.635832 0.512826
O O1 0.250000 0.500000 0.661971
O O2 0.134528 0.455399 0.711628
O O3 0.173232 0.409894 0.562411
O O4 0.156688 0.586097 0.597927
O O5 0.143406 0.750000 0.079067
O O6 0.226784 0.880964 0.100412
O O7 0.113026 0.929564 0.127155
O O8 0.163346 0.885859 0.972412
O O9 0.194201 0.750000 0.873039
O O10 0.172332 0.574609 0.816574
O O11 0.000000 0.109019 0.353931
O O12 0.063397 0.107900 0.495656
O O13 0.000000 0.250000 0.451325
O O14 0.941878 0.422616 0.215128
O O15 0.000000 0.250000 0.244555
O O16 0.858793 0.750000 0.515797
#
# Coordination Sequence:
#
# PCOD9504126 Si02
#       7
#    16  16  16   8   8  16  16
#     4  11  24  36  54  89 117 142 188 235 292 361
#     4   9  19  36  59  89 123 157 194 232 285 356
#     4   9  18  35  61  90 119 155 197 240 283 341
#     4   9  18  38  64  82  99 144 200 235 274 330
#     4  11  24  41  59  87 114 144 202 255 291 343
#     4  12  22  37  59  85 117 156 192 246 298 340
#     4  10  21  39  59  79 112 152 188 234 284 335
#
# _framework density 19.666281000000001
#
# number of rings (size 3 to 8) (size 9 to 14) (size 15 to 20)
#    0.000    1.833    1.667    4.500    0.000    6.000 
#    0.000    2.083    0.000    2.000    0.000    0.000 
#    0.000    0.000    0.000    0.000    0.000    0.000 
#
# Total GULP energy -267819.039477 kJ/mol
# GULP energy per Si atom -5579.563322 kJ/mol
# Density = 1.962152 g / cm^3
# Si number density = 19.666281 Si / 1000 Ang^3
#
#
#
# Elastic Constant Matrix: (Units=GPa)
#
#
# Indices 1 2 3 4 5 6 
#
# 1 63.4988 20.6927 8.7308 0.0000 0.0000 0.0000
# 2 20.6927 87.2047 15.7823 0.0000 0.0000 0.0000
# 3 8.7308 15.7823 47.5602 0.0000 0.0000 0.0000
# 4 0.0000 0.0000 0.0000 18.6281 0.0000 0.0000
# 5 0.0000 0.0000 0.0000 0.0000 42.2999 0.0000
# 6 0.0000 0.0000 0.0000 0.0000 0.0000 29.2504
#
#
#
# Elastic Compliance Matrix: (Units=1/GPa)
#
#
# Indices 1 2 3 4 5 6 
#
# 1 0.017232 -0.003741 -0.001922 0.000000 0.000000 0.000000
# 2 -0.003741 0.013012 -0.003631 0.000000 0.000000 0.000000
# 3 -0.001922 -0.003631 0.022584 0.000000 0.000000 0.000000
# 4 0.000000 0.000000 0.000000 0.053682 0.000000 0.000000
# 5 0.000000 0.000000 0.000000 0.000000 0.023641 0.000000
# 6 0.000000 0.000000 0.000000 0.000000 0.000000 0.034188
#
#
# Mechanical properties :
#
#
# Convention : Reuss Voigt Hill
#
# Bulk Modulus (GPa) = 29.20609 32.07503 30.64056
# Shear Modulus (GPa) = 25.72816 28.23953 26.98384
#
# Velocity S-wave (km/s) = 3.62088 3.79349 3.70819
# Velocity P-wave (km/s) = 5.68895 5.96091 5.82652
#
# Compressibility (1/GPa) = 0.03423943
#
# Stress axis : x y z
#
# Youngs Moduli (GPa) = 58.03261 76.85125 44.27960
#
# Poissons Ratio (x) = 0.28751 0.08510
# Poissons Ratio (y) = 0.21710 0.16079
# Poissons Ratio (z) = 0.11153 0.27906
#
# Static dielectric constant tensor:
#      x y z
#    x 1.700070 0.000000 0.000000 
#    y 0.000000 1.694260 0.000000 
#    z 0.000000 0.000000 1.694240 
# 
# From -- ./inp_files/29361.got.cif
#   From: 2010.05.17/outbox.cif.g08.bks.cpg/sg67_15_cif.got.tgz:29361.got - 2010.06.03 18:28:57.
