data_PCOD9504034
_publ_section_title
;
Structure prediction by ZEFSAII (Michael W. Deem and Ramdas Pophale) SiO2 
 PCOD9504034
Probable space group: C M M A
;
_chemical_formula_sum "Si O2"
_cell_formula_units_Z 96
_cell_length_a 8.178513
_cell_length_b 19.248600
_cell_length_c 31.881885
_cell_angle_alpha 90.000000
_cell_angle_beta 90.000000
_cell_angle_gamma 90.000000
_cell_volume 5019.003366
_symmetry_space_group_name_H-M "C M M A"
_symmetry_group_IT_number 67
_symmetry_cell_setting 'orthorhombic'
loop_
_space_group_symop_operation_xyz
x,y,z
-x,1/2-y,z
x,-y,-z
-x,1/2+y,-z
-x,-y,-z
x,1/2+y,-z
-x,y,z
x,1/2-y,z
1/2+x,1/2+y,z
1/2-x,-y,z
1/2+x,1/2-y,-z
1/2-x,y,-z
1/2-x,1/2-y,-z
1/2+x,y,-z
1/2-x,1/2+y,z
1/2+x,-y,z
loop_
_atom_site_type_symbol
_atom_site_label
_atom_site_fract_x
_atom_site_fract_y
_atom_site_fract_z
Si Si1 0.805326 0.920449 0.875392
Si Si2 0.697363 0.670144 0.454634
Si Si3 0.200292 0.330116 0.203841
Si Si4 0.802539 0.420664 0.282643
Si Si5 0.697562 0.079070 0.623180
Si Si6 0.304614 0.670944 0.952954
O O1 0.743084 0.874881 0.836091
O O2 0.755317 0.882538 0.918223
O O3 0.000000 0.920198 0.872943
O O4 0.750000 0.000000 0.873506
O O5 0.500000 0.670510 0.453597
O O6 0.754731 0.750000 0.451949
O O7 0.750000 0.641856 0.500000
O O8 0.757265 0.626916 0.414732
O O9 0.252758 0.250000 0.201634
O O10 0.253616 0.368711 0.246368
O O11 0.000000 0.329984 0.203644
O O12 0.750000 0.500000 0.274112
O O13 0.746360 0.401473 0.329745
O O14 0.000000 0.419365 0.282700
O O15 0.500000 0.082333 0.623340
O O16 0.750000 0.000000 0.616004
O O17 0.500000 0.672145 0.951982
O O18 0.244163 0.750000 0.944206
O O19 0.250000 0.652582 0.000000
#
# Coordination Sequence:
#
# PCOD9504034 Si02
#       6
#    16  16  16  16  16  16
#     4  11  22  36  55  79 109 143 179 218 260 307
#     4   9  18  32  48  67  92 123 160 201 245 292
#     4   9  18  32  52  78 104 132 169 211 254 301
#     4   9  17  31  51  73  99 130 163 201 246 296
#     4   9  18  31  48  71  97 126 160 200 245 293
#     4  10  21  38  60  85 112 142 177 217 262 311
#
# _framework density 19.127302
#
# number of rings (size 3 to 8) (size 9 to 14) (size 15 to 20)
#    0.000    2.500    0.000    2.000    0.000    3.667 
#    0.000    7.500    0.000    2.500    0.000    4.667 
#    0.000    0.000    0.000    0.000    0.000    0.000 
#
# Total GULP energy -267854.775753 kJ/mol
# GULP energy per Si atom -5580.307828 kJ/mol
# Density = 1.908377 g / cm^3
# Si number density = 19.127302 Si / 1000 Ang^3
#
#
#
# Elastic Constant Matrix: (Units=GPa)
#
#
# Indices 1 2 3 4 5 6 
#
# 1 15.8040 15.1134 17.9527 0.0000 0.0000 0.0000
# 2 15.1134 149.6067 140.1003 0.0000 0.0000 0.0000
# 3 17.9527 140.1003 195.4356 0.0000 0.0000 0.0000
# 4 0.0000 0.0000 0.0000 46.0392 0.0000 0.0000
# 5 0.0000 0.0000 0.0000 0.0000 13.4461 0.0000
# 6 0.0000 0.0000 0.0000 0.0000 0.0000 21.0487
#
#
#
# Elastic Compliance Matrix: (Units=1/GPa)
#
#
# Indices 1 2 3 4 5 6 
#
# 1 0.071162 -0.003247 -0.004209 0.000000 0.000000 0.000000
# 2 -0.003247 0.020484 -0.014386 0.000000 0.000000 0.000000
# 3 -0.004209 -0.014386 0.015816 0.000000 0.000000 0.000000
# 4 0.000000 0.000000 0.000000 0.021721 0.000000 0.000000
# 5 0.000000 0.000000 0.000000 0.000000 0.074371 0.000000
# 6 0.000000 0.000000 0.000000 0.000000 0.000000 0.047509
#
#
# Mechanical properties :
#
#
# Convention : Reuss Voigt Hill
#
# Bulk Modulus (GPa) = 15.67956 78.57548 47.12752
# Shear Modulus (GPa) = 15.82251 28.61881 22.22066
#
# Velocity S-wave (km/s) = 2.87927 3.87231 3.41211
# Velocity P-wave (km/s) = 4.38963 7.82064 6.34158
#
# Compressibility (1/GPa) = 0.06377732
#
# Stress axis : x y z
#
# Youngs Moduli (GPa) = 14.05253 48.81847 63.22648
#
# Poissons Ratio (x) = 0.15852 0.26613
# Poissons Ratio (y) = 0.04563 0.90957
# Poissons Ratio (z) = 0.05915 0.70230
#
# Static dielectric constant tensor:
#      x y z
#    x 1.673060 0.000000 0.000000 
#    y 0.000000 1.647120 0.000000 
#    z 0.000000 0.000000 1.671820 
# 
# From -- ./inp_files/43452.got.cif
#   From: 2010.05.17/outbox.cif.g08.bks.cpg/sg67_22_cif.got.tgz:43452.got - 2010.06.03 18:28:57.
