data_PCOD9504335
_publ_section_title
;
Structure prediction by ZEFSAII (Michael W. Deem and Ramdas Pophale) SiO2 
 PCOD9504335
Probable space group: C M M A
;
_chemical_formula_sum "Si O2"
_cell_formula_units_Z 80
_cell_length_a 30.208463
_cell_length_b 26.786975
_cell_length_c 5.270427
_cell_angle_alpha 90.000000
_cell_angle_beta 90.000000
_cell_angle_gamma 90.000000
_cell_volume 4264.794444
_symmetry_space_group_name_H-M "C M M A"
_symmetry_group_IT_number 67
_symmetry_cell_setting 'orthorhombic'
loop_
_space_group_symop_operation_xyz
x,y,z
-x,1/2-y,z
x,-y,-z
-x,1/2+y,-z
-x,-y,-z
x,1/2+y,-z
-x,y,z
x,1/2-y,z
1/2+x,1/2+y,z
1/2-x,-y,z
1/2+x,1/2-y,-z
1/2-x,y,-z
1/2-x,1/2-y,-z
1/2+x,y,-z
1/2-x,1/2+y,z
1/2+x,-y,z
loop_
_atom_site_type_symbol
_atom_site_label
_atom_site_fract_x
_atom_site_fract_y
_atom_site_fract_z
Si Si1 0.630243 0.443339 0.398538
Si Si2 0.546921 0.058513 0.043357
Si Si3 0.447013 0.691165 0.825059
Si Si4 0.230465 0.056964 0.750778
Si Si5 0.581812 0.133104 0.683411
O O1 0.623964 0.500000 0.500000
O O2 0.590273 0.431676 0.207712
O O3 0.677811 0.443803 0.265034
O O4 0.625593 0.399049 0.606662
O O5 0.500000 0.072403 0.166986
O O6 0.550687 0.087725 0.779015
O O7 0.546800 0.000000 0.000000
O O8 0.500000 0.685422 0.871850
O O9 0.438074 0.750000 0.802766
O O10 0.434314 0.664044 0.560922
O O11 0.420726 0.668285 0.066925
O O12 0.250000 0.081250 0.500000
O O13 0.250000 0.000000 0.750499
O O14 0.250000 0.081318 0.000000
#
# Coordination Sequence:
#
# PCOD9504335 Si02
#       5
#    16  16  16  16  16
#     4  12  24  39  60  90 133 177 211 254 311 373
#     4  11  24  36  53  84 129 180 216 242 287 368
#     4  11  24  43  64  86 116 163 223 284 333 366
#     4  10  22  37  61  84 116 166 209 262 307 357
#     4  12  24  38  62  88 123 166 220 262 312 373
#
# _framework density 18.758232
#
# number of rings (size 3 to 8) (size 9 to 14) (size 15 to 20)
#    0.000    0.800    6.000    2.400    5.600    3.600 
#    0.000    0.000    0.000    0.000    0.000    0.000 
#    0.000   16.000    0.000    0.000    0.000    0.000 
#
# Total GULP energy -223000.753965 kJ/mol
# GULP energy per Si atom -5575.018849 kJ/mol
# Density = 1.871554 g / cm^3
# Si number density = 18.758232 Si / 1000 Ang^3
#
#
#
# Elastic Constant Matrix: (Units=GPa)
#
#
# Indices 1 2 3 4 5 6 
#
# 1 142.4848 25.2056 58.7307 0.0000 0.0000 0.0000
# 2 25.2056 145.3137 55.7715 0.0000 0.0000 0.0000
# 3 58.7307 55.7715 159.6877 0.0000 0.0000 0.0000
# 4 0.0000 0.0000 0.0000 26.3782 0.0000 0.0000
# 5 0.0000 0.0000 0.0000 0.0000 40.8712 0.0000
# 6 0.0000 0.0000 0.0000 0.0000 0.0000 13.7035
#
#
#
# Elastic Compliance Matrix: (Units=1/GPa)
#
#
# Indices 1 2 3 4 5 6 
#
# 1 0.008284 -0.000309 -0.002939 0.000000 0.000000 0.000000
# 2 -0.000309 0.007958 -0.002666 0.000000 0.000000 0.000000
# 3 -0.002939 -0.002666 0.008274 0.000000 0.000000 0.000000
# 4 0.000000 0.000000 0.000000 0.037910 0.000000 0.000000
# 5 0.000000 0.000000 0.000000 0.000000 0.024467 0.000000
# 6 0.000000 0.000000 0.000000 0.000000 0.000000 0.072974
#
#
# Mechanical properties :
#
#
# Convention : Reuss Voigt Hill
#
# Bulk Modulus (GPa) = 78.80629 80.76689 79.78659
# Shear Modulus (GPa) = 28.42112 36.70912 32.56512
#
# Velocity S-wave (km/s) = 3.89669 4.42855 4.17111
# Velocity P-wave (km/s) = 7.89610 8.32464 8.11320
#
# Compressibility (1/GPa) = 0.01268934
#
# Stress axis : x y z
#
# Youngs Moduli (GPa) = 120.70948 125.65302 120.85782
#
# Poissons Ratio (x) = 0.03883 0.35519
# Poissons Ratio (y) = 0.03730 0.32219
# Poissons Ratio (z) = 0.35476 0.33497
#
# Static dielectric constant tensor:
#      x y z
#    x 1.656310 0.000000 0.000000 
#    y 0.000000 1.660800 0.000000 
#    z 0.000000 0.000000 1.734640 
# 
# From -- ./inp_files/4212.got.cif
#   From: 2010.05.17/outbox.cif.g08.bks.cpg/sg67_3_cif.got.tgz:4212.got - 2010.06.03 18:28:57.
