data_PCOD9504530
_publ_section_title
;
Structure prediction by ZEFSAII (Michael W. Deem and Ramdas Pophale) SiO2 
 PCOD9504530
Probable space group: C M M A
;
_chemical_formula_sum "Si O2"
_cell_formula_units_Z 64
_cell_length_a 17.966530
_cell_length_b 30.879783
_cell_length_c 5.192107
_cell_angle_alpha 90.000000
_cell_angle_beta 90.000000
_cell_angle_gamma 90.000000
_cell_volume 2880.594191
_symmetry_space_group_name_H-M "C M M A"
_symmetry_group_IT_number 67
_symmetry_cell_setting 'orthorhombic'
loop_
_space_group_symop_operation_xyz
x,y,z
-x,1/2-y,z
x,-y,-z
-x,1/2+y,-z
-x,-y,-z
x,1/2+y,-z
-x,y,z
x,1/2-y,z
1/2+x,1/2+y,z
1/2-x,-y,z
1/2+x,1/2-y,-z
1/2-x,y,-z
1/2-x,1/2-y,-z
1/2+x,y,-z
1/2-x,1/2+y,z
1/2+x,-y,z
loop_
_atom_site_type_symbol
_atom_site_label
_atom_site_fract_x
_atom_site_fract_y
_atom_site_fract_z
Si Si1 0.590433 0.974777 0.745973
Si Si2 0.085846 0.117960 0.928739
Si Si3 0.200721 0.341370 0.252524
Si Si4 0.916144 0.702333 0.431579
O O1 0.500000 0.977229 0.739736
O O2 0.607113 0.923987 0.764193
O O3 0.619622 0.000000 0.500000
O O4 0.615235 0.000000 0.000000
O O5 0.090830 0.162422 0.766010
O O6 0.000000 0.112818 0.014657
O O7 0.142751 0.122100 0.162777
O O8 0.250000 0.353155 0.500000
O O9 0.146865 0.303397 0.353932
O O10 0.250000 0.331119 0.000000
O O11 0.909101 0.750000 0.310173
O O12 0.000000 0.699309 0.542758
#
# Coordination Sequence:
#
# PCOD9504530 Si02
#       4
#    16  16  16  16
#     4   9  19  34  60  99 132 161 210 273 330 387
#     4  10  22  42  70  99 137 179 223 280 346 400
#     4  12  25  44  65  97 135 181 227 277 327 400
#     4  10  23  44  70 101 134 173 224 278 337 404
#
# _framework density 22.217638999999998
#
# number of rings (size 3 to 8) (size 9 to 14) (size 15 to 20)
#    0.000    1.750    2.500    0.750    3.500    2.000 
#    0.000    2.500    0.000    0.750    6.500    0.000 
#    0.000    0.000    0.000    0.000    0.000    1.250 
#
# Total GULP energy -178726.688922 kJ/mol
# GULP energy per Si atom -5585.209029 kJ/mol
# Density = 2.216707 g / cm^3
# Si number density = 22.217639 Si / 1000 Ang^3
#
#
#
# Elastic Constant Matrix: (Units=GPa)
#
#
# Indices 1 2 3 4 5 6 
#
# 1 121.0630 37.3876 64.9825 0.0000 0.0000 0.0000
# 2 37.3876 173.5043 77.4751 0.0000 0.0000 0.0000
# 3 64.9825 77.4751 156.6305 0.0000 0.0000 0.0000
# 4 0.0000 0.0000 0.0000 29.8625 0.0000 0.0000
# 5 0.0000 0.0000 0.0000 0.0000 -231.5616 0.0000
# 6 0.0000 0.0000 0.0000 0.0000 0.0000 -21.0805
#
#
#
# Elastic Compliance Matrix: (Units=1/GPa)
#
#
# Indices 1 2 3 4 5 6 
#
# 1 0.010650 -0.000413 -0.004214 0.000000 0.000000 0.000000
# 2 -0.000413 0.007413 -0.003496 0.000000 0.000000 0.000000
# 3 -0.004214 -0.003496 0.009862 0.000000 0.000000 0.000000
# 4 0.000000 0.000000 0.000000 0.033487 0.000000 0.000000
# 5 0.000000 0.000000 0.000000 0.000000 -0.004319 0.000000
# 6 0.000000 0.000000 0.000000 0.000000 0.000000 -0.047437
#
#
# Mechanical properties :
#
#
# Convention : Reuss Voigt Hill
#
# Bulk Modulus (GPa) = 85.61985 90.09869 87.85927
# Shear Modulus (GPa) = 167.81718 -26.46573 70.67572
#
# Velocity S-wave (km/s) = 8.70042 -3.45513 5.64621
# Velocity P-wave (km/s) = 11.81314 4.97228 9.06294
#
# Compressibility (1/GPa) = 0.01167953
#
# Stress axis : x y z
#
# Youngs Moduli (GPa) = 93.89971 134.89004 101.40203
#
# Poissons Ratio (x) = 0.05574 0.42730
# Poissons Ratio (y) = 0.03880 0.35445
# Poissons Ratio (z) = 0.39569 0.47151
#
# Static dielectric constant tensor:
#      x y z
#    x 1.854520 0.000000 0.000000 
#    y 0.000000 1.811650 0.000000 
#    z 0.000000 0.000000 1.840810 
# 
# From -- ./inp_files/2221.got.cif
#   From: 2010.05.17/outbox.cif.g08.bks.cpg/sg67_2_cif.got.tgz:2221.got - 2010.06.03 18:28:57.
