data_PCOD9504858
_publ_section_title
;
Structure prediction by ZEFSAII (Michael W. Deem and Ramdas Pophale) SiO2 
 PCOD9504858
Probable space group: C M M A
;
_chemical_formula_sum "Si O2"
_cell_formula_units_Z 112
_cell_length_a 16.124660
_cell_length_b 14.768084
_cell_length_c 23.460191
_cell_angle_alpha 90.000000
_cell_angle_beta 90.000000
_cell_angle_gamma 90.000000
_cell_volume 5586.583103
_symmetry_space_group_name_H-M "C M M A"
_symmetry_group_IT_number 67
_symmetry_cell_setting 'orthorhombic'
loop_
_space_group_symop_operation_xyz
x,y,z
-x,1/2-y,z
x,-y,-z
-x,1/2+y,-z
-x,-y,-z
x,1/2+y,-z
-x,y,z
x,1/2-y,z
1/2+x,1/2+y,z
1/2-x,-y,z
1/2+x,1/2-y,-z
1/2-x,y,-z
1/2-x,1/2-y,-z
1/2+x,y,-z
1/2-x,1/2+y,z
1/2+x,-y,z
loop_
_atom_site_type_symbol
_atom_site_label
_atom_site_fract_x
_atom_site_fract_y
_atom_site_fract_z
Si Si1 0.852124 0.850390 0.841827
Si Si2 0.273132 0.640527 0.633243
Si Si3 0.701859 0.856758 0.761032
Si Si4 0.910118 0.854088 0.597291
Si Si5 0.906615 0.047406 0.857121
Si Si6 0.211938 0.145868 0.939629
Si Si7 0.659483 0.104962 0.483494
O O1 0.890858 0.750000 0.840346
O O2 0.795328 0.862576 0.785594
O O3 0.785633 0.851481 0.893401
O O4 0.905802 0.939119 0.850914
O O5 0.269148 0.750000 0.633369
O O6 0.299356 0.611279 0.696096
O O7 0.178992 0.607096 0.618357
O O8 0.339076 0.614824 0.584235
O O9 0.679303 0.750000 0.763797
O O10 0.643290 0.911545 0.803558
O O11 0.911327 0.750000 0.617353
O O12 0.903592 0.852940 0.528238
O O13 0.000000 0.895689 0.613031
O O14 0.856916 0.080458 0.913038
O O15 0.000000 0.081724 0.858345
O O16 0.180518 0.250000 0.944946
O O17 0.250000 0.118172 0.000000
O O18 0.750000 0.143459 0.500000
O O19 0.658021 0.000000 0.500000
#
# Coordination Sequence:
#
# PCOD9504858 Si02
#       7
#    16  16  16  16  16  16  16
#     4   9  19  37  57  79 112 158 204 240 281 340
#     4   9  17  32  55  76  98 135 183 227 272 341
#     4   9  18  35  59  83 106 146 198 244 290 349
#     4   9  17  30  48  70  97 129 166 213 268 322
#     4  11  22  36  57  89 123 155 189 242 306 347
#     4   9  18  35  61  89 118 158 203 239 276 333
#     4   9  17  30  45  71 101 133 172 212 263 328
#
# _framework density 20.048033
#
# number of rings (size 3 to 8) (size 9 to 14) (size 15 to 20)
#    0.000    2.714    0.000    3.429    0.000    4.571 
#   10.286    2.857    0.000    6.000    0.000    0.000 
#    0.000    0.000    0.000    0.000    0.000    0.000 
#
# Total GULP energy -312067.923171 kJ/mol
# GULP energy per Si atom -5572.641485 kJ/mol
# Density = 2.000240 g / cm^3
# Si number density = 20.048033 Si / 1000 Ang^3
#
#
#
# Elastic Constant Matrix: (Units=GPa)
#
#
# Indices 1 2 3 4 5 6 
#
# 1 71.9587 28.1407 20.8946 0.0000 0.0000 0.0000
# 2 28.1407 87.9666 26.0259 0.0000 0.0000 0.0000
# 3 20.8946 26.0259 130.7858 0.0000 0.0000 0.0000
# 4 0.0000 0.0000 0.0000 2.7040 0.0000 0.0000
# 5 0.0000 0.0000 0.0000 0.0000 9.3229 0.0000
# 6 0.0000 0.0000 0.0000 0.0000 0.0000 -10.4385
#
#
#
# Elastic Compliance Matrix: (Units=1/GPa)
#
#
# Indices 1 2 3 4 5 6 
#
# 1 0.016215 -0.004697 -0.001656 0.000000 0.000000 0.000000
# 2 -0.004697 0.013440 -0.001924 0.000000 0.000000 0.000000
# 3 -0.001656 -0.001924 0.008293 0.000000 0.000000 0.000000
# 4 0.000000 0.000000 0.000000 0.369829 0.000000 0.000000
# 5 0.000000 0.000000 0.000000 0.000000 0.107263 0.000000
# 6 0.000000 0.000000 0.000000 0.000000 0.000000 -0.095800
#
#
# Mechanical properties :
#
#
# Convention : Reuss Voigt Hill
#
# Bulk Modulus (GPa) = 46.74227 48.98151 47.86189
# Shear Modulus (GPa) = 11.28857 14.69433 12.99145
#
# Velocity S-wave (km/s) = 2.37550 2.71025 2.54838
# Velocity P-wave (km/s) = 5.55785 5.85483 5.70828
#
# Compressibility (1/GPa) = 0.02139391
#
# Stress axis : x y z
#
# Youngs Moduli (GPa) = 61.67295 74.40559 120.57649
#
# Poissons Ratio (x) = 0.34950 0.19964
# Poissons Ratio (y) = 0.28969 0.23199
# Poissons Ratio (z) = 0.10211 0.14316
#
# Static dielectric constant tensor:
#      x y z
#    x 1.694520 0.000000 0.000000 
#    y 0.000000 1.762400 0.000000 
#    z 0.000000 0.000000 1.721450 
# 
# From -- ./inp_files/41998.got.cif
#   From: 2010.05.17/outbox.cif.g08.bks.cpg/sg67_21_cif.got.tgz:41998.got - 2010.06.03 18:28:57.
