data_PCOD9504204
_publ_section_title
;
Structure prediction by ZEFSAII (Michael W. Deem and Ramdas Pophale) SiO2 
 PCOD9504204
Probable space group: C M M A
;
_chemical_formula_sum "Si O2"
_cell_formula_units_Z 72
_cell_length_a 28.404838
_cell_length_b 22.278045
_cell_length_c 5.552846
_cell_angle_alpha 90.000000
_cell_angle_beta 90.000000
_cell_angle_gamma 90.000000
_cell_volume 3513.864599
_symmetry_space_group_name_H-M "C M M A"
_symmetry_group_IT_number 67
_symmetry_cell_setting 'orthorhombic'
loop_
_space_group_symop_operation_xyz
x,y,z
-x,1/2-y,z
x,-y,-z
-x,1/2+y,-z
-x,-y,-z
x,1/2+y,-z
-x,y,z
x,1/2-y,z
1/2+x,1/2+y,z
1/2-x,-y,z
1/2+x,1/2-y,-z
1/2-x,y,-z
1/2-x,1/2-y,-z
1/2+x,y,-z
1/2-x,1/2+y,z
1/2+x,-y,z
loop_
_atom_site_type_symbol
_atom_site_label
_atom_site_fract_x
_atom_site_fract_y
_atom_site_fract_z
Si Si1 0.445640 0.117148 0.507244
Si Si2 0.601532 0.071461 0.008692
Si Si3 0.350336 0.750000 0.232704
Si Si4 0.799209 0.750000 0.364375
Si Si5 0.551423 0.250000 0.685929
Si Si6 0.697307 0.359975 0.013688
O O1 0.500000 0.096289 0.514559
O O2 0.419800 0.095386 0.754057
O O3 0.445845 0.189244 0.532563
O O4 0.423121 0.096216 0.253607
O O5 0.655931 0.092269 0.026462
O O6 0.597435 0.000000 0.000000
O O7 0.350701 0.750000 0.517728
O O8 0.402998 0.750000 0.138350
O O9 0.320684 0.809990 0.179665
O O10 0.750000 0.750000 0.500000
O O11 0.798778 0.687082 0.229598
O O12 0.500000 0.250000 0.809704
O O13 0.750000 0.385744 0.000000
#
# Coordination Sequence:
#
# PCOD9504204 Si02
#       6
#    16  16   8   8   8  16
#     4  11  25  47  74 103 137 179 230 291 354 421
#     4  12  27  46  68  99 139 189 239 283 339 411
#     4  11  18  39  61  93 133 166 211 280 339 409
#     4  11  19  35  65  98 131 167 224 287 348 413
#     4  10  21  39  69 104 138 171 214 281 365 416
#     4  11  23  37  63  98 132 178 227 283 345 409
#
# _framework density 20.490258999999998
#
# number of rings (size 3 to 8) (size 9 to 14) (size 15 to 20)
#    0.000    0.889    4.444    3.333    0.000    4.889 
#    0.000    3.333    0.000    2.667    0.000    0.000 
#    0.000    0.000    0.000    0.000    0.000    0.000 
#
# Total GULP energy -200427.097023 kJ/mol
# GULP energy per Si atom -5567.419362 kJ/mol
# Density = 2.044362 g / cm^3
# Si number density = 20.490259 Si / 1000 Ang^3
#
#
#
# Elastic Constant Matrix: (Units=GPa)
#
#
# Indices 1 2 3 4 5 6 
#
# 1 199.2348 37.3255 68.8089 0.0000 0.0000 0.0000
# 2 37.3255 122.7595 41.8881 0.0000 0.0000 0.0000
# 3 68.8089 41.8881 108.6113 0.0000 0.0000 0.0000
# 4 0.0000 0.0000 0.0000 15.5045 0.0000 0.0000
# 5 0.0000 0.0000 0.0000 0.0000 29.7113 0.0000
# 6 0.0000 0.0000 0.0000 0.0000 0.0000 -0.1649
#
#
#
# Elastic Compliance Matrix: (Units=1/GPa)
#
#
# Indices 1 2 3 4 5 6 
#
# 1 0.006470 -0.000655 -0.003847 0.000000 0.000000 0.000000
# 2 -0.000655 0.009447 -0.003228 0.000000 0.000000 0.000000
# 3 -0.003847 -0.003228 0.012889 0.000000 0.000000 0.000000
# 4 0.000000 0.000000 0.000000 0.064498 0.000000 0.000000
# 5 0.000000 0.000000 0.000000 0.000000 0.033657 0.000000
# 6 0.000000 0.000000 0.000000 0.000000 0.000000 -6.064460
#
#
# Mechanical properties :
#
#
# Convention : Reuss Voigt Hill
#
# Bulk Modulus (GPa) = 74.92608 80.73897 77.83253
# Shear Modulus (GPa) = -0.84494 27.84904 13.50205
#
# Velocity S-wave (km/s) = -0.64285 3.69065 2.56979
# Velocity P-wave (km/s) = 6.00792 7.59278 6.84636
#
# Compressibility (1/GPa) = 0.01334649
#
# Stress axis : x y z
#
# Youngs Moduli (GPa) = 154.55029 105.85675 77.58383
#
# Poissons Ratio (x) = 0.06931 0.29844
# Poissons Ratio (y) = 0.10120 0.25048
# Poissons Ratio (z) = 0.59451 0.34176
#
# Static dielectric constant tensor:
#      x y z
#    x 1.943580 0.000000 0.000000 
#    y 0.000000 1.403430 0.000000 
#    z 0.000000 0.000000 1.874720 
# 
# From -- ./inp_files/4151.got.cif
#   From: 2010.05.17/outbox.cif.g08.bks.cpg/sg67_3_cif.got.tgz:4151.got - 2010.06.03 18:28:57.
