data_PCOD9504715
_publ_section_title
;
Structure prediction by ZEFSAII (Michael W. Deem and Ramdas Pophale) SiO2 
 PCOD9504715
Probable space group: C M M A
;
_chemical_formula_sum "Si O2"
_cell_formula_units_Z 96
_cell_length_a 16.837556
_cell_length_b 24.312765
_cell_length_c 13.063734
_cell_angle_alpha 90.000000
_cell_angle_beta 90.000000
_cell_angle_gamma 90.000000
_cell_volume 5347.868680
_symmetry_space_group_name_H-M "C M M A"
_symmetry_group_IT_number 67
_symmetry_cell_setting 'orthorhombic'
loop_
_space_group_symop_operation_xyz
x,y,z
-x,1/2-y,z
x,-y,-z
-x,1/2+y,-z
-x,-y,-z
x,1/2+y,-z
-x,y,z
x,1/2-y,z
1/2+x,1/2+y,z
1/2-x,-y,z
1/2+x,1/2-y,-z
1/2-x,y,-z
1/2-x,1/2-y,-z
1/2+x,y,-z
1/2-x,1/2+y,z
1/2+x,-y,z
loop_
_atom_site_type_symbol
_atom_site_label
_atom_site_fract_x
_atom_site_fract_y
_atom_site_fract_z
Si Si1 0.500000 0.684576 0.936934
Si Si2 0.158270 0.496875 0.624196
Si Si3 0.322044 0.316702 0.072349
Si Si4 0.263718 0.183509 0.712063
Si Si5 0.138422 0.375117 0.587388
Si Si6 0.906541 0.613810 0.651949
Si Si7 0.000000 0.186434 0.694977
O O1 0.500000 0.750000 0.962451
O O2 0.410289 0.663472 0.962639
O O3 0.500000 0.677216 0.814991
O O4 0.156495 0.500000 0.500000
O O5 0.250000 0.500000 0.655990
O O6 0.129882 0.434942 0.640143
O O7 0.112367 0.548942 0.669771
O O8 0.326302 0.250000 0.066561
O O9 0.291676 0.327995 0.188318
O O10 0.250000 0.335406 0.000000
O O11 0.269138 0.250000 0.699729
O O12 0.221846 0.152288 0.617128
O O13 0.349983 0.154362 0.717111
O O14 0.117460 0.378325 0.467772
O O15 0.075550 0.337174 0.640758
O O16 0.000000 0.624464 0.665316
O O17 0.000000 0.250000 0.679127
#
# Coordination Sequence:
#
# PCOD9504715 Si02
#       7
#     8  16  16  16  16  16   8
#     4   9  16  30  52  76 103 131 169 222 266 310
#     4   9  18  33  53  71  94 132 185 231 261 291
#     4   9  18  34  54  76 102 135 175 221 271 321
#     4  11  22  36  53  75 108 143 178 218 264 324
#     4  11  20  34  54  76 102 144 184 223 262 304
#     4  11  23  36  49  75 110 146 181 220 262 313
#     4  11  20  30  49  80 111 137 175 226 262 304
#
# _framework density 17.951077000000002
#
# number of rings (size 3 to 8) (size 9 to 14) (size 15 to 20)
#    0.000    1.833    4.167    1.000    1.167    3.333 
#    1.500    0.000    0.000    0.000    0.000    2.333 
#    0.000    2.667    0.000    0.000    0.000    0.000 
#
# Total GULP energy -267210.427693 kJ/mol
# GULP energy per Si atom -5566.883910 kJ/mol
# Density = 1.791022 g / cm^3
# Si number density = 17.951077 Si / 1000 Ang^3
#
#
#
# Elastic Constant Matrix: (Units=GPa)
#
#
# Indices 1 2 3 4 5 6 
#
# 1 165.8762 40.0238 18.9594 0.0000 0.0000 0.0000
# 2 40.0238 105.0145 5.5743 0.0000 0.0000 0.0000
# 3 18.9594 5.5743 27.3016 0.0000 0.0000 0.0000
# 4 0.0000 0.0000 0.0000 -1.0906 0.0000 0.0000
# 5 0.0000 0.0000 0.0000 0.0000 107.0972 0.0000
# 6 0.0000 0.0000 0.0000 0.0000 0.0000 28.7899
#
#
#
# Elastic Compliance Matrix: (Units=1/GPa)
#
#
# Indices 1 2 3 4 5 6 
#
# 1 0.007136 -0.002484 -0.004449 0.000000 0.000000 0.000000
# 2 -0.002484 0.010491 -0.000417 0.000000 0.000000 0.000000
# 3 -0.004449 -0.000417 0.039802 0.000000 0.000000 0.000000
# 4 0.000000 0.000000 0.000000 -0.916952 0.000000 0.000000
# 5 0.000000 0.000000 0.000000 0.000000 0.009337 0.000000
# 6 0.000000 0.000000 0.000000 0.000000 0.000000 0.034734
#
#
# Mechanical properties :
#
#
# Convention : Reuss Voigt Hill
#
# Bulk Modulus (GPa) = 23.40236 47.47859 35.44047
# Shear Modulus (GPa) = -6.35722 42.53495 18.08887
#
# Velocity S-wave (km/s) = -1.88391 4.87302 3.17783
# Velocity P-wave (km/s) = 2.88668 7.62680 5.76633
#
# Compressibility (1/GPa) = 0.04273073
#
# Stress axis : x y z
#
# Youngs Moduli (GPa) = 140.12747 95.31752 25.12411
#
# Poissons Ratio (x) = 0.23674 0.11177
# Poissons Ratio (y) = 0.34804 0.01048
# Poissons Ratio (z) = 0.62338 0.03977
#
# Static dielectric constant tensor:
#      x y z
#    x 1.680120 0.000000 0.000000 
#    y 0.000000 1.676940 0.000000 
#    z 0.000000 0.000000 1.612950 
# 
# From -- ./inp_files/21998.got.cif
#   From: 2010.05.17/outbox.cif.g08.bks.cpg/sg67_11_cif.got.tgz:21998.got - 2010.06.03 18:28:57.
