data_PCOD9504773
_publ_section_title
;
Structure prediction by ZEFSAII (Michael W. Deem and Ramdas Pophale) SiO2 
 PCOD9504773
Probable space group: C M M A
;
_chemical_formula_sum "Si O2"
_cell_formula_units_Z 96
_cell_length_a 23.160976
_cell_length_b 22.962295
_cell_length_c 10.324404
_cell_angle_alpha 90.000000
_cell_angle_beta 90.000000
_cell_angle_gamma 90.000000
_cell_volume 5490.819142
_symmetry_space_group_name_H-M "C M M A"
_symmetry_group_IT_number 67
_symmetry_cell_setting 'orthorhombic'
loop_
_space_group_symop_operation_xyz
x,y,z
-x,1/2-y,z
x,-y,-z
-x,1/2+y,-z
-x,-y,-z
x,1/2+y,-z
-x,y,z
x,1/2-y,z
1/2+x,1/2+y,z
1/2-x,-y,z
1/2+x,1/2-y,-z
1/2-x,y,-z
1/2-x,1/2-y,-z
1/2+x,y,-z
1/2-x,1/2+y,z
1/2+x,-y,z
loop_
_atom_site_type_symbol
_atom_site_label
_atom_site_fract_x
_atom_site_fract_y
_atom_site_fract_z
Si Si1 0.180087 0.496132 0.850065
Si Si2 0.500000 0.179032 0.104988
Si Si3 0.500000 0.320359 0.403286
Si Si4 0.625319 0.681683 0.986709
Si Si5 0.124961 0.179640 0.491733
Si Si6 0.313769 0.369963 0.256944
Si Si7 0.324366 0.378665 0.761743
O O1 0.250000 0.500000 0.855627
O O2 0.165775 0.435022 0.782781
O O3 0.161484 0.552687 0.769675
O O4 0.159941 0.500000 0.000000
O O5 0.500000 0.250000 0.107675
O O6 0.500000 0.158873 0.254359
O O7 0.440645 0.161511 0.036186
O O8 0.500000 0.250000 0.396518
O O9 0.558811 0.336427 0.475238
O O10 0.624504 0.750000 0.017674
O O11 0.659860 0.671342 0.853787
O O12 0.656144 0.647666 0.101427
O O13 0.130442 0.250000 0.493331
O O14 0.163672 0.151880 0.605324
O O15 0.144369 0.154061 0.354876
O O16 0.244449 0.370498 0.253092
#
# Coordination Sequence:
#
# PCOD9504773 Si02
#       7
#    16   8   8  16  16  16  16
#     4   9  18  36  58  80 110 152 198 231 267 333
#     4   9  18  35  57  80 106 148 204 233 259 337
#     4   9  18  37  59  76 105 155 198 223 268 342
#     4  11  21  34  57  85 112 147 189 235 284 334
#     4  11  23  38  58  85 118 153 187 230 284 343
#     4  11  21  36  60  83 113 155 188 227 282 342
#     4  11  23  36  55  87 120 147 182 236 292 332
#
# _framework density 17.483730000000001
#
# number of rings (size 3 to 8) (size 9 to 14) (size 15 to 20)
#    0.000    1.667    3.333    2.000    0.000    5.333 
#    0.000    5.000    0.000    6.000    0.000    0.000 
#    0.000    0.000    0.000    0.000    0.000    0.000 
#
# Total GULP energy -267892.251406 kJ/mol
# GULP energy per Si atom -5581.088571 kJ/mol
# Density = 1.744394 g / cm^3
# Si number density = 17.483730 Si / 1000 Ang^3
#
#
#
# Elastic Constant Matrix: (Units=GPa)
#
#
# Indices 1 2 3 4 5 6 
#
# 1 73.8914 5.5674 -8.0227 0.0000 0.0000 0.0000
# 2 5.5674 65.8975 -6.1054 0.0000 0.0000 0.0000
# 3 -8.0227 -6.1054 29.3192 0.0000 0.0000 0.0000
# 4 0.0000 0.0000 0.0000 24.8261 0.0000 0.0000
# 5 0.0000 0.0000 0.0000 0.0000 101.8162 0.0000
# 6 0.0000 0.0000 0.0000 0.0000 0.0000 -40.6117
#
#
#
# Elastic Compliance Matrix: (Units=1/GPa)
#
#
# Indices 1 2 3 4 5 6 
#
# 1 0.013994 -0.000844 0.003653 0.000000 0.000000 0.000000
# 2 -0.000844 0.015524 0.003002 0.000000 0.000000 0.000000
# 3 0.003653 0.003002 0.035732 0.000000 0.000000 0.000000
# 4 0.000000 0.000000 0.000000 0.040280 0.000000 0.000000
# 5 0.000000 0.000000 0.000000 0.000000 0.009822 0.000000
# 6 0.000000 0.000000 0.000000 0.000000 0.000000 -0.024623
#
#
# Mechanical properties :
#
#
# Convention : Reuss Voigt Hill
#
# Bulk Modulus (GPa) = 13.00841 16.88741 14.94791
# Shear Modulus (GPa) = 47.74186 29.05071 38.39628
#
# Velocity S-wave (km/s) = 5.23123 4.08068 4.69136
# Velocity P-wave (km/s) = 6.62903 5.64646 6.15738
#
# Compressibility (1/GPa) = 0.07687336
#
# Stress axis : x y z
#
# Youngs Moduli (GPa) = 71.46115 64.41435 27.98602
#
# Poissons Ratio (x) = 0.05435 -0.10224
# Poissons Ratio (y) = 0.06030 -0.08401
# Poissons Ratio (z) = -0.26108 -0.19337
#
# Static dielectric constant tensor:
#      x y z
#    x 1.588030 0.000000 0.000000 
#    y 0.000000 1.596280 0.000000 
#    z 0.000000 0.000000 1.564310 
# 
# From -- ./inp_files/12697.got.cif
#   From: 2010.05.17/outbox.cif.g08.bks.cpg/sg67_7_cif.got.tgz:12697.got - 2010.06.03 18:28:57.
