data_PCOD9504641
_publ_section_title
;
Structure prediction by ZEFSAII (Michael W. Deem and Ramdas Pophale) SiO2 
 PCOD9504641
Probable space group: C M M A
;
_chemical_formula_sum "Si O2"
_cell_formula_units_Z 20
_cell_length_a 13.109762
_cell_length_b 5.447047
_cell_length_c 10.306807
_cell_angle_alpha 90.000000
_cell_angle_beta 90.000000
_cell_angle_gamma 90.000000
_cell_volume 736.003829
_symmetry_space_group_name_H-M "C M M A"
_symmetry_group_IT_number 67
_symmetry_cell_setting 'orthorhombic'
loop_
_space_group_symop_operation_xyz
x,y,z
-x,1/2-y,z
x,-y,-z
-x,1/2+y,-z
-x,-y,-z
x,1/2+y,-z
-x,y,z
x,1/2-y,z
1/2+x,1/2+y,z
1/2-x,-y,z
1/2+x,1/2-y,-z
1/2-x,y,-z
1/2-x,1/2-y,-z
1/2+x,y,-z
1/2-x,1/2+y,z
1/2+x,-y,z
loop_
_atom_site_type_symbol
_atom_site_label
_atom_site_fract_x
_atom_site_fract_y
_atom_site_fract_z
Si Si1 0.886153 0.750000 0.916408
Si Si2 0.000000 0.750000 0.409712
Si Si3 0.718254 0.750000 0.691112
O O1 0.791716 0.750000 0.817966
O O2 0.000000 0.750000 0.854174
O O3 0.880440 0.500000 0.000000
O O4 0.000000 0.500000 0.500000
O O5 0.903110 0.750000 0.313324
O O6 0.750000 0.500000 0.626566
#
# Coordination Sequence:
#
# PCOD9504641 Si02
#       3
#     8   4   8
#     4  10  23  45  75 114 163 212 251 304 379 466
#     4  12  30  56  82 112 152 202 266 336 412 458
#     4  12  28  47  83 115 156 203 263 326 381 474
#
# _framework density 27.173773000000001
#
# number of rings (size 3 to 8) (size 9 to 14) (size 15 to 20)
#    0.000    0.800    0.000    4.800    5.600    9.600 
#    0.000    2.000    0.000    0.000    0.000    0.000 
#    0.000    0.000    0.000    0.000    0.000    0.000 
#
# Total GULP energy -56005.157061 kJ/mol
# GULP energy per Si atom -5600.515706 kJ/mol
# Density = 2.711192 g / cm^3
# Si number density = 27.173773 Si / 1000 Ang^3
#
#
#
# Elastic Constant Matrix: (Units=GPa)
#
#
# Indices 1 2 3 4 5 6 
#
# 1 351.4086 77.9959 117.7071 0.0000 0.0000 0.0000
# 2 77.9959 296.5189 69.4905 0.0000 0.0000 0.0000
# 3 117.7071 69.4905 144.1247 0.0000 0.0000 0.0000
# 4 0.0000 0.0000 0.0000 -304.0548 0.0000 0.0000
# 5 0.0000 0.0000 0.0000 0.0000 135.1508 0.0000
# 6 0.0000 0.0000 0.0000 0.0000 0.0000 50.7788
#
#
#
# Elastic Compliance Matrix: (Units=1/GPa)
#
#
# Indices 1 2 3 4 5 6 
#
# 1 0.003944 -0.000319 -0.003067 0.000000 0.000000 0.000000
# 2 -0.000319 0.003828 -0.001585 0.000000 0.000000 0.000000
# 3 -0.003067 -0.001585 0.010208 0.000000 0.000000 0.000000
# 4 0.000000 0.000000 0.000000 -0.003289 0.000000 0.000000
# 5 0.000000 0.000000 0.000000 0.000000 0.007399 0.000000
# 6 0.000000 0.000000 0.000000 0.000000 0.000000 0.019693
#
#
# Mechanical properties :
#
#
# Convention : Reuss Voigt Hill
#
# Bulk Modulus (GPa) = 124.42533 146.93767 135.68150
# Shear Modulus (GPa) = 91.90369 11.49889 51.70129
#
# Velocity S-wave (km/s) = 5.82187 2.05932 4.36663
# Velocity P-wave (km/s) = 9.54360 7.73596 8.68693
#
# Compressibility (1/GPa) = 0.00803695
#
# Stress axis : x y z
#
# Youngs Moduli (GPa) = 253.56115 261.24595 97.96252
#
# Poissons Ratio (x) = 0.08321 0.30049
# Poissons Ratio (y) = 0.08077 0.15532
# Poissons Ratio (z) = 0.77776 0.41419
#
# Static dielectric constant tensor:
#      x y z
#    x 2.078610 0.000000 0.000000 
#    y 0.000000 2.128480 0.000000 
#    z 0.000000 0.000000 2.132680 
# 
# From -- ./inp_files/16935.got.cif
#   From: 2010.05.17/outbox.cif.g08.bks.cpg/sg67_9_cif.got.tgz:16935.got - 2010.06.03 18:28:57.
