data_PCOD9504799
_publ_section_title
;
Structure prediction by ZEFSAII (Michael W. Deem and Ramdas Pophale) SiO2 
 PCOD9504799
Probable space group: C M M A
;
_chemical_formula_sum "Si O2"
_cell_formula_units_Z 96
_cell_length_a 16.817441
_cell_length_b 19.368990
_cell_length_c 14.834829
_cell_angle_alpha 90.000000
_cell_angle_beta 90.000000
_cell_angle_gamma 90.000000
_cell_volume 4832.250418
_symmetry_space_group_name_H-M "C M M A"
_symmetry_group_IT_number 67
_symmetry_cell_setting 'orthorhombic'
loop_
_space_group_symop_operation_xyz
x,y,z
-x,1/2-y,z
x,-y,-z
-x,1/2+y,-z
-x,-y,-z
x,1/2+y,-z
-x,y,z
x,1/2-y,z
1/2+x,1/2+y,z
1/2-x,-y,z
1/2+x,1/2-y,-z
1/2-x,y,-z
1/2-x,1/2-y,-z
1/2+x,y,-z
1/2-x,1/2+y,z
1/2+x,-y,z
loop_
_atom_site_type_symbol
_atom_site_label
_atom_site_fract_x
_atom_site_fract_y
_atom_site_fract_z
Si Si1 0.160373 0.083381 0.140008
Si Si2 0.907348 0.328286 0.301645
Si Si3 0.093396 0.669492 0.023120
Si Si4 0.407339 0.459361 0.370553
Si Si5 0.348113 0.427497 0.173177
Si Si6 0.161763 0.595899 0.539929
O O1 0.115291 0.119459 0.222553
O O2 0.253831 0.083699 0.162754
O O3 0.134434 0.003570 0.132362
O O4 0.142244 0.126489 0.050651
O O5 0.895141 0.250000 0.269470
O O6 0.855926 0.343655 0.390228
O O7 0.000000 0.337186 0.324955
O O8 0.116519 0.750000 0.025203
O O9 0.107845 0.631888 0.118059
O O10 0.000000 0.665797 0.999457
O O11 0.500000 0.477531 0.360819
O O12 0.373230 0.431315 0.277260
O O13 0.395735 0.406765 0.453404
O O14 0.358077 0.526640 0.402692
O O15 0.250000 0.595387 0.500000
#
# Coordination Sequence:
#
# PCOD9504799 Si02
#       6
#    16  16  16  16  16  16
#     4  11  23  40  65  94 126 165 212 266 322 372
#     4  11  23  40  63  93 129 170 217 266 316 377
#     4  11  25  44  64  91 129 171 213 259 315 381
#     4  11  21  36  62  91 122 164 210 260 323 376
#     4  11  24  40  65  95 127 161 208 271 317 378
#     4  11  22  37  61  88 127 167 207 262 313 377
#
# _framework density 19.866520000000001
#
# number of rings (size 3 to 8) (size 9 to 14) (size 15 to 20)
#    0.000    1.000    1.667    6.500    2.333    7.667 
#    0.000    0.833    0.000    3.000    0.000    0.000 
#    0.000    0.000    0.000    0.000    0.000    0.000 
#
# Total GULP energy -268443.626222 kJ/mol
# GULP energy per Si atom -5592.575546 kJ/mol
# Density = 1.982130 g / cm^3
# Si number density = 19.866520 Si / 1000 Ang^3
#
#
#
# Elastic Constant Matrix: (Units=GPa)
#
#
# Indices 1 2 3 4 5 6 
#
# 1 83.0426 26.7618 31.0912 0.0000 0.0000 0.0000
# 2 26.7618 85.5577 46.8958 0.0000 0.0000 0.0000
# 3 31.0912 46.8958 133.7539 0.0000 0.0000 0.0000
# 4 0.0000 0.0000 0.0000 19.9031 0.0000 0.0000
# 5 0.0000 0.0000 0.0000 0.0000 28.7804 0.0000
# 6 0.0000 0.0000 0.0000 0.0000 0.0000 26.7197
#
#
#
# Elastic Compliance Matrix: (Units=1/GPa)
#
#
# Indices 1 2 3 4 5 6 
#
# 1 0.013855 -0.003180 -0.002106 0.000000 0.000000 0.000000
# 2 -0.003180 0.015198 -0.004590 0.000000 0.000000 0.000000
# 3 -0.002106 -0.004590 0.009575 0.000000 0.000000 0.000000
# 4 0.000000 0.000000 0.000000 0.050243 0.000000 0.000000
# 5 0.000000 0.000000 0.000000 0.000000 0.034746 0.000000
# 6 0.000000 0.000000 0.000000 0.000000 0.000000 0.037426
#
#
# Mechanical properties :
#
#
# Convention : Reuss Voigt Hill
#
# Bulk Modulus (GPa) = 52.97044 56.87243 54.92143
# Shear Modulus (GPa) = 26.72570 28.25435 27.49002
#
# Velocity S-wave (km/s) = 3.67176 3.77531 3.72390
# Velocity P-wave (km/s) = 6.68557 6.90604 6.79670
#
# Compressibility (1/GPa) = 0.01887845
#
# Stress axis : x y z
#
# Youngs Moduli (GPa) = 72.17565 65.79734 104.43770
#
# Poissons Ratio (x) = 0.20920 0.21993
# Poissons Ratio (y) = 0.22948 0.47933
# Poissons Ratio (z) = 0.15199 0.30198
#
# Static dielectric constant tensor:
#      x y z
#    x 1.698000 0.000000 0.000000 
#    y 0.000000 1.704760 0.000000 
#    z 0.000000 0.000000 1.693090 
# 
# From -- ./inp_files/27238.got.cif
#   From: 2010.05.17/outbox.cif.g08.bks.cpg/sg67_14_cif.got.tgz:27238.got - 2010.06.03 18:28:57.
