data_PCOD9504867
_publ_section_title
;
Structure prediction by ZEFSAII (Michael W. Deem and Ramdas Pophale) SiO2 
 PCOD9504867
Probable space group: C M M A
;
_chemical_formula_sum "Si O2"
_cell_formula_units_Z 80
_cell_length_a 9.051956
_cell_length_b 14.868216
_cell_length_c 27.596497
_cell_angle_alpha 90.000000
_cell_angle_beta 90.000000
_cell_angle_gamma 90.000000
_cell_volume 3714.114206
_symmetry_space_group_name_H-M "C M M A"
_symmetry_group_IT_number 67
_symmetry_cell_setting 'orthorhombic'
loop_
_space_group_symop_operation_xyz
x,y,z
-x,1/2-y,z
x,-y,-z
-x,1/2+y,-z
-x,-y,-z
x,1/2+y,-z
-x,y,z
x,1/2-y,z
1/2+x,1/2+y,z
1/2-x,-y,z
1/2+x,1/2-y,-z
1/2-x,y,-z
1/2-x,1/2-y,-z
1/2+x,y,-z
1/2-x,1/2+y,z
1/2+x,-y,z
loop_
_atom_site_type_symbol
_atom_site_label
_atom_site_fract_x
_atom_site_fract_y
_atom_site_fract_z
Si Si1 0.680320 0.354382 0.251211
Si Si2 0.323875 0.098217 0.547295
Si Si3 0.831876 0.860085 0.951191
Si Si4 0.671320 0.639780 0.853559
Si Si5 0.666645 0.856427 0.644478
O O1 0.500000 0.355183 0.250758
O O2 0.728591 0.250000 0.250826
O O3 0.728817 0.391868 0.199126
O O4 0.722141 0.393586 0.303679
O O5 0.500000 0.096017 0.541931
O O6 0.250000 0.143843 0.500000
O O7 0.274364 0.134725 0.599220
O O8 0.250000 0.000000 0.548157
O O9 0.829017 0.750000 0.950966
O O10 0.758130 0.889318 0.901014
O O11 0.000000 0.889593 0.952918
O O12 0.750000 0.888663 0.000000
O O13 0.500000 0.614225 0.858369
O O14 0.674913 0.750000 0.852405
O O15 0.500000 0.892169 0.633369
O O16 0.650084 0.750000 0.652368
#
# Coordination Sequence:
#
# PCOD9504867 Si02
#       5
#    16  16  16  16  16
#     4   7  11  21  38  58  79 105 136 169 208 256
#     4  11  22  37  55  73  95 123 156 191 229 274
#     4   9  15  20  25  35  53  80 117 162 208 250
#     4   8  12  19  31  45  62  88 123 161 201 246
#     4   9  17  31  51  74  99 125 154 189 228 271
#
# _framework density 21.539458
#
# number of rings (size 3 to 8) (size 9 to 14) (size 15 to 20)
#    0.000    3.200    0.000    5.400    0.000    3.200 
#    0.000    1.000    0.000    3.600    0.000    0.000 
#    0.000    0.000    0.000    0.000    0.000    1.000 
#
# Total GULP energy -222870.073710 kJ/mol
# GULP energy per Si atom -5571.751843 kJ/mol
# Density = 2.149043 g / cm^3
# Si number density = 21.539458 Si / 1000 Ang^3
#
#
#
# Elastic Constant Matrix: (Units=GPa)
#
#
# Indices 1 2 3 4 5 6 
#
# 1 126.3071 6.0120 111.3061 0.0000 0.0000 0.0000
# 2 6.0120 43.3863 11.0185 0.0000 0.0000 0.0000
# 3 111.3061 11.0185 269.1798 0.0000 0.0000 0.0000
# 4 0.0000 0.0000 0.0000 31.0213 0.0000 0.0000
# 5 0.0000 0.0000 0.0000 0.0000 30.4571 0.0000
# 6 0.0000 0.0000 0.0000 0.0000 0.0000 4.5395
#
#
#
# Elastic Compliance Matrix: (Units=1/GPa)
#
#
# Indices 1 2 3 4 5 6 
#
# 1 0.012464 -0.000423 -0.005136 0.000000 0.000000 0.000000
# 2 -0.000423 0.023305 -0.000779 0.000000 0.000000 0.000000
# 3 -0.005136 -0.000779 0.005871 0.000000 0.000000 0.000000
# 4 0.000000 0.000000 0.000000 0.032236 0.000000 0.000000
# 5 0.000000 0.000000 0.000000 0.000000 0.032833 0.000000
# 6 0.000000 0.000000 0.000000 0.000000 0.000000 0.220287
#
#
# Mechanical properties :
#
#
# Convention : Reuss Voigt Hill
#
# Bulk Modulus (GPa) = 34.52657 77.28293 55.90475
# Shear Modulus (GPa) = 14.31324 33.90602 24.10963
#
# Velocity S-wave (km/s) = 2.58061 3.97184 3.34926
# Velocity P-wave (km/s) = 4.99436 7.54928 6.40060
#
# Compressibility (1/GPa) = 0.02896320
#
# Stress axis : x y z
#
# Youngs Moduli (GPa) = 80.23253 42.90882 170.33376
#
# Poissons Ratio (x) = 0.01813 0.87492
# Poissons Ratio (y) = 0.03391 0.13273
# Poissons Ratio (z) = 0.41211 0.03344
#
# Static dielectric constant tensor:
#      x y z
#    x 1.739240 0.000000 0.000000 
#    y 0.000000 1.952840 0.000000 
#    z 0.000000 0.000000 1.870510 
# 
# From -- ./inp_files/43314.got.cif
#   From: 2010.05.17/outbox.cif.g08.bks.cpg/sg67_22_cif.got.tgz:43314.got - 2010.06.03 18:28:57.
