data_PCOD9504567
_publ_section_title
;
Structure prediction by ZEFSAII (Michael W. Deem and Ramdas Pophale) SiO2 
 PCOD9504567
Probable space group: C M M A
;
_chemical_formula_sum "Si O2"
_cell_formula_units_Z 68
_cell_length_a 21.561050
_cell_length_b 7.703475
_cell_length_c 20.104931
_cell_angle_alpha 90.000000
_cell_angle_beta 90.000000
_cell_angle_gamma 90.000000
_cell_volume 3339.328708
_symmetry_space_group_name_H-M "C M M A"
_symmetry_group_IT_number 67
_symmetry_cell_setting 'orthorhombic'
loop_
_space_group_symop_operation_xyz
x,y,z
-x,1/2-y,z
x,-y,-z
-x,1/2+y,-z
-x,-y,-z
x,1/2+y,-z
-x,y,z
x,1/2-y,z
1/2+x,1/2+y,z
1/2-x,-y,z
1/2+x,1/2-y,-z
1/2-x,y,-z
1/2-x,1/2-y,-z
1/2+x,y,-z
1/2-x,1/2+y,z
1/2+x,-y,z
loop_
_atom_site_type_symbol
_atom_site_label
_atom_site_fract_x
_atom_site_fract_y
_atom_site_fract_z
Si Si1 0.431607 0.041011 0.922174
Si Si2 0.605624 0.449766 0.703505
Si Si3 0.677707 0.454370 0.423727
Si Si4 0.000000 0.250000 0.713528
Si Si5 0.820534 0.955976 0.831530
O O1 0.500000 0.975786 0.900356
O O2 0.432993 0.250000 0.915769
O O3 0.374276 0.970681 0.879590
O O4 0.424359 0.000000 0.000000
O O5 0.585130 0.250000 0.718334
O O6 0.634417 0.454505 0.629941
O O7 0.553635 0.595253 0.711340
O O8 0.659860 0.496485 0.756204
O O9 0.662443 0.500000 0.500000
O O10 0.670137 0.250000 0.414552
O O11 0.750000 0.500000 0.413401
O O12 0.824183 0.750000 0.838496
O O13 0.750000 0.000000 0.847330
#
# Coordination Sequence:
#
# PCOD9504567 Si02
#       5
#    16  16  16   4  16
#     4   9  19  38  59  86 119 162 210 256 312 376
#     4  11  24  44  66  94 132 166 213 269 322 380
#     4  11  21  38  65  98 129 169 217 268 324 383
#     4  12  26  44  66  96 124 174 220 254 324 398
#     4  10  23  39  62  91 126 164 205 263 325 376
#
# _framework density 20.363374
#
# number of rings (size 3 to 8) (size 9 to 14) (size 15 to 20)
#    0.000    1.647    1.176    3.882    3.294    3.294 
#    0.000    2.941    0.000    0.000    0.000    0.000 
#    0.000    0.000    0.000    0.000    0.000    0.000 
#
# Total GULP energy -189341.613412 kJ/mol
# GULP energy per Si atom -5568.870983 kJ/mol
# Density = 2.031703 g / cm^3
# Si number density = 20.363374 Si / 1000 Ang^3
#
#
#
# Elastic Constant Matrix: (Units=GPa)
#
#
# Indices 1 2 3 4 5 6 
#
# 1 169.9167 34.5415 71.5391 0.0000 0.0000 0.0000
# 2 34.5415 107.3192 9.3732 0.0000 0.0000 0.0000
# 3 71.5391 9.3732 71.1839 0.0000 0.0000 0.0000
# 4 0.0000 0.0000 0.0000 18.9561 0.0000 0.0000
# 5 0.0000 0.0000 0.0000 0.0000 44.5992 0.0000
# 6 0.0000 0.0000 0.0000 0.0000 0.0000 36.2762
#
#
#
# Elastic Compliance Matrix: (Units=1/GPa)
#
#
# Indices 1 2 3 4 5 6 
#
# 1 0.010861 -0.002572 -0.010577 0.000000 0.000000 0.000000
# 2 -0.002572 0.010035 0.001263 0.000000 0.000000 0.000000
# 3 -0.010577 0.001263 0.024511 0.000000 0.000000 0.000000
# 4 0.000000 0.000000 0.000000 0.052754 0.000000 0.000000
# 5 0.000000 0.000000 0.000000 0.000000 0.022422 0.000000
# 6 0.000000 0.000000 0.000000 0.000000 0.000000 0.027566
#
#
# Mechanical properties :
#
#
# Convention : Reuss Voigt Hill
#
# Bulk Modulus (GPa) = 46.21653 64.36971 55.29312
# Shear Modulus (GPa) = 27.91233 35.49737 31.70485
#
# Velocity S-wave (km/s) = 3.70633 4.17969 3.95011
# Velocity P-wave (km/s) = 6.40789 7.41433 6.92940
#
# Compressibility (1/GPa) = 0.02163728
#
# Stress axis : x y z
#
# Youngs Moduli (GPa) = 92.07171 99.64663 40.79772
#
# Poissons Ratio (x) = 0.25629 0.43150
# Poissons Ratio (y) = 0.23681 -0.05154
# Poissons Ratio (z) = 0.97381 -0.12589
#
# Static dielectric constant tensor:
#      x y z
#    x 1.731290 0.000000 0.000000 
#    y 0.000000 1.746010 0.000000 
#    z 0.000000 0.000000 1.734820 
# 
# From -- ./inp_files/34694.got.cif
#   From: 2010.05.17/outbox.cif.g08.bks.cpg/sg67_18_cif.got.tgz:34694.got - 2010.06.03 18:28:57.
