data_PCOD9504455
_publ_section_title
;
Structure prediction by ZEFSAII (Michael W. Deem and Ramdas Pophale) SiO2 
 PCOD9504455
Probable space group: C M M A
;
_chemical_formula_sum "Si O2"
_cell_formula_units_Z 72
_cell_length_a 16.778747
_cell_length_b 14.541524
_cell_length_c 13.734074
_cell_angle_alpha 90.000000
_cell_angle_beta 90.000000
_cell_angle_gamma 90.000000
_cell_volume 3350.956831
_symmetry_space_group_name_H-M "C M M A"
_symmetry_group_IT_number 67
_symmetry_cell_setting 'orthorhombic'
loop_
_space_group_symop_operation_xyz
x,y,z
-x,1/2-y,z
x,-y,-z
-x,1/2+y,-z
-x,-y,-z
x,1/2+y,-z
-x,y,z
x,1/2-y,z
1/2+x,1/2+y,z
1/2-x,-y,z
1/2+x,1/2-y,-z
1/2-x,y,-z
1/2-x,1/2-y,-z
1/2+x,y,-z
1/2-x,1/2+y,z
1/2+x,-y,z
loop_
_atom_site_type_symbol
_atom_site_label
_atom_site_fract_x
_atom_site_fract_y
_atom_site_fract_z
Si Si1 0.710297 0.750000 0.150425
Si Si2 0.826649 0.646059 0.566713
Si Si3 0.129435 0.750000 0.057942
Si Si4 0.500000 0.565201 0.216461
Si Si5 0.500000 0.900546 0.449260
Si Si6 0.000000 0.610522 0.996686
Si Si7 0.672045 0.946838 0.236081
O O1 0.806820 0.750000 0.144896
O O2 0.678240 0.843439 0.196490
O O3 0.677973 0.750000 0.041695
O O4 0.818141 0.750000 0.607396
O O5 0.750000 0.632379 0.500000
O O6 0.915011 0.642113 0.520574
O O7 0.825422 0.567534 0.648191
O O8 0.074458 0.659711 0.048417
O O9 0.500000 0.603636 0.328694
O O10 0.500000 0.630848 0.120701
O O11 0.414878 0.514183 0.209513
O O12 0.500000 0.000000 0.500000
O O13 0.000000 0.500000 0.000000
O O14 0.750000 0.000000 0.201324
#
# Coordination Sequence:
#
# PCOD9504455 Si02
#       7
#     8  16   8   8   8   8  16
#     4  11  22  42  61  94 125 163 214 264 325 385
#     4  10  22  40  62  91 127 168 213 263 321 387
#     4  10  24  40  64  90 129 165 207 271 325 376
#     4  10  23  42  65  94 122 166 222 261 322 384
#     4  10  23  38  64  95 124 165 212 263 318 380
#     4  11  23  42  65  94 125 170 219 265 319 390
#     4  11  24  40  67  94 126 169 218 270 325 390
#
# _framework density 21.486401000000001
#
# number of rings (size 3 to 8) (size 9 to 14) (size 15 to 20)
#    0.000    1.556    3.333    0.333    9.333    0.444 
#    2.000    2.222    0.000    0.000    0.000    0.000 
#    0.000    0.000    0.000    0.000    0.000    0.000 
#
# Total GULP energy -200596.217793 kJ/mol
# GULP energy per Si atom -5572.117161 kJ/mol
# Density = 2.143750 g / cm^3
# Si number density = 21.486401 Si / 1000 Ang^3
#
#
#
# Elastic Constant Matrix: (Units=GPa)
#
#
# Indices 1 2 3 4 5 6 
#
# 1 208.5066 36.6777 28.2375 0.0000 0.0000 0.0000
# 2 36.6777 92.9259 9.1214 0.0000 0.0000 0.0000
# 3 28.2375 9.1214 41.6511 0.0000 0.0000 0.0000
# 4 0.0000 0.0000 0.0000 9.9693 0.0000 0.0000
# 5 0.0000 0.0000 0.0000 0.0000 27.5232 0.0000
# 6 0.0000 0.0000 0.0000 0.0000 0.0000 26.3738
#
#
#
# Elastic Compliance Matrix: (Units=1/GPa)
#
#
# Indices 1 2 3 4 5 6 
#
# 1 0.005582 -0.001872 -0.003375 0.000000 0.000000 0.000000
# 2 -0.001872 0.011626 -0.001277 0.000000 0.000000 0.000000
# 3 -0.003375 -0.001277 0.026576 0.000000 0.000000 0.000000
# 4 0.000000 0.000000 0.000000 0.100308 0.000000 0.000000
# 5 0.000000 0.000000 0.000000 0.000000 0.036333 0.000000
# 6 0.000000 0.000000 0.000000 0.000000 0.000000 0.037916
#
#
# Mechanical properties :
#
#
# Convention : Reuss Voigt Hill
#
# Bulk Modulus (GPa) = 32.53366 54.57297 43.55331
# Shear Modulus (GPa) = 20.69240 30.70970 25.70105
#
# Velocity S-wave (km/s) = 3.10667 3.78466 3.46230
# Velocity P-wave (km/s) = 5.29555 6.67474 6.02474
#
# Compressibility (1/GPa) = 0.03073740
#
# Stress axis : x y z
#
# Youngs Moduli (GPa) = 179.13644 86.01780 37.62736
#
# Poissons Ratio (x) = 0.16103 0.12698
# Poissons Ratio (y) = 0.33536 0.04804
# Poissons Ratio (z) = 0.60451 0.10982
#
# Static dielectric constant tensor:
#      x y z
#    x 1.846480 0.000000 0.000000 
#    y 0.000000 1.774810 0.000000 
#    z 0.000000 0.000000 1.807620 
# 
# From -- ./inp_files/28337.got.cif
#   From: 2010.05.17/outbox.cif.g08.bks.cpg/sg67_15_cif.got.tgz:28337.got - 2010.06.03 18:28:57.
