data_PCOD9504237
_publ_section_title
;
Structure prediction by ZEFSAII (Michael W. Deem and Ramdas Pophale) SiO2 
 PCOD9504237
Probable space group: C M M A
;
_chemical_formula_sum "Si O2"
_cell_formula_units_Z 64
_cell_length_a 16.214961
_cell_length_b 10.815114
_cell_length_c 18.528658
_cell_angle_alpha 90.000000
_cell_angle_beta 90.000000
_cell_angle_gamma 90.000000
_cell_volume 3249.308714
_symmetry_space_group_name_H-M "C M M A"
_symmetry_group_IT_number 67
_symmetry_cell_setting 'orthorhombic'
loop_
_space_group_symop_operation_xyz
x,y,z
-x,1/2-y,z
x,-y,-z
-x,1/2+y,-z
-x,-y,-z
x,1/2+y,-z
-x,y,z
x,1/2-y,z
1/2+x,1/2+y,z
1/2-x,-y,z
1/2+x,1/2-y,-z
1/2-x,y,-z
1/2-x,1/2-y,-z
1/2+x,y,-z
1/2-x,1/2+y,z
1/2+x,-y,z
loop_
_atom_site_type_symbol
_atom_site_label
_atom_site_fract_x
_atom_site_fract_y
_atom_site_fract_z
Si Si1 0.594573 0.606910 0.810306
Si Si2 0.847440 0.002429 0.664433
Si Si3 0.598716 0.750000 0.413311
Si Si4 0.341103 0.615097 0.963229
Si Si5 0.400590 0.250000 0.420070
O O1 0.500000 0.591283 0.835557
O O2 0.602890 0.750000 0.785354
O O3 0.611557 0.519877 0.742753
O O4 0.656188 0.591444 0.877611
O O5 0.870859 0.124028 0.618054
O O6 0.750000 0.000000 0.674606
O O7 0.873163 0.875412 0.625924
O O8 0.500000 0.750000 0.414141
O O9 0.627203 0.750000 0.496559
O O10 0.379485 0.750000 0.974230
O O11 0.384963 0.500000 0.000000
O O12 0.250000 0.620957 0.000000
O O13 0.500000 0.250000 0.417232
#
# Coordination Sequence:
#
# PCOD9504237 Si02
#       5
#    16  16   8  16   8
#     4  10  21  40  66  89 123 172 219 250 302 393
#     4  12  25  40  64  98 130 170 215 270 321 376
#     4  11  25  43  65  97 133 164 211 278 327 365
#     4   9  19  36  59  87 118 157 197 257 306 372
#     4  11  23  45  71  89 123 180 221 252 319 403
#
# _framework density 19.696497999999998
#
# number of rings (size 3 to 8) (size 9 to 14) (size 15 to 20)
#    0.000    1.500    1.250    3.750    3.500    5.500 
#    2.250    0.000    0.000    0.000    0.000    0.000 
#    0.000    0.000    0.000    0.000    0.000    0.000 
#
# Total GULP energy -178578.687923 kJ/mol
# GULP energy per Si atom -5580.583998 kJ/mol
# Density = 1.965167 g / cm^3
# Si number density = 19.696498 Si / 1000 Ang^3
#
#
#
# Elastic Constant Matrix: (Units=GPa)
#
#
# Indices 1 2 3 4 5 6 
#
# 1 73.0488 8.4729 32.0941 0.0000 0.0000 0.0000
# 2 8.4729 160.5650 69.1167 0.0000 0.0000 0.0000
# 3 32.0941 69.1167 137.8352 0.0000 0.0000 0.0000
# 4 0.0000 0.0000 0.0000 37.7644 0.0000 0.0000
# 5 0.0000 0.0000 0.0000 0.0000 38.6288 0.0000
# 6 0.0000 0.0000 0.0000 0.0000 0.0000 20.5876
#
#
#
# Elastic Compliance Matrix: (Units=1/GPa)
#
#
# Indices 1 2 3 4 5 6 
#
# 1 0.015358 0.000930 -0.004042 0.000000 0.000000 0.000000
# 2 0.000930 0.007999 -0.004227 0.000000 0.000000 0.000000
# 3 -0.004042 -0.004227 0.010316 0.000000 0.000000 0.000000
# 4 0.000000 0.000000 0.000000 0.026480 0.000000 0.000000
# 5 0.000000 0.000000 0.000000 0.000000 0.025887 0.000000
# 6 0.000000 0.000000 0.000000 0.000000 0.000000 0.048573
#
#
# Mechanical properties :
#
#
# Convention : Reuss Voigt Hill
#
# Bulk Modulus (GPa) = 52.65231 65.64628 59.14929
# Shear Modulus (GPa) = 32.12897 36.84719 34.48808
#
# Velocity S-wave (km/s) = 4.04320 4.32991 4.18900
# Velocity P-wave (km/s) = 6.97040 7.64191 7.31386
#
# Compressibility (1/GPa) = 0.01899252
#
# Stress axis : x y z
#
# Youngs Moduli (GPa) = 65.11470 125.02118 96.93723
#
# Poissons Ratio (x) = -0.11621 0.39182
# Poissons Ratio (y) = -0.06052 0.40978
# Poissons Ratio (z) = 0.26319 0.52850
#
# Static dielectric constant tensor:
#      x y z
#    x 1.696780 0.000000 0.000000 
#    y 0.000000 1.701970 0.000000 
#    z 0.000000 0.000000 1.697550 
# 
# From -- ./inp_files/32664.got.cif
#   From: 2010.05.17/outbox.cif.g08.bks.cpg/sg67_17_cif.got.tgz:32664.got - 2010.06.03 18:28:57.
