data_PCOD9504046
_publ_section_title
;
Structure prediction by ZEFSAII (Michael W. Deem and Ramdas Pophale) SiO2 
 PCOD9504046
Probable space group: C M M A
;
_chemical_formula_sum "Si O2"
_cell_formula_units_Z 116
_cell_length_a 26.905217
_cell_length_b 24.058257
_cell_length_c 9.477608
_cell_angle_alpha 90.000000
_cell_angle_beta 90.000000
_cell_angle_gamma 90.000000
_cell_volume 6134.785763
_symmetry_space_group_name_H-M "C M M A"
_symmetry_group_IT_number 67
_symmetry_cell_setting 'orthorhombic'
loop_
_space_group_symop_operation_xyz
x,y,z
-x,1/2-y,z
x,-y,-z
-x,1/2+y,-z
-x,-y,-z
x,1/2+y,-z
-x,y,z
x,1/2-y,z
1/2+x,1/2+y,z
1/2-x,-y,z
1/2+x,1/2-y,-z
1/2-x,y,-z
1/2-x,1/2-y,-z
1/2+x,y,-z
1/2-x,1/2+y,z
1/2+x,-y,z
loop_
_atom_site_type_symbol
_atom_site_label
_atom_site_fract_x
_atom_site_fract_y
_atom_site_fract_z
Si Si1 0.442658 0.101933 0.848809
Si Si2 0.058798 0.508912 0.334587
Si Si3 0.287068 0.390642 0.121809
Si Si4 0.882154 0.184227 0.334170
Si Si5 0.750000 0.500000 0.000000
Si Si6 0.235496 0.686969 0.662924
Si Si7 0.056770 0.816621 0.389250
Si Si8 0.402028 0.892725 0.844872
O O1 0.500000 0.117936 0.832112
O O2 0.434094 0.047222 0.754655
O O3 0.408203 0.150205 0.788701
O O4 0.430870 0.092148 0.012445
O O5 0.069351 0.500000 0.500000
O O6 0.092248 0.556117 0.263593
O O7 0.000000 0.524584 0.322747
O O8 0.280399 0.457260 0.098934
O O9 0.266131 0.361044 0.260043
O O10 0.345394 0.379593 0.113532
O O11 0.250000 0.367660 0.000000
O O12 0.891719 0.250000 0.320286
O O13 0.823240 0.175841 0.328512
O O14 0.906690 0.166183 0.483359
O O15 0.245377 0.750000 0.719431
O O16 0.250000 0.687835 0.500000
O O17 0.057908 0.750000 0.381473
O O18 0.073932 0.842172 0.241612
O O19 0.000000 0.834215 0.421365
#
# Coordination Sequence:
#
# PCOD9504046 Si02
#       8
#    16  16  16  16   4  16  16  16
#     4  11  23  36  57  87 120 155 196 247 295 353
#     4  10  22  39  59  86 120 155 195 242 296 362
#     4  10  23  41  63  85 119 164 201 255 313 365
#     4  10  21  38  62  87 118 161 200 241 296 359
#     4   8  24  44  60  80 114 156 202 254 300 364
#     4  10  21  39  63  93 124 152 199 259 306 360
#     4  10  21  38  60  89 128 167 201 241 296 362
#     4  12  23  37  62  88 116 160 201 247 303 357
#
# _framework density 18.908566
#
# number of rings (size 3 to 8) (size 9 to 14) (size 15 to 20)
#    0.414    1.241    0.000    4.552    1.931    5.517 
#    0.000    0.345    0.000    0.000    0.000    0.000 
#    0.000    0.000    0.000    0.000    0.000    0.000 
#
# Total GULP energy -323666.583630 kJ/mol
# GULP energy per Si atom -5580.458338 kJ/mol
# Density = 1.886553 g / cm^3
# Si number density = 18.908566 Si / 1000 Ang^3
#
#
#
# Elastic Constant Matrix: (Units=GPa)
#
#
# Indices 1 2 3 4 5 6 
#
# 1 73.1656 29.9485 5.4084 0.0000 0.0000 0.0000
# 2 29.9485 53.0088 24.7946 0.0000 0.0000 0.0000
# 3 5.4084 24.7946 85.1738 0.0000 0.0000 0.0000
# 4 0.0000 0.0000 0.0000 29.7978 0.0000 0.0000
# 5 0.0000 0.0000 0.0000 0.0000 26.6407 0.0000
# 6 0.0000 0.0000 0.0000 0.0000 0.0000 83.1434
#
#
#
# Elastic Compliance Matrix: (Units=1/GPa)
#
#
# Indices 1 2 3 4 5 6 
#
# 1 0.018103 -0.011217 0.002116 0.000000 0.000000 0.000000
# 2 -0.011217 0.028789 -0.007668 0.000000 0.000000 0.000000
# 3 0.002116 -0.007668 0.013839 0.000000 0.000000 0.000000
# 4 0.000000 0.000000 0.000000 0.033560 0.000000 0.000000
# 5 0.000000 0.000000 0.000000 0.000000 0.037537 0.000000
# 6 0.000000 0.000000 0.000000 0.000000 0.000000 0.012027
#
#
# Mechanical properties :
#
#
# Convention : Reuss Voigt Hill
#
# Bulk Modulus (GPa) = 36.77687 36.85013 36.81350
# Shear Modulus (GPa) = 26.81585 37.99616 32.40601
#
# Velocity S-wave (km/s) = 3.76997 4.48757 4.14433
# Velocity P-wave (km/s) = 6.20018 6.81043 6.51246
#
# Compressibility (1/GPa) = 0.02719101
#
# Stress axis : x y z
#
# Youngs Moduli (GPa) = 55.24043 34.73548 72.26145
#
# Poissons Ratio (x) = 0.38963 -0.15290
# Poissons Ratio (y) = 0.61964 0.55413
# Poissons Ratio (z) = -0.11688 0.26636
#
# Static dielectric constant tensor:
#      x y z
#    x 1.649990 0.000000 0.000000 
#    y 0.000000 1.658980 0.000000 
#    z 0.000000 0.000000 1.644420 
# 
# From -- ./inp_files/14029.got.cif
#   From: 2010.05.17/outbox.cif.g08.bks.cpg/sg67_8_cif.got.tgz:14029.got - 2010.06.03 18:28:57.
