data_PCOD9504921
_publ_section_title
;
Structure prediction by ZEFSAII (Michael W. Deem and Ramdas Pophale) SiO2 
 PCOD9504921
Probable space group: C M M A
;
_chemical_formula_sum "Si O2"
_cell_formula_units_Z 96
_cell_length_a 14.491261
_cell_length_b 21.268389
_cell_length_c 14.108679
_cell_angle_alpha 90.000000
_cell_angle_beta 90.000000
_cell_angle_gamma 90.000000
_cell_volume 4348.376360
_symmetry_space_group_name_H-M "C M M A"
_symmetry_group_IT_number 67
_symmetry_cell_setting 'orthorhombic'
loop_
_space_group_symop_operation_xyz
x,y,z
-x,1/2-y,z
x,-y,-z
-x,1/2+y,-z
-x,-y,-z
x,1/2+y,-z
-x,y,z
x,1/2-y,z
1/2+x,1/2+y,z
1/2-x,-y,z
1/2+x,1/2-y,-z
1/2-x,y,-z
1/2-x,1/2-y,-z
1/2+x,y,-z
1/2-x,1/2+y,z
1/2+x,-y,z
loop_
_atom_site_type_symbol
_atom_site_label
_atom_site_fract_x
_atom_site_fract_y
_atom_site_fract_z
Si Si1 0.642377 0.483430 0.357318
Si Si2 0.605004 0.112877 0.215296
Si Si3 0.888072 0.927163 0.006329
Si Si4 0.398637 0.395232 0.536138
Si Si5 0.889019 0.820877 0.859226
Si Si6 0.229755 0.178119 0.328633
O O1 0.750000 0.500000 0.351613
O O2 0.605696 0.456967 0.259534
O O3 0.595758 0.546655 0.391358
O O4 0.625637 0.430440 0.437913
O O5 0.500000 0.138022 0.220983
O O6 0.634283 0.105266 0.106832
O O7 0.679084 0.148619 0.280372
O O8 0.000000 0.929315 0.002659
O O9 0.857563 0.879158 0.924177
O O10 0.856739 0.000000 0.000000
O O11 0.500000 0.364822 0.527710
O O12 0.318573 0.353019 0.580415
O O13 0.864407 0.750000 0.895390
O O14 0.845827 0.826351 0.755296
O O15 0.000000 0.823292 0.853854
O O16 0.250122 0.250000 0.350495
#
# Coordination Sequence:
#
# PCOD9504921 Si02
#       6
#    16  16  16  16  16  16
#     4  11  22  41  67  97 131 164 207 253 317 391
#     4  11  24  42  63  91 129 173 218 267 325 384
#     4   9  20  37  61  95 129 165 215 274 334 392
#     4  11  22  39  67  97 128 163 205 261 321 383
#     4   9  19  39  64  91 127 169 214 267 331 398
#     4  11  25  42  64  94 127 170 221 271 318 380
#
# _framework density 22.077204999999999
#
# number of rings (size 3 to 8) (size 9 to 14) (size 15 to 20)
#    0.000    1.667    1.667    3.500    2.333    2.667 
#    0.000    5.833    0.000    2.000    0.000    0.000 
#    0.000    0.000    0.000    0.000    0.000    0.000 
#
# Total GULP energy -268127.379303 kJ/mol
# GULP energy per Si atom -5585.987069 kJ/mol
# Density = 2.202696 g / cm^3
# Si number density = 22.077205 Si / 1000 Ang^3
#
#
#
# Elastic Constant Matrix: (Units=GPa)
#
#
# Indices 1 2 3 4 5 6 
#
# 1 132.3776 32.1464 24.3641 0.0000 0.0000 0.0000
# 2 32.1464 103.3150 28.2007 0.0000 0.0000 0.0000
# 3 24.3641 28.2007 43.1608 0.0000 0.0000 0.0000
# 4 0.0000 0.0000 0.0000 28.6032 0.0000 0.0000
# 5 0.0000 0.0000 0.0000 0.0000 11.6056 0.0000
# 6 0.0000 0.0000 0.0000 0.0000 0.0000 -1.0011
#
#
#
# Elastic Compliance Matrix: (Units=1/GPa)
#
#
# Indices 1 2 3 4 5 6 
#
# 1 0.008656 -0.001655 -0.003805 0.000000 0.000000 0.000000
# 2 -0.001655 0.012096 -0.006970 0.000000 0.000000 0.000000
# 3 -0.003805 -0.006970 0.029871 0.000000 0.000000 0.000000
# 4 0.000000 0.000000 0.000000 0.034961 0.000000 0.000000
# 5 0.000000 0.000000 0.000000 0.000000 0.086165 0.000000
# 6 0.000000 0.000000 0.000000 0.000000 0.000000 -0.998940
#
#
# Mechanical properties :
#
#
# Convention : Reuss Voigt Hill
#
# Bulk Modulus (GPa) = 38.81284 49.80842 44.31063
# Shear Modulus (GPa) = -6.29927 20.78437 7.24255
#
# Velocity S-wave (km/s) = -1.69100 3.07162 1.81319
# Velocity P-wave (km/s) = 3.71565 5.93210 4.94954
#
# Compressibility (1/GPa) = 0.02576467
#
# Stress axis : x y z
#
# Youngs Moduli (GPa) = 115.52214 82.66924 33.47724
#
# Poissons Ratio (x) = 0.13680 0.12739
# Poissons Ratio (y) = 0.19116 0.23332
# Poissons Ratio (z) = 0.43960 0.57617
#
# Static dielectric constant tensor:
#      x y z
#    x 1.870740 0.000000 0.000000 
#    y 0.000000 1.813980 0.000000 
#    z 0.000000 0.000000 1.772030 
# 
# From -- ./inp_files/27218.got.cif
#   From: 2010.05.17/outbox.cif.g08.bks.cpg/sg67_14_cif.got.tgz:27218.got - 2010.06.03 18:28:57.
