data_PCOD9504342
_publ_section_title
;
Structure prediction by ZEFSAII (Michael W. Deem and Ramdas Pophale) SiO2 
 PCOD9504342
Probable space group: C M M A
;
_chemical_formula_sum "Si O2"
_cell_formula_units_Z 72
_cell_length_a 14.660645
_cell_length_b 7.589553
_cell_length_c 27.577557
_cell_angle_alpha 90.000000
_cell_angle_beta 90.000000
_cell_angle_gamma 90.000000
_cell_volume 3068.492504
_symmetry_space_group_name_H-M "C M M A"
_symmetry_group_IT_number 67
_symmetry_cell_setting 'orthorhombic'
loop_
_space_group_symop_operation_xyz
x,y,z
-x,1/2-y,z
x,-y,-z
-x,1/2+y,-z
-x,-y,-z
x,1/2+y,-z
-x,y,z
x,1/2-y,z
1/2+x,1/2+y,z
1/2-x,-y,z
1/2+x,1/2-y,-z
1/2-x,y,-z
1/2-x,1/2-y,-z
1/2+x,y,-z
1/2-x,1/2+y,z
1/2+x,-y,z
loop_
_atom_site_type_symbol
_atom_site_label
_atom_site_fract_x
_atom_site_fract_y
_atom_site_fract_z
Si Si1 0.143322 0.961631 0.633285
Si Si2 0.641115 0.037754 0.843087
Si Si3 0.000000 0.461473 0.443411
Si Si4 0.141790 0.457333 0.053123
Si Si5 0.358582 0.538392 0.261267
O O1 0.133248 0.750000 0.634942
O O2 0.086613 0.027259 0.587441
O O3 0.109809 0.027929 0.686171
O O4 0.250000 0.000000 0.628398
O O5 0.627988 0.250000 0.842490
O O6 0.607115 0.968485 0.895295
O O7 0.606710 0.971030 0.790866
O O8 0.750000 0.000000 0.843363
O O9 0.000000 0.500000 0.500000
O O10 0.000000 0.250000 0.440417
O O11 0.132018 0.250000 0.057266
O O12 0.250000 0.500000 0.051451
O O13 0.103983 0.500000 0.000000
O O14 0.372213 0.750000 0.260958
O O15 0.250000 0.500000 0.261358
#
# Coordination Sequence:
#
# PCOD9504342 Si02
#       5
#    16  16   8  16  16
#     4   9  18  33  53  75 100 129 163 200 241 286
#     4   8  13  19  28  43  63  89 125 167 211 257
#     4  10  22  38  54  76 104 134 165 198 236 282
#     4   9  14  18  23  33  53  84 122 162 203 250
#     4   8  13  23  39  58  79 105 138 179 224 270
#
# _framework density 23.464292
#
# number of rings (size 3 to 8) (size 9 to 14) (size 15 to 20)
#    0.000    3.333    0.000    1.333    0.000    2.222 
#    0.000    2.222    0.000    0.000    0.000    0.000 
#    0.000    0.000    0.000    1.000    0.000    7.333 
#
# Total GULP energy -200550.464827 kJ/mol
# GULP energy per Si atom -5570.846245 kJ/mol
# Density = 2.341089 g / cm^3
# Si number density = 23.464292 Si / 1000 Ang^3
#
#
#
# Elastic Constant Matrix: (Units=GPa)
#
#
# Indices 1 2 3 4 5 6 
#
# 1 97.1073 -5.1407 73.2303 0.0000 0.0000 0.0000
# 2 -5.1407 57.5797 16.6257 0.0000 0.0000 0.0000
# 3 73.2303 16.6257 352.0614 0.0000 0.0000 0.0000
# 4 0.0000 0.0000 0.0000 12.7730 0.0000 0.0000
# 5 0.0000 0.0000 0.0000 0.0000 286.0618 0.0000
# 6 0.0000 0.0000 0.0000 0.0000 0.0000 -9.4558
#
#
#
# Elastic Compliance Matrix: (Units=1/GPa)
#
#
# Indices 1 2 3 4 5 6 
#
# 1 0.012411 0.001879 -0.002670 0.000000 0.000000 0.000000
# 2 0.001879 0.017892 -0.001236 0.000000 0.000000 0.000000
# 3 -0.002670 -0.001236 0.003454 0.000000 0.000000 0.000000
# 4 0.000000 0.000000 0.000000 0.078290 0.000000 0.000000
# 5 0.000000 0.000000 0.000000 0.000000 0.003496 0.000000
# 6 0.000000 0.000000 0.000000 0.000000 0.000000 -0.105756
#
#
# Mechanical properties :
#
#
# Convention : Reuss Voigt Hill
#
# Bulk Modulus (GPa) = 33.66648 75.13100 54.39874
# Shear Modulus (GPa) = 210.59526 86.01135 148.30331
#
# Velocity S-wave (km/s) = 9.48400 6.06101 7.95871
# Velocity P-wave (km/s) = 11.58911 9.00388 10.37732
#
# Compressibility (1/GPa) = 0.02970313
#
# Stress axis : x y z
#
# Youngs Moduli (GPa) = 80.57320 55.89146 289.50223
#
# Poissons Ratio (x) = -0.10502 0.77306
# Poissons Ratio (y) = -0.15140 0.35776
# Poissons Ratio (z) = 0.21515 0.06907
#
# Static dielectric constant tensor:
#      x y z
#    x 1.827370 0.000000 0.000000 
#    y 0.000000 1.920720 0.000000 
#    z 0.000000 0.000000 1.978030 
# 
# From -- ./inp_files/43185.got.cif
#   From: 2010.05.17/outbox.cif.g08.bks.cpg/sg67_22_cif.got.tgz:43185.got - 2010.06.03 18:28:57.
