data_PCOD9504577
_publ_section_title
;
Structure prediction by ZEFSAII (Michael W. Deem and Ramdas Pophale) SiO2 
 PCOD9504577
Probable space group: C M M A
;
_chemical_formula_sum "Si O2"
_cell_formula_units_Z 64
_cell_length_a 18.888714
_cell_length_b 19.671367
_cell_length_c 7.061068
_cell_angle_alpha 90.000000
_cell_angle_beta 90.000000
_cell_angle_gamma 90.000000
_cell_volume 2623.658620
_symmetry_space_group_name_H-M "C M M A"
_symmetry_group_IT_number 67
_symmetry_cell_setting 'orthorhombic'
loop_
_space_group_symop_operation_xyz
x,y,z
-x,1/2-y,z
x,-y,-z
-x,1/2+y,-z
-x,-y,-z
x,1/2+y,-z
-x,y,z
x,1/2-y,z
1/2+x,1/2+y,z
1/2-x,-y,z
1/2+x,1/2-y,-z
1/2-x,y,-z
1/2-x,1/2-y,-z
1/2+x,y,-z
1/2-x,1/2+y,z
1/2+x,-y,z
loop_
_atom_site_type_symbol
_atom_site_label
_atom_site_fract_x
_atom_site_fract_y
_atom_site_fract_z
Si Si1 0.581894 0.068529 0.878290
Si Si2 0.424229 0.750000 0.592329
Si Si3 0.917336 0.596703 0.460012
Si Si4 0.774288 0.250000 0.715874
Si Si5 0.692892 0.386213 0.126792
O O1 0.500000 0.086500 0.892303
O O2 0.596736 0.058574 0.656340
O O3 0.629372 0.124719 0.978331
O O4 0.593646 0.000000 0.000000
O O5 0.500000 0.750000 0.689890
O O6 0.418423 0.822181 0.487478
O O7 0.359315 0.750000 0.731834
O O8 0.852842 0.589597 0.310650
O O9 0.000000 0.581591 0.395135
O O10 0.750000 0.250000 0.500000
O O11 0.759350 0.322626 0.804631
O O12 0.750000 0.427530 0.000000
#
# Coordination Sequence:
#
# PCOD9504577 Si02
#       5
#    16   8  16   8  16
#     4  10  23  43  67  95 127 170 231 286 338 400
#     4   8  16  32  59  91 122 163 215 270 331 391
#     4   9  19  38  64  95 134 173 218 282 336 389
#     4  10  23  40  63  93 135 174 216 269 336 409
#     4  11  24  38  65  95 134 175 222 270 333 408
#
# _framework density 24.393415999999998
#
# number of rings (size 3 to 8) (size 9 to 14) (size 15 to 20)
#    0.000    2.250    0.000    1.125    7.000    3.500 
#    0.000    5.000    5.500    0.000    0.000    0.000 
#    0.000    0.000    0.000    0.000    0.000    0.750 
#
# Total GULP energy -178218.099501 kJ/mol
# GULP energy per Si atom -5569.315609 kJ/mol
# Density = 2.433790 g / cm^3
# Si number density = 24.393416 Si / 1000 Ang^3
#
#
#
# Elastic Constant Matrix: (Units=GPa)
#
#
# Indices 1 2 3 4 5 6 
#
# 1 119.0359 40.0744 99.6738 0.0000 0.0000 0.0000
# 2 40.0744 102.3826 38.0661 0.0000 0.0000 0.0000
# 3 99.6738 38.0661 189.0015 0.0000 0.0000 0.0000
# 4 0.0000 0.0000 0.0000 29.8005 0.0000 0.0000
# 5 0.0000 0.0000 0.0000 0.0000 25.1989 0.0000
# 6 0.0000 0.0000 0.0000 0.0000 0.0000 -4.4294
#
#
#
# Elastic Compliance Matrix: (Units=1/GPa)
#
#
# Indices 1 2 3 4 5 6 
#
# 1 0.016065 -0.003392 -0.007789 0.000000 0.000000 0.000000
# 2 -0.003392 0.011274 -0.000482 0.000000 0.000000 0.000000
# 3 -0.007789 -0.000482 0.009496 0.000000 0.000000 0.000000
# 4 0.000000 0.000000 0.000000 0.033556 0.000000 0.000000
# 5 0.000000 0.000000 0.000000 0.000000 0.039684 0.000000
# 6 0.000000 0.000000 0.000000 0.000000 0.000000 -0.225762
#
#
# Mechanical properties :
#
#
# Convention : Reuss Voigt Hill
#
# Bulk Modulus (GPa) = 74.02488 85.11650 79.57069
# Shear Modulus (GPa) = -56.91000 25.62104 -15.64448
#
# Velocity S-wave (km/s) = -4.83536 3.24439 -2.53522
# Velocity P-wave (km/s) = 0.87301 7.00027 4.91129
#
# Compressibility (1/GPa) = 0.01350897
#
# Stress axis : x y z
#
# Youngs Moduli (GPa) = 62.24797 88.69855 105.31155
#
# Poissons Ratio (x) = 0.30088 0.82026
# Poissons Ratio (y) = 0.21115 0.05074
# Poissons Ratio (z) = 0.48484 0.04273
#
# Static dielectric constant tensor:
#      x y z
#    x 1.960630 0.000000 0.000000 
#    y 0.000000 2.240890 0.000000 
#    z 0.000000 0.000000 1.970640 
# 
# From -- ./inp_files/2875.got.cif
#   From: 2010.05.17/outbox.cif.g08.bks.cpg/sg67_2_cif.got.tgz:2875.got - 2010.06.03 18:28:57.
