data_PCOD9504622
_publ_section_title
;
Structure prediction by ZEFSAII (Michael W. Deem and Ramdas Pophale) SiO2 
 PCOD9504622
Probable space group: C M M A
;
_chemical_formula_sum "Si O2"
_cell_formula_units_Z 40
_cell_length_a 9.136254
_cell_length_b 11.776434
_cell_length_c 15.407233
_cell_angle_alpha 90.000000
_cell_angle_beta 90.000000
_cell_angle_gamma 90.000000
_cell_volume 1657.702597
_symmetry_space_group_name_H-M "C M M A"
_symmetry_group_IT_number 67
_symmetry_cell_setting 'orthorhombic'
loop_
_space_group_symop_operation_xyz
x,y,z
-x,1/2-y,z
x,-y,-z
-x,1/2+y,-z
-x,-y,-z
x,1/2+y,-z
-x,y,z
x,1/2-y,z
1/2+x,1/2+y,z
1/2-x,-y,z
1/2+x,1/2-y,-z
1/2-x,y,-z
1/2-x,1/2-y,-z
1/2+x,y,-z
1/2-x,1/2+y,z
1/2+x,-y,z
loop_
_atom_site_type_symbol
_atom_site_label
_atom_site_fract_x
_atom_site_fract_y
_atom_site_fract_z
Si Si1 0.244309 0.750000 0.689397
Si Si2 0.250000 0.000000 0.000000
Si Si3 0.500000 0.250000 0.544552
Si Si4 0.500000 0.568616 0.686916
Si Si5 0.000000 0.750000 0.838523
Si Si6 0.500000 0.502704 0.883468
Si Si7 0.000000 0.000000 0.500000
O O1 0.143783 0.750000 0.604177
O O2 0.352177 0.642714 0.686681
O O3 0.140509 0.750000 0.773699
O O4 0.139139 0.943214 0.068390
O O5 0.500000 0.362561 0.485880
O O6 0.500000 0.512388 0.781019
O O7 0.500000 0.482660 0.606305
O O8 0.000000 0.634587 0.894674
#
# Coordination Sequence:
#
# PCOD9504622 Si02
#       7
#     8   4   4   8   4   8   4
#     4  10  23  43  67  99 136 184 230 281 343 409
#     4  10  24  44  68  92 128 176 228 284 352 412
#     4  11  26  44  66 101 144 186 240 289 338 409
#     4  11  24  43  69  99 139 180 227 281 343 415
#     4  11  22  38  68  99 130 170 222 283 352 415
#     4  11  23  43  67  97 132 174 224 285 347 415
#     4  12  28  46  72 106 144 190 236 286 348 418
#
# _framework density 24.129778000000002
#
# number of rings (size 3 to 8) (size 9 to 14) (size 15 to 20)
#    0.000    1.200    0.000    6.000    0.000   10.400 
#    0.000    8.000    0.000    0.000    0.000    0.000 
#    0.000    0.000    0.000    0.000    0.000    0.000 
#
# Total GULP energy -111394.084706 kJ/mol
# GULP energy per Si atom -5569.704235 kJ/mol
# Density = 2.407486 g / cm^3
# Si number density = 24.129778 Si / 1000 Ang^3
#
#
#
# Elastic Constant Matrix: (Units=GPa)
#
#
# Indices 1 2 3 4 5 6 
#
# 1 154.4532 20.3515 42.5477 0.0000 0.0000 0.0000
# 2 20.3515 127.9125 22.1992 0.0000 0.0000 0.0000
# 3 42.5477 22.1992 186.1855 0.0000 0.0000 0.0000
# 4 0.0000 0.0000 0.0000 24.5325 0.0000 0.0000
# 5 0.0000 0.0000 0.0000 0.0000 3.9632 0.0000
# 6 0.0000 0.0000 0.0000 0.0000 0.0000 3.4998
#
#
#
# Elastic Compliance Matrix: (Units=1/GPa)
#
#
# Indices 1 2 3 4 5 6 
#
# 1 0.007000 -0.000854 -0.001498 0.000000 0.000000 0.000000
# 2 -0.000854 0.008087 -0.000769 0.000000 0.000000 0.000000
# 3 -0.001498 -0.000769 0.005805 0.000000 0.000000 0.000000
# 4 0.000000 0.000000 0.000000 0.040762 0.000000 0.000000
# 5 0.000000 0.000000 0.000000 0.000000 0.252323 0.000000
# 6 0.000000 0.000000 0.000000 0.000000 0.000000 0.285734
#
#
# Mechanical properties :
#
#
# Convention : Reuss Voigt Hill
#
# Bulk Modulus (GPa) = 68.25760 70.97203 69.61481
# Shear Modulus (GPa) = 8.18551 31.96260 20.07406
#
# Velocity S-wave (km/s) = 1.84381 3.64347 2.88743
# Velocity P-wave (km/s) = 5.73428 6.86850 6.32686
#
# Compressibility (1/GPa) = 0.01465038
#
# Stress axis : x y z
#
# Youngs Moduli (GPa) = 142.86655 123.65277 172.26623
#
# Poissons Ratio (x) = 0.10557 0.25801
# Poissons Ratio (y) = 0.12197 0.13250
# Poissons Ratio (z) = 0.21398 0.09511
#
# Static dielectric constant tensor:
#      x y z
#    x 1.928100 0.000000 0.000000 
#    y 0.000000 1.959520 0.000000 
#    z 0.000000 0.000000 1.883590 
# 
# From -- ./inp_files/24356.got.cif
#   From: 2010.05.17/outbox.cif.g08.bks.cpg/sg67_13_cif.got.tgz:24356.got - 2010.06.03 18:28:57.
