data_PCOD9504830
_publ_section_title
;
Structure prediction by ZEFSAII (Michael W. Deem and Ramdas Pophale) SiO2 
 PCOD9504830
Probable space group: C M M A
;
_chemical_formula_sum "Si O2"
_cell_formula_units_Z 88
_cell_length_a 32.519341
_cell_length_b 25.998472
_cell_length_c 5.283212
_cell_angle_alpha 90.000000
_cell_angle_beta 90.000000
_cell_angle_gamma 90.000000
_cell_volume 4466.708367
_symmetry_space_group_name_H-M "C M M A"
_symmetry_group_IT_number 67
_symmetry_cell_setting 'orthorhombic'
loop_
_space_group_symop_operation_xyz
x,y,z
-x,1/2-y,z
x,-y,-z
-x,1/2+y,-z
-x,-y,-z
x,1/2+y,-z
-x,y,z
x,1/2-y,z
1/2+x,1/2+y,z
1/2-x,-y,z
1/2+x,1/2-y,-z
1/2-x,y,-z
1/2-x,1/2-y,-z
1/2+x,y,-z
1/2-x,1/2+y,z
1/2+x,-y,z
loop_
_atom_site_type_symbol
_atom_site_label
_atom_site_fract_x
_atom_site_fract_y
_atom_site_fract_z
Si Si1 0.610713 0.629960 0.376516
Si Si2 0.952772 0.949168 0.677196
Si Si3 0.365980 0.690659 0.866128
Si Si4 0.776571 0.150509 0.750133
Si Si5 0.887339 0.500000 0.000000
Si Si6 0.674576 0.052245 0.393397
O O1 0.566975 0.602431 0.431250
O O2 0.615355 0.670394 0.603565
O O3 0.646767 0.586626 0.415540
O O4 0.618930 0.656586 0.105567
O O5 0.000000 0.944184 0.755727
O O6 0.949972 0.000000 0.500000
O O7 0.919694 0.959034 0.894544
O O8 0.375109 0.750000 0.915957
O O9 0.317362 0.683168 0.809426
O O10 0.750000 0.164546 0.500000
O O11 0.792837 0.092080 0.714439
O O12 0.750000 0.153784 0.000000
O O13 0.858415 0.529547 0.195489
O O14 0.693918 0.000000 0.500000
#
# Coordination Sequence:
#
# PCOD9504830 Si02
#       6
#    16  16  16  16   8  16
#     4  11  21  42  65  94 129 161 214 258 306 381
#     4  11  22  35  59  99 136 169 200 247 308 365
#     4  11  25  44  71  91 114 164 218 271 326 373
#     4  11  25  42  59  91 125 159 207 264 320 375
#     4  12  19  38  59  86 132 176 220 242 283 364
#     4  11  23  37  61  86 126 178 208 245 303 374
#
# _framework density 19.701308000000001
#
# number of rings (size 3 to 8) (size 9 to 14) (size 15 to 20)
#    0.000    0.909    3.636    5.182    2.545    1.091 
#    0.000    0.000    0.000    3.273    0.000    0.000 
#    0.000    0.000    0.000    0.000    0.000    0.000 
#
# Total GULP energy -245539.321032 kJ/mol
# GULP energy per Si atom -5580.439114 kJ/mol
# Density = 1.965647 g / cm^3
# Si number density = 19.701308 Si / 1000 Ang^3
#
#
#
# Elastic Constant Matrix: (Units=GPa)
#
#
# Indices 1 2 3 4 5 6 
#
# 1 86.1576 8.5176 38.6848 0.0000 0.0000 0.0000
# 2 8.5176 95.9737 25.8061 0.0000 0.0000 0.0000
# 3 38.6848 25.8061 101.9905 0.0000 0.0000 0.0000
# 4 0.0000 0.0000 0.0000 29.5866 0.0000 0.0000
# 5 0.0000 0.0000 0.0000 0.0000 4.7124 0.0000
# 6 0.0000 0.0000 0.0000 0.0000 0.0000 20.2011
#
#
#
# Elastic Compliance Matrix: (Units=1/GPa)
#
#
# Indices 1 2 3 4 5 6 
#
# 1 0.013993 0.000199 -0.005358 0.000000 0.000000 0.000000
# 2 0.000199 0.011183 -0.002905 0.000000 0.000000 0.000000
# 3 -0.005358 -0.002905 0.012572 0.000000 0.000000 0.000000
# 4 0.000000 0.000000 0.000000 0.033799 0.000000 0.000000
# 5 0.000000 0.000000 0.000000 0.000000 0.212206 0.000000
# 6 0.000000 0.000000 0.000000 0.000000 0.000000 0.049502
#
#
# Mechanical properties :
#
#
# Convention : Reuss Voigt Hill
#
# Bulk Modulus (GPa) = 46.25372 47.79321 47.02347
# Shear Modulus (GPa) = 14.02175 24.97425 19.49800
#
# Velocity S-wave (km/s) = 2.67070 3.56426 3.14933
# Velocity P-wave (km/s) = 5.74792 6.42263 6.09462
#
# Compressibility (1/GPa) = 0.02161988
#
# Stress axis : x y z
#
# Youngs Moduli (GPa) = 71.46643 89.42151 79.54179
#
# Poissons Ratio (x) = -0.01777 0.42616
# Poissons Ratio (y) = -0.01421 0.23107
# Poissons Ratio (z) = 0.38289 0.25977
#
# Static dielectric constant tensor:
#      x y z
#    x 1.732170 0.000000 0.000000 
#    y 0.000000 1.763510 0.000000 
#    z 0.000000 0.000000 1.770560 
# 
# From -- ./inp_files/4762.got.cif
#   From: 2010.05.17/outbox.cif.g08.bks.cpg/sg67_3_cif.got.tgz:4762.got - 2010.06.03 18:28:57.
