data_PCOD9504566
_publ_section_title
;
Structure prediction by ZEFSAII (Michael W. Deem and Ramdas Pophale) SiO2 
 PCOD9504566
Probable space group: C M M A
;
_chemical_formula_sum "Si O2"
_cell_formula_units_Z 112
_cell_length_a 15.477742
_cell_length_b 32.002372
_cell_length_c 11.455794
_cell_angle_alpha 90.000000
_cell_angle_beta 90.000000
_cell_angle_gamma 90.000000
_cell_volume 5674.334945
_symmetry_space_group_name_H-M "C M M A"
_symmetry_group_IT_number 67
_symmetry_cell_setting 'orthorhombic'
loop_
_space_group_symop_operation_xyz
x,y,z
-x,1/2-y,z
x,-y,-z
-x,1/2+y,-z
-x,-y,-z
x,1/2+y,-z
-x,y,z
x,1/2-y,z
1/2+x,1/2+y,z
1/2-x,-y,z
1/2+x,1/2-y,-z
1/2-x,y,-z
1/2-x,1/2-y,-z
1/2+x,y,-z
1/2-x,1/2+y,z
1/2+x,-y,z
loop_
_atom_site_type_symbol
_atom_site_label
_atom_site_fract_x
_atom_site_fract_y
_atom_site_fract_z
Si Si1 0.152978 0.120358 0.969679
Si Si2 0.896962 0.295259 0.841686
Si Si3 0.604404 0.204722 0.425719
Si Si4 0.849111 0.117249 0.466843
Si Si5 0.098506 0.035180 0.596327
Si Si6 0.597915 0.409479 0.783306
Si Si7 0.222124 0.043778 0.818392
O O1 0.119460 0.160385 0.901057
O O2 0.167862 0.077226 0.896085
O O3 0.250000 0.132526 0.000000
O O4 0.102346 0.112637 0.090073
O O5 0.865800 0.250000 0.891847
O O6 0.865199 0.297487 0.708409
O O7 0.000000 0.292116 0.836982
O O8 0.500000 0.203794 0.425570
O O9 0.631077 0.250000 0.474660
O O10 0.635585 0.163703 0.488694
O O11 0.750000 0.107038 0.500000
O O12 0.899266 0.080454 0.534457
O O13 0.880242 0.116666 0.332813
O O14 0.165209 0.035399 0.703159
O O15 0.000000 0.026815 0.636068
O O16 0.121150 0.000000 0.500000
O O17 0.500000 0.426974 0.770274
O O18 0.683433 0.438084 0.787125
O O19 0.250000 0.000000 0.874655
#
# Coordination Sequence:
#
# PCOD9504566 Si02
#       7
#    16  16  16  16  16  16  16
#     4  10  23  39  60  89 123 167 212 260 314 379
#     4   9  18  36  63  90 118 156 206 265 321 375
#     4   9  19  36  60  90 122 158 206 261 314 377
#     4  12  23  38  63  89 127 168 209 256 320 386
#     4  11  24  41  65  97 127 163 213 268 323 381
#     4  11  24  42  62  90 129 169 211 261 317 381
#     4  11  24  43  66  93 129 166 214 267 319 383
#
# _framework density 19.737995999999999
#
# number of rings (size 3 to 8) (size 9 to 14) (size 15 to 20)
#    0.000    1.571    1.429    4.286    2.000    7.143 
#    0.000    1.429    0.000    3.000    0.000    0.000 
#    0.000    0.000    0.000    0.000    0.000    0.000 
#
# Total GULP energy -312044.319861 kJ/mol
# GULP energy per Si atom -5572.219998 kJ/mol
# Density = 1.969307 g / cm^3
# Si number density = 19.737996 Si / 1000 Ang^3
#
#
#
# Elastic Constant Matrix: (Units=GPa)
#
#
# Indices 1 2 3 4 5 6 
#
# 1 93.0961 18.5371 45.4219 0.0000 0.0000 0.0000
# 2 18.5371 157.1092 76.3601 0.0000 0.0000 0.0000
# 3 45.4219 76.3601 117.1214 0.0000 0.0000 0.0000
# 4 0.0000 0.0000 0.0000 -37.0183 0.0000 0.0000
# 5 0.0000 0.0000 0.0000 0.0000 21.4916 0.0000
# 6 0.0000 0.0000 0.0000 0.0000 0.0000 17.9810
#
#
#
# Elastic Compliance Matrix: (Units=1/GPa)
#
#
# Indices 1 2 3 4 5 6 
#
# 1 0.013452 0.001388 -0.006122 0.000000 0.000000 0.000000
# 2 0.001388 0.009461 -0.006707 0.000000 0.000000 0.000000
# 3 -0.006122 -0.006707 0.015285 0.000000 0.000000 0.000000
# 4 0.000000 0.000000 0.000000 -0.027014 0.000000 0.000000
# 5 0.000000 0.000000 0.000000 0.000000 0.046530 0.000000
# 6 0.000000 0.000000 0.000000 0.000000 0.000000 0.055614
#
#
# Mechanical properties :
#
#
# Convention : Reuss Voigt Hill
#
# Bulk Modulus (GPa) = 65.28660 71.99610 68.64135
# Shear Modulus (GPa) = 35.38197 15.62471 25.50334
#
# Velocity S-wave (km/s) = 4.23848 2.81660 3.59847
# Velocity P-wave (km/s) = 7.55655 6.86533 7.21921
#
# Compressibility (1/GPa) = 0.01531708
#
# Stress axis : x y z
#
# Youngs Moduli (GPa) = 74.33746 105.69897 65.42360
#
# Poissons Ratio (x) = -0.14675 0.40054
# Poissons Ratio (y) = -0.10321 0.43877
# Poissons Ratio (z) = 0.45511 0.70889
#
# Static dielectric constant tensor:
#      x y z
#    x 1.699190 0.000000 0.000000 
#    y 0.000000 1.748110 0.000000 
#    z 0.000000 0.000000 1.727280 
# 
# From -- ./inp_files/18602.got.cif
#   From: 2010.05.17/outbox.cif.g08.bks.cpg/sg67_10_cif.got.tgz:18602.got - 2010.06.03 18:28:57.
