data_PCOD9504707
_publ_section_title
;
Structure prediction by ZEFSAII (Michael W. Deem and Ramdas Pophale) SiO2 
 PCOD9504707
Probable space group: C M M A
;
_chemical_formula_sum "Si O2"
_cell_formula_units_Z 116
_cell_length_a 21.890906
_cell_length_b 15.257184
_cell_length_c 16.135759
_cell_angle_alpha 90.000000
_cell_angle_beta 90.000000
_cell_angle_gamma 90.000000
_cell_volume 5389.239927
_symmetry_space_group_name_H-M "C M M A"
_symmetry_group_IT_number 67
_symmetry_cell_setting 'orthorhombic'
loop_
_space_group_symop_operation_xyz
x,y,z
-x,1/2-y,z
x,-y,-z
-x,1/2+y,-z
-x,-y,-z
x,1/2+y,-z
-x,y,z
x,1/2-y,z
1/2+x,1/2+y,z
1/2-x,-y,z
1/2+x,1/2-y,-z
1/2-x,y,-z
1/2-x,1/2-y,-z
1/2+x,y,-z
1/2-x,1/2+y,z
1/2+x,-y,z
loop_
_atom_site_type_symbol
_atom_site_label
_atom_site_fract_x
_atom_site_fract_y
_atom_site_fract_z
Si Si1 0.570006 0.394331 0.020720
Si Si2 0.293588 0.143043 0.577262
Si Si3 0.343834 0.606659 0.116003
Si Si4 0.569335 0.642724 0.460701
Si Si5 0.871777 0.431734 0.810340
Si Si6 0.750000 0.500000 0.000000
Si Si7 0.071565 0.849586 0.348850
Si Si8 0.747492 0.348116 0.243122
O O1 0.500000 0.367524 0.020535
O O2 0.598913 0.381539 0.111487
O O3 0.572340 0.500000 0.000000
O O4 0.609575 0.350942 0.948329
O O5 0.294922 0.250000 0.573959
O O6 0.250000 0.115032 0.500000
O O7 0.365211 0.114675 0.577207
O O8 0.263612 0.119094 0.665121
O O9 0.379683 0.532671 0.167659
O O10 0.294434 0.558989 0.056112
O O11 0.306657 0.657027 0.185293
O O12 0.500000 0.614224 0.433351
O O13 0.567721 0.750000 0.457064
O O14 0.576601 0.617483 0.557383
O O15 0.898377 0.405483 0.722395
O O16 0.800654 0.409624 0.802354
O O17 0.096338 0.750000 0.348034
O O18 0.000000 0.845124 0.330382
O O19 0.721316 0.250000 0.250169
#
# Coordination Sequence:
#
# PCOD9504707 Si02
#       8
#    16  16  16  16  16   4  16  16
#     4   9  18  33  54  77  98 132 178 215 245 303
#     4   9  17  30  49  74 103 135 174 220 265 319
#     4  11  20  36  58  74 102 136 179 216 256 310
#     4   8  14  27  47  69  97 139 182 213 254 318
#     4  11  18  31  53  77 102 139 172 210 261 326
#     4  12  16  40  56  76  98 144 178 214 248 304
#     4   9  17  28  46  78 113 136 164 214 268 314
#     4  11  22  34  52  80 107 133 174 225 277 316
#
# _framework density 21.524370999999999
#
# number of rings (size 3 to 8) (size 9 to 14) (size 15 to 20)
#    0.000    2.207    3.448    2.483    0.000    2.759 
#    0.000    4.483    0.000    8.690    0.000    1.931 
#    0.000    0.000    0.000    0.000    0.000    0.000 
#
# Total GULP energy -323560.590884 kJ/mol
# GULP energy per Si atom -5578.630877 kJ/mol
# Density = 2.147538 g / cm^3
# Si number density = 21.524371 Si / 1000 Ang^3
#
#
#
# Elastic Constant Matrix: (Units=GPa)
#
#
# Indices 1 2 3 4 5 6 
#
# 1 128.7515 0.9930 54.2360 0.0000 0.0000 0.0000
# 2 0.9930 24.8136 6.6214 0.0000 0.0000 0.0000
# 3 54.2360 6.6214 80.1591 0.0000 0.0000 0.0000
# 4 0.0000 0.0000 0.0000 4.8276 0.0000 0.0000
# 5 0.0000 0.0000 0.0000 0.0000 48.7147 0.0000
# 6 0.0000 0.0000 0.0000 0.0000 0.0000 -4.7946
#
#
#
# Elastic Compliance Matrix: (Units=1/GPa)
#
#
# Indices 1 2 3 4 5 6 
#
# 1 0.010923 0.001570 -0.007520 0.000000 0.000000 0.000000
# 2 0.001570 0.041434 -0.004485 0.000000 0.000000 0.000000
# 3 -0.007520 -0.004485 0.017934 0.000000 0.000000 0.000000
# 4 0.000000 0.000000 0.000000 0.207143 0.000000 0.000000
# 5 0.000000 0.000000 0.000000 0.000000 0.020528 0.000000
# 6 0.000000 0.000000 0.000000 0.000000 0.000000 -0.208566
#
#
# Mechanical properties :
#
#
# Convention : Reuss Voigt Hill
#
# Bulk Modulus (GPa) = 20.23446 39.71389 29.97417
# Shear Modulus (GPa) = 39.45134 21.20779 30.32956
#
# Velocity S-wave (km/s) = 4.28585 3.14234 3.75784
# Velocity P-wave (km/s) = 5.82344 5.62641 5.72577
#
# Compressibility (1/GPa) = 0.04942064
#
# Stress axis : x y z
#
# Youngs Moduli (GPa) = 91.55405 24.13459 55.76121
#
# Poissons Ratio (x) = -0.03788 0.41932
# Poissons Ratio (y) = -0.14370 0.25006
# Poissons Ratio (z) = 0.68847 0.10823
#
# Static dielectric constant tensor:
#      x y z
#    x 1.816520 0.000000 0.000000 
#    y 0.000000 1.931950 0.000000 
#    z 0.000000 0.000000 1.754440 
# 
# From -- ./inp_files/30304.got.cif
#   From: 2010.05.17/outbox.cif.g08.bks.cpg/sg67_16_cif.got.tgz:30304.got - 2010.06.03 18:28:57.
