data_PCOD9504742
_publ_section_title
;
Structure prediction by ZEFSAII (Michael W. Deem and Ramdas Pophale) SiO2 
 PCOD9504742
Probable space group: C M M A
;
_chemical_formula_sum "Si O2"
_cell_formula_units_Z 80
_cell_length_a 24.233384
_cell_length_b 8.624108
_cell_length_c 20.789297
_cell_angle_alpha 90.000000
_cell_angle_beta 90.000000
_cell_angle_gamma 90.000000
_cell_volume 4344.782639
_symmetry_space_group_name_H-M "C M M A"
_symmetry_group_IT_number 67
_symmetry_cell_setting 'orthorhombic'
loop_
_space_group_symop_operation_xyz
x,y,z
-x,1/2-y,z
x,-y,-z
-x,1/2+y,-z
-x,-y,-z
x,1/2+y,-z
-x,y,z
x,1/2-y,z
1/2+x,1/2+y,z
1/2-x,-y,z
1/2+x,1/2-y,-z
1/2-x,y,-z
1/2-x,1/2-y,-z
1/2+x,y,-z
1/2-x,1/2+y,z
1/2+x,-y,z
loop_
_atom_site_type_symbol
_atom_site_label
_atom_site_fract_x
_atom_site_fract_y
_atom_site_fract_z
Si Si1 0.884013 0.064642 0.068205
Si Si2 0.500000 0.436353 0.115662
Si Si3 0.000000 0.061750 0.734705
Si Si4 0.689645 0.064788 0.571280
Si Si5 0.380710 0.063401 0.313272
Si Si6 0.688137 0.063527 0.807289
O O1 0.887116 0.250000 0.065200
O O2 0.844303 0.021308 0.127375
O O3 0.944766 0.998425 0.082684
O O4 0.864177 0.000000 0.000000
O O5 0.500000 0.250000 0.113403
O O6 0.500000 0.487390 0.190600
O O7 0.943674 0.012864 0.700237
O O8 0.000000 0.250000 0.735462
O O9 0.692078 0.250000 0.569346
O O10 0.678140 0.000000 0.500000
O O11 0.750000 0.000000 0.590504
O O12 0.645164 0.007539 0.622557
O O13 0.378988 0.250000 0.317057
O O14 0.344398 0.007862 0.252906
O O15 0.688675 0.250000 0.801338
O O16 0.750000 0.000000 0.808757
#
# Coordination Sequence:
#
# PCOD9504742 Si02
#       6
#    16   8   8  16  16  16
#     4  11  24  40  59  85 116 152 194 244 298 354
#     4  11  20  38  63  88 115 151 194 242 295 348
#     4   9  20  36  61  90 117 153 193 238 292 345
#     4  11  22  39  62  92 124 161 200 242 291 340
#     4  11  21  39  63  90 121 155 196 242 291 347
#     4  11  24  40  59  85 115 152 196 243 295 352
#
# _framework density 18.412889
#
# number of rings (size 3 to 8) (size 9 to 14) (size 15 to 20)
#    0.000    1.200    2.000    5.400    0.000    2.800 
#    0.000    4.500    0.000    0.000    0.000    0.000 
#    0.000    0.000    0.000    0.000    0.000    0.000 
#
# Total GULP energy -223698.839007 kJ/mol
# GULP energy per Si atom -5592.470975 kJ/mol
# Density = 1.837098 g / cm^3
# Si number density = 18.412889 Si / 1000 Ang^3
#
#
#
# Elastic Constant Matrix: (Units=GPa)
#
#
# Indices 1 2 3 4 5 6 
#
# 1 138.1038 42.9150 66.0047 0.0000 0.0000 0.0000
# 2 42.9150 88.9746 42.0923 0.0000 0.0000 0.0000
# 3 66.0047 42.0923 108.8672 0.0000 0.0000 0.0000
# 4 0.0000 0.0000 0.0000 32.6221 0.0000 0.0000
# 5 0.0000 0.0000 0.0000 0.0000 74.2722 0.0000
# 6 0.0000 0.0000 0.0000 0.0000 0.0000 8.5028
#
#
#
# Elastic Compliance Matrix: (Units=1/GPa)
#
#
# Indices 1 2 3 4 5 6 
#
# 1 0.010647 -0.002548 -0.005470 0.000000 0.000000 0.000000
# 2 -0.002548 0.014365 -0.004009 0.000000 0.000000 0.000000
# 3 -0.005470 -0.004009 0.014052 0.000000 0.000000 0.000000
# 4 0.000000 0.000000 0.000000 0.030654 0.000000 0.000000
# 5 0.000000 0.000000 0.000000 0.000000 0.013464 0.000000
# 6 0.000000 0.000000 0.000000 0.000000 0.000000 0.117608
#
#
# Mechanical properties :
#
#
# Convention : Reuss Voigt Hill
#
# Bulk Modulus (GPa) = 66.62373 70.88551 68.75462
# Shear Modulus (GPa) = 21.75359 35.40834 28.58096
#
# Velocity S-wave (km/s) = 3.44093 4.38998 3.94410
# Velocity P-wave (km/s) = 7.21446 8.01731 7.62646
#
# Compressibility (1/GPa) = 0.01500967
#
# Stress axis : x y z
#
# Youngs Moduli (GPa) = 93.92392 69.61519 71.16345
#
# Poissons Ratio (x) = 0.17734 0.38927
# Poissons Ratio (y) = 0.23927 0.28532
# Poissons Ratio (z) = 0.51377 0.27912
#
# Static dielectric constant tensor:
#      x y z
#    x 1.609510 0.000000 0.000000 
#    y 0.000000 1.617830 0.000000 
#    z 0.000000 0.000000 1.614780 
# 
# From -- ./inp_files/39535.got.cif
#   From: 2010.05.17/outbox.cif.g08.bks.cpg/sg67_20_cif.got.tgz:39535.got - 2010.06.03 18:28:57.
