data_PCOD9504440
_publ_section_title
;
Structure prediction by ZEFSAII (Michael W. Deem and Ramdas Pophale) SiO2 
 PCOD9504440
Probable space group: C M M A
;
_chemical_formula_sum "Si O2"
_cell_formula_units_Z 96
_cell_length_a 18.345597
_cell_length_b 9.145470
_cell_length_c 31.813796
_cell_angle_alpha 90.000000
_cell_angle_beta 90.000000
_cell_angle_gamma 90.000000
_cell_volume 5337.690283
_symmetry_space_group_name_H-M "C M M A"
_symmetry_group_IT_number 67
_symmetry_cell_setting 'orthorhombic'
loop_
_space_group_symop_operation_xyz
x,y,z
-x,1/2-y,z
x,-y,-z
-x,1/2+y,-z
-x,-y,-z
x,1/2+y,-z
-x,y,z
x,1/2-y,z
1/2+x,1/2+y,z
1/2-x,-y,z
1/2+x,1/2-y,-z
1/2-x,y,-z
1/2-x,1/2-y,-z
1/2+x,y,-z
1/2-x,1/2+y,z
1/2+x,-y,z
loop_
_atom_site_type_symbol
_atom_site_label
_atom_site_fract_x
_atom_site_fract_y
_atom_site_fract_z
Si Si1 0.828560 0.574524 0.127646
Si Si2 0.171731 0.075353 0.288896
Si Si3 0.585020 0.074790 0.043292
Si Si4 0.411293 0.080669 0.458318
Si Si5 0.585932 0.576685 0.202557
Si Si6 0.413237 0.926182 0.635135
O O1 0.822126 0.750000 0.129661
O O2 0.750000 0.500000 0.130318
O O3 0.867268 0.534509 0.083601
O O4 0.877445 0.516427 0.165858
O O5 0.179493 0.250000 0.293535
O O6 0.124817 0.046741 0.246913
O O7 0.250000 0.000000 0.284557
O O8 0.130580 0.007799 0.328873
O O9 0.500000 0.034617 0.050515
O O10 0.588260 0.250000 0.038415
O O11 0.609106 0.000000 0.000000
O O12 0.500000 0.074183 0.458501
O O13 0.390821 0.250000 0.461135
O O14 0.389793 0.025965 0.411981
O O15 0.384822 0.000000 0.500000
O O16 0.500000 0.546630 0.205510
O O17 0.595381 0.750000 0.193479
O O18 0.500000 0.953777 0.639582
O O19 0.403267 0.750000 0.637885
#
# Coordination Sequence:
#
# PCOD9504440 Si02
#       6
#    16  16  16  16  16  16
#     4  11  23  38  57  83 115 149 186 226 270 322
#     4  11  23  38  56  79 108 141 178 220 267 320
#     4   9  19  36  57  81 109 143 185 230 274 322
#     4   8  14  25  43  70 103 136 171 213 260 310
#     4  10  22  40  61  85 111 139 176 222 270 322
#     4   9  18  33  53  78 108 141 178 220 266 317
#
# _framework density 17.985308
#
# number of rings (size 3 to 8) (size 9 to 14) (size 15 to 20)
#    0.000    2.333    0.000    3.500    0.000    7.000 
#    0.000    5.000    0.000    0.500    0.000    3.500 
#    0.000    0.000    0.000    0.000    0.000    0.000 
#
# Total GULP energy -267888.213477 kJ/mol
# GULP energy per Si atom -5581.004447 kJ/mol
# Density = 1.794437 g / cm^3
# Si number density = 17.985308 Si / 1000 Ang^3
#
#
#
# Elastic Constant Matrix: (Units=GPa)
#
#
# Indices 1 2 3 4 5 6 
#
# 1 103.1663 60.4583 89.4897 0.0000 0.0000 0.0000
# 2 60.4583 60.4468 86.6701 0.0000 0.0000 0.0000
# 3 89.4897 86.6701 186.1832 0.0000 0.0000 0.0000
# 4 0.0000 0.0000 0.0000 36.1942 0.0000 0.0000
# 5 0.0000 0.0000 0.0000 0.0000 -18.8751 0.0000
# 6 0.0000 0.0000 0.0000 0.0000 0.0000 21.5512
#
#
#
# Elastic Compliance Matrix: (Units=1/GPa)
#
#
# Indices 1 2 3 4 5 6 
#
# 1 0.023491 -0.021970 -0.001064 0.000000 0.000000 0.000000
# 2 -0.021970 0.070297 -0.022164 0.000000 0.000000 0.000000
# 3 -0.001064 -0.022164 0.016200 0.000000 0.000000 0.000000
# 4 0.000000 0.000000 0.000000 0.027629 0.000000 0.000000
# 5 0.000000 0.000000 0.000000 0.000000 -0.052980 0.000000
# 6 0.000000 0.000000 0.000000 0.000000 0.000000 0.046401
#
#
# Mechanical properties :
#
#
# Convention : Reuss Voigt Hill
#
# Bulk Modulus (GPa) = 51.04094 91.44805 71.24449
# Shear Modulus (GPa) = 21.93335 15.31928 18.62632
#
# Velocity S-wave (km/s) = 3.49594 2.92167 3.22163
# Velocity P-wave (km/s) = 6.68852 7.89544 7.31691
#
# Compressibility (1/GPa) = 0.01959212
#
# Stress axis : x y z
#
# Youngs Moduli (GPa) = 42.56973 14.22540 61.72958
#
# Poissons Ratio (x) = 0.31254 0.06565
# Poissons Ratio (y) = 0.93527 1.36816
# Poissons Ratio (z) = 0.04528 0.31529
#
# Static dielectric constant tensor:
#      x y z
#    x 1.595730 0.000000 0.000000 
#    y 0.000000 1.599400 0.000000 
#    z 0.000000 0.000000 1.603870 
# 
# From -- ./inp_files/44605.got.cif
#   From: 2010.05.17/outbox.cif.g08.bks.cpg/sg67_23_cif.got.tgz:44605.got - 2010.06.03 18:28:57.
