data_PCOD9504925
_publ_section_title
;
Structure prediction by ZEFSAII (Michael W. Deem and Ramdas Pophale) SiO2 
 PCOD9504925
Probable space group: C M M A
;
_chemical_formula_sum "Si O2"
_cell_formula_units_Z 68
_cell_length_a 17.517269
_cell_length_b 16.076429
_cell_length_c 11.712586
_cell_angle_alpha 90.000000
_cell_angle_beta 90.000000
_cell_angle_gamma 90.000000
_cell_volume 3298.441445
_symmetry_space_group_name_H-M "C M M A"
_symmetry_group_IT_number 67
_symmetry_cell_setting 'orthorhombic'
loop_
_space_group_symop_operation_xyz
x,y,z
-x,1/2-y,z
x,-y,-z
-x,1/2+y,-z
-x,-y,-z
x,1/2+y,-z
-x,y,z
x,1/2-y,z
1/2+x,1/2+y,z
1/2-x,-y,z
1/2+x,1/2-y,-z
1/2-x,y,-z
1/2-x,1/2-y,-z
1/2+x,y,-z
1/2-x,1/2+y,z
1/2+x,-y,z
loop_
_atom_site_type_symbol
_atom_site_label
_atom_site_fract_x
_atom_site_fract_y
_atom_site_fract_z
Si Si1 0.000000 0.750000 0.318822
Si Si2 0.662755 0.347256 0.981430
Si Si3 0.911709 0.925870 0.760156
Si Si4 0.622041 0.878658 0.764327
Si Si5 0.267417 0.400408 0.626434
O O1 0.933882 0.822016 0.307515
O O2 0.666017 0.250000 0.949161
O O3 0.619902 0.397159 0.883006
O O4 0.750000 0.377422 0.000000
O O5 0.620120 0.355313 0.102300
O O6 0.853861 0.888029 0.666828
O O7 0.000000 0.903084 0.745523
O O8 0.901540 0.025243 0.752999
O O9 0.708012 0.866056 0.718751
O O10 0.250000 0.500000 0.625075
O O11 0.250000 0.368568 0.500000
#
# Coordination Sequence:
#
# PCOD9504925 Si02
#       5
#     4  16  16  16  16
#     4  12  24  40  62  94 134 168 218 264 312 390
#     4  11  23  38  62  90 130 172 210 258 323 388
#     4  11  23  38  65 100 127 166 217 268 318 383
#     4  11  22  40  63  91 129 173 213 260 321 385
#     4   9  20  42  66  90 123 168 218 266 325 386
#
# _framework density 20.615796
#
# number of rings (size 3 to 8) (size 9 to 14) (size 15 to 20)
#    0.000    1.412    4.706    0.706    1.647    2.353 
#    2.118    2.941    0.000    0.000    0.000    0.000 
#    0.000    0.000    0.000    0.000    0.000    0.000 
#
# Total GULP energy -189501.292186 kJ/mol
# GULP energy per Si atom -5573.567417 kJ/mol
# Density = 2.056887 g / cm^3
# Si number density = 20.615796 Si / 1000 Ang^3
#
#
#
# Elastic Constant Matrix: (Units=GPa)
#
#
# Indices 1 2 3 4 5 6 
#
# 1 186.6589 28.2763 43.9883 0.0000 0.0000 0.0000
# 2 28.2763 61.1103 14.6902 0.0000 0.0000 0.0000
# 3 43.9883 14.6902 96.7343 0.0000 0.0000 0.0000
# 4 0.0000 0.0000 0.0000 -12.7560 0.0000 0.0000
# 5 0.0000 0.0000 0.0000 0.0000 12.6816 0.0000
# 6 0.0000 0.0000 0.0000 0.0000 0.0000 28.3295
#
#
#
# Elastic Compliance Matrix: (Units=1/GPa)
#
#
# Indices 1 2 3 4 5 6 
#
# 1 0.006300 -0.002311 -0.002514 0.000000 0.000000 0.000000
# 2 -0.002311 0.017831 -0.001657 0.000000 0.000000 0.000000
# 3 -0.002514 -0.001657 0.011732 0.000000 0.000000 0.000000
# 4 0.000000 0.000000 0.000000 -0.078395 0.000000 0.000000
# 5 0.000000 0.000000 0.000000 0.000000 0.078854 0.000000
# 6 0.000000 0.000000 0.000000 0.000000 0.000000 0.035299
#
#
# Mechanical properties :
#
#
# Convention : Reuss Voigt Hill
#
# Bulk Modulus (GPa) = 43.66768 57.60147 50.63458
# Shear Modulus (GPa) = 54.21885 22.82093 38.51989
#
# Velocity S-wave (km/s) = 5.13388 3.33072 4.32726
# Velocity P-wave (km/s) = 7.50800 6.54161 7.04140
#
# Compressibility (1/GPa) = 0.02290023
#
# Stress axis : x y z
#
# Youngs Moduli (GPa) = 158.73477 56.08083 85.23425
#
# Poissons Ratio (x) = 0.12959 0.21426
# Poissons Ratio (y) = 0.36679 0.14125
# Poissons Ratio (z) = 0.39903 0.09294
#
# Static dielectric constant tensor:
#      x y z
#    x 1.738310 0.000000 0.000000 
#    y 0.000000 1.725380 0.000000 
#    z 0.000000 0.000000 1.735200 
# 
# From -- ./inp_files/19167.got.cif
#   From: 2010.05.17/outbox.cif.g08.bks.cpg/sg67_10_cif.got.tgz:19167.got - 2010.06.03 18:28:57.
