data_PCOD9504852
_publ_section_title
;
Structure prediction by ZEFSAII (Michael W. Deem and Ramdas Pophale) SiO2 
 PCOD9504852
Probable space group: C M M A
;
_chemical_formula_sum "Si O2"
_cell_formula_units_Z 100
_cell_length_a 8.783969
_cell_length_b 30.610102
_cell_length_c 20.410617
_cell_angle_alpha 90.000000
_cell_angle_beta 90.000000
_cell_angle_gamma 90.000000
_cell_volume 5487.969696
_symmetry_space_group_name_H-M "C M M A"
_symmetry_group_IT_number 67
_symmetry_cell_setting 'orthorhombic'
loop_
_space_group_symop_operation_xyz
x,y,z
-x,1/2-y,z
x,-y,-z
-x,1/2+y,-z
-x,-y,-z
x,1/2+y,-z
-x,y,z
x,1/2-y,z
1/2+x,1/2+y,z
1/2-x,-y,z
1/2+x,1/2-y,-z
1/2-x,y,-z
1/2-x,1/2-y,-z
1/2+x,y,-z
1/2-x,1/2+y,z
1/2+x,-y,z
loop_
_atom_site_type_symbol
_atom_site_label
_atom_site_fract_x
_atom_site_fract_y
_atom_site_fract_z
Si Si1 0.673524 0.429769 0.607710
Si Si2 0.814554 0.135177 0.814249
Si Si3 0.250000 0.500000 0.500000
Si Si4 0.816084 0.200350 0.927428
Si Si5 0.681887 0.161566 0.432412
Si Si6 0.814568 0.798124 0.296597
Si Si7 0.183368 0.546315 0.251736
O O1 0.500000 0.418129 0.623375
O O2 0.671169 0.466992 0.551569
O O3 0.759998 0.387530 0.580376
O O4 0.755430 0.444657 0.674625
O O5 0.764785 0.161726 0.878716
O O6 0.764090 0.164644 0.752912
O O7 0.769740 0.085748 0.796881
O O8 0.000000 0.135180 0.815682
O O9 0.775673 0.250000 0.904631
O O10 0.000000 0.199003 0.930216
O O11 0.750000 0.194838 0.000000
O O12 0.500000 0.160963 0.436051
O O13 0.750000 0.178007 0.500000
O O14 0.729602 0.190132 0.370200
O O15 0.763188 0.750000 0.277146
O O16 0.000000 0.798276 0.294652
O O17 0.250000 0.500000 0.230288
O O18 0.000000 0.544813 0.254717
#
# Coordination Sequence:
#
# PCOD9504852 Si02
#       7
#    16  16   4  16  16  16  16
#     4  12  24  37  54  75 102 136 176 225 280 336
#     4   9  17  32  55  82 110 145 184 224 266 322
#     4  12  26  36  56  78 100 132 176 228 282 344
#     4   9  17  31  55  87 120 151 183 221 268 323
#     4  11  22  36  53  74 102 136 176 223 274 329
#     4   9  17  31  53  79 103 134 179 225 268 320
#     4  11  22  37  56  80 109 140 181 228 273 323
#
# _framework density 18.221675000000001
#
# number of rings (size 3 to 8) (size 9 to 14) (size 15 to 20)
#    0.000    1.760    3.200    2.160    0.000    3.520 
#    0.000    1.600    0.000    1.920    0.000    3.360 
#    0.000    0.000    0.000    0.000    0.000    0.000 
#
# Total GULP energy -278901.202598 kJ/mol
# GULP energy per Si atom -5578.024052 kJ/mol
# Density = 1.818020 g / cm^3
# Si number density = 18.221675 Si / 1000 Ang^3
#
#
#
# Elastic Constant Matrix: (Units=GPa)
#
#
# Indices 1 2 3 4 5 6 
#
# 1 38.0695 15.2188 21.1869 0.0000 0.0000 0.0000
# 2 15.2188 120.9140 67.2482 0.0000 0.0000 0.0000
# 3 21.1869 67.2482 106.5542 0.0000 0.0000 0.0000
# 4 0.0000 0.0000 0.0000 35.9668 0.0000 0.0000
# 5 0.0000 0.0000 0.0000 0.0000 17.5708 0.0000
# 6 0.0000 0.0000 0.0000 0.0000 0.0000 12.1120
#
#
#
# Elastic Compliance Matrix: (Units=1/GPa)
#
#
# Indices 1 2 3 4 5 6 
#
# 1 0.029574 -0.000696 -0.005441 0.000000 0.000000 0.000000
# 2 -0.000696 0.012760 -0.007914 0.000000 0.000000 0.000000
# 3 -0.005441 -0.007914 0.015462 0.000000 0.000000 0.000000
# 4 0.000000 0.000000 0.000000 0.027803 0.000000 0.000000
# 5 0.000000 0.000000 0.000000 0.000000 0.056913 0.000000
# 6 0.000000 0.000000 0.000000 0.000000 0.000000 0.082563
#
#
# Mechanical properties :
#
#
# Convention : Reuss Voigt Hill
#
# Bulk Modulus (GPa) = 33.67889 52.53838 43.10864
# Shear Modulus (GPa) = 19.00600 23.92219 21.46409
#
# Velocity S-wave (km/s) = 3.23312 3.62725 3.43584
# Velocity P-wave (km/s) = 5.69741 6.81455 6.28086
#
# Compressibility (1/GPa) = 0.02969219
#
# Stress axis : x y z
#
# Youngs Moduli (GPa) = 33.81333 78.37168 64.67589
#
# Poissons Ratio (x) = 0.05456 0.35190
# Poissons Ratio (y) = 0.02354 0.51187
# Poissons Ratio (z) = 0.18398 0.62027
#
# Static dielectric constant tensor:
#      x y z
#    x 1.625980 0.000000 0.000000 
#    y 0.000000 1.636690 0.000000 
#    z 0.000000 0.000000 1.614860 
# 
# From -- ./inp_files/37533.got.cif
#   From: 2010.05.17/outbox.cif.g08.bks.cpg/sg67_19_cif.got.tgz:37533.got - 2010.06.03 18:28:57.
