data_PCOD9504198
_publ_section_title
;
Structure prediction by ZEFSAII (Michael W. Deem and Ramdas Pophale) SiO2 
 PCOD9504198
Probable space group: C M M A
;
_chemical_formula_sum "Si O2"
_cell_formula_units_Z 116
_cell_length_a 17.839659
_cell_length_b 22.476267
_cell_length_c 11.079358
_cell_angle_alpha 90.000000
_cell_angle_beta 90.000000
_cell_angle_gamma 90.000000
_cell_volume 4442.478421
_symmetry_space_group_name_H-M "C M M A"
_symmetry_group_IT_number 67
_symmetry_cell_setting 'orthorhombic'
loop_
_space_group_symop_operation_xyz
x,y,z
-x,1/2-y,z
x,-y,-z
-x,1/2+y,-z
-x,-y,-z
x,1/2+y,-z
-x,y,z
x,1/2-y,z
1/2+x,1/2+y,z
1/2-x,-y,z
1/2+x,1/2-y,-z
1/2-x,y,-z
1/2-x,1/2-y,-z
1/2+x,y,-z
1/2-x,1/2+y,z
1/2+x,-y,z
loop_
_atom_site_type_symbol
_atom_site_label
_atom_site_fract_x
_atom_site_fract_y
_atom_site_fract_z
Si Si1 0.285463 0.817733 0.792440
Si Si2 0.587411 0.317120 0.584460
Si Si3 0.750000 0.000000 0.000000
Si Si4 0.417091 0.109312 0.088243
Si Si5 0.085651 0.491820 0.644091
Si Si6 0.620072 0.816806 0.132763
Si Si7 0.404731 0.462526 0.891328
Si Si8 0.810697 0.103092 0.582190
O O1 0.308354 0.750000 0.774338
O O2 0.353254 0.852023 0.854052
O O3 0.209476 0.817892 0.868029
O O4 0.270283 0.848039 0.664248
O O5 0.500000 0.323121 0.555479
O O6 0.612747 0.250000 0.552555
O O7 0.595282 0.320937 0.729127
O O8 0.631613 0.364131 0.505585
O O9 0.691163 0.960558 0.079872
O O10 0.500000 0.125952 0.129436
O O11 0.407867 0.038538 0.082107
O O12 0.408351 0.126212 0.943839
O O13 0.093860 0.500000 0.500000
O O14 0.100640 0.542371 0.741597
O O15 0.143983 0.439718 0.669323
O O16 0.000000 0.471729 0.661359
O O17 0.596081 0.750000 0.087500
O O18 0.500000 0.455127 0.899053
O O19 0.750000 0.071091 0.500000
#
# Coordination Sequence:
#
# PCOD9504198 Si02
#       8
#    16  16   4  16  16  16  16  16
#     4  11  25  43  68 102 143 187 236 293 352 422
#     4  10  21  39  66  98 134 180 232 282 337 409
#     4   8  24  44  72 100 130 168 244 300 336 424
#     4  12  26  41  68 102 138 182 232 289 358 427
#     4  11  27  48  70 104 147 187 239 306 368 433
#     4  10  22  41  65  93 133 178 228 281 338 409
#     4  10  24  46  73  98 137 184 237 295 365 433
#     4  12  25  43  70 101 139 188 234 286 355 432
#
# _framework density 26.111550999999999
#
# number of rings (size 3 to 8) (size 9 to 14) (size 15 to 20)
#    0.414    0.828    1.379    3.310    3.862    8.000 
#    0.000    0.000    0.000    0.000    0.000    0.000 
#    0.000    0.000    0.000    0.000    0.000    0.000 
#
# Total GULP energy -323993.524325 kJ/mol
# GULP energy per Si atom -5586.095247 kJ/mol
# Density = 2.605212 g / cm^3
# Si number density = 26.111551 Si / 1000 Ang^3
#
#
#
# Elastic Constant Matrix: (Units=GPa)
#
#
# Indices 1 2 3 4 5 6 
#
# 1 147.2206 54.3290 37.6876 0.0000 0.0000 0.0000
# 2 54.3290 92.4730 27.9050 0.0000 0.0000 0.0000
# 3 37.6876 27.9050 75.5186 0.0000 0.0000 0.0000
# 4 0.0000 0.0000 0.0000 -4.1839 0.0000 0.0000
# 5 0.0000 0.0000 0.0000 0.0000 42.5193 0.0000
# 6 0.0000 0.0000 0.0000 0.0000 0.0000 134.8197
#
#
#
# Elastic Compliance Matrix: (Units=1/GPa)
#
#
# Indices 1 2 3 4 5 6 
#
# 1 0.009213 -0.004530 -0.002924 0.000000 0.000000 0.000000
# 2 -0.004530 0.014399 -0.003060 0.000000 0.000000 0.000000
# 3 -0.002924 -0.003060 0.015831 0.000000 0.000000 0.000000
# 4 0.000000 0.000000 0.000000 -0.239010 0.000000 0.000000
# 5 0.000000 0.000000 0.000000 0.000000 0.023519 0.000000
# 6 0.000000 0.000000 0.000000 0.000000 0.000000 0.007417
#
#
# Mechanical properties :
#
#
# Convention : Reuss Voigt Hill
#
# Bulk Modulus (GPa) = 54.30135 61.67281 57.98708
# Shear Modulus (GPa) = -35.34447 47.65039 6.15296
#
# Velocity S-wave (km/s) = -3.68312 4.27649 1.53673
# Velocity P-wave (km/s) = 1.65950 6.93216 5.04027
#
# Compressibility (1/GPa) = 0.01841575
#
# Stress axis : x y z
#
# Youngs Moduli (GPa) = 108.54441 69.44957 63.16559
#
# Poissons Ratio (x) = 0.31463 0.18467
# Poissons Ratio (y) = 0.49175 0.19327
# Poissons Ratio (z) = 0.31734 0.21249
#
# Static dielectric constant tensor:
#      x y z
#    x 2.005170 0.000000 0.000000 
#    y 0.000000 2.469410 0.000000 
#    z 0.000000 0.000000 2.362630 
# 
# From -- ./inp_files/19997.got.cif
#   From: 2010.05.17/outbox.cif.g08.bks.cpg/sg67_10_cif.got.tgz:19997.got - 2010.06.03 18:28:57.
