data_PCOD9504169
_publ_section_title
;
Structure prediction by ZEFSAII (Michael W. Deem and Ramdas Pophale) SiO2 
 PCOD9504169
Probable space group: C M M A
;
_chemical_formula_sum "Si O2"
_cell_formula_units_Z 64
_cell_length_a 18.664167
_cell_length_b 8.688058
_cell_length_c 20.841808
_cell_angle_alpha 90.000000
_cell_angle_beta 90.000000
_cell_angle_gamma 90.000000
_cell_volume 3379.610992
_symmetry_space_group_name_H-M "C M M A"
_symmetry_group_IT_number 67
_symmetry_cell_setting 'orthorhombic'
loop_
_space_group_symop_operation_xyz
x,y,z
-x,1/2-y,z
x,-y,-z
-x,1/2+y,-z
-x,-y,-z
x,1/2+y,-z
-x,y,z
x,1/2-y,z
1/2+x,1/2+y,z
1/2-x,-y,z
1/2+x,1/2-y,-z
1/2-x,y,-z
1/2-x,1/2-y,-z
1/2+x,y,-z
1/2-x,1/2+y,z
1/2+x,-y,z
loop_
_atom_site_type_symbol
_atom_site_label
_atom_site_fract_x
_atom_site_fract_y
_atom_site_fract_z
Si Si1 0.915368 0.066208 0.570207
Si Si2 0.669978 0.066186 0.690191
Si Si3 0.415494 0.934115 0.811533
Si Si4 0.670497 0.065768 0.930363
O O1 0.904795 0.250000 0.571051
O O2 0.000000 0.035943 0.581954
O O3 0.897927 0.000000 0.500000
O O4 0.868593 0.988479 0.625174
O O5 0.672000 0.250000 0.693286
O O6 0.750000 0.000000 0.692567
O O7 0.625380 0.000645 0.750066
O O8 0.500000 0.966067 0.806717
O O9 0.405436 0.750000 0.813931
O O10 0.382295 0.008842 0.875150
O O11 0.673589 0.250000 0.932738
O O12 0.750000 0.000000 0.916596
O O13 0.649329 0.000000 0.000000
#
# Coordination Sequence:
#
# PCOD9504169 Si02
#       4
#    16  16  16  16
#     4  10  21  39  63  91 123 158 197 242 294 352
#     4  12  25  41  62  88 120 157 200 247 297 353
#     4  11  24  42  63  88 120 157 198 245 297 353
#     4  11  22  39  63  90 122 158 199 244 294 352
#
# _framework density 18.937092
#
# number of rings (size 3 to 8) (size 9 to 14) (size 15 to 20)
#    0.000    1.000    0.000    8.250    0.000    7.500 
#    0.000    2.500    0.000    0.000    0.000    0.000 
#    0.000    0.000    0.000    0.000    0.000    0.000 
#
# Total GULP energy -179109.461629 kJ/mol
# GULP energy per Si atom -5597.170676 kJ/mol
# Density = 1.889399 g / cm^3
# Si number density = 18.937092 Si / 1000 Ang^3
#
#
#
# Elastic Constant Matrix: (Units=GPa)
#
#
# Indices 1 2 3 4 5 6 
#
# 1 138.6332 109.3960 128.4561 0.0000 0.0000 0.0000
# 2 109.3960 175.1553 103.0764 0.0000 0.0000 0.0000
# 3 128.4561 103.0764 171.1221 0.0000 0.0000 0.0000
# 4 0.0000 0.0000 0.0000 39.3855 0.0000 0.0000
# 5 0.0000 0.0000 0.0000 0.0000 34.4664 0.0000
# 6 0.0000 0.0000 0.0000 0.0000 0.0000 30.9240
#
#
#
# Elastic Compliance Matrix: (Units=1/GPa)
#
#
# Indices 1 2 3 4 5 6 
#
# 1 0.030177 -0.008546 -0.017505 0.000000 0.000000 0.000000
# 2 -0.008546 0.011265 -0.000370 0.000000 0.000000 0.000000
# 3 -0.017505 -0.000370 0.019207 0.000000 0.000000 0.000000
# 4 0.000000 0.000000 0.000000 0.025390 0.000000 0.000000
# 5 0.000000 0.000000 0.000000 0.000000 0.029014 0.000000
# 6 0.000000 0.000000 0.000000 0.000000 0.000000 0.032337
#
#
# Mechanical properties :
#
#
# Convention : Reuss Voigt Hill
#
# Bulk Modulus (GPa) = 128.10087 129.64084 128.87085
# Shear Modulus (GPa) = 24.65048 30.55399 27.60224
#
# Velocity S-wave (km/s) = 3.61183 4.02113 3.82196
# Velocity P-wave (km/s) = 9.22963 9.49561 9.36356
#
# Compressibility (1/GPa) = 0.00780635
#
# Stress axis : x y z
#
# Youngs Moduli (GPa) = 33.13736 88.77422 52.06307
#
# Poissons Ratio (x) = 0.75867 0.91139
# Poissons Ratio (y) = 0.28319 0.01926
# Poissons Ratio (z) = 0.58009 0.03285
#
# Static dielectric constant tensor:
#      x y z
#    x 1.628190 0.000000 0.000000 
#    y 0.000000 1.630390 0.000000 
#    z 0.000000 0.000000 1.623010 
# 
# From -- ./inp_files/34640.got.cif
#   From: 2010.05.17/outbox.cif.g08.bks.cpg/sg67_18_cif.got.tgz:34640.got - 2010.06.03 18:28:57.
