data_PCOD9504934
_publ_section_title
;
Structure prediction by ZEFSAII (Michael W. Deem and Ramdas Pophale) SiO2 
 PCOD9504934
Probable space group: C M M A
;
_chemical_formula_sum "Si O2"
_cell_formula_units_Z 72
_cell_length_a 15.361649
_cell_length_b 8.958267
_cell_length_c 25.960785
_cell_angle_alpha 90.000000
_cell_angle_beta 90.000000
_cell_angle_gamma 90.000000
_cell_volume 3572.561063
_symmetry_space_group_name_H-M "C M M A"
_symmetry_group_IT_number 67
_symmetry_cell_setting 'orthorhombic'
loop_
_space_group_symop_operation_xyz
x,y,z
-x,1/2-y,z
x,-y,-z
-x,1/2+y,-z
-x,-y,-z
x,1/2+y,-z
-x,y,z
x,1/2-y,z
1/2+x,1/2+y,z
1/2-x,-y,z
1/2+x,1/2-y,-z
1/2-x,y,-z
1/2-x,1/2-y,-z
1/2+x,y,-z
1/2-x,1/2+y,z
1/2+x,-y,z
loop_
_atom_site_type_symbol
_atom_site_label
_atom_site_fract_x
_atom_site_fract_y
_atom_site_fract_z
Si Si1 0.893430 0.922973 0.657004
Si Si2 0.600839 0.068756 0.768501
Si Si3 0.393473 0.579285 0.552343
Si Si4 0.839828 0.930415 0.881334
Si Si5 0.000000 0.430140 0.943163
O O1 0.868213 0.750000 0.652668
O O2 0.865335 0.984936 0.712877
O O3 0.000000 0.926990 0.658351
O O4 0.864354 0.006590 0.605844
O O5 0.500000 0.021942 0.774141
O O6 0.600721 0.250000 0.765307
O O7 0.648922 0.028698 0.820830
O O8 0.364616 0.500000 0.500000
O O9 0.500000 0.572682 0.552634
O O10 0.367062 0.750000 0.550767
O O11 0.842693 0.750000 0.885761
O O12 0.750000 0.000000 0.900089
O O13 0.917245 0.005627 0.912704
O O14 0.000000 0.250000 0.944692
O O15 0.000000 0.500000 0.000000
#
# Coordination Sequence:
#
# PCOD9504934 Si02
#       5
#    16  16  16  16   8
#     4   8  13  22  38  59  83 120 172 221 272 336
#     4   8  14  28  52  77 105 146 190 234 288 350
#     4   9  15  21  29  45  75 116 162 215 275 334
#     4  11  22  40  65  95 130 167 207 253 302 358
#     4  12  26  46  70  98 128 166 209 252 303 356
#
# _framework density 20.15361
#
# number of rings (size 3 to 8) (size 9 to 14) (size 15 to 20)
#    0.000    2.667    1.111    3.667    0.000    3.111 
#    0.000    4.444    0.000    0.000    0.000    0.000 
#    0.000    0.889    0.000   10.222    0.000   12.444 
#
# Total GULP energy -200868.283662 kJ/mol
# GULP energy per Si atom -5579.674546 kJ/mol
# Density = 2.010774 g / cm^3
# Si number density = 20.153610 Si / 1000 Ang^3
#
#
#
# Elastic Constant Matrix: (Units=GPa)
#
#
# Indices 1 2 3 4 5 6 
#
# 1 90.2982 40.0553 54.6848 0.0000 0.0000 0.0000
# 2 40.0553 107.0657 82.8829 0.0000 0.0000 0.0000
# 3 54.6848 82.8829 186.3235 0.0000 0.0000 0.0000
# 4 0.0000 0.0000 0.0000 31.1639 0.0000 0.0000
# 5 0.0000 0.0000 0.0000 0.0000 -21.5830 0.0000
# 6 0.0000 0.0000 0.0000 0.0000 0.0000 12.2353
#
#
#
# Elastic Compliance Matrix: (Units=1/GPa)
#
#
# Indices 1 2 3 4 5 6 
#
# 1 0.014140 -0.003168 -0.002740 0.000000 0.000000 0.000000
# 2 -0.003168 0.014956 -0.005723 0.000000 0.000000 0.000000
# 3 -0.002740 -0.005723 0.008717 0.000000 0.000000 0.000000
# 4 0.000000 0.000000 0.000000 0.032088 0.000000 0.000000
# 5 0.000000 0.000000 0.000000 0.000000 -0.046333 0.000000
# 6 0.000000 0.000000 0.000000 0.000000 0.000000 0.081731
#
#
# Mechanical properties :
#
#
# Convention : Reuss Voigt Hill
#
# Bulk Modulus (GPa) = 68.73426 82.10372 75.41899
# Shear Modulus (GPa) = 37.47787 18.10084 27.78936
#
# Velocity S-wave (km/s) = 4.31700 3.00016 3.71735
# Velocity P-wave (km/s) = 7.68296 7.26833 7.47852
#
# Compressibility (1/GPa) = 0.01454879
#
# Stress axis : x y z
#
# Youngs Moduli (GPa) = 70.72385 66.86426 114.71766
#
# Poissons Ratio (x) = 0.21185 0.31438
# Poissons Ratio (y) = 0.22408 0.65652
# Poissons Ratio (z) = 0.19382 0.38266
#
# Static dielectric constant tensor:
#      x y z
#    x 1.829290 0.000000 0.000000 
#    y 0.000000 1.707870 0.000000 
#    z 0.000000 0.000000 1.729360 
# 
# From -- ./inp_files/44258.got.cif
#   From: 2010.05.17/outbox.cif.g08.bks.cpg/sg67_23_cif.got.tgz:44258.got - 2010.06.03 18:28:57.
