data_PCOD9504370
_publ_section_title
;
Structure prediction by ZEFSAII (Michael W. Deem and Ramdas Pophale) SiO2 
 PCOD9504370
Probable space group: C M M A
;
_chemical_formula_sum "Si O2"
_cell_formula_units_Z 96
_cell_length_a 20.879114
_cell_length_b 17.052150
_cell_length_c 14.416333
_cell_angle_alpha 90.000000
_cell_angle_beta 90.000000
_cell_angle_gamma 90.000000
_cell_volume 5132.701586
_symmetry_space_group_name_H-M "C M M A"
_symmetry_group_IT_number 67
_symmetry_cell_setting 'orthorhombic'
loop_
_space_group_symop_operation_xyz
x,y,z
-x,1/2-y,z
x,-y,-z
-x,1/2+y,-z
-x,-y,-z
x,1/2+y,-z
-x,y,z
x,1/2-y,z
1/2+x,1/2+y,z
1/2-x,-y,z
1/2+x,1/2-y,-z
1/2-x,y,-z
1/2-x,1/2-y,-z
1/2+x,y,-z
1/2-x,1/2+y,z
1/2+x,-y,z
loop_
_atom_site_type_symbol
_atom_site_label
_atom_site_fract_x
_atom_site_fract_y
_atom_site_fract_z
Si Si1 0.814227 0.412354 0.456287
Si Si2 0.428717 0.343878 0.433468
Si Si3 0.310414 0.841945 0.062134
Si Si4 0.924450 0.413414 0.954273
Si Si5 0.769369 0.089177 0.247157
Si Si6 0.371674 0.343569 0.232441
O O1 0.816660 0.500000 0.500000
O O2 0.750000 0.374782 0.500000
O O3 0.877917 0.371825 0.491515
O O4 0.803842 0.409897 0.346522
O O5 0.500000 0.375266 0.449205
O O6 0.430896 0.250000 0.436178
O O7 0.404465 0.364213 0.330239
O O8 0.299631 0.750000 0.074954
O O9 0.311137 0.881992 0.161754
O O10 0.250000 0.871964 0.000000
O O11 0.376701 0.857720 0.010894
O O12 0.900781 0.397910 0.848765
O O13 0.000000 0.394997 0.960029
O O14 0.915551 0.500000 0.000000
O O15 0.703896 0.139709 0.244598
O O16 0.750000 0.000000 0.229944
O O17 0.381491 0.250000 0.212722
#
# Coordination Sequence:
#
# PCOD9504370 Si02
#       6
#    16  16  16  16  16  16
#     4  11  21  40  61  90 123 160 201 251 305 361
#     4  10  22  38  59  91 126 160 202 250 304 364
#     4  11  24  40  60  91 126 161 204 252 306 366
#     4  11  24  41  62  90 123 162 206 250 305 367
#     4  12  22  37  63  91 123 159 205 256 304 362
#     4  11  21  37  63  91 120 157 203 258 307 354
#
# _framework density 18.703600999999999
#
# number of rings (size 3 to 8) (size 9 to 14) (size 15 to 20)
#    0.000    1.000    5.000    2.500    0.000    4.000 
#    0.000    0.833    0.000    0.000    0.000    0.000 
#    0.000    0.000    0.000    0.000    0.000    0.000 
#
# Total GULP energy -268034.348747 kJ/mol
# GULP energy per Si atom -5584.048932 kJ/mol
# Density = 1.866103 g / cm^3
# Si number density = 18.703601 Si / 1000 Ang^3
#
#
#
# Elastic Constant Matrix: (Units=GPa)
#
#
# Indices 1 2 3 4 5 6 
#
# 1 104.9911 12.0645 55.1679 0.0000 0.0000 0.0000
# 2 12.0645 40.4079 42.5209 0.0000 0.0000 0.0000
# 3 55.1679 42.5209 141.1690 0.0000 0.0000 0.0000
# 4 0.0000 0.0000 0.0000 35.2488 0.0000 0.0000
# 5 0.0000 0.0000 0.0000 0.0000 1.8391 0.0000
# 6 0.0000 0.0000 0.0000 0.0000 0.0000 26.2696
#
#
#
# Elastic Compliance Matrix: (Units=1/GPa)
#
#
# Indices 1 2 3 4 5 6 
#
# 1 0.012095 0.001995 -0.005327 0.000000 0.000000 0.000000
# 2 0.001995 0.036560 -0.011792 0.000000 0.000000 0.000000
# 3 -0.005327 -0.011792 0.012717 0.000000 0.000000 0.000000
# 4 0.000000 0.000000 0.000000 0.028370 0.000000 0.000000
# 5 0.000000 0.000000 0.000000 0.000000 0.543749 0.000000
# 6 0.000000 0.000000 0.000000 0.000000 0.000000 0.038067
#
#
# Mechanical properties :
#
#
# Convention : Reuss Voigt Hill
#
# Bulk Modulus (GPa) = 32.12967 56.23051 44.18009
# Shear Modulus (GPa) = 7.02069 24.45914 15.73992
#
# Velocity S-wave (km/s) = 1.93954 3.62017 2.90409
# Velocity P-wave (km/s) = 4.71502 6.89952 5.90909
#
# Compressibility (1/GPa) = 0.03112388
#
# Stress axis : x y z
#
# Youngs Moduli (GPa) = 82.68103 27.35198 78.63261
#
# Poissons Ratio (x) = -0.05456 0.41891
# Poissons Ratio (y) = -0.16494 0.92722
# Poissons Ratio (z) = 0.44047 0.32253
#
# Static dielectric constant tensor:
#      x y z
#    x 1.653630 0.000000 0.000000 
#    y 0.000000 1.695860 0.000000 
#    z 0.000000 0.000000 1.672910 
# 
# From -- ./inp_files/27170.got.cif
#   From: 2010.05.17/outbox.cif.g08.bks.cpg/sg67_14_cif.got.tgz:27170.got - 2010.06.03 18:28:57.
