data_PCOD9504022
_publ_section_title
;
Structure prediction by ZEFSAII (Michael W. Deem and Ramdas Pophale) SiO2 
 PCOD9504022
Probable space group: C M M A
;
_chemical_formula_sum "Si O2"
_cell_formula_units_Z 88
_cell_length_a 22.456449
_cell_length_b 9.341416
_cell_length_c 22.306833
_cell_angle_alpha 90.000000
_cell_angle_beta 90.000000
_cell_angle_gamma 90.000000
_cell_volume 4679.416606
_symmetry_space_group_name_H-M "C M M A"
_symmetry_group_IT_number 67
_symmetry_cell_setting 'orthorhombic'
loop_
_space_group_symop_operation_xyz
x,y,z
-x,1/2-y,z
x,-y,-z
-x,1/2+y,-z
-x,-y,-z
x,1/2+y,-z
-x,y,z
x,1/2-y,z
1/2+x,1/2+y,z
1/2-x,-y,z
1/2+x,1/2-y,-z
1/2-x,y,-z
1/2-x,1/2-y,-z
1/2+x,y,-z
1/2-x,1/2+y,z
1/2+x,-y,z
loop_
_atom_site_type_symbol
_atom_site_label
_atom_site_fract_x
_atom_site_fract_y
_atom_site_fract_z
Si Si1 0.871505 0.503290 0.365817
Si Si2 0.500000 0.420018 0.062712
Si Si3 0.312574 0.420863 0.759206
Si Si4 0.500000 0.083444 0.764904
Si Si5 0.660645 0.750000 0.448579
Si Si6 0.299726 0.750000 0.582694
Si Si7 0.401433 0.922399 0.838004
Si Si8 0.500000 0.907085 0.658380
O O1 0.854752 0.442968 0.299731
O O2 0.869116 0.385038 0.417273
O O3 0.819137 0.613323 0.380276
O O4 0.935020 0.582606 0.370757
O O5 0.500000 0.250000 0.053427
O O6 0.560359 0.452221 0.101201
O O7 0.500000 0.500000 0.000000
O O8 0.305975 0.250000 0.768082
O O9 0.250000 0.500000 0.747875
O O10 0.341065 0.497244 0.818573
O O11 0.500000 0.250000 0.781617
O O12 0.445244 0.993755 0.790006
O O13 0.500000 0.055905 0.695042
O O14 0.663978 0.750000 0.520104
O O15 0.730069 0.750000 0.429697
O O16 0.395796 0.750000 0.832265
O O17 0.500000 0.750000 0.690389
#
# Coordination Sequence:
#
# PCOD9504022 Si02
#       8
#    16   8  16   8   8   8  16   8
#     4  12  25  41  63  91 121 159 211 257 323 394
#     4   9  20  38  64  97 131 174 216 261 305 359
#     4  12  25  39  61  93 129 165 209 266 327 385
#     4  11  21  33  55  84 119 158 203 244 296 361
#     4  11  24  45  67  93 115 152 203 272 316 383
#     4  11  24  45  69  87 119 156 203 258 328 385
#     4  10  21  38  59  90 130 168 208 256 310 368
#     4  12  25  41  59  84 121 166 196 250 321 389
#
# _framework density 18.805762999999999
#
# number of rings (size 3 to 8) (size 9 to 14) (size 15 to 20)
#    0.000    0.909    3.636    4.636    3.818    3.636 
#    0.000    2.727    0.000    0.545    0.000    3.818 
#    0.000    0.000    0.000    0.000    0.000    0.000 
#
# Total GULP energy -245137.791269 kJ/mol
# GULP energy per Si atom -5571.313438 kJ/mol
# Density = 1.876296 g / cm^3
# Si number density = 18.805763 Si / 1000 Ang^3
#
#
#
# Elastic Constant Matrix: (Units=GPa)
#
#
# Indices 1 2 3 4 5 6 
#
# 1 94.6260 31.5110 31.7678 0.0000 0.0000 0.0000
# 2 31.5110 128.4465 41.9964 0.0000 0.0000 0.0000
# 3 31.7678 41.9964 89.7774 0.0000 0.0000 0.0000
# 4 0.0000 0.0000 0.0000 29.3492 0.0000 0.0000
# 5 0.0000 0.0000 0.0000 0.0000 19.2016 0.0000
# 6 0.0000 0.0000 0.0000 0.0000 0.0000 17.5535
#
#
#
# Elastic Compliance Matrix: (Units=1/GPa)
#
#
# Indices 1 2 3 4 5 6 
#
# 1 0.012371 -0.001893 -0.003492 0.000000 0.000000 0.000000
# 2 -0.001893 0.009481 -0.003765 0.000000 0.000000 0.000000
# 3 -0.003492 -0.003765 0.014135 0.000000 0.000000 0.000000
# 4 0.000000 0.000000 0.000000 0.034072 0.000000 0.000000
# 5 0.000000 0.000000 0.000000 0.000000 0.052079 0.000000
# 6 0.000000 0.000000 0.000000 0.000000 0.000000 0.056969
#
#
# Mechanical properties :
#
#
# Convention : Reuss Voigt Hill
#
# Bulk Modulus (GPa) = 56.53903 58.15559 57.34731
# Shear Modulus (GPa) = 24.59387 27.05917 25.82652
#
# Velocity S-wave (km/s) = 3.62025 3.79737 3.70987
# Velocity P-wave (km/s) = 6.89964 7.08648 6.99368
#
# Compressibility (1/GPa) = 0.01768690
#
# Stress axis : x y z
#
# Youngs Moduli (GPa) = 80.83677 105.47646 70.74404
#
# Poissons Ratio (x) = 0.19968 0.24702
# Poissons Ratio (y) = 0.15304 0.26636
# Poissons Ratio (z) = 0.28226 0.39713
#
# Static dielectric constant tensor:
#      x y z
#    x 1.638370 0.000000 0.000000 
#    y 0.000000 1.621670 0.000000 
#    z 0.000000 0.000000 1.658380 
# 
# From -- ./inp_files/37039.got.cif
#   From: 2010.05.17/outbox.cif.g08.bks.cpg/sg67_19_cif.got.tgz:37039.got - 2010.06.03 18:28:57.
