data_PCOD9504390
_publ_section_title
;
Structure prediction by ZEFSAII (Michael W. Deem and Ramdas Pophale) SiO2 
 PCOD9504390
Probable space group: C M M A
;
_chemical_formula_sum "Si O2"
_cell_formula_units_Z 96
_cell_length_a 8.641204
_cell_length_b 29.314069
_cell_length_c 21.126841
_cell_angle_alpha 90.000000
_cell_angle_beta 90.000000
_cell_angle_gamma 90.000000
_cell_volume 5351.615804
_symmetry_space_group_name_H-M "C M M A"
_symmetry_group_IT_number 67
_symmetry_cell_setting 'orthorhombic'
loop_
_space_group_symop_operation_xyz
x,y,z
-x,1/2-y,z
x,-y,-z
-x,1/2+y,-z
-x,-y,-z
x,1/2+y,-z
-x,y,z
x,1/2-y,z
1/2+x,1/2+y,z
1/2-x,-y,z
1/2+x,1/2-y,-z
1/2-x,y,-z
1/2-x,1/2-y,-z
1/2+x,y,-z
1/2-x,1/2+y,z
1/2+x,-y,z
loop_
_atom_site_type_symbol
_atom_site_label
_atom_site_fract_x
_atom_site_fract_y
_atom_site_fract_z
Si Si1 0.815483 0.048212 0.257388
Si Si2 0.813776 0.696468 0.807088
Si Si3 0.185306 0.860523 0.310017
Si Si4 0.313404 0.302543 0.431378
Si Si5 0.814784 0.642369 0.934143
Si Si6 0.684827 0.951238 0.885148
O O1 0.764026 0.090692 0.299516
O O2 0.744096 0.054769 0.187146
O O3 0.000000 0.046199 0.251427
O O4 0.750000 0.000000 0.281266
O O5 0.776709 0.750000 0.807408
O O6 0.732365 0.670828 0.749413
O O7 0.770948 0.672762 0.873424
O O8 0.000000 0.691497 0.799692
O O9 0.235430 0.835176 0.374258
O O10 0.000000 0.866029 0.310893
O O11 0.500000 0.302887 0.433451
O O12 0.263943 0.250000 0.419269
O O13 0.250000 0.316074 0.500000
O O14 0.747416 0.591817 0.923431
O O15 0.000000 0.639925 0.936772
O O16 0.750000 0.661051 0.000000
O O17 0.500000 0.952228 0.885858
O O18 0.750000 0.000000 0.907581
#
# Coordination Sequence:
#
# PCOD9504390 Si02
#       6
#    16  16  16  16  16  16
#     4  11  21  35  56  84 115 148 185 229 279 334
#     4  10  22  39  58  81 110 145 188 236 283 334
#     4  11  21  35  58  87 117 150 189 233 280 331
#     4   9  19  35  55  83 119 156 193 232 275 328
#     4  11  23  39  57  79 110 146 188 234 284 341
#     4  11  21  36  58  83 111 143 181 227 282 339
#
# _framework density 17.938509
#
# number of rings (size 3 to 8) (size 9 to 14) (size 15 to 20)
#    0.000    1.500    1.667    5.500    0.000    3.667 
#    0.000    3.333    0.000    0.500    0.000    3.500 
#    0.000    0.000    0.000    0.000    0.000    0.000 
#
# Total GULP energy -268273.405984 kJ/mol
# GULP energy per Si atom -5589.029291 kJ/mol
# Density = 1.789768 g / cm^3
# Si number density = 17.938509 Si / 1000 Ang^3
#
#
#
# Elastic Constant Matrix: (Units=GPa)
#
#
# Indices 1 2 3 4 5 6 
#
# 1 79.4631 39.5242 38.5273 0.0000 0.0000 0.0000
# 2 39.5242 106.5140 61.9289 0.0000 0.0000 0.0000
# 3 38.5273 61.9289 118.4956 0.0000 0.0000 0.0000
# 4 0.0000 0.0000 0.0000 11.8878 0.0000 0.0000
# 5 0.0000 0.0000 0.0000 0.0000 28.2854 0.0000
# 6 0.0000 0.0000 0.0000 0.0000 0.0000 24.8171
#
#
#
# Elastic Compliance Matrix: (Units=1/GPa)
#
#
# Indices 1 2 3 4 5 6 
#
# 1 0.016164 -0.004227 -0.003047 0.000000 0.000000 0.000000
# 2 -0.004227 0.014592 -0.006252 0.000000 0.000000 0.000000
# 3 -0.003047 -0.006252 0.012697 0.000000 0.000000 0.000000
# 4 0.000000 0.000000 0.000000 0.084120 0.000000 0.000000
# 5 0.000000 0.000000 0.000000 0.000000 0.035354 0.000000
# 6 0.000000 0.000000 0.000000 0.000000 0.000000 0.040295
#
#
# Mechanical properties :
#
#
# Convention : Reuss Voigt Hill
#
# Bulk Modulus (GPa) = 60.96557 64.93707 62.95132
# Shear Modulus (GPa) = 21.20993 23.96420 22.58706
#
# Velocity S-wave (km/s) = 3.44229 3.65897 3.55228
# Velocity P-wave (km/s) = 7.06107 7.35725 7.21069
#
# Compressibility (1/GPa) = 0.01640270
#
# Stress axis : x y z
#
# Youngs Moduli (GPa) = 61.86654 68.53211 78.75870
#
# Poissons Ratio (x) = 0.28966 0.23994
# Poissons Ratio (y) = 0.26149 0.49238
# Poissons Ratio (z) = 0.18848 0.42845
#
# Static dielectric constant tensor:
#      x y z
#    x 1.601370 0.000000 0.000000 
#    y 0.000000 1.611260 0.000000 
#    z 0.000000 0.000000 1.599300 
# 
# From -- ./inp_files/37176.got.cif
#   From: 2010.05.17/outbox.cif.g08.bks.cpg/sg67_19_cif.got.tgz:37176.got - 2010.06.03 18:28:57.
