data_PCOD9504399
_publ_section_title
;
Structure prediction by ZEFSAII (Michael W. Deem and Ramdas Pophale) SiO2 
 PCOD9504399
Probable space group: C M M A
;
_chemical_formula_sum "Si O2"
_cell_formula_units_Z 64
_cell_length_a 9.676994
_cell_length_b 27.867858
_cell_length_c 13.413361
_cell_angle_alpha 90.000000
_cell_angle_beta 90.000000
_cell_angle_gamma 90.000000
_cell_volume 3617.276224
_symmetry_space_group_name_H-M "C M M A"
_symmetry_group_IT_number 67
_symmetry_cell_setting 'orthorhombic'
loop_
_space_group_symop_operation_xyz
x,y,z
-x,1/2-y,z
x,-y,-z
-x,1/2+y,-z
-x,-y,-z
x,1/2+y,-z
-x,y,z
x,1/2-y,z
1/2+x,1/2+y,z
1/2-x,-y,z
1/2+x,1/2-y,-z
1/2-x,y,-z
1/2-x,1/2-y,-z
1/2+x,y,-z
1/2-x,1/2+y,z
1/2+x,-y,z
loop_
_atom_site_type_symbol
_atom_site_label
_atom_site_fract_x
_atom_site_fract_y
_atom_site_fract_z
Si Si1 0.500000 0.543403 0.143649
Si Si2 0.165790 0.451697 0.600642
Si Si3 0.337915 0.193974 0.899800
Si Si4 0.244264 0.395414 0.789022
Si Si5 0.000000 0.064868 0.909386
O O1 0.368763 0.567909 0.192346
O O2 0.500000 0.486110 0.148428
O O3 0.500000 0.555606 0.026278
O O4 0.250000 0.500000 0.633631
O O5 0.250000 0.438433 0.500000
O O6 0.182217 0.410128 0.682791
O O7 0.000000 0.460532 0.585788
O O8 0.500000 0.185793 0.921448
O O9 0.318723 0.250000 0.873891
O O10 0.294255 0.158247 0.811389
O O11 0.250000 0.184686 0.000000
O O12 0.132848 0.406944 0.873758
#
# Coordination Sequence:
#
# PCOD9504399 Si02
#       5
#     8  16  16  16   8
#     4  11  22  34  54  80 118 163 188 234 274 351
#     4  11  24  40  62  87 118 154 201 249 295 349
#     4  10  22  39  60  86 116 155 202 249 295 347
#     4  12  23  36  58  84 116 158 198 239 292 345
#     4  11  22  36  50  82 122 153 198 226 282 347
#
# _framework density 17.692871
#
# number of rings (size 3 to 8) (size 9 to 14) (size 15 to 20)
#    0.000    1.000    2.500    6.000    5.250    2.000 
#    0.000    0.000    0.000    0.750    0.000    0.000 
#    0.000    0.000    0.000    0.000    0.000    0.000 
#
# Total GULP energy -178693.873544 kJ/mol
# GULP energy per Si atom -5584.183548 kJ/mol
# Density = 1.765260 g / cm^3
# Si number density = 17.692871 Si / 1000 Ang^3
#
#
#
# Elastic Constant Matrix: (Units=GPa)
#
#
# Indices 1 2 3 4 5 6 
#
# 1 140.5040 41.1106 31.4998 0.0000 0.0000 0.0000
# 2 41.1106 104.2958 48.7914 0.0000 0.0000 0.0000
# 3 31.4998 48.7914 74.7862 0.0000 0.0000 0.0000
# 4 0.0000 0.0000 0.0000 29.4333 0.0000 0.0000
# 5 0.0000 0.0000 0.0000 0.0000 27.3584 0.0000
# 6 0.0000 0.0000 0.0000 0.0000 0.0000 24.9940
#
#
#
# Elastic Compliance Matrix: (Units=1/GPa)
#
#
# Indices 1 2 3 4 5 6 
#
# 1 0.008237 -0.002337 -0.001945 0.000000 0.000000 0.000000
# 2 -0.002337 0.014463 -0.008452 0.000000 0.000000 0.000000
# 3 -0.001945 -0.008452 0.019704 0.000000 0.000000 0.000000
# 4 0.000000 0.000000 0.000000 0.033975 0.000000 0.000000
# 5 0.000000 0.000000 0.000000 0.000000 0.036552 0.000000
# 6 0.000000 0.000000 0.000000 0.000000 0.000000 0.040010
#
#
# Mechanical properties :
#
#
# Convention : Reuss Voigt Hill
#
# Bulk Modulus (GPa) = 59.03889 62.48773 60.76331
# Shear Modulus (GPa) = 27.16599 29.56941 28.36770
#
# Velocity S-wave (km/s) = 3.92269 4.09254 4.00852
# Velocity P-wave (km/s) = 7.34560 7.59780 7.47277
#
# Compressibility (1/GPa) = 0.01693799
#
# Stress axis : x y z
#
# Youngs Moduli (GPa) = 121.40299 69.14152 50.75004
#
# Poissons Ratio (x) = 0.16159 0.09869
# Poissons Ratio (y) = 0.28373 0.42892
# Poissons Ratio (z) = 0.23609 0.58435
#
# Static dielectric constant tensor:
#      x y z
#    x 1.606780 0.000000 0.000000 
#    y 0.000000 1.605890 0.000000 
#    z 0.000000 0.000000 1.605240 
# 
# From -- ./inp_files/25240.got.cif
#   From: 2010.05.17/outbox.cif.g08.bks.cpg/sg67_13_cif.got.tgz:25240.got - 2010.06.03 18:28:57.
