data_PCOD9504326
_publ_section_title
;
Structure prediction by ZEFSAII (Michael W. Deem and Ramdas Pophale) SiO2 
 PCOD9504326
Probable space group: C M M A
;
_chemical_formula_sum "Si O2"
_cell_formula_units_Z 56
_cell_length_a 31.120343
_cell_length_b 11.244781
_cell_length_c 7.221228
_cell_angle_alpha 90.000000
_cell_angle_beta 90.000000
_cell_angle_gamma 90.000000
_cell_volume 2527.006937
_symmetry_space_group_name_H-M "C M M A"
_symmetry_group_IT_number 67
_symmetry_cell_setting 'orthorhombic'
loop_
_space_group_symop_operation_xyz
x,y,z
-x,1/2-y,z
x,-y,-z
-x,1/2+y,-z
-x,-y,-z
x,1/2+y,-z
-x,y,z
x,1/2-y,z
1/2+x,1/2+y,z
1/2-x,-y,z
1/2+x,1/2-y,-z
1/2-x,y,-z
1/2-x,1/2-y,-z
1/2+x,y,-z
1/2-x,1/2+y,z
1/2+x,-y,z
loop_
_atom_site_type_symbol
_atom_site_label
_atom_site_fract_x
_atom_site_fract_y
_atom_site_fract_z
Si Si1 0.629034 0.878460 0.709241
Si Si2 0.093793 0.120960 0.288516
Si Si3 0.000000 0.115698 0.134137
Si Si4 0.231874 0.378724 0.709342
O O1 0.617022 0.750000 0.792917
O O2 0.608613 0.877470 0.502797
O O3 0.680447 0.884606 0.698016
O O4 0.613351 0.001333 0.795691
O O5 0.108037 0.250000 0.213713
O O6 0.042844 0.111711 0.258265
O O7 0.000000 0.250000 0.043969
O O8 0.000000 0.000000 0.000000
O O9 0.244119 0.250000 0.791370
O O10 0.250000 0.500000 0.794482
O O11 0.250000 0.376657 0.500000
#
# Coordination Sequence:
#
# PCOD9504326 Si02
#       4
#    16  16   8  16
#     4   9  17  27  42  68  96 119 145 176 212 256
#     4   9  17  30  46  63  86 113 142 178 219 263
#     4  10  22  37  50  64  82 109 147 188 227 266
#     4   9  15  22  34  56  90 126 151 169 194 239
#
# _framework density 22.160603999999999
#
# number of rings (size 3 to 8) (size 9 to 14) (size 15 to 20)
#    0.000    2.857    0.000    3.429    0.000    6.857 
#    0.000    1.429    0.000    0.000    0.000    0.000 
#    0.000   18.286    0.000  171.429    0.000   51.429 
#
# Total GULP energy -155987.439092 kJ/mol
# GULP energy per Si atom -5570.979968 kJ/mol
# Density = 2.211017 g / cm^3
# Si number density = 22.160604 Si / 1000 Ang^3
#
#
#
# Elastic Constant Matrix: (Units=GPa)
#
#
# Indices 1 2 3 4 5 6 
#
# 1 78.6858 80.4853 16.3635 0.0000 0.0000 0.0000
# 2 80.4853 314.5477 31.7572 0.0000 0.0000 0.0000
# 3 16.3635 31.7572 96.0329 0.0000 0.0000 0.0000
# 4 0.0000 0.0000 0.0000 -24.1471 0.0000 0.0000
# 5 0.0000 0.0000 0.0000 0.0000 -35.3610 0.0000
# 6 0.0000 0.0000 0.0000 0.0000 0.0000 39.9265
#
#
#
# Elastic Compliance Matrix: (Units=1/GPa)
#
#
# Indices 1 2 3 4 5 6 
#
# 1 0.017434 -0.004305 -0.001547 0.000000 0.000000 0.000000
# 2 -0.004305 0.004352 -0.000706 0.000000 0.000000 0.000000
# 3 -0.001547 -0.000706 0.010910 0.000000 0.000000 0.000000
# 4 0.000000 0.000000 0.000000 -0.041413 0.000000 0.000000
# 5 0.000000 0.000000 0.000000 0.000000 -0.028280 0.000000
# 6 0.000000 0.000000 0.000000 0.000000 0.000000 0.025046
#
#
# Mechanical properties :
#
#
# Convention : Reuss Voigt Hill
#
# Bulk Modulus (GPa) = 51.07048 82.94205 67.00627
# Shear Modulus (GPa) = 650.14234 20.12771 335.13502
#
# Velocity S-wave (km/s) = 17.14685 3.01701 12.31091
# Velocity P-wave (km/s) = 20.37437 7.04595 15.24402
#
# Compressibility (1/GPa) = 0.01958078
#
# Stress axis : x y z
#
# Youngs Moduli (GPa) = 57.36050 229.78634 91.65857
#
# Poissons Ratio (x) = 0.98915 0.14180
# Poissons Ratio (y) = 0.24692 0.06468
# Poissons Ratio (z) = 0.08874 0.16214
#
# Static dielectric constant tensor:
#      x y z
#    x 1.750880 0.000000 0.000000 
#    y 0.000000 1.938150 0.000000 
#    z 0.000000 0.000000 1.752140 
# 
# From -- ./inp_files/6492.got.cif
#   From: 2010.05.17/outbox.cif.g08.bks.cpg/sg67_4_cif.got.tgz:6492.got - 2010.06.03 18:28:57.
