data_PCOD9504375
_publ_section_title
;
Structure prediction by ZEFSAII (Michael W. Deem and Ramdas Pophale) SiO2 
 PCOD9504375
Probable space group: C M M A
;
_chemical_formula_sum "Si O2"
_cell_formula_units_Z 96
_cell_length_a 14.642991
_cell_length_b 18.108180
_cell_length_c 19.660579
_cell_angle_alpha 90.000000
_cell_angle_beta 90.000000
_cell_angle_gamma 90.000000
_cell_volume 5213.158170
_symmetry_space_group_name_H-M "C M M A"
_symmetry_group_IT_number 67
_symmetry_cell_setting 'orthorhombic'
loop_
_space_group_symop_operation_xyz
x,y,z
-x,1/2-y,z
x,-y,-z
-x,1/2+y,-z
-x,-y,-z
x,1/2+y,-z
-x,y,z
x,1/2-y,z
1/2+x,1/2+y,z
1/2-x,-y,z
1/2+x,1/2-y,-z
1/2-x,y,-z
1/2-x,1/2-y,-z
1/2+x,y,-z
1/2-x,1/2+y,z
1/2+x,-y,z
loop_
_atom_site_type_symbol
_atom_site_label
_atom_site_fract_x
_atom_site_fract_y
_atom_site_fract_z
Si Si1 0.894923 0.161476 0.094464
Si Si2 0.684732 0.338302 0.313664
Si Si3 0.292935 0.082049 0.573740
Si Si4 0.000000 0.661683 0.389396
Si Si5 0.109805 0.163849 0.937582
Si Si6 0.266440 0.086940 0.171690
Si Si7 0.500000 0.919404 0.468307
O O1 0.890659 0.250000 0.101362
O O2 0.827365 0.123921 0.146596
O O3 0.000000 0.138653 0.103967
O O4 0.868366 0.145290 0.016050
O O5 0.683673 0.250000 0.303518
O O6 0.759784 0.362954 0.368242
O O7 0.589511 0.362362 0.348412
O O8 0.701948 0.378993 0.242968
O O9 0.250000 0.102843 0.500000
O O10 0.402855 0.085098 0.569789
O O11 0.250000 0.000000 0.587240
O O12 0.000000 0.634535 0.466725
O O13 0.000000 0.750000 0.390326
O O14 0.136858 0.250000 0.925420
O O15 0.159922 0.110773 0.885271
O O16 0.000000 0.160271 0.930552
O O17 0.250000 0.000000 0.176356
O O18 0.500000 0.000000 0.500000
#
# Coordination Sequence:
#
# PCOD9504375 Si02
#       7
#    16  16  16   8  16  16   8
#     4   9  19  39  63  86 117 158 201 243 293 356
#     4  11  24  42  61  85 118 158 202 252 298 352
#     4  11  21  38  63  91 124 155 196 238 297 357
#     4  10  22  38  62  90 114 146 196 254 304 339
#     4   9  19  37  64  92 115 149 200 251 296 351
#     4  12  25  38  57  87 124 159 197 243 305 362
#     4  12  20  36  64  94 120 157 190 237 294 366
#
# _framework density 18.414940999999999
#
# number of rings (size 3 to 8) (size 9 to 14) (size 15 to 20)
#    0.000    1.500    3.333    3.500    1.167    4.333 
#    1.500    1.667    0.000    0.000    0.000    0.000 
#    0.000    0.000    0.000    0.000    0.000    0.000 
#
# Total GULP energy -268084.469884 kJ/mol
# GULP energy per Si atom -5585.093123 kJ/mol
# Density = 1.837303 g / cm^3
# Si number density = 18.414941 Si / 1000 Ang^3
#
#
#
# Elastic Constant Matrix: (Units=GPa)
#
#
# Indices 1 2 3 4 5 6 
#
# 1 143.0261 34.1085 48.4508 0.0000 0.0000 0.0000
# 2 34.1085 51.0976 34.8318 0.0000 0.0000 0.0000
# 3 48.4508 34.8318 60.4737 0.0000 0.0000 0.0000
# 4 0.0000 0.0000 0.0000 29.3758 0.0000 0.0000
# 5 0.0000 0.0000 0.0000 0.0000 -63.0681 0.0000
# 6 0.0000 0.0000 0.0000 0.0000 0.0000 -79.6389
#
#
#
# Elastic Compliance Matrix: (Units=1/GPa)
#
#
# Indices 1 2 3 4 5 6 
#
# 1 0.009712 -0.001941 -0.006663 0.000000 0.000000 0.000000
# 2 -0.001941 0.032609 -0.017228 0.000000 0.000000 0.000000
# 3 -0.006663 -0.017228 0.031797 0.000000 0.000000 0.000000
# 4 0.000000 0.000000 0.000000 0.034042 0.000000 0.000000
# 5 0.000000 0.000000 0.000000 0.000000 -0.015856 0.000000
# 6 0.000000 0.000000 0.000000 0.000000 0.000000 -0.012557
#
#
# Mechanical properties :
#
#
# Convention : Reuss Voigt Hill
#
# Bulk Modulus (GPa) = 44.53221 54.37551 49.45386
# Shear Modulus (GPa) = 35.99823 -13.51916 11.23953
#
# Velocity S-wave (km/s) = 4.42615 -2.71244 2.47320
# Velocity P-wave (km/s) = 7.09621 4.44772 5.92193
#
# Compressibility (1/GPa) = 0.02245565
#
# Stress axis : x y z
#
# Youngs Moduli (GPa) = 102.96866 30.66592 31.44914
#
# Poissons Ratio (x) = 0.05951 0.20955
# Poissons Ratio (y) = 0.19983 0.54180
# Poissons Ratio (z) = 0.68609 0.52830
#
# Static dielectric constant tensor:
#      x y z
#    x 1.611620 0.000000 0.000000 
#    y 0.000000 1.611490 0.000000 
#    z 0.000000 0.000000 1.441270 
# 
# From -- ./inp_files/38540.got.cif
#   From: 2010.05.17/outbox.cif.g08.bks.cpg/sg67_20_cif.got.tgz:38540.got - 2010.06.03 18:28:57.
