data_PCOD9504833
_publ_section_title
;
Structure prediction by ZEFSAII (Michael W. Deem and Ramdas Pophale) SiO2 
 PCOD9504833
Probable space group: C M M A
;
_chemical_formula_sum "Si O2"
_cell_formula_units_Z 52
_cell_length_a 14.779275
_cell_length_b 10.186918
_cell_length_c 16.204277
_cell_angle_alpha 90.000000
_cell_angle_beta 90.000000
_cell_angle_gamma 90.000000
_cell_volume 2439.639178
_symmetry_space_group_name_H-M "C M M A"
_symmetry_group_IT_number 67
_symmetry_cell_setting 'orthorhombic'
loop_
_space_group_symop_operation_xyz
x,y,z
-x,1/2-y,z
x,-y,-z
-x,1/2+y,-z
-x,-y,-z
x,1/2+y,-z
-x,y,z
x,1/2-y,z
1/2+x,1/2+y,z
1/2-x,-y,z
1/2+x,1/2-y,-z
1/2-x,y,-z
1/2-x,1/2-y,-z
1/2+x,y,-z
1/2-x,1/2+y,z
1/2+x,-y,z
loop_
_atom_site_type_symbol
_atom_site_label
_atom_site_fract_x
_atom_site_fract_y
_atom_site_fract_z
Si Si1 0.000000 0.750000 0.471641
Si Si2 0.893823 0.495024 0.250934
Si Si3 0.865152 0.750000 0.627769
Si Si4 0.110578 0.898740 0.929840
Si Si5 0.164388 0.250000 0.660011
O O1 0.077632 0.750000 0.544953
O O2 0.079254 0.750000 0.400568
O O3 0.887360 0.377487 0.316901
O O4 0.863098 0.445200 0.161564
O O5 0.840602 0.620437 0.283775
O O6 0.000000 0.532233 0.244109
O O7 0.758479 0.750000 0.611918
O O8 0.141169 0.750000 0.945098
O O9 0.000000 0.896786 0.930503
O O10 0.139743 0.000000 0.000000
#
# Coordination Sequence:
#
# PCOD9504833 Si02
#       5
#     4  16   8  16   8
#     4  12  26  50  72 104 134 170 232 288 352 408
#     4  11  21  43  67  98 140 186 224 277 345 405
#     4  12  25  45  74  93 138 184 222 280 347 417
#     4   9  18  32  60  99 135 179 230 275 327 393
#     4  12  27  43  68 107 134 176 230 286 341 409
#
# _framework density 21.314629
#
# number of rings (size 3 to 8) (size 9 to 14) (size 15 to 20)
#    0.000    1.231    4.615    1.385    2.154    2.462 
#    0.000    3.077    0.000    5.538    0.000    0.000 
#    0.000    0.000    0.000    0.000    0.000    0.000 
#
# Total GULP energy -144957.994029 kJ/mol
# GULP energy per Si atom -5575.307463 kJ/mol
# Density = 2.126612 g / cm^3
# Si number density = 21.314629 Si / 1000 Ang^3
#
#
#
# Elastic Constant Matrix: (Units=GPa)
#
#
# Indices 1 2 3 4 5 6 
#
# 1 127.7123 11.7704 25.0595 0.0000 0.0000 0.0000
# 2 11.7704 168.5178 84.1160 0.0000 0.0000 0.0000
# 3 25.0595 84.1160 170.0200 0.0000 0.0000 0.0000
# 4 0.0000 0.0000 0.0000 -45.3628 0.0000 0.0000
# 5 0.0000 0.0000 0.0000 0.0000 -14.2182 0.0000
# 6 0.0000 0.0000 0.0000 0.0000 0.0000 26.8067
#
#
#
# Elastic Compliance Matrix: (Units=1/GPa)
#
#
# Indices 1 2 3 4 5 6 
#
# 1 0.008063 0.000040 -0.001208 0.000000 0.000000 0.000000
# 2 0.000040 0.007880 -0.003905 0.000000 0.000000 0.000000
# 3 -0.001208 -0.003905 0.007992 0.000000 0.000000 0.000000
# 4 0.000000 0.000000 0.000000 -0.022045 0.000000 0.000000
# 5 0.000000 0.000000 0.000000 0.000000 -0.070332 0.000000
# 6 0.000000 0.000000 0.000000 0.000000 0.000000 0.037304
#
#
# Mechanical properties :
#
#
# Convention : Reuss Voigt Hill
#
# Bulk Modulus (GPa) = 72.51930 78.68245 75.60087
# Shear Modulus (GPa) = -304.96851 16.46542 -144.25155
#
# Velocity S-wave (km/s) = -11.97456 2.78239 -8.23554
# Velocity P-wave (km/s) = 12.53354 6.87875 7.40852
#
# Compressibility (1/GPa) = 0.01378943
#
# Stress axis : x y z
#
# Youngs Moduli (GPa) = 124.01565 126.89888 125.13289
#
# Poissons Ratio (x) = -0.00506 0.15119
# Poissons Ratio (y) = -0.00495 0.48859
# Poissons Ratio (z) = 0.14984 0.49549
#
# Static dielectric constant tensor:
#      x y z
#    x 1.789240 0.000000 0.000000 
#    y 0.000000 1.975190 0.000000 
#    z 0.000000 0.000000 1.695830 
# 
# From -- ./inp_files/26627.got.cif
#   From: 2010.05.17/outbox.cif.g08.bks.cpg/sg67_14_cif.got.tgz:26627.got - 2010.06.03 18:28:57.
