data_PCOD9504957
_publ_section_title
;
Structure prediction by ZEFSAII (Michael W. Deem and Ramdas Pophale) SiO2 
 PCOD9504957
Probable space group: C M M A
;
_chemical_formula_sum "Si O2"
_cell_formula_units_Z 100
_cell_length_a 14.650797
_cell_length_b 16.298088
_cell_length_c 19.066929
_cell_angle_alpha 90.000000
_cell_angle_beta 90.000000
_cell_angle_gamma 90.000000
_cell_volume 4552.800902
_symmetry_space_group_name_H-M "C M M A"
_symmetry_group_IT_number 67
_symmetry_cell_setting 'orthorhombic'
loop_
_space_group_symop_operation_xyz
x,y,z
-x,1/2-y,z
x,-y,-z
-x,1/2+y,-z
-x,-y,-z
x,1/2+y,-z
-x,y,z
x,1/2-y,z
1/2+x,1/2+y,z
1/2-x,-y,z
1/2+x,1/2-y,-z
1/2-x,y,-z
1/2-x,1/2-y,-z
1/2+x,y,-z
1/2-x,1/2+y,z
1/2+x,-y,z
loop_
_atom_site_type_symbol
_atom_site_label
_atom_site_fract_x
_atom_site_fract_y
_atom_site_fract_z
Si Si1 0.351541 0.117244 0.584125
Si Si2 0.611259 0.158064 0.059453
Si Si3 0.895853 0.469356 0.678194
Si Si4 0.358327 0.156907 0.432357
Si Si5 0.611709 0.484825 0.164505
Si Si6 0.611185 0.658400 0.103540
Si Si7 0.000000 0.750000 0.625168
O O1 0.382756 0.107599 0.503086
O O2 0.250605 0.154023 0.577380
O O3 0.420403 0.178838 0.621045
O O4 0.347114 0.034230 0.627935
O O5 0.500000 0.157017 0.060091
O O6 0.639249 0.250000 0.082444
O O7 0.642420 0.083864 0.108681
O O8 0.638017 0.148298 0.978081
O O9 0.896293 0.384036 0.637172
O O10 0.858917 0.463746 0.756699
O O11 0.000000 0.498855 0.684468
O O12 0.388592 0.250000 0.444073
O O13 0.500000 0.483098 0.161936
O O14 0.640219 0.577459 0.145156
O O15 0.500000 0.658924 0.105427
O O16 0.639931 0.750000 0.127513
#
# Coordination Sequence:
#
# PCOD9504957 Si02
#       7
#    16  16  16  16  16  16   4
#     4  11  22  42  62  88 112 143 190 243 293 339
#     4   8  13  22  41  61  89 134 186 230 280 336
#     4  11  24  35  53  82 118 157 197 236 286 345
#     4  11  23  41  61  84 113 150 189 238 292 343
#     4   9  17  29  39  64 104 143 182 231 281 329
#     4   8  13  23  39  63  90 133 185 234 287 337
#     4  12  20  38  74  92 108 136 190 248 290 338
#
# _framework density 21.964500999999998
#
# number of rings (size 3 to 8) (size 9 to 14) (size 15 to 20)
#    0.000    2.240    2.400    2.880    1.120    4.800 
#    1.440    1.600    0.000    0.000    0.000    0.000 
#    0.000   10.240    0.000   19.840    0.000   17.920 
#
# Total GULP energy -278769.817319 kJ/mol
# GULP energy per Si atom -5575.396346 kJ/mol
# Density = 2.191451 g / cm^3
# Si number density = 21.964501 Si / 1000 Ang^3
#
#
#
# Elastic Constant Matrix: (Units=GPa)
#
#
# Indices 1 2 3 4 5 6 
#
# 1 60.6437 -17.5854 -21.8463 0.0000 0.0000 0.0000
# 2 -17.5854 100.3679 55.9635 0.0000 0.0000 0.0000
# 3 -21.8463 55.9635 98.1939 0.0000 0.0000 0.0000
# 4 0.0000 0.0000 0.0000 0.7772 0.0000 0.0000
# 5 0.0000 0.0000 0.0000 0.0000 14.9336 0.0000
# 6 0.0000 0.0000 0.0000 0.0000 0.0000 12.9332
#
#
#
# Elastic Compliance Matrix: (Units=1/GPa)
#
#
# Indices 1 2 3 4 5 6 
#
# 1 0.018051 0.001354 0.003245 0.000000 0.000000 0.000000
# 2 0.001354 0.014706 -0.008080 0.000000 0.000000 0.000000
# 3 0.003245 -0.008080 0.015511 0.000000 0.000000 0.000000
# 4 0.000000 0.000000 0.000000 1.286729 0.000000 0.000000
# 5 0.000000 0.000000 0.000000 0.000000 0.066963 0.000000
# 6 0.000000 0.000000 0.000000 0.000000 0.000000 0.077320
#
#
# Mechanical properties :
#
#
# Convention : Reuss Voigt Hill
#
# Bulk Modulus (GPa) = 24.21076 32.47433 28.34255
# Shear Modulus (GPa) = 3.33331 21.90703 12.62017
#
# Velocity S-wave (km/s) = 1.23324 3.16156 2.39962
# Velocity P-wave (km/s) = 3.61586 5.30512 4.53976
#
# Compressibility (1/GPa) = 0.04130394
#
# Stress axis : x y z
#
# Youngs Moduli (GPa) = 55.39828 68.00006 64.47081
#
# Poissons Ratio (x) = -0.09205 -0.20918
# Poissons Ratio (y) = -0.07499 0.52093
# Poissons Ratio (z) = -0.17974 0.54945
#
# Static dielectric constant tensor:
#      x y z
#    x 1.870680 0.000000 0.000000 
#    y 0.000000 1.794890 0.000000 
#    z 0.000000 0.000000 1.776220 
# 
# From -- ./inp_files/39000.got.cif
#   From: 2010.05.17/outbox.cif.g08.bks.cpg/sg67_20_cif.got.tgz:39000.got - 2010.06.03 18:28:57.
