data_PCOD9504812
_publ_section_title
;
Structure prediction by ZEFSAII (Michael W. Deem and Ramdas Pophale) SiO2 
 PCOD9504812
Probable space group: C M M A
;
_chemical_formula_sum "Si O2"
_cell_formula_units_Z 88
_cell_length_a 20.495529
_cell_length_b 24.941604
_cell_length_c 9.030114
_cell_angle_alpha 90.000000
_cell_angle_beta 90.000000
_cell_angle_gamma 90.000000
_cell_volume 4616.116330
_symmetry_space_group_name_H-M "C M M A"
_symmetry_group_IT_number 67
_symmetry_cell_setting 'orthorhombic'
loop_
_space_group_symop_operation_xyz
x,y,z
-x,1/2-y,z
x,-y,-z
-x,1/2+y,-z
-x,-y,-z
x,1/2+y,-z
-x,y,z
x,1/2-y,z
1/2+x,1/2+y,z
1/2-x,-y,z
1/2+x,1/2-y,-z
1/2-x,y,-z
1/2-x,1/2-y,-z
1/2+x,y,-z
1/2-x,1/2+y,z
1/2+x,-y,z
loop_
_atom_site_type_symbol
_atom_site_label
_atom_site_fract_x
_atom_site_fract_y
_atom_site_fract_z
Si Si1 0.675120 0.063640 0.173405
Si Si2 0.634136 0.250000 0.827843
Si Si3 0.228919 0.250000 0.669422
Si Si4 0.922764 0.646334 0.667324
Si Si5 0.568422 0.750000 0.878785
Si Si6 0.381548 0.662528 0.671522
Si Si7 0.172015 0.562666 0.821561
O O1 0.630886 0.103714 0.265703
O O2 0.751523 0.073910 0.210428
O O3 0.662060 0.000916 0.201969
O O4 0.664709 0.073192 0.997818
O O5 0.708648 0.250000 0.774250
O O6 0.598800 0.302164 0.762302
O O7 0.626563 0.250000 0.004041
O O8 0.250000 0.250000 0.500000
O O9 0.184932 0.302905 0.685628
O O10 0.905751 0.659460 0.496560
O O11 0.877615 0.597934 0.726808
O O12 0.000000 0.635854 0.682464
O O13 0.500000 0.750000 0.963507
O O14 0.572183 0.801944 0.775133
#
# Coordination Sequence:
#
# PCOD9504812 Si02
#       7
#    16   8   8  16   8  16  16
#     4   9  19  39  64  89 115 149 194 254 310 350
#     4  12  23  38  64  87 116 156 198 247 303 357
#     4  11  21  39  58  92 124 146 196 255 302 351
#     4  12  24  39  58  87 123 163 200 239 294 367
#     4  11  24  42  58  85 121 160 203 243 293 362
#     4  11  23  37  61  85 121 160 194 247 301 351
#     4   9  20  39  63  89 117 149 198 251 301 357
#
# _framework density 19.063645999999999
#
# number of rings (size 3 to 8) (size 9 to 14) (size 15 to 20)
#    0.000    1.455    1.818    5.182    0.000    3.636 
#    0.000    7.273    0.000    0.000    0.000    0.000 
#    0.000    0.000    0.000    0.000    0.000    0.000 
#
# Total GULP energy -245791.787841 kJ/mol
# GULP energy per Si atom -5586.176996 kJ/mol
# Density = 1.902026 g / cm^3
# Si number density = 19.063646 Si / 1000 Ang^3
#
#
#
# Elastic Constant Matrix: (Units=GPa)
#
#
# Indices 1 2 3 4 5 6 
#
# 1 125.5604 45.5282 54.2667 0.0000 0.0000 0.0000
# 2 45.5282 85.1271 43.0114 0.0000 0.0000 0.0000
# 3 54.2667 43.0114 86.9970 0.0000 0.0000 0.0000
# 4 0.0000 0.0000 0.0000 433.6814 0.0000 0.0000
# 5 0.0000 0.0000 0.0000 0.0000 21.8866 0.0000
# 6 0.0000 0.0000 0.0000 0.0000 0.0000 2.1325
#
#
#
# Elastic Compliance Matrix: (Units=1/GPa)
#
#
# Indices 1 2 3 4 5 6 
#
# 1 0.011596 -0.003395 -0.005555 0.000000 0.000000 0.000000
# 2 -0.003395 0.016653 -0.006115 0.000000 0.000000 0.000000
# 3 -0.005555 -0.006115 0.017983 0.000000 0.000000 0.000000
# 4 0.000000 0.000000 0.000000 0.002306 0.000000 0.000000
# 5 0.000000 0.000000 0.000000 0.000000 0.045690 0.000000
# 6 0.000000 0.000000 0.000000 0.000000 0.000000 0.468939
#
#
# Mechanical properties :
#
#
# Convention : Reuss Voigt Hill
#
# Bulk Modulus (GPa) = 62.10683 64.81079 63.45881
# Shear Modulus (GPa) = 8.35193 101.86531 55.10862
#
# Velocity S-wave (km/s) = 2.09537 7.31781 5.38242
# Velocity P-wave (km/s) = 6.20512 10.26992 8.48454
#
# Compressibility (1/GPa) = 0.01610129
#
# Stress axis : x y z
#
# Youngs Moduli (GPa) = 86.23522 60.04980 55.60816
#
# Poissons Ratio (x) = 0.20389 0.30889
# Poissons Ratio (y) = 0.29280 0.34006
# Poissons Ratio (z) = 0.47902 0.36722
#
# Static dielectric constant tensor:
#      x y z
#    x 2.106570 0.000000 0.000000 
#    y 0.000000 1.644140 0.000000 
#    z 0.000000 0.000000 1.643680 
# 
# From -- ./inp_files/11311.got.cif
#   From: 2010.05.17/outbox.cif.g08.bks.cpg/sg67_6_cif.got.tgz:11311.got - 2010.06.03 18:28:57.
