data_PCOD9504327
_publ_section_title
;
Structure prediction by ZEFSAII (Michael W. Deem and Ramdas Pophale) SiO2 
 PCOD9504327
Probable space group: C M M A
;
_chemical_formula_sum "Si O2"
_cell_formula_units_Z 72
_cell_length_a 21.819614
_cell_length_b 8.685673
_cell_length_c 20.384563
_cell_angle_alpha 90.000000
_cell_angle_beta 90.000000
_cell_angle_gamma 90.000000
_cell_volume 3863.242267
_symmetry_space_group_name_H-M "C M M A"
_symmetry_group_IT_number 67
_symmetry_cell_setting 'orthorhombic'
loop_
_space_group_symop_operation_xyz
x,y,z
-x,1/2-y,z
x,-y,-z
-x,1/2+y,-z
-x,-y,-z
x,1/2+y,-z
-x,y,z
x,1/2-y,z
1/2+x,1/2+y,z
1/2-x,-y,z
1/2+x,1/2-y,-z
1/2-x,y,-z
1/2-x,1/2-y,-z
1/2+x,y,-z
1/2-x,1/2+y,z
1/2+x,-y,z
loop_
_atom_site_type_symbol
_atom_site_label
_atom_site_fract_x
_atom_site_fract_y
_atom_site_fract_z
Si Si1 0.634995 0.064306 0.573051
Si Si2 0.074152 0.075139 0.932488
Si Si3 0.186358 0.936179 0.707182
Si Si4 0.500000 0.065065 0.573259
Si Si5 0.430102 0.065046 0.791812
O O1 0.636497 0.250000 0.567988
O O2 0.679637 0.015003 0.630990
O O3 0.566573 0.018606 0.598695
O O4 0.645328 0.000000 0.500000
O O5 0.096240 0.250000 0.925882
O O6 0.000000 0.080412 0.937617
O O7 0.085882 0.980866 0.866358
O O8 0.096979 0.000000 0.000000
O O9 0.187395 0.750000 0.709085
O O10 0.125334 0.988423 0.745624
O O11 0.250000 0.000000 0.734410
O O12 0.500000 0.250000 0.573563
O O13 0.500000 0.000000 0.500000
O O14 0.500000 0.008682 0.777025
O O15 0.432515 0.250000 0.786309
#
# Coordination Sequence:
#
# PCOD9504327 Si02
#       5
#    16  16  16   8  16
#     4   9  18  32  51  74  98 128 167 212 261 310
#     4   9  16  27  47  77 111 141 170 208 254 301
#     4  10  22  37  53  74 102 138 174 213 262 313
#     4   8  14  26  46  70  96 120 151 198 251 302
#     4   9  18  33  54  78 103 135 176 216 255 303
#
# _framework density 18.637195999999999
#
# number of rings (size 3 to 8) (size 9 to 14) (size 15 to 20)
#    0.000    2.889    0.000    0.667    1.556    4.889 
#    0.000    2.222    0.000    0.667    0.000    4.667 
#    0.000    0.000    0.000    0.000    0.000    0.000 
#
# Total GULP energy -200403.510304 kJ/mol
# GULP energy per Si atom -5566.764175 kJ/mol
# Density = 1.859478 g / cm^3
# Si number density = 18.637196 Si / 1000 Ang^3
#
#
#
# Elastic Constant Matrix: (Units=GPa)
#
#
# Indices 1 2 3 4 5 6 
#
# 1 111.7876 18.8936 64.8339 0.0000 0.0000 0.0000
# 2 18.8936 5.3579 11.8820 0.0000 0.0000 0.0000
# 3 64.8339 11.8820 101.3620 0.0000 0.0000 0.0000
# 4 0.0000 0.0000 0.0000 21.0943 0.0000 0.0000
# 5 0.0000 0.0000 0.0000 0.0000 6.9883 0.0000
# 6 0.0000 0.0000 0.0000 0.0000 0.0000 19.9339
#
#
#
# Elastic Compliance Matrix: (Units=1/GPa)
#
#
# Indices 1 2 3 4 5 6 
#
# 1 0.026211 -0.074656 -0.008014 0.000000 0.000000 0.000000
# 2 -0.074656 0.464840 -0.006738 0.000000 0.000000 0.000000
# 3 -0.008014 -0.006738 0.015781 0.000000 0.000000 0.000000
# 4 0.000000 0.000000 0.000000 0.047406 0.000000 0.000000
# 5 0.000000 0.000000 0.000000 0.000000 0.143095 0.000000
# 6 0.000000 0.000000 0.000000 0.000000 0.000000 0.050166
#
#
# Mechanical properties :
#
#
# Convention : Reuss Voigt Hill
#
# Bulk Modulus (GPa) = 3.04863 45.52516 24.28690
# Shear Modulus (GPa) = 4.82786 17.79652 11.31219
#
# Velocity S-wave (km/s) = 1.61123 3.09349 2.46635
# Velocity P-wave (km/s) = 2.25848 6.10243 4.60111
#
# Compressibility (1/GPa) = 0.32801608
#
# Stress axis : x y z
#
# Youngs Moduli (GPa) = 38.15130 2.15128 63.36552
#
# Poissons Ratio (x) = 0.16061 0.50782
# Poissons Ratio (y) = 2.84824 0.42694
# Poissons Ratio (z) = 0.30575 0.01449
#
# Static dielectric constant tensor:
#      x y z
#    x 1.678090 0.000000 0.000000 
#    y 0.000000 1.649540 0.000000 
#    z 0.000000 0.000000 1.637930 
# 
# From -- ./inp_files/36727.got.cif
#   From: 2010.05.17/outbox.cif.g08.bks.cpg/sg67_19_cif.got.tgz:36727.got - 2010.06.03 18:28:57.
