data_PCOD9504746
_publ_section_title
;
Structure prediction by ZEFSAII (Michael W. Deem and Ramdas Pophale) SiO2 
 PCOD9504746
Probable space group: C M M A
;
_chemical_formula_sum "Si O2"
_cell_formula_units_Z 48
_cell_length_a 7.731729
_cell_length_b 16.196359
_cell_length_c 19.841460
_cell_angle_alpha 90.000000
_cell_angle_beta 90.000000
_cell_angle_gamma 90.000000
_cell_volume 2484.663864
_symmetry_space_group_name_H-M "C M M A"
_symmetry_group_IT_number 67
_symmetry_cell_setting 'orthorhombic'
loop_
_space_group_symop_operation_xyz
x,y,z
-x,1/2-y,z
x,-y,-z
-x,1/2+y,-z
-x,-y,-z
x,1/2+y,-z
-x,y,z
x,1/2-y,z
1/2+x,1/2+y,z
1/2-x,-y,z
1/2+x,1/2-y,-z
1/2-x,y,-z
1/2-x,1/2-y,-z
1/2+x,y,-z
1/2-x,1/2+y,z
1/2+x,-y,z
loop_
_atom_site_type_symbol
_atom_site_label
_atom_site_fract_x
_atom_site_fract_y
_atom_site_fract_z
Si Si1 0.194889 0.350843 0.575268
Si Si2 0.296146 0.403002 0.074477
Si Si3 0.500000 0.851394 0.326422
Si Si4 0.000000 0.347028 0.174400
O O1 0.195966 0.250000 0.574811
O O2 0.250000 0.376530 0.500000
O O3 0.332129 0.377334 0.631095
O O4 0.000000 0.378003 0.589469
O O5 0.500000 0.391687 0.087200
O O6 0.250000 0.500000 0.071921
O O7 0.169733 0.368815 0.131381
O O8 0.250000 0.368832 0.000000
O O9 0.500000 0.750000 0.326038
O O10 0.500000 0.882989 0.249900
O O11 0.000000 0.250000 0.183101
#
# Coordination Sequence:
#
# PCOD9504746 Si02
#       4
#    16  16   8   8
#     4   9  14  22  40  62  87 132 182 214 254 321
#     4  11  20  39  65  85 107 148 197 237 275 329
#     4   9  18  30  41  65 109 140 167 221 281 324
#     4  11  24  37  53  87 124 149 179 235 294 335
#
# _framework density 19.318508000000001
#
# number of rings (size 3 to 8) (size 9 to 14) (size 15 to 20)
#    0.000    2.000    5.000    1.000    0.000    2.667 
#    0.000    3.333    0.000    0.000    0.000    0.000 
#    0.000    4.000    0.000    0.000    0.000    0.000 
#
# Total GULP energy -133909.754100 kJ/mol
# GULP energy per Si atom -5579.573088 kJ/mol
# Density = 1.927454 g / cm^3
# Si number density = 19.318508 Si / 1000 Ang^3
#
#
#
# Elastic Constant Matrix: (Units=GPa)
#
#
# Indices 1 2 3 4 5 6 
#
# 1 246.0796 7.3645 129.0986 0.0000 0.0000 0.0000
# 2 7.3645 5.8138 12.5121 0.0000 0.0000 0.0000
# 3 129.0986 12.5121 209.5282 0.0000 0.0000 0.0000
# 4 0.0000 0.0000 0.0000 1050.5311 0.0000 0.0000
# 5 0.0000 0.0000 0.0000 0.0000 33.1841 0.0000
# 6 0.0000 0.0000 0.0000 0.0000 0.0000 2.5758
#
#
#
# Elastic Compliance Matrix: (Units=1/GPa)
#
#
# Indices 1 2 3 4 5 6 
#
# 1 0.006006 0.000409 -0.003725 0.000000 0.000000 0.000000
# 2 0.000409 0.197398 -0.012040 0.000000 0.000000 0.000000
# 3 -0.003725 -0.012040 0.007786 0.000000 0.000000 0.000000
# 4 0.000000 0.000000 0.000000 0.000952 0.000000 0.000000
# 5 0.000000 0.000000 0.000000 0.000000 0.030135 0.000000
# 6 0.000000 0.000000 0.000000 0.000000 0.000000 0.388232
#
#
# Mechanical properties :
#
#
# Convention : Reuss Voigt Hill
#
# Bulk Modulus (GPa) = 5.54082 84.37466 44.95774
# Shear Modulus (GPa) = 6.93117 238.08796 122.50956
#
# Velocity S-wave (km/s) = 1.89621 11.11355 7.97203
# Velocity P-wave (km/s) = 2.76921 14.43786 10.39520
#
# Compressibility (1/GPa) = 0.18047875
#
# Stress axis : x y z
#
# Youngs Moduli (GPa) = 166.51341 5.06591 128.42788
#
# Poissons Ratio (x) = -0.00207 0.47835
# Poissons Ratio (y) = -0.06804 1.54621
# Poissons Ratio (z) = 0.62020 0.06099
#
# Static dielectric constant tensor:
#      x y z
#    x 1.657380 0.000000 0.000000 
#    y 0.000000 1.706770 0.000000 
#    z 0.000000 0.000000 1.681430 
# 
# From -- ./inp_files/24452.got.cif
#   From: 2010.05.17/outbox.cif.g08.bks.cpg/sg67_13_cif.got.tgz:24452.got - 2010.06.03 18:28:57.
