data_PCOD9504451
_publ_section_title
;
Structure prediction by ZEFSAII (Michael W. Deem and Ramdas Pophale) SiO2 
 PCOD9504451
Probable space group: C M M A
;
_chemical_formula_sum "Si O2"
_cell_formula_units_Z 88
_cell_length_a 11.206762
_cell_length_b 14.146732
_cell_length_c 25.546070
_cell_angle_alpha 90.000000
_cell_angle_beta 90.000000
_cell_angle_gamma 90.000000
_cell_volume 4050.049889
_symmetry_space_group_name_H-M "C M M A"
_symmetry_group_IT_number 67
_symmetry_cell_setting 'orthorhombic'
loop_
_space_group_symop_operation_xyz
x,y,z
-x,1/2-y,z
x,-y,-z
-x,1/2+y,-z
-x,-y,-z
x,1/2+y,-z
-x,y,z
x,1/2-y,z
1/2+x,1/2+y,z
1/2-x,-y,z
1/2+x,1/2-y,-z
1/2-x,y,-z
1/2-x,1/2-y,-z
1/2+x,y,-z
1/2-x,1/2+y,z
1/2+x,-y,z
loop_
_atom_site_type_symbol
_atom_site_label
_atom_site_fract_x
_atom_site_fract_y
_atom_site_fract_z
Si Si1 0.867359 0.364331 0.646135
Si Si2 0.627924 0.596459 0.171097
Si Si3 0.371687 0.884670 0.869524
Si Si4 0.130729 0.895464 0.475859
Si Si5 0.131197 0.250000 0.965915
Si Si6 0.632336 0.863936 0.289049
O O1 0.867079 0.250000 0.643865
O O2 0.857229 0.399571 0.586683
O O3 0.749059 0.390783 0.678165
O O4 0.000000 0.392455 0.666741
O O5 0.500000 0.642712 0.159945
O O6 0.627452 0.497589 0.139352
O O7 0.749800 0.647434 0.156875
O O8 0.633061 0.582978 0.233494
O O9 0.500000 0.853324 0.847145
O O10 0.367010 0.841667 0.927663
O O11 0.250000 0.851072 0.500000
O O12 0.000000 0.852721 0.487060
O O13 0.126534 0.000000 0.500000
O O14 0.000000 0.250000 0.992816
O O15 0.250000 0.250000 0.000000
O O16 0.500000 0.879391 0.313558
O O17 0.639546 0.750000 0.278682
#
# Coordination Sequence:
#
# PCOD9504451 Si02
#       6
#    16  16  16  16   8  16
#     4   9  18  33  52  76 106 138 175 222 276 332
#     4   9  18  34  56  83 116 151 187 229 278 333
#     4   9  19  36  56  82 115 148 188 232 276 328
#     4   9  18  33  51  71  97 131 174 221 271 328
#     4  10  22  40  62  88 116 150 194 240 285 334
#     4   9  18  32  52  81 113 144 180 221 272 335
#
# _framework density 21.728128000000002
#
# number of rings (size 3 to 8) (size 9 to 14) (size 15 to 20)
#    0.000    2.909    0.000    0.000    1.273    2.545 
#    0.000    5.455    0.000   29.455    0.000    0.000 
#    0.000    0.000    0.000    0.000    0.000    0.000 
#
# Total GULP energy -245002.158398 kJ/mol
# GULP energy per Si atom -5568.230873 kJ/mol
# Density = 2.167867 g / cm^3
# Si number density = 21.728128 Si / 1000 Ang^3
#
#
#
# Elastic Constant Matrix: (Units=GPa)
#
#
# Indices 1 2 3 4 5 6 
#
# 1 312.1529 20.2821 83.0209 0.0000 0.0000 0.0000
# 2 20.2821 119.0084 28.1335 0.0000 0.0000 0.0000
# 3 83.0209 28.1335 67.6944 0.0000 0.0000 0.0000
# 4 0.0000 0.0000 0.0000 18.9285 0.0000 0.0000
# 5 0.0000 0.0000 0.0000 0.0000 53.2719 0.0000
# 6 0.0000 0.0000 0.0000 0.0000 0.0000 -51.6583
#
#
#
# Elastic Compliance Matrix: (Units=1/GPa)
#
#
# Indices 1 2 3 4 5 6 
#
# 1 0.004797 0.000636 -0.006148 0.000000 0.000000 0.000000
# 2 0.000636 0.009402 -0.004687 0.000000 0.000000 0.000000
# 3 -0.006148 -0.004687 0.024260 0.000000 0.000000 0.000000
# 4 0.000000 0.000000 0.000000 0.052830 0.000000 0.000000
# 5 0.000000 0.000000 0.000000 0.000000 0.018772 0.000000
# 6 0.000000 0.000000 0.000000 0.000000 0.000000 -0.019358
#
#
# Mechanical properties :
#
#
# Convention : Reuss Voigt Hill
#
# Bulk Modulus (GPa) = 55.36741 84.63654 70.00197
# Shear Modulus (GPa) = 42.69037 28.60304 35.64670
#
# Velocity S-wave (km/s) = 4.43736 3.63217 4.05480
# Velocity P-wave (km/s) = 7.19658 7.52511 7.36268
#
# Compressibility (1/GPa) = 0.01806117
#
# Stress axis : x y z
#
# Youngs Moduli (GPa) = 208.45101 106.35477 41.22052
#
# Poissons Ratio (x) = -0.06761 0.25341
# Poissons Ratio (y) = -0.13251 0.19321
# Poissons Ratio (z) = 1.28148 0.49851
#
# Static dielectric constant tensor:
#      x y z
#    x 1.885440 0.000000 0.000000 
#    y 0.000000 1.880230 0.000000 
#    z 0.000000 0.000000 1.734890 
# 
# From -- ./inp_files/37833.got.cif
#   From: 2010.05.17/outbox.cif.g08.bks.cpg/sg67_19_cif.got.tgz:37833.got - 2010.06.03 18:28:57.
