data_PCOD9504518
_publ_section_title
;
Structure prediction by ZEFSAII (Michael W. Deem and Ramdas Pophale) SiO2 
 PCOD9504518
Probable space group: C M M A
;
_chemical_formula_sum "Si O2"
_cell_formula_units_Z 68
_cell_length_a 25.141710
_cell_length_b 8.556193
_cell_length_c 13.649409
_cell_angle_alpha 90.000000
_cell_angle_beta 90.000000
_cell_angle_gamma 90.000000
_cell_volume 2936.224326
_symmetry_space_group_name_H-M "C M M A"
_symmetry_group_IT_number 67
_symmetry_cell_setting 'orthorhombic'
loop_
_space_group_symop_operation_xyz
x,y,z
-x,1/2-y,z
x,-y,-z
-x,1/2+y,-z
-x,-y,-z
x,1/2+y,-z
-x,y,z
x,1/2-y,z
1/2+x,1/2+y,z
1/2-x,-y,z
1/2+x,1/2-y,-z
1/2-x,y,-z
1/2-x,1/2-y,-z
1/2+x,y,-z
1/2-x,1/2+y,z
1/2+x,-y,z
loop_
_atom_site_type_symbol
_atom_site_label
_atom_site_fract_x
_atom_site_fract_y
_atom_site_fract_z
Si Si1 0.806628 0.068218 0.640289
Si Si2 0.080800 0.433138 0.397378
Si Si3 0.168416 0.422901 0.161579
Si Si4 0.250000 0.500000 0.000000
Si Si5 0.558846 0.063757 0.183179
O O1 0.812485 0.250000 0.614671
O O2 0.750000 0.000000 0.610481
O O3 0.855926 0.967283 0.602557
O O4 0.811156 0.046405 0.758191
O O5 0.060102 0.500000 0.500000
O O6 0.069617 0.250000 0.389901
O O7 0.061378 0.519535 0.299031
O O8 0.166182 0.250000 0.207700
O O9 0.208990 0.416357 0.072562
O O10 0.108596 0.474753 0.135297
O O11 0.500000 0.020376 0.146667
O O12 0.565818 0.250000 0.173508
#
# Coordination Sequence:
#
# PCOD9504518 Si02
#       5
#    16  16  16   4  16
#     4  11  21  36  57  83 120 163 207 252 308 372
#     4  11  22  37  58  87 122 161 209 260 310 361
#     4  11  23  39  63  94 126 163 205 253 310 370
#     4  12  26  40  66  98 136 160 202 250 310 376
#     4  10  22  42  66  91 124 166 209 256 311 369
#
# _framework density 23.158992999999999
#
# number of rings (size 3 to 8) (size 9 to 14) (size 15 to 20)
#    0.000    1.176    1.176    8.824    0.000    5.647 
#    0.000    2.941    0.000    0.000    0.000    0.000 
#    0.000    0.000    0.000    0.000    0.000    0.000 
#
# Total GULP energy -190148.529845 kJ/mol
# GULP energy per Si atom -5592.603819 kJ/mol
# Density = 2.310628 g / cm^3
# Si number density = 23.158993 Si / 1000 Ang^3
#
#
#
# Elastic Constant Matrix: (Units=GPa)
#
#
# Indices 1 2 3 4 5 6 
#
# 1 180.2060 24.7122 23.1895 0.0000 0.0000 0.0000
# 2 24.7122 106.5822 6.5217 0.0000 0.0000 0.0000
# 3 23.1895 6.5217 68.7095 0.0000 0.0000 0.0000
# 4 0.0000 0.0000 0.0000 5.9640 0.0000 0.0000
# 5 0.0000 0.0000 0.0000 0.0000 -34.9627 0.0000
# 6 0.0000 0.0000 0.0000 0.0000 0.0000 -3.5664
#
#
#
# Elastic Compliance Matrix: (Units=1/GPa)
#
#
# Indices 1 2 3 4 5 6 
#
# 1 0.005967 -0.001268 -0.001893 0.000000 0.000000 0.000000
# 2 -0.001268 0.009707 -0.000494 0.000000 0.000000 0.000000
# 3 -0.001893 -0.000494 0.015240 0.000000 0.000000 0.000000
# 4 0.000000 0.000000 0.000000 0.167674 0.000000 0.000000
# 5 0.000000 0.000000 0.000000 0.000000 -0.028602 0.000000
# 6 0.000000 0.000000 0.000000 0.000000 0.000000 -0.280397
#
#
# Mechanical properties :
#
#
# Convention : Reuss Voigt Hill
#
# Bulk Modulus (GPa) = 42.36559 51.59384 46.97971
# Shear Modulus (GPa) = -52.50190 13.55858 -19.47166
#
# Velocity S-wave (km/s) = -4.76649 2.42225 -2.90277
# Velocity P-wave (km/s) = 3.45825 5.49086 3.01579
#
# Compressibility (1/GPa) = 0.02360406
#
# Stress axis : x y z
#
# Youngs Moduli (GPa) = 167.59713 103.02342 65.61718
#
# Poissons Ratio (x) = 0.13059 0.12424
# Poissons Ratio (y) = 0.21244 0.03238
# Poissons Ratio (z) = 0.31734 0.05084
#
# Static dielectric constant tensor:
#      x y z
#    x 1.903100 0.000000 0.000000 
#    y 0.000000 1.787320 0.000000 
#    z 0.000000 0.000000 1.908940 
# 
# From -- ./inp_files/30475.got.cif
#   From: 2010.05.17/outbox.cif.g08.bks.cpg/sg67_16_cif.got.tgz:30475.got - 2010.06.03 18:28:57.
