data_PCOD9504564
_publ_section_title
;
Structure prediction by ZEFSAII (Michael W. Deem and Ramdas Pophale) SiO2 
 PCOD9504564
Probable space group: C M M A
;
_chemical_formula_sum "Si O2"
_cell_formula_units_Z 84
_cell_length_a 24.800346
_cell_length_b 13.770849
_cell_length_c 12.765096
_cell_angle_alpha 90.000000
_cell_angle_beta 90.000000
_cell_angle_gamma 90.000000
_cell_volume 4359.558817
_symmetry_space_group_name_H-M "C M M A"
_symmetry_group_IT_number 67
_symmetry_cell_setting 'orthorhombic'
loop_
_space_group_symop_operation_xyz
x,y,z
-x,1/2-y,z
x,-y,-z
-x,1/2+y,-z
-x,-y,-z
x,1/2+y,-z
-x,y,z
x,1/2-y,z
1/2+x,1/2+y,z
1/2-x,-y,z
1/2+x,1/2-y,-z
1/2-x,y,-z
1/2-x,1/2-y,-z
1/2+x,y,-z
1/2-x,1/2+y,z
1/2+x,-y,z
loop_
_atom_site_type_symbol
_atom_site_label
_atom_site_fract_x
_atom_site_fract_y
_atom_site_fract_z
Si Si1 0.088961 0.637149 0.097813
Si Si2 0.333245 0.137296 0.582889
Si Si3 0.692605 0.138874 0.951479
Si Si4 0.707386 0.361551 0.356731
Si Si5 0.500000 0.500000 0.000000
Si Si6 0.645173 0.006643 0.767544
O O1 0.075355 0.750000 0.122285
O O2 0.096517 0.562441 0.194714
O O3 0.147091 0.638149 0.041116
O O4 0.046748 0.583534 0.022912
O O5 0.349485 0.250000 0.590046
O O6 0.327891 0.111955 0.459925
O O7 0.270361 0.130816 0.617591
O O8 0.365691 0.072207 0.664786
O O9 0.699100 0.250000 0.912691
O O10 0.668392 0.074015 0.859051
O O11 0.750000 0.109481 0.000000
O O12 0.695757 0.250000 0.330849
O O13 0.691667 0.432160 0.265403
#
# Coordination Sequence:
#
# PCOD9504564 Si02
#       6
#    16  16  16  16   4  16
#     4  11  25  42  63  88 115 154 202 251 302 355
#     4   9  19  33  49  78 118 166 207 239 281 348
#     4  10  23  39  54  83 126 160 193 242 299 368
#     4   9  19  33  49  76 120 163 206 246 283 343
#     4  12  22  52  66  82 110 160 204 264 304 362
#     4  12  20  33  55  85 112 154 204 237 300 358
#
# _framework density 19.268003
#
# number of rings (size 3 to 8) (size 9 to 14) (size 15 to 20)
#    0.000    1.714    1.905    3.714    5.333    2.286 
#    0.000    0.000    0.000    0.571    0.000    2.667 
#    0.000    3.048    0.000    0.000    0.000    0.000 
#
# Total GULP energy -233960.559663 kJ/mol
# GULP energy per Si atom -5570.489516 kJ/mol
# Density = 1.922415 g / cm^3
# Si number density = 19.268003 Si / 1000 Ang^3
#
#
#
# Elastic Constant Matrix: (Units=GPa)
#
#
# Indices 1 2 3 4 5 6 
#
# 1 59.9012 21.2753 -1.6227 0.0000 0.0000 0.0000
# 2 21.2753 143.9551 53.5464 0.0000 0.0000 0.0000
# 3 -1.6227 53.5464 58.5684 0.0000 0.0000 0.0000
# 4 0.0000 0.0000 0.0000 35.9505 0.0000 0.0000
# 5 0.0000 0.0000 0.0000 0.0000 -5.1685 0.0000
# 6 0.0000 0.0000 0.0000 0.0000 0.0000 16.8566
#
#
#
# Elastic Compliance Matrix: (Units=1/GPa)
#
#
# Indices 1 2 3 4 5 6 
#
# 1 0.018381 -0.004403 0.004535 0.000000 0.000000 0.000000
# 2 -0.004403 0.011581 -0.010710 0.000000 0.000000 0.000000
# 3 0.004535 -0.010710 0.026992 0.000000 0.000000 0.000000
# 4 0.000000 0.000000 0.000000 0.027816 0.000000 0.000000
# 5 0.000000 0.000000 0.000000 0.000000 -0.193481 0.000000
# 6 0.000000 0.000000 0.000000 0.000000 0.000000 0.059324
#
#
# Mechanical properties :
#
#
# Convention : Reuss Voigt Hill
#
# Bulk Modulus (GPa) = 27.93551 45.42476 36.68013
# Shear Modulus (GPa) = -306.78615 22.14277 -142.32169
#
# Velocity S-wave (km/s) = -12.63195 3.39366 -8.60376
# Velocity P-wave (km/s) = 14.07924 6.24358 8.92308
#
# Compressibility (1/GPa) = 0.03579673
#
# Stress axis : x y z
#
# Youngs Moduli (GPa) = 54.40397 86.34664 37.04869
#
# Poissons Ratio (x) = 0.38023 -0.16802
# Poissons Ratio (y) = 0.23957 0.39680
# Poissons Ratio (z) = -0.24673 0.92479
#
# Static dielectric constant tensor:
#      x y z
#    x 1.635000 0.000000 0.000000 
#    y 0.000000 1.744670 0.000000 
#    z 0.000000 0.000000 1.756890 
# 
# From -- ./inp_files/21742.got.cif
#   From: 2010.05.17/outbox.cif.g08.bks.cpg/sg67_11_cif.got.tgz:21742.got - 2010.06.03 18:28:57.
