data_PCOD9504148
_publ_section_title
;
Structure prediction by ZEFSAII (Michael W. Deem and Ramdas Pophale) SiO2 
 PCOD9504148
Probable space group: C M M A
;
_chemical_formula_sum "Si O2"
_cell_formula_units_Z 52
_cell_length_a 13.618574
_cell_length_b 15.271227
_cell_length_c 12.206421
_cell_angle_alpha 90.000000
_cell_angle_beta 90.000000
_cell_angle_gamma 90.000000
_cell_volume 2538.597877
_symmetry_space_group_name_H-M "C M M A"
_symmetry_group_IT_number 67
_symmetry_cell_setting 'orthorhombic'
loop_
_space_group_symop_operation_xyz
x,y,z
-x,1/2-y,z
x,-y,-z
-x,1/2+y,-z
-x,-y,-z
x,1/2+y,-z
-x,y,z
x,1/2-y,z
1/2+x,1/2+y,z
1/2-x,-y,z
1/2+x,1/2-y,-z
1/2-x,y,-z
1/2-x,1/2-y,-z
1/2+x,y,-z
1/2-x,1/2+y,z
1/2+x,-y,z
loop_
_atom_site_type_symbol
_atom_site_label
_atom_site_fract_x
_atom_site_fract_y
_atom_site_fract_z
Si Si1 0.620237 0.250000 0.940577
Si Si2 0.118199 0.429864 0.689507
Si Si3 0.750000 0.000000 0.500000
Si Si4 0.618715 0.250000 0.194087
Si Si5 0.118334 0.555707 0.891945
O O1 0.500000 0.250000 0.934768
O O2 0.652662 0.156400 0.892295
O O3 0.649106 0.250000 0.068004
O O4 0.178978 0.445740 0.579971
O O5 0.146386 0.337507 0.742878
O O6 0.140394 0.503690 0.781018
O O7 0.000000 0.430980 0.670181
O O8 0.500000 0.250000 0.189861
O O9 0.000000 0.559308 0.898514
O O10 0.147515 0.500000 0.000000
#
# Coordination Sequence:
#
# PCOD9504148 Si02
#       5
#     8  16   4   8  16
#     4   9  14  24  51  92 124 150 182 227 297 369
#     4  10  21  39  62  88 118 156 199 246 295 347
#     4  12  26  42  58  78 116 166 210 252 284 338
#     4   9  16  31  61  93 117 149 193 237 297 364
#     4   9  15  27  53  87 119 148 185 234 292 355
#
# _framework density 20.483747999999999
#
# number of rings (size 3 to 8) (size 9 to 14) (size 15 to 20)
#    0.000    2.462    3.077    0.462    0.000    0.615 
#    0.000    3.846    0.000    7.385    0.000    0.000 
#    0.000    0.000    0.000    0.000    0.000    0.000 
#
# Total GULP energy -145310.213290 kJ/mol
# GULP energy per Si atom -5588.854357 kJ/mol
# Density = 2.043713 g / cm^3
# Si number density = 20.483748 Si / 1000 Ang^3
#
#
#
# Elastic Constant Matrix: (Units=GPa)
#
#
# Indices 1 2 3 4 5 6 
#
# 1 113.3751 42.2907 47.3147 0.0000 0.0000 0.0000
# 2 42.2907 222.8728 100.5833 0.0000 0.0000 0.0000
# 3 47.3147 100.5833 155.8302 0.0000 0.0000 0.0000
# 4 0.0000 0.0000 0.0000 11.3425 0.0000 0.0000
# 5 0.0000 0.0000 0.0000 0.0000 6.7013 0.0000
# 6 0.0000 0.0000 0.0000 0.0000 0.0000 -6.4567
#
#
#
# Elastic Compliance Matrix: (Units=1/GPa)
#
#
# Indices 1 2 3 4 5 6 
#
# 1 0.010190 -0.000758 -0.002605 0.000000 0.000000 0.000000
# 2 -0.000758 0.006388 -0.003893 0.000000 0.000000 0.000000
# 3 -0.002605 -0.003893 0.009721 0.000000 0.000000 0.000000
# 4 0.000000 0.000000 0.000000 0.088164 0.000000 0.000000
# 5 0.000000 0.000000 0.000000 0.000000 0.149225 0.000000
# 6 0.000000 0.000000 0.000000 0.000000 0.000000 -0.154877
#
#
# Mechanical properties :
#
#
# Convention : Reuss Voigt Hill
#
# Bulk Modulus (GPa) = 84.83723 96.93949 90.88836
# Shear Modulus (GPa) = 39.29280 22.44337 30.86808
#
# Velocity S-wave (km/s) = 4.38453 3.31368 3.88616
# Velocity P-wave (km/s) = 8.19383 7.87835 8.03764
#
# Compressibility (1/GPa) = 0.01178728
#
# Stress axis : x y z
#
# Youngs Moduli (GPa) = 98.13476 156.55490 102.87263
#
# Poissons Ratio (x) = 0.11868 0.26795
# Poissons Ratio (y) = 0.07439 0.40046
# Poissons Ratio (z) = 0.25561 0.60943
#
# Static dielectric constant tensor:
#      x y z
#    x 1.797810 0.000000 0.000000 
#    y 0.000000 1.751520 0.000000 
#    z 0.000000 0.000000 1.664420 
# 
# From -- ./inp_files/17243.got.cif
#   From: 2010.05.17/outbox.cif.g08.bks.cpg/sg67_9_cif.got.tgz:17243.got - 2010.06.03 18:28:57.
