data_PCOD9504334
_publ_section_title
;
Structure prediction by ZEFSAII (Michael W. Deem and Ramdas Pophale) SiO2 
 PCOD9504334
Probable space group: C M M A
;
_chemical_formula_sum "Si O2"
_cell_formula_units_Z 80
_cell_length_a 9.871051
_cell_length_b 22.993778
_cell_length_c 18.185355
_cell_angle_alpha 90.000000
_cell_angle_beta 90.000000
_cell_angle_gamma 90.000000
_cell_volume 4127.580131
_symmetry_space_group_name_H-M "C M M A"
_symmetry_group_IT_number 67
_symmetry_cell_setting 'orthorhombic'
loop_
_space_group_symop_operation_xyz
x,y,z
-x,1/2-y,z
x,-y,-z
-x,1/2+y,-z
-x,-y,-z
x,1/2+y,-z
-x,y,z
x,1/2-y,z
1/2+x,1/2+y,z
1/2-x,-y,z
1/2+x,1/2-y,-z
1/2-x,y,-z
1/2-x,1/2-y,-z
1/2+x,y,-z
1/2-x,1/2+y,z
1/2+x,-y,z
loop_
_atom_site_type_symbol
_atom_site_label
_atom_site_fract_x
_atom_site_fract_y
_atom_site_fract_z
Si Si1 0.704406 0.250000 0.722659
Si Si2 0.000000 0.122699 0.611932
Si Si3 0.000000 0.117404 0.444094
Si Si4 0.660389 0.681799 0.926223
Si Si5 0.150591 0.131750 0.191983
Si Si6 0.500000 0.750000 0.663755
Si Si7 0.000000 0.750000 0.592150
Si Si8 0.726978 0.931805 0.335531
O O1 0.655831 0.307502 0.763674
O O2 0.865363 0.250000 0.713008
O O3 0.632929 0.250000 0.643592
O O4 0.000000 0.192198 0.615332
O O5 0.868301 0.100694 0.653858
O O6 0.000000 0.098629 0.528853
O O7 0.000000 0.187605 0.446338
O O8 0.126974 0.093761 0.397561
O O9 0.500000 0.670738 0.937141
O O10 0.672763 0.750000 0.902077
O O11 0.730470 0.639381 0.867193
O O12 0.750000 0.677033 0.000000
O O13 0.172324 0.083198 0.254306
O O14 0.000000 0.125685 0.158680
O O15 0.750000 0.000000 0.345350
#
# Coordination Sequence:
#
# PCOD9504334 Si02
#       8
#     8   8   8  16  16   4   4  16
#     4  12  20  34  60  86 124 162 205 258 323 377
#     4  12  26  40  65  89 126 160 209 277 330 392
#     4  12  24  44  63  91 120 166 211 267 338 388
#     4  10  22  37  60  98 139 175 208 250 312 379
#     4  12  22  39  64  90 124 170 214 263 314 373
#     4  12  23  38  56  98 125 154 200 272 341 390
#     4  12  19  42  64  86 125 158 208 262 325 410
#     4  12  26  44  63  88 122 169 223 267 316 380
#
# _framework density 19.381816000000001
#
# number of rings (size 3 to 8) (size 9 to 14) (size 15 to 20)
#    0.000    0.400    7.000    2.100    2.800    3.200 
#    0.000    3.000    0.000    0.600    0.000    2.800 
#    0.000    0.000    0.000    0.000    0.000    0.000 
#
# Total GULP energy -223577.553098 kJ/mol
# GULP energy per Si atom -5589.438827 kJ/mol
# Density = 1.933770 g / cm^3
# Si number density = 19.381816 Si / 1000 Ang^3
#
#
#
# Elastic Constant Matrix: (Units=GPa)
#
#
# Indices 1 2 3 4 5 6 
#
# 1 167.9478 18.7490 30.5642 0.0000 0.0000 0.0000
# 2 18.7490 104.2295 8.8768 0.0000 0.0000 0.0000
# 3 30.5642 8.8768 66.0127 0.0000 0.0000 0.0000
# 4 0.0000 0.0000 0.0000 2.9276 0.0000 0.0000
# 5 0.0000 0.0000 0.0000 0.0000 -48.6511 0.0000
# 6 0.0000 0.0000 0.0000 0.0000 0.0000 12.6816
#
#
#
# Elastic Compliance Matrix: (Units=1/GPa)
#
#
# Indices 1 2 3 4 5 6 
#
# 1 0.006591 -0.000936 -0.002926 0.000000 0.000000 0.000000
# 2 -0.000936 0.009838 -0.000889 0.000000 0.000000 0.000000
# 3 -0.002926 -0.000889 0.016623 0.000000 0.000000 0.000000
# 4 0.000000 0.000000 0.000000 0.341581 0.000000 0.000000
# 5 0.000000 0.000000 0.000000 0.000000 -0.020555 0.000000
# 6 0.000000 0.000000 0.000000 0.000000 0.000000 0.078855
#
#
# Mechanical properties :
#
#
# Convention : Reuss Voigt Hill
#
# Bulk Modulus (GPa) = 42.46441 50.50775 46.48608
# Shear Modulus (GPa) = 11.10404 12.05828 11.58116
#
# Velocity S-wave (km/s) = 2.39615 2.49699 2.44709
# Velocity P-wave (km/s) = 5.44172 5.86764 5.65869
#
# Compressibility (1/GPa) = 0.02354913
#
# Stress axis : x y z
#
# Youngs Moduli (GPa) = 151.71665 101.64241 60.15804
#
# Poissons Ratio (x) = 0.09518 0.17601
# Poissons Ratio (y) = 0.14208 0.05350
# Poissons Ratio (z) = 0.44390 0.09040
#
# Static dielectric constant tensor:
#      x y z
#    x 1.685630 0.000000 0.000000 
#    y 0.000000 1.626710 0.000000 
#    z 0.000000 0.000000 1.673230 
# 
# From -- ./inp_files/36924.got.cif
#   From: 2010.05.17/outbox.cif.g08.bks.cpg/sg67_19_cif.got.tgz:36924.got - 2010.06.03 18:28:57.
