data_PCOD9504225
_publ_section_title
;
Structure prediction by ZEFSAII (Michael W. Deem and Ramdas Pophale) SiO2 
 PCOD9504225
Probable space group: C M M A
;
_chemical_formula_sum "Si O2"
_cell_formula_units_Z 56
_cell_length_a 25.822666
_cell_length_b 19.239690
_cell_length_c 5.270276
_cell_angle_alpha 90.000000
_cell_angle_beta 90.000000
_cell_angle_gamma 90.000000
_cell_volume 2618.378990
_symmetry_space_group_name_H-M "C M M A"
_symmetry_group_IT_number 67
_symmetry_cell_setting 'orthorhombic'
loop_
_space_group_symop_operation_xyz
x,y,z
-x,1/2-y,z
x,-y,-z
-x,1/2+y,-z
-x,-y,-z
x,1/2+y,-z
-x,y,z
x,1/2-y,z
1/2+x,1/2+y,z
1/2-x,-y,z
1/2+x,1/2-y,-z
1/2-x,y,-z
1/2-x,1/2-y,-z
1/2+x,y,-z
1/2-x,1/2+y,z
1/2+x,-y,z
loop_
_atom_site_type_symbol
_atom_site_label
_atom_site_fract_x
_atom_site_fract_y
_atom_site_fract_z
Si Si1 0.941646 0.904679 0.637683
Si Si2 0.805324 0.578944 0.106672
Si Si3 0.405090 0.331743 0.116734
Si Si4 0.855197 0.000000 0.500000
O O1 0.927434 0.869862 0.367197
O O2 0.000000 0.931897 0.632295
O O3 0.897746 0.963413 0.682852
O O4 0.937636 0.850606 0.867543
O O5 0.848646 0.636067 0.054830
O O6 0.817131 0.560187 0.400582
O O7 0.812352 0.500000 0.000000
O O8 0.750000 0.601102 0.000000
O O9 0.403043 0.250000 0.161671
#
# Coordination Sequence:
#
# PCOD9504225 Si02
#       4
#    16  16  16   8
#     4  11  23  40  65  92 125 167 208 255 311 367
#     4  10  21  40  64  91 118 164 204 256 308 369
#     4  11  24  42  62  93 129 162 207 257 308 370
#     4  10  21  41  62  94 128 156 210 264 310 364
#
# _framework density 21.387277999999998
#
# number of rings (size 3 to 8) (size 9 to 14) (size 15 to 20)
#    0.000    1.429    2.857    2.143    0.000    6.286 
#    0.000    4.286    0.000    5.143    0.000    0.000 
#    0.000    0.000    0.000    0.000    0.000    0.000 
#
# Total GULP energy -156022.971273 kJ/mol
# GULP energy per Si atom -5572.248974 kJ/mol
# Density = 2.133860 g / cm^3
# Si number density = 21.387278 Si / 1000 Ang^3
#
#
#
# Elastic Constant Matrix: (Units=GPa)
#
#
# Indices 1 2 3 4 5 6 
#
# 1 177.5380 16.3441 48.6667 0.0000 0.0000 0.0000
# 2 16.3441 59.8668 10.4847 0.0000 0.0000 0.0000
# 3 48.6667 10.4847 84.5506 0.0000 0.0000 0.0000
# 4 0.0000 0.0000 0.0000 25.1050 0.0000 0.0000
# 5 0.0000 0.0000 0.0000 0.0000 10.1487 0.0000
# 6 0.0000 0.0000 0.0000 0.0000 0.0000 43.8896
#
#
#
# Elastic Compliance Matrix: (Units=1/GPa)
#
#
# Indices 1 2 3 4 5 6 
#
# 1 0.006770 -0.001192 -0.003749 0.000000 0.000000 0.000000
# 2 -0.001192 0.017284 -0.001457 0.000000 0.000000 0.000000
# 3 -0.003749 -0.001457 0.014166 0.000000 0.000000 0.000000
# 4 0.000000 0.000000 0.000000 0.039833 0.000000 0.000000
# 5 0.000000 0.000000 0.000000 0.000000 0.098535 0.000000
# 6 0.000000 0.000000 0.000000 0.000000 0.000000 0.022784
#
#
# Mechanical properties :
#
#
# Convention : Reuss Voigt Hill
#
# Bulk Modulus (GPa) = 39.33289 52.54958 45.94124
# Shear Modulus (GPa) = 22.66102 32.25931 27.46016
#
# Velocity S-wave (km/s) = 3.25861 3.88795 3.58711
# Velocity P-wave (km/s) = 5.70866 6.69169 6.21963
#
# Compressibility (1/GPa) = 0.02542402
#
# Stress axis : x y z
#
# Youngs Moduli (GPa) = 147.71115 57.85584 70.59233
#
# Poissons Ratio (x) = 0.06895 0.26465
# Poissons Ratio (y) = 0.17603 0.10288
# Poissons Ratio (z) = 0.55376 0.08432
#
# Static dielectric constant tensor:
#      x y z
#    x 1.775030 0.000000 0.000000 
#    y 0.000000 1.756780 0.000000 
#    z 0.000000 0.000000 2.070790 
# 
# From -- ./inp_files/2026.got.cif
#   From: 2010.05.17/outbox.cif.g08.bks.cpg/sg67_2_cif.got.tgz:2026.got - 2010.06.03 18:28:57.
