data_PCOD9504785
_publ_section_title
;
Structure prediction by ZEFSAII (Michael W. Deem and Ramdas Pophale) SiO2 
 PCOD9504785
Probable space group: C M M A
;
_chemical_formula_sum "Si O2"
_cell_formula_units_Z 64
_cell_length_a 20.246954
_cell_length_b 16.393066
_cell_length_c 9.886540
_cell_angle_alpha 90.000000
_cell_angle_beta 90.000000
_cell_angle_gamma 90.000000
_cell_volume 3281.438063
_symmetry_space_group_name_H-M "C M M A"
_symmetry_group_IT_number 67
_symmetry_cell_setting 'orthorhombic'
loop_
_space_group_symop_operation_xyz
x,y,z
-x,1/2-y,z
x,-y,-z
-x,1/2+y,-z
-x,-y,-z
x,1/2+y,-z
-x,y,z
x,1/2-y,z
1/2+x,1/2+y,z
1/2-x,-y,z
1/2+x,1/2-y,-z
1/2-x,y,-z
1/2-x,1/2-y,-z
1/2+x,y,-z
1/2-x,1/2+y,z
1/2+x,-y,z
loop_
_atom_site_type_symbol
_atom_site_label
_atom_site_fract_x
_atom_site_fract_y
_atom_site_fract_z
Si Si1 0.295654 0.343973 0.688766
Si Si2 0.674485 0.903733 0.029489
Si Si3 0.161986 0.913316 0.424746
Si Si4 0.423629 0.345050 0.197562
O O1 0.278642 0.250000 0.717515
O O2 0.334796 0.382672 0.813372
O O3 0.228882 0.395675 0.660722
O O4 0.335317 0.349850 0.548607
O O5 0.750000 0.877078 0.000000
O O6 0.622669 0.860892 0.931510
O O7 0.670575 0.000000 0.000000
O O8 0.103012 0.899226 0.321336
O O9 0.162661 0.000000 0.500000
O O10 0.500000 0.362311 0.167027
O O11 0.417323 0.250000 0.236262
#
# Coordination Sequence:
#
# PCOD9504785 Si02
#       4
#    16  16  16  16
#     4  11  21  35  61  92 123 156 204 263 316 363
#     4  11  23  38  64  93 125 163 204 262 315 370
#     4  11  22  37  60  88 123 161 204 257 308 368
#     4  11  24  43  64  89 127 172 212 253 309 374
#
# _framework density 19.503644000000001
#
# number of rings (size 3 to 8) (size 9 to 14) (size 15 to 20)
#    0.000    1.000    2.500    6.750    3.500    2.000 
#    0.000    1.250    0.000    4.500    0.000    0.000 
#    0.000    0.000    0.000    0.000    0.000    0.000 
#
# Total GULP energy -178853.231038 kJ/mol
# GULP energy per Si atom -5589.163470 kJ/mol
# Density = 1.945925 g / cm^3
# Si number density = 19.503644 Si / 1000 Ang^3
#
#
#
# Elastic Constant Matrix: (Units=GPa)
#
#
# Indices 1 2 3 4 5 6 
#
# 1 110.4224 43.9801 60.5100 0.0000 0.0000 0.0000
# 2 43.9801 115.4193 39.0129 0.0000 0.0000 0.0000
# 3 60.5100 39.0129 130.6839 0.0000 0.0000 0.0000
# 4 0.0000 0.0000 0.0000 32.3697 0.0000 0.0000
# 5 0.0000 0.0000 0.0000 0.0000 28.5582 0.0000
# 6 0.0000 0.0000 0.0000 0.0000 0.0000 10.2569
#
#
#
# Elastic Compliance Matrix: (Units=1/GPa)
#
#
# Indices 1 2 3 4 5 6 
#
# 1 0.013170 -0.003289 -0.005116 0.000000 0.000000 0.000000
# 2 -0.003289 0.010458 -0.001599 0.000000 0.000000 0.000000
# 3 -0.005116 -0.001599 0.010498 0.000000 0.000000 0.000000
# 4 0.000000 0.000000 0.000000 0.030893 0.000000 0.000000
# 5 0.000000 0.000000 0.000000 0.000000 0.035016 0.000000
# 6 0.000000 0.000000 0.000000 0.000000 0.000000 0.097495
#
#
# Mechanical properties :
#
#
# Convention : Reuss Voigt Hill
#
# Bulk Modulus (GPa) = 70.83376 71.50352 71.16864
# Shear Modulus (GPa) = 22.49780 28.43847 25.46813
#
# Velocity S-wave (km/s) = 3.40003 3.82266 3.61753
# Velocity P-wave (km/s) = 7.19796 7.49833 7.34968
#
# Compressibility (1/GPa) = 0.01411756
#
# Stress axis : x y z
#
# Youngs Moduli (GPa) = 75.93244 95.62226 95.25383
#
# Poissons Ratio (x) = 0.31450 0.48732
# Poissons Ratio (y) = 0.24974 0.15232
# Poissons Ratio (z) = 0.38847 0.15291
#
# Static dielectric constant tensor:
#      x y z
#    x 1.672030 0.000000 0.000000 
#    y 0.000000 1.709590 0.000000 
#    z 0.000000 0.000000 1.709270 
# 
# From -- ./inp_files/18968.got.cif
#   From: 2010.05.17/outbox.cif.g08.bks.cpg/sg67_10_cif.got.tgz:18968.got - 2010.06.03 18:28:57.
