data_PCOD9504443
_publ_section_title
;
Structure prediction by ZEFSAII (Michael W. Deem and Ramdas Pophale) SiO2 
 PCOD9504443
Probable space group: C M M A
;
_chemical_formula_sum "Si O2"
_cell_formula_units_Z 68
_cell_length_a 19.368319
_cell_length_b 28.199828
_cell_length_c 5.891293
_cell_angle_alpha 90.000000
_cell_angle_beta 90.000000
_cell_angle_gamma 90.000000
_cell_volume 3217.725643
_symmetry_space_group_name_H-M "C M M A"
_symmetry_group_IT_number 67
_symmetry_cell_setting 'orthorhombic'
loop_
_space_group_symop_operation_xyz
x,y,z
-x,1/2-y,z
x,-y,-z
-x,1/2+y,-z
-x,-y,-z
x,1/2+y,-z
-x,y,z
x,1/2-y,z
1/2+x,1/2+y,z
1/2-x,-y,z
1/2+x,1/2-y,-z
1/2-x,y,-z
1/2-x,1/2-y,-z
1/2+x,y,-z
1/2-x,1/2+y,z
1/2+x,-y,z
loop_
_atom_site_type_symbol
_atom_site_label
_atom_site_fract_x
_atom_site_fract_y
_atom_site_fract_z
Si Si1 0.250000 0.500000 0.000000
Si Si2 0.924431 0.611201 0.015233
Si Si3 0.672983 0.631683 0.593513
Si Si4 0.870394 0.959903 0.686644
Si Si5 0.577094 0.803290 0.344352
O O1 0.198063 0.525921 0.826331
O O2 0.921073 0.561483 0.877964
O O3 0.923477 0.656854 0.850419
O O4 0.000000 0.612000 0.137327
O O5 0.853555 0.617379 0.156750
O O6 0.750000 0.637994 0.500000
O O7 0.645642 0.586646 0.456272
O O8 0.631259 0.678764 0.528008
O O9 0.890188 0.000000 0.500000
O O10 0.500000 0.803279 0.443942
O O11 0.591714 0.750000 0.262182
#
# Coordination Sequence:
#
# PCOD9504443 Si02
#       5
#     4  16  16  16  16
#     4  12  22  40  62  86 118 160 206 242 296 358
#     4  10  22  40  61  86 119 159 202 248 301 359
#     4  11  22  37  59  89 121 156 198 248 300 355
#     4  11  22  37  59  86 118 158 202 249 296 350
#     4   9  20  39  61  86 117 155 200 248 299 358
#
# _framework density 21.132937999999999
#
# number of rings (size 3 to 8) (size 9 to 14) (size 15 to 20)
#    0.000    1.647    0.000    5.294    0.000    5.647 
#    0.000    7.647    0.000    0.000    0.000    0.000 
#    0.000    0.000    0.000    0.000    0.000    0.000 
#
# Total GULP energy -189282.144677 kJ/mol
# GULP energy per Si atom -5567.121902 kJ/mol
# Density = 2.108484 g / cm^3
# Si number density = 21.132938 Si / 1000 Ang^3
#
#
#
# Elastic Constant Matrix: (Units=GPa)
#
#
# Indices 1 2 3 4 5 6 
#
# 1 108.7331 42.7396 34.7038 0.0000 0.0000 0.0000
# 2 42.7396 106.4126 28.6388 0.0000 0.0000 0.0000
# 3 34.7038 28.6388 66.5468 0.0000 0.0000 0.0000
# 4 0.0000 0.0000 0.0000 15.4915 0.0000 0.0000
# 5 0.0000 0.0000 0.0000 0.0000 803.9707 0.0000
# 6 0.0000 0.0000 0.0000 0.0000 0.0000 29.3765
#
#
#
# Elastic Compliance Matrix: (Units=1/GPa)
#
#
# Indices 1 2 3 4 5 6 
#
# 1 0.012133 -0.003586 -0.004784 0.000000 0.000000 0.000000
# 2 -0.003586 0.011688 -0.003160 0.000000 0.000000 0.000000
# 3 -0.004784 -0.003160 0.018882 0.000000 0.000000 0.000000
# 4 0.000000 0.000000 0.000000 0.064552 0.000000 0.000000
# 5 0.000000 0.000000 0.000000 0.000000 0.001244 0.000000
# 6 0.000000 0.000000 0.000000 0.000000 0.000000 0.034041
#
#
# Mechanical properties :
#
#
# Convention : Reuss Voigt Hill
#
# Bulk Modulus (GPa) = 50.90842 54.87299 52.89070
# Shear Modulus (GPa) = 29.04489 181.47508 105.25999
#
# Velocity S-wave (km/s) = 3.71130 9.27683 7.06517
# Velocity P-wave (km/s) = 6.51973 11.86457 9.57275
#
# Compressibility (1/GPa) = 0.01964312
#
# Stress axis : x y z
#
# Youngs Moduli (GPa) = 82.41849 85.55795 52.96051
#
# Poissons Ratio (x) = 0.30678 0.25338
# Poissons Ratio (y) = 0.29552 0.16736
# Poissons Ratio (z) = 0.39432 0.27037
#
# Static dielectric constant tensor:
#      x y z
#    x 1.803710 0.000000 0.000000 
#    y 0.000000 1.746260 0.000000 
#    z 0.000000 0.000000 2.406710 
# 
# From -- ./inp_files/2904.got.cif
#   From: 2010.05.17/outbox.cif.g08.bks.cpg/sg67_2_cif.got.tgz:2904.got - 2010.06.03 18:28:57.
