data_PCOD9504572
_publ_section_title
;
Structure prediction by ZEFSAII (Michael W. Deem and Ramdas Pophale) SiO2 
 PCOD9504572
Probable space group: C M M A
;
_chemical_formula_sum "Si O2"
_cell_formula_units_Z 84
_cell_length_a 12.909325
_cell_length_b 25.050810
_cell_length_c 13.761468
_cell_angle_alpha 90.000000
_cell_angle_beta 90.000000
_cell_angle_gamma 90.000000
_cell_volume 4450.308033
_symmetry_space_group_name_H-M "C M M A"
_symmetry_group_IT_number 67
_symmetry_cell_setting 'orthorhombic'
loop_
_space_group_symop_operation_xyz
x,y,z
-x,1/2-y,z
x,-y,-z
-x,1/2+y,-z
-x,-y,-z
x,1/2+y,-z
-x,y,z
x,1/2-y,z
1/2+x,1/2+y,z
1/2-x,-y,z
1/2+x,1/2-y,-z
1/2-x,y,-z
1/2-x,1/2-y,-z
1/2+x,y,-z
1/2-x,1/2+y,z
1/2+x,-y,z
loop_
_atom_site_type_symbol
_atom_site_label
_atom_site_fract_x
_atom_site_fract_y
_atom_site_fract_z
Si Si1 0.297168 0.844516 0.406489
Si Si2 0.781883 0.946298 0.322419
Si Si3 0.124679 0.074555 0.146376
Si Si4 0.000000 0.525673 0.342088
Si Si5 0.000000 0.913840 0.549336
Si Si6 0.750000 0.500000 0.000000
Si Si7 0.122965 0.808283 0.796781
O O1 0.250000 0.815212 0.500000
O O2 0.218474 0.892777 0.383233
O O3 0.402213 0.876123 0.431711
O O4 0.318072 0.813998 0.306243
O O5 0.694565 0.939257 0.240775
O O6 0.896978 0.957811 0.285365
O O7 0.750000 0.000000 0.380030
O O8 0.141420 0.138889 0.138781
O O9 0.000000 0.065742 0.155617
O O10 0.175707 0.038432 0.063445
O O11 0.000000 0.559070 0.443289
O O12 0.000000 0.463984 0.375969
O O13 0.146747 0.750000 0.840011
O O14 0.000000 0.809622 0.774452
#
# Coordination Sequence:
#
# PCOD9504572 Si02
#       7
#    16  16  16   8   8   4  16
#     4  11  20  31  48  74 110 148 201 248 289 319
#     4  11  21  31  48  75 109 155 190 229 283 340
#     4  10  23  40  60  89 122 145 181 230 282 356
#     4  11  22  30  46  69 114 161 199 236 286 342
#     4  11  20  30  41  70 112 151 198 258 277 323
#     4  12  22  40  66  98 122 146 164 214 310 364
#     4   9  19  37  60  81 108 153 200 241 284 327
#
# _framework density 18.875098000000001
#
# number of rings (size 3 to 8) (size 9 to 14) (size 15 to 20)
#    0.000    1.524    5.714    0.286    2.667    0.762 
#    1.714    0.476    0.000    0.000    0.000    6.000 
#    0.000    0.000    0.000    0.000    0.000    0.000 
#
# Total GULP energy -234075.287233 kJ/mol
# GULP energy per Si atom -5573.221125 kJ/mol
# Density = 1.883214 g / cm^3
# Si number density = 18.875098 Si / 1000 Ang^3
#
#
#
# Elastic Constant Matrix: (Units=GPa)
#
#
# Indices 1 2 3 4 5 6 
#
# 1 124.3408 39.8094 22.9257 0.0000 0.0000 0.0000
# 2 39.8094 128.5081 36.6571 0.0000 0.0000 0.0000
# 3 22.9257 36.6571 65.0006 0.0000 0.0000 0.0000
# 4 0.0000 0.0000 0.0000 15.7467 0.0000 0.0000
# 5 0.0000 0.0000 0.0000 0.0000 19.7960 0.0000
# 6 0.0000 0.0000 0.0000 0.0000 0.0000 16.6935
#
#
#
# Elastic Compliance Matrix: (Units=1/GPa)
#
#
# Indices 1 2 3 4 5 6 
#
# 1 0.009128 -0.002275 -0.001936 0.000000 0.000000 0.000000
# 2 -0.002275 0.009841 -0.004747 0.000000 0.000000 0.000000
# 3 -0.001936 -0.004747 0.018744 0.000000 0.000000 0.000000
# 4 0.000000 0.000000 0.000000 0.063505 0.000000 0.000000
# 5 0.000000 0.000000 0.000000 0.000000 0.050515 0.000000
# 6 0.000000 0.000000 0.000000 0.000000 0.000000 0.059904
#
#
# Mechanical properties :
#
#
# Convention : Reuss Voigt Hill
#
# Bulk Modulus (GPa) = 50.51608 57.40374 53.95991
# Shear Modulus (GPa) = 21.17270 25.01105 23.09188
#
# Velocity S-wave (km/s) = 3.35285 3.64412 3.50151
# Velocity P-wave (km/s) = 6.46609 6.94151 6.70801
#
# Compressibility (1/GPa) = 0.01979568
#
# Stress axis : x y z
#
# Youngs Moduli (GPa) = 109.55433 101.62005 53.34900
#
# Poissons Ratio (x) = 0.23122 0.10330
# Poissons Ratio (y) = 0.24927 0.25325
# Poissons Ratio (z) = 0.21212 0.48240
#
# Static dielectric constant tensor:
#      x y z
#    x 1.705770 0.000000 0.000000 
#    y 0.000000 1.694190 0.000000 
#    z 0.000000 0.000000 1.674590 
# 
# From -- ./inp_files/26182.got.cif
#   From: 2010.05.17/outbox.cif.g08.bks.cpg/sg67_14_cif.got.tgz:26182.got - 2010.06.03 18:28:57.
