data_PCOD9504197
_publ_section_title
;
Structure prediction by ZEFSAII (Michael W. Deem and Ramdas Pophale) SiO2 
 PCOD9504197
Probable space group: C M M A
;
_chemical_formula_sum "Si O2"
_cell_formula_units_Z 112
_cell_length_a 16.047332
_cell_length_b 24.190923
_cell_length_c 11.932806
_cell_angle_alpha 90.000000
_cell_angle_beta 90.000000
_cell_angle_gamma 90.000000
_cell_volume 4632.312578
_symmetry_space_group_name_H-M "C M M A"
_symmetry_group_IT_number 67
_symmetry_cell_setting 'orthorhombic'
loop_
_space_group_symop_operation_xyz
x,y,z
-x,1/2-y,z
x,-y,-z
-x,1/2+y,-z
-x,-y,-z
x,1/2+y,-z
-x,y,z
x,1/2-y,z
1/2+x,1/2+y,z
1/2-x,-y,z
1/2+x,1/2-y,-z
1/2-x,y,-z
1/2-x,1/2-y,-z
1/2+x,y,-z
1/2-x,1/2+y,z
1/2+x,-y,z
loop_
_atom_site_type_symbol
_atom_site_label
_atom_site_fract_x
_atom_site_fract_y
_atom_site_fract_z
Si Si1 0.399001 0.985556 0.236373
Si Si2 0.349048 0.924563 0.016120
Si Si3 0.090890 0.145537 0.838514
Si Si4 0.096107 0.310467 0.131707
Si Si5 0.192498 0.592061 0.591770
Si Si6 0.591046 0.588196 0.613822
Si Si7 0.258974 0.810284 0.728298
O O1 0.500000 0.981905 0.239439
O O2 0.374333 0.970531 0.107223
O O3 0.350659 0.937980 0.305512
O O4 0.369053 0.038541 0.310906
O O5 0.376031 0.864117 0.063433
O O6 0.250000 0.928250 0.000000
O O7 0.395879 0.914497 0.897493
O O8 0.083441 0.136083 0.705482
O O9 0.179238 0.177327 0.834143
O O10 0.000000 0.167850 0.877226
O O11 0.101247 0.250000 0.073055
O O12 0.164071 0.307867 0.228638
O O13 0.000000 0.317670 0.166956
O O14 0.250000 0.560289 0.500000
O O15 0.121000 0.609292 0.505843
O O16 0.251619 0.639722 0.640933
O O17 0.500000 0.564257 0.589307
O O18 0.282320 0.750000 0.682469
#
# Coordination Sequence:
#
# PCOD9504197 Si02
#       7
#    16  16  16  16  16  16  16
#     4  11  24  44  70  99 135 183 235 292 361 430
#     4  12  23  41  67 100 141 182 236 292 354 422
#     4  11  23  44  67  95 140 190 238 290 351 422
#     4  10  21  39  66  98 133 178 231 288 350 418
#     4  12  23  42  67 100 134 173 228 291 358 419
#     4  10  24  44  67  96 133 178 233 291 354 427
#     4  11  24  44  69 102 143 186 237 294 357 429
#
# _framework density 24.177987000000002
#
# number of rings (size 3 to 8) (size 9 to 14) (size 15 to 20)
#    0.000    1.000    4.286    2.143    0.000    4.857 
#    0.000    2.857    0.000    0.000    0.000    0.000 
#    0.000    0.000    0.000    0.000    0.000    0.000 
#
# Total GULP energy -311790.454899 kJ/mol
# GULP energy per Si atom -5567.686695 kJ/mol
# Density = 2.412296 g / cm^3
# Si number density = 24.177987 Si / 1000 Ang^3
#
#
#
# Elastic Constant Matrix: (Units=GPa)
#
#
# Indices 1 2 3 4 5 6 
#
# 1 150.1299 10.5207 32.5303 0.0000 0.0000 0.0000
# 2 10.5207 73.2056 -10.0656 0.0000 0.0000 0.0000
# 3 32.5303 -10.0656 98.6896 0.0000 0.0000 0.0000
# 4 0.0000 0.0000 0.0000 15.2367 0.0000 0.0000
# 5 0.0000 0.0000 0.0000 0.0000 43.6219 0.0000
# 6 0.0000 0.0000 0.0000 0.0000 0.0000 17.2933
#
#
#
# Elastic Compliance Matrix: (Units=1/GPa)
#
#
# Indices 1 2 3 4 5 6 
#
# 1 0.007312 -0.001402 -0.002553 0.000000 0.000000 0.000000
# 2 -0.001402 0.014123 0.001903 0.000000 0.000000 0.000000
# 3 -0.002553 0.001903 0.011168 0.000000 0.000000 0.000000
# 4 0.000000 0.000000 0.000000 0.065631 0.000000 0.000000
# 5 0.000000 0.000000 0.000000 0.000000 0.022924 0.000000
# 6 0.000000 0.000000 0.000000 0.000000 0.000000 0.057826
#
#
# Mechanical properties :
#
#
# Convention : Reuss Voigt Hill
#
# Bulk Modulus (GPa) = 35.08935 43.11068 39.10001
# Shear Modulus (GPa) = 25.96189 34.49970 30.23080
#
# Velocity S-wave (km/s) = 3.28042 3.78154 3.53986
# Velocity P-wave (km/s) = 5.37518 6.07750 5.73710
#
# Compressibility (1/GPa) = 0.02849868
#
# Stress axis : x y z
#
# Youngs Moduli (GPa) = 136.75398 70.80528 89.53779
#
# Poissons Ratio (x) = 0.09927 0.22862
# Poissons Ratio (y) = 0.19173 -0.17035
# Poissons Ratio (z) = 0.34918 -0.13471
#
# Static dielectric constant tensor:
#      x y z
#    x 2.162750 0.000000 0.000000 
#    y 0.000000 2.038610 0.000000 
#    z 0.000000 0.000000 2.181850 
# 
# From -- ./inp_files/18588.got.cif
#   From: 2010.05.17/outbox.cif.g08.bks.cpg/sg67_10_cif.got.tgz:18588.got - 2010.06.03 18:28:57.
