data_PCOD9504959
_publ_section_title
;
Structure prediction by ZEFSAII (Michael W. Deem and Ramdas Pophale) SiO2 
 PCOD9504959
Probable space group: C M M A
;
_chemical_formula_sum "Si O2"
_cell_formula_units_Z 36
_cell_length_a 7.668517
_cell_length_b 24.899238
_cell_length_c 7.390487
_cell_angle_alpha 90.000000
_cell_angle_beta 90.000000
_cell_angle_gamma 90.000000
_cell_volume 1411.141287
_symmetry_space_group_name_H-M "C M M A"
_symmetry_group_IT_number 67
_symmetry_cell_setting 'orthorhombic'
loop_
_space_group_symop_operation_xyz
x,y,z
-x,1/2-y,z
x,-y,-z
-x,1/2+y,-z
-x,-y,-z
x,1/2+y,-z
-x,y,z
x,1/2-y,z
1/2+x,1/2+y,z
1/2-x,-y,z
1/2+x,1/2-y,-z
1/2-x,y,-z
1/2-x,1/2-y,-z
1/2+x,y,-z
1/2-x,1/2+y,z
1/2+x,-y,z
loop_
_atom_site_type_symbol
_atom_site_label
_atom_site_fract_x
_atom_site_fract_y
_atom_site_fract_z
Si Si1 0.704147 0.559028 0.212681
Si Si2 0.198155 0.324142 0.704461
Si Si3 0.000000 0.250000 0.152643
O O1 0.500000 0.567302 0.236492
O O2 0.750000 0.500000 0.285172
O O3 0.796698 0.611403 0.288705
O O4 0.750000 0.558153 0.000000
O O5 0.250000 0.308546 0.500000
O O6 0.345667 0.296719 0.825848
O O7 0.000000 0.307348 0.748459
#
# Coordination Sequence:
#
# PCOD9504959 Si02
#       3
#    16  16   4
#     4  11  22  42  67  97 130 169 211 263 325 386
#     4  12  24  41  67  97 128 171 216 266 315 380
#     4  12  24  44  64  92 136 168 224 250 332 366
#
# _framework density 25.511263
#
# number of rings (size 3 to 8) (size 9 to 14) (size 15 to 20)
#    0.000    0.444    4.444    6.667    0.000    0.889 
#    0.000    5.556    0.000    0.000    0.000    0.000 
#    0.000    0.000    0.000    0.000    0.000    0.000 
#
# Total GULP energy -100422.650881 kJ/mol
# GULP energy per Si atom -5579.036160 kJ/mol
# Density = 2.545320 g / cm^3
# Si number density = 25.511263 Si / 1000 Ang^3
#
#
#
# Elastic Constant Matrix: (Units=GPa)
#
#
# Indices 1 2 3 4 5 6 
#
# 1 292.2894 61.0974 12.8517 0.0000 0.0000 0.0000
# 2 61.0974 263.3250 9.2920 0.0000 0.0000 0.0000
# 3 12.8517 9.2920 80.9947 0.0000 0.0000 0.0000
# 4 0.0000 0.0000 0.0000 860.1734 0.0000 0.0000
# 5 0.0000 0.0000 0.0000 0.0000 23.0036 0.0000
# 6 0.0000 0.0000 0.0000 0.0000 0.0000 92.7965
#
#
#
# Elastic Compliance Matrix: (Units=1/GPa)
#
#
# Indices 1 2 3 4 5 6 
#
# 1 0.003614 -0.000822 -0.000479 0.000000 0.000000 0.000000
# 2 -0.000822 0.004000 -0.000329 0.000000 0.000000 0.000000
# 3 -0.000479 -0.000329 0.012460 0.000000 0.000000 0.000000
# 4 0.000000 0.000000 0.000000 0.001163 0.000000 0.000000
# 5 0.000000 0.000000 0.000000 0.000000 0.043471 0.000000
# 6 0.000000 0.000000 0.000000 0.000000 0.000000 0.010776
#
#
# Mechanical properties :
#
#
# Convention : Reuss Voigt Hill
#
# Bulk Modulus (GPa) = 59.46920 89.23238 74.35079
# Shear Modulus (GPa) = 59.27810 232.08590 145.68200
#
# Velocity S-wave (km/s) = 4.82561 9.54837 7.56498
# Velocity P-wave (km/s) = 7.37633 12.51461 10.27194
#
# Compressibility (1/GPa) = 0.01681543
#
# Stress axis : x y z
#
# Youngs Moduli (GPa) = 276.69523 250.01123 80.25552
#
# Poissons Ratio (x) = 0.20542 0.03846
# Poissons Ratio (y) = 0.22734 0.02636
# Poissons Ratio (z) = 0.13259 0.08213
#
# Static dielectric constant tensor:
#      x y z
#    x 1.926980 0.000000 0.000000 
#    y 0.000000 2.011970 0.000000 
#    z 0.000000 0.000000 2.077990 
# 
# From -- ./inp_files/5409.got.cif
#   From: 2010.05.17/outbox.cif.g08.bks.cpg/sg67_3_cif.got.tgz:5409.got - 2010.06.03 18:28:57.
