data_PCOD9504563
_publ_section_title
;
Structure prediction by ZEFSAII (Michael W. Deem and Ramdas Pophale) SiO2 
 PCOD9504563
Probable space group: C M M A
;
_chemical_formula_sum "Si O2"
_cell_formula_units_Z 64
_cell_length_a 21.338374
_cell_length_b 13.697738
_cell_length_c 10.572458
_cell_angle_alpha 90.000000
_cell_angle_beta 90.000000
_cell_angle_gamma 90.000000
_cell_volume 3090.196857
_symmetry_space_group_name_H-M "C M M A"
_symmetry_group_IT_number 67
_symmetry_cell_setting 'orthorhombic'
loop_
_space_group_symop_operation_xyz
x,y,z
-x,1/2-y,z
x,-y,-z
-x,1/2+y,-z
-x,-y,-z
x,1/2+y,-z
-x,y,z
x,1/2-y,z
1/2+x,1/2+y,z
1/2-x,-y,z
1/2+x,1/2-y,-z
1/2-x,y,-z
1/2-x,1/2-y,-z
1/2+x,y,-z
1/2-x,1/2+y,z
1/2+x,-y,z
loop_
_atom_site_type_symbol
_atom_site_label
_atom_site_fract_x
_atom_site_fract_y
_atom_site_fract_z
Si Si1 0.136231 0.989254 0.207794
Si Si2 0.682755 0.636653 0.561871
Si Si3 0.069547 0.137295 0.361780
Si Si4 0.824063 0.140420 0.023175
O O1 0.076389 0.047148 0.263757
O O2 0.168977 0.932106 0.320484
O O3 0.137812 0.915832 0.087573
O O4 0.172607 0.082178 0.153475
O O5 0.683292 0.750000 0.603547
O O6 0.750000 0.616413 0.500000
O O7 0.626069 0.625798 0.461558
O O8 0.074941 0.250000 0.311224
O O9 0.000000 0.131415 0.420325
O O10 0.847531 0.250000 0.032497
O O11 0.750000 0.141686 0.000000
#
# Coordination Sequence:
#
# PCOD9504563 Si02
#       4
#    16  16  16  16
#     4  11  21  37  63  89 118 160 216 258 314 384
#     4  10  23  38  60  95 133 164 204 263 319 379
#     4  10  23  42  63  91 130 171 209 258 324 391
#     4  10  23  39  58  88 127 166 208 264 323 375
#
# _framework density 20.710654999999999
#
# number of rings (size 3 to 8) (size 9 to 14) (size 15 to 20)
#    0.000    1.750    0.000    3.750    7.000    3.000 
#    0.000    2.500    0.000    4.500    0.000    3.500 
#    0.000    0.000    0.000    0.000    0.000    0.000 
#
# Total GULP energy -178419.996044 kJ/mol
# GULP energy per Si atom -5575.624876 kJ/mol
# Density = 2.066352 g / cm^3
# Si number density = 20.710655 Si / 1000 Ang^3
#
#
#
# Elastic Constant Matrix: (Units=GPa)
#
#
# Indices 1 2 3 4 5 6 
#
# 1 118.5661 42.9904 42.0852 0.0000 0.0000 0.0000
# 2 42.9904 177.3058 70.5887 0.0000 0.0000 0.0000
# 3 42.0852 70.5887 75.7175 0.0000 0.0000 0.0000
# 4 0.0000 0.0000 0.0000 -10.0390 0.0000 0.0000
# 5 0.0000 0.0000 0.0000 0.0000 21.3272 0.0000
# 6 0.0000 0.0000 0.0000 0.0000 0.0000 177.3270
#
#
#
# Elastic Compliance Matrix: (Units=1/GPa)
#
#
# Indices 1 2 3 4 5 6 
#
# 1 0.010521 -0.000354 -0.005517 0.000000 0.000000 0.000000
# 2 -0.000354 0.008981 -0.008175 0.000000 0.000000 0.000000
# 3 -0.005517 -0.008175 0.023895 0.000000 0.000000 0.000000
# 4 0.000000 0.000000 0.000000 -0.099612 0.000000 0.000000
# 5 0.000000 0.000000 0.000000 0.000000 0.046889 0.000000
# 6 0.000000 0.000000 0.000000 0.000000 0.000000 0.005639
#
#
# Mechanical properties :
#
#
# Convention : Reuss Voigt Hill
#
# Bulk Modulus (GPa) = 65.34824 75.87978 70.61401
# Shear Modulus (GPa) = 169.44616 52.11806 110.78211
#
# Velocity S-wave (km/s) = 9.05503 5.02190 7.32165
# Velocity P-wave (km/s) = 11.87208 8.38711 10.27837
#
# Compressibility (1/GPa) = 0.01530263
#
# Stress axis : x y z
#
# Youngs Moduli (GPa) = 95.04791 111.35027 41.84938
#
# Poissons Ratio (x) = 0.03946 0.23090
# Poissons Ratio (y) = 0.03369 0.34213
# Poissons Ratio (z) = 0.52441 0.91033
#
# Static dielectric constant tensor:
#      x y z
#    x 1.760670 0.000000 0.000000 
#    y 0.000000 1.786150 0.000000 
#    z 0.000000 0.000000 1.787870 
# 
# From -- ./inp_files/18975.got.cif
#   From: 2010.05.17/outbox.cif.g08.bks.cpg/sg67_10_cif.got.tgz:18975.got - 2010.06.03 18:28:57.
