data_PCOD9504462
_publ_section_title
;
Structure prediction by ZEFSAII (Michael W. Deem and Ramdas Pophale) SiO2 
 PCOD9504462
Probable space group: C M M A
;
_chemical_formula_sum "Si O2"
_cell_formula_units_Z 68
_cell_length_a 15.747614
_cell_length_b 10.236702
_cell_length_c 20.879459
_cell_angle_alpha 90.000000
_cell_angle_beta 90.000000
_cell_angle_gamma 90.000000
_cell_volume 3365.844619
_symmetry_space_group_name_H-M "C M M A"
_symmetry_group_IT_number 67
_symmetry_cell_setting 'orthorhombic'
loop_
_space_group_symop_operation_xyz
x,y,z
-x,1/2-y,z
x,-y,-z
-x,1/2+y,-z
-x,-y,-z
x,1/2+y,-z
-x,y,z
x,1/2-y,z
1/2+x,1/2+y,z
1/2-x,-y,z
1/2+x,1/2-y,-z
1/2-x,y,-z
1/2-x,1/2-y,-z
1/2+x,y,-z
1/2-x,1/2+y,z
1/2+x,-y,z
loop_
_atom_site_type_symbol
_atom_site_label
_atom_site_fract_x
_atom_site_fract_y
_atom_site_fract_z
Si Si1 0.329022 0.097258 0.276116
Si Si2 0.405974 0.404708 0.411880
Si Si3 0.369605 0.750000 0.945217
Si Si4 0.828665 0.750000 0.912552
Si Si5 0.404417 0.007126 0.142980
Si Si6 0.750000 0.500000 0.500000
O O1 0.303722 0.250000 0.280249
O O2 0.387819 0.067199 0.337286
O O3 0.375156 0.072907 0.208909
O O4 0.250000 0.000000 0.279074
O O5 0.500000 0.461207 0.429199
O O6 0.413229 0.250000 0.418926
O O7 0.320527 0.438233 0.451659
O O8 0.269242 0.750000 0.931592
O O9 0.402021 0.881417 0.911497
O O10 0.382246 0.750000 0.021372
O O11 0.847498 0.617343 0.874605
O O12 0.500000 0.958176 0.149621
#
# Coordination Sequence:
#
# PCOD9504462 Si02
#       6
#    16  16   8   8  16   4
#     4  11  23  42  68  95 127 171 222 270 323 385
#     4  10  22  40  65  96 133 176 223 269 319 386
#     4  11  23  43  67  89 123 167 220 257 320 397
#     4  11  25  43  63  93 127 167 208 269 324 387
#     4  12  25  40  63  94 126 166 212 267 327 383
#     4  12  20  40  64 100 136 176 214 268 326 378
#
# _framework density 20.202952
#
# number of rings (size 3 to 8) (size 9 to 14) (size 15 to 20)
#    0.000    0.941    2.353    4.941    1.647    5.647 
#    0.000    0.000    0.000    1.412    0.000    0.000 
#    0.000    0.000    0.000    0.000    0.000    0.000 
#
# Total GULP energy -189758.701566 kJ/mol
# GULP energy per Si atom -5581.138281 kJ/mol
# Density = 2.015697 g / cm^3
# Si number density = 20.202952 Si / 1000 Ang^3
#
#
#
# Elastic Constant Matrix: (Units=GPa)
#
#
# Indices 1 2 3 4 5 6 
#
# 1 126.5303 12.0887 27.3695 0.0000 0.0000 0.0000
# 2 12.0887 62.3297 26.7169 0.0000 0.0000 0.0000
# 3 27.3695 26.7169 117.1233 0.0000 0.0000 0.0000
# 4 0.0000 0.0000 0.0000 34.6933 0.0000 0.0000
# 5 0.0000 0.0000 0.0000 0.0000 19.0317 0.0000
# 6 0.0000 0.0000 0.0000 0.0000 0.0000 72.4523
#
#
#
# Elastic Compliance Matrix: (Units=1/GPa)
#
#
# Indices 1 2 3 4 5 6 
#
# 1 0.008366 -0.000870 -0.001757 0.000000 0.000000 0.000000
# 2 -0.000870 0.017873 -0.003874 0.000000 0.000000 0.000000
# 3 -0.001757 -0.003874 0.009832 0.000000 0.000000 0.000000
# 4 0.000000 0.000000 0.000000 0.028824 0.000000 0.000000
# 5 0.000000 0.000000 0.000000 0.000000 0.052544 0.000000
# 6 0.000000 0.000000 0.000000 0.000000 0.000000 0.013802
#
#
# Mechanical properties :
#
#
# Convention : Reuss Voigt Hill
#
# Bulk Modulus (GPa) = 43.34416 48.70373 46.02395
# Shear Modulus (GPa) = 32.90949 41.22268 37.06608
#
# Velocity S-wave (km/s) = 4.04040 4.52201 4.28797
# Velocity P-wave (km/s) = 6.57779 7.17108 6.88083
#
# Compressibility (1/GPa) = 0.02307116
#
# Stress axis : x y z
#
# Youngs Moduli (GPa) = 119.52695 55.95091 101.70723
#
# Poissons Ratio (x) = 0.04866 0.17867
# Poissons Ratio (y) = 0.10395 0.39399
# Poissons Ratio (z) = 0.20997 0.21674
#
# Static dielectric constant tensor:
#      x y z
#    x 1.742240 0.000000 0.000000 
#    y 0.000000 1.687390 0.000000 
#    z 0.000000 0.000000 1.739490 
# 
# From -- ./inp_files/38820.got.cif
#   From: 2010.05.17/outbox.cif.g08.bks.cpg/sg67_20_cif.got.tgz:38820.got - 2010.06.03 18:28:57.
