data_PCOD9504661
_publ_section_title
;
Structure prediction by ZEFSAII (Michael W. Deem and Ramdas Pophale) SiO2 
 PCOD9504661
Probable space group: C M M A
;
_chemical_formula_sum "Si O2"
_cell_formula_units_Z 64
_cell_length_a 15.961553
_cell_length_b 10.407895
_cell_length_c 18.760149
_cell_angle_alpha 90.000000
_cell_angle_beta 90.000000
_cell_angle_gamma 90.000000
_cell_volume 3116.551658
_symmetry_space_group_name_H-M "C M M A"
_symmetry_group_IT_number 67
_symmetry_cell_setting 'orthorhombic'
loop_
_space_group_symop_operation_xyz
x,y,z
-x,1/2-y,z
x,-y,-z
-x,1/2+y,-z
-x,-y,-z
x,1/2+y,-z
-x,y,z
x,1/2-y,z
1/2+x,1/2+y,z
1/2-x,-y,z
1/2+x,1/2-y,-z
1/2-x,y,-z
1/2-x,1/2-y,-z
1/2+x,y,-z
1/2-x,1/2+y,z
1/2+x,-y,z
loop_
_atom_site_type_symbol
_atom_site_label
_atom_site_fract_x
_atom_site_fract_y
_atom_site_fract_z
Si Si1 0.400742 0.468148 0.857614
Si Si2 0.839472 0.250000 0.038555
Si Si3 0.095186 0.750000 0.112857
Si Si4 0.677239 0.897101 0.287064
Si Si5 0.101112 0.895321 0.556841
O O1 0.500000 0.467810 0.875059
O O2 0.354547 0.374328 0.912598
O O3 0.367119 0.614298 0.863062
O O4 0.386575 0.417301 0.778035
O O5 0.750000 0.250000 0.000000
O O6 0.903387 0.250000 0.972610
O O7 0.000000 0.750000 0.140549
O O8 0.708164 0.750000 0.284464
O O9 0.635395 0.917959 0.364018
O O10 0.750000 0.000000 0.277580
O O11 0.124325 0.750000 0.535036
O O12 0.000000 0.901702 0.559674
O O13 0.131087 0.000000 0.500000
#
# Coordination Sequence:
#
# PCOD9504661 Si02
#       5
#    16   8   8  16  16
#     4  11  24  44  68  92 128 172 218 265 324 394
#     4  12  26  40  66  96 125 167 214 274 329 387
#     4  10  24  42  62  92 125 161 213 269 323 386
#     4  11  25  41  64  93 131 172 216 265 325 388
#     4   9  19  39  66  96 127 166 217 264 315 383
#
# _framework density 20.535518
#
# number of rings (size 3 to 8) (size 9 to 14) (size 15 to 20)
#    0.000    1.500    1.250    2.625    5.250    5.500 
#    0.000    2.500    0.000    0.000    0.000    0.000 
#    0.000    0.000    0.000    0.000    0.000    0.000 
#
# Total GULP energy -178877.427876 kJ/mol
# GULP energy per Si atom -5589.919621 kJ/mol
# Density = 2.048878 g / cm^3
# Si number density = 20.535518 Si / 1000 Ang^3
#
#
#
# Elastic Constant Matrix: (Units=GPa)
#
#
# Indices 1 2 3 4 5 6 
#
# 1 60.1972 44.4650 22.3945 0.0000 0.0000 0.0000
# 2 44.4650 176.4731 80.9047 0.0000 0.0000 0.0000
# 3 22.3945 80.9047 124.2906 0.0000 0.0000 0.0000
# 4 0.0000 0.0000 0.0000 35.5478 0.0000 0.0000
# 5 0.0000 0.0000 0.0000 0.0000 25.6547 0.0000
# 6 0.0000 0.0000 0.0000 0.0000 0.0000 4.4810
#
#
#
# Elastic Compliance Matrix: (Units=1/GPa)
#
#
# Indices 1 2 3 4 5 6 
#
# 1 0.020430 -0.004932 -0.000471 0.000000 0.000000 0.000000
# 2 -0.004932 0.009267 -0.005144 0.000000 0.000000 0.000000
# 3 -0.000471 -0.005144 0.011479 0.000000 0.000000 0.000000
# 4 0.000000 0.000000 0.000000 0.028131 0.000000 0.000000
# 5 0.000000 0.000000 0.000000 0.000000 0.038979 0.000000
# 6 0.000000 0.000000 0.000000 0.000000 0.000000 0.223165
#
#
# Mechanical properties :
#
#
# Convention : Reuss Voigt Hill
#
# Bulk Modulus (GPa) = 49.79235 72.94326 61.36781
# Shear Modulus (GPa) = 13.91831 27.34983 20.63407
#
# Velocity S-wave (km/s) = 2.60622 3.65338 3.17330
# Velocity P-wave (km/s) = 5.77547 7.30712 6.58597
#
# Compressibility (1/GPa) = 0.02008341
#
# Stress axis : x y z
#
# Youngs Moduli (GPa) = 48.94728 107.90442 87.11714
#
# Poissons Ratio (x) = 0.53217 0.04101
# Poissons Ratio (y) = 0.24140 0.44812
# Poissons Ratio (z) = 0.02304 0.55505
#
# Static dielectric constant tensor:
#      x y z
#    x 1.757330 0.000000 0.000000 
#    y 0.000000 1.743220 0.000000 
#    z 0.000000 0.000000 1.683620 
# 
# From -- ./inp_files/33446.got.cif
#   From: 2010.05.17/outbox.cif.g08.bks.cpg/sg67_17_cif.got.tgz:33446.got - 2010.06.03 18:28:57.
