data_PCOD9504268
_publ_section_title
;
Structure prediction by ZEFSAII (Michael W. Deem and Ramdas Pophale) SiO2 
 PCOD9504268
Probable space group: C M M A
;
_chemical_formula_sum "Si O2"
_cell_formula_units_Z 68
_cell_length_a 17.321329
_cell_length_b 17.056729
_cell_length_c 11.064246
_cell_angle_alpha 90.000000
_cell_angle_beta 90.000000
_cell_angle_gamma 90.000000
_cell_volume 3268.878535
_symmetry_space_group_name_H-M "C M M A"
_symmetry_group_IT_number 67
_symmetry_cell_setting 'orthorhombic'
loop_
_space_group_symop_operation_xyz
x,y,z
-x,1/2-y,z
x,-y,-z
-x,1/2+y,-z
-x,-y,-z
x,1/2+y,-z
-x,y,z
x,1/2-y,z
1/2+x,1/2+y,z
1/2-x,-y,z
1/2+x,1/2-y,-z
1/2-x,y,-z
1/2-x,1/2-y,-z
1/2+x,y,-z
1/2-x,1/2+y,z
1/2+x,-y,z
loop_
_atom_site_type_symbol
_atom_site_label
_atom_site_fract_x
_atom_site_fract_y
_atom_site_fract_z
Si Si1 0.908777 0.163286 0.540165
Si Si2 0.281935 0.337493 0.133629
Si Si3 0.000000 0.750000 0.844481
Si Si4 0.163792 0.534540 0.293275
Si Si5 0.121626 0.364099 0.260351
O O1 0.882564 0.250000 0.583910
O O2 0.864418 0.090135 0.598274
O O3 0.898159 0.162575 0.396021
O O4 0.000000 0.155928 0.566422
O O5 0.315766 0.250000 0.136390
O O6 0.335470 0.407241 0.178856
O O7 0.208782 0.342250 0.223839
O O8 0.250000 0.352055 0.000000
O O9 0.066856 0.681703 0.830581
O O10 0.250000 0.500000 0.316238
O O11 0.113973 0.457916 0.265108
#
# Coordination Sequence:
#
# PCOD9504268 Si02
#       5
#    16  16   4  16  16
#     4  11  21  38  61  87 125 162 197 244 303 369
#     4  10  21  41  66  89 116 155 202 254 304 354
#     4  12  20  40  60  88 120 160 216 236 288 372
#     4  10  24  37  58  92 124 154 197 250 307 357
#     4  11  21  37  61  89 115 158 205 244 291 354
#
# _framework density 20.802243000000001
#
# number of rings (size 3 to 8) (size 9 to 14) (size 15 to 20)
#    0.000    1.412    3.529    1.412    1.647   11.765 
#    0.000    5.882    2.588    1.412    0.000    0.000 
#    0.000    0.000    0.000    0.000    0.000    0.000 
#
# Total GULP energy -189306.576120 kJ/mol
# GULP energy per Si atom -5567.840474 kJ/mol
# Density = 2.075490 g / cm^3
# Si number density = 20.802243 Si / 1000 Ang^3
#
#
#
# Elastic Constant Matrix: (Units=GPa)
#
#
# Indices 1 2 3 4 5 6 
#
# 1 29.0650 32.0262 -3.1327 0.0000 0.0000 0.0000
# 2 32.0262 183.3403 18.0175 0.0000 0.0000 0.0000
# 3 -3.1327 18.0175 40.4026 0.0000 0.0000 0.0000
# 4 0.0000 0.0000 0.0000 -74.7337 0.0000 0.0000
# 5 0.0000 0.0000 0.0000 0.0000 -17.3155 0.0000
# 6 0.0000 0.0000 0.0000 0.0000 0.0000 46.2940
#
#
#
# Elastic Compliance Matrix: (Units=1/GPa)
#
#
# Indices 1 2 3 4 5 6 
#
# 1 0.044544 -0.008493 0.007241 0.000000 0.000000 0.000000
# 2 -0.008493 0.007324 -0.003924 0.000000 0.000000 0.000000
# 3 0.007241 -0.003924 0.027062 0.000000 0.000000 0.000000
# 4 0.000000 0.000000 0.000000 -0.013381 0.000000 0.000000
# 5 0.000000 0.000000 0.000000 0.000000 -0.057752 0.000000
# 6 0.000000 0.000000 0.000000 0.000000 0.000000 0.021601
#
#
# Mechanical properties :
#
#
# Convention : Reuss Voigt Hill
#
# Bulk Modulus (GPa) = 14.58192 38.51443 26.54817
# Shear Modulus (GPa) = 79.85964 4.57541 42.21752
#
# Velocity S-wave (km/s) = 6.20268 1.48467 4.50985
# Velocity P-wave (km/s) = 7.63693 4.63614 6.31729
#
# Compressibility (1/GPa) = 0.06857809
#
# Stress axis : x y z
#
# Youngs Moduli (GPa) = 22.44970 136.54656 36.95162
#
# Poissons Ratio (x) = 1.15964 -0.26757
# Poissons Ratio (y) = 0.19066 0.14501
# Poissons Ratio (z) = -0.16256 0.53586
#
# Static dielectric constant tensor:
#      x y z
#    x 1.774170 0.000000 0.000000 
#    y 0.000000 1.774530 0.000000 
#    z 0.000000 0.000000 1.751590 
# 
# From -- ./inp_files/20434.got.cif
#   From: 2010.05.17/outbox.cif.g08.bks.cpg/sg67_11_cif.got.tgz:20434.got - 2010.06.03 18:28:57.
