data_PCOD9504744
_publ_section_title
;
Structure prediction by ZEFSAII (Michael W. Deem and Ramdas Pophale) SiO2 
 PCOD9504744
Probable space group: C M M A
;
_chemical_formula_sum "Si O2"
_cell_formula_units_Z 120
_cell_length_a 19.071589
_cell_length_b 26.695453
_cell_length_c 12.329439
_cell_angle_alpha 90.000000
_cell_angle_beta 90.000000
_cell_angle_gamma 90.000000
_cell_volume 6277.222028
_symmetry_space_group_name_H-M "C M M A"
_symmetry_group_IT_number 67
_symmetry_cell_setting 'orthorhombic'
loop_
_space_group_symop_operation_xyz
x,y,z
-x,1/2-y,z
x,-y,-z
-x,1/2+y,-z
-x,-y,-z
x,1/2+y,-z
-x,y,z
x,1/2-y,z
1/2+x,1/2+y,z
1/2-x,-y,z
1/2+x,1/2-y,-z
1/2-x,y,-z
1/2-x,1/2-y,-z
1/2+x,y,-z
1/2-x,1/2+y,z
1/2+x,-y,z
loop_
_atom_site_type_symbol
_atom_site_label
_atom_site_fract_x
_atom_site_fract_y
_atom_site_fract_z
Si Si1 0.853857 0.629780 0.680721
Si Si2 0.581999 0.467087 0.607745
Si Si3 0.311183 0.639974 0.725289
Si Si4 0.418326 0.109421 0.917652
Si Si5 0.370007 0.000000 0.000000
Si Si6 0.676897 0.975623 0.767600
Si Si7 0.671202 0.808139 0.951921
Si Si8 0.835368 0.693650 0.487743
O O1 0.869813 0.581915 0.605519
O O2 0.772855 0.637340 0.710349
O O3 0.893827 0.618011 0.792759
O O4 0.869861 0.675755 0.600274
O O5 0.589529 0.500000 0.500000
O O6 0.500000 0.454151 0.621436
O O7 0.611952 0.498045 0.708800
O O8 0.330138 0.582972 0.748779
O O9 0.327004 0.676234 0.825840
O O10 0.347788 0.658812 0.615803
O O11 0.500000 0.120605 0.925668
O O12 0.407405 0.052058 0.960728
O O13 0.374747 0.149952 0.987117
O O14 0.326405 0.984816 0.895110
O O15 0.750000 0.000000 0.726156
O O16 0.648275 0.750000 0.965839
O O17 0.750000 0.811593 0.000000
O O18 0.856225 0.750000 0.462613
O O19 0.750000 0.692770 0.500000
#
# Coordination Sequence:
#
# PCOD9504744 Si02
#       8
#    16  16  16  16   8  16  16  16
#     4  11  21  38  62  88 125 161 211 262 318 376
#     4  11  24  40  57  85 127 171 209 251 310 381
#     4  11  20  39  63  95 125 165 210 265 327 383
#     4  12  25  42  66  94 131 174 218 265 325 396
#     4  12  24  40  64  96 136 172 210 262 326 394
#     4  12  23  37  63  94 126 168 209 263 314 382
#     4  11  24  42  65  93 129 170 216 268 325 385
#     4   9  20  36  60  91 121 155 202 263 324 379
#
# _framework density 19.116736
#
# number of rings (size 3 to 8) (size 9 to 14) (size 15 to 20)
#    0.000    0.933    5.333    2.000    0.000    2.133 
#    0.000    0.000    0.000    2.000    0.000    0.000 
#    0.000    0.000    0.000    0.000    0.000    0.000 
#
# Total GULP energy -334710.183612 kJ/mol
# GULP energy per Si atom -5578.503060 kJ/mol
# Density = 1.907323 g / cm^3
# Si number density = 19.116736 Si / 1000 Ang^3
#
#
#
# Elastic Constant Matrix: (Units=GPa)
#
#
# Indices 1 2 3 4 5 6 
#
# 1 51.5095 32.8732 32.3538 0.0000 0.0000 0.0000
# 2 32.8732 143.0523 51.4999 0.0000 0.0000 0.0000
# 3 32.3538 51.4999 108.7178 0.0000 0.0000 0.0000
# 4 0.0000 0.0000 0.0000 43.2169 0.0000 0.0000
# 5 0.0000 0.0000 0.0000 0.0000 5.7707 0.0000
# 6 0.0000 0.0000 0.0000 0.0000 0.0000 -4.3982
#
#
#
# Elastic Compliance Matrix: (Units=1/GPa)
#
#
# Indices 1 2 3 4 5 6 
#
# 1 0.025454 -0.003764 -0.005792 0.000000 0.000000 0.000000
# 2 -0.003764 0.008984 -0.003136 0.000000 0.000000 0.000000
# 3 -0.005792 -0.003136 0.012407 0.000000 0.000000 0.000000
# 4 0.000000 0.000000 0.000000 0.023139 0.000000 0.000000
# 5 0.000000 0.000000 0.000000 0.000000 0.173290 0.000000
# 6 0.000000 0.000000 0.000000 0.000000 0.000000 -0.227368
#
#
# Mechanical properties :
#
#
# Convention : Reuss Voigt Hill
#
# Bulk Modulus (GPa) = 46.59386 59.63705 53.11546
# Shear Modulus (GPa) = 103.21019 21.35473 62.28246
#
# Velocity S-wave (km/s) = 7.35572 3.34589 5.71409
# Velocity P-wave (km/s) = 9.82692 6.79636 8.44864
#
# Compressibility (1/GPa) = 0.02146205
#
# Stress axis : x y z
#
# Youngs Moduli (GPa) = 39.28630 111.30482 80.59871
#
# Poissons Ratio (x) = 0.41897 0.46682
# Poissons Ratio (y) = 0.14788 0.25273
# Poissons Ratio (z) = 0.22754 0.34902
#
# Static dielectric constant tensor:
#      x y z
#    x 1.640610 0.000000 0.000000 
#    y 0.000000 1.681270 0.000000 
#    z 0.000000 0.000000 1.681370 
# 
# From -- ./inp_files/21167.got.cif
#   From: 2010.05.17/outbox.cif.g08.bks.cpg/sg67_11_cif.got.tgz:21167.got - 2010.06.03 18:28:57.
