data_PCOD9504610
_publ_section_title
;
Structure prediction by ZEFSAII (Michael W. Deem and Ramdas Pophale) SiO2 
 PCOD9504610
Probable space group: C M M A
;
_chemical_formula_sum "Si O2"
_cell_formula_units_Z 56
_cell_length_a 30.658934
_cell_length_b 14.789604
_cell_length_c 5.355266
_cell_angle_alpha 90.000000
_cell_angle_beta 90.000000
_cell_angle_gamma 90.000000
_cell_volume 2428.256968
_symmetry_space_group_name_H-M "C M M A"
_symmetry_group_IT_number 67
_symmetry_cell_setting 'orthorhombic'
loop_
_space_group_symop_operation_xyz
x,y,z
-x,1/2-y,z
x,-y,-z
-x,1/2+y,-z
-x,-y,-z
x,1/2+y,-z
-x,y,z
x,1/2-y,z
1/2+x,1/2+y,z
1/2-x,-y,z
1/2+x,1/2-y,-z
1/2-x,y,-z
1/2-x,1/2-y,-z
1/2+x,y,-z
1/2-x,1/2+y,z
1/2+x,-y,z
loop_
_atom_site_type_symbol
_atom_site_label
_atom_site_fract_x
_atom_site_fract_y
_atom_site_fract_z
Si Si1 0.450388 0.250000 0.055582
Si Si2 0.670779 0.405927 0.079450
Si Si3 0.206291 0.250000 0.649843
Si Si4 0.923995 0.056211 0.748017
Si Si5 0.632913 0.750000 0.264325
O O1 0.500000 0.250000 0.971020
O O2 0.441693 0.341629 0.215436
O O3 0.417579 0.250000 0.816890
O O4 0.705879 0.342286 0.201700
O O5 0.628579 0.432633 0.246090
O O6 0.690176 0.500000 0.000000
O O7 0.650915 0.341358 0.864747
O O8 0.250000 0.250000 0.500000
O O9 0.157386 0.250000 0.527538
O O10 0.936821 0.000000 0.500000
O O11 0.935580 0.000000 0.000000
#
# Coordination Sequence:
#
# PCOD9504610 Si02
#       5
#     8  16   8  16   8
#     4  10  23  44  70 106 142 190 241 306 380 444
#     4   9  21  40  66  96 133 182 230 287 356 435
#     4  11  24  41  70 102 138 181 234 299 363 443
#     4  10  23  42  71 103 142 193 247 304 365 439
#     4   9  21  42  65  94 135 178 228 297 352 427
#
# _framework density 23.061810999999999
#
# number of rings (size 3 to 8) (size 9 to 14) (size 15 to 20)
#    0.000    2.286    0.000    0.857   12.000    4.571 
#    0.000    5.714    0.000    0.000    0.000    0.000 
#    0.000    0.000    0.000    0.000    0.000    0.000 
#
# Total GULP energy -156334.448147 kJ/mol
# GULP energy per Si atom -5583.373148 kJ/mol
# Density = 2.300932 g / cm^3
# Si number density = 23.061811 Si / 1000 Ang^3
#
#
#
# Elastic Constant Matrix: (Units=GPa)
#
#
# Indices 1 2 3 4 5 6 
#
# 1 73.6193 67.4461 36.1944 0.0000 0.0000 0.0000
# 2 67.4461 259.7269 80.7101 0.0000 0.0000 0.0000
# 3 36.1944 80.7101 92.4850 0.0000 0.0000 0.0000
# 4 0.0000 0.0000 0.0000 189.4955 0.0000 0.0000
# 5 0.0000 0.0000 0.0000 0.0000 8.7078 0.0000
# 6 0.0000 0.0000 0.0000 0.0000 0.0000 0.2241
#
#
#
# Elastic Compliance Matrix: (Units=1/GPa)
#
#
# Indices 1 2 3 4 5 6 
#
# 1 0.018989 -0.003597 -0.004292 0.000000 0.000000 0.000000
# 2 -0.003597 0.005964 -0.003797 0.000000 0.000000 0.000000
# 3 -0.004292 -0.003797 0.015806 0.000000 0.000000 0.000000
# 4 0.000000 0.000000 0.000000 0.005277 0.000000 0.000000
# 5 0.000000 0.000000 0.000000 0.000000 0.114839 0.000000
# 6 0.000000 0.000000 0.000000 0.000000 0.000000 4.461570
#
#
# Mechanical properties :
#
#
# Convention : Reuss Voigt Hill
#
# Bulk Modulus (GPa) = 57.51651 88.28137 72.89894
# Shear Modulus (GPa) = 1.07490 55.78421 28.42955
#
# Velocity S-wave (km/s) = 0.68345 4.92357 3.51487
# Velocity P-wave (km/s) = 5.06133 8.40746 6.93911
#
# Compressibility (1/GPa) = 0.01738631
#
# Stress axis : x y z
#
# Youngs Moduli (GPa) = 52.66114 167.66376 63.26708
#
# Poissons Ratio (x) = 0.60315 0.27155
# Poissons Ratio (y) = 0.18944 0.24023
# Poissons Ratio (z) = 0.22603 0.63664
#
# Static dielectric constant tensor:
#      x y z
#    x 1.879440 0.000000 0.000000 
#    y 0.000000 1.855050 0.000000 
#    z 0.000000 0.000000 1.962380 
# 
# From -- ./inp_files/4487.got.cif
#   From: 2010.05.17/outbox.cif.g08.bks.cpg/sg67_3_cif.got.tgz:4487.got - 2010.06.03 18:28:57.
