data_PCOD9504166
_publ_section_title
;
Structure prediction by ZEFSAII (Michael W. Deem and Ramdas Pophale) SiO2 
 PCOD9504166
Probable space group: C M M A
;
_chemical_formula_sum "Si O2"
_cell_formula_units_Z 116
_cell_length_a 26.448390
_cell_length_b 7.526170
_cell_length_c 24.379359
_cell_angle_alpha 90.000000
_cell_angle_beta 90.000000
_cell_angle_gamma 90.000000
_cell_volume 4852.835241
_symmetry_space_group_name_H-M "C M M A"
_symmetry_group_IT_number 67
_symmetry_cell_setting 'orthorhombic'
loop_
_space_group_symop_operation_xyz
x,y,z
-x,1/2-y,z
x,-y,-z
-x,1/2+y,-z
-x,-y,-z
x,1/2+y,-z
-x,y,z
x,1/2-y,z
1/2+x,1/2+y,z
1/2-x,-y,z
1/2+x,1/2-y,-z
1/2-x,y,-z
1/2-x,1/2-y,-z
1/2+x,y,-z
1/2-x,1/2+y,z
1/2+x,-y,z
loop_
_atom_site_type_symbol
_atom_site_label
_atom_site_fract_x
_atom_site_fract_y
_atom_site_fract_z
Si Si1 0.808463 0.537076 0.173618
Si Si2 0.558143 0.963979 0.124535
Si Si3 0.650513 0.446032 0.062029
Si Si4 0.660611 0.457532 0.290596
Si Si5 0.442855 0.964360 0.250303
Si Si6 0.421511 0.544996 0.436918
Si Si7 0.500000 0.250000 0.398248
Si Si8 0.192927 0.038001 0.593516
O O1 0.819679 0.750000 0.174611
O O2 0.750000 0.500000 0.171922
O O3 0.829197 0.458407 0.116633
O O4 0.826257 0.460844 0.231761
O O5 0.500000 0.008811 0.117048
O O6 0.563166 0.750000 0.122015
O O7 0.570861 0.020197 0.187371
O O8 0.591575 0.048850 0.077260
O O9 0.672621 0.250000 0.064655
O O10 0.659415 0.500000 0.000000
O O11 0.674434 0.250000 0.288844
O O12 0.599967 0.473101 0.291737
O O13 0.688133 0.532350 0.343718
O O14 0.500000 0.026940 0.262023
O O15 0.443734 0.750000 0.250302
O O16 0.434658 0.500000 0.500000
O O17 0.433972 0.750000 0.424129
O O18 0.455100 0.593658 0.597162
O O19 0.360021 0.526874 0.432526
O O20 0.188417 0.250000 0.593273
O O21 0.250000 0.000000 0.572301
#
# Coordination Sequence:
#
# PCOD9504166 Si02
#       8
#    16  16  16  16  16  16   4  16
#     4  10  22  39  59  85 109 146 195 247 310 382
#     4   9  18  34  56  81 109 144 183 232 291 356
#     4  11  23  38  56  79 111 143 186 238 298 372
#     4  10  21  39  63  90 127 165 214 272 334 398
#     4   9  18  33  55  84 119 154 198 251 308 384
#     4  12  25  45  77 114 154 206 254 310 378 431
#     4  12  24  48  78 116 164 198 266 310 368 438
#     4  11  24  45  68 101 146 192 248 310 368 438
#
# _framework density 23.903552000000001
#
# number of rings (size 3 to 8) (size 9 to 14) (size 15 to 20)
#    0.000    1.655    2.759    2.483    0.000    4.138 
#    1.241    4.138    0.000    0.000    0.000    0.000 
#    0.000    0.000    0.000    0.000    0.000    0.000 
#
# Total GULP energy -323330.475870 kJ/mol
# GULP energy per Si atom -5574.663377 kJ/mol
# Density = 2.384915 g / cm^3
# Si number density = 23.903552 Si / 1000 Ang^3
#
#
#
# Elastic Constant Matrix: (Units=GPa)
#
#
# Indices 1 2 3 4 5 6 
#
# 1 90.7023 15.3793 30.2548 0.0000 0.0000 0.0000
# 2 15.3793 116.2074 7.0971 0.0000 0.0000 0.0000
# 3 30.2548 7.0971 85.3110 0.0000 0.0000 0.0000
# 4 0.0000 0.0000 0.0000 -15.5630 0.0000 0.0000
# 5 0.0000 0.0000 0.0000 0.0000 7.4933 0.0000
# 6 0.0000 0.0000 0.0000 0.0000 0.0000 26.2099
#
#
#
# Elastic Compliance Matrix: (Units=1/GPa)
#
#
# Indices 1 2 3 4 5 6 
#
# 1 0.012732 -0.001416 -0.004397 0.000000 0.000000 0.000000
# 2 -0.001416 0.008807 -0.000230 0.000000 0.000000 0.000000
# 3 -0.004397 -0.000230 0.013301 0.000000 0.000000 0.000000
# 4 0.000000 0.000000 0.000000 -0.064255 0.000000 0.000000
# 5 0.000000 0.000000 0.000000 0.000000 0.133452 0.000000
# 6 0.000000 0.000000 0.000000 0.000000 0.000000 0.038153
#
#
# Mechanical properties :
#
#
# Convention : Reuss Voigt Hill
#
# Bulk Modulus (GPa) = 43.95428 44.18703 44.07065
# Shear Modulus (GPa) = 30.89045 19.59401 25.24223
#
# Velocity S-wave (km/s) = 3.59875 2.86617 3.25315
# Velocity P-wave (km/s) = 5.97462 5.42945 5.70855
#
# Compressibility (1/GPa) = 0.02275091
#
# Stress axis : x y z
#
# Youngs Moduli (GPa) = 78.54178 113.54830 75.18511
#
# Poissons Ratio (x) = 0.16083 0.33063
# Poissons Ratio (y) = 0.11125 0.01732
# Poissons Ratio (z) = 0.34539 0.02615
#
# Static dielectric constant tensor:
#      x y z
#    x 1.927800 0.000000 0.000000 
#    y 0.000000 1.904880 0.000000 
#    z 0.000000 0.000000 1.966980 
# 
# From -- ./inp_files/42828.got.cif
#   From: 2010.05.17/outbox.cif.g08.bks.cpg/sg67_22_cif.got.tgz:42828.got - 2010.06.03 18:28:57.
