data_PCOD9504304
_publ_section_title
;
Structure prediction by ZEFSAII (Michael W. Deem and Ramdas Pophale) SiO2 
 PCOD9504304
Probable space group: C M M A
;
_chemical_formula_sum "Si O2"
_cell_formula_units_Z 112
_cell_length_a 14.227326
_cell_length_b 25.063460
_cell_length_c 15.175155
_cell_angle_alpha 90.000000
_cell_angle_beta 90.000000
_cell_angle_gamma 90.000000
_cell_volume 5411.248065
_symmetry_space_group_name_H-M "C M M A"
_symmetry_group_IT_number 67
_symmetry_cell_setting 'orthorhombic'
loop_
_space_group_symop_operation_xyz
x,y,z
-x,1/2-y,z
x,-y,-z
-x,1/2+y,-z
-x,-y,-z
x,1/2+y,-z
-x,y,z
x,1/2-y,z
1/2+x,1/2+y,z
1/2-x,-y,z
1/2+x,1/2-y,-z
1/2-x,y,-z
1/2-x,1/2-y,-z
1/2+x,y,-z
1/2-x,1/2+y,z
1/2+x,-y,z
loop_
_atom_site_type_symbol
_atom_site_label
_atom_site_fract_x
_atom_site_fract_y
_atom_site_fract_z
Si Si1 0.894285 0.083208 0.761063
Si Si2 0.846718 0.466923 0.426183
Si Si3 0.684576 0.424064 0.746151
Si Si4 0.886983 0.148136 0.493797
Si Si5 0.887916 0.309598 0.304581
Si Si6 0.111432 0.691317 0.317835
Si Si7 0.391547 0.992941 0.099565
O O1 0.793853 0.067603 0.719287
O O2 0.882211 0.147196 0.758429
O O3 0.000000 0.073561 0.721325
O O4 0.892989 0.050119 0.851105
O O5 0.901682 0.500000 0.500000
O O6 0.750000 0.500000 0.418706
O O7 0.878476 0.455295 0.326378
O O8 0.843024 0.407907 0.466370
O O9 0.660727 0.361308 0.739146
O O10 0.665251 0.451577 0.839570
O O11 0.871347 0.186276 0.410108
O O12 0.852171 0.168939 0.588334
O O13 0.000000 0.140152 0.499999
O O14 0.862407 0.250000 0.273890
O O15 0.000000 0.316081 0.291665
O O16 0.149609 0.750000 0.298849
O O17 0.000000 0.696791 0.332529
O O18 0.500000 0.973960 0.096701
O O19 0.358422 0.000000 0.000000
#
# Coordination Sequence:
#
# PCOD9504304 Si02
#       7
#    16  16  16  16  16  16  16
#     4  10  22  37  57  83 116 155 200 250 297 351
#     4  10  22  33  47  72 117 160 194 243 291 346
#     4  11  22  37  59  85 120 160 199 244 303 360
#     4   9  18  32  52  77 105 150 205 253 299 351
#     4   9  18  35  58  85 117 153 199 253 304 357
#     4   9  18  33  53  77 108 150 199 249 298 349
#     4  10  22  41  66  95 122 150 191 242 301 369
#
# _framework density 20.697628999999999
#
# number of rings (size 3 to 8) (size 9 to 14) (size 15 to 20)
#    0.000    2.286    0.000    2.143    6.000    4.286 
#    0.000    0.714    0.000    3.857    0.000    6.000 
#    0.000    0.000    0.000    0.000    0.000    0.000 
#
# Total GULP energy -311950.923524 kJ/mol
# GULP energy per Si atom -5570.552206 kJ/mol
# Density = 2.065052 g / cm^3
# Si number density = 20.697629 Si / 1000 Ang^3
#
#
#
# Elastic Constant Matrix: (Units=GPa)
#
#
# Indices 1 2 3 4 5 6 
#
# 1 130.1059 28.9040 20.9656 0.0000 0.0000 0.0000
# 2 28.9040 170.8809 72.0602 0.0000 0.0000 0.0000
# 3 20.9656 72.0602 89.6635 0.0000 0.0000 0.0000
# 4 0.0000 0.0000 0.0000 14.7887 0.0000 0.0000
# 5 0.0000 0.0000 0.0000 0.0000 27.9312 0.0000
# 6 0.0000 0.0000 0.0000 0.0000 0.0000 23.3431
#
#
#
# Elastic Compliance Matrix: (Units=1/GPa)
#
#
# Indices 1 2 3 4 5 6 
#
# 1 0.008070 -0.000861 -0.001195 0.000000 0.000000 0.000000
# 2 -0.000861 0.008944 -0.006987 0.000000 0.000000 0.000000
# 3 -0.001195 -0.006987 0.017047 0.000000 0.000000 0.000000
# 4 0.000000 0.000000 0.000000 0.067619 0.000000 0.000000
# 5 0.000000 0.000000 0.000000 0.000000 0.035802 0.000000
# 6 0.000000 0.000000 0.000000 0.000000 0.000000 0.042839
#
#
# Mechanical properties :
#
#
# Convention : Reuss Voigt Hill
#
# Bulk Modulus (GPa) = 62.59504 70.50109 66.54806
# Shear Modulus (GPa) = 24.54198 31.12728 27.83463
#
# Velocity S-wave (km/s) = 3.44719 3.88223 3.67116
# Velocity P-wave (km/s) = 6.79356 7.36423 7.08465
#
# Compressibility (1/GPa) = 0.01597571
#
# Stress axis : x y z
#
# Youngs Moduli (GPa) = 123.91731 111.80738 58.66063
#
# Poissons Ratio (x) = 0.09628 0.07009
# Poissons Ratio (y) = 0.10671 0.40984
# Poissons Ratio (z) = 0.14807 0.78116
#
# Static dielectric constant tensor:
#      x y z
#    x 1.868400 0.000000 0.000000 
#    y 0.000000 1.759530 0.000000 
#    z 0.000000 0.000000 1.720880 
# 
# From -- ./inp_files/27581.got.cif
#   From: 2010.05.17/outbox.cif.g08.bks.cpg/sg67_14_cif.got.tgz:27581.got - 2010.06.03 18:28:57.
