data_PCOD9504163
_publ_section_title
;
Structure prediction by ZEFSAII (Michael W. Deem and Ramdas Pophale) SiO2 
 PCOD9504163
Probable space group: C M M A
;
_chemical_formula_sum "Si O2"
_cell_formula_units_Z 72
_cell_length_a 15.544983
_cell_length_b 8.650091
_cell_length_c 28.625211
_cell_angle_alpha 90.000000
_cell_angle_beta 90.000000
_cell_angle_gamma 90.000000
_cell_volume 3849.103812
_symmetry_space_group_name_H-M "C M M A"
_symmetry_group_IT_number 67
_symmetry_cell_setting 'orthorhombic'
loop_
_space_group_symop_operation_xyz
x,y,z
-x,1/2-y,z
x,-y,-z
-x,1/2+y,-z
-x,-y,-z
x,1/2+y,-z
-x,y,z
x,1/2-y,z
1/2+x,1/2+y,z
1/2-x,-y,z
1/2+x,1/2-y,-z
1/2-x,y,-z
1/2-x,1/2-y,-z
1/2+x,y,-z
1/2-x,1/2+y,z
1/2+x,-y,z
loop_
_atom_site_type_symbol
_atom_site_label
_atom_site_fract_x
_atom_site_fract_y
_atom_site_fract_z
Si Si1 0.344488 0.934782 0.887292
Si Si2 0.000000 0.434861 0.612771
Si Si3 0.655161 0.064669 0.222093
Si Si4 0.155609 0.935641 0.551905
Si Si5 0.500000 0.566018 0.052153
Si Si6 0.500000 0.934168 0.283125
O O1 0.344632 0.750000 0.892452
O O2 0.362587 0.970226 0.832636
O O3 0.250000 0.000000 0.898155
O O4 0.416608 0.007157 0.919940
O O5 0.083553 0.503721 0.587023
O O6 0.000000 0.485919 0.666464
O O7 0.000000 0.250000 0.608724
O O8 0.653751 0.250000 0.227752
O O9 0.750000 0.000000 0.232811
O O10 0.583406 0.988133 0.254229
O O11 0.157125 0.750000 0.550727
O O12 0.136211 0.000000 0.500000
O O13 0.250000 0.000000 0.564577
O O14 0.500000 0.750000 0.050523
O O15 0.500000 0.500000 0.000000
O O16 0.500000 0.750000 0.288603
#
# Coordination Sequence:
#
# PCOD9504163 Si02
#       6
#    16   8  16  16   8   8
#     4  10  21  39  63  90 119 152 195 242 291 345
#     4  12  25  42  61  86 120 159 199 244 297 352
#     4  10  21  39  63  90 119 154 195 242 291 345
#     4  11  22  40  64  92 121 155 198 244 293 347
#     4  12  25  40  59  85 119 157 197 240 293 350
#     4  12  25  40  59  87 121 158 198 242 293 352
#
# _framework density 18.705655
#
# number of rings (size 3 to 8) (size 9 to 14) (size 15 to 20)
#    0.000    1.111    0.000    8.000    0.000    6.667 
#    0.000    6.667    0.000    0.000    0.000    0.000 
#    0.000    0.000    0.000    0.000    0.000    0.000 
#
# Total GULP energy -201445.401344 kJ/mol
# GULP energy per Si atom -5595.705593 kJ/mol
# Density = 1.866308 g / cm^3
# Si number density = 18.705655 Si / 1000 Ang^3
#
#
#
# Elastic Constant Matrix: (Units=GPa)
#
#
# Indices 1 2 3 4 5 6 
#
# 1 161.6861 86.5280 126.0848 0.0000 0.0000 0.0000
# 2 86.5280 169.3925 82.1847 0.0000 0.0000 0.0000
# 3 126.0848 82.1847 129.5040 0.0000 0.0000 0.0000
# 4 0.0000 0.0000 0.0000 32.9593 0.0000 0.0000
# 5 0.0000 0.0000 0.0000 0.0000 -40.6367 0.0000
# 6 0.0000 0.0000 0.0000 0.0000 0.0000 41.6819
#
#
#
# Elastic Compliance Matrix: (Units=1/GPa)
#
#
# Indices 1 2 3 4 5 6 
#
# 1 0.025928 -0.001440 -0.024329 0.000000 0.000000 0.000000
# 2 -0.001440 0.008610 -0.004061 0.000000 0.000000 0.000000
# 3 -0.024329 -0.004061 0.033986 0.000000 0.000000 0.000000
# 4 0.000000 0.000000 0.000000 0.030340 0.000000 0.000000
# 5 0.000000 0.000000 0.000000 0.000000 -0.024608 0.000000
# 6 0.000000 0.000000 0.000000 0.000000 0.000000 0.023991
#
#
# Mechanical properties :
#
#
# Convention : Reuss Voigt Hill
#
# Bulk Modulus (GPa) = 112.84736 116.68641 114.76689
# Shear Modulus (GPa) = 31.08225 17.85323 24.46774
#
# Velocity S-wave (km/s) = 4.08076 3.09274 3.62061
# Velocity P-wave (km/s) = 9.09188 8.67577 8.88626
#
# Compressibility (1/GPa) = 0.00886153
#
# Stress axis : x y z
#
# Youngs Moduli (GPa) = 38.56837 116.14745 29.42372
#
# Poissons Ratio (x) = 0.16730 0.71586
# Poissons Ratio (y) = 0.05556 0.11950
# Poissons Ratio (z) = 0.93834 0.47173
#
# Static dielectric constant tensor:
#      x y z
#    x 1.615000 0.000000 0.000000 
#    y 0.000000 1.621530 0.000000 
#    z 0.000000 0.000000 1.618400 
# 
# From -- ./inp_files/44278.got.cif
#   From: 2010.05.17/outbox.cif.g08.bks.cpg/sg67_23_cif.got.tgz:44278.got - 2010.06.03 18:28:57.
