data_PCOD9504361
_publ_section_title
;
Structure prediction by ZEFSAII (Michael W. Deem and Ramdas Pophale) SiO2 
 PCOD9504361
Probable space group: C M M A
;
_chemical_formula_sum "Si O2"
_cell_formula_units_Z 88
_cell_length_a 9.497989
_cell_length_b 14.817996
_cell_length_c 31.412003
_cell_angle_alpha 90.000000
_cell_angle_beta 90.000000
_cell_angle_gamma 90.000000
_cell_volume 4420.961835
_symmetry_space_group_name_H-M "C M M A"
_symmetry_group_IT_number 67
_symmetry_cell_setting 'orthorhombic'
loop_
_space_group_symop_operation_xyz
x,y,z
-x,1/2-y,z
x,-y,-z
-x,1/2+y,-z
-x,-y,-z
x,1/2+y,-z
-x,y,z
x,1/2-y,z
1/2+x,1/2+y,z
1/2-x,-y,z
1/2+x,1/2-y,-z
1/2-x,y,-z
1/2-x,1/2-y,-z
1/2+x,y,-z
1/2-x,1/2+y,z
1/2+x,-y,z
loop_
_atom_site_type_symbol
_atom_site_label
_atom_site_fract_x
_atom_site_fract_y
_atom_site_fract_z
Si Si1 0.338562 0.360316 0.958691
Si Si2 0.169319 0.750000 0.544329
Si Si3 0.660114 0.860609 0.876355
Si Si4 0.168552 0.405683 0.389644
Si Si5 0.668176 0.593425 0.295990
Si Si6 0.657987 0.355807 0.798258
O O1 0.500000 0.391476 0.959872
O O2 0.341934 0.250000 0.958950
O O3 0.257926 0.387350 0.915834
O O4 0.250000 0.388152 0.000000
O O5 0.250000 0.750000 0.500000
O O6 0.205622 0.663117 0.573047
O O7 0.000000 0.750000 0.537844
O O8 0.500000 0.892244 0.880981
O O9 0.655191 0.750000 0.876511
O O10 0.730679 0.891493 0.832201
O O11 0.250000 0.500000 0.393573
O O12 0.198946 0.364861 0.342423
O O13 0.000000 0.421423 0.391547
O O14 0.500000 0.580280 0.295107
O O15 0.750000 0.500000 0.295983
O O16 0.703543 0.638497 0.251014
O O17 0.500000 0.395432 0.802728
O O18 0.645288 0.250000 0.808133
#
# Coordination Sequence:
#
# PCOD9504361 Si02
#       6
#    16   8  16  16  16  16
#     4   9  15  22  33  49  72 106 148 191 236 289
#     4  10  22  38  58  84 114 148 188 230 275 328
#     4   9  16  25  36  53  81 114 148 189 237 289
#     4   9  19  36  57  81 110 145 183 227 276 326
#     4   9  18  32  51  73  98 128 164 204 248 298
#     4   9  17  28  44  66  90 120 156 194 237 289
#
# _framework density 19.905170999999999
#
# number of rings (size 3 to 8) (size 9 to 14) (size 15 to 20)
#    0.000    2.909    0.000    1.091    1.273    6.182 
#    0.000    1.818    0.000    0.000    0.000    0.000 
#    0.000    0.727    0.000    7.636    0.000   11.455 
#
# Total GULP energy -245337.617527 kJ/mol
# GULP energy per Si atom -5575.854944 kJ/mol
# Density = 1.985987 g / cm^3
# Si number density = 19.905171 Si / 1000 Ang^3
#
#
#
# Elastic Constant Matrix: (Units=GPa)
#
#
# Indices 1 2 3 4 5 6 
#
# 1 108.2011 27.8867 107.4261 0.0000 0.0000 0.0000
# 2 27.8867 46.8143 33.1020 0.0000 0.0000 0.0000
# 3 107.4261 33.1020 199.7233 0.0000 0.0000 0.0000
# 4 0.0000 0.0000 0.0000 918.3358 0.0000 0.0000
# 5 0.0000 0.0000 0.0000 0.0000 35.2872 0.0000
# 6 0.0000 0.0000 0.0000 0.0000 0.0000 11.9808
#
#
#
# Elastic Compliance Matrix: (Units=1/GPa)
#
#
# Indices 1 2 3 4 5 6 
#
# 1 0.020851 -0.005087 -0.010372 0.000000 0.000000 0.000000
# 2 -0.005087 0.025438 -0.001480 0.000000 0.000000 0.000000
# 3 -0.010372 -0.001480 0.010831 0.000000 0.000000 0.000000
# 4 0.000000 0.000000 0.000000 0.001089 0.000000 0.000000
# 5 0.000000 0.000000 0.000000 0.000000 0.028339 0.000000
# 6 0.000000 0.000000 0.000000 0.000000 0.000000 0.083467
#
#
# Mechanical properties :
#
#
# Convention : Reuss Voigt Hill
#
# Bulk Modulus (GPa) = 43.02546 76.84091 59.93319
# Shear Modulus (GPa) = 23.62515 205.54235 114.58375
#
# Velocity S-wave (km/s) = 3.44886 10.17276 7.59538
# Velocity P-wave (km/s) = 6.12549 13.29162 10.34864
#
# Compressibility (1/GPa) = 0.02324205
#
# Stress axis : x y z
#
# Youngs Moduli (GPa) = 47.95973 39.31192 92.32659
#
# Poissons Ratio (x) = 0.19996 0.95762
# Poissons Ratio (y) = 0.24395 0.13665
# Poissons Ratio (z) = 0.49744 0.05818
#
# Static dielectric constant tensor:
#      x y z
#    x 1.675510 0.000000 0.000000 
#    y 0.000000 1.731810 0.000000 
#    z 0.000000 0.000000 1.708990 
# 
# From -- ./inp_files/45208.got.cif
#   From: 2010.05.17/outbox.cif.g08.bks.cpg/sg67_23_cif.got.tgz:45208.got - 2010.06.03 18:28:57.
