data_PCOD9504398
_publ_section_title
;
Structure prediction by ZEFSAII (Michael W. Deem and Ramdas Pophale) SiO2 
 PCOD9504398
Probable space group: C M M A
;
_chemical_formula_sum "Si O2"
_cell_formula_units_Z 112
_cell_length_a 10.939594
_cell_length_b 37.381818
_cell_length_c 13.398902
_cell_angle_alpha 90.000000
_cell_angle_beta 90.000000
_cell_angle_gamma 90.000000
_cell_volume 5479.372601
_symmetry_space_group_name_H-M "C M M A"
_symmetry_group_IT_number 67
_symmetry_cell_setting 'orthorhombic'
loop_
_space_group_symop_operation_xyz
x,y,z
-x,1/2-y,z
x,-y,-z
-x,1/2+y,-z
-x,-y,-z
x,1/2+y,-z
-x,y,z
x,1/2-y,z
1/2+x,1/2+y,z
1/2-x,-y,z
1/2+x,1/2-y,-z
1/2-x,y,-z
1/2-x,1/2-y,-z
1/2+x,y,-z
1/2-x,1/2+y,z
1/2+x,-y,z
loop_
_atom_site_type_symbol
_atom_site_label
_atom_site_fract_x
_atom_site_fract_y
_atom_site_fract_z
Si Si1 0.138551 0.148290 0.423887
Si Si2 0.368793 0.397224 0.874441
Si Si3 0.365365 0.288542 0.112191
Si Si4 0.363977 0.709830 0.259281
Si Si5 0.361584 0.935144 0.424688
Si Si6 0.136951 0.474680 0.215293
Si Si7 0.870764 0.866801 0.092479
O O1 0.250000 0.153973 0.500000
O O2 0.147987 0.177915 0.337903
O O3 0.147630 0.106564 0.391130
O O4 0.000000 0.151984 0.467015
O O5 0.500000 0.384651 0.832519
O O6 0.356761 0.438676 0.849937
O O7 0.247038 0.376445 0.843192
O O8 0.373453 0.390577 0.993232
O O9 0.500000 0.288834 0.163930
O O10 0.361335 0.250000 0.058753
O O11 0.249336 0.290806 0.183888
O O12 0.365050 0.325859 0.054489
O O13 0.500000 0.706586 0.211542
O O14 0.360588 0.750000 0.305686
O O15 0.500000 0.939640 0.467282
O O16 0.250000 0.941989 0.500000
O O17 0.352345 0.960578 0.328958
O O18 0.250000 0.500000 0.191803
O O19 0.000000 0.490427 0.202356
O O20 0.000000 0.871635 0.146615
#
# Coordination Sequence:
#
# PCOD9504398 Si02
#       7
#    16  16  16  16  16  16  16
#     4   9  18  32  50  73 105 142 181 226 272 322
#     4   9  19  36  57  81 109 140 177 221 268 320
#     4   9  18  32  50  75 109 146 184 230 279 324
#     4   9  18  31  48  74 107 144 187 233 278 324
#     4   9  19  36  56  81 111 145 181 219 266 317
#     4  10  22  39  60  85 112 144 179 217 268 326
#     4   9  18  34  55  80 108 144 187 227 271 321
#
# _framework density 20.440297000000001
#
# number of rings (size 3 to 8) (size 9 to 14) (size 15 to 20)
#    0.000    2.857    0.000    0.000    2.000    2.857 
#    0.000    4.286    0.000    8.571    0.000    0.000 
#    0.000    0.000    0.000    0.000    0.000    0.000 
#
# Total GULP energy -311861.194708 kJ/mol
# GULP energy per Si atom -5568.949906 kJ/mol
# Density = 2.039377 g / cm^3
# Si number density = 20.440297 Si / 1000 Ang^3
#
#
#
# Elastic Constant Matrix: (Units=GPa)
#
#
# Indices 1 2 3 4 5 6 
#
# 1 216.8887 59.9864 31.6925 0.0000 0.0000 0.0000
# 2 59.9864 72.9714 14.5573 0.0000 0.0000 0.0000
# 3 31.6925 14.5573 25.0064 0.0000 0.0000 0.0000
# 4 0.0000 0.0000 0.0000 19.4924 0.0000 0.0000
# 5 0.0000 0.0000 0.0000 0.0000 19.0878 0.0000
# 6 0.0000 0.0000 0.0000 0.0000 0.0000 34.4121
#
#
#
# Elastic Compliance Matrix: (Units=1/GPa)
#
#
# Indices 1 2 3 4 5 6 
#
# 1 0.006668 -0.004294 -0.005951 0.000000 0.000000 0.000000
# 2 -0.004294 0.018270 -0.005193 0.000000 0.000000 0.000000
# 3 -0.005951 -0.005193 0.050555 0.000000 0.000000 0.000000
# 4 0.000000 0.000000 0.000000 0.051302 0.000000 0.000000
# 5 0.000000 0.000000 0.000000 0.000000 0.052389 0.000000
# 6 0.000000 0.000000 0.000000 0.000000 0.000000 0.029060
#
#
# Mechanical properties :
#
#
# Convention : Reuss Voigt Hill
#
# Bulk Modulus (GPa) = 22.41344 58.59321 40.50332
# Shear Modulus (GPa) = 19.68555 28.50714 24.09634
#
# Velocity S-wave (km/s) = 3.10671 3.73856 3.43718
# Velocity P-wave (km/s) = 4.88447 6.88212 5.96748
#
# Compressibility (1/GPa) = 0.04461608
#
# Stress axis : x y z
#
# Youngs Moduli (GPa) = 149.97218 54.73417 19.78039
#
# Poissons Ratio (x) = 0.23504 0.11771
# Poissons Ratio (y) = 0.64401 0.10273
# Poissons Ratio (z) = 0.89247 0.28426
#
# Static dielectric constant tensor:
#      x y z
#    x 1.779450 0.000000 0.000000 
#    y 0.000000 1.737420 0.000000 
#    z 0.000000 0.000000 1.702940 
# 
# From -- ./inp_files/26443.got.cif
#   From: 2010.05.17/outbox.cif.g08.bks.cpg/sg67_14_cif.got.tgz:26443.got - 2010.06.03 18:28:57.
