data_PCOD9504789
_publ_section_title
;
Structure prediction by ZEFSAII (Michael W. Deem and Ramdas Pophale) SiO2 
 PCOD9504789
Probable space group: C M M A
;
_chemical_formula_sum "Si O2"
_cell_formula_units_Z 116
_cell_length_a 29.338055
_cell_length_b 8.538938
_cell_length_c 29.021713
_cell_angle_alpha 90.000000
_cell_angle_beta 90.000000
_cell_angle_gamma 90.000000
_cell_volume 7270.398598
_symmetry_space_group_name_H-M "C M M A"
_symmetry_group_IT_number 67
_symmetry_cell_setting 'orthorhombic'
loop_
_space_group_symop_operation_xyz
x,y,z
-x,1/2-y,z
x,-y,-z
-x,1/2+y,-z
-x,-y,-z
x,1/2+y,-z
-x,y,z
x,1/2-y,z
1/2+x,1/2+y,z
1/2-x,-y,z
1/2+x,1/2-y,-z
1/2-x,y,-z
1/2-x,1/2-y,-z
1/2+x,y,-z
1/2-x,1/2+y,z
1/2+x,-y,z
loop_
_atom_site_type_symbol
_atom_site_label
_atom_site_fract_x
_atom_site_fract_y
_atom_site_fract_z
Si Si1 0.446208 0.062033 0.143584
Si Si2 0.445693 0.938241 0.754666
Si Si3 0.053164 0.936525 0.952182
Si Si4 0.103708 0.065662 0.334409
Si Si5 0.000000 0.500000 0.500000
Si Si6 0.702085 0.565529 0.646949
Si Si7 0.415474 0.434536 0.431503
Si Si8 0.318284 0.933388 0.451233
O O1 0.500000 0.019543 0.144379
O O2 0.443469 0.250000 0.141010
O O3 0.428813 0.013766 0.194106
O O4 0.426431 0.992692 0.096432
O O5 0.500000 0.969118 0.751856
O O6 0.439952 0.750000 0.750806
O O7 0.420017 0.020987 0.713213
O O8 0.053195 0.750000 0.953468
O O9 0.000000 0.992349 0.951730
O O10 0.073453 0.000000 0.000000
O O11 0.100013 0.250000 0.343666
O O12 0.156910 0.017363 0.333656
O O13 0.080943 0.973229 0.377229
O O14 0.039968 0.526059 0.460633
O O15 0.698834 0.750000 0.654383
O O16 0.750000 0.500000 0.664971
O O17 0.700373 0.528442 0.592271
O O18 0.404723 0.250000 0.437397
O O19 0.372849 0.538170 0.448413
O O20 0.308075 0.250000 0.553611
O O21 0.302656 0.000000 0.500000
#
# Coordination Sequence:
#
# PCOD9504789 Si02
#       8
#    16  16  16  16   4  16  16  16
#     4   8  14  25  40  57  79 111 152 197 239 281
#     4   9  18  33  51  69  93 127 165 201 242 284
#     4   9  15  21  31  49  75 108 147 193 240 283
#     4  11  23  38  55  77 102 125 156 194 233 280
#     4  12  26  36  56  74  96 120 166 192 236 280
#     4  11  22  39  60  80 100 121 148 182 227 277
#     4  11  23  38  54  72  95 123 153 189 229 273
#     4  11  21  36  55  76 100 123 147 176 215 262
#
# _framework density 15.955109
#
# number of rings (size 3 to 8) (size 9 to 14) (size 15 to 20)
#    0.000    1.931    0.690    7.241    0.966    4.414 
#    0.000    2.759    0.000    0.000    0.000    0.000 
#    0.000    0.000    0.000    0.000    0.000    0.690 
#
# Total GULP energy -323025.091880 kJ/mol
# GULP energy per Si atom -5569.398136 kJ/mol
# Density = 1.591879 g / cm^3
# Si number density = 15.955109 Si / 1000 Ang^3
#
#
#
# Elastic Constant Matrix: (Units=GPa)
#
#
# Indices 1 2 3 4 5 6 
#
# 1 53.2630 7.6886 19.6089 0.0000 0.0000 0.0000
# 2 7.6886 42.1615 18.2428 0.0000 0.0000 0.0000
# 3 19.6089 18.2428 113.7661 0.0000 0.0000 0.0000
# 4 0.0000 0.0000 0.0000 24.4722 0.0000 0.0000
# 5 0.0000 0.0000 0.0000 0.0000 -10.4404 0.0000
# 6 0.0000 0.0000 0.0000 0.0000 0.0000 -3.7603
#
#
#
# Elastic Compliance Matrix: (Units=1/GPa)
#
#
# Indices 1 2 3 4 5 6 
#
# 1 0.020261 -0.002347 -0.003116 0.000000 0.000000 0.000000
# 2 -0.002347 0.025758 -0.003726 0.000000 0.000000 0.000000
# 3 -0.003116 -0.003726 0.009925 0.000000 0.000000 0.000000
# 4 0.000000 0.000000 0.000000 0.040863 0.000000 0.000000
# 5 0.000000 0.000000 0.000000 0.000000 -0.095781 0.000000
# 6 0.000000 0.000000 0.000000 0.000000 0.000000 -0.265934
#
#
# Mechanical properties :
#
#
# Convention : Reuss Voigt Hill
#
# Bulk Modulus (GPa) = 26.61931 33.36346 29.99139
# Shear Modulus (GPa) = -21.36660 12.96430 -4.20115
#
# Velocity S-wave (km/s) = -3.66344 2.85362 -1.62444
# Velocity P-wave (km/s) = 1.08363 5.64037 3.91404
#
# Compressibility (1/GPa) = 0.03756672
#
# Stress axis : x y z
#
# Youngs Moduli (GPa) = 49.35684 38.82222 100.76068
#
# Poissons Ratio (x) = 0.09110 0.31396
# Poissons Ratio (y) = 0.11582 0.37543
# Poissons Ratio (z) = 0.15379 0.14465
#
# Static dielectric constant tensor:
#      x y z
#    x 1.539040 0.000000 0.000000 
#    y 0.000000 1.547020 0.000000 
#    z 0.000000 0.000000 1.566080 
# 
# From -- ./inp_files/45083.got.cif
#   From: 2010.05.17/outbox.cif.g08.bks.cpg/sg67_23_cif.got.tgz:45083.got - 2010.06.03 18:28:57.
