data_PCOD9504562
_publ_section_title
;
Structure prediction by ZEFSAII (Michael W. Deem and Ramdas Pophale) SiO2 
 PCOD9504562
Probable space group: C M M A
;
_chemical_formula_sum "Si O2"
_cell_formula_units_Z 80
_cell_length_a 21.411787
_cell_length_b 14.712298
_cell_length_c 12.493563
_cell_angle_alpha 90.000000
_cell_angle_beta 90.000000
_cell_angle_gamma 90.000000
_cell_volume 3935.679626
_symmetry_space_group_name_H-M "C M M A"
_symmetry_group_IT_number 67
_symmetry_cell_setting 'orthorhombic'
loop_
_space_group_symop_operation_xyz
x,y,z
-x,1/2-y,z
x,-y,-z
-x,1/2+y,-z
-x,-y,-z
x,1/2+y,-z
-x,y,z
x,1/2-y,z
1/2+x,1/2+y,z
1/2-x,-y,z
1/2+x,1/2-y,-z
1/2-x,y,-z
1/2-x,1/2-y,-z
1/2+x,y,-z
1/2-x,1/2+y,z
1/2+x,-y,z
loop_
_atom_site_type_symbol
_atom_site_label
_atom_site_fract_x
_atom_site_fract_y
_atom_site_fract_z
Si Si1 0.345917 0.352019 0.918389
Si Si2 0.067574 0.588261 0.423834
Si Si3 0.361750 0.512128 0.258639
Si Si4 0.815786 0.353933 0.445681
Si Si5 0.701073 0.351652 0.152861
O O1 0.370333 0.250000 0.899049
O O2 0.377426 0.427973 0.845429
O O3 0.273280 0.353190 0.881265
O O4 0.340377 0.366733 0.045610
O O5 0.064582 0.500000 0.500000
O O6 0.081743 0.545552 0.308360
O O7 0.127886 0.641088 0.467950
O O8 0.000000 0.634719 0.428716
O O9 0.334979 0.579612 0.349394
O O10 0.312084 0.434613 0.229708
O O11 0.809753 0.250000 0.406489
O O12 0.750000 0.379774 0.500000
O O13 0.687535 0.250000 0.194834
#
# Coordination Sequence:
#
# PCOD9504562 Si02
#       5
#    16  16  16  16  16
#     4   9  18  32  50  80 117 150 188 233 288 351
#     4   9  21  39  56  77 110 152 198 238 280 344
#     4  11  20  32  58  80 109 147 192 230 295 345
#     4  10  23  38  54  84 119 148 187 243 297 348
#     4   9  19  32  49  80 118 150 187 235 286 351
#
# _framework density 20.326858000000001
#
# number of rings (size 3 to 8) (size 9 to 14) (size 15 to 20)
#    0.000    2.400    0.000    3.000    5.600    5.600 
#    0.000    0.000    0.000    4.800    0.000    2.800 
#    0.000    0.000    0.000    0.000    0.000    0.000 
#
# Total GULP energy -223205.730559 kJ/mol
# GULP energy per Si atom -5580.143264 kJ/mol
# Density = 2.028059 g / cm^3
# Si number density = 20.326858 Si / 1000 Ang^3
#
#
#
# Elastic Constant Matrix: (Units=GPa)
#
#
# Indices 1 2 3 4 5 6 
#
# 1 81.3518 15.1547 15.6923 0.0000 0.0000 0.0000
# 2 15.1547 102.9263 41.9179 0.0000 0.0000 0.0000
# 3 15.6923 41.9179 52.4253 0.0000 0.0000 0.0000
# 4 0.0000 0.0000 0.0000 34.4389 0.0000 0.0000
# 5 0.0000 0.0000 0.0000 0.0000 9.2713 0.0000
# 6 0.0000 0.0000 0.0000 0.0000 0.0000 -10.1698
#
#
#
# Elastic Compliance Matrix: (Units=1/GPa)
#
#
# Indices 1 2 3 4 5 6 
#
# 1 0.013062 -0.000491 -0.003518 0.000000 0.000000 0.000000
# 2 -0.000491 0.014426 -0.011387 0.000000 0.000000 0.000000
# 3 -0.003518 -0.011387 0.029233 0.000000 0.000000 0.000000
# 4 0.000000 0.000000 0.000000 0.029037 0.000000 0.000000
# 5 0.000000 0.000000 0.000000 0.000000 0.107860 0.000000
# 6 0.000000 0.000000 0.000000 0.000000 0.000000 -0.098331
#
#
# Mechanical properties :
#
#
# Convention : Reuss Voigt Hill
#
# Bulk Modulus (GPa) = 38.56653 42.47036 40.51844
# Shear Modulus (GPa) = 37.11370 17.63733 27.37552
#
# Velocity S-wave (km/s) = 4.27763 2.94885 3.67381
# Velocity P-wave (km/s) = 6.58877 5.70380 6.16219
#
# Compressibility (1/GPa) = 0.02592922
#
# Stress axis : x y z
#
# Youngs Moduli (GPa) = 76.55672 69.32113 34.20815
#
# Poissons Ratio (x) = 0.03402 0.12033
# Poissons Ratio (y) = 0.03757 0.38954
# Poissons Ratio (z) = 0.26929 0.78939
#
# Static dielectric constant tensor:
#      x y z
#    x 1.735550 0.000000 0.000000 
#    y 0.000000 1.730800 0.000000 
#    z 0.000000 0.000000 1.775980 
# 
# From -- ./inp_files/21651.got.cif
#   From: 2010.05.17/outbox.cif.g08.bks.cpg/sg67_11_cif.got.tgz:21651.got - 2010.06.03 18:28:57.
