data_PCOD9504424
_publ_section_title
;
Structure prediction by ZEFSAII (Michael W. Deem and Ramdas Pophale) SiO2 
 PCOD9504424
Probable space group: C M M A
;
_chemical_formula_sum "Si O2"
_cell_formula_units_Z 52
_cell_length_a 21.160185
_cell_length_b 24.398211
_cell_length_c 5.259301
_cell_angle_alpha 90.000000
_cell_angle_beta 90.000000
_cell_angle_gamma 90.000000
_cell_volume 2715.222790
_symmetry_space_group_name_H-M "C M M A"
_symmetry_group_IT_number 67
_symmetry_cell_setting 'orthorhombic'
loop_
_space_group_symop_operation_xyz
x,y,z
-x,1/2-y,z
x,-y,-z
-x,1/2+y,-z
-x,-y,-z
x,1/2+y,-z
-x,y,z
x,1/2-y,z
1/2+x,1/2+y,z
1/2-x,-y,z
1/2+x,1/2-y,-z
1/2-x,y,-z
1/2-x,1/2-y,-z
1/2+x,y,-z
1/2-x,1/2+y,z
1/2+x,-y,z
loop_
_atom_site_type_symbol
_atom_site_label
_atom_site_fract_x
_atom_site_fract_y
_atom_site_fract_z
Si Si1 0.308500 0.405072 0.681873
Si Si2 0.071036 0.137710 0.539360
Si Si3 0.750000 0.000000 0.000000
Si Si4 0.623451 0.687399 0.053665
O O1 0.250000 0.391743 0.500000
O O2 0.373551 0.406122 0.520271
O O3 0.292399 0.539340 0.174005
O O4 0.321309 0.355969 0.881269
O O5 0.078439 0.178699 0.299150
O O6 0.000000 0.116055 0.551189
O O7 0.088891 0.168515 0.798113
O O8 0.644279 0.750000 0.034857
#
# Coordination Sequence:
#
# PCOD9504424 Si02
#       4
#    16  16   4  16
#     4  10  24  42  68  97 129 179 225 280 334 396
#     4  10  22  40  64 100 137 175 218 264 326 394
#     4  12  22  48  72  90 124 178 240 282 348 386
#     4  10  22  39  65 100 136 175 215 261 326 398
#
# _framework density 19.151284
#
# number of rings (size 3 to 8) (size 9 to 14) (size 15 to 20)
#    1.846    0.000    0.000    4.154    0.000    4.308 
#    0.000    3.077    0.000    5.538    0.000    0.000 
#    0.000    0.000    0.000    0.000    0.000    0.000 
#
# Total GULP energy -144828.240195 kJ/mol
# GULP energy per Si atom -5570.316931 kJ/mol
# Density = 1.910769 g / cm^3
# Si number density = 19.151284 Si / 1000 Ang^3
#
#
#
# Elastic Constant Matrix: (Units=GPa)
#
#
# Indices 1 2 3 4 5 6 
#
# 1 150.0261 82.5830 57.3100 0.0000 0.0000 0.0000
# 2 82.5830 98.0859 46.0482 0.0000 0.0000 0.0000
# 3 57.3100 46.0482 151.4113 0.0000 0.0000 0.0000
# 4 0.0000 0.0000 0.0000 11.1456 0.0000 0.0000
# 5 0.0000 0.0000 0.0000 0.0000 0.7198 0.0000
# 6 0.0000 0.0000 0.0000 0.0000 0.0000 15.3591
#
#
#
# Elastic Compliance Matrix: (Units=1/GPa)
#
#
# Indices 1 2 3 4 5 6 
#
# 1 0.012846 -0.009954 -0.001835 0.000000 0.000000 0.000000
# 2 -0.009954 0.019606 -0.002195 0.000000 0.000000 0.000000
# 3 -0.001835 -0.002195 0.007967 0.000000 0.000000 0.000000
# 4 0.000000 0.000000 0.000000 0.089721 0.000000 0.000000
# 5 0.000000 0.000000 0.000000 0.000000 1.389307 0.000000
# 6 0.000000 0.000000 0.000000 0.000000 0.000000 0.065108
#
#
# Mechanical properties :
#
#
# Convention : Reuss Voigt Hill
#
# Bulk Modulus (GPa) = 80.31707 85.71173 83.01440
# Shear Modulus (GPa) = 3.09277 19.68372 11.38825
#
# Velocity S-wave (km/s) = 1.27217 3.20941 2.44118
# Velocity P-wave (km/s) = 6.64734 7.65415 7.16844
#
# Compressibility (1/GPa) = 0.01245065
#
# Stress axis : x y z
#
# Youngs Moduli (GPa) = 77.84754 51.00389 125.52297
#
# Poissons Ratio (x) = 0.50769 0.23032
# Poissons Ratio (y) = 0.77489 0.27555
# Poissons Ratio (z) = 0.14284 0.11196
#
# Static dielectric constant tensor:
#      x y z
#    x 1.675900 0.000000 0.000000 
#    y 0.000000 1.632790 0.000000 
#    z 0.000000 0.000000 1.691640 
# 
# From -- ./inp_files/1956.got.cif
#   From: 2010.05.17/outbox.cif.g08.bks.cpg/sg67_1_cif.got.tgz:1956.got - 2010.06.03 18:28:57.
