data_PCOD9504352
_publ_section_title
;
Structure prediction by ZEFSAII (Michael W. Deem and Ramdas Pophale) SiO2 
 PCOD9504352
Probable space group: C M M A
;
_chemical_formula_sum "Si O2"
_cell_formula_units_Z 72
_cell_length_a 7.433242
_cell_length_b 15.180248
_cell_length_c 27.310770
_cell_angle_alpha 90.000000
_cell_angle_beta 90.000000
_cell_angle_gamma 90.000000
_cell_volume 3081.705146
_symmetry_space_group_name_H-M "C M M A"
_symmetry_group_IT_number 67
_symmetry_cell_setting 'orthorhombic'
loop_
_space_group_symop_operation_xyz
x,y,z
-x,1/2-y,z
x,-y,-z
-x,1/2+y,-z
-x,-y,-z
x,1/2+y,-z
-x,y,z
x,1/2-y,z
1/2+x,1/2+y,z
1/2-x,-y,z
1/2+x,1/2-y,-z
1/2-x,y,-z
1/2-x,1/2-y,-z
1/2+x,y,-z
1/2-x,1/2+y,z
1/2+x,-y,z
loop_
_atom_site_type_symbol
_atom_site_label
_atom_site_fract_x
_atom_site_fract_y
_atom_site_fract_z
Si Si1 0.215738 0.103936 0.868929
Si Si2 0.715547 0.148778 0.447092
Si Si3 0.215383 0.250000 0.942551
Si Si4 0.714408 0.603728 0.762473
Si Si5 0.205293 0.855411 0.343782
O O1 0.282640 0.164186 0.913162
O O2 0.282895 0.135841 0.815311
O O3 0.000000 0.112643 0.866844
O O4 0.250000 0.000000 0.875452
O O5 0.500000 0.152530 0.441872
O O6 0.785073 0.250000 0.450562
O O7 0.750000 0.106620 0.500000
O O8 0.784650 0.110665 0.395326
O O9 0.000000 0.250000 0.937967
O O10 0.250000 0.250000 0.000000
O O11 0.500000 0.624089 0.761320
O O12 0.750000 0.500000 0.764846
O O13 0.789447 0.630898 0.709568
O O14 0.196094 0.750000 0.350044
O O15 0.000000 0.890630 0.340298
#
# Coordination Sequence:
#
# PCOD9504352 Si02
#       5
#    16  16   8  16  16
#     4   9  19  35  55  79 107 138 174 213 256 304
#     4   8  13  22  36  56  82 110 143 184 229 277
#     4  10  22  38  56  82 110 140 177 214 252 298
#     4   9  17  30  49  70  94 123 154 193 239 287
#     4   8  14  24  42  67  88 112 151 193 232 278
#
# _framework density 23.363689000000001
#
# number of rings (size 3 to 8) (size 9 to 14) (size 15 to 20)
#    0.000    3.333    0.000    1.333    1.556    1.333 
#    0.000    3.333    0.000    2.667    0.000    4.667 
#    0.000    0.000    0.000    0.000    0.000    0.000 
#
# Total GULP energy -200505.733473 kJ/mol
# GULP energy per Si atom -5569.603708 kJ/mol
# Density = 2.331051 g / cm^3
# Si number density = 23.363689 Si / 1000 Ang^3
#
#
#
# Elastic Constant Matrix: (Units=GPa)
#
#
# Indices 1 2 3 4 5 6 
#
# 1 79.7537 -4.3968 13.2562 0.0000 0.0000 0.0000
# 2 -4.3968 66.3710 75.2938 0.0000 0.0000 0.0000
# 3 13.2562 75.2938 325.3044 0.0000 0.0000 0.0000
# 4 0.0000 0.0000 0.0000 78.4655 0.0000 0.0000
# 5 0.0000 0.0000 0.0000 0.0000 11.8461 0.0000
# 6 0.0000 0.0000 0.0000 0.0000 0.0000 7.2265
#
#
#
# Elastic Compliance Matrix: (Units=1/GPa)
#
#
# Indices 1 2 3 4 5 6 
#
# 1 0.012808 0.001954 -0.000974 0.000000 0.000000 0.000000
# 2 0.001954 0.020730 -0.004878 0.000000 0.000000 0.000000
# 3 -0.000974 -0.004878 0.004243 0.000000 0.000000 0.000000
# 4 0.000000 0.000000 0.000000 0.012744 0.000000 0.000000
# 5 0.000000 0.000000 0.000000 0.000000 0.084416 0.000000
# 6 0.000000 0.000000 0.000000 0.000000 0.000000 0.138379
#
#
# Mechanical properties :
#
#
# Convention : Reuss Voigt Hill
#
# Bulk Modulus (GPa) = 33.35095 71.08173 52.21634
# Shear Modulus (GPa) = 17.17558 45.32601 31.25079
#
# Velocity S-wave (km/s) = 2.71429 4.40934 3.66126
# Velocity P-wave (km/s) = 4.91211 7.51087 6.34594
#
# Compressibility (1/GPa) = 0.02998415
#
# Stress axis : x y z
#
# Youngs Moduli (GPa) = 78.07490 48.24026 235.69949
#
# Poissons Ratio (x) = -0.09424 0.22959
# Poissons Ratio (y) = -0.15252 1.14965
# Poissons Ratio (z) = 0.07605 0.23530
#
# Static dielectric constant tensor:
#      x y z
#    x 2.044700 0.000000 0.000000 
#    y 0.000000 1.875360 0.000000 
#    z 0.000000 0.000000 1.974080 
# 
# From -- ./inp_files/37738.got.cif
#   From: 2010.05.17/outbox.cif.g08.bks.cpg/sg67_19_cif.got.tgz:37738.got - 2010.06.03 18:28:57.
