data_PCOD9504365
_publ_section_title
;
Structure prediction by ZEFSAII (Michael W. Deem and Ramdas Pophale) SiO2 
 PCOD9504365
Probable space group: C M M A
;
_chemical_formula_sum "Si O2"
_cell_formula_units_Z 80
_cell_length_a 29.973184
_cell_length_b 8.262413
_cell_length_c 15.997047
_cell_angle_alpha 90.000000
_cell_angle_beta 90.000000
_cell_angle_gamma 90.000000
_cell_volume 3961.681889
_symmetry_space_group_name_H-M "C M M A"
_symmetry_group_IT_number 67
_symmetry_cell_setting 'orthorhombic'
loop_
_space_group_symop_operation_xyz
x,y,z
-x,1/2-y,z
x,-y,-z
-x,1/2+y,-z
-x,-y,-z
x,1/2+y,-z
-x,y,z
x,1/2-y,z
1/2+x,1/2+y,z
1/2-x,-y,z
1/2+x,1/2-y,-z
1/2-x,y,-z
1/2-x,1/2-y,-z
1/2+x,y,-z
1/2-x,1/2+y,z
1/2+x,-y,z
loop_
_atom_site_type_symbol
_atom_site_label
_atom_site_fract_x
_atom_site_fract_y
_atom_site_fract_z
Si Si1 0.356898 0.556837 0.909934
Si Si2 0.951091 0.945631 0.652642
Si Si3 0.800832 0.556414 0.750788
Si Si4 0.643504 0.054759 0.590021
Si Si5 0.951016 0.445700 0.845406
O O1 0.357968 0.750000 0.909172
O O2 0.326606 0.500213 0.833369
O O3 0.407620 0.495033 0.894652
O O4 0.340459 0.500000 0.000000
O O5 0.950939 0.750000 0.650786
O O6 0.907506 0.003677 0.603728
O O7 0.000000 0.001878 0.622491
O O8 0.946601 0.999167 0.749135
O O9 0.801866 0.750000 0.749458
O O10 0.750000 0.500000 0.750903
O O11 0.826888 0.497140 0.668010
O O12 0.643110 0.250000 0.591900
O O13 0.660301 0.000000 0.500000
O O14 0.950795 0.250000 0.846873
O O15 0.000000 0.501033 0.875704
#
# Coordination Sequence:
#
# PCOD9504365 Si02
#       5
#    16  16  16  16  16
#     4  11  23  39  62  91 123 159 198 243 293 350
#     4   9  17  32  55  83 117 157 198 239 287 342
#     4  11  24  44  66  89 117 151 195 247 304 359
#     4  10  22  38  59  88 121 156 196 242 291 349
#     4   9  18  33  55  85 120 158 199 240 285 340
#
# _framework density 20.193444
#
# number of rings (size 3 to 8) (size 9 to 14) (size 15 to 20)
#    0.000    2.000    2.000    1.200    0.000    4.800 
#    0.000    4.000    0.000    0.000    0.000    0.000 
#    0.000    0.000    0.000    0.000    0.000    0.000 
#
# Total GULP energy -223377.851991 kJ/mol
# GULP energy per Si atom -5584.446300 kJ/mol
# Density = 2.014748 g / cm^3
# Si number density = 20.193444 Si / 1000 Ang^3
#
#
#
# Elastic Constant Matrix: (Units=GPa)
#
#
# Indices 1 2 3 4 5 6 
#
# 1 151.4321 25.0424 90.4306 0.0000 0.0000 0.0000
# 2 25.0424 22.1984 16.6519 0.0000 0.0000 0.0000
# 3 90.4306 16.6519 160.5371 0.0000 0.0000 0.0000
# 4 0.0000 0.0000 0.0000 29.2742 0.0000 0.0000
# 5 0.0000 0.0000 0.0000 0.0000 -2.0475 0.0000
# 6 0.0000 0.0000 0.0000 0.0000 0.0000 -4.2563
#
#
#
# Elastic Compliance Matrix: (Units=1/GPa)
#
#
# Indices 1 2 3 4 5 6 
#
# 1 0.011298 -0.008644 -0.005468 0.000000 0.000000 0.000000
# 2 -0.008644 0.055463 -0.000884 0.000000 0.000000 0.000000
# 3 -0.005468 -0.000884 0.009401 0.000000 0.000000 0.000000
# 4 0.000000 0.000000 0.000000 0.034160 0.000000 0.000000
# 5 0.000000 0.000000 0.000000 0.000000 -0.488400 0.000000
# 6 0.000000 0.000000 0.000000 0.000000 0.000000 -0.234947
#
#
# Mechanical properties :
#
#
# Convention : Reuss Voigt Hill
#
# Bulk Modulus (GPa) = 21.65879 66.49082 44.07481
# Shear Modulus (GPa) = -8.80833 18.06361 4.62764
#
# Velocity S-wave (km/s) = -2.09080 2.99411 1.51546
# Velocity P-wave (km/s) = 2.21819 6.70458 4.99358
#
# Compressibility (1/GPa) = 0.04617062
#
# Stress axis : x y z
#
# Youngs Moduli (GPa) = 88.50928 18.03011 106.37511
#
# Poissons Ratio (x) = 0.15586 0.58162
# Poissons Ratio (y) = 0.76509 0.09400
# Poissons Ratio (z) = 0.48394 0.01593
#
# Static dielectric constant tensor:
#      x y z
#    x 1.740810 0.000000 0.000000 
#    y 0.000000 1.639720 0.000000 
#    z 0.000000 0.000000 1.697510 
# 
# From -- ./inp_files/35766.got.cif
#   From: 2010.05.17/outbox.cif.g08.bks.cpg/sg67_18_cif.got.tgz:35766.got - 2010.06.03 18:28:57.
