data_PCOD9504899
_publ_section_title
;
Structure prediction by ZEFSAII (Michael W. Deem and Ramdas Pophale) SiO2 
 PCOD9504899
Probable space group: C M M A
;
_chemical_formula_sum "Si O2"
_cell_formula_units_Z 68
_cell_length_a 17.059063
_cell_length_b 23.350829
_cell_length_c 7.226893
_cell_angle_alpha 90.000000
_cell_angle_beta 90.000000
_cell_angle_gamma 90.000000
_cell_volume 2878.784139
_symmetry_space_group_name_H-M "C M M A"
_symmetry_group_IT_number 67
_symmetry_cell_setting 'orthorhombic'
loop_
_space_group_symop_operation_xyz
x,y,z
-x,1/2-y,z
x,-y,-z
-x,1/2+y,-z
-x,-y,-z
x,1/2+y,-z
-x,y,z
x,1/2-y,z
1/2+x,1/2+y,z
1/2-x,-y,z
1/2+x,1/2-y,-z
1/2-x,y,-z
1/2-x,1/2-y,-z
1/2+x,y,-z
1/2-x,1/2+y,z
1/2+x,-y,z
loop_
_atom_site_type_symbol
_atom_site_label
_atom_site_fract_x
_atom_site_fract_y
_atom_site_fract_z
Si Si1 0.354900 0.667207 0.658978
Si Si2 0.000000 0.750000 0.253275
Si Si3 0.315962 0.688323 0.233802
Si Si4 0.910068 0.924003 0.841664
Si Si5 0.590162 0.044181 0.274744
O O1 0.430912 0.699611 0.735081
O O2 0.338511 0.688501 0.451381
O O3 0.277384 0.680931 0.776330
O O4 0.365560 0.598639 0.644457
O O5 0.340727 0.750000 0.155685
O O6 0.359381 0.632731 0.161925
O O7 0.000000 0.911664 0.785545
O O8 0.881069 0.978243 0.719014
O O9 0.911465 0.942834 0.054975
O O10 0.500000 0.045108 0.339201
#
# Coordination Sequence:
#
# PCOD9504899 Si02
#       5
#    16   4  16  16  16
#     4  11  22  38  63  85 116 155 194 241 291 352
#     4  12  20  38  64  88 110 164 190 234 298 350
#     4  11  23  40  54  89 125 149 190 247 293 346
#     4   9  21  39  61  85 121 156 196 243 292 336
#     4   9  19  40  62  87 113 155 204 243 279 348
#
# _framework density 23.621085000000001
#
# number of rings (size 3 to 8) (size 9 to 14) (size 15 to 20)
#    0.000    1.882    3.529    2.118    1.647    3.294 
#    2.118    8.235    0.000    0.000    0.000    0.000 
#    0.000    0.000    0.000    0.000    0.000    0.000 
#
# Total GULP energy -189646.584102 kJ/mol
# GULP energy per Si atom -5577.840709 kJ/mol
# Density = 2.356732 g / cm^3
# Si number density = 23.621085 Si / 1000 Ang^3
#
#
#
# Elastic Constant Matrix: (Units=GPa)
#
#
# Indices 1 2 3 4 5 6 
#
# 1 117.6529 95.9638 12.9615 0.0000 0.0000 0.0000
# 2 95.9638 257.6947 30.9949 0.0000 0.0000 0.0000
# 3 12.9615 30.9949 41.5849 0.0000 0.0000 0.0000
# 4 0.0000 0.0000 0.0000 31.5577 0.0000 0.0000
# 5 0.0000 0.0000 0.0000 0.0000 9.6046 0.0000
# 6 0.0000 0.0000 0.0000 0.0000 0.0000 32.6843
#
#
#
# Elastic Compliance Matrix: (Units=1/GPa)
#
#
# Indices 1 2 3 4 5 6 
#
# 1 0.012215 -0.004494 -0.000458 0.000000 0.000000 0.000000
# 2 -0.004494 0.005916 -0.003009 0.000000 0.000000 0.000000
# 3 -0.000458 -0.003009 0.026432 0.000000 0.000000 0.000000
# 4 0.000000 0.000000 0.000000 0.031688 0.000000 0.000000
# 5 0.000000 0.000000 0.000000 0.000000 0.104116 0.000000
# 6 0.000000 0.000000 0.000000 0.000000 0.000000 0.030596
#
#
# Mechanical properties :
#
#
# Convention : Reuss Voigt Hill
#
# Bulk Modulus (GPa) = 34.91279 77.41920 56.16600
# Shear Modulus (GPa) = 21.14768 33.23683 27.19225
#
# Velocity S-wave (km/s) = 2.99538 3.75518 3.39659
# Velocity P-wave (km/s) = 5.17451 7.18669 6.26195
#
# Compressibility (1/GPa) = 0.02864280
#
# Stress axis : x y z
#
# Youngs Moduli (GPa) = 81.86335 169.03508 37.83233
#
# Poissons Ratio (x) = 0.75962 0.01732
# Poissons Ratio (y) = 0.36788 0.11383
# Poissons Ratio (z) = 0.03749 0.50857
#
# Static dielectric constant tensor:
#      x y z
#    x 1.829070 0.000000 0.000000 
#    y 0.000000 1.939750 0.000000 
#    z 0.000000 0.000000 1.991460 
# 
# From -- ./inp_files/9463.got.cif
#   From: 2010.05.17/outbox.cif.g08.bks.cpg/sg67_5_cif.got.tgz:9463.got - 2010.06.03 18:28:57.
