data_PCOD9504976
_publ_section_title
;
Structure prediction by ZEFSAII (Michael W. Deem and Ramdas Pophale) SiO2 
 PCOD9504976
Probable space group: C M M A
;
_chemical_formula_sum "Si O2"
_cell_formula_units_Z 104
_cell_length_a 7.910875
_cell_length_b 27.129565
_cell_length_c 22.818877
_cell_angle_alpha 90.000000
_cell_angle_beta 90.000000
_cell_angle_gamma 90.000000
_cell_volume 4897.355379
_symmetry_space_group_name_H-M "C M M A"
_symmetry_group_IT_number 67
_symmetry_cell_setting 'orthorhombic'
loop_
_space_group_symop_operation_xyz
x,y,z
-x,1/2-y,z
x,-y,-z
-x,1/2+y,-z
-x,-y,-z
x,1/2+y,-z
-x,y,z
x,1/2-y,z
1/2+x,1/2+y,z
1/2-x,-y,z
1/2+x,1/2-y,-z
1/2-x,y,-z
1/2-x,1/2-y,-z
1/2+x,y,-z
1/2-x,1/2+y,z
1/2+x,-y,z
loop_
_atom_site_type_symbol
_atom_site_label
_atom_site_fract_x
_atom_site_fract_y
_atom_site_fract_z
Si Si1 0.706482 0.696081 0.810269
Si Si2 0.203049 0.554038 0.100955
Si Si3 0.800048 0.945523 0.645784
Si Si4 0.704570 0.143594 0.568340
Si Si5 0.797309 0.340085 0.937193
Si Si6 0.296591 0.410369 0.227215
Si Si7 0.703293 0.250000 0.568862
O O1 0.500000 0.696172 0.808833
O O2 0.763826 0.750000 0.789646
O O3 0.758107 0.687709 0.878256
O O4 0.762000 0.646779 0.776335
O O5 0.250000 0.500000 0.078883
O O6 0.265426 0.603049 0.067732
O O7 0.262485 0.561833 0.168345
O O8 0.000000 0.556251 0.100714
O O9 0.727213 0.901743 0.605953
O O10 0.753683 0.936283 0.713190
O O11 0.000000 0.942503 0.641380
O O12 0.750000 0.000000 0.626772
O O13 0.500000 0.144009 0.571643
O O14 0.750000 0.138731 0.500000
O O15 0.765818 0.197148 0.591391
O O16 0.000000 0.341059 0.934273
O O17 0.750000 0.318781 0.000000
O O18 0.500000 0.409623 0.224468
O O19 0.500000 0.250000 0.574118
O O20 0.750000 0.250000 0.500000
#
# Coordination Sequence:
#
# PCOD9504976 Si02
#       7
#    16  16  16  16  16  16   8
#     4   8  15  31  54  75  99 132 168 207 253 305
#     4   9  18  31  47  67  91 123 162 204 251 298
#     4  11  23  37  53  78 109 142 176 215 263 312
#     4   9  19  35  56  80 107 140 177 214 259 308
#     4   9  18  31  46  68  97 127 161 202 248 299
#     4   9  18  34  54  75  99 130 170 213 255 305
#     4   8  14  30  54  76 100 132 168 208 249 296
#
# _framework density 21.235949000000002
#
# number of rings (size 3 to 8) (size 9 to 14) (size 15 to 20)
#    0.000    2.923    0.000    2.769    0.000    4.615 
#    1.385    5.385    0.000    0.923    0.000    0.000 
#    0.000    0.000    0.000    0.000    0.000    0.000 
#
# Total GULP energy -289992.807646 kJ/mol
# GULP energy per Si atom -5576.784762 kJ/mol
# Density = 2.118762 g / cm^3
# Si number density = 21.235949 Si / 1000 Ang^3
#
#
#
# Elastic Constant Matrix: (Units=GPa)
#
#
# Indices 1 2 3 4 5 6 
#
# 1 19.0322 5.5813 -2.8409 0.0000 0.0000 0.0000
# 2 5.5813 139.1966 23.0139 0.0000 0.0000 0.0000
# 3 -2.8409 23.0139 47.1100 0.0000 0.0000 0.0000
# 4 0.0000 0.0000 0.0000 3.2583 0.0000 0.0000
# 5 0.0000 0.0000 0.0000 0.0000 16.6437 0.0000
# 6 0.0000 0.0000 0.0000 0.0000 0.0000 -150.6291
#
#
#
# Elastic Compliance Matrix: (Units=1/GPa)
#
#
# Indices 1 2 3 4 5 6 
#
# 1 0.054109 -0.002947 0.004703 0.000000 0.000000 0.000000
# 2 -0.002947 0.007976 -0.004074 0.000000 0.000000 0.000000
# 3 0.004703 -0.004074 0.023501 0.000000 0.000000 0.000000
# 4 0.000000 0.000000 0.000000 0.306907 0.000000 0.000000
# 5 0.000000 0.000000 0.000000 0.000000 0.060083 0.000000
# 6 0.000000 0.000000 0.000000 0.000000 0.000000 -0.006639
#
#
# Mechanical properties :
#
#
# Convention : Reuss Voigt Hill
#
# Bulk Modulus (GPa) = 12.35355 28.53861 20.44608
# Shear Modulus (GPa) = 10.46998 -14.17311 -1.85156
#
# Velocity S-wave (km/s) = 2.22284 -2.58623 -0.93477
# Velocity P-wave (km/s) = 3.52391 2.13304 2.91271
#
# Compressibility (1/GPa) = 0.08094838
#
# Stress axis : x y z
#
# Youngs Moduli (GPa) = 18.48131 125.37887 42.55192
#
# Poissons Ratio (x) = 0.36950 -0.20011
# Poissons Ratio (y) = 0.05447 0.17336
# Poissons Ratio (z) = -0.08691 0.51080
#
# Static dielectric constant tensor:
#      x y z
#    x 1.771550 0.000000 0.000000 
#    y 0.000000 1.807290 0.000000 
#    z 0.000000 0.000000 1.746790 
# 
# From -- ./inp_files/37298.got.cif
#   From: 2010.05.17/outbox.cif.g08.bks.cpg/sg67_19_cif.got.tgz:37298.got - 2010.06.03 18:28:57.
