data_PCOD9504943
_publ_section_title
;
Structure prediction by ZEFSAII (Michael W. Deem and Ramdas Pophale) SiO2 
 PCOD9504943
Probable space group: C M M A
;
_chemical_formula_sum "Si O2"
_cell_formula_units_Z 48
_cell_length_a 17.473052
_cell_length_b 15.410628
_cell_length_c 7.366979
_cell_angle_alpha 90.000000
_cell_angle_beta 90.000000
_cell_angle_gamma 90.000000
_cell_volume 1983.711625
_symmetry_space_group_name_H-M "C M M A"
_symmetry_group_IT_number 67
_symmetry_cell_setting 'orthorhombic'
loop_
_space_group_symop_operation_xyz
x,y,z
-x,1/2-y,z
x,-y,-z
-x,1/2+y,-z
-x,-y,-z
x,1/2+y,-z
-x,y,z
x,1/2-y,z
1/2+x,1/2+y,z
1/2-x,-y,z
1/2+x,1/2-y,-z
1/2-x,y,-z
1/2-x,1/2-y,-z
1/2+x,y,-z
1/2-x,1/2+y,z
1/2+x,-y,z
loop_
_atom_site_type_symbol
_atom_site_label
_atom_site_fract_x
_atom_site_fract_y
_atom_site_fract_z
Si Si1 0.640412 0.347071 0.090212
Si Si2 0.918157 0.603216 0.468938
Si Si3 0.707690 0.093233 0.743786
O O1 0.619698 0.250000 0.032155
O O2 0.588405 0.377784 0.256004
O O3 0.723991 0.347412 0.185387
O O4 0.649322 0.408088 0.914687
O O5 0.918531 0.500000 0.500000
O O6 0.841678 0.629103 0.577386
O O7 0.000000 0.638347 0.536238
O O8 0.750000 0.000000 0.713091
#
# Coordination Sequence:
#
# PCOD9504943 Si02
#       3
#    16  16  16
#     4  11  24  41  66  99 131 165 214 274 326 378
#     4  11  25  42  64  95 131 172 216 261 318 388
#     4  11  22  40  71  96 127 170 220 269 320 383
#
# _framework density 24.197067000000001
#
# number of rings (size 3 to 8) (size 9 to 14) (size 15 to 20)
#    0.000    1.000    3.333    5.000    0.000    6.000 
#    0.000    3.333    0.000    0.000    0.000    0.000 
#    0.000    0.000    0.000    0.000    0.000    0.000 
#
# Total GULP energy -134029.136459 kJ/mol
# GULP energy per Si atom -5584.547352 kJ/mol
# Density = 2.414199 g / cm^3
# Si number density = 24.197067 Si / 1000 Ang^3
#
#
#
# Elastic Constant Matrix: (Units=GPa)
#
#
# Indices 1 2 3 4 5 6 
#
# 1 99.9659 -6.3441 35.1581 0.0000 0.0000 0.0000
# 2 -6.3441 77.1686 10.6278 0.0000 0.0000 0.0000
# 3 35.1581 10.6278 145.0417 0.0000 0.0000 0.0000
# 4 0.0000 0.0000 0.0000 16.5578 0.0000 0.0000
# 5 0.0000 0.0000 0.0000 0.0000 -24.8669 0.0000
# 6 0.0000 0.0000 0.0000 0.0000 0.0000 -30.1752
#
#
#
# Elastic Compliance Matrix: (Units=1/GPa)
#
#
# Indices 1 2 3 4 5 6 
#
# 1 0.011062 0.001292 -0.002776 0.000000 0.000000 0.000000
# 2 0.001292 0.013242 -0.001283 0.000000 0.000000 0.000000
# 3 -0.002776 -0.001283 0.007662 0.000000 0.000000 0.000000
# 4 0.000000 0.000000 0.000000 0.060394 0.000000 0.000000
# 5 0.000000 0.000000 0.000000 0.000000 -0.040214 0.000000
# 6 0.000000 0.000000 0.000000 0.000000 0.000000 -0.033140
#
#
# Mechanical properties :
#
#
# Convention : Reuss Voigt Hill
#
# Bulk Modulus (GPa) = 37.83658 44.56221 41.19939
# Shear Modulus (GPa) = 149.92267 11.15210 80.53738
#
# Velocity S-wave (km/s) = 7.87994 2.14916 5.77548
# Velocity P-wave (km/s) = 9.92281 4.96133 7.84465
#
# Compressibility (1/GPa) = 0.02642945
#
# Stress axis : x y z
#
# Youngs Moduli (GPa) = 90.40197 75.51968 130.52262
#
# Poissons Ratio (x) = -0.09755 0.36233
# Poissons Ratio (y) = -0.11677 0.16751
# Poissons Ratio (z) = 0.25096 0.09692
#
# Static dielectric constant tensor:
#      x y z
#    x 1.991730 0.000000 0.000000 
#    y 0.000000 1.933110 0.000000 
#    z 0.000000 0.000000 1.983970 
# 
# From -- ./inp_files/8768.got.cif
#   From: 2010.05.17/outbox.cif.g08.bks.cpg/sg67_5_cif.got.tgz:8768.got - 2010.06.03 18:28:57.
