data_PCOD9504316
_publ_section_title
;
Structure prediction by ZEFSAII (Michael W. Deem and Ramdas Pophale) SiO2 
 PCOD9504316
Probable space group: C M M A
;
_chemical_formula_sum "Si O2"
_cell_formula_units_Z 68
_cell_length_a 20.996937
_cell_length_b 15.157288
_cell_length_c 9.883138
_cell_angle_alpha 90.000000
_cell_angle_beta 90.000000
_cell_angle_gamma 90.000000
_cell_volume 3145.374107
_symmetry_space_group_name_H-M "C M M A"
_symmetry_group_IT_number 67
_symmetry_cell_setting 'orthorhombic'
loop_
_space_group_symop_operation_xyz
x,y,z
-x,1/2-y,z
x,-y,-z
-x,1/2+y,-z
-x,-y,-z
x,1/2+y,-z
-x,y,z
x,1/2-y,z
1/2+x,1/2+y,z
1/2-x,-y,z
1/2+x,1/2-y,-z
1/2-x,y,-z
1/2-x,1/2-y,-z
1/2+x,y,-z
1/2-x,1/2+y,z
1/2+x,-y,z
loop_
_atom_site_type_symbol
_atom_site_label
_atom_site_fract_x
_atom_site_fract_y
_atom_site_fract_z
Si Si1 0.358342 0.056240 0.636597
Si Si2 0.274255 0.894307 0.147039
Si Si3 0.377439 0.250000 0.931195
Si Si4 0.500000 0.750000 0.261857
Si Si5 0.327208 0.250000 0.520899
Si Si6 0.000000 0.943130 0.637841
Si Si7 0.828948 0.250000 0.777460
O O1 0.306926 0.037085 0.751740
O O2 0.347690 0.159425 0.594617
O O3 0.429280 0.037123 0.693437
O O4 0.348667 0.000000 0.500000
O O5 0.334595 0.832271 0.111893
O O6 0.218822 0.833606 0.210683
O O7 0.250000 0.918343 0.000000
O O8 0.440664 0.250000 0.842199
O O9 0.377220 0.250000 0.095547
O O10 0.500000 0.663590 0.356609
O O11 0.250000 0.250000 0.500000
O O12 0.357812 0.250000 0.371439
O O13 0.000000 0.000000 0.500000
#
# Coordination Sequence:
#
# PCOD9504316 Si02
#       7
#    16  16   8   4   8   8   8
#     4  11  22  37  60  96 129 174 224 267 327 400
#     4   9  16  32  56  85 122 164 206 268 330 379
#     4   9  17  28  55  85 115 165 213 260 319 390
#     4  12  16  30  62  90 126 172 236 258 332 390
#     4  12  21  37  59  86 127 167 208 271 342 380
#     4  10  22  36  55  93 135 169 222 276 316 383
#     4   9  18  33  51  82 122 150 205 265 323 394
#
# _framework density 21.619050000000001
#
# number of rings (size 3 to 8) (size 9 to 14) (size 15 to 20)
#    0.000    1.882    4.706    2.824    0.000    0.471 
#    0.000    1.176    0.000   14.118    0.000    3.294 
#    0.000    0.000    0.000   20.471    0.000    0.000 
#
# Total GULP energy -189602.502515 kJ/mol
# GULP energy per Si atom -5576.544192 kJ/mol
# Density = 2.156984 g / cm^3
# Si number density = 21.619050 Si / 1000 Ang^3
#
#
#
# Elastic Constant Matrix: (Units=GPa)
#
#
# Indices 1 2 3 4 5 6 
#
# 1 147.3640 40.9424 46.1337 0.0000 0.0000 0.0000
# 2 40.9424 82.5217 27.5989 0.0000 0.0000 0.0000
# 3 46.1337 27.5989 143.2696 0.0000 0.0000 0.0000
# 4 0.0000 0.0000 0.0000 3.6694 0.0000 0.0000
# 5 0.0000 0.0000 0.0000 0.0000 37.0304 0.0000
# 6 0.0000 0.0000 0.0000 0.0000 0.0000 30.1966
#
#
#
# Elastic Compliance Matrix: (Units=1/GPa)
#
#
# Indices 1 2 3 4 5 6 
#
# 1 0.008389 -0.003483 -0.002030 0.000000 0.000000 0.000000
# 2 -0.003483 0.014399 -0.001652 0.000000 0.000000 0.000000
# 3 -0.002030 -0.001652 0.007952 0.000000 0.000000 0.000000
# 4 0.000000 0.000000 0.000000 0.272527 0.000000 0.000000
# 5 0.000000 0.000000 0.000000 0.000000 0.027005 0.000000
# 6 0.000000 0.000000 0.000000 0.000000 0.000000 0.033116
#
#
# Mechanical properties :
#
#
# Convention : Reuss Voigt Hill
#
# Bulk Modulus (GPa) = 60.94410 66.94504 63.94457
# Shear Modulus (GPa) = 13.04840 31.41129 22.22985
#
# Velocity S-wave (km/s) = 2.45941 3.81589 3.21012
# Velocity P-wave (km/s) = 6.02629 7.10265 6.58649
#
# Compressibility (1/GPa) = 0.01640848
#
# Stress axis : x y z
#
# Youngs Moduli (GPa) = 119.19936 69.45062 125.75605
#
# Poissons Ratio (x) = 0.24191 0.25534
# Poissons Ratio (y) = 0.41520 0.20776
# Poissons Ratio (z) = 0.24202 0.11474
#
# Static dielectric constant tensor:
#      x y z
#    x 1.802500 0.000000 0.000000 
#    y 0.000000 2.002410 0.000000 
#    z 0.000000 0.000000 1.797450 
# 
# From -- ./inp_files/10838.got.cif
#   From: 2010.05.17/outbox.cif.g08.bks.cpg/sg67_6_cif.got.tgz:10838.got - 2010.06.03 18:28:57.
