data_PCOD9504407
_publ_section_title
;
Structure prediction by ZEFSAII (Michael W. Deem and Ramdas Pophale) SiO2 
 PCOD9504407
Probable space group: C M M A
;
_chemical_formula_sum "Si O2"
_cell_formula_units_Z 88
_cell_length_a 22.617894
_cell_length_b 23.250738
_cell_length_c 7.416023
_cell_angle_alpha 90.000000
_cell_angle_beta 90.000000
_cell_angle_gamma 90.000000
_cell_volume 3899.958402
_symmetry_space_group_name_H-M "C M M A"
_symmetry_group_IT_number 67
_symmetry_cell_setting 'orthorhombic'
loop_
_space_group_symop_operation_xyz
x,y,z
-x,1/2-y,z
x,-y,-z
-x,1/2+y,-z
-x,-y,-z
x,1/2+y,-z
-x,y,z
x,1/2-y,z
1/2+x,1/2+y,z
1/2-x,-y,z
1/2+x,1/2-y,-z
1/2-x,y,-z
1/2-x,1/2-y,-z
1/2+x,y,-z
1/2-x,1/2+y,z
1/2+x,-y,z
loop_
_atom_site_type_symbol
_atom_site_label
_atom_site_fract_x
_atom_site_fract_y
_atom_site_fract_z
Si Si1 0.886668 0.127636 0.405638
Si Si2 0.870953 0.568855 0.977791
Si Si3 0.760961 0.250000 0.283954
Si Si4 0.830005 0.844140 0.248319
Si Si5 0.399943 0.750000 0.244193
Si Si6 0.000000 0.433030 0.458328
Si Si7 0.000000 0.432100 0.029704
Si Si8 0.069521 0.250000 0.832622
O O1 0.867898 0.091409 0.228395
O O2 0.833506 0.136566 0.543965
O O3 0.911952 0.189938 0.344817
O O4 0.938493 0.094891 0.514234
O O5 0.937394 0.587963 0.039960
O O6 0.865782 0.500000 0.000000
O O7 0.829515 0.603392 0.110914
O O8 0.750000 0.250000 0.500000
O O9 0.726308 0.194988 0.213569
O O10 0.828675 0.250000 0.228483
O O11 0.888907 0.803921 0.224845
O O12 0.429826 0.750000 0.050243
O O13 0.000000 0.500000 0.500000
O O14 0.000000 0.422686 0.243221
O O15 0.000000 0.500000 0.000000
O O16 0.000000 0.250000 0.772732
#
# Coordination Sequence:
#
# PCOD9504407 Si02
#       8
#    16  16   8  16   8   8   8   8
#     4  11  24  39  65 100 136 183 233 290 354 413
#     4  10  22  39  61  99 136 181 235 280 343 429
#     4  11  23  48  70 105 132 171 254 303 355 425
#     4  11  24  41  69  99 130 190 222 293 355 412
#     4  12  23  47  71  97 138 181 232 300 363 414
#     4  10  24  37  57  99 138 190 229 264 341 440
#     4   8  18  34  55  79 132 175 219 276 313 391
#     4  11  26  42  65 104 146 174 221 285 364 441
#
# _framework density 22.564343000000001
#
# number of rings (size 3 to 8) (size 9 to 14) (size 15 to 20)
#    0.000    1.455    3.636    0.545   11.455    1.455 
#    0.000    0.000    0.000    2.182    4.727    0.000 
#    0.000    0.000    0.000    0.000    0.000    0.000 
#
# Total GULP energy -245938.157953 kJ/mol
# GULP energy per Si atom -5589.503590 kJ/mol
# Density = 2.251299 g / cm^3
# Si number density = 22.564343 Si / 1000 Ang^3
#
#
#
# Elastic Constant Matrix: (Units=GPa)
#
#
# Indices 1 2 3 4 5 6 
#
# 1 78.2951 34.4242 2.4108 0.0000 0.0000 0.0000
# 2 34.4242 155.0342 42.8779 0.0000 0.0000 0.0000
# 3 2.4108 42.8779 103.1801 0.0000 0.0000 0.0000
# 4 0.0000 0.0000 0.0000 41.6850 0.0000 0.0000
# 5 0.0000 0.0000 0.0000 0.0000 16.7305 0.0000
# 6 0.0000 0.0000 0.0000 0.0000 0.0000 18.7348
#
#
#
# Elastic Compliance Matrix: (Units=1/GPa)
#
#
# Indices 1 2 3 4 5 6 
#
# 1 0.014266 -0.003475 0.001111 0.000000 0.000000 0.000000
# 2 -0.003475 0.008134 -0.003299 0.000000 0.000000 0.000000
# 3 0.001111 -0.003299 0.011037 0.000000 0.000000 0.000000
# 4 0.000000 0.000000 0.000000 0.023989 0.000000 0.000000
# 5 0.000000 0.000000 0.000000 0.000000 0.059771 0.000000
# 6 0.000000 0.000000 0.000000 0.000000 0.000000 0.053377
#
#
# Mechanical properties :
#
#
# Convention : Reuss Voigt Hill
#
# Bulk Modulus (GPa) = 45.22762 55.10389 50.16576
# Shear Modulus (GPa) = 26.41724 32.54983 29.48353
#
# Velocity S-wave (km/s) = 3.42534 3.80219 3.61867
# Velocity P-wave (km/s) = 5.97756 6.61433 6.30399
#
# Compressibility (1/GPa) = 0.02211038
#
# Stress axis : x y z
#
# Youngs Moduli (GPa) = 70.09789 122.93821 90.60581
#
# Poissons Ratio (x) = 0.42718 -0.10063
# Poissons Ratio (y) = 0.24358 0.29892
# Poissons Ratio (z) = -0.07786 0.40558
#
# Static dielectric constant tensor:
#      x y z
#    x 1.790580 0.000000 0.000000 
#    y 0.000000 1.814110 0.000000 
#    z 0.000000 0.000000 1.841480 
# 
# From -- ./inp_files/12521.got.cif
#   From: 2010.05.17/outbox.cif.g08.bks.cpg/sg67_7_cif.got.tgz:12521.got - 2010.06.03 18:28:57.
