data_PCOD9504345
_publ_section_title
;
Structure prediction by ZEFSAII (Michael W. Deem and Ramdas Pophale) SiO2 
 PCOD9504345
Probable space group: C M M A
;
_chemical_formula_sum "Si O2"
_cell_formula_units_Z 84
_cell_length_a 14.365268
_cell_length_b 24.796811
_cell_length_c 12.904978
_cell_angle_alpha 90.000000
_cell_angle_beta 90.000000
_cell_angle_gamma 90.000000
_cell_volume 4596.918806
_symmetry_space_group_name_H-M "C M M A"
_symmetry_group_IT_number 67
_symmetry_cell_setting 'orthorhombic'
loop_
_space_group_symop_operation_xyz
x,y,z
-x,1/2-y,z
x,-y,-z
-x,1/2+y,-z
-x,-y,-z
x,1/2+y,-z
-x,y,z
x,1/2-y,z
1/2+x,1/2+y,z
1/2-x,-y,z
1/2+x,1/2-y,-z
1/2-x,y,-z
1/2-x,1/2-y,-z
1/2+x,y,-z
1/2-x,1/2+y,z
1/2+x,-y,z
loop_
_atom_site_type_symbol
_atom_site_label
_atom_site_fract_x
_atom_site_fract_y
_atom_site_fract_z
Si Si1 0.765951 0.900713 0.262047
Si Si2 0.610563 0.942078 0.549242
Si Si3 0.393096 0.580845 0.918204
Si Si4 0.168660 0.164051 0.423368
Si Si5 0.000000 0.750000 0.586150
Si Si6 0.106662 0.955287 0.853592
O O1 0.833052 0.928520 0.346451
O O2 0.824674 0.888618 0.158589
O O3 0.718577 0.849201 0.314956
O O4 0.682058 0.939883 0.230126
O O5 0.500000 0.058160 0.429324
O O6 0.635839 0.893754 0.470534
O O7 0.634477 0.000000 0.500000
O O8 0.500000 0.598252 0.905246
O O9 0.387144 0.518130 0.882626
O O10 0.372792 0.577992 0.040640
O O11 0.250000 0.184152 0.500000
O O12 0.082091 0.203216 0.415610
O O13 0.000000 0.944335 0.821931
#
# Coordination Sequence:
#
# PCOD9504345 Si02
#       6
#    16  16  16  16   4  16
#     4  11  21  32  54  83 113 148 194 235 283 340
#     4  10  22  38  54  83 124 159 189 227 286 359
#     4   9  18  33  49  78 117 166 194 227 268 335
#     4  10  24  39  62  86 108 149 200 240 296 348
#     4  12  22  48  66  74 110 148 196 268 298 328
#     4   9  19  31  49  77 121 160 202 223 267 335
#
# _framework density 18.273109999999999
#
# number of rings (size 3 to 8) (size 9 to 14) (size 15 to 20)
#    0.000    2.095    0.952    3.143    6.667    4.190 
#    0.000    0.000    0.000    0.571    0.000    2.667 
#    0.000    1.905    0.000    0.000    0.000    0.000 
#
# Total GULP energy -234041.444294 kJ/mol
# GULP energy per Si atom -5572.415340 kJ/mol
# Density = 1.823152 g / cm^3
# Si number density = 18.273110 Si / 1000 Ang^3
#
#
#
# Elastic Constant Matrix: (Units=GPa)
#
#
# Indices 1 2 3 4 5 6 
#
# 1 146.9484 44.5373 58.2901 0.0000 0.0000 0.0000
# 2 44.5373 73.4762 21.8250 0.0000 0.0000 0.0000
# 3 58.2901 21.8250 58.8518 0.0000 0.0000 0.0000
# 4 0.0000 0.0000 0.0000 -3.0525 0.0000 0.0000
# 5 0.0000 0.0000 0.0000 0.0000 32.4977 0.0000
# 6 0.0000 0.0000 0.0000 0.0000 0.0000 -79.5001
#
#
#
# Elastic Compliance Matrix: (Units=1/GPa)
#
#
# Indices 1 2 3 4 5 6 
#
# 1 0.012318 -0.004318 -0.010599 0.000000 0.000000 0.000000
# 2 -0.004318 0.016808 -0.001956 0.000000 0.000000 0.000000
# 3 -0.010599 -0.001956 0.028216 0.000000 0.000000 0.000000
# 4 0.000000 0.000000 0.000000 -0.327600 0.000000 0.000000
# 5 0.000000 0.000000 0.000000 0.000000 0.030771 0.000000
# 6 0.000000 0.000000 0.000000 0.000000 0.000000 -0.012579
#
#
# Mechanical properties :
#
#
# Convention : Reuss Voigt Hill
#
# Bulk Modulus (GPa) = 42.38281 58.73124 50.55702
# Shear Modulus (GPa) = -23.75833 0.29728 -11.73052
#
# Velocity S-wave (km/s) = -3.60971 0.40379 -2.53643
# Velocity P-wave (km/s) = 2.42303 5.69456 4.37602
#
# Compressibility (1/GPa) = 0.02359447
#
# Stress axis : x y z
#
# Youngs Moduli (GPa) = 81.17949 59.49384 35.44150
#
# Poissons Ratio (x) = 0.25692 0.37566
# Poissons Ratio (y) = 0.35056 0.06933
# Poissons Ratio (z) = 0.86045 0.11638
#
# Static dielectric constant tensor:
#      x y z
#    x 1.657060 0.000000 0.000000 
#    y 0.000000 1.604060 0.000000 
#    z 0.000000 0.000000 1.668370 
# 
# From -- ./inp_files/18094.got.cif
#   From: 2010.05.17/outbox.cif.g08.bks.cpg/sg67_10_cif.got.tgz:18094.got - 2010.06.03 18:28:57.
