data_PCOD9504230
_publ_section_title
;
Structure prediction by ZEFSAII (Michael W. Deem and Ramdas Pophale) SiO2 
 PCOD9504230
Probable space group: C M M A
;
_chemical_formula_sum "Si O2"
_cell_formula_units_Z 68
_cell_length_a 15.728987
_cell_length_b 10.394764
_cell_length_c 21.305540
_cell_angle_alpha 90.000000
_cell_angle_beta 90.000000
_cell_angle_gamma 90.000000
_cell_volume 3483.436782
_symmetry_space_group_name_H-M "C M M A"
_symmetry_group_IT_number 67
_symmetry_cell_setting 'orthorhombic'
loop_
_space_group_symop_operation_xyz
x,y,z
-x,1/2-y,z
x,-y,-z
-x,1/2+y,-z
-x,-y,-z
x,1/2+y,-z
-x,y,z
x,1/2-y,z
1/2+x,1/2+y,z
1/2-x,-y,z
1/2+x,1/2-y,-z
1/2-x,y,-z
1/2-x,1/2-y,-z
1/2+x,y,-z
1/2-x,1/2+y,z
1/2+x,-y,z
loop_
_atom_site_type_symbol
_atom_site_label
_atom_site_fract_x
_atom_site_fract_y
_atom_site_fract_z
Si Si1 0.669713 0.402872 0.720537
Si Si2 0.649545 0.982656 0.144676
Si Si3 0.901264 0.250000 0.913878
Si Si4 0.594377 0.597984 0.414250
Si Si5 0.750000 0.500000 0.500000
Si Si6 0.397976 0.250000 0.945544
O O1 0.694055 0.250000 0.721478
O O2 0.750000 0.500000 0.715894
O O3 0.623189 0.434813 0.786183
O O4 0.613280 0.426268 0.659069
O O5 0.628755 0.876160 0.092818
O O6 0.750000 0.000000 0.147774
O O7 0.617011 0.121564 0.124503
O O8 0.000000 0.250000 0.926574
O O9 0.861052 0.250000 0.983692
O O10 0.500000 0.541905 0.430325
O O11 0.587368 0.750000 0.422896
O O12 0.679668 0.562332 0.452964
O O13 0.500000 0.250000 0.946473
#
# Coordination Sequence:
#
# PCOD9504230 Si02
#       6
#    16  16   8  16   4   8
#     4  10  21  40  65  91 125 166 211 262 319 374
#     4  11  23  39  63  91 118 162 210 262 316 372
#     4  11  25  41  59  87 129 163 200 263 326 375
#     4  10  22  39  63  94 129 171 217 261 314 377
#     4  12  20  40  64  96 128 176 206 268 314 366
#     4  11  23  41  61  87 121 165 210 255 318 387
#
# _framework density 19.520951
#
# number of rings (size 3 to 8) (size 9 to 14) (size 15 to 20)
#    0.000    1.412    2.353    2.824    4.941    6.588 
#    0.000    0.000    0.000    1.412    0.000    0.000 
#    0.000    0.000    0.000    0.000    0.000    0.000 
#
# Total GULP energy -189439.759159 kJ/mol
# GULP energy per Si atom -5571.757622 kJ/mol
# Density = 1.947652 g / cm^3
# Si number density = 19.520951 Si / 1000 Ang^3
#
#
#
# Elastic Constant Matrix: (Units=GPa)
#
#
# Indices 1 2 3 4 5 6 
#
# 1 113.0074 35.3896 56.6140 0.0000 0.0000 0.0000
# 2 35.3896 125.7893 63.4353 0.0000 0.0000 0.0000
# 3 56.6140 63.4353 146.2138 0.0000 0.0000 0.0000
# 4 0.0000 0.0000 0.0000 499.9523 0.0000 0.0000
# 5 0.0000 0.0000 0.0000 0.0000 64.1952 0.0000
# 6 0.0000 0.0000 0.0000 0.0000 0.0000 39.1630
#
#
#
# Elastic Compliance Matrix: (Units=1/GPa)
#
#
# Indices 1 2 3 4 5 6 
#
# 1 0.011124 -0.001226 -0.003776 0.000000 0.000000 0.000000
# 2 -0.001226 0.010311 -0.003999 0.000000 0.000000 0.000000
# 3 -0.003776 -0.003999 0.010036 0.000000 0.000000 0.000000
# 4 0.000000 0.000000 0.000000 0.002000 0.000000 0.000000
# 5 0.000000 0.000000 0.000000 0.000000 0.015577 0.000000
# 6 0.000000 0.000000 0.000000 0.000000 0.000000 0.025534
#
#
# Mechanical properties :
#
#
# Convention : Reuss Voigt Hill
#
# Bulk Modulus (GPa) = 74.23208 77.32092 75.77650
# Shear Modulus (GPa) = 51.50670 135.96687 93.73679
#
# Velocity S-wave (km/s) = 5.14224 8.35482 6.93706
# Velocity P-wave (km/s) = 8.56541 11.52240 10.15214
#
# Compressibility (1/GPa) = 0.01347127
#
# Stress axis : x y z
#
# Youngs Moduli (GPa) = 89.89348 96.98056 99.63949
#
# Poissons Ratio (x) = 0.11887 0.37619
# Poissons Ratio (y) = 0.11018 0.39846
# Poissons Ratio (z) = 0.33940 0.38783
#
# Static dielectric constant tensor:
#      x y z
#    x 1.691730 0.000000 0.000000 
#    y 0.000000 1.644610 0.000000 
#    z 0.000000 0.000000 1.744140 
# 
# From -- ./inp_files/38275.got.cif
#   From: 2010.05.17/outbox.cif.g08.bks.cpg/sg67_20_cif.got.tgz:38275.got - 2010.06.03 18:28:57.
