data_PCOD9504576
_publ_section_title
;
Structure prediction by ZEFSAII (Michael W. Deem and Ramdas Pophale) SiO2 
 PCOD9504576
Probable space group: C M M A
;
_chemical_formula_sum "Si O2"
_cell_formula_units_Z 100
_cell_length_a 7.554510
_cell_length_b 20.479287
_cell_length_c 31.770257
_cell_angle_alpha 90.000000
_cell_angle_beta 90.000000
_cell_angle_gamma 90.000000
_cell_volume 4915.207546
_symmetry_space_group_name_H-M "C M M A"
_symmetry_group_IT_number 67
_symmetry_cell_setting 'orthorhombic'
loop_
_space_group_symop_operation_xyz
x,y,z
-x,1/2-y,z
x,-y,-z
-x,1/2+y,-z
-x,-y,-z
x,1/2+y,-z
-x,y,z
x,1/2-y,z
1/2+x,1/2+y,z
1/2-x,-y,z
1/2+x,1/2-y,-z
1/2-x,y,-z
1/2-x,1/2-y,-z
1/2+x,y,-z
1/2-x,1/2+y,z
1/2+x,-y,z
loop_
_atom_site_type_symbol
_atom_site_label
_atom_site_fract_x
_atom_site_fract_y
_atom_site_fract_z
Si Si1 0.711557 0.175192 0.454879
Si Si2 0.788959 0.573362 0.291892
Si Si3 0.500000 0.750000 0.782480
Si Si4 0.211319 0.924201 0.881842
Si Si5 0.287529 0.176043 0.951615
Si Si6 0.783896 0.174000 0.637439
Si Si7 0.295188 0.363374 0.793018
O O1 0.500000 0.178471 0.452386
O O2 0.780709 0.250000 0.457034
O O3 0.750000 0.142996 0.500000
O O4 0.771970 0.150145 0.409292
O O5 0.750000 0.500000 0.306023
O O6 0.723440 0.626874 0.325504
O O7 0.708739 0.587474 0.246309
O O8 0.000000 0.580914 0.288325
O O9 0.656567 0.806567 0.783086
O O10 0.282090 0.876366 0.918276
O O11 0.265615 0.899040 0.835866
O O12 0.000000 0.918275 0.882702
O O13 0.250000 0.000000 0.888632
O O14 0.500000 0.178622 0.947351
O O15 0.220192 0.250000 0.944065
O O16 0.250000 0.158533 0.000000
O O17 0.731189 0.250000 0.642872
O O18 0.000000 0.173861 0.638453
O O19 0.500000 0.340820 0.798683
#
# Coordination Sequence:
#
# PCOD9504576 Si02
#       7
#    16  16   4  16  16  16  16
#     4   8  13  24  43  70 101 137 176 227 293 358
#     4  11  22  38  61  85 118 162 205 248 305 371
#     4  12  26  44  68 102 126 162 204 254 314 368
#     4  10  23  40  62  88 123 163 206 256 306 363
#     4   9  19  38  59  85 118 157 200 253 314 368
#     4   8  16  30  52  78 108 146 192 242 297 358
#     4  11  25  44  66  96 129 163 204 254 305 364
#
# _framework density 20.345022
#
# number of rings (size 3 to 8) (size 9 to 14) (size 15 to 20)
#    0.000    2.400    0.800    2.160    3.360    2.240 
#    0.000    3.200    0.000    2.400    0.000    3.360 
#    0.000    0.000    0.000    0.000    0.000    0.000 
#
# Total GULP energy -278369.735133 kJ/mol
# GULP energy per Si atom -5567.394703 kJ/mol
# Density = 2.029872 g / cm^3
# Si number density = 20.345022 Si / 1000 Ang^3
#
#
#
# Elastic Constant Matrix: (Units=GPa)
#
#
# Indices 1 2 3 4 5 6 
#
# 1 76.1253 9.7406 3.2818 0.0000 0.0000 0.0000
# 2 9.7406 100.6674 70.4007 0.0000 0.0000 0.0000
# 3 3.2818 70.4007 157.2825 0.0000 0.0000 0.0000
# 4 0.0000 0.0000 0.0000 -1.6044 0.0000 0.0000
# 5 0.0000 0.0000 0.0000 0.0000 17.1683 0.0000
# 6 0.0000 0.0000 0.0000 0.0000 0.0000 23.9417
#
#
#
# Elastic Compliance Matrix: (Units=1/GPa)
#
#
# Indices 1 2 3 4 5 6 
#
# 1 0.013321 -0.001593 0.000435 0.000000 0.000000 0.000000
# 2 -0.001593 0.014651 -0.006525 0.000000 0.000000 0.000000
# 3 0.000435 -0.006525 0.009269 0.000000 0.000000 0.000000
# 4 0.000000 0.000000 0.000000 -0.623278 0.000000 0.000000
# 5 0.000000 0.000000 0.000000 0.000000 0.058247 0.000000
# 6 0.000000 0.000000 0.000000 0.000000 0.000000 0.041768
#
#
# Mechanical properties :
#
#
# Convention : Reuss Voigt Hill
#
# Bulk Modulus (GPa) = 45.71192 55.65794 50.68493
# Shear Modulus (GPa) = -10.79065 24.61124 6.91030
#
# Velocity S-wave (km/s) = -2.30550 3.48184 1.84497
# Velocity P-wave (km/s) = 3.92811 6.60157 5.43188
#
# Compressibility (1/GPa) = 0.02187613
#
# Stress axis : x y z
#
# Youngs Moduli (GPa) = 75.06749 68.25593 107.88273
#
# Poissons Ratio (x) = 0.10876 -0.04695
# Poissons Ratio (y) = 0.11961 0.70388
# Poissons Ratio (z) = -0.03267 0.44534
#
# Static dielectric constant tensor:
#      x y z
#    x 1.769390 0.000000 0.000000 
#    y 0.000000 1.690050 0.000000 
#    z 0.000000 0.000000 1.751840 
# 
# From -- ./inp_files/45348.got.cif
#   From: 2010.05.17/outbox.cif.g08.bks.cpg/sg67_23_cif.got.tgz:45348.got - 2010.06.03 18:28:57.
