data_PCOD9504363
_publ_section_title
;
Structure prediction by ZEFSAII (Michael W. Deem and Ramdas Pophale) SiO2 
 PCOD9504363
Probable space group: C M M A
;
_chemical_formula_sum "Si O2"
_cell_formula_units_Z 96
_cell_length_a 15.003764
_cell_length_b 21.305625
_cell_length_c 14.658177
_cell_angle_alpha 90.000000
_cell_angle_beta 90.000000
_cell_angle_gamma 90.000000
_cell_volume 4685.699838
_symmetry_space_group_name_H-M "C M M A"
_symmetry_group_IT_number 67
_symmetry_cell_setting 'orthorhombic'
loop_
_space_group_symop_operation_xyz
x,y,z
-x,1/2-y,z
x,-y,-z
-x,1/2+y,-z
-x,-y,-z
x,1/2+y,-z
-x,y,z
x,1/2-y,z
1/2+x,1/2+y,z
1/2-x,-y,z
1/2+x,1/2-y,-z
1/2-x,y,-z
1/2-x,1/2-y,-z
1/2+x,y,-z
1/2-x,1/2+y,z
1/2+x,-y,z
loop_
_atom_site_type_symbol
_atom_site_label
_atom_site_fract_x
_atom_site_fract_y
_atom_site_fract_z
Si Si1 0.319534 0.319224 0.916195
Si Si2 0.605345 0.026307 0.715834
Si Si3 0.225983 0.850882 0.712045
Si Si4 0.894211 0.959451 0.918361
Si Si5 0.896877 0.317703 0.448852
Si Si6 0.104066 0.103307 0.620926
O O1 0.365572 0.250000 0.921937
O O2 0.280630 0.323688 0.813445
O O3 0.369598 0.386011 0.921998
O O4 0.250000 0.320013 0.000000
O O5 0.500000 0.045738 0.711045
O O6 0.674336 0.082407 0.704374
O O7 0.624105 0.007628 0.821042
O O8 0.617250 0.969746 0.645298
O O9 0.170277 0.815417 0.634738
O O10 0.327705 0.859218 0.683689
O O11 0.000000 0.960432 0.926960
O O12 0.854100 0.000000 0.000000
O O13 0.890899 0.250000 0.498349
O O14 0.877274 0.374394 0.517831
O O15 0.000000 0.324222 0.417846
O O16 0.000000 0.117412 0.638414
#
# Coordination Sequence:
#
# PCOD9504363 Si02
#       6
#    16  16  16  16  16  16
#     4  10  23  40  57  87 126 160 202 256 311 369
#     4   9  19  36  57  88 123 153 199 254 309 366
#     4  11  21  37  63  88 118 161 205 252 306 371
#     4   9  19  36  62  89 117 157 205 254 308 373
#     4  10  22  40  62  88 116 154 205 255 309 369
#     4  10  22  38  58  86 123 158 197 253 306 372
#
# _framework density 20.487867999999999
#
# number of rings (size 3 to 8) (size 9 to 14) (size 15 to 20)
#    0.000    2.167    0.000    2.000    2.333    4.000 
#    0.000    4.167    0.000    1.000    0.000    0.000 
#    0.000    0.000    0.000    0.000    0.000    0.000 
#
# Total GULP energy -267481.185441 kJ/mol
# GULP energy per Si atom -5572.524697 kJ/mol
# Density = 2.044124 g / cm^3
# Si number density = 20.487868 Si / 1000 Ang^3
#
#
#
# Elastic Constant Matrix: (Units=GPa)
#
#
# Indices 1 2 3 4 5 6 
#
# 1 51.7187 24.6441 40.7199 0.0000 0.0000 0.0000
# 2 24.6441 99.0993 74.2581 0.0000 0.0000 0.0000
# 3 40.7199 74.2581 115.9952 0.0000 0.0000 0.0000
# 4 0.0000 0.0000 0.0000 15.0934 0.0000 0.0000
# 5 0.0000 0.0000 0.0000 0.0000 19.2935 0.0000
# 6 0.0000 0.0000 0.0000 0.0000 0.0000 57.6641
#
#
#
# Elastic Compliance Matrix: (Units=1/GPa)
#
#
# Indices 1 2 3 4 5 6 
#
# 1 0.026749 0.000739 -0.009863 0.000000 0.000000 0.000000
# 2 0.000739 0.019415 -0.012689 0.000000 0.000000 0.000000
# 3 -0.009863 -0.012689 0.020206 0.000000 0.000000 0.000000
# 4 0.000000 0.000000 0.000000 0.066254 0.000000 0.000000
# 5 0.000000 0.000000 0.000000 0.000000 0.051831 0.000000
# 6 0.000000 0.000000 0.000000 0.000000 0.000000 0.017342
#
#
# Mechanical properties :
#
#
# Convention : Reuss Voigt Hill
#
# Bulk Modulus (GPa) = 43.96631 60.67304 52.31968
# Shear Modulus (GPa) = 19.76249 26.88961 23.32605
#
# Velocity S-wave (km/s) = 3.10916 3.62673 3.37787
# Velocity P-wave (km/s) = 5.86476 6.87139 6.38793
#
# Compressibility (1/GPa) = 0.02274469
#
# Stress axis : x y z
#
# Youngs Moduli (GPa) = 37.38476 51.50638 49.48916
#
# Poissons Ratio (x) = -0.03805 0.48812
# Poissons Ratio (y) = -0.02762 0.62795
# Poissons Ratio (z) = 0.36873 0.65354
#
# Static dielectric constant tensor:
#      x y z
#    x 1.721380 0.000000 0.000000 
#    y 0.000000 1.778330 0.000000 
#    z 0.000000 0.000000 1.743110 
# 
# From -- ./inp_files/27200.got.cif
#   From: 2010.05.17/outbox.cif.g08.bks.cpg/sg67_14_cif.got.tgz:27200.got - 2010.06.03 18:28:57.
