data_PCOD9504055
_publ_section_title
;
Structure prediction by ZEFSAII (Michael W. Deem and Ramdas Pophale) SiO2 
 PCOD9504055
Probable space group: C M M A
;
_chemical_formula_sum "Si O2"
_cell_formula_units_Z 80
_cell_length_a 9.373662
_cell_length_b 15.315349
_cell_length_c 26.505323
_cell_angle_alpha 90.000000
_cell_angle_beta 90.000000
_cell_angle_gamma 90.000000
_cell_volume 3805.128156
_symmetry_space_group_name_H-M "C M M A"
_symmetry_group_IT_number 67
_symmetry_cell_setting 'orthorhombic'
loop_
_space_group_symop_operation_xyz
x,y,z
-x,1/2-y,z
x,-y,-z
-x,1/2+y,-z
-x,-y,-z
x,1/2+y,-z
-x,y,z
x,1/2-y,z
1/2+x,1/2+y,z
1/2-x,-y,z
1/2+x,1/2-y,-z
1/2-x,y,-z
1/2-x,1/2-y,-z
1/2+x,y,-z
1/2-x,1/2+y,z
1/2+x,-y,z
loop_
_atom_site_type_symbol
_atom_site_label
_atom_site_fract_x
_atom_site_fract_y
_atom_site_fract_z
Si Si1 0.339272 0.647481 0.546608
Si Si2 0.671412 0.592120 0.356766
Si Si3 0.337609 0.642929 0.851836
Si Si4 0.163458 0.356860 0.049497
Si Si5 0.840107 0.145741 0.242960
O O1 0.500000 0.610175 0.552142
O O2 0.356524 0.750000 0.535784
O O3 0.250000 0.608312 0.500000
O O4 0.246465 0.641339 0.597245
O O5 0.500000 0.588176 0.363615
O O6 0.750000 0.500000 0.357589
O O7 0.698989 0.629953 0.301018
O O8 0.500000 0.613658 0.857326
O O9 0.339280 0.750000 0.851810
O O10 0.242104 0.616015 0.899306
O O11 0.269007 0.613130 0.799108
O O12 0.162277 0.250000 0.049350
O O13 0.000000 0.386065 0.048018
O O14 0.250000 0.384461 0.000000
O O15 0.847411 0.250000 0.236185
O O16 0.000000 0.110031 0.234583
#
# Coordination Sequence:
#
# PCOD9504055 Si02
#       5
#    16  16  16  16  16
#     4  10  21  38  61  87 113 141 175 214 256 305
#     4  11  23  38  56  79 109 142 177 217 262 311
#     4   9  16  25  39  61  88 119 158 203 249 299
#     4   9  15  22  33  51  80 118 157 197 244 299
#     4   9  18  33  52  72  96 130 170 211 256 306
#
# _framework density 21.024258
#
# number of rings (size 3 to 8) (size 9 to 14) (size 15 to 20)
#    0.000    2.400    0.000    3.000    0.000    8.800 
#    0.000    4.000    0.000    0.000    0.000    0.000 
#    0.000    0.800    0.000    8.400    0.000   12.600 
#
# Total GULP energy -223298.682948 kJ/mol
# GULP energy per Si atom -5582.467074 kJ/mol
# Density = 2.097641 g / cm^3
# Si number density = 21.024258 Si / 1000 Ang^3
#
#
#
# Elastic Constant Matrix: (Units=GPa)
#
#
# Indices 1 2 3 4 5 6 
#
# 1 204.4705 11.9327 135.5626 0.0000 0.0000 0.0000
# 2 11.9327 17.0388 -0.3276 0.0000 0.0000 0.0000
# 3 135.5626 -0.3276 183.3267 0.0000 0.0000 0.0000
# 4 0.0000 0.0000 0.0000 -56.0255 0.0000 0.0000
# 5 0.0000 0.0000 0.0000 0.0000 -51.3510 0.0000
# 6 0.0000 0.0000 0.0000 0.0000 0.0000 11.4748
#
#
#
# Elastic Compliance Matrix: (Units=1/GPa)
#
#
# Indices 1 2 3 4 5 6 
#
# 1 0.010468 -0.007480 -0.007754 0.000000 0.000000 0.000000
# 2 -0.007480 0.064037 0.005646 0.000000 0.000000 0.000000
# 3 -0.007754 0.005646 0.011199 0.000000 0.000000 0.000000
# 4 0.000000 0.000000 0.000000 -0.017849 0.000000 0.000000
# 5 0.000000 0.000000 0.000000 0.000000 -0.019474 0.000000
# 6 0.000000 0.000000 0.000000 0.000000 0.000000 0.087148
#
#
# Mechanical properties :
#
#
# Convention : Reuss Voigt Hill
#
# Bulk Modulus (GPa) = 15.03165 77.68570 46.35868
# Shear Modulus (GPa) = 28.26760 -2.00246 13.13257
#
# Velocity S-wave (km/s) = 3.67075 -0.97699 2.50199
# Velocity P-wave (km/s) = 5.01309 5.97980 5.51766
#
# Compressibility (1/GPa) = 0.06652629
#
# Stress axis : x y z
#
# Youngs Moduli (GPa) = 95.52774 15.61606 89.29606
#
# Poissons Ratio (x) = 0.11681 0.69241
# Poissons Ratio (y) = 0.71456 -0.50414
# Poissons Ratio (z) = 0.74074 -0.08816
#
# Static dielectric constant tensor:
#      x y z
#    x 1.744900 0.000000 0.000000 
#    y 0.000000 1.806760 0.000000 
#    z 0.000000 0.000000 1.778830 
# 
# From -- ./inp_files/43254.got.cif
#   From: 2010.05.17/outbox.cif.g08.bks.cpg/sg67_22_cif.got.tgz:43254.got - 2010.06.03 18:28:57.
