data_PCOD9504346
_publ_section_title
;
Structure prediction by ZEFSAII (Michael W. Deem and Ramdas Pophale) SiO2 
 PCOD9504346
Probable space group: C M M A
;
_chemical_formula_sum "Si O2"
_cell_formula_units_Z 92
_cell_length_a 14.653751
_cell_length_b 14.878326
_cell_length_c 20.644815
_cell_angle_alpha 90.000000
_cell_angle_beta 90.000000
_cell_angle_gamma 90.000000
_cell_volume 4501.050374
_symmetry_space_group_name_H-M "C M M A"
_symmetry_group_IT_number 67
_symmetry_cell_setting 'orthorhombic'
loop_
_space_group_symop_operation_xyz
x,y,z
-x,1/2-y,z
x,-y,-z
-x,1/2+y,-z
-x,-y,-z
x,1/2+y,-z
-x,y,z
x,1/2-y,z
1/2+x,1/2+y,z
1/2-x,-y,z
1/2+x,1/2-y,-z
1/2-x,y,-z
1/2-x,1/2-y,-z
1/2+x,y,-z
1/2-x,1/2+y,z
1/2+x,-y,z
loop_
_atom_site_type_symbol
_atom_site_label
_atom_site_fract_x
_atom_site_fract_y
_atom_site_fract_z
Si Si1 0.894166 0.250000 0.933545
Si Si2 0.756065 0.606323 0.601270
Si Si3 0.389370 0.902173 0.026542
Si Si4 0.694888 0.408397 0.834931
Si Si5 0.326542 0.250000 0.206529
Si Si6 0.750000 0.250000 0.500000
Si Si7 0.398720 0.142283 0.713890
Si Si8 0.391748 0.250000 0.353197
O O1 0.888369 0.250000 0.857065
O O2 0.000000 0.250000 0.949977
O O3 0.856123 0.336048 0.970128
O O4 0.750000 0.500000 0.586111
O O5 0.796114 0.669591 0.544981
O O6 0.820565 0.614926 0.663900
O O7 0.661941 0.662752 0.617266
O O8 0.500000 0.898459 0.034159
O O9 0.345402 0.881346 0.095742
O O10 0.366626 0.000000 0.000000
O O11 0.750000 0.500000 0.841802
O O12 0.763402 0.336304 0.804149
O O13 0.615895 0.410690 0.781001
O O14 0.373971 0.250000 0.276005
O O15 0.500000 0.123784 0.688061
O O16 0.392441 0.250000 0.725684
O O17 0.500000 0.250000 0.366705
#
# Coordination Sequence:
#
# PCOD9504346 Si02
#       8
#     8  16  16  16   8   4  16   8
#     4  10  22  38  56  76 109 159 212 270 333 402
#     4  11  22  45  71 105 140 179 229 267 322 408
#     4  10  22  40  56  80 117 161 217 276 340 409
#     4  12  23  38  61  89 125 164 218 283 338 405
#     4  12  23  39  57  87 124 160 224 273 334 411
#     4  10  22  44  74 106 146 184 212 274 340 376
#     4  11  22  41  68  97 133 173 218 280 332 381
#     4  11  24  44  67  97 144 186 222 285 346 400
#
# _framework density 20.439674
#
# number of rings (size 3 to 8) (size 9 to 14) (size 15 to 20)
#    0.000    1.043    4.348    3.130    0.000    3.826 
#    0.000    5.217    0.000    5.217    0.000    0.000 
#    0.000    0.000    0.000    0.000    0.000    0.000 
#
# Total GULP energy -256260.262098 kJ/mol
# GULP energy per Si atom -5570.875263 kJ/mol
# Density = 2.039315 g / cm^3
# Si number density = 20.439674 Si / 1000 Ang^3
#
#
#
# Elastic Constant Matrix: (Units=GPa)
#
#
# Indices 1 2 3 4 5 6 
#
# 1 85.8551 24.4508 -8.3383 0.0000 0.0000 0.0000
# 2 24.4508 137.9519 16.0106 0.0000 0.0000 0.0000
# 3 -8.3383 16.0106 52.2108 0.0000 0.0000 0.0000
# 4 0.0000 0.0000 0.0000 38.6998 0.0000 0.0000
# 5 0.0000 0.0000 0.0000 0.0000 2.0383 0.0000
# 6 0.0000 0.0000 0.0000 0.0000 0.0000 -75.5870
#
#
#
# Elastic Compliance Matrix: (Units=1/GPa)
#
#
# Indices 1 2 3 4 5 6 
#
# 1 0.012652 -0.002568 0.002808 0.000000 0.000000 0.000000
# 2 -0.002568 0.008038 -0.002875 0.000000 0.000000 0.000000
# 3 0.002808 -0.002875 0.020483 0.000000 0.000000 0.000000
# 4 0.000000 0.000000 0.000000 0.025840 0.000000 0.000000
# 5 0.000000 0.000000 0.000000 0.000000 0.490604 0.000000
# 6 0.000000 0.000000 0.000000 0.000000 0.000000 -0.013230
#
#
# Mechanical properties :
#
#
# Convention : Reuss Voigt Hill
#
# Bulk Modulus (GPa) = 27.85333 37.80710 32.83022
# Shear Modulus (GPa) = 8.90274 9.28987 9.09630
#
# Velocity S-wave (km/s) = 2.08928 2.13422 2.11187
# Velocity P-wave (km/s) = 4.41325 4.96087 4.69505
#
# Compressibility (1/GPa) = 0.03590235
#
# Stress axis : x y z
#
# Youngs Moduli (GPa) = 79.04082 124.41238 48.82044
#
# Poissons Ratio (x) = 0.31953 -0.13709
# Poissons Ratio (y) = 0.20300 0.14036
# Poissons Ratio (z) = -0.22196 0.35768
#
# Static dielectric constant tensor:
#      x y z
#    x 1.839060 0.000000 0.000000 
#    y 0.000000 1.642220 0.000000 
#    z 0.000000 0.000000 1.779560 
# 
# From -- ./inp_files/38571.got.cif
#   From: 2010.05.17/outbox.cif.g08.bks.cpg/sg67_20_cif.got.tgz:38571.got - 2010.06.03 18:28:57.
