data_PCOD9504710
_publ_section_title
;
Structure prediction by ZEFSAII (Michael W. Deem and Ramdas Pophale) SiO2 
 PCOD9504710
Probable space group: C M M A
;
_chemical_formula_sum "Si O2"
_cell_formula_units_Z 104
_cell_length_a 15.239353
_cell_length_b 22.808729
_cell_length_c 15.580841
_cell_angle_alpha 90.000000
_cell_angle_beta 90.000000
_cell_angle_gamma 90.000000
_cell_volume 5415.748772
_symmetry_space_group_name_H-M "C M M A"
_symmetry_group_IT_number 67
_symmetry_cell_setting 'orthorhombic'
loop_
_space_group_symop_operation_xyz
x,y,z
-x,1/2-y,z
x,-y,-z
-x,1/2+y,-z
-x,-y,-z
x,1/2+y,-z
-x,y,z
x,1/2-y,z
1/2+x,1/2+y,z
1/2-x,-y,z
1/2+x,1/2-y,-z
1/2-x,y,-z
1/2-x,1/2-y,-z
1/2+x,y,-z
1/2-x,1/2+y,z
1/2+x,-y,z
loop_
_atom_site_type_symbol
_atom_site_label
_atom_site_fract_x
_atom_site_fract_y
_atom_site_fract_z
Si Si1 0.250000 0.500000 0.769860
Si Si2 0.402023 0.320293 0.047077
Si Si3 0.896830 0.819437 0.342750
Si Si4 0.401254 0.820536 0.155670
Si Si5 0.402577 0.020292 0.638708
Si Si6 0.853607 0.590228 0.482254
Si Si7 0.718649 0.126761 0.189988
O O1 0.328104 0.477276 0.709307
O O2 0.282308 0.556859 0.819473
O O3 0.500000 0.339258 0.075487
O O4 0.398749 0.250000 0.054671
O O5 0.326957 0.345704 0.106648
O O6 0.393688 0.333872 0.946273
O O7 0.877297 0.750000 0.343106
O O8 0.879012 0.850256 0.434249
O O9 0.837530 0.852255 0.272190
O O10 0.000000 0.826582 0.322022
O O11 0.500000 0.838106 0.183580
O O12 0.395028 0.750000 0.164951
O O13 0.318203 0.850500 0.199300
O O14 0.500000 0.015091 0.674674
O O15 0.397211 0.074543 0.572871
O O16 0.381664 0.962329 0.581875
O O17 0.750000 0.587350 0.500000
#
# Coordination Sequence:
#
# PCOD9504710 Si02
#       7
#     8  16  16  16  16  16  16
#     4  12  26  39  51  86 118 150 198 242 269 338
#     4   9  18  35  62  91 113 141 188 240 288 346
#     4  11  23  37  57  90 124 150 182 233 298 355
#     4   9  19  37  61  87 112 144 193 242 282 338
#     4  11  20  37  61  78 105 148 193 242 280 316
#     4  11  19  36  59  83 111 139 189 237 281 337
#     4  12  22  36  56  80 120 158 190 232 288 339
#
# _framework density 19.203254999999999
#
# number of rings (size 3 to 8) (size 9 to 14) (size 15 to 20)
#    0.000    1.385    3.077    5.538    0.000    4.000 
#    0.000    1.538    0.000    1.846    0.000    4.308 
#    0.000    0.000    0.000    0.000    0.000    0.000 
#
# Total GULP energy -290463.783406 kJ/mol
# GULP energy per Si atom -5585.841989 kJ/mol
# Density = 1.915955 g / cm^3
# Si number density = 19.203255 Si / 1000 Ang^3
#
#
#
# Elastic Constant Matrix: (Units=GPa)
#
#
# Indices 1 2 3 4 5 6 
#
# 1 139.3650 35.6954 29.5934 0.0000 0.0000 0.0000
# 2 35.6954 81.0605 17.5646 0.0000 0.0000 0.0000
# 3 29.5934 17.5646 24.3339 0.0000 0.0000 0.0000
# 4 0.0000 0.0000 0.0000 17.9589 0.0000 0.0000
# 5 0.0000 0.0000 0.0000 0.0000 -360.8600 0.0000
# 6 0.0000 0.0000 0.0000 0.0000 0.0000 9.5623
#
#
#
# Elastic Compliance Matrix: (Units=1/GPa)
#
#
# Indices 1 2 3 4 5 6 
#
# 1 0.009963 -0.002088 -0.010609 0.000000 0.000000 0.000000
# 2 -0.002088 0.015062 -0.008332 0.000000 0.000000 0.000000
# 3 -0.010609 -0.008332 0.060011 0.000000 0.000000 0.000000
# 4 0.000000 0.000000 0.000000 0.055683 0.000000 0.000000
# 5 0.000000 0.000000 0.000000 0.000000 -0.002771 0.000000
# 6 0.000000 0.000000 0.000000 0.000000 0.000000 0.104578
#
#
# Mechanical properties :
#
#
# Convention : Reuss Voigt Hill
#
# Bulk Modulus (GPa) = 23.26824 45.60733 34.43779
# Shear Modulus (GPa) = 16.72753 -55.87403 -19.57325
#
# Velocity S-wave (km/s) = 2.95460 -5.39993 -3.19606
# Velocity P-wave (km/s) = 4.87675 3.88300 2.08627
#
# Compressibility (1/GPa) = 0.04297704
#
# Stress axis : x y z
#
# Youngs Moduli (GPa) = 100.37056 66.39443 16.66368
#
# Poissons Ratio (x) = 0.13866 0.17678
# Poissons Ratio (y) = 0.20962 0.13884
# Poissons Ratio (z) = 1.06483 0.55318
#
# Static dielectric constant tensor:
#      x y z
#    x 1.689690 0.000000 0.000000 
#    y 0.000000 1.666030 0.000000 
#    z 0.000000 0.000000 1.653700 
# 
# From -- ./inp_files/33721.got.cif
#   From: 2010.05.17/outbox.cif.g08.bks.cpg/sg67_17_cif.got.tgz:33721.got - 2010.06.03 18:28:57.
