data_PCOD9504286
_publ_section_title
;
Structure prediction by ZEFSAII (Michael W. Deem and Ramdas Pophale) SiO2 
 PCOD9504286
Probable space group: C M M A
;
_chemical_formula_sum "Si O2"
_cell_formula_units_Z 92
_cell_length_a 14.853863
_cell_length_b 14.365920
_cell_length_c 21.360614
_cell_angle_alpha 90.000000
_cell_angle_beta 90.000000
_cell_angle_gamma 90.000000
_cell_volume 4558.128766
_symmetry_space_group_name_H-M "C M M A"
_symmetry_group_IT_number 67
_symmetry_cell_setting 'orthorhombic'
loop_
_space_group_symop_operation_xyz
x,y,z
-x,1/2-y,z
x,-y,-z
-x,1/2+y,-z
-x,-y,-z
x,1/2+y,-z
-x,y,z
x,1/2-y,z
1/2+x,1/2+y,z
1/2-x,-y,z
1/2+x,1/2-y,-z
1/2-x,y,-z
1/2-x,1/2-y,-z
1/2+x,y,-z
1/2-x,1/2+y,z
1/2+x,-y,z
loop_
_atom_site_type_symbol
_atom_site_label
_atom_site_fract_x
_atom_site_fract_y
_atom_site_fract_z
Si Si1 0.100424 0.434438 0.238917
Si Si2 0.000000 0.552167 0.565743
Si Si3 0.500000 0.250000 0.617532
Si Si4 0.680520 0.250000 0.710379
Si Si5 0.388996 0.250000 0.339310
Si Si6 0.350245 0.015442 0.895911
Si Si7 0.393862 0.355436 0.008815
Si Si8 0.348403 0.457533 0.354994
O O1 0.161736 0.345168 0.252298
O O2 0.097484 0.458108 0.166006
O O3 0.130713 0.521030 0.281762
O O4 0.000000 0.408779 0.259998
O O5 0.000000 0.500000 0.500000
O O6 0.913948 0.519339 0.604244
O O7 0.000000 0.662213 0.571430
O O8 0.596644 0.250000 0.657856
O O9 0.788917 0.250000 0.696971
O O10 0.500000 0.250000 0.319841
O O11 0.373709 0.350978 0.370705
O O12 0.381922 0.923036 0.932028
O O13 0.250000 0.000000 0.873210
O O14 0.349181 0.095285 0.949062
O O15 0.500000 0.353819 0.994398
O O16 0.362955 0.250000 0.019345
O O17 0.250000 0.500000 0.366169
#
# Coordination Sequence:
#
# PCOD9504286 Si02
#       8
#    16   8   4   8   8  16  16  16
#     4  12  22  41  68 100 133 174 234 297 354 425
#     4  12  26  44  74 106 146 198 240 300 354 428
#     4  12  20  50  74 114 146 194 252 308 362 420
#     4  12  22  40  75 105 138 190 236 298 374 425
#     4  12  24  41  72 103 147 199 233 291 377 447
#     4  11  24  38  60  93 129 169 217 288 353 421
#     4  10  21  42  64  85 121 173 226 283 349 424
#     4  12  23  45  69 101 145 190 241 297 360 430
#
# _framework density 20.183721999999999
#
# number of rings (size 3 to 8) (size 9 to 14) (size 15 to 20)
#    0.000    0.522    6.087    3.652    1.217    2.435 
#    1.565    0.000    0.000    3.130    0.000    0.000 
#    0.000    0.000    0.000    0.000    0.000    0.000 
#
# Total GULP energy -256276.176997 kJ/mol
# GULP energy per Si atom -5571.221239 kJ/mol
# Density = 2.013778 g / cm^3
# Si number density = 20.183722 Si / 1000 Ang^3
#
#
#
# Elastic Constant Matrix: (Units=GPa)
#
#
# Indices 1 2 3 4 5 6 
#
# 1 154.0985 23.1049 17.4643 0.0000 0.0000 0.0000
# 2 23.1049 176.9310 38.3909 0.0000 0.0000 0.0000
# 3 17.4643 38.3909 88.8496 0.0000 0.0000 0.0000
# 4 0.0000 0.0000 0.0000 16.5380 0.0000 0.0000
# 5 0.0000 0.0000 0.0000 0.0000 5.8183 0.0000
# 6 0.0000 0.0000 0.0000 0.0000 0.0000 34.0224
#
#
#
# Elastic Compliance Matrix: (Units=1/GPa)
#
#
# Indices 1 2 3 4 5 6 
#
# 1 0.006704 -0.000651 -0.001037 0.000000 0.000000 0.000000
# 2 -0.000651 0.006300 -0.002594 0.000000 0.000000 0.000000
# 3 -0.001037 -0.002594 0.012580 0.000000 0.000000 0.000000
# 4 0.000000 0.000000 0.000000 0.060467 0.000000 0.000000
# 5 0.000000 0.000000 0.000000 0.000000 0.171871 0.000000
# 6 0.000000 0.000000 0.000000 0.000000 0.000000 0.029392
#
#
# Mechanical properties :
#
#
# Convention : Reuss Voigt Hill
#
# Bulk Modulus (GPa) = 58.75129 64.19993 61.47561
# Shear Modulus (GPa) = 16.58099 34.00368 25.29233
#
# Velocity S-wave (km/s) = 2.86930 4.10897 3.54376
# Velocity P-wave (km/s) = 6.33629 7.37485 6.87521
#
# Compressibility (1/GPa) = 0.01702090
#
# Stress axis : x y z
#
# Youngs Moduli (GPa) = 149.15598 158.73606 79.49338
#
# Poissons Ratio (x) = 0.10327 0.08241
# Poissons Ratio (y) = 0.09703 0.20622
# Poissons Ratio (z) = 0.15463 0.41179
#
# Static dielectric constant tensor:
#      x y z
#    x 1.779010 0.000000 0.000000 
#    y 0.000000 1.734480 0.000000 
#    z 0.000000 0.000000 1.697390 
# 
# From -- ./inp_files/38587.got.cif
#   From: 2010.05.17/outbox.cif.g08.bks.cpg/sg67_20_cif.got.tgz:38587.got - 2010.06.03 18:28:57.
