data_PCOD9504032
_publ_section_title
;
Structure prediction by ZEFSAII (Michael W. Deem and Ramdas Pophale) SiO2 
 PCOD9504032
Probable space group: C M M A
;
_chemical_formula_sum "Si O2"
_cell_formula_units_Z 80
_cell_length_a 17.813264
_cell_length_b 9.140587
_cell_length_c 26.989035
_cell_angle_alpha 90.000000
_cell_angle_beta 90.000000
_cell_angle_gamma 90.000000
_cell_volume 4394.454251
_symmetry_space_group_name_H-M "C M M A"
_symmetry_group_IT_number 67
_symmetry_cell_setting 'orthorhombic'
loop_
_space_group_symop_operation_xyz
x,y,z
-x,1/2-y,z
x,-y,-z
-x,1/2+y,-z
-x,-y,-z
x,1/2+y,-z
-x,y,z
x,1/2-y,z
1/2+x,1/2+y,z
1/2-x,-y,z
1/2+x,1/2-y,-z
1/2-x,y,-z
1/2-x,1/2-y,-z
1/2+x,y,-z
1/2-x,1/2+y,z
1/2+x,-y,z
loop_
_atom_site_type_symbol
_atom_site_label
_atom_site_fract_x
_atom_site_fract_y
_atom_site_fract_z
Si Si1 0.090536 0.080490 0.050378
Si Si2 0.591688 0.417998 0.549741
Si Si3 0.413613 0.927868 0.757344
Si Si4 0.408368 0.580545 0.648890
Si Si5 0.669249 0.926556 0.858340
O O1 0.115717 0.250000 0.051665
O O2 0.000000 0.080497 0.050572
O O3 0.119134 0.991303 0.097580
O O4 0.115629 0.000000 0.000000
O O5 0.616383 0.500000 0.500000
O O6 0.500000 0.423224 0.550005
O O7 0.614329 0.250000 0.547916
O O8 0.616732 0.492033 0.600899
O O9 0.500000 0.976198 0.763872
O O10 0.414938 0.750000 0.754975
O O11 0.385035 0.976629 0.703184
O O12 0.365651 0.968318 0.804995
O O13 0.500000 0.577920 0.649963
O O14 0.386222 0.750000 0.643516
O O15 0.672656 0.750000 0.861390
O O16 0.750000 0.000000 0.862966
#
# Coordination Sequence:
#
# PCOD9504032 Si02
#       5
#    16  16  16  16  16
#     4  10  21  38  60  85 110 136 169 208 250 298
#     4   9  15  21  30  48  77 113 149 185 230 283
#     4   8  15  29  50  72  93 124 166 207 248 297
#     4   8  13  23  39  58  80 109 149 194 237 284
#     4  11  22  36  54  77 107 140 174 211 253 300
#
# _framework density 18.204764000000001
#
# number of rings (size 3 to 8) (size 9 to 14) (size 15 to 20)
#    0.000    2.800    0.000    3.600    0.000    4.800 
#    0.000    4.000    0.000    4.800    0.000    0.000 
#    0.000    0.800    0.000    9.200    0.000   11.200 
#
# Total GULP energy -222960.062278 kJ/mol
# GULP energy per Si atom -5574.001557 kJ/mol
# Density = 1.816333 g / cm^3
# Si number density = 18.204764 Si / 1000 Ang^3
#
#
#
# Elastic Constant Matrix: (Units=GPa)
#
#
# Indices 1 2 3 4 5 6 
#
# 1 9.2092 15.7515 18.5989 0.0000 0.0000 0.0000
# 2 15.7515 102.2729 79.0934 0.0000 0.0000 0.0000
# 3 18.5989 79.0934 188.2070 0.0000 0.0000 0.0000
# 4 0.0000 0.0000 0.0000 31.7879 0.0000 0.0000
# 5 0.0000 0.0000 0.0000 0.0000 -9.7835 0.0000
# 6 0.0000 0.0000 0.0000 0.0000 0.0000 12.0856
#
#
#
# Elastic Compliance Matrix: (Units=1/GPa)
#
#
# Indices 1 2 3 4 5 6 
#
# 1 0.154820 -0.017796 -0.007821 0.000000 0.000000 0.000000
# 2 -0.017796 0.016531 -0.005189 0.000000 0.000000 0.000000
# 3 -0.007821 -0.005189 0.008267 0.000000 0.000000 0.000000
# 4 0.000000 0.000000 0.000000 0.031459 0.000000 0.000000
# 5 0.000000 0.000000 0.000000 0.000000 -0.102213 0.000000
# 6 0.000000 0.000000 0.000000 0.000000 0.000000 0.082743
#
#
# Mechanical properties :
#
#
# Convention : Reuss Voigt Hill
#
# Bulk Modulus (GPa) = 8.47410 58.50853 33.49131
# Shear Modulus (GPa) = 17.09091 19.23436 18.16263
#
# Velocity S-wave (km/s) = 3.06733 3.25400 3.16204
# Velocity P-wave (km/s) = 4.14846 6.80639 5.63634
#
# Compressibility (1/GPa) = 0.11800670
#
# Stress axis : x y z
#
# Youngs Moduli (GPa) = 6.45911 60.49139 120.96850
#
# Poissons Ratio (x) = 1.07653 0.94605
# Poissons Ratio (y) = 0.11495 0.62765
# Poissons Ratio (z) = 0.05051 0.31386
#
# Static dielectric constant tensor:
#      x y z
#    x 1.607800 0.000000 0.000000 
#    y 0.000000 1.614410 0.000000 
#    z 0.000000 0.000000 1.631270 
# 
# From -- ./inp_files/43244.got.cif
#   From: 2010.05.17/outbox.cif.g08.bks.cpg/sg67_22_cif.got.tgz:43244.got - 2010.06.03 18:28:57.
