data_PCOD9504453
_publ_section_title
;
Structure prediction by ZEFSAII (Michael W. Deem and Ramdas Pophale) SiO2 
 PCOD9504453
Probable space group: C M M A
;
_chemical_formula_sum "Si O2"
_cell_formula_units_Z 116
_cell_length_a 18.748240
_cell_length_b 18.609965
_cell_length_c 16.877048
_cell_angle_alpha 90.000000
_cell_angle_beta 90.000000
_cell_angle_gamma 90.000000
_cell_volume 5888.471078
_symmetry_space_group_name_H-M "C M M A"
_symmetry_group_IT_number 67
_symmetry_cell_setting 'orthorhombic'
loop_
_space_group_symop_operation_xyz
x,y,z
-x,1/2-y,z
x,-y,-z
-x,1/2+y,-z
-x,-y,-z
x,1/2+y,-z
-x,y,z
x,1/2-y,z
1/2+x,1/2+y,z
1/2-x,-y,z
1/2+x,1/2-y,-z
1/2-x,y,-z
1/2-x,1/2-y,-z
1/2+x,y,-z
1/2-x,1/2+y,z
1/2+x,-y,z
loop_
_atom_site_type_symbol
_atom_site_label
_atom_site_fract_x
_atom_site_fract_y
_atom_site_fract_z
Si Si1 0.140454 0.597733 0.093261
Si Si2 0.696991 0.835461 0.745826
Si Si3 0.585783 0.169527 0.936402
Si Si4 0.311508 0.557524 0.314788
Si Si5 0.750000 0.500000 0.000000
Si Si6 0.417911 0.422228 0.541527
Si Si7 0.418305 0.964503 0.174892
Si Si8 0.080615 0.836190 0.385025
O O1 0.169443 0.640910 0.168268
O O2 0.085523 0.536787 0.122828
O O3 0.110417 0.648249 0.024377
O O4 0.203087 0.550862 0.054942
O O5 0.705142 0.750000 0.742649
O O6 0.769282 0.875345 0.721996
O O7 0.637045 0.857758 0.681281
O O8 0.500000 0.170947 0.935553
O O9 0.611692 0.250000 0.914953
O O10 0.605860 0.104429 0.877473
O O11 0.250000 0.500000 0.335962
O O12 0.360811 0.578667 0.388594
O O13 0.363882 0.526991 0.247177
O O14 0.415952 0.500000 0.500000
O O15 0.500000 0.409725 0.568773
O O16 0.401119 0.366535 0.471319
O O17 0.500000 0.952592 0.200934
O O18 0.079534 0.750000 0.387423
O O19 0.000000 0.861836 0.365887
#
# Coordination Sequence:
#
# PCOD9504453 Si02
#       8
#    16  16  16  16   4  16  16  16
#     4  12  22  41  63  90 123 163 211 259 315 375
#     4  11  25  41  62  95 129 167 211 257 316 381
#     4  10  22  40  62  90 121 155 204 264 319 370
#     4  12  24  42  61  91 129 168 207 260 313 375
#     4  12  24  40  64  88 124 166 208 260 316 372
#     4  10  22  40  65  95 123 160 212 260 310 370
#     4  11  23  41  66  91 122 167 215 262 317 375
#     4   9  20  41  65  92 128 164 202 255 314 371
#
# _framework density 19.699511000000001
#
# number of rings (size 3 to 8) (size 9 to 14) (size 15 to 20)
#    0.000    1.241    2.759    2.897    0.000    5.241 
#    0.000    3.448    0.000    4.138    0.000    0.000 
#    0.000    0.000    0.000    0.000    0.000    0.000 
#
# Total GULP energy -324200.825563 kJ/mol
# GULP energy per Si atom -5589.669406 kJ/mol
# Density = 1.965467 g / cm^3
# Si number density = 19.699511 Si / 1000 Ang^3
#
#
#
# Elastic Constant Matrix: (Units=GPa)
#
#
# Indices 1 2 3 4 5 6 
#
# 1 84.8272 18.8539 48.7862 0.0000 0.0000 0.0000
# 2 18.8539 68.6640 5.4003 0.0000 0.0000 0.0000
# 3 48.7862 5.4003 74.3475 0.0000 0.0000 0.0000
# 4 0.0000 0.0000 0.0000 36.4806 0.0000 0.0000
# 5 0.0000 0.0000 0.0000 0.0000 29.1971 0.0000
# 6 0.0000 0.0000 0.0000 0.0000 0.0000 -25.5283
#
#
#
# Elastic Compliance Matrix: (Units=1/GPa)
#
#
# Indices 1 2 3 4 5 6 
#
# 1 0.020251 -0.004541 -0.012959 0.000000 0.000000 0.000000
# 2 -0.004541 0.015666 0.001842 0.000000 0.000000 0.000000
# 3 -0.012959 0.001842 0.021820 0.000000 0.000000 0.000000
# 4 0.000000 0.000000 0.000000 0.027412 0.000000 0.000000
# 5 0.000000 0.000000 0.000000 0.000000 0.034250 0.000000
# 6 0.000000 0.000000 0.000000 0.000000 0.000000 -0.039172
#
#
# Mechanical properties :
#
#
# Convention : Reuss Voigt Hill
#
# Bulk Modulus (GPa) = 37.84892 41.54661 39.69776
# Shear Modulus (GPa) = 41.54600 18.34978 29.94789
#
# Velocity S-wave (km/s) = 4.59735 3.05533 3.90325
# Velocity P-wave (km/s) = 6.88736 5.79506 6.36468
#
# Compressibility (1/GPa) = 0.02642083
#
# Stress axis : x y z
#
# Youngs Moduli (GPa) = 49.38070 63.83345 45.82985
#
# Poissons Ratio (x) = 0.28989 0.59389
# Poissons Ratio (y) = 0.22426 -0.08442
# Poissons Ratio (z) = 0.63990 -0.11759
#
# Static dielectric constant tensor:
#      x y z
#    x 1.702040 0.000000 0.000000 
#    y 0.000000 1.687630 0.000000 
#    z 0.000000 0.000000 1.670970 
# 
# From -- ./inp_files/34367.got.cif
#   From: 2010.05.17/outbox.cif.g08.bks.cpg/sg67_18_cif.got.tgz:34367.got - 2010.06.03 18:28:57.
