data_PCOD9504226
_publ_section_title
;
Structure prediction by ZEFSAII (Michael W. Deem and Ramdas Pophale) SiO2 
 PCOD9504226
Probable space group: C M M A
;
_chemical_formula_sum "Si O2"
_cell_formula_units_Z 68
_cell_length_a 19.651763
_cell_length_b 27.041047
_cell_length_c 6.330739
_cell_angle_alpha 90.000000
_cell_angle_beta 90.000000
_cell_angle_gamma 90.000000
_cell_volume 3364.181591
_symmetry_space_group_name_H-M "C M M A"
_symmetry_group_IT_number 67
_symmetry_cell_setting 'orthorhombic'
loop_
_space_group_symop_operation_xyz
x,y,z
-x,1/2-y,z
x,-y,-z
-x,1/2+y,-z
-x,-y,-z
x,1/2+y,-z
-x,y,z
x,1/2-y,z
1/2+x,1/2+y,z
1/2-x,-y,z
1/2+x,1/2-y,-z
1/2-x,y,-z
1/2-x,1/2-y,-z
1/2+x,y,-z
1/2-x,1/2+y,z
1/2+x,-y,z
loop_
_atom_site_type_symbol
_atom_site_label
_atom_site_fract_x
_atom_site_fract_y
_atom_site_fract_z
Si Si1 0.425572 0.117666 0.335131
Si Si2 0.115418 0.962150 0.671098
Si Si3 0.826831 0.381843 0.048704
Si Si4 0.000000 0.500000 0.000000
Si Si5 0.578512 0.808277 0.310759
O O1 0.500000 0.112390 0.231279
O O2 0.421185 0.079128 0.526079
O O3 0.367849 0.108658 0.166058
O O4 0.418056 0.170449 0.450503
O O5 0.144974 0.000000 0.500000
O O6 0.168716 0.931359 0.810515
O O7 0.059977 0.987095 0.823056
O O8 0.750000 0.367725 0.000000
O O9 0.868636 0.339130 0.170904
O O10 0.500000 0.817367 0.240611
O O11 0.591225 0.750000 0.302956
#
# Coordination Sequence:
#
# PCOD9504226 Si02
#       5
#    16  16  16   4  16
#     4  10  21  40  64  92 124 168 213 274 331 381
#     4  11  24  39  63  92 125 163 218 277 328 389
#     4  11  25  42  62  93 136 180 217 264 327 394
#     4  12  22  40  66  98 118 148 216 280 340 382
#     4   9  20  40  67 100 131 167 223 276 326 389
#
# _framework density 20.212938999999999
#
# number of rings (size 3 to 8) (size 9 to 14) (size 15 to 20)
#    0.000    1.647    1.176    2.471    6.588    5.176 
#    0.000   12.353    0.000    0.000    0.000    0.000 
#    0.000    0.000    0.000    0.000    0.000    0.000 
#
# Total GULP energy -189451.890242 kJ/mol
# GULP energy per Si atom -5572.114419 kJ/mol
# Density = 2.016693 g / cm^3
# Si number density = 20.212939 Si / 1000 Ang^3
#
#
#
# Elastic Constant Matrix: (Units=GPa)
#
#
# Indices 1 2 3 4 5 6 
#
# 1 125.8012 40.5815 56.8720 0.0000 0.0000 0.0000
# 2 40.5815 96.1828 49.8078 0.0000 0.0000 0.0000
# 3 56.8720 49.8078 111.8973 0.0000 0.0000 0.0000
# 4 0.0000 0.0000 0.0000 24.6452 0.0000 0.0000
# 5 0.0000 0.0000 0.0000 0.0000 0.4060 0.0000
# 6 0.0000 0.0000 0.0000 0.0000 0.0000 10.1995
#
#
#
# Elastic Compliance Matrix: (Units=1/GPa)
#
#
# Indices 1 2 3 4 5 6 
#
# 1 0.010667 -0.002200 -0.004442 0.000000 0.000000 0.000000
# 2 -0.002200 0.013965 -0.005098 0.000000 0.000000 0.000000
# 3 -0.004442 -0.005098 0.013464 0.000000 0.000000 0.000000
# 4 0.000000 0.000000 0.000000 0.040576 0.000000 0.000000
# 5 0.000000 0.000000 0.000000 0.000000 2.462954 0.000000
# 6 0.000000 0.000000 0.000000 0.000000 0.000000 0.098044
#
#
# Mechanical properties :
#
#
# Convention : Reuss Voigt Hill
#
# Bulk Modulus (GPa) = 68.42187 69.82267 69.12227
# Shear Modulus (GPa) = 1.87405 19.49147 10.68276
#
# Velocity S-wave (km/s) = 0.96393 3.10870 2.30143
# Velocity P-wave (km/s) = 5.92983 6.89231 6.42910
#
# Compressibility (1/GPa) = 0.01461521
#
# Stress axis : x y z
#
# Youngs Moduli (GPa) = 93.74682 71.60692 74.27401
#
# Poissons Ratio (x) = 0.15756 0.32994
# Poissons Ratio (y) = 0.20627 0.37864
# Poissons Ratio (z) = 0.41644 0.36504
#
# Static dielectric constant tensor:
#      x y z
#    x 1.673920 0.000000 0.000000 
#    y 0.000000 1.786240 0.000000 
#    z 0.000000 0.000000 1.718150 
# 
# From -- ./inp_files/2934.got.cif
#   From: 2010.05.17/outbox.cif.g08.bks.cpg/sg67_2_cif.got.tgz:2934.got - 2010.06.03 18:28:57.
