data_PCOD9504929
_publ_section_title
;
Structure prediction by ZEFSAII (Michael W. Deem and Ramdas Pophale) SiO2 
 PCOD9504929
Probable space group: C M M A
;
_chemical_formula_sum "Si O2"
_cell_formula_units_Z 68
_cell_length_a 21.306121
_cell_length_b 17.528204
_cell_length_c 7.586840
_cell_angle_alpha 90.000000
_cell_angle_beta 90.000000
_cell_angle_gamma 90.000000
_cell_volume 2833.366361
_symmetry_space_group_name_H-M "C M M A"
_symmetry_group_IT_number 67
_symmetry_cell_setting 'orthorhombic'
loop_
_space_group_symop_operation_xyz
x,y,z
-x,1/2-y,z
x,-y,-z
-x,1/2+y,-z
-x,-y,-z
x,1/2+y,-z
-x,y,z
x,1/2-y,z
1/2+x,1/2+y,z
1/2-x,-y,z
1/2+x,1/2-y,-z
1/2-x,y,-z
1/2-x,1/2-y,-z
1/2+x,y,-z
1/2-x,1/2+y,z
1/2+x,-y,z
loop_
_atom_site_type_symbol
_atom_site_label
_atom_site_fract_x
_atom_site_fract_y
_atom_site_fract_z
Si Si1 0.428319 0.511997 0.309103
Si Si2 0.614540 0.638906 0.812110
Si Si3 0.246921 0.910431 0.215548
Si Si4 0.876511 0.166668 0.221115
Si Si5 0.500000 0.750000 0.706050
O O1 0.398022 0.500000 0.500000
O O2 0.500000 0.488789 0.318247
O O3 0.398388 0.452120 0.176242
O O4 0.424150 0.600426 0.269284
O O5 0.684372 0.635941 0.730318
O O6 0.557043 0.683293 0.720152
O O7 0.620317 0.670197 0.009195
O O8 0.308705 0.865418 0.274109
O O9 0.250000 0.000000 0.269392
O O10 0.250000 0.910772 0.000000
O O11 0.890657 0.250000 0.294656
#
# Coordination Sequence:
#
# PCOD9504929 Si02
#       5
#    16  16  16  16   4
#     4  11  25  44  62  87 128 178 217 255 324 397
#     4  11  22  40  64  95 130 164 214 264 326 383
#     4   9  18  35  62  94 127 167 204 259 332 387
#     4  11  23  39  66  99 127 160 215 276 322 376
#     4  12  24  36  62 106 130 168 214 278 316 376
#
# _framework density 23.99972
#
# number of rings (size 3 to 8) (size 9 to 14) (size 15 to 20)
#    0.000    1.412    4.706    0.706    3.294    2.824 
#    2.118    2.353    0.000    1.412    0.000    0.000 
#    0.000    0.000    0.000    0.000    0.000    0.000 
#
# Total GULP energy -189346.013871 kJ/mol
# GULP energy per Si atom -5569.000408 kJ/mol
# Density = 2.394510 g / cm^3
# Si number density = 23.999720 Si / 1000 Ang^3
#
#
#
# Elastic Constant Matrix: (Units=GPa)
#
#
# Indices 1 2 3 4 5 6 
#
# 1 112.9116 18.5922 7.2557 0.0000 0.0000 0.0000
# 2 18.5922 194.0257 26.6764 0.0000 0.0000 0.0000
# 3 7.2557 26.6764 36.1131 0.0000 0.0000 0.0000
# 4 0.0000 0.0000 0.0000 -1.6432 0.0000 0.0000
# 5 0.0000 0.0000 0.0000 0.0000 6.5949 0.0000
# 6 0.0000 0.0000 0.0000 0.0000 0.0000 14.7031
#
#
#
# Elastic Compliance Matrix: (Units=1/GPa)
#
#
# Indices 1 2 3 4 5 6 
#
# 1 0.009054 -0.000687 -0.001311 0.000000 0.000000 0.000000
# 2 -0.000687 0.005789 -0.004138 0.000000 0.000000 0.000000
# 3 -0.001311 -0.004138 0.031011 0.000000 0.000000 0.000000
# 4 0.000000 0.000000 0.000000 -0.608585 0.000000 0.000000
# 5 0.000000 0.000000 0.000000 0.000000 0.151632 0.000000
# 6 0.000000 0.000000 0.000000 0.000000 0.000000 0.068013
#
#
# Mechanical properties :
#
#
# Convention : Reuss Voigt Hill
#
# Bulk Modulus (GPa) = 29.77936 49.78876 39.78406
# Shear Modulus (GPa) = -15.64362 23.29938 3.82788
#
# Velocity S-wave (km/s) = -2.55586 3.11918 1.26429
# Velocity P-wave (km/s) = 1.93010 5.81059 4.32945
#
# Compressibility (1/GPa) = 0.03358031
#
# Stress axis : x y z
#
# Youngs Moduli (GPa) = 110.44939 172.74906 32.24664
#
# Poissons Ratio (x) = 0.11873 0.04229
# Poissons Ratio (y) = 0.07591 0.13344
# Poissons Ratio (z) = 0.14484 0.71484
#
# Static dielectric constant tensor:
#      x y z
#    x 1.901570 0.000000 0.000000 
#    y 0.000000 1.887190 0.000000 
#    z 0.000000 0.000000 2.002660 
# 
# From -- ./inp_files/9476.got.cif
#   From: 2010.05.17/outbox.cif.g08.bks.cpg/sg67_5_cif.got.tgz:9476.got - 2010.06.03 18:28:57.
