data_PCOD9504679
_publ_section_title
;
Structure prediction by ZEFSAII (Michael W. Deem and Ramdas Pophale) SiO2 
 PCOD9504679
Probable space group: C M M A
;
_chemical_formula_sum "Si O2"
_cell_formula_units_Z 88
_cell_length_a 9.471857
_cell_length_b 14.901009
_cell_length_c 30.800439
_cell_angle_alpha 90.000000
_cell_angle_beta 90.000000
_cell_angle_gamma 90.000000
_cell_volume 4347.180934
_symmetry_space_group_name_H-M "C M M A"
_symmetry_group_IT_number 67
_symmetry_cell_setting 'orthorhombic'
loop_
_space_group_symop_operation_xyz
x,y,z
-x,1/2-y,z
x,-y,-z
-x,1/2+y,-z
-x,-y,-z
x,1/2+y,-z
-x,y,z
x,1/2-y,z
1/2+x,1/2+y,z
1/2-x,-y,z
1/2+x,1/2-y,-z
1/2-x,y,-z
1/2-x,1/2-y,-z
1/2+x,y,-z
1/2-x,1/2+y,z
1/2+x,-y,z
loop_
_atom_site_type_symbol
_atom_site_label
_atom_site_fract_x
_atom_site_fract_y
_atom_site_fract_z
Si Si1 0.667495 0.914212 0.108502
Si Si2 0.337888 0.859791 0.542325
Si Si3 0.837865 0.640462 0.290635
Si Si4 0.333787 0.750000 0.044531
Si Si5 0.663213 0.141538 0.192451
Si Si6 0.338537 0.640107 0.373320
O O1 0.500000 0.927455 0.111677
O O2 0.696449 0.834428 0.075186
O O3 0.732476 0.892779 0.155702
O O4 0.750000 0.000000 0.091747
O O5 0.500000 0.890329 0.541191
O O6 0.340691 0.750000 0.542229
O O7 0.250000 0.887402 0.500000
O O8 0.256970 0.887335 0.585946
O O9 0.837208 0.750000 0.290852
O O10 0.800025 0.613045 0.241576
O O11 0.732537 0.611002 0.328243
O O12 0.000000 0.613459 0.299590
O O13 0.500000 0.750000 0.034520
O O14 0.250000 0.750000 0.000000
O O15 0.500000 0.114643 0.183793
O O16 0.666743 0.250000 0.191519
O O17 0.500000 0.610098 0.377550
O O18 0.339992 0.750000 0.373312
#
# Coordination Sequence:
#
# PCOD9504679 Si02
#       6
#    16  16  16   8  16  16
#     4  11  23  40  61  90 123 157 199 244 292 346
#     4   9  15  21  28  37  53  83 126 180 242 306
#     4   8  14  24  38  58  84 115 154 199 251 313
#     4  10  24  44  66  92 124 160 200 246 295 346
#     4   9  17  31  53  79 107 143 184 227 280 338
#     4   9  15  21  29  44  67  96 136 187 244 305
#
# _framework density 20.243005
#
# number of rings (size 3 to 8) (size 9 to 14) (size 15 to 20)
#    0.000    2.727    0.909    2.727    0.000    6.909 
#    0.000    3.636    0.000    0.000    0.000    0.000 
#    0.000    0.000    0.000    0.000    0.000    0.909 
#
# Total GULP energy -245779.432819 kJ/mol
# GULP energy per Si atom -5585.896200 kJ/mol
# Density = 2.019693 g / cm^3
# Si number density = 20.243005 Si / 1000 Ang^3
#
#
#
# Elastic Constant Matrix: (Units=GPa)
#
#
# Indices 1 2 3 4 5 6 
#
# 1 171.9483 49.4576 127.6451 0.0000 0.0000 0.0000
# 2 49.4576 65.7020 41.6952 0.0000 0.0000 0.0000
# 3 127.6451 41.6952 174.2473 0.0000 0.0000 0.0000
# 4 0.0000 0.0000 0.0000 -25.5139 0.0000 0.0000
# 5 0.0000 0.0000 0.0000 0.0000 44.4309 0.0000
# 6 0.0000 0.0000 0.0000 0.0000 0.0000 12.5711
#
#
#
# Elastic Compliance Matrix: (Units=1/GPa)
#
#
# Indices 1 2 3 4 5 6 
#
# 1 0.013885 -0.004713 -0.009044 0.000000 0.000000 0.000000
# 2 -0.004713 0.019545 -0.001225 0.000000 0.000000 0.000000
# 3 -0.009044 -0.001225 0.012657 0.000000 0.000000 0.000000
# 4 0.000000 0.000000 0.000000 -0.039194 0.000000 0.000000
# 5 0.000000 0.000000 0.000000 0.000000 0.022507 0.000000
# 6 0.000000 0.000000 0.000000 0.000000 0.000000 0.079547
#
#
# Mechanical properties :
#
#
# Convention : Reuss Voigt Hill
#
# Bulk Modulus (GPa) = 62.01619 94.38812 78.20216
# Shear Modulus (GPa) = 34.65419 19.17095 26.91257
#
# Velocity S-wave (km/s) = 4.14201 3.08074 3.65015
# Velocity P-wave (km/s) = 7.31966 7.70606 7.51534
#
# Compressibility (1/GPa) = 0.01612482
#
# Stress axis : x y z
#
# Youngs Moduli (GPa) = 72.02218 51.16443 79.00863
#
# Poissons Ratio (x) = 0.24112 0.71452
# Poissons Ratio (y) = 0.33941 0.09675
# Poissons Ratio (z) = 0.65133 0.06266
#
# Static dielectric constant tensor:
#      x y z
#    x 1.673450 0.000000 0.000000 
#    y 0.000000 1.626690 0.000000 
#    z 0.000000 0.000000 1.680590 
# 
# From -- ./inp_files/45206.got.cif
#   From: 2010.05.17/outbox.cif.g08.bks.cpg/sg67_23_cif.got.tgz:45206.got - 2010.06.03 18:28:57.
