data_PCOD9504244
_publ_section_title
;
Structure prediction by ZEFSAII (Michael W. Deem and Ramdas Pophale) SiO2 
 PCOD9504244
Probable space group: C M M A
;
_chemical_formula_sum "Si O2"
_cell_formula_units_Z 64
_cell_length_a 20.987308
_cell_length_b 15.810928
_cell_length_c 8.975645
_cell_angle_alpha 90.000000
_cell_angle_beta 90.000000
_cell_angle_gamma 90.000000
_cell_volume 2978.377651
_symmetry_space_group_name_H-M "C M M A"
_symmetry_group_IT_number 67
_symmetry_cell_setting 'orthorhombic'
loop_
_space_group_symop_operation_xyz
x,y,z
-x,1/2-y,z
x,-y,-z
-x,1/2+y,-z
-x,-y,-z
x,1/2+y,-z
-x,y,z
x,1/2-y,z
1/2+x,1/2+y,z
1/2-x,-y,z
1/2+x,1/2-y,-z
1/2-x,y,-z
1/2-x,1/2-y,-z
1/2+x,y,-z
1/2-x,1/2+y,z
1/2+x,-y,z
loop_
_atom_site_type_symbol
_atom_site_label
_atom_site_fract_x
_atom_site_fract_y
_atom_site_fract_z
Si Si1 0.500000 0.346362 0.805327
Si Si2 0.874586 0.648159 0.649298
Si Si3 0.113080 0.850653 0.306183
Si Si4 0.500000 0.417725 0.109078
Si Si5 0.248317 0.398627 0.829368
O O1 0.500000 0.250000 0.750083
O O2 0.564994 0.385189 0.742700
O O3 0.500000 0.346297 0.982114
O O4 0.875297 0.750000 0.647736
O O5 0.883239 0.621317 0.478449
O O6 0.809036 0.625334 0.729832
O O7 0.096816 0.750000 0.300401
O O8 0.183196 0.864948 0.240653
O O9 0.061707 0.903418 0.211660
O O10 0.500000 0.500000 0.000000
O O11 0.250000 0.500000 0.833696
O O12 0.250000 0.367229 0.000000
#
# Coordination Sequence:
#
# PCOD9504244 Si02
#       5
#     8  16  16   8  16
#     4  10  21  40  67  92 127 170 214 269 328 403
#     4  10  22  42  68  99 131 174 229 278 336 407
#     4  11  24  44  69  96 132 179 228 280 339 411
#     4  12  27  42  66 100 136 174 220 284 339 411
#     4  11  25  41  64  97 139 178 224 282 340 403
#
# _framework density 21.488209000000001
#
# number of rings (size 3 to 8) (size 9 to 14) (size 15 to 20)
#    0.000    1.250    0.000    4.875    7.000   10.000 
#    0.000    1.250    0.000    0.000    0.000    0.000 
#    0.000    0.000    0.000    0.000    0.000    0.000 
#
# Total GULP energy -178883.389371 kJ/mol
# GULP energy per Si atom -5590.105918 kJ/mol
# Density = 2.143930 g / cm^3
# Si number density = 21.488209 Si / 1000 Ang^3
#
#
#
# Elastic Constant Matrix: (Units=GPa)
#
#
# Indices 1 2 3 4 5 6 
#
# 1 217.6832 25.2638 121.7276 0.0000 0.0000 0.0000
# 2 25.2638 68.4313 31.2689 0.0000 0.0000 0.0000
# 3 121.7276 31.2689 209.6891 0.0000 0.0000 0.0000
# 4 0.0000 0.0000 0.0000 14.9237 0.0000 0.0000
# 5 0.0000 0.0000 0.0000 0.0000 51.7406 0.0000
# 6 0.0000 0.0000 0.0000 0.0000 0.0000 83.5257
#
#
#
# Elastic Compliance Matrix: (Units=1/GPa)
#
#
# Indices 1 2 3 4 5 6 
#
# 1 0.006839 -0.000763 -0.003856 0.000000 0.000000 0.000000
# 2 -0.000763 0.015767 -0.001908 0.000000 0.000000 0.000000
# 3 -0.003856 -0.001908 0.007292 0.000000 0.000000 0.000000
# 4 0.000000 0.000000 0.000000 0.067007 0.000000 0.000000
# 5 0.000000 0.000000 0.000000 0.000000 0.019327 0.000000
# 6 0.000000 0.000000 0.000000 0.000000 0.000000 0.011972
#
#
# Mechanical properties :
#
#
# Convention : Reuss Voigt Hill
#
# Bulk Modulus (GPa) = 59.37182 94.70270 77.03726
# Shear Modulus (GPa) = 34.04288 51.20756 42.62522
#
# Velocity S-wave (km/s) = 3.98459 4.88695 4.45866
# Velocity P-wave (km/s) = 6.98994 8.71841 7.90158
#
# Compressibility (1/GPa) = 0.01684301
#
# Stress axis : x y z
#
# Youngs Moduli (GPa) = 146.22531 63.42443 137.13340
#
# Poissons Ratio (x) = 0.04837 0.52882
# Poissons Ratio (y) = 0.11152 0.26170
# Poissons Ratio (z) = 0.56388 0.12104
#
# Static dielectric constant tensor:
#      x y z
#    x 1.745570 0.000000 0.000000 
#    y 0.000000 1.850950 0.000000 
#    z 0.000000 0.000000 1.778820 
# 
# From -- ./inp_files/9406.got.cif
#   From: 2010.05.17/outbox.cif.g08.bks.cpg/sg67_5_cif.got.tgz:9406.got - 2010.06.03 18:28:57.
