data_PCOD9504397
_publ_section_title
;
Structure prediction by ZEFSAII (Michael W. Deem and Ramdas Pophale) SiO2 
 PCOD9504397
Probable space group: C M M A
;
_chemical_formula_sum "Si O2"
_cell_formula_units_Z 56
_cell_length_a 13.767567
_cell_length_b 9.988520
_cell_length_c 18.682188
_cell_angle_alpha 90.000000
_cell_angle_beta 90.000000
_cell_angle_gamma 90.000000
_cell_volume 2569.129999
_symmetry_space_group_name_H-M "C M M A"
_symmetry_group_IT_number 67
_symmetry_cell_setting 'orthorhombic'
loop_
_space_group_symop_operation_xyz
x,y,z
-x,1/2-y,z
x,-y,-z
-x,1/2+y,-z
-x,-y,-z
x,1/2+y,-z
-x,y,z
x,1/2-y,z
1/2+x,1/2+y,z
1/2-x,-y,z
1/2+x,1/2-y,-z
1/2-x,y,-z
1/2-x,1/2-y,-z
1/2+x,y,-z
1/2-x,1/2+y,z
1/2+x,-y,z
loop_
_atom_site_type_symbol
_atom_site_label
_atom_site_fract_x
_atom_site_fract_y
_atom_site_fract_z
Si Si1 0.617651 0.596873 0.565107
Si Si2 0.114874 0.600580 0.693461
Si Si3 0.750000 0.500000 0.814890
Si Si4 0.887203 0.099526 0.936062
O O1 0.646251 0.500000 0.500000
O O2 0.500000 0.605277 0.561889
O O3 0.654434 0.750000 0.562491
O O4 0.640017 0.517118 0.637896
O O5 0.127791 0.750000 0.661604
O O6 0.180778 0.585422 0.763167
O O7 0.000000 0.587591 0.710692
O O8 0.819812 0.418075 0.867517
O O9 0.879229 0.250000 0.963874
O O10 0.000000 0.074856 0.916213
O O11 0.861696 0.000000 0.000000
#
# Coordination Sequence:
#
# PCOD9504397 Si02
#       4
#    16  16   8  16
#     4   9  17  32  57  86 117 157 204 253 304 357
#     4  10  22  39  59  87 123 161 202 249 302 360
#     4  12  23  38  63  92 122 160 202 246 297 358
#     4  10  23  43  66  92 122 157 199 247 298 355
#
# _framework density 21.797263000000001
#
# number of rings (size 3 to 8) (size 9 to 14) (size 15 to 20)
#    0.000    2.000    0.000    3.000    0.000    9.143 
#    0.000    6.429    0.000    3.429    0.000    0.000 
#    0.000    0.000    0.000    0.000    0.000    0.000 
#
# Total GULP energy -156555.071362 kJ/mol
# GULP energy per Si atom -5591.252549 kJ/mol
# Density = 2.174765 g / cm^3
# Si number density = 21.797263 Si / 1000 Ang^3
#
#
#
# Elastic Constant Matrix: (Units=GPa)
#
#
# Indices 1 2 3 4 5 6 
#
# 1 123.1713 55.0731 54.5576 0.0000 0.0000 0.0000
# 2 55.0731 187.5776 85.2359 0.0000 0.0000 0.0000
# 3 54.5576 85.2359 135.2050 0.0000 0.0000 0.0000
# 4 0.0000 0.0000 0.0000 30.6606 0.0000 0.0000
# 5 0.0000 0.0000 0.0000 0.0000 5.0259 0.0000
# 6 0.0000 0.0000 0.0000 0.0000 0.0000 -120.4662
#
#
#
# Elastic Compliance Matrix: (Units=1/GPa)
#
#
# Indices 1 2 3 4 5 6 
#
# 1 0.010208 -0.001577 -0.003125 0.000000 0.000000 0.000000
# 2 -0.001577 0.007715 -0.004227 0.000000 0.000000 0.000000
# 3 -0.003125 -0.004227 0.011322 0.000000 0.000000 0.000000
# 4 0.000000 0.000000 0.000000 0.032615 0.000000 0.000000
# 5 0.000000 0.000000 0.000000 0.000000 0.198971 0.000000
# 6 0.000000 0.000000 0.000000 0.000000 0.000000 -0.008301
#
#
# Mechanical properties :
#
#
# Convention : Reuss Voigt Hill
#
# Bulk Modulus (GPa) = 87.82278 92.85412 90.33845
# Shear Modulus (GPa) = 18.23587 -0.21680 9.00954
#
# Velocity S-wave (km/s) = 2.89556 -0.31572 2.03527
# Velocity P-wave (km/s) = 7.18034 6.52369 6.85988
#
# Compressibility (1/GPa) = 0.01138657
#
# Stress axis : x y z
#
# Youngs Moduli (GPa) = 97.96143 129.61600 88.32275
#
# Poissons Ratio (x) = 0.20443 0.27600
# Poissons Ratio (y) = 0.15450 0.37337
# Poissons Ratio (z) = 0.30612 0.54793
#
# Static dielectric constant tensor:
#      x y z
#    x 1.822670 0.000000 0.000000 
#    y 0.000000 1.781290 0.000000 
#    z 0.000000 0.000000 1.741780 
# 
# From -- ./inp_files/38211.got.cif
#   From: 2010.05.17/outbox.cif.g08.bks.cpg/sg67_20_cif.got.tgz:38211.got - 2010.06.03 18:28:57.
