data_PCOD9504498
_publ_section_title
;
Structure prediction by ZEFSAII (Michael W. Deem and Ramdas Pophale) SiO2 
 PCOD9504498
Probable space group: C M M A
;
_chemical_formula_sum "Si O2"
_cell_formula_units_Z 112
_cell_length_a 14.609602
_cell_length_b 13.975214
_cell_length_c 25.602380
_cell_angle_alpha 90.000000
_cell_angle_beta 90.000000
_cell_angle_gamma 90.000000
_cell_volume 5227.297179
_symmetry_space_group_name_H-M "C M M A"
_symmetry_group_IT_number 67
_symmetry_cell_setting 'orthorhombic'
loop_
_space_group_symop_operation_xyz
x,y,z
-x,1/2-y,z
x,-y,-z
-x,1/2+y,-z
-x,-y,-z
x,1/2+y,-z
-x,y,z
x,1/2-y,z
1/2+x,1/2+y,z
1/2-x,-y,z
1/2+x,1/2-y,-z
1/2-x,y,-z
1/2-x,1/2-y,-z
1/2+x,y,-z
1/2-x,1/2+y,z
1/2+x,-y,z
loop_
_atom_site_type_symbol
_atom_site_label
_atom_site_fract_x
_atom_site_fract_y
_atom_site_fract_z
Si Si1 0.109665 0.958901 0.743126
Si Si2 0.103419 0.633173 0.522971
Si Si3 0.212368 0.636053 0.300955
Si Si4 0.712124 0.634103 0.578833
Si Si5 0.125007 0.859587 0.957527
Si Si6 0.600397 0.011528 0.858693
Si Si7 0.161808 0.642029 0.069349
O O1 0.182069 0.892692 0.712008
O O2 0.128174 0.940441 0.804726
O O3 0.000000 0.946762 0.732541
O O4 0.144976 0.067157 0.731813
O O5 0.101749 0.750000 0.524678
O O6 0.186159 0.602477 0.561014
O O7 0.138137 0.605392 0.464920
O O8 0.000000 0.600837 0.534247
O O9 0.199384 0.750000 0.293341
O O10 0.193602 0.609797 0.361512
O O11 0.713706 0.750000 0.576663
O O12 0.094978 0.750000 0.955819
O O13 0.093072 0.918329 0.907943
O O14 0.233588 0.857442 0.948063
O O15 0.109473 0.894201 0.017133
O O16 0.500000 0.970432 0.847807
O O17 0.658273 0.924275 0.880546
O O18 0.131365 0.750000 0.079977
#
# Coordination Sequence:
#
# PCOD9504498 Si02
#       7
#    16  16  16  16  16  16  16
#     4  10  25  44  59  87 124 155 204 266 311 356
#     4   8  13  23  44  79 121 155 184 231 293 352
#     4  10  22  41  66  90 116 162 211 254 308 358
#     4   8  15  28  48  81 118 149 195 245 285 350
#     4   9  19  35  56  83 111 141 180 224 274 342
#     4  11  23  37  54  78 110 147 183 229 290 347
#     4   9  19  35  56  83 111 141 180 224 274 342
#
# _framework density 21.425986999999999
#
# number of rings (size 3 to 8) (size 9 to 14) (size 15 to 20)
#    0.000    2.714    0.000    2.571    4.000    5.714 
#    0.000    7.143    0.000    6.857    0.000    8.000 
#    0.000    0.000    0.000    0.000    0.000    0.000 
#
# Total GULP energy -312228.539859 kJ/mol
# GULP energy per Si atom -5575.509640 kJ/mol
# Density = 2.137722 g / cm^3
# Si number density = 21.425987 Si / 1000 Ang^3
#
#
#
# Elastic Constant Matrix: (Units=GPa)
#
#
# Indices 1 2 3 4 5 6 
#
# 1 81.5518 -15.8077 2.8190 0.0000 0.0000 0.0000
# 2 -15.8077 50.5563 -13.1235 0.0000 0.0000 0.0000
# 3 2.8190 -13.1235 67.7686 0.0000 0.0000 0.0000
# 4 0.0000 0.0000 0.0000 18.0122 0.0000 0.0000
# 5 0.0000 0.0000 0.0000 0.0000 43.3572 0.0000
# 6 0.0000 0.0000 0.0000 0.0000 0.0000 19.1191
#
#
#
# Elastic Compliance Matrix: (Units=1/GPa)
#
#
# Indices 1 2 3 4 5 6 
#
# 1 0.013058 0.004150 0.000261 0.000000 0.000000 0.000000
# 2 0.004150 0.022146 0.004116 0.000000 0.000000 0.000000
# 3 0.000261 0.004116 0.015542 0.000000 0.000000 0.000000
# 4 0.000000 0.000000 0.000000 0.055518 0.000000 0.000000
# 5 0.000000 0.000000 0.000000 0.000000 0.023064 0.000000
# 6 0.000000 0.000000 0.000000 0.000000 0.000000 0.052304
#
#
# Mechanical properties :
#
#
# Convention : Reuss Voigt Hill
#
# Bulk Modulus (GPa) = 14.74925 16.40582 15.57754
# Shear Modulus (GPa) = 26.71252 31.16360 28.93806
#
# Velocity S-wave (km/s) = 3.53474 3.81790 3.67905
# Velocity P-wave (km/s) = 4.85366 5.20660 5.03322
#
# Compressibility (1/GPa) = 0.06780005
#
# Stress axis : x y z
#
# Youngs Moduli (GPa) = 76.58352 45.15464 64.34041
#
# Poissons Ratio (x) = -0.18741 -0.01676
# Poissons Ratio (y) = -0.31786 -0.26482
# Poissons Ratio (z) = -0.01996 -0.18586
#
# Static dielectric constant tensor:
#      x y z
#    x 1.839210 0.000000 0.000000 
#    y 0.000000 1.808780 0.000000 
#    z 0.000000 0.000000 1.789880 
# 
# From -- ./inp_files/42024.got.cif
#   From: 2010.05.17/outbox.cif.g08.bks.cpg/sg67_22_cif.got.tgz:42024.got - 2010.06.03 18:28:57.
