data_PCOD9504893
_publ_section_title
;
Structure prediction by ZEFSAII (Michael W. Deem and Ramdas Pophale) SiO2 
 PCOD9504893
Probable space group: C M M A
;
_chemical_formula_sum "Si O2"
_cell_formula_units_Z 72
_cell_length_a 27.960260
_cell_length_b 8.452974
_cell_length_c 14.112478
_cell_angle_alpha 90.000000
_cell_angle_beta 90.000000
_cell_angle_gamma 90.000000
_cell_volume 3335.446789
_symmetry_space_group_name_H-M "C M M A"
_symmetry_group_IT_number 67
_symmetry_cell_setting 'orthorhombic'
loop_
_space_group_symop_operation_xyz
x,y,z
-x,1/2-y,z
x,-y,-z
-x,1/2+y,-z
-x,-y,-z
x,1/2+y,-z
-x,y,z
x,1/2-y,z
1/2+x,1/2+y,z
1/2-x,-y,z
1/2+x,1/2-y,-z
1/2-x,y,-z
1/2-x,1/2-y,-z
1/2+x,y,-z
1/2-x,1/2+y,z
1/2+x,-y,z
loop_
_atom_site_type_symbol
_atom_site_label
_atom_site_fract_x
_atom_site_fract_y
_atom_site_fract_z
Si Si1 0.948013 0.059697 0.608971
Si Si2 0.895636 0.558132 0.107969
Si Si3 0.000000 0.058418 0.890639
Si Si4 0.654034 0.937479 0.393012
Si Si5 0.699598 0.061582 0.213471
O O1 0.944525 0.250000 0.611241
O O2 0.000000 0.016206 0.650952
O O3 0.949473 0.000000 0.500000
O O4 0.898329 0.990716 0.645083
O O5 0.895039 0.750000 0.110677
O O6 0.847582 0.500923 0.159017
O O7 0.947924 0.508122 0.148317
O O8 0.894033 0.500000 0.000000
O O9 0.000000 0.250000 0.888282
O O10 0.000000 0.000000 0.000000
O O11 0.656449 0.750000 0.394371
O O12 0.659106 0.000000 0.500000
O O13 0.692530 0.007856 0.321674
O O14 0.699676 0.250000 0.209094
O O15 0.750000 0.000000 0.175420
#
# Coordination Sequence:
#
# PCOD9504893 Si02
#       5
#    16  16   8  16  16
#     4   9  16  28  49  77 109 146 186 232 286 345
#     4   9  19  36  62  91 123 156 194 237 290 353
#     4   8  14  30  56  88 119 152 187 230 283 342
#     4  11  22  38  60  84 114 153 198 251 303 359
#     4  11  24  42  60  85 118 156 202 252 300 356
#
# _framework density 21.586312
#
# number of rings (size 3 to 8) (size 9 to 14) (size 15 to 20)
#    0.000    2.222    0.000    4.667    0.000    4.000 
#    2.000    4.444    0.000    0.000    0.000    0.000 
#    0.000    0.000    0.000    0.000    0.000    0.000 
#
# Total GULP energy -200982.865841 kJ/mol
# GULP energy per Si atom -5582.857384 kJ/mol
# Density = 2.153718 g / cm^3
# Si number density = 21.586312 Si / 1000 Ang^3
#
#
#
# Elastic Constant Matrix: (Units=GPa)
#
#
# Indices 1 2 3 4 5 6 
#
# 1 207.7677 32.4327 60.5887 0.0000 0.0000 0.0000
# 2 32.4327 47.8858 2.3468 0.0000 0.0000 0.0000
# 3 60.5887 2.3468 63.8962 0.0000 0.0000 0.0000
# 4 0.0000 0.0000 0.0000 13.6222 0.0000 0.0000
# 5 0.0000 0.0000 0.0000 0.0000 34.0429 0.0000
# 6 0.0000 0.0000 0.0000 0.0000 0.0000 28.7622
#
#
#
# Elastic Compliance Matrix: (Units=1/GPa)
#
#
# Indices 1 2 3 4 5 6 
#
# 1 0.007620 -0.004816 -0.007049 0.000000 0.000000 0.000000
# 2 -0.004816 0.023964 0.003686 0.000000 0.000000 0.000000
# 3 -0.007049 0.003686 0.022199 0.000000 0.000000 0.000000
# 4 0.000000 0.000000 0.000000 0.073409 0.000000 0.000000
# 5 0.000000 0.000000 0.000000 0.000000 0.029375 0.000000
# 6 0.000000 0.000000 0.000000 0.000000 0.000000 0.034768
#
#
# Mechanical properties :
#
#
# Convention : Reuss Voigt Hill
#
# Bulk Modulus (GPa) = 26.71893 56.69847 41.70870
# Shear Modulus (GPa) = 22.70989 30.23091 26.47040
#
# Velocity S-wave (km/s) = 3.24705 3.74634 3.50560
# Velocity P-wave (km/s) = 5.14416 6.71092 5.97908
#
# Compressibility (1/GPa) = 0.03742665
#
# Stress axis : x y z
#
# Youngs Moduli (GPa) = 131.22538 41.72910 45.04659
#
# Poissons Ratio (x) = 0.20096 0.31754
# Poissons Ratio (y) = 0.63196 -0.16606
# Poissons Ratio (z) = 0.92503 -0.15383
#
# Static dielectric constant tensor:
#      x y z
#    x 1.843180 0.000000 0.000000 
#    y 0.000000 1.786430 0.000000 
#    z 0.000000 0.000000 1.723520 
# 
# From -- ./inp_files/30541.got.cif
#   From: 2010.05.17/outbox.cif.g08.bks.cpg/sg67_16_cif.got.tgz:30541.got - 2010.06.03 18:28:57.
