data_PCOD9504851
_publ_section_title
;
Structure prediction by ZEFSAII (Michael W. Deem and Ramdas Pophale) SiO2 
 PCOD9504851
Probable space group: C M M A
;
_chemical_formula_sum "Si O2"
_cell_formula_units_Z 80
_cell_length_a 15.028194
_cell_length_b 7.956168
_cell_length_c 31.069079
_cell_angle_alpha 90.000000
_cell_angle_beta 90.000000
_cell_angle_gamma 90.000000
_cell_volume 3714.831480
_symmetry_space_group_name_H-M "C M M A"
_symmetry_group_IT_number 67
_symmetry_cell_setting 'orthorhombic'
loop_
_space_group_symop_operation_xyz
x,y,z
-x,1/2-y,z
x,-y,-z
-x,1/2+y,-z
-x,-y,-z
x,1/2+y,-z
-x,y,z
x,1/2-y,z
1/2+x,1/2+y,z
1/2-x,-y,z
1/2+x,1/2-y,-z
1/2-x,y,-z
1/2-x,1/2-y,-z
1/2+x,y,-z
1/2-x,1/2+y,z
1/2+x,-y,z
loop_
_atom_site_type_symbol
_atom_site_label
_atom_site_fract_x
_atom_site_fract_y
_atom_site_fract_z
Si Si1 0.391276 0.058842 0.547900
Si Si2 0.097157 0.950829 0.858964
Si Si3 0.391224 0.750000 0.706192
Si Si4 0.390373 0.555596 0.233360
Si Si5 0.851934 0.947385 0.045596
Si Si6 0.109045 0.250000 0.607386
O O1 0.500000 0.060990 0.548495
O O2 0.361531 0.250000 0.556340
O O3 0.365305 0.000000 0.500000
O O4 0.362732 0.917542 0.581849
O O5 0.092577 0.750000 0.854154
O O6 0.142659 0.002901 0.814265
O O7 0.000000 0.030326 0.856983
O O8 0.124606 0.980183 0.907866
O O9 0.500000 0.750000 0.706202
O O10 0.363476 0.581815 0.731640
O O11 0.361748 0.750000 0.656798
O O12 0.500000 0.556869 0.231822
O O13 0.364105 0.750000 0.241859
O O14 0.862308 0.750000 0.048692
O O15 0.750000 0.000000 0.041628
O O16 0.895503 0.000000 0.000000
O O17 0.000000 0.250000 0.607072
#
# Coordination Sequence:
#
# PCOD9504851 Si02
#       6
#    16  16   8  16  16   8
#     4   9  14  20  29  38  53  79 115 159 205 253
#     4   9  18  33  52  73  95 120 155 194 231 278
#     4   9  16  24  36  52  76  99 129 171 214 273
#     4   8  15  27  42  59  81 107 134 174 222 265
#     4  11  22  36  53  71  97 128 155 187 232 283
#     4   9  16  22  28  44  62  86 119 159 211 258
#
# _framework density 21.535298000000001
#
# number of rings (size 3 to 8) (size 9 to 14) (size 15 to 20)
#    0.000    2.800    1.000    3.600    1.400    1.600 
#    0.000    4.000    0.000    0.000    0.000    0.000 
#    0.000    0.000    0.000    0.000    0.000    0.000 
#
# Total GULP energy -222848.681033 kJ/mol
# GULP energy per Si atom -5571.217026 kJ/mol
# Density = 2.148628 g / cm^3
# Si number density = 21.535298 Si / 1000 Ang^3
#
#
#
# Elastic Constant Matrix: (Units=GPa)
#
#
# Indices 1 2 3 4 5 6 
#
# 1 27.4751 2.3977 12.1821 0.0000 0.0000 0.0000
# 2 2.3977 144.0977 111.3140 0.0000 0.0000 0.0000
# 3 12.1821 111.3140 251.1776 0.0000 0.0000 0.0000
# 4 0.0000 0.0000 0.0000 45.6737 0.0000 0.0000
# 5 0.0000 0.0000 0.0000 0.0000 -19.6382 0.0000
# 6 0.0000 0.0000 0.0000 0.0000 0.0000 4.8878
#
#
#
# Elastic Compliance Matrix: (Units=1/GPa)
#
#
# Indices 1 2 3 4 5 6 
#
# 1 0.037328 0.001182 -0.002334 0.000000 0.000000 0.000000
# 2 0.001182 0.010590 -0.004750 0.000000 0.000000 0.000000
# 3 -0.002334 -0.004750 0.006200 0.000000 0.000000 0.000000
# 4 0.000000 0.000000 0.000000 0.021894 0.000000 0.000000
# 5 0.000000 0.000000 0.000000 0.000000 -0.050921 0.000000
# 6 0.000000 0.000000 0.000000 0.000000 0.000000 0.204592
#
#
# Mechanical properties :
#
#
# Convention : Reuss Voigt Hill
#
# Bulk Modulus (GPa) = 23.63360 74.94866 49.29113
# Shear Modulus (GPa) = 19.56240 25.97510 22.76875
#
# Velocity S-wave (km/s) = 3.01722 3.47675 3.25511
# Velocity P-wave (km/s) = 4.81002 7.14110 6.08817
#
# Compressibility (1/GPa) = 0.04231264
#
# Stress axis : x y z
#
# Youngs Moduli (GPa) = 26.78925 94.43190 161.29940
#
# Poissons Ratio (x) = -0.11163 0.37652
# Poissons Ratio (y) = -0.03167 0.76622
# Poissons Ratio (z) = 0.06253 0.44858
#
# Static dielectric constant tensor:
#      x y z
#    x 1.838590 0.000000 0.000000 
#    y 0.000000 1.719020 0.000000 
#    z 0.000000 0.000000 1.859000 
# 
# From -- ./inp_files/42312.got.cif
#   From: 2010.05.17/outbox.cif.g08.bks.cpg/sg67_22_cif.got.tgz:42312.got - 2010.06.03 18:28:57.
