data_PCOD9504864
_publ_section_title
;
Structure prediction by ZEFSAII (Michael W. Deem and Ramdas Pophale) SiO2 
 PCOD9504864
Probable space group: C M M A
;
_chemical_formula_sum "Si O2"
_cell_formula_units_Z 96
_cell_length_a 18.258241
_cell_length_b 14.687042
_cell_length_c 16.661943
_cell_angle_alpha 90.000000
_cell_angle_beta 90.000000
_cell_angle_gamma 90.000000
_cell_volume 4468.059177
_symmetry_space_group_name_H-M "C M M A"
_symmetry_group_IT_number 67
_symmetry_cell_setting 'orthorhombic'
loop_
_space_group_symop_operation_xyz
x,y,z
-x,1/2-y,z
x,-y,-z
-x,1/2+y,-z
-x,-y,-z
x,1/2+y,-z
-x,y,z
x,1/2-y,z
1/2+x,1/2+y,z
1/2-x,-y,z
1/2+x,1/2-y,-z
1/2-x,y,-z
1/2-x,1/2-y,-z
1/2+x,y,-z
1/2-x,1/2+y,z
1/2+x,-y,z
loop_
_atom_site_type_symbol
_atom_site_label
_atom_site_fract_x
_atom_site_fract_y
_atom_site_fract_z
Si Si1 0.082491 0.609808 0.208944
Si Si2 0.876481 0.250000 0.918410
Si Si3 0.709200 0.854397 0.382562
Si Si4 0.169836 0.104259 0.030536
Si Si5 0.113835 0.349191 0.610698
Si Si6 0.868341 0.000000 0.500000
Si Si7 0.322773 0.436912 0.788062
O O1 0.132197 0.670446 0.151307
O O2 0.085793 0.645547 0.299196
O O3 0.109739 0.506921 0.213605
O O4 0.000000 0.620827 0.177410
O O5 0.885704 0.329916 0.986681
O O6 0.689721 0.750000 0.404432
O O7 0.797551 0.859560 0.384316
O O8 0.682802 0.877547 0.292331
O O9 0.677340 0.930202 0.443008
O O10 0.171624 0.111483 0.126234
O O11 0.250000 0.136556 0.000000
O O12 0.161456 0.000000 0.000000
O O13 0.096518 0.250000 0.576676
O O14 0.087839 0.433106 0.558025
O O15 0.250000 0.500000 0.789062
#
# Coordination Sequence:
#
# PCOD9504864 Si02
#       7
#    16   8  16  16  16   8  16
#     4  12  25  42  66  92 126 173 226 274 326 397
#     4  12  24  42  62  92 131 176 220 274 327 396
#     4  11  23  35  64 102 134 173 218 273 338 404
#     4  11  22  36  62  98 133 165 218 281 337 399
#     4  11  22  36  63  94 132 171 218 269 327 390
#     4  12  21  40  61 100 141 174 215 282 339 396
#     4  12  21  42  65  96 135 174 216 273 346 400
#
# _framework density 21.48584
#
# number of rings (size 3 to 8) (size 9 to 14) (size 15 to 20)
#    0.000    0.500    7.500    2.500    1.167    1.333 
#    0.000    2.917    0.000    0.500    0.000    0.000 
#    0.000    0.000    0.000    0.000    0.000    0.000 
#
# Total GULP energy -267354.903807 kJ/mol
# GULP energy per Si atom -5569.893829 kJ/mol
# Density = 2.143694 g / cm^3
# Si number density = 21.485840 Si / 1000 Ang^3
#
#
#
# Elastic Constant Matrix: (Units=GPa)
#
#
# Indices 1 2 3 4 5 6 
#
# 1 28.0181 14.9631 9.0780 0.0000 0.0000 0.0000
# 2 14.9631 141.4939 61.6832 0.0000 0.0000 0.0000
# 3 9.0780 61.6832 168.1618 0.0000 0.0000 0.0000
# 4 0.0000 0.0000 0.0000 20.7871 0.0000 0.0000
# 5 0.0000 0.0000 0.0000 0.0000 -10.7615 0.0000
# 6 0.0000 0.0000 0.0000 0.0000 0.0000 -9.2434
#
#
#
# Elastic Compliance Matrix: (Units=1/GPa)
#
#
# Indices 1 2 3 4 5 6 
#
# 1 0.037894 -0.003709 -0.000685 0.000000 0.000000 0.000000
# 2 -0.003709 0.008776 -0.003019 0.000000 0.000000 0.000000
# 3 -0.000685 -0.003019 0.007091 0.000000 0.000000 0.000000
# 4 0.000000 0.000000 0.000000 0.048107 0.000000 0.000000
# 5 0.000000 0.000000 0.000000 0.000000 -0.092924 0.000000
# 6 0.000000 0.000000 0.000000 0.000000 0.000000 -0.108186
#
#
# Mechanical properties :
#
#
# Convention : Reuss Voigt Hill
#
# Bulk Modulus (GPa) = 25.68375 56.56914 41.12644
# Shear Modulus (GPa) = -69.99038 16.95307 -26.51866
#
# Velocity S-wave (km/s) = -5.71365 2.81202 -3.51698
# Velocity P-wave (km/s) = 5.61676 6.07693 1.64027
#
# Compressibility (1/GPa) = 0.03893513
#
# Stress axis : x y z
#
# Youngs Moduli (GPa) = 26.38955 113.95184 141.02453
#
# Poissons Ratio (x) = 0.42259 0.09665
# Poissons Ratio (y) = 0.09787 0.42572
# Poissons Ratio (z) = 0.01809 0.34400
#
# Static dielectric constant tensor:
#      x y z
#    x 1.829920 0.000000 0.000000 
#    y 0.000000 1.869270 0.000000 
#    z 0.000000 0.000000 1.787380 
# 
# From -- ./inp_files/29335.got.cif
#   From: 2010.05.17/outbox.cif.g08.bks.cpg/sg67_15_cif.got.tgz:29335.got - 2010.06.03 18:28:57.
