data_PCOD9504109
_publ_section_title
;
Structure prediction by ZEFSAII (Michael W. Deem and Ramdas Pophale) SiO2 
 PCOD9504109
Probable space group: C M M A
;
_chemical_formula_sum "Si O2"
_cell_formula_units_Z 52
_cell_length_a 15.141980
_cell_length_b 30.610749
_cell_length_c 4.990340
_cell_angle_alpha 90.000000
_cell_angle_beta 90.000000
_cell_angle_gamma 90.000000
_cell_volume 2313.059265
_symmetry_space_group_name_H-M "C M M A"
_symmetry_group_IT_number 67
_symmetry_cell_setting 'orthorhombic'
loop_
_space_group_symop_operation_xyz
x,y,z
-x,1/2-y,z
x,-y,-z
-x,1/2+y,-z
-x,-y,-z
x,1/2+y,-z
-x,y,z
x,1/2-y,z
1/2+x,1/2+y,z
1/2-x,-y,z
1/2+x,1/2-y,-z
1/2-x,y,-z
1/2-x,1/2-y,-z
1/2+x,y,-z
1/2-x,1/2+y,z
1/2+x,-y,z
loop_
_atom_site_type_symbol
_atom_site_label
_atom_site_fract_x
_atom_site_fract_y
_atom_site_fract_z
Si Si1 0.000000 0.500000 0.000000
Si Si2 0.313743 0.701605 0.753051
Si Si3 0.848389 0.061665 0.082097
Si Si4 0.599575 0.614848 0.564277
O O1 0.920053 0.525656 0.833058
O O2 0.353523 0.750000 0.803373
O O3 0.250000 0.705097 0.500000
O O4 0.378171 0.662398 0.680532
O O5 0.250000 0.690517 0.000000
O O6 0.841518 0.097646 0.318215
O O7 0.750000 0.047792 0.000000
O O8 0.890818 0.082387 0.814619
O O9 0.500000 0.614787 0.460805
#
# Coordination Sequence:
#
# PCOD9504109 Si02
#       4
#     4  16  16  16
#     4  12  26  50  68 104 130 166 234 294 344 432
#     4  10  21  38  63  95 133 177 226 274 327 397
#     4  12  26  45  71  96 134 179 220 283 354 417
#     4  12  23  43  66  99 136 175 227 282 334 414
#
# _framework density 22.481047
#
# number of rings (size 3 to 8) (size 9 to 14) (size 15 to 20)
#    0.000    0.615    3.077    6.000    0.000    3.077 
#    0.000    3.077    0.000    9.231    0.000    0.000 
#    0.000    0.000    0.000    0.000    0.000    0.000 
#
# Total GULP energy -144838.318720 kJ/mol
# GULP energy per Si atom -5570.704566 kJ/mol
# Density = 2.242988 g / cm^3
# Si number density = 22.481047 Si / 1000 Ang^3
#
#
#
# Elastic Constant Matrix: (Units=GPa)
#
#
# Indices 1 2 3 4 5 6 
#
# 1 143.6874 34.9022 13.3465 0.0000 0.0000 0.0000
# 2 34.9022 101.3258 16.2082 0.0000 0.0000 0.0000
# 3 13.3465 16.2082 115.6702 0.0000 0.0000 0.0000
# 4 0.0000 0.0000 0.0000 27.8914 0.0000 0.0000
# 5 0.0000 0.0000 0.0000 0.0000 24.7995 0.0000
# 6 0.0000 0.0000 0.0000 0.0000 0.0000 72.9203
#
#
#
# Elastic Compliance Matrix: (Units=1/GPa)
#
#
# Indices 1 2 3 4 5 6 
#
# 1 0.007626 -0.002543 -0.000524 0.000000 0.000000 0.000000
# 2 -0.002543 0.010943 -0.001240 0.000000 0.000000 0.000000
# 3 -0.000524 -0.001240 0.008879 0.000000 0.000000 0.000000
# 4 0.000000 0.000000 0.000000 0.035853 0.000000 0.000000
# 5 0.000000 0.000000 0.000000 0.000000 0.040323 0.000000
# 6 0.000000 0.000000 0.000000 0.000000 0.000000 0.013714
#
#
# Mechanical properties :
#
#
# Convention : Reuss Voigt Hill
#
# Bulk Modulus (GPa) = 53.09104 54.39969 53.74537
# Shear Modulus (GPa) = 37.81267 44.87068 41.34167
#
# Velocity S-wave (km/s) = 4.10564 4.47243 4.29296
# Velocity P-wave (km/s) = 6.79281 7.13588 6.96646
#
# Compressibility (1/GPa) = 0.01883557
#
# Stress axis : x y z
#
# Youngs Moduli (GPa) = 131.13221 91.37874 112.61973
#
# Poissons Ratio (x) = 0.23238 0.05896
# Poissons Ratio (y) = 0.33347 0.13965
# Poissons Ratio (z) = 0.06866 0.11331
#
# Static dielectric constant tensor:
#      x y z
#    x 1.797360 0.000000 0.000000 
#    y 0.000000 1.992610 0.000000 
#    z 0.000000 0.000000 1.817410 
# 
# From -- ./inp_files/1414.got.cif
#   From: 2010.05.17/outbox.cif.g08.bks.cpg/sg67_1_cif.got.tgz:1414.got - 2010.06.03 18:28:57.
