data_PCOD9504909
_publ_section_title
;
Structure prediction by ZEFSAII (Michael W. Deem and Ramdas Pophale) SiO2 
 PCOD9504909
Probable space group: C M M A
;
_chemical_formula_sum "Si O2"
_cell_formula_units_Z 80
_cell_length_a 9.832831
_cell_length_b 18.300318
_cell_length_c 25.364457
_cell_angle_alpha 90.000000
_cell_angle_beta 90.000000
_cell_angle_gamma 90.000000
_cell_volume 4564.180180
_symmetry_space_group_name_H-M "C M M A"
_symmetry_group_IT_number 67
_symmetry_cell_setting 'orthorhombic'
loop_
_space_group_symop_operation_xyz
x,y,z
-x,1/2-y,z
x,-y,-z
-x,1/2+y,-z
-x,-y,-z
x,1/2+y,-z
-x,y,z
x,1/2-y,z
1/2+x,1/2+y,z
1/2-x,-y,z
1/2+x,1/2-y,-z
1/2-x,y,-z
1/2-x,1/2-y,-z
1/2+x,y,-z
1/2-x,1/2+y,z
1/2+x,-y,z
loop_
_atom_site_type_symbol
_atom_site_label
_atom_site_fract_x
_atom_site_fract_y
_atom_site_fract_z
Si Si1 0.000000 0.098707 0.058209
Si Si2 0.161277 0.927178 0.664539
Si Si3 0.000000 0.925887 0.067008
Si Si4 0.661629 0.664393 0.233035
Si Si5 0.257006 0.162875 0.116785
Si Si6 0.165270 0.077107 0.452416
O O1 0.873046 0.141466 0.082208
O O2 0.000000 0.013183 0.074648
O O3 0.000000 0.094037 0.994972
O O4 0.200741 0.878725 0.714572
O O5 0.178533 0.890953 0.606571
O O6 0.000000 0.944402 0.668432
O O7 0.250000 0.000000 0.666310
O O8 0.873005 0.887705 0.093859
O O9 0.500000 0.653902 0.224816
O O10 0.685013 0.750000 0.241945
O O11 0.732360 0.644471 0.178217
O O12 0.284030 0.250000 0.112899
O O13 0.250000 0.114782 0.500000
O O14 0.000000 0.069299 0.462686
O O15 0.250000 0.000000 0.448047
#
# Coordination Sequence:
#
# PCOD9504909 Si02
#       6
#     8  16   8  16  16  16
#     4  11  23  41  59  83 113 149 178 213 276 335
#     4   9  18  31  49  76 103 131 172 216 258 306
#     4  11  25  39  57  85 119 141 172 227 280 323
#     4   9  18  36  57  75 100 136 177 216 257 310
#     4  11  22  39  61  83 108 144 188 226 265 322
#     4   9  15  24  41  66  98 132 165 206 254 301
#
# _framework density 17.527791000000001
#
# number of rings (size 3 to 8) (size 9 to 14) (size 15 to 20)
#    0.000    2.200    1.000    3.000    0.000    6.400 
#    1.800    0.000    0.000    0.600    0.000    0.000 
#    0.000    0.000    0.000    0.000    0.000    5.400 
#
# Total GULP energy -222715.217940 kJ/mol
# GULP energy per Si atom -5567.880448 kJ/mol
# Density = 1.748790 g / cm^3
# Si number density = 17.527791 Si / 1000 Ang^3
#
#
#
# Elastic Constant Matrix: (Units=GPa)
#
#
# Indices 1 2 3 4 5 6 
#
# 1 65.6312 19.6747 30.6951 0.0000 0.0000 0.0000
# 2 19.6747 43.8458 55.3842 0.0000 0.0000 0.0000
# 3 30.6951 55.3842 138.8761 0.0000 0.0000 0.0000
# 4 0.0000 0.0000 0.0000 -25.3951 0.0000 0.0000
# 5 0.0000 0.0000 0.0000 0.0000 -42.7091 0.0000
# 6 0.0000 0.0000 0.0000 0.0000 0.0000 23.5992
#
#
#
# Elastic Compliance Matrix: (Units=1/GPa)
#
#
# Indices 1 2 3 4 5 6 
#
# 1 0.017760 -0.006067 -0.001506 0.000000 0.000000 0.000000
# 2 -0.006067 0.048032 -0.017814 0.000000 0.000000 0.000000
# 3 -0.001506 -0.017814 0.014638 0.000000 0.000000 0.000000
# 4 0.000000 0.000000 0.000000 -0.039378 0.000000 0.000000
# 5 0.000000 0.000000 0.000000 0.000000 -0.023414 0.000000
# 6 0.000000 0.000000 0.000000 0.000000 0.000000 0.042374
#
#
# Mechanical properties :
#
#
# Convention : Reuss Voigt Hill
#
# Bulk Modulus (GPa) = 33.72115 51.09568 42.40842
# Shear Modulus (GPa) = 41.43482 0.60560 21.02021
#
# Velocity S-wave (km/s) = 4.86732 0.58844 3.46678
# Velocity P-wave (km/s) = 7.13219 5.44759 6.34604
#
# Compressibility (1/GPa) = 0.02965497
#
# Stress axis : x y z
#
# Youngs Moduli (GPa) = 56.30733 20.81947 68.31620
#
# Poissons Ratio (x) = 0.12632 0.10286
# Poissons Ratio (y) = 0.34164 1.21700
# Poissons Ratio (z) = 0.08478 0.37088
#
# Static dielectric constant tensor:
#      x y z
#    x 1.373930 0.000000 0.000000 
#    y 0.000000 1.572290 0.000000 
#    z 0.000000 0.000000 1.636480 
# 
# From -- ./inp_files/43356.got.cif
#   From: 2010.05.17/outbox.cif.g08.bks.cpg/sg67_22_cif.got.tgz:43356.got - 2010.06.03 18:28:57.
