data_PCOD9504621
_publ_section_title
;
Structure prediction by ZEFSAII (Michael W. Deem and Ramdas Pophale) SiO2 
 PCOD9504621
Probable space group: C M M A
;
_chemical_formula_sum "Si O2"
_cell_formula_units_Z 32
_cell_length_a 19.408691
_cell_length_b 10.900412
_cell_length_c 6.209125
_cell_angle_alpha 90.000000
_cell_angle_beta 90.000000
_cell_angle_gamma 90.000000
_cell_volume 1313.619425
_symmetry_space_group_name_H-M "C M M A"
_symmetry_group_IT_number 67
_symmetry_cell_setting 'orthorhombic'
loop_
_space_group_symop_operation_xyz
x,y,z
-x,1/2-y,z
x,-y,-z
-x,1/2+y,-z
-x,-y,-z
x,1/2+y,-z
-x,y,z
x,1/2-y,z
1/2+x,1/2+y,z
1/2-x,-y,z
1/2+x,1/2-y,-z
1/2-x,y,-z
1/2-x,1/2-y,-z
1/2+x,y,-z
1/2-x,1/2+y,z
1/2+x,-y,z
loop_
_atom_site_type_symbol
_atom_site_label
_atom_site_fract_x
_atom_site_fract_y
_atom_site_fract_z
Si Si1 0.825538 0.380974 0.391632
Si Si2 0.117213 0.000000 0.000000
Si Si3 0.500000 0.395280 0.307919
O O1 0.856781 0.500000 0.500000
O O2 0.858961 0.250000 0.432673
O O3 0.750000 0.374319 0.500000
O O4 0.833698 0.411856 0.141104
O O5 0.065741 0.922212 0.151648
O O6 0.500000 0.250000 0.371289
O O7 0.500000 0.500000 0.500000
#
# Coordination Sequence:
#
# PCOD9504621 Si02
#       3
#    16   8   8
#     4  10  23  43  67  98 137 181 229 280 337 407
#     4  11  24  43  72 102 138 182 230 284 346 411
#     4  11  26  46  71 103 137 179 233 291 348 408
#
# _framework density 24.360175000000002
#
# number of rings (size 3 to 8) (size 9 to 14) (size 15 to 20)
#    0.000    1.500    0.000    3.000    0.000   18.000 
#    0.000   12.500    0.000    0.000    0.000    0.000 
#    0.000    0.000    0.000    0.000    0.000    0.000 
#
# Total GULP energy -89151.245793 kJ/mol
# GULP energy per Si atom -5571.952862 kJ/mol
# Density = 2.430473 g / cm^3
# Si number density = 24.360175 Si / 1000 Ang^3
#
#
#
# Elastic Constant Matrix: (Units=GPa)
#
#
# Indices 1 2 3 4 5 6 
#
# 1 152.0640 24.0503 83.1945 0.0000 0.0000 0.0000
# 2 24.0503 285.9114 83.7721 0.0000 0.0000 0.0000
# 3 83.1945 83.7721 146.3879 0.0000 0.0000 0.0000
# 4 0.0000 0.0000 0.0000 5.9857 0.0000 0.0000
# 5 0.0000 0.0000 0.0000 0.0000 53.1444 0.0000
# 6 0.0000 0.0000 0.0000 0.0000 0.0000 -38.1839
#
#
#
# Elastic Compliance Matrix: (Units=1/GPa)
#
#
# Indices 1 2 3 4 5 6 
#
# 1 0.009761 0.000966 -0.006100 0.000000 0.000000 0.000000
# 2 0.000966 0.004298 -0.003009 0.000000 0.000000 0.000000
# 3 -0.006100 -0.003009 0.012020 0.000000 0.000000 0.000000
# 4 0.000000 0.000000 0.000000 0.167064 0.000000 0.000000
# 5 0.000000 0.000000 0.000000 0.000000 0.018817 0.000000
# 6 0.000000 0.000000 0.000000 0.000000 0.000000 -0.026189
#
#
# Mechanical properties :
#
#
# Convention : Reuss Voigt Hill
#
# Bulk Modulus (GPa) = 102.11082 107.37747 104.74415
# Shear Modulus (GPa) = 24.35231 30.41235 27.38233
#
# Velocity S-wave (km/s) = 3.16520 3.53717 3.35634
# Velocity P-wave (km/s) = 7.44084 7.80108 7.62309
#
# Compressibility (1/GPa) = 0.00979328
#
# Stress axis : x y z
#
# Youngs Moduli (GPa) = 102.45096 232.67515 83.19663
#
# Poissons Ratio (x) = -0.22483 0.50751
# Poissons Ratio (y) = -0.09900 0.25031
# Poissons Ratio (z) = 0.62497 0.70004
#
# Static dielectric constant tensor:
#      x y z
#    x 2.019380 0.000000 0.000000 
#    y 0.000000 1.935700 0.000000 
#    z 0.000000 0.000000 2.054110 
# 
# From -- ./inp_files/458.got.cif
#   From: 2010.05.17/outbox.cif.g08.bks.cpg/sg67_1_cif.got.tgz:458.got - 2010.06.03 18:28:57.
