data_PCOD9504971
_publ_section_title
;
Structure prediction by ZEFSAII (Michael W. Deem and Ramdas Pophale) SiO2 
 PCOD9504971
Probable space group: C M M A
;
_chemical_formula_sum "Si O2"
_cell_formula_units_Z 80
_cell_length_a 18.630697
_cell_length_b 14.821733
_cell_length_c 13.983181
_cell_angle_alpha 90.000000
_cell_angle_beta 90.000000
_cell_angle_gamma 90.000000
_cell_volume 3861.304646
_symmetry_space_group_name_H-M "C M M A"
_symmetry_group_IT_number 67
_symmetry_cell_setting 'orthorhombic'
loop_
_space_group_symop_operation_xyz
x,y,z
-x,1/2-y,z
x,-y,-z
-x,1/2+y,-z
-x,-y,-z
x,1/2+y,-z
-x,y,z
x,1/2-y,z
1/2+x,1/2+y,z
1/2-x,-y,z
1/2+x,1/2-y,-z
1/2-x,y,-z
1/2-x,1/2-y,-z
1/2+x,y,-z
1/2-x,1/2+y,z
1/2+x,-y,z
loop_
_atom_site_type_symbol
_atom_site_label
_atom_site_fract_x
_atom_site_fract_y
_atom_site_fract_z
Si Si1 0.191804 0.359654 0.703194
Si Si2 0.918512 0.093807 0.558092
Si Si3 0.772122 0.140171 0.104941
Si Si4 0.579485 0.140010 0.802296
Si Si5 0.338551 0.352505 0.619749
O O1 0.181552 0.250000 0.699134
O O2 0.121307 0.404784 0.659298
O O3 0.216765 0.384515 0.810339
O O4 0.259813 0.391124 0.638037
O O5 0.867419 0.148981 0.486673
O O6 0.000000 0.127130 0.564701
O O7 0.919820 0.000000 0.500000
O O8 0.772827 0.250000 0.104278
O O9 0.852512 0.111378 0.134384
O O10 0.750000 0.109314 0.000000
O O11 0.500000 0.106198 0.826679
O O12 0.576052 0.250000 0.807725
O O13 0.601220 0.113527 0.693706
O O14 0.327747 0.250000 0.652288
#
# Coordination Sequence:
#
# PCOD9504971 Si02
#       5
#    16  16  16  16  16
#     4   9  18  32  50  72  96 125 164 204 244 297
#     4  11  23  34  44  65  98 133 167 201 240 290
#     4   8  14  26  44  67  97 127 154 195 250 299
#     4   8  13  22  39  64  89 113 147 190 233 279
#     4   9  17  30  49  70  91 118 155 199 245 294
#
# _framework density 20.718385999999999
#
# number of rings (size 3 to 8) (size 9 to 14) (size 15 to 20)
#    0.000    3.000    0.000    4.200    0.000    5.600 
#    0.000    1.000    0.000    3.600    0.000   11.200 
#    0.000   14.400    0.000    0.000    0.000    0.200 
#
# Total GULP energy -222906.085199 kJ/mol
# GULP energy per Si atom -5572.652130 kJ/mol
# Density = 2.067123 g / cm^3
# Si number density = 20.718386 Si / 1000 Ang^3
#
#
#
# Elastic Constant Matrix: (Units=GPa)
#
#
# Indices 1 2 3 4 5 6 
#
# 1 109.9488 7.0264 83.2287 0.0000 0.0000 0.0000
# 2 7.0264 47.7548 4.1372 0.0000 0.0000 0.0000
# 3 83.2287 4.1372 138.1081 0.0000 0.0000 0.0000
# 4 0.0000 0.0000 0.0000 -3.2242 0.0000 0.0000
# 5 0.0000 0.0000 0.0000 0.0000 18.7378 0.0000
# 6 0.0000 0.0000 0.0000 0.0000 0.0000 -7.8945
#
#
#
# Elastic Compliance Matrix: (Units=1/GPa)
#
#
# Indices 1 2 3 4 5 6 
#
# 1 0.016846 -0.001603 -0.010104 0.000000 0.000000 0.000000
# 2 -0.001603 0.021147 0.000333 0.000000 0.000000 0.000000
# 3 -0.010104 0.000333 0.013320 0.000000 0.000000 0.000000
# 4 0.000000 0.000000 0.000000 -0.310151 0.000000 0.000000
# 5 0.000000 0.000000 0.000000 0.000000 0.053368 0.000000
# 6 0.000000 0.000000 0.000000 0.000000 0.000000 -0.126671
#
#
# Mechanical properties :
#
#
# Convention : Reuss Voigt Hill
#
# Bulk Modulus (GPa) = 35.00908 53.84405 44.42656
# Shear Modulus (GPa) = -16.67390 14.95178 -0.86106
#
# Velocity S-wave (km/s) = -2.83996 2.68930 -0.64537
# Velocity P-wave (km/s) = 2.48606 5.97395 4.57540
#
# Compressibility (1/GPa) = 0.02856402
#
# Stress axis : x y z
#
# Youngs Moduli (GPa) = 59.36086 47.28721 75.07632
#
# Poissons Ratio (x) = 0.07582 0.75857
# Poissons Ratio (y) = 0.09517 -0.02498
# Poissons Ratio (z) = 0.59978 -0.01573
#
# Static dielectric constant tensor:
#      x y z
#    x 1.748830 0.000000 0.000000 
#    y 0.000000 1.840450 0.000000 
#    z 0.000000 0.000000 1.732070 
# 
# From -- ./inp_files/28360.got.cif
#   From: 2010.05.17/outbox.cif.g08.bks.cpg/sg67_15_cif.got.tgz:28360.got - 2010.06.03 18:28:57.
