data_PCOD9504406
_publ_section_title
;
Structure prediction by ZEFSAII (Michael W. Deem and Ramdas Pophale) SiO2 
 PCOD9504406
Probable space group: C M M A
;
_chemical_formula_sum "Si O2"
_cell_formula_units_Z 68
_cell_length_a 18.150886
_cell_length_b 24.987745
_cell_length_c 7.632538
_cell_angle_alpha 90.000000
_cell_angle_beta 90.000000
_cell_angle_gamma 90.000000
_cell_volume 3461.735403
_symmetry_space_group_name_H-M "C M M A"
_symmetry_group_IT_number 67
_symmetry_cell_setting 'orthorhombic'
loop_
_space_group_symop_operation_xyz
x,y,z
-x,1/2-y,z
x,-y,-z
-x,1/2+y,-z
-x,-y,-z
x,1/2+y,-z
-x,y,z
x,1/2-y,z
1/2+x,1/2+y,z
1/2-x,-y,z
1/2+x,1/2-y,-z
1/2-x,y,-z
1/2-x,1/2-y,-z
1/2+x,y,-z
1/2-x,1/2+y,z
1/2+x,-y,z
loop_
_atom_site_type_symbol
_atom_site_label
_atom_site_fract_x
_atom_site_fract_y
_atom_site_fract_z
Si Si1 0.750000 0.500000 0.000000
Si Si2 0.087023 0.439482 0.501787
Si Si3 0.771657 0.309633 0.705145
Si Si4 0.667116 0.401057 0.834542
Si Si5 0.586134 0.862287 0.822181
O O1 0.700633 0.458670 0.887741
O O2 0.115251 0.500000 0.500000
O O3 0.126484 0.406805 0.350101
O O4 0.096377 0.412261 0.689772
O O5 0.000000 0.440732 0.462643
O O6 0.749030 0.250000 0.762264
O O7 0.750000 0.314293 0.500000
O O8 0.730533 0.357166 0.805985
O O9 0.858018 0.318244 0.744853
O O10 0.612985 0.380558 0.986679
O O11 0.500000 0.847288 0.821667
#
# Coordination Sequence:
#
# PCOD9504406 Si02
#       5
#     4  16  16  16  16
#     4  12  24  36  66 104 124 166 222 262 322 388
#     4  10  22  39  61  91 132 175 212 266 328 383
#     4  11  24  45  70  95 128 175 222 269 323 383
#     4  12  23  41  65  97 132 169 216 267 320 395
#     4  11  23  42  66  96 128 168 219 268 323 387
#
# _framework density 19.643326999999999
#
# number of rings (size 3 to 8) (size 9 to 14) (size 15 to 20)
#    0.000    0.941    4.706    2.118    0.000    2.353 
#    0.000    4.706    0.000    2.118    0.000    0.000 
#    0.000    0.000    0.000    0.000    0.000    0.000 
#
# Total GULP energy -189989.766740 kJ/mol
# GULP energy per Si atom -5587.934316 kJ/mol
# Density = 1.959862 g / cm^3
# Si number density = 19.643327 Si / 1000 Ang^3
#
#
#
# Elastic Constant Matrix: (Units=GPa)
#
#
# Indices 1 2 3 4 5 6 
#
# 1 97.4715 42.0931 53.5989 0.0000 0.0000 0.0000
# 2 42.0931 116.6995 26.0094 0.0000 0.0000 0.0000
# 3 53.5989 26.0094 95.3945 0.0000 0.0000 0.0000
# 4 0.0000 0.0000 0.0000 16.5018 0.0000 0.0000
# 5 0.0000 0.0000 0.0000 0.0000 31.2416 0.0000
# 6 0.0000 0.0000 0.0000 0.0000 0.0000 17.0435
#
#
#
# Elastic Compliance Matrix: (Units=1/GPa)
#
#
# Indices 1 2 3 4 5 6 
#
# 1 0.016538 -0.004146 -0.008162 0.000000 0.000000 0.000000
# 2 -0.004146 0.010163 -0.000441 0.000000 0.000000 0.000000
# 3 -0.008162 -0.000441 0.015189 0.000000 0.000000 0.000000
# 4 0.000000 0.000000 0.000000 0.060600 0.000000 0.000000
# 5 0.000000 0.000000 0.000000 0.000000 0.032009 0.000000
# 6 0.000000 0.000000 0.000000 0.000000 0.000000 0.058673
#
#
# Mechanical properties :
#
#
# Convention : Reuss Voigt Hill
#
# Bulk Modulus (GPa) = 61.00755 61.44092 61.22424
# Shear Modulus (GPa) = 22.30814 25.48164 23.89489
#
# Velocity S-wave (km/s) = 3.37361 3.60560 3.49153
# Velocity P-wave (km/s) = 6.80442 6.97710 6.89130
#
# Compressibility (1/GPa) = 0.01639141
#
# Stress axis : x y z
#
# Youngs Moduli (GPa) = 60.46689 98.39721 65.83769
#
# Poissons Ratio (x) = 0.40797 0.53734
# Poissons Ratio (y) = 0.25071 0.02906
# Poissons Ratio (z) = 0.49351 0.04343
#
# Static dielectric constant tensor:
#      x y z
#    x 1.693500 0.000000 0.000000 
#    y 0.000000 1.670820 0.000000 
#    z 0.000000 0.000000 1.683920 
# 
# From -- ./inp_files/9509.got.cif
#   From: 2010.05.17/outbox.cif.g08.bks.cpg/sg67_5_cif.got.tgz:9509.got - 2010.06.03 18:28:57.
