data_PCOD9504315
_publ_section_title
;
Structure prediction by ZEFSAII (Michael W. Deem and Ramdas Pophale) SiO2 
 PCOD9504315
Probable space group: C M M A
;
_chemical_formula_sum "Si O2"
_cell_formula_units_Z 68
_cell_length_a 19.137174
_cell_length_b 28.917251
_cell_length_c 6.888597
_cell_angle_alpha 90.000000
_cell_angle_beta 90.000000
_cell_angle_gamma 90.000000
_cell_volume 3812.111444
_symmetry_space_group_name_H-M "C M M A"
_symmetry_group_IT_number 67
_symmetry_cell_setting 'orthorhombic'
loop_
_space_group_symop_operation_xyz
x,y,z
-x,1/2-y,z
x,-y,-z
-x,1/2+y,-z
-x,-y,-z
x,1/2+y,-z
-x,y,z
x,1/2-y,z
1/2+x,1/2+y,z
1/2-x,-y,z
1/2+x,1/2-y,-z
1/2-x,y,-z
1/2-x,1/2-y,-z
1/2+x,y,-z
1/2-x,1/2+y,z
1/2+x,-y,z
loop_
_atom_site_type_symbol
_atom_site_label
_atom_site_fract_x
_atom_site_fract_y
_atom_site_fract_z
Si Si1 0.668497 0.696347 0.019269
Si Si2 0.750000 0.500000 0.000000
Si Si3 0.419105 0.629033 0.295613
Si Si4 0.423442 0.801034 0.647349
Si Si5 0.182579 0.545399 0.626353
O O1 0.661909 0.750000 0.089960
O O2 0.625758 0.659613 0.145418
O O3 0.750000 0.685090 0.000000
O O4 0.635550 0.694976 0.806211
O O5 0.793835 0.469668 0.155888
O O6 0.500000 0.621826 0.233544
O O7 0.420210 0.659860 0.488820
O O8 0.378278 0.582259 0.347249
O O9 0.500000 0.803284 0.745411
O O10 0.418516 0.750000 0.554678
O O11 0.161469 0.500000 0.500000
O O12 0.250000 0.563264 0.500000
#
# Coordination Sequence:
#
# PCOD9504315 Si02
#       5
#    16   4  16  16  16
#     4  10  22  36  54  84 118 154 196 238 280 335
#     4   8  18  40  62  82 106 148 184 228 304 346
#     4  11  23  36  58  88 115 151 193 238 291 344
#     4   9  19  36  55  78 115 156 188 226 278 335
#     4   9  21  39  60  84 110 146 190 237 290 351
#
# _framework density 17.837885
#
# number of rings (size 3 to 8) (size 9 to 14) (size 15 to 20)
#    0.000    2.588    0.000    1.412    4.941    4.706 
#    0.000    4.118    0.000    0.000    0.000    0.000 
#    0.000    0.000    0.000    0.000    0.000    0.000 
#
# Total GULP energy -189406.280611 kJ/mol
# GULP energy per Si atom -5570.772959 kJ/mol
# Density = 1.779728 g / cm^3
# Si number density = 17.837885 Si / 1000 Ang^3
#
#
#
# Elastic Constant Matrix: (Units=GPa)
#
#
# Indices 1 2 3 4 5 6 
#
# 1 153.7381 83.1646 54.9607 0.0000 0.0000 0.0000
# 2 83.1646 110.9522 42.8384 0.0000 0.0000 0.0000
# 3 54.9607 42.8384 84.4066 0.0000 0.0000 0.0000
# 4 0.0000 0.0000 0.0000 30.8499 0.0000 0.0000
# 5 0.0000 0.0000 0.0000 0.0000 14.1059 0.0000
# 6 0.0000 0.0000 0.0000 0.0000 0.0000 41.6903
#
#
#
# Elastic Compliance Matrix: (Units=1/GPa)
#
#
# Indices 1 2 3 4 5 6 
#
# 1 0.011946 -0.007401 -0.004022 0.000000 0.000000 0.000000
# 2 -0.007401 0.015795 -0.003197 0.000000 0.000000 0.000000
# 3 -0.004022 -0.003197 0.016089 0.000000 0.000000 0.000000
# 4 0.000000 0.000000 0.000000 0.032415 0.000000 0.000000
# 5 0.000000 0.000000 0.000000 0.000000 0.070892 0.000000
# 6 0.000000 0.000000 0.000000 0.000000 0.000000 0.023986
#
#
# Mechanical properties :
#
#
# Convention : Reuss Voigt Hill
#
# Bulk Modulus (GPa) = 68.54517 79.00271 73.77394
# Shear Modulus (GPa) = 24.36306 28.53810 26.45058
#
# Velocity S-wave (km/s) = 3.69969 4.00416 3.85493
# Velocity P-wave (km/s) = 7.53395 8.10945 7.82699
#
# Compressibility (1/GPa) = 0.01458892
#
# Stress axis : x y z
#
# Youngs Moduli (GPa) = 83.70766 63.31128 62.15386
#
# Poissons Ratio (x) = 0.46859 0.25001
# Poissons Ratio (y) = 0.61955 0.19870
# Poissons Ratio (z) = 0.33670 0.20240
#
# Static dielectric constant tensor:
#      x y z
#    x 1.584570 0.000000 0.000000 
#    y 0.000000 1.630140 0.000000 
#    z 0.000000 0.000000 1.584570 
# 
# From -- ./inp_files/2922.got.cif
#   From: 2010.05.17/outbox.cif.g08.bks.cpg/sg67_2_cif.got.tgz:2922.got - 2010.06.03 18:28:57.
