data_PCOD9504896
_publ_section_title
;
Structure prediction by ZEFSAII (Michael W. Deem and Ramdas Pophale) SiO2 
 PCOD9504896
Probable space group: C M M A
;
_chemical_formula_sum "Si O2"
_cell_formula_units_Z 88
_cell_length_a 21.315082
_cell_length_b 14.983596
_cell_length_c 13.553326
_cell_angle_alpha 90.000000
_cell_angle_beta 90.000000
_cell_angle_gamma 90.000000
_cell_volume 4328.614870
_symmetry_space_group_name_H-M "C M M A"
_symmetry_group_IT_number 67
_symmetry_cell_setting 'orthorhombic'
loop_
_space_group_symop_operation_xyz
x,y,z
-x,1/2-y,z
x,-y,-z
-x,1/2+y,-z
-x,-y,-z
x,1/2+y,-z
-x,y,z
x,1/2-y,z
1/2+x,1/2+y,z
1/2-x,-y,z
1/2+x,1/2-y,-z
1/2-x,y,-z
1/2-x,1/2-y,-z
1/2+x,y,-z
1/2-x,1/2+y,z
1/2+x,-y,z
loop_
_atom_site_type_symbol
_atom_site_label
_atom_site_fract_x
_atom_site_fract_y
_atom_site_fract_z
Si Si1 0.250000 0.500000 0.802792
Si Si2 0.424560 0.351004 0.555825
Si Si3 0.121959 0.537718 0.738541
Si Si4 0.190246 0.845222 0.071502
Si Si5 0.070781 0.596906 0.948922
Si Si6 0.075581 0.647009 0.328757
O O1 0.196815 0.550803 0.742482
O O2 0.208134 0.432734 0.867233
O O3 0.500000 0.352877 0.554082
O O4 0.404875 0.250000 0.581712
O O5 0.402817 0.418956 0.638321
O O6 0.404866 0.368484 0.442919
O O7 0.091012 0.582755 0.835065
O O8 0.103993 0.432670 0.735081
O O9 0.187741 0.750000 0.126395
O O10 0.250000 0.840476 0.000000
O O11 0.126582 0.855057 0.008385
O O12 0.000000 0.635307 0.954844
O O13 0.068152 0.500000 0.000000
O O14 0.091070 0.750000 0.303425
O O15 0.000000 0.639815 0.322963
#
# Coordination Sequence:
#
# PCOD9504896 Si02
#       6
#     8  16  16  16  16  16
#     4  12  25  42  61  84 122 164 221 260 293 372
#     4   9  19  37  62  91 123 157 199 254 315 379
#     4  12  22  36  63  88 122 165 204 254 312 366
#     4  11  22  42  67  84 116 171 213 250 308 371
#     4  11  22  38  61  91 127 161 204 265 317 359
#     4   9  19  38  63  92 124 158 198 248 312 383
#
# _framework density 20.329827999999999
#
# number of rings (size 3 to 8) (size 9 to 14) (size 15 to 20)
#    0.000    1.455    3.636    3.545    0.000    4.000 
#    0.000    1.818    0.000    2.182    0.000    0.000 
#    0.000    0.000    0.000    0.000    0.000    0.000 
#
# Total GULP energy -245555.303206 kJ/mol
# GULP energy per Si atom -5580.802346 kJ/mol
# Density = 2.028356 g / cm^3
# Si number density = 20.329828 Si / 1000 Ang^3
#
#
#
# Elastic Constant Matrix: (Units=GPa)
#
#
# Indices 1 2 3 4 5 6 
#
# 1 125.7906 29.1365 31.7608 0.0000 0.0000 0.0000
# 2 29.1365 98.4219 32.5394 0.0000 0.0000 0.0000
# 3 31.7608 32.5394 50.8733 0.0000 0.0000 0.0000
# 4 0.0000 0.0000 0.0000 -716.5462 0.0000 0.0000
# 5 0.0000 0.0000 0.0000 0.0000 24.8449 0.0000
# 6 0.0000 0.0000 0.0000 0.0000 0.0000 -12.3085
#
#
#
# Elastic Compliance Matrix: (Units=1/GPa)
#
#
# Indices 1 2 3 4 5 6 
#
# 1 0.009528 -0.001083 -0.005255 0.000000 0.000000 0.000000
# 2 -0.001083 0.013008 -0.007644 0.000000 0.000000 0.000000
# 3 -0.005255 -0.007644 0.027827 0.000000 0.000000 0.000000
# 4 0.000000 0.000000 0.000000 -0.001396 0.000000 0.000000
# 5 0.000000 0.000000 0.000000 0.000000 0.040250 0.000000
# 6 0.000000 0.000000 0.000000 0.000000 0.000000 -0.081245
#
#
# Mechanical properties :
#
#
# Convention : Reuss Voigt Hill
#
# Bulk Modulus (GPa) = 44.64763 51.32879 47.98821
# Shear Modulus (GPa) = 115.19987 -128.69202 -6.74608
#
# Velocity S-wave (km/s) = 7.53581 -7.96489 -1.82360
# Velocity P-wave (km/s) = 9.88571 7.69956 4.38430
#
# Compressibility (1/GPa) = 0.02239761
#
# Stress axis : x y z
#
# Youngs Moduli (GPa) = 104.95919 76.87474 35.93634
#
# Poissons Ratio (x) = 0.08325 0.18886
# Poissons Ratio (y) = 0.11367 0.27470
# Poissons Ratio (z) = 0.55161 0.58764
#
# Static dielectric constant tensor:
#      x y z
#    x 1.740460 0.000000 0.000000 
#    y 0.000000 1.784200 0.000000 
#    z 0.000000 0.000000 1.712450 
# 
# From -- ./inp_files/21770.got.cif
#   From: 2010.05.17/outbox.cif.g08.bks.cpg/sg67_11_cif.got.tgz:21770.got - 2010.06.03 18:28:57.
