data_PCOD9504716
_publ_section_title
;
Structure prediction by ZEFSAII (Michael W. Deem and Ramdas Pophale) SiO2 
 PCOD9504716
Probable space group: C M M A
;
_chemical_formula_sum "Si O2"
_cell_formula_units_Z 96
_cell_length_a 17.066727
_cell_length_b 26.312941
_cell_length_c 12.267858
_cell_angle_alpha 90.000000
_cell_angle_beta 90.000000
_cell_angle_gamma 90.000000
_cell_volume 5509.197908
_symmetry_space_group_name_H-M "C M M A"
_symmetry_group_IT_number 67
_symmetry_cell_setting 'orthorhombic'
loop_
_space_group_symop_operation_xyz
x,y,z
-x,1/2-y,z
x,-y,-z
-x,1/2+y,-z
-x,-y,-z
x,1/2+y,-z
-x,y,z
x,1/2-y,z
1/2+x,1/2+y,z
1/2-x,-y,z
1/2+x,1/2-y,-z
1/2-x,y,-z
1/2-x,1/2-y,-z
1/2+x,y,-z
1/2-x,1/2+y,z
1/2+x,-y,z
loop_
_atom_site_type_symbol
_atom_site_label
_atom_site_fract_x
_atom_site_fract_y
_atom_site_fract_z
Si Si1 0.408803 0.926471 0.794054
Si Si2 0.594688 0.103247 0.669057
Si Si3 0.338516 0.622065 0.997384
Si Si4 0.165282 0.472481 0.159079
Si Si5 0.405373 0.446291 0.449279
Si Si6 0.593322 0.692964 0.177207
O O1 0.500000 0.913224 0.789508
O O2 0.366006 0.887870 0.874780
O O3 0.376043 0.932010 0.670936
O O4 0.397127 0.982269 0.845780
O O5 0.500000 0.095357 0.686280
O O6 0.642189 0.060382 0.734990
O O7 0.609403 0.095748 0.541378
O O8 0.617799 0.156863 0.722172
O O9 0.250000 0.640715 0.000000
O O10 0.338751 0.567809 0.060962
O O11 0.388279 0.661402 0.067995
O O12 0.250000 0.500000 0.163260
O O13 0.377324 0.500000 0.500000
O O14 0.500000 0.451821 0.437092
O O15 0.500000 0.696885 0.185514
O O16 0.626362 0.750000 0.177495
#
# Coordination Sequence:
#
# PCOD9504716 Si02
#       6
#    16  16  16  16  16  16
#     4  11  21  32  50  72 102 143 178 205 252 310
#     4   9  17  32  54  76 102 136 174 215 259 305
#     4  11  22  34  50  73 106 139 170 217 265 309
#     4  11  20  31  47  70 110 142 172 212 248 301
#     4   9  16  29  48  73 103 136 174 211 244 303
#     4   9  19  36  58  80  99 127 177 231 267 305
#
# _framework density 17.425404
#
# number of rings (size 3 to 8) (size 9 to 14) (size 15 to 20)
#    0.000    2.000    3.333    1.500    0.000    3.000 
#    0.000    1.667    0.000    1.000    0.000    5.833 
#    0.000    0.000    0.000    0.000    0.000    0.000 
#
# Total GULP energy -267554.203814 kJ/mol
# GULP energy per Si atom -5574.045913 kJ/mol
# Density = 1.738574 g / cm^3
# Si number density = 17.425404 Si / 1000 Ang^3
#
#
#
# Elastic Constant Matrix: (Units=GPa)
#
#
# Indices 1 2 3 4 5 6 
#
# 1 26.0686 15.4379 27.4937 0.0000 0.0000 0.0000
# 2 15.4379 103.4464 44.4539 0.0000 0.0000 0.0000
# 3 27.4937 44.4539 104.7969 0.0000 0.0000 0.0000
# 4 0.0000 0.0000 0.0000 -86.4646 0.0000 0.0000
# 5 0.0000 0.0000 0.0000 0.0000 9.6313 0.0000
# 6 0.0000 0.0000 0.0000 0.0000 0.0000 17.0302
#
#
#
# Elastic Compliance Matrix: (Units=1/GPa)
#
#
# Indices 1 2 3 4 5 6 
#
# 1 0.053513 -0.002388 -0.013026 0.000000 0.000000 0.000000
# 2 -0.002388 0.011928 -0.004433 0.000000 0.000000 0.000000
# 3 -0.013026 -0.004433 0.014840 0.000000 0.000000 0.000000
# 4 0.000000 0.000000 0.000000 -0.011565 0.000000 0.000000
# 5 0.000000 0.000000 0.000000 0.000000 0.103828 0.000000
# 6 0.000000 0.000000 0.000000 0.000000 0.000000 0.058719
#
#
# Mechanical properties :
#
#
# Convention : Reuss Voigt Hill
#
# Bulk Modulus (GPa) = 24.63907 45.45366 35.04636
# Shear Modulus (GPa) = 17.57543 -2.16553 7.70495
#
# Velocity S-wave (km/s) = 3.17931 -1.11599 2.10506
# Velocity P-wave (km/s) = 5.25811 4.94780 5.10532
#
# Compressibility (1/GPa) = 0.04058595
#
# Stress axis : x y z
#
# Youngs Moduli (GPa) = 18.68710 83.83355 67.38422
#
# Poissons Ratio (x) = 0.20022 0.87775
# Poissons Ratio (y) = 0.04463 0.29874
# Poissons Ratio (z) = 0.24342 0.37166
#
# Static dielectric constant tensor:
#      x y z
#    x 1.618520 0.000000 0.000000 
#    y 0.000000 1.593850 0.000000 
#    z 0.000000 0.000000 1.621530 
# 
# From -- ./inp_files/19781.got.cif
#   From: 2010.05.17/outbox.cif.g08.bks.cpg/sg67_10_cif.got.tgz:19781.got - 2010.06.03 18:28:57.
