data_PCOD9504260
_publ_section_title
;
Structure prediction by ZEFSAII (Michael W. Deem and Ramdas Pophale) SiO2 
 PCOD9504260
Probable space group: C M M A
;
_chemical_formula_sum "Si O2"
_cell_formula_units_Z 48
_cell_length_a 13.717848
_cell_length_b 5.471689
_cell_length_c 32.508001
_cell_angle_alpha 90.000000
_cell_angle_beta 90.000000
_cell_angle_gamma 90.000000
_cell_volume 2440.043989
_symmetry_space_group_name_H-M "C M M A"
_symmetry_group_IT_number 67
_symmetry_cell_setting 'orthorhombic'
loop_
_space_group_symop_operation_xyz
x,y,z
-x,1/2-y,z
x,-y,-z
-x,1/2+y,-z
-x,-y,-z
x,1/2+y,-z
-x,y,z
x,1/2-y,z
1/2+x,1/2+y,z
1/2-x,-y,z
1/2+x,1/2-y,-z
1/2-x,y,-z
1/2-x,1/2-y,-z
1/2+x,y,-z
1/2-x,1/2+y,z
1/2+x,-y,z
loop_
_atom_site_type_symbol
_atom_site_label
_atom_site_fract_x
_atom_site_fract_y
_atom_site_fract_z
Si Si1 0.190048 0.250000 0.819841
Si Si2 0.000000 0.250000 0.763300
Si Si3 0.638399 0.750000 0.600493
Si Si4 0.000000 0.250000 0.289011
Si Si5 0.861519 0.750000 0.636477
Si Si6 0.500000 0.250000 0.474091
Si Si7 0.690096 0.250000 0.082828
Si Si8 0.000000 0.250000 0.973613
O O1 0.250000 0.500000 0.811812
O O2 0.165438 0.250000 0.868511
O O3 0.094912 0.250000 0.791980
O O4 0.000000 0.498949 0.736660
O O5 0.749950 0.750000 0.618507
O O6 0.599234 0.499940 0.618477
O O7 0.599254 0.750000 0.553761
O O8 0.900540 0.250000 0.316784
O O9 0.500000 0.500000 0.500000
O O10 0.750000 0.500000 0.074729
O O11 0.594996 0.250000 0.055006
O O12 0.000000 0.500000 0.000000
#
# Coordination Sequence:
#
# PCOD9504260 Si02
#       8
#     8   4   8   4   8   4   8   4
#     4  10  22  44  67  93 127 175 219 266 332 405
#     4  12  25  43  64 100 134 166 202 284 342 369
#     4  10  21  41  65  87 124 166 202 252 296 372
#     4  12  24  41  63  96 126 162 212 262 317 375
#     4  10  21  41  63  88 115 167 214 237 297 375
#     4  12  24  40  64  98 125 154 199 264 316 354
#     4  10  22  41  66  89 122 176 227 262 324 416
#     4  12  25  38  59  96 133 168 217 286 341 382
#
# _framework density 19.671778
#
# number of rings (size 3 to 8) (size 9 to 14) (size 15 to 20)
#    0.000    1.333    0.000    5.500    0.000    2.000 
#   18.000   16.667    0.000    0.000    0.000    0.000 
#    0.000    0.000    0.000    0.000    0.000    0.000 
#
# Total GULP energy -133658.987368 kJ/mol
# GULP energy per Si atom -5569.124474 kJ/mol
# Density = 1.962700 g / cm^3
# Si number density = 19.671778 Si / 1000 Ang^3
#
#
#
# Elastic Constant Matrix: (Units=GPa)
#
#
# Indices 1 2 3 4 5 6 
#
# 1 183.6599 82.4948 114.5423 0.0000 0.0000 0.0000
# 2 82.4948 256.7702 105.0521 0.0000 0.0000 0.0000
# 3 114.5423 105.0521 134.4644 0.0000 0.0000 0.0000
# 4 0.0000 0.0000 0.0000 28.3674 0.0000 0.0000
# 5 0.0000 0.0000 0.0000 0.0000 448.5887 0.0000
# 6 0.0000 0.0000 0.0000 0.0000 0.0000 -121.8128
#
#
#
# Elastic Compliance Matrix: (Units=1/GPa)
#
#
# Indices 1 2 3 4 5 6 
#
# 1 0.011654 0.000466 -0.010292 0.000000 0.000000 0.000000
# 2 0.000466 0.005743 -0.004884 0.000000 0.000000 0.000000
# 3 -0.010292 -0.004884 0.020020 0.000000 0.000000 0.000000
# 4 0.000000 0.000000 0.000000 0.035252 0.000000 0.000000
# 5 0.000000 0.000000 0.000000 0.000000 0.002229 0.000000
# 6 0.000000 0.000000 0.000000 0.000000 0.000000 -0.008209
#
#
# Mechanical properties :
#
#
# Convention : Reuss Voigt Hill
#
# Bulk Modulus (GPa) = 125.03538 131.00810 128.02174
# Shear Modulus (GPa) = 50.62131 89.21569 69.91850
#
# Velocity S-wave (km/s) = 5.07827 6.74170 5.96822
# Velocity P-wave (km/s) = 9.90373 11.28461 10.61664
#
# Compressibility (1/GPa) = 0.00799774
#
# Stress axis : x y z
#
# Youngs Moduli (GPa) = 85.80805 174.12890 49.95105
#
# Poissons Ratio (x) = -0.08123 0.51408
# Poissons Ratio (y) = -0.04003 0.24396
# Poissons Ratio (z) = 0.88311 0.85046
#
# Static dielectric constant tensor:
#      x y z
#    x 1.640080 0.000000 0.000000 
#    y 0.000000 1.675970 0.000000 
#    z 0.000000 0.000000 1.684150 
# 
# From -- ./inp_files/44227.got.cif
#   From: 2010.05.17/outbox.cif.g08.bks.cpg/sg67_23_cif.got.tgz:44227.got - 2010.06.03 18:28:57.
