data_PCOD9504229
_publ_section_title
;
Structure prediction by ZEFSAII (Michael W. Deem and Ramdas Pophale) SiO2 
 PCOD9504229
Probable space group: C M M A
;
_chemical_formula_sum "Si O2"
_cell_formula_units_Z 120
_cell_length_a 21.491643
_cell_length_b 23.582181
_cell_length_c 12.315986
_cell_angle_alpha 90.000000
_cell_angle_beta 90.000000
_cell_angle_gamma 90.000000
_cell_volume 6241.985749
_symmetry_space_group_name_H-M "C M M A"
_symmetry_group_IT_number 67
_symmetry_cell_setting 'orthorhombic'
loop_
_space_group_symop_operation_xyz
x,y,z
-x,1/2-y,z
x,-y,-z
-x,1/2+y,-z
-x,-y,-z
x,1/2+y,-z
-x,y,z
x,1/2-y,z
1/2+x,1/2+y,z
1/2-x,-y,z
1/2+x,1/2-y,-z
1/2-x,y,-z
1/2-x,1/2-y,-z
1/2+x,y,-z
1/2-x,1/2+y,z
1/2+x,-y,z
loop_
_atom_site_type_symbol
_atom_site_label
_atom_site_fract_x
_atom_site_fract_y
_atom_site_fract_z
Si Si1 0.877832 0.119457 0.764267
Si Si2 0.068514 0.431561 0.980148
Si Si3 0.683218 0.002175 0.298289
Si Si4 0.931509 0.628223 0.468826
Si Si5 0.691290 0.683182 0.431451
Si Si6 0.256074 0.814288 0.803575
Si Si7 0.300953 0.921459 0.087995
Si Si8 0.096910 0.500000 0.500000
O O1 0.915016 0.138325 0.657611
O O2 0.828709 0.168543 0.793150
O O3 0.833651 0.065820 0.735790
O O4 0.921234 0.093058 0.858632
O O5 0.130933 0.412552 0.039184
O O6 0.000000 0.412782 0.018669
O O7 0.069440 0.500000 0.000000
O O8 0.689369 0.962938 0.191459
O O9 0.634591 0.986152 0.389970
O O10 0.750000 0.000000 0.353006
O O11 0.873062 0.651786 0.538840
O O12 0.934809 0.559956 0.477715
O O13 0.000000 0.651488 0.497610
O O14 0.682853 0.750000 0.459822
O O15 0.750000 0.659965 0.500000
O O16 0.717533 0.680621 0.309435
O O17 0.250564 0.750000 0.841530
O O18 0.225484 0.861289 0.877576
O O19 0.250000 0.942421 0.000000
#
# Coordination Sequence:
#
# PCOD9504229 Si02
#       8
#    16  16  16  16  16  16  16   8
#     4  11  21  37  60  89 123 155 199 255 306 364
#     4  11  23  40  61  90 124 162 198 242 304 370
#     4  11  20  34  58  90 122 159 202 257 304 358
#     4  11  23  38  59  88 125 162 199 247 305 368
#     4  10  21  40  65  88 116 155 205 255 302 359
#     4  11  23  39  62  92 121 155 203 257 311 361
#     4  12  23  38  63  92 124 157 206 260 305 367
#     4  10  24  36  54  84 131 172 199 232 305 382
#
# _framework density 19.224651000000001
#
# number of rings (size 3 to 8) (size 9 to 14) (size 15 to 20)
#    0.000    1.067    5.333    1.600    0.000    0.533 
#    0.000    2.667    0.000    3.200    0.000    0.000 
#    0.000    0.000    0.000    0.000    0.000    0.000 
#
# Total GULP energy -334540.668541 kJ/mol
# GULP energy per Si atom -5575.677809 kJ/mol
# Density = 1.918089 g / cm^3
# Si number density = 19.224651 Si / 1000 Ang^3
#
#
#
# Elastic Constant Matrix: (Units=GPa)
#
#
# Indices 1 2 3 4 5 6 
#
# 1 147.3774 30.6745 24.9531 0.0000 0.0000 0.0000
# 2 30.6745 79.6113 22.2979 0.0000 0.0000 0.0000
# 3 24.9531 22.2979 63.8808 0.0000 0.0000 0.0000
# 4 0.0000 0.0000 0.0000 15.5409 0.0000 0.0000
# 5 0.0000 0.0000 0.0000 0.0000 15.1324 0.0000
# 6 0.0000 0.0000 0.0000 0.0000 0.0000 1.4322
#
#
#
# Elastic Compliance Matrix: (Units=1/GPa)
#
#
# Indices 1 2 3 4 5 6 
#
# 1 0.007639 -0.002336 -0.002168 0.000000 0.000000 0.000000
# 2 -0.002336 0.014636 -0.004196 0.000000 0.000000 0.000000
# 3 -0.002168 -0.004196 0.017966 0.000000 0.000000 0.000000
# 4 0.000000 0.000000 0.000000 0.064346 0.000000 0.000000
# 5 0.000000 0.000000 0.000000 0.000000 0.066084 0.000000
# 6 0.000000 0.000000 0.000000 0.000000 0.000000 0.698210
#
#
# Mechanical properties :
#
#
# Convention : Reuss Voigt Hill
#
# Bulk Modulus (GPa) = 43.78386 49.63562 46.70974
# Shear Modulus (GPa) = 5.59349 20.61736 13.10543
#
# Velocity S-wave (km/s) = 1.70759 3.27837 2.61377
# Velocity P-wave (km/s) = 5.16838 6.34075 5.78434
#
# Compressibility (1/GPa) = 0.02283947
#
# Stress axis : x y z
#
# Youngs Moduli (GPa) = 130.91359 68.32280 55.66064
#
# Poissons Ratio (x) = 0.15959 0.12070
# Poissons Ratio (y) = 0.30579 0.23358
# Poissons Ratio (z) = 0.28388 0.28672
#
# Static dielectric constant tensor:
#      x y z
#    x 1.695930 0.000000 0.000000 
#    y 0.000000 1.674940 0.000000 
#    z 0.000000 0.000000 1.758080 
# 
# From -- ./inp_files/21158.got.cif
#   From: 2010.05.17/outbox.cif.g08.bks.cpg/sg67_11_cif.got.tgz:21158.got - 2010.06.03 18:28:57.
