data_PCOD9504901
_publ_section_title
;
Structure prediction by ZEFSAII (Michael W. Deem and Ramdas Pophale) SiO2 
 PCOD9504901
Probable space group: C M M A
;
_chemical_formula_sum "Si O2"
_cell_formula_units_Z 116
_cell_length_a 27.144618
_cell_length_b 16.140513
_cell_length_c 11.545975
_cell_angle_alpha 90.000000
_cell_angle_beta 90.000000
_cell_angle_gamma 90.000000
_cell_volume 5058.615624
_symmetry_space_group_name_H-M "C M M A"
_symmetry_group_IT_number 67
_symmetry_cell_setting 'orthorhombic'
loop_
_space_group_symop_operation_xyz
x,y,z
-x,1/2-y,z
x,-y,-z
-x,1/2+y,-z
-x,-y,-z
x,1/2+y,-z
-x,y,z
x,1/2-y,z
1/2+x,1/2+y,z
1/2-x,-y,z
1/2+x,1/2-y,-z
1/2-x,y,-z
1/2-x,1/2-y,-z
1/2+x,y,-z
1/2-x,1/2+y,z
1/2+x,-y,z
loop_
_atom_site_type_symbol
_atom_site_label
_atom_site_fract_x
_atom_site_fract_y
_atom_site_fract_z
Si Si1 0.594247 0.375458 0.695333
Si Si2 0.500000 0.250000 0.726281
Si Si3 0.946881 0.346219 0.978706
Si Si4 0.193568 0.596422 0.263808
Si Si5 0.945880 0.546522 0.249798
Si Si6 0.802661 0.098949 0.222640
Si Si7 0.836646 0.847363 0.008567
Si Si8 0.389293 0.151694 0.431093
O O1 0.545745 0.320563 0.721395
O O2 0.587021 0.465861 0.749753
O O3 0.649662 0.350111 0.734224
O O4 0.599455 0.384397 0.556802
O O5 0.945953 0.250000 0.938332
O O6 0.947709 0.409831 0.873949
O O7 0.893580 0.358224 0.033426
O O8 0.000000 0.354458 0.042033
O O9 0.194039 0.496587 0.262346
O O10 0.249407 0.629195 0.263981
O O11 0.168870 0.624774 0.141764
O O12 0.162707 0.628120 0.373064
O O13 0.927572 0.613967 0.340360
O O14 0.000000 0.518737 0.283810
O O15 0.803906 0.103482 0.082857
O O16 0.824744 0.750000 0.002588
O O17 0.393976 0.250000 0.439815
#
# Coordination Sequence:
#
# PCOD9504901 Si02
#       8
#    16   4  16  16  16  16  16  16
#     4  12  26  48  67 100 138 184 238 279 352 424
#     4  12  28  52  70  98 152 192 240 292 336 444
#     4   9  18  36  61 101 141 180 236 291 351 413
#     4  11  24  46  71 102 135 182 237 301 352 408
#     4  11  22  38  69  98 134 178 223 286 344 414
#     4  11  26  45  71  99 137 187 240 283 351 434
#     4  11  22  40  67 100 140 183 232 293 353 420
#     4  12  25  42  70 102 139 175 226 295 351 415
#
# _framework density 22.931173999999999
#
# number of rings (size 3 to 8) (size 9 to 14) (size 15 to 20)
#    0.000    0.966    4.138    2.069    1.931    4.690 
#    1.241    2.069    0.000    2.483    0.000    0.000 
#    0.000    0.000    0.000    0.000    0.000    0.000 
#
# Total GULP energy -323724.846228 kJ/mol
# GULP energy per Si atom -5581.462866 kJ/mol
# Density = 2.287898 g / cm^3
# Si number density = 22.931174 Si / 1000 Ang^3
#
#
#
# Elastic Constant Matrix: (Units=GPa)
#
#
# Indices 1 2 3 4 5 6 
#
# 1 158.7025 15.1501 3.7177 0.0000 0.0000 0.0000
# 2 15.1501 53.1925 25.2979 0.0000 0.0000 0.0000
# 3 3.7177 25.2979 47.6483 0.0000 0.0000 0.0000
# 4 0.0000 0.0000 0.0000 120.6295 0.0000 0.0000
# 5 0.0000 0.0000 0.0000 0.0000 20.0973 0.0000
# 6 0.0000 0.0000 0.0000 0.0000 0.0000 28.3591
#
#
#
# Elastic Compliance Matrix: (Units=1/GPa)
#
#
# Indices 1 2 3 4 5 6 
#
# 1 0.006492 -0.002151 0.000636 0.000000 0.000000 0.000000
# 2 -0.002151 0.025863 -0.013564 0.000000 0.000000 0.000000
# 3 0.000636 -0.013564 0.028139 0.000000 0.000000 0.000000
# 4 0.000000 0.000000 0.000000 0.008290 0.000000 0.000000
# 5 0.000000 0.000000 0.000000 0.000000 0.049758 0.000000
# 6 0.000000 0.000000 0.000000 0.000000 0.000000 0.035262
#
#
# Mechanical properties :
#
#
# Convention : Reuss Voigt Hill
#
# Bulk Modulus (GPa) = 32.96511 38.65274 35.80892
# Shear Modulus (GPa) = 25.76345 48.17569 36.96957
#
# Velocity S-wave (km/s) = 3.35552 4.58851 4.01957
# Velocity P-wave (km/s) = 5.42398 6.70561 6.09855
#
# Compressibility (1/GPa) = 0.03033511
#
# Stress axis : x y z
#
# Youngs Moduli (GPa) = 154.04608 38.66517 35.53810
#
# Poissons Ratio (x) = 0.08318 -0.02259
# Poissons Ratio (y) = 0.33138 0.48202
# Poissons Ratio (z) = -0.09792 0.52444
#
# Static dielectric constant tensor:
#      x y z
#    x 1.916170 0.000000 0.000000 
#    y 0.000000 1.818440 0.000000 
#    z 0.000000 0.000000 1.845050 
# 
# From -- ./inp_files/23061.got.cif
#   From: 2010.05.17/outbox.cif.g08.bks.cpg/sg67_12_cif.got.tgz:23061.got - 2010.06.03 18:28:57.
