data_PCOD9504171
_publ_section_title
;
Structure prediction by ZEFSAII (Michael W. Deem and Ramdas Pophale) SiO2 
 PCOD9504171
Probable space group: C M M A
;
_chemical_formula_sum "Si O2"
_cell_formula_units_Z 68
_cell_length_a 9.232615
_cell_length_b 15.091707
_cell_length_c 22.249601
_cell_angle_alpha 90.000000
_cell_angle_beta 90.000000
_cell_angle_gamma 90.000000
_cell_volume 3100.168634
_symmetry_space_group_name_H-M "C M M A"
_symmetry_group_IT_number 67
_symmetry_cell_setting 'orthorhombic'
loop_
_space_group_symop_operation_xyz
x,y,z
-x,1/2-y,z
x,-y,-z
-x,1/2+y,-z
-x,-y,-z
x,1/2+y,-z
-x,y,z
x,1/2-y,z
1/2+x,1/2+y,z
1/2-x,-y,z
1/2+x,1/2-y,-z
1/2-x,y,-z
1/2-x,1/2-y,-z
1/2+x,y,-z
1/2-x,1/2+y,z
1/2+x,-y,z
loop_
_atom_site_type_symbol
_atom_site_label
_atom_site_fract_x
_atom_site_fract_y
_atom_site_fract_z
Si Si1 0.662950 0.645871 0.594277
Si Si2 0.250000 0.500000 0.500000
Si Si3 0.337863 0.356066 0.711195
Si Si4 0.172981 0.906916 0.169697
Si Si5 0.161807 0.352701 0.055361
O O1 0.500000 0.646697 0.619426
O O2 0.692472 0.750000 0.575513
O O3 0.669073 0.571077 0.542897
O O4 0.774800 0.619100 0.646328
O O5 0.500000 0.392945 0.721593
O O6 0.348175 0.250000 0.710206
O O7 0.229788 0.378709 0.764856
O O8 0.242734 0.852251 0.115458
O O9 0.000000 0.908123 0.167297
O O10 0.250000 0.000000 0.159081
O O11 0.140695 0.250000 0.039588
O O12 0.000000 0.391465 0.064648
O O13 0.250000 0.394452 0.000000
#
# Coordination Sequence:
#
# PCOD9504171 Si02
#       5
#    16   4  16  16  16
#     4  10  23  43  66  95 131 173 221 271 330 398
#     4  12  24  40  68 100 134 172 220 278 330 390
#     4  10  22  42  67  93 124 163 209 263 320 379
#     4  12  25  40  61  90 126 165 209 260 317 379
#     4  10  21  39  63  91 124 163 210 260 313 376
#
# _framework density 21.934290000000001
#
# number of rings (size 3 to 8) (size 9 to 14) (size 15 to 20)
#    0.000    1.412    0.000    4.941    1.647    8.000 
#    0.000    4.706    0.000    0.000    0.000    0.000 
#    0.000    0.000    0.000    0.000    0.000    0.000 
#
# Total GULP energy -189718.020206 kJ/mol
# GULP energy per Si atom -5579.941771 kJ/mol
# Density = 2.188437 g / cm^3
# Si number density = 21.934290 Si / 1000 Ang^3
#
#
#
# Elastic Constant Matrix: (Units=GPa)
#
#
# Indices 1 2 3 4 5 6 
#
# 1 216.2692 29.1530 76.6374 0.0000 0.0000 0.0000
# 2 29.1530 75.3238 32.7606 0.0000 0.0000 0.0000
# 3 76.6374 32.7606 99.2227 0.0000 0.0000 0.0000
# 4 0.0000 0.0000 0.0000 -14.9888 0.0000 0.0000
# 5 0.0000 0.0000 0.0000 0.0000 28.0564 0.0000
# 6 0.0000 0.0000 0.0000 0.0000 0.0000 22.3412
#
#
#
# Elastic Compliance Matrix: (Units=1/GPa)
#
#
# Indices 1 2 3 4 5 6 
#
# 1 0.006376 -0.000380 -0.004799 0.000000 0.000000 0.000000
# 2 -0.000380 0.015525 -0.004832 0.000000 0.000000 0.000000
# 3 -0.004799 -0.004832 0.015380 0.000000 0.000000 0.000000
# 4 0.000000 0.000000 0.000000 -0.066717 0.000000 0.000000
# 5 0.000000 0.000000 0.000000 0.000000 0.035643 0.000000
# 6 0.000000 0.000000 0.000000 0.000000 0.000000 0.044760
#
#
# Mechanical properties :
#
#
# Convention : Reuss Voigt Hill
#
# Bulk Modulus (GPa) = 57.94354 74.21307 66.07830
# Shear Modulus (GPa) = 65.15324 23.89942 44.52633
#
# Velocity S-wave (km/s) = 5.45603 3.30448 4.51043
# Velocity P-wave (km/s) = 8.13421 6.96184 7.57075
#
# Compressibility (1/GPa) = 0.01725818
#
# Stress axis : x y z
#
# Youngs Moduli (GPa) = 156.84652 64.41278 65.01855
#
# Poissons Ratio (x) = 0.02451 0.31201
# Poissons Ratio (y) = 0.05967 0.31417
# Poissons Ratio (z) = 0.75267 0.31124
#
# Static dielectric constant tensor:
#      x y z
#    x 1.830750 0.000000 0.000000 
#    y 0.000000 1.956830 0.000000 
#    z 0.000000 0.000000 1.863280 
# 
# From -- ./inp_files/36654.got.cif
#   From: 2010.05.17/outbox.cif.g08.bks.cpg/sg67_19_cif.got.tgz:36654.got - 2010.06.03 18:28:57.
