data_PCOD9504620
_publ_section_title
;
Structure prediction by ZEFSAII (Michael W. Deem and Ramdas Pophale) SiO2 
 PCOD9504620
Probable space group: C M M A
;
_chemical_formula_sum "Si O2"
_cell_formula_units_Z 56
_cell_length_a 14.808019
_cell_length_b 7.782283
_cell_length_c 19.554937
_cell_angle_alpha 90.000000
_cell_angle_beta 90.000000
_cell_angle_gamma 90.000000
_cell_volume 2253.514744
_symmetry_space_group_name_H-M "C M M A"
_symmetry_group_IT_number 67
_symmetry_cell_setting 'orthorhombic'
loop_
_space_group_symop_operation_xyz
x,y,z
-x,1/2-y,z
x,-y,-z
-x,1/2+y,-z
-x,-y,-z
x,1/2+y,-z
-x,y,z
x,1/2-y,z
1/2+x,1/2+y,z
1/2-x,-y,z
1/2+x,1/2-y,-z
1/2-x,y,-z
1/2-x,1/2-y,-z
1/2+x,y,-z
1/2-x,1/2+y,z
1/2+x,-y,z
loop_
_atom_site_type_symbol
_atom_site_label
_atom_site_fract_x
_atom_site_fract_y
_atom_site_fract_z
Si Si1 0.399632 0.550058 0.223740
Si Si2 0.144172 0.451937 0.925101
Si Si3 0.250000 0.000000 0.683982
Si Si4 0.605755 0.544034 0.578840
O O1 0.500000 0.502559 0.246490
O O2 0.380935 0.750000 0.241649
O O3 0.396099 0.537837 0.141951
O O4 0.323413 0.436515 0.259737
O O5 0.133773 0.250000 0.916433
O O6 0.250000 0.500000 0.925239
O O7 0.108137 0.500000 0.000000
O O8 0.173912 0.944730 0.628490
O O9 0.624709 0.500000 0.500000
O O10 0.500000 0.503750 0.590739
O O11 0.619071 0.750000 0.589767
#
# Coordination Sequence:
#
# PCOD9504620 Si02
#       4
#    16  16   8  16
#     4  11  25  43  64  95 134 175 221 272 330 396
#     4  11  22  40  68  97 130 171 220 275 331 392
#     4  12  23  40  69  96 130 174 216 272 321 394
#     4  10  23  43  67  97 131 169 217 268 323 387
#
# _framework density 24.850069999999999
#
# number of rings (size 3 to 8) (size 9 to 14) (size 15 to 20)
#    0.000    1.143    1.429    5.571    0.000    5.714 
#    0.000    2.857    0.000    0.000    0.000    0.000 
#    0.000    0.000    0.000    0.000    0.000    0.000 
#
# Total GULP energy -156216.923956 kJ/mol
# GULP energy per Si atom -5579.175856 kJ/mol
# Density = 2.479351 g / cm^3
# Si number density = 24.850070 Si / 1000 Ang^3
#
#
#
# Elastic Constant Matrix: (Units=GPa)
#
#
# Indices 1 2 3 4 5 6 
#
# 1 183.8639 35.8191 75.5438 0.0000 0.0000 0.0000
# 2 35.8191 115.8652 23.6599 0.0000 0.0000 0.0000
# 3 75.5438 23.6599 213.5053 0.0000 0.0000 0.0000
# 4 0.0000 0.0000 0.0000 -4.3358 0.0000 0.0000
# 5 0.0000 0.0000 0.0000 0.0000 120.9675 0.0000
# 6 0.0000 0.0000 0.0000 0.0000 0.0000 -11.2770
#
#
#
# Elastic Compliance Matrix: (Units=1/GPa)
#
#
# Indices 1 2 3 4 5 6 
#
# 1 0.006645 -0.001611 -0.002173 0.000000 0.000000 0.000000
# 2 -0.001611 0.009221 -0.000452 0.000000 0.000000 0.000000
# 3 -0.002173 -0.000452 0.005503 0.000000 0.000000 0.000000
# 4 0.000000 0.000000 0.000000 -0.230640 0.000000 0.000000
# 5 0.000000 0.000000 0.000000 0.000000 0.008267 0.000000
# 6 0.000000 0.000000 0.000000 0.000000 0.000000 -0.088676
#
#
# Mechanical properties :
#
#
# Convention : Reuss Voigt Hill
#
# Bulk Modulus (GPa) = 77.53116 87.03111 82.28113
# Shear Modulus (GPa) = -18.05639 46.28506 14.11433
#
# Velocity S-wave (km/s) = -2.69850 4.32044 2.38582
# Velocity P-wave (km/s) = 4.64307 7.74511 6.38533
#
# Compressibility (1/GPa) = 0.01289804
#
# Stress axis : x y z
#
# Youngs Moduli (GPa) = 150.48184 108.44888 181.73231
#
# Poissons Ratio (x) = 0.17468 0.39487
# Poissons Ratio (y) = 0.24238 0.08213
# Poissons Ratio (z) = 0.32697 0.04901
#
# Static dielectric constant tensor:
#      x y z
#    x 1.921710 0.000000 0.000000 
#    y 0.000000 2.007860 0.000000 
#    z 0.000000 0.000000 1.950010 
# 
# From -- ./inp_files/38203.got.cif
#   From: 2010.05.17/outbox.cif.g08.bks.cpg/sg67_20_cif.got.tgz:38203.got - 2010.06.03 18:28:57.
