data_PCOD9504752
_publ_section_title
;
Structure prediction by ZEFSAII (Michael W. Deem and Ramdas Pophale) SiO2 
 PCOD9504752
Probable space group: C M M A
;
_chemical_formula_sum "Si O2"
_cell_formula_units_Z 116
_cell_length_a 28.892303
_cell_length_b 17.012381
_cell_length_c 11.200932
_cell_angle_alpha 90.000000
_cell_angle_beta 90.000000
_cell_angle_gamma 90.000000
_cell_volume 5505.559009
_symmetry_space_group_name_H-M "C M M A"
_symmetry_group_IT_number 67
_symmetry_cell_setting 'orthorhombic'
loop_
_space_group_symop_operation_xyz
x,y,z
-x,1/2-y,z
x,-y,-z
-x,1/2+y,-z
-x,-y,-z
x,1/2+y,-z
-x,y,z
x,1/2-y,z
1/2+x,1/2+y,z
1/2-x,-y,z
1/2+x,1/2-y,-z
1/2-x,y,-z
1/2-x,1/2-y,-z
1/2+x,y,-z
1/2-x,1/2+y,z
1/2+x,-y,z
loop_
_atom_site_type_symbol
_atom_site_label
_atom_site_fract_x
_atom_site_fract_y
_atom_site_fract_z
Si Si1 0.052031 0.843031 0.413113
Si Si2 0.130344 0.423693 0.427917
Si Si3 0.000000 0.250000 0.956755
Si Si4 0.121501 0.022666 0.177737
Si Si5 0.159506 0.337093 0.011117
Si Si6 0.925155 0.368912 0.864948
Si Si7 0.273160 0.657340 0.371195
Si Si8 0.283097 0.929019 0.838171
O O1 0.052317 0.750000 0.436404
O O2 0.093578 0.880893 0.487304
O O3 0.060528 0.854064 0.271719
O O4 0.000000 0.872982 0.441494
O O5 0.147410 0.500000 0.500000
O O6 0.104986 0.449806 0.306819
O O7 0.174614 0.374375 0.384298
O O8 0.039649 0.179971 0.945953
O O9 0.137454 0.097438 0.099194
O O10 0.083840 0.962595 0.123556
O O11 0.168230 0.970863 0.197312
O O12 0.165637 0.250000 0.063621
O O13 0.124011 0.333039 0.900702
O O14 0.204345 0.372489 0.947784
O O15 0.273731 0.750000 0.346724
O O16 0.250000 0.643966 0.500000
O O17 0.242728 0.615039 0.269789
O O18 0.250000 0.000000 0.871912
#
# Coordination Sequence:
#
# PCOD9504752 Si02
#       8
#    16  16   4  16  16  16  16  16
#     4  11  22  40  67  97 131 172 228 286 340 414
#     4  12  24  42  67  95 135 184 219 280 356 416
#     4  12  20  40  78 106 140 168 242 300 344 420
#     4  11  25  44  66  99 139 185 231 284 350 419
#     4  11  25  45  71  97 139 189 234 288 351 423
#     4  11  20  41  69 102 132 172 229 287 345 403
#     4  11  25  41  62  99 139 180 233 288 347 420
#     4  11  22  43  67  95 135 179 240 288 339 409
#
# _framework density 21.069611999999999
#
# number of rings (size 3 to 8) (size 9 to 14) (size 15 to 20)
#    0.000    0.828    4.828    3.310    1.931    2.483 
#    1.241    2.069    0.000    0.000    0.000    0.000 
#    0.000    0.000    0.000    0.000    0.000    0.000 
#
# Total GULP energy -323378.784120 kJ/mol
# GULP energy per Si atom -5575.496278 kJ/mol
# Density = 2.102166 g / cm^3
# Si number density = 21.069612 Si / 1000 Ang^3
#
#
#
# Elastic Constant Matrix: (Units=GPa)
#
#
# Indices 1 2 3 4 5 6 
#
# 1 93.5037 39.8981 -4.8228 0.0000 0.0000 0.0000
# 2 39.8981 149.7108 44.9652 0.0000 0.0000 0.0000
# 3 -4.8228 44.9652 57.1513 0.0000 0.0000 0.0000
# 4 0.0000 0.0000 0.0000 24.0264 0.0000 0.0000
# 5 0.0000 0.0000 0.0000 0.0000 3.9128 0.0000
# 6 0.0000 0.0000 0.0000 0.0000 0.0000 29.3403
#
#
#
# Elastic Compliance Matrix: (Units=1/GPa)
#
#
# Indices 1 2 3 4 5 6 
#
# 1 0.013089 -0.005002 0.005040 0.000000 0.000000 0.000000
# 2 -0.005002 0.010658 -0.008807 0.000000 0.000000 0.000000
# 3 0.005040 -0.008807 0.024852 0.000000 0.000000 0.000000
# 4 0.000000 0.000000 0.000000 0.041621 0.000000 0.000000
# 5 0.000000 0.000000 0.000000 0.000000 0.255573 0.000000
# 6 0.000000 0.000000 0.000000 0.000000 0.000000 0.034083
#
#
# Mechanical properties :
#
#
# Convention : Reuss Voigt Hill
#
# Bulk Modulus (GPa) = 32.19547 51.16076 41.67812
# Shear Modulus (GPa) = 12.26188 26.14425 19.20307
#
# Velocity S-wave (km/s) = 2.41502 3.52639 3.02223
# Velocity P-wave (km/s) = 4.80522 6.39649 5.65709
#
# Compressibility (1/GPa) = 0.03106027
#
# Stress axis : x y z
#
# Youngs Moduli (GPa) = 76.39953 93.82726 40.23782
#
# Poissons Ratio (x) = 0.46932 -0.20280
# Poissons Ratio (y) = 0.38215 0.35439
# Poissons Ratio (z) = -0.38505 0.82638
#
# Static dielectric constant tensor:
#      x y z
#    x 1.902670 0.000000 0.000000 
#    y 0.000000 1.801130 0.000000 
#    z 0.000000 0.000000 1.786900 
# 
# From -- ./inp_files/23035.got.cif
#   From: 2010.05.17/outbox.cif.g08.bks.cpg/sg67_12_cif.got.tgz:23035.got - 2010.06.03 18:28:57.
