data_PCOD9504038
_publ_section_title
;
Structure prediction by ZEFSAII (Michael W. Deem and Ramdas Pophale) SiO2 
 PCOD9504038
Probable space group: C M M A
;
_chemical_formula_sum "Si O2"
_cell_formula_units_Z 96
_cell_length_a 18.551041
_cell_length_b 8.729500
_cell_length_c 32.156009
_cell_angle_alpha 90.000000
_cell_angle_beta 90.000000
_cell_angle_gamma 90.000000
_cell_volume 5207.386299
_symmetry_space_group_name_H-M "C M M A"
_symmetry_group_IT_number 67
_symmetry_cell_setting 'orthorhombic'
loop_
_space_group_symop_operation_xyz
x,y,z
-x,1/2-y,z
x,-y,-z
-x,1/2+y,-z
-x,-y,-z
x,1/2+y,-z
-x,y,z
x,1/2-y,z
1/2+x,1/2+y,z
1/2-x,-y,z
1/2+x,1/2-y,-z
1/2-x,y,-z
1/2-x,1/2-y,-z
1/2+x,y,-z
1/2-x,1/2+y,z
1/2+x,-y,z
loop_
_atom_site_type_symbol
_atom_site_label
_atom_site_fract_x
_atom_site_fract_y
_atom_site_fract_z
Si Si1 0.169857 0.066099 0.287377
Si Si2 0.669859 0.065802 0.876868
Si Si3 0.586145 0.567608 0.542707
Si Si4 0.585316 0.935076 0.634333
Si Si5 0.915050 0.933067 0.044985
Si Si6 0.417341 0.436512 0.794654
O O1 0.172817 0.250000 0.287409
O O2 0.124967 0.015236 0.246706
O O3 0.250000 0.000000 0.285613
O O4 0.129611 0.009121 0.328636
O O5 0.672350 0.250000 0.877651
O O6 0.624276 0.016470 0.836334
O O7 0.750000 0.000000 0.874182
O O8 0.630935 0.005722 0.918193
O O9 0.616731 0.500000 0.500000
O O10 0.500000 0.535184 0.542982
O O11 0.594411 0.750000 0.541065
O O12 0.611739 0.514797 0.588234
O O13 0.500000 0.971889 0.638192
O O14 0.591220 0.750000 0.636226
O O15 0.906553 0.750000 0.044739
O O16 0.000000 0.968501 0.051445
O O17 0.894465 0.000000 0.000000
O O18 0.500000 0.489635 0.794479
O O19 0.418560 0.250000 0.794514
#
# Coordination Sequence:
#
# PCOD9504038 Si02
#       6
#    16  16  16  16  16  16
#     4  11  22  36  55  78 107 142 180 221 266 319
#     4  11  22  37  58  83 115 151 185 224 272 323
#     4   8  14  25  43  69 101 134 168 210 259 310
#     4   9  18  33  52  76 107 140 175 218 267 317
#     4  10  21  38  60  86 115 147 187 232 276 325
#     4   9  19  36  58  83 109 139 178 223 269 319
#
# _framework density 18.435352000000002
#
# number of rings (size 3 to 8) (size 9 to 14) (size 15 to 20)
#    0.000    2.333    0.000    4.000    0.000    3.667 
#    0.000    5.833    0.000    6.500    0.000    3.500 
#    0.000    0.000    0.000    0.000    0.000    0.000 
#
# Total GULP energy -267874.748952 kJ/mol
# GULP energy per Si atom -5580.723936 kJ/mol
# Density = 1.839339 g / cm^3
# Si number density = 18.435352 Si / 1000 Ang^3
#
#
#
# Elastic Constant Matrix: (Units=GPa)
#
#
# Indices 1 2 3 4 5 6 
#
# 1 124.1184 39.4825 112.7400 0.0000 0.0000 0.0000
# 2 39.4825 30.9756 50.4750 0.0000 0.0000 0.0000
# 3 112.7400 50.4750 225.8340 0.0000 0.0000 0.0000
# 4 0.0000 0.0000 0.0000 22.5986 0.0000 0.0000
# 5 0.0000 0.0000 0.0000 0.0000 -17.2034 0.0000
# 6 0.0000 0.0000 0.0000 0.0000 0.0000 17.3094
#
#
#
# Elastic Compliance Matrix: (Units=1/GPa)
#
#
# Indices 1 2 3 4 5 6 
#
# 1 0.017399 -0.012619 -0.005865 0.000000 0.000000 0.000000
# 2 -0.012619 0.059929 -0.007095 0.000000 0.000000 0.000000
# 3 -0.005865 -0.007095 0.008942 0.000000 0.000000 0.000000
# 4 0.000000 0.000000 0.000000 0.044250 0.000000 0.000000
# 5 0.000000 0.000000 0.000000 0.000000 -0.058128 0.000000
# 6 0.000000 0.000000 0.000000 0.000000 0.000000 0.057772
#
#
# Mechanical properties :
#
#
# Convention : Reuss Voigt Hill
#
# Bulk Modulus (GPa) = 28.48102 87.36921 57.92512
# Shear Modulus (GPa) = 25.90318 16.42295 21.16307
#
# Velocity S-wave (km/s) = 3.75251 2.98793 3.39183
# Velocity P-wave (km/s) = 5.85301 7.70706 6.84312
#
# Compressibility (1/GPa) = 0.03511110
#
# Stress axis : x y z
#
# Youngs Moduli (GPa) = 57.47594 16.68632 111.83558
#
# Poissons Ratio (x) = 0.21057 0.65593
# Poissons Ratio (y) = 0.72532 0.79343
# Poissons Ratio (z) = 0.33710 0.11838
#
# Static dielectric constant tensor:
#      x y z
#    x 1.607580 0.000000 0.000000 
#    y 0.000000 1.619350 0.000000 
#    z 0.000000 0.000000 1.634260 
# 
# From -- ./inp_files/43482.got.cif
#   From: 2010.05.17/outbox.cif.g08.bks.cpg/sg67_22_cif.got.tgz:43482.got - 2010.06.03 18:28:57.
