data_PCOD9504764
_publ_section_title
;
Structure prediction by ZEFSAII (Michael W. Deem and Ramdas Pophale) SiO2 
 PCOD9504764
Probable space group: C M M A
;
_chemical_formula_sum "Si O2"
_cell_formula_units_Z 112
_cell_length_a 27.383383
_cell_length_b 15.315502
_cell_length_c 15.891728
_cell_angle_alpha 90.000000
_cell_angle_beta 90.000000
_cell_angle_gamma 90.000000
_cell_volume 6664.835892
_symmetry_space_group_name_H-M "C M M A"
_symmetry_group_IT_number 67
_symmetry_cell_setting 'orthorhombic'
loop_
_space_group_symop_operation_xyz
x,y,z
-x,1/2-y,z
x,-y,-z
-x,1/2+y,-z
-x,-y,-z
x,1/2+y,-z
-x,y,z
x,1/2-y,z
1/2+x,1/2+y,z
1/2-x,-y,z
1/2+x,1/2-y,-z
1/2-x,y,-z
1/2-x,1/2-y,-z
1/2+x,y,-z
1/2-x,1/2+y,z
1/2+x,-y,z
loop_
_atom_site_type_symbol
_atom_site_label
_atom_site_fract_x
_atom_site_fract_y
_atom_site_fract_z
Si Si1 0.870990 0.148044 0.660760
Si Si2 0.305832 0.146350 0.815845
Si Si3 0.305830 0.353650 0.184158
Si Si4 0.693210 0.394394 0.500001
Si Si5 0.194375 0.895991 0.000001
Si Si6 0.370991 0.851956 0.339238
Si Si7 0.442330 0.500000 0.601152
O O1 0.884785 0.250000 0.671422
O O2 0.841569 0.114921 0.742810
O O3 0.833891 0.140433 0.582401
O O4 0.915898 0.085117 0.639062
O O5 0.301990 0.250000 0.803114
O O6 0.250001 0.110348 0.811085
O O7 0.341572 0.114921 0.742813
O O8 0.326194 0.131446 0.909855
O O9 0.301988 0.250000 0.196888
O O10 0.326193 0.368555 0.090148
O O11 0.689728 0.500000 0.500000
O O12 0.750000 0.370153 0.500000
O O13 0.666110 0.359569 0.582405
O O14 0.250000 0.860007 0.000000
O O15 0.196234 0.000000 0.000000
O O16 0.384786 0.750000 0.328578
O O17 0.415898 0.914882 0.360939
O O18 0.434483 0.500000 0.500000
O O19 0.500000 0.500001 0.616913
#
# Coordination Sequence:
#
# PCOD9504764 Si02
#       7
#    16  16  16  16  16  16  16
#     4  11  21  36  56  79 105 140 180 215 263 317
#     4   9  18  31  48  73 108 145 177 211 250 300
#     4   9  18  31  48  73 108 145 177 211 250 300
#     4  11  21  33  51  77 113 148 175 208 252 306
#     4   9  17  27  43  71 105 144 181 210 244 292
#     4  11  21  36  56  79 105 140 180 215 263 317
#     4  11  24  42  58  77 104 133 175 230 281 321
#
# _framework density 16.804614000000001
#
# number of rings (size 3 to 8) (size 9 to 14) (size 15 to 20)
#    0.000    1.857    2.857    1.714    2.000    4.571 
#    0.000    1.429    0.000    0.000    0.000    2.000 
#    0.000    4.571    0.000    0.000    0.000    0.000 
#
# Total GULP energy -312392.751713 kJ/mol
# GULP energy per Si atom -5578.441995 kJ/mol
# Density = 1.676637 g / cm^3
# Si number density = 16.804614 Si / 1000 Ang^3
#
#
#
# Elastic Constant Matrix: (Units=GPa)
#
#
# Indices 1 2 3 4 5 6 
#
# 1 109.2850 40.9159 62.3513 0.0000 0.0000 0.0000
# 2 40.9159 79.2857 19.6750 0.0000 0.0000 0.0000
# 3 62.3513 19.6750 152.9812 0.0000 0.0000 0.0000
# 4 0.0000 0.0000 0.0000 35.3677 0.0000 0.0000
# 5 0.0000 0.0000 0.0000 0.0000 8.7715 0.0000
# 6 0.0000 0.0000 0.0000 0.0000 0.0000 3.8359
#
#
#
# Elastic Compliance Matrix: (Units=1/GPa)
#
#
# Indices 1 2 3 4 5 6 
#
# 1 0.014332 -0.006143 -0.005051 0.000000 0.000000 0.000000
# 2 -0.006143 0.015661 0.000489 0.000000 0.000000 0.000000
# 3 -0.005051 0.000489 0.008533 0.000000 0.000000 0.000000
# 4 0.000000 0.000000 0.000000 0.028274 0.000000 0.000000
# 5 0.000000 0.000000 0.000000 0.000000 0.114006 0.000000
# 6 0.000000 0.000000 0.000000 0.000000 0.000000 0.260692
#
#
# Mechanical properties :
#
#
# Convention : Reuss Voigt Hill
#
# Bulk Modulus (GPa) = 58.42292 65.27072 61.84682
# Shear Modulus (GPa) = 10.66978 24.16899 17.41939
#
# Velocity S-wave (km/s) = 2.52252 3.79652 3.22309
# Velocity P-wave (km/s) = 6.58222 7.62518 7.12281
#
# Compressibility (1/GPa) = 0.01711657
#
# Stress axis : x y z
#
# Youngs Moduli (GPa) = 69.77273 63.85222 117.19695
#
# Poissons Ratio (x) = 0.39223 0.59201
# Poissons Ratio (y) = 0.42859 -0.05736
# Poissons Ratio (z) = 0.35245 -0.03125
#
# Static dielectric constant tensor:
#      x y z
#    x 1.539170 0.000000 0.000000 
#    y 0.000000 1.599980 0.000000 
#    z 0.000000 0.000000 1.585880 
# 
# From -- ./inp_files/27697.got.cif
#   From: 2010.05.17/outbox.cif.g08.bks.cpg/sg67_14_cif.got.tgz:27697.got - 2010.06.03 18:28:57.
