data_PCOD9504558
_publ_section_title
;
Structure prediction by ZEFSAII (Michael W. Deem and Ramdas Pophale) SiO2 
 PCOD9504558
Probable space group: C M M A
;
_chemical_formula_sum "Si O2"
_cell_formula_units_Z 60
_cell_length_a 19.574516
_cell_length_b 24.993474
_cell_length_c 6.389488
_cell_angle_alpha 90.000000
_cell_angle_beta 90.000000
_cell_angle_gamma 90.000000
_cell_volume 3125.962163
_symmetry_space_group_name_H-M "C M M A"
_symmetry_group_IT_number 67
_symmetry_cell_setting 'orthorhombic'
loop_
_space_group_symop_operation_xyz
x,y,z
-x,1/2-y,z
x,-y,-z
-x,1/2+y,-z
-x,-y,-z
x,1/2+y,-z
-x,y,z
x,1/2-y,z
1/2+x,1/2+y,z
1/2-x,-y,z
1/2+x,1/2-y,-z
1/2-x,y,-z
1/2-x,1/2-y,-z
1/2+x,y,-z
1/2-x,1/2+y,z
1/2+x,-y,z
loop_
_atom_site_type_symbol
_atom_site_label
_atom_site_fract_x
_atom_site_fract_y
_atom_site_fract_z
Si Si1 0.918674 0.750000 0.681830
Si Si2 0.500000 0.524120 0.753280
Si Si3 0.171848 0.250000 0.922547
Si Si4 0.250000 0.000000 0.000000
Si Si5 0.650837 0.950943 0.663834
Si Si6 0.826929 0.330870 0.563993
O O1 0.883750 0.698209 0.575428
O O2 0.000000 0.750000 0.666875
O O3 0.888081 0.750000 0.911542
O O4 0.500000 0.500000 0.500000
O O5 0.426757 0.552184 0.746079
O O6 0.500000 0.500000 0.000000
O O7 0.163426 0.196150 0.788542
O O8 0.250000 0.250000 0.000000
O O9 0.297915 0.035936 0.147559
O O10 0.667614 0.894367 0.560621
O O11 0.656856 0.000000 0.500000
O O12 0.750000 0.315256 0.500000
#
# Coordination Sequence:
#
# PCOD9504558 Si02
#       6
#     8   8   8   4  16  16
#     4  11  25  45  67  99 133 169 231 289 348 406
#     4  10  22  48  68  95 142 193 236 290 357 428
#     4  11  21  42  66  96 123 174 227 279 342 420
#     4  12  22  38  64  96 140 166 234 280 334 416
#     4  11  25  42  66 100 136 178 233 284 349 425
#     4  11  23  42  71  95 133 177 225 280 351 420
#
# _framework density 19.194092000000001
#
# number of rings (size 3 to 8) (size 9 to 14) (size 15 to 20)
#    0.000    1.067    4.000    2.800    3.733    4.267 
#    0.000    0.000    0.000    0.000    0.000    0.000 
#    0.000    0.000    0.000    0.000    0.000    0.000 
#
# Total GULP energy -167087.952543 kJ/mol
# GULP energy per Si atom -5569.598418 kJ/mol
# Density = 1.915040 g / cm^3
# Si number density = 19.194092 Si / 1000 Ang^3
#
#
#
# Elastic Constant Matrix: (Units=GPa)
#
#
# Indices 1 2 3 4 5 6 
#
# 1 201.0593 47.0365 58.7212 0.0000 0.0000 0.0000
# 2 47.0365 147.5525 47.7511 0.0000 0.0000 0.0000
# 3 58.7212 47.7511 100.6607 0.0000 0.0000 0.0000
# 4 0.0000 0.0000 0.0000 -50.8192 0.0000 0.0000
# 5 0.0000 0.0000 0.0000 0.0000 32.3962 0.0000
# 6 0.0000 0.0000 0.0000 0.0000 0.0000 28.2070
#
#
#
# Elastic Compliance Matrix: (Units=1/GPa)
#
#
# Indices 1 2 3 4 5 6 
#
# 1 0.006103 -0.000937 -0.003116 0.000000 0.000000 0.000000
# 2 -0.000937 0.008150 -0.003320 0.000000 0.000000 0.000000
# 3 -0.003116 -0.003320 0.013327 0.000000 0.000000 0.000000
# 4 0.000000 0.000000 0.000000 -0.019678 0.000000 0.000000
# 5 0.000000 0.000000 0.000000 0.000000 0.030868 0.000000
# 6 0.000000 0.000000 0.000000 0.000000 0.000000 0.035452
#
#
# Mechanical properties :
#
#
# Convention : Reuss Voigt Hill
#
# Bulk Modulus (GPa) = 77.91175 84.03224 80.97200
# Shear Modulus (GPa) = 53.62210 21.67438 37.64824
#
# Velocity S-wave (km/s) = 5.29126 3.36403 4.43363
# Velocity P-wave (km/s) = 8.83230 7.67882 8.27568
#
# Compressibility (1/GPa) = 0.01283503
#
# Stress axis : x y z
#
# Youngs Moduli (GPa) = 163.85839 122.69497 75.03804
#
# Poissons Ratio (x) = 0.11499 0.23378
# Poissons Ratio (y) = 0.15357 0.24910
# Poissons Ratio (z) = 0.51051 0.40730
#
# Static dielectric constant tensor:
#      x y z
#    x 1.832400 0.000000 0.000000 
#    y 0.000000 1.648120 0.000000 
#    z 0.000000 0.000000 1.730440 
# 
# From -- ./inp_files/2785.got.cif
#   From: 2010.05.17/outbox.cif.g08.bks.cpg/sg67_2_cif.got.tgz:2785.got - 2010.06.03 18:28:57.
