data_PCOD9504503
_publ_section_title
;
Structure prediction by ZEFSAII (Michael W. Deem and Ramdas Pophale) SiO2 
 PCOD9504503
Probable space group: C M M A
;
_chemical_formula_sum "Si O2"
_cell_formula_units_Z 104
_cell_length_a 9.691224
_cell_length_b 21.046289
_cell_length_c 26.852497
_cell_angle_alpha 90.000000
_cell_angle_beta 90.000000
_cell_angle_gamma 90.000000
_cell_volume 5476.950783
_symmetry_space_group_name_H-M "C M M A"
_symmetry_group_IT_number 67
_symmetry_cell_setting 'orthorhombic'
loop_
_space_group_symop_operation_xyz
x,y,z
-x,1/2-y,z
x,-y,-z
-x,1/2+y,-z
-x,-y,-z
x,1/2+y,-z
-x,y,z
x,1/2-y,z
1/2+x,1/2+y,z
1/2-x,-y,z
1/2+x,1/2-y,-z
1/2-x,y,-z
1/2-x,1/2-y,-z
1/2+x,y,-z
1/2-x,1/2+y,z
1/2+x,-y,z
loop_
_atom_site_type_symbol
_atom_site_label
_atom_site_fract_x
_atom_site_fract_y
_atom_site_fract_z
Si Si1 0.160619 0.439587 0.380128
Si Si2 0.664683 0.322622 0.550404
Si Si3 0.500000 0.053617 0.923628
Si Si4 0.252941 0.132763 0.899047
Si Si5 0.838445 0.674270 0.209396
Si Si6 0.855399 0.250000 0.044208
Si Si7 0.163957 0.063658 0.260496
Si Si8 0.500000 0.910490 0.961649
O O1 0.250000 0.500000 0.395959
O O2 0.201001 0.375345 0.408703
O O3 0.173176 0.432380 0.320577
O O4 0.000000 0.451974 0.391116
O O5 0.500000 0.327142 0.540647
O O6 0.692240 0.250000 0.567159
O O7 0.750000 0.333452 0.500000
O O8 0.361218 0.074948 0.895550
O O9 0.500000 0.979994 0.936621
O O10 0.500000 0.085032 0.978935
O O11 0.182156 0.153016 0.847896
O O12 0.340732 0.190642 0.919835
O O13 0.137287 0.120778 0.940517
O O14 0.807244 0.750000 0.214542
O O15 0.737659 0.626614 0.238989
O O16 0.000000 0.665140 0.223184
O O17 0.000000 0.250000 0.017551
O O18 0.750000 0.250000 0.000000
O O19 0.000000 0.059537 0.247230
O O20 0.250000 0.000000 0.245236
#
# Coordination Sequence:
#
# PCOD9504503 Si02
#       8
#    16  16   8  16  16   8  16   8
#     4   9  19  36  58  86 119 156 199 251 305 360
#     4   9  18  33  53  80 119 163 208 255 301 352
#     4  11  24  41  63  93 119 152 195 235 276 343
#     4  12  24  42  63  87 120 154 190 236 287 345
#     4  11  25  45  63  87 125 162 198 247 306 361
#     4  12  26  40  64  92 118 154 196 234 283 346
#     4  10  22  41  67  94 121 157 203 254 310 370
#     4  11  24  43  63  87 123 156 189 231 288 341
#
# _framework density 18.988668000000001
#
# number of rings (size 3 to 8) (size 9 to 14) (size 15 to 20)
#    0.000    1.538    2.308    2.308    2.154    4.923 
#    0.000    3.077    0.000    1.846    0.000    0.000 
#    0.000    0.000    0.000    0.000    0.000    0.000 
#
# Total GULP energy -290308.725710 kJ/mol
# GULP energy per Si atom -5582.860110 kJ/mol
# Density = 1.894545 g / cm^3
# Si number density = 18.988668 Si / 1000 Ang^3
#
#
#
# Elastic Constant Matrix: (Units=GPa)
#
#
# Indices 1 2 3 4 5 6 
#
# 1 119.0533 65.2450 31.0446 0.0000 0.0000 0.0000
# 2 65.2450 133.9880 43.5638 0.0000 0.0000 0.0000
# 3 31.0446 43.5638 36.4120 0.0000 0.0000 0.0000
# 4 0.0000 0.0000 0.0000 11.1091 0.0000 0.0000
# 5 0.0000 0.0000 0.0000 0.0000 31.2849 0.0000
# 6 0.0000 0.0000 0.0000 0.0000 0.0000 -235.8824
#
#
#
# Elastic Compliance Matrix: (Units=1/GPa)
#
#
# Indices 1 2 3 4 5 6 
#
# 1 0.012057 -0.004139 -0.005328 0.000000 0.000000 0.000000
# 2 -0.004139 0.013636 -0.012785 0.000000 0.000000 0.000000
# 3 -0.005328 -0.012785 0.047302 0.000000 0.000000 0.000000
# 4 0.000000 0.000000 0.000000 0.090017 0.000000 0.000000
# 5 0.000000 0.000000 0.000000 0.000000 0.031964 0.000000
# 6 0.000000 0.000000 0.000000 0.000000 0.000000 -0.004239
#
#
# Mechanical properties :
#
#
# Convention : Reuss Voigt Hill
#
# Bulk Modulus (GPa) = 35.09864 63.24003 49.16934
# Shear Modulus (GPa) = 20.43006 -28.72435 -4.14715
#
# Velocity S-wave (km/s) = 3.28366 -3.89358 -1.47944
# Velocity P-wave (km/s) = 5.73591 3.62810 4.79916
#
# Compressibility (1/GPa) = 0.02849113
#
# Stress axis : x y z
#
# Youngs Moduli (GPa) = 82.93796 73.33758 21.14065
#
# Poissons Ratio (x) = 0.30354 0.11264
# Poissons Ratio (y) = 0.34327 0.27028
# Poissons Ratio (z) = 0.44190 0.93762
#
# Static dielectric constant tensor:
#      x y z
#    x 1.659700 0.000000 0.000000 
#    y 0.000000 1.677590 0.000000 
#    z 0.000000 0.000000 1.623840 
# 
# From -- ./inp_files/43635.got.cif
#   From: 2010.05.17/outbox.cif.g08.bks.cpg/sg67_22_cif.got.tgz:43635.got - 2010.06.03 18:28:57.
