data_PCOD9504465
_publ_section_title
;
Structure prediction by ZEFSAII (Michael W. Deem and Ramdas Pophale) SiO2 
 PCOD9504465
Probable space group: C M M A
;
_chemical_formula_sum "Si O2"
_cell_formula_units_Z 88
_cell_length_a 23.636329
_cell_length_b 13.228104
_cell_length_c 15.392366
_cell_angle_alpha 90.000000
_cell_angle_beta 90.000000
_cell_angle_gamma 90.000000
_cell_volume 4812.635925
_symmetry_space_group_name_H-M "C M M A"
_symmetry_group_IT_number 67
_symmetry_cell_setting 'orthorhombic'
loop_
_space_group_symop_operation_xyz
x,y,z
-x,1/2-y,z
x,-y,-z
-x,1/2+y,-z
-x,-y,-z
x,1/2+y,-z
-x,y,z
x,1/2-y,z
1/2+x,1/2+y,z
1/2-x,-y,z
1/2+x,1/2-y,-z
1/2-x,y,-z
1/2-x,1/2-y,-z
1/2+x,y,-z
1/2-x,1/2+y,z
1/2+x,-y,z
loop_
_atom_site_type_symbol
_atom_site_label
_atom_site_fract_x
_atom_site_fract_y
_atom_site_fract_z
Si Si1 0.846217 0.750000 0.200630
Si Si2 0.500000 0.366066 0.837713
Si Si3 0.395524 0.477073 0.405782
Si Si4 0.686017 0.533107 0.753692
Si Si5 0.432678 0.750000 0.650591
Si Si6 0.500000 0.128718 0.628816
Si Si7 0.119017 0.062503 0.086840
Si Si8 0.681519 0.250000 0.997729
O O1 0.814853 0.652761 0.236215
O O2 0.906463 0.750000 0.251354
O O3 0.843612 0.750000 0.096102
O O4 0.500000 0.250000 0.866141
O O5 0.500000 0.370168 0.733474
O O6 0.557990 0.412679 0.872908
O O7 0.369872 0.500000 0.500000
O O8 0.351815 0.497582 0.328401
O O9 0.414194 0.358064 0.393382
O O10 0.446657 0.559135 0.399241
O O11 0.750000 0.500000 0.746599
O O12 0.655419 0.493293 0.840165
O O13 0.500000 0.750000 0.653485
O O14 0.500000 0.250000 0.601128
O O15 0.156600 0.155824 0.054569
O O16 0.108954 0.000000 0.000000
O O17 0.750000 0.250000 0.000000
#
# Coordination Sequence:
#
# PCOD9504465 Si02
#       8
#     8   8  16  16   8   8  16   8
#     4  10  22  44  59  93 123 159 218 258 297 374
#     4  11  23  44  59  92 131 166 209 258 324 386
#     4  11  24  42  67  96 126 163 213 261 318 386
#     4  11  24  44  66  91 127 168 210 262 317 368
#     4  10  22  40  66  91 125 168 202 259 318 370
#     4  11  23  39  65  94 130 163 207 259 320 391
#     4  12  24  40  65  90 127 173 209 263 318 373
#     4  12  24  39  62  93 125 169 224 261 305 375
#
# _framework density 18.285198000000001
#
# number of rings (size 3 to 8) (size 9 to 14) (size 15 to 20)
#    0.000    0.909    5.455    1.636    1.273    0.364 
#    3.273    0.000    0.000    3.273    0.000    0.000 
#    0.000    0.000    0.000    0.000    0.000    0.000 
#
# Total GULP energy -245484.265490 kJ/mol
# GULP energy per Si atom -5579.187852 kJ/mol
# Density = 1.824358 g / cm^3
# Si number density = 18.285198 Si / 1000 Ang^3
#
#
#
# Elastic Constant Matrix: (Units=GPa)
#
#
# Indices 1 2 3 4 5 6 
#
# 1 73.9262 19.6008 4.4345 0.0000 0.0000 0.0000
# 2 19.6008 98.2320 16.5379 0.0000 0.0000 0.0000
# 3 4.4345 16.5379 100.4452 0.0000 0.0000 0.0000
# 4 0.0000 0.0000 0.0000 25.8447 0.0000 0.0000
# 5 0.0000 0.0000 0.0000 0.0000 -10.5958 0.0000
# 6 0.0000 0.0000 0.0000 0.0000 0.0000 18.3991
#
#
#
# Elastic Compliance Matrix: (Units=1/GPa)
#
#
# Indices 1 2 3 4 5 6 
#
# 1 0.014285 -0.002822 -0.000166 0.000000 0.000000 0.000000
# 2 -0.002822 0.011028 -0.001691 0.000000 0.000000 0.000000
# 3 -0.000166 -0.001691 0.010241 0.000000 0.000000 0.000000
# 4 0.000000 0.000000 0.000000 0.038693 0.000000 0.000000
# 5 0.000000 0.000000 0.000000 0.000000 -0.094377 0.000000
# 6 0.000000 0.000000 0.000000 0.000000 0.000000 0.054350
#
#
# Mechanical properties :
#
#
# Convention : Reuss Voigt Hill
#
# Bulk Modulus (GPa) = 38.17442 39.30551 38.73997
# Shear Modulus (GPa) = 95.58033 22.19828 58.88931
#
# Velocity S-wave (km/s) = 7.23778 3.48803 5.68119
# Velocity P-wave (km/s) = 9.52732 6.14527 8.01667
#
# Compressibility (1/GPa) = 0.02619555
#
# Stress axis : x y z
#
# Youngs Moduli (GPa) = 70.00197 90.67932 97.64259
#
# Poissons Ratio (x) = 0.25594 0.01621
# Poissons Ratio (y) = 0.19758 0.16512
# Poissons Ratio (z) = 0.01162 0.15335
#
# Static dielectric constant tensor:
#      x y z
#    x 1.634960 0.000000 0.000000 
#    y 0.000000 1.649920 0.000000 
#    z 0.000000 0.000000 1.643400 
# 
# From -- ./inp_files/26194.got.cif
#   From: 2010.05.17/outbox.cif.g08.bks.cpg/sg67_14_cif.got.tgz:26194.got - 2010.06.03 18:28:57.
