data_PCOD9504293
_publ_section_title
;
Structure prediction by ZEFSAII (Michael W. Deem and Ramdas Pophale) SiO2 
 PCOD9504293
Probable space group: C M M A
;
_chemical_formula_sum "Si O2"
_cell_formula_units_Z 60
_cell_length_a 14.535003
_cell_length_b 16.834953
_cell_length_c 9.797996
_cell_angle_alpha 90.000000
_cell_angle_beta 90.000000
_cell_angle_gamma 90.000000
_cell_volume 2397.531334
_symmetry_space_group_name_H-M "C M M A"
_symmetry_group_IT_number 67
_symmetry_cell_setting 'orthorhombic'
loop_
_space_group_symop_operation_xyz
x,y,z
-x,1/2-y,z
x,-y,-z
-x,1/2+y,-z
-x,-y,-z
x,1/2+y,-z
-x,y,z
x,1/2-y,z
1/2+x,1/2+y,z
1/2-x,-y,z
1/2+x,1/2-y,-z
1/2-x,y,-z
1/2-x,1/2-y,-z
1/2+x,y,-z
1/2-x,1/2+y,z
1/2+x,-y,z
loop_
_atom_site_type_symbol
_atom_site_label
_atom_site_fract_x
_atom_site_fract_y
_atom_site_fract_z
Si Si1 0.000000 0.033540 0.651050
Si Si2 0.200014 0.750000 0.356263
Si Si3 0.105316 0.162078 0.996207
Si Si4 0.308297 0.919109 0.764696
Si Si5 0.000000 0.862790 0.746756
Si Si6 0.500000 0.750000 0.511852
O O1 0.903801 0.074461 0.681371
O O2 0.000000 0.000000 0.500000
O O3 0.000000 0.956477 0.745921
O O4 0.250000 0.750000 0.500000
O O5 0.227736 0.833054 0.284493
O O6 0.409420 0.750000 0.605897
O O7 0.139564 0.250000 0.960093
O O8 0.163229 0.095369 0.922159
O O9 0.000000 0.155205 0.941684
O O10 0.086850 0.159389 0.157772
O O11 0.250000 0.000000 0.744385
O O12 0.000000 0.823041 0.598523
#
# Coordination Sequence:
#
# PCOD9504293 Si02
#       6
#     8   8  16  16   8   4
#     4  12  27  45  72 111 153 201 270 325 388 485
#     4  12  30  49  77 113 163 208 267 329 387 481
#     4   9  18  43  79 110 151 193 252 330 390 462
#     4  12  27  47  78 114 156 210 265 322 402 472
#     4  10  21  42  81 120 150 197 262 333 398 477
#     4  12  24  46  86 114 148 228 258 316 430 454
#
# _framework density 25.025741
#
# number of rings (size 3 to 8) (size 9 to 14) (size 15 to 20)
#    0.800    0.267    4.000    2.400    7.467    2.133 
#    0.000    2.667    0.000    3.200    0.000    0.000 
#    0.000    0.000    0.000    0.000    0.000    0.000 
#
# Total GULP energy -167657.931397 kJ/mol
# GULP energy per Si atom -5588.597713 kJ/mol
# Density = 2.496878 g / cm^3
# Si number density = 25.025741 Si / 1000 Ang^3
#
#
#
# Elastic Constant Matrix: (Units=GPa)
#
#
# Indices 1 2 3 4 5 6 
#
# 1 154.6904 60.3649 58.4027 0.0000 0.0000 0.0000
# 2 60.3649 206.9875 45.0493 0.0000 0.0000 0.0000
# 3 58.4027 45.0493 73.5323 0.0000 0.0000 0.0000
# 4 0.0000 0.0000 0.0000 45.5968 0.0000 0.0000
# 5 0.0000 0.0000 0.0000 0.0000 26.5843 0.0000
# 6 0.0000 0.0000 0.0000 0.0000 0.0000 88.2053
#
#
#
# Elastic Compliance Matrix: (Units=1/GPa)
#
#
# Indices 1 2 3 4 5 6 
#
# 1 0.009530 -0.001306 -0.006769 0.000000 0.000000 0.000000
# 2 -0.001306 0.005753 -0.002488 0.000000 0.000000 0.000000
# 3 -0.006769 -0.002488 0.020500 0.000000 0.000000 0.000000
# 4 0.000000 0.000000 0.000000 0.021931 0.000000 0.000000
# 5 0.000000 0.000000 0.000000 0.000000 0.037616 0.000000
# 6 0.000000 0.000000 0.000000 0.000000 0.000000 0.011337
#
#
# Mechanical properties :
#
#
# Convention : Reuss Voigt Hill
#
# Bulk Modulus (GPa) = 68.22217 84.76044 76.49131
# Shear Modulus (GPa) = 37.68515 50.17015 43.92765
#
# Velocity S-wave (km/s) = 3.88475 4.48229 4.19417
# Velocity P-wave (km/s) = 6.88779 7.79299 7.35433
#
# Compressibility (1/GPa) = 0.01465799
#
# Stress axis : x y z
#
# Youngs Moduli (GPa) = 104.93497 173.80757 48.78161
#
# Poissons Ratio (x) = 0.22700 0.33019
# Poissons Ratio (y) = 0.13705 0.12135
# Poissons Ratio (z) = 0.71028 0.43235
#
# Static dielectric constant tensor:
#      x y z
#    x 2.839590 0.000000 0.000000 
#    y 0.000000 2.042550 0.000000 
#    z 0.000000 0.000000 1.972270 
# 
# From -- ./inp_files/17475.got.cif
#   From: 2010.05.17/outbox.cif.g08.bks.cpg/sg67_9_cif.got.tgz:17475.got - 2010.06.03 18:28:57.
