data_PCOD9504889
_publ_section_title
;
Structure prediction by ZEFSAII (Michael W. Deem and Ramdas Pophale) SiO2 
 PCOD9504889
Probable space group: C M M A
;
_chemical_formula_sum "Si O2"
_cell_formula_units_Z 116
_cell_length_a 23.285804
_cell_length_b 17.465915
_cell_length_c 17.186698
_cell_angle_alpha 90.000000
_cell_angle_beta 90.000000
_cell_angle_gamma 90.000000
_cell_volume 6989.965394
_symmetry_space_group_name_H-M "C M M A"
_symmetry_group_IT_number 67
_symmetry_cell_setting 'orthorhombic'
loop_
_space_group_symop_operation_xyz
x,y,z
-x,1/2-y,z
x,-y,-z
-x,1/2+y,-z
-x,-y,-z
x,1/2+y,-z
-x,y,z
x,1/2-y,z
1/2+x,1/2+y,z
1/2-x,-y,z
1/2+x,1/2-y,-z
1/2-x,y,-z
1/2-x,1/2-y,-z
1/2+x,y,-z
1/2-x,1/2+y,z
1/2+x,-y,z
loop_
_atom_site_type_symbol
_atom_site_label
_atom_site_fract_x
_atom_site_fract_y
_atom_site_fract_z
Si Si1 0.067175 0.089447 0.499288
Si Si2 0.063875 0.398716 0.213823
Si Si3 0.255023 0.591441 0.592481
Si Si4 0.431351 0.160978 0.187708
Si Si5 0.123638 0.158153 0.646543
Si Si6 0.500000 0.750000 0.165707
Si Si7 0.863319 0.658886 0.643159
Si Si8 0.930258 0.479800 0.913967
O O1 0.079469 0.125097 0.583323
O O2 0.104410 0.133855 0.435707
O O3 0.000000 0.094636 0.479629
O O4 0.084246 0.000000 0.500000
O O5 0.104781 0.383369 0.286116
O O6 0.086941 0.458746 0.151363
O O7 0.000000 0.426094 0.242141
O O8 0.048963 0.318211 0.172425
O O9 0.250000 0.500000 0.601855
O O10 0.250000 0.608172 0.500000
O O11 0.315208 0.621483 0.625341
O O12 0.202165 0.632728 0.634617
O O13 0.500000 0.153053 0.201742
O O14 0.420434 0.250000 0.169330
O O15 0.398066 0.140383 0.266674
O O16 0.415437 0.103983 0.118089
O O17 0.126713 0.250000 0.639012
O O18 0.868085 0.750000 0.653212
O O19 0.000000 0.484042 0.917051
O O20 0.908894 0.500000 0.000000
#
# Coordination Sequence:
#
# PCOD9504889 Si02
#       8
#    16  16  16  16  16   4  16  16
#     4  11  24  35  50  77 106 143 183 224 271 319
#     4   9  18  33  53  79 115 141 175 221 270 324
#     4  11  24  39  54  74 103 142 186 234 279 318
#     4   9  19  35  55  80 112 145 182 224 267 319
#     4  11  22  38  55  75 104 144 186 228 270 315
#     4   8  16  36  46  84 118 144 172 220 280 310
#     4  12  22  36  57  77 106 141 186 230 275 321
#     4   9  18  33  53  84 114 147 178 209 264 332
#
# _framework density 16.595219
#
# number of rings (size 3 to 8) (size 9 to 14) (size 15 to 20)
#    0.414    1.379    2.069    2.483    3.862    2.759 
#    1.241    0.000    0.000    0.000    0.000    1.931 
#    0.000    3.310    0.000    0.000    0.000    0.000 
#
# Total GULP energy -323024.637716 kJ/mol
# GULP energy per Si atom -5569.390305 kJ/mol
# Density = 1.655745 g / cm^3
# Si number density = 16.595219 Si / 1000 Ang^3
#
#
#
# Elastic Constant Matrix: (Units=GPa)
#
#
# Indices 1 2 3 4 5 6 
#
# 1 44.2939 19.7673 26.4966 0.0000 0.0000 0.0000
# 2 19.7673 66.6743 61.3471 0.0000 0.0000 0.0000
# 3 26.4966 61.3471 104.6329 0.0000 0.0000 0.0000
# 4 0.0000 0.0000 0.0000 19.9818 0.0000 0.0000
# 5 0.0000 0.0000 0.0000 0.0000 -0.3984 0.0000
# 6 0.0000 0.0000 0.0000 0.0000 0.0000 20.4626
#
#
#
# Elastic Compliance Matrix: (Units=1/GPa)
#
#
# Indices 1 2 3 4 5 6 
#
# 1 0.027026 -0.003725 -0.004660 0.000000 0.000000 0.000000
# 2 -0.003725 0.033080 -0.018452 0.000000 0.000000 0.000000
# 3 -0.004660 -0.018452 0.021556 0.000000 0.000000 0.000000
# 4 0.000000 0.000000 0.000000 0.050046 0.000000 0.000000
# 5 0.000000 0.000000 0.000000 0.000000 -2.510010 0.000000
# 6 0.000000 0.000000 0.000000 0.000000 0.000000 0.048870
#
#
# Mechanical properties :
#
#
# Convention : Reuss Voigt Hill
#
# Bulk Modulus (GPa) = 35.72875 47.86924 41.79900
# Shear Modulus (GPa) = -2.20611 15.20853 6.50121
#
# Velocity S-wave (km/s) = -1.15423 3.03056 1.98142
# Velocity P-wave (km/s) = 4.44971 6.41510 5.52058
#
# Compressibility (1/GPa) = 0.02798866
#
# Stress axis : x y z
#
# Youngs Moduli (GPa) = 37.00074 30.22954 46.39128
#
# Poissons Ratio (x) = 0.11260 0.21619
# Poissons Ratio (y) = 0.13783 0.85601
# Poissons Ratio (z) = 0.17242 0.55779
#
# Static dielectric constant tensor:
#      x y z
#    x 1.545610 0.000000 0.000000 
#    y 0.000000 1.565500 0.000000 
#    z 0.000000 0.000000 1.546490 
# 
# From -- ./inp_files/35575.got.cif
#   From: 2010.05.17/outbox.cif.g08.bks.cpg/sg67_18_cif.got.tgz:35575.got - 2010.06.03 18:28:57.
