data_PCOD9504548
_publ_section_title
;
Structure prediction by ZEFSAII (Michael W. Deem and Ramdas Pophale) SiO2 
 PCOD9504548
Probable space group: C M M A
;
_chemical_formula_sum "Si O2"
_cell_formula_units_Z 84
_cell_length_a 14.466688
_cell_length_b 25.770063
_cell_length_c 9.672299
_cell_angle_alpha 90.000000
_cell_angle_beta 90.000000
_cell_angle_gamma 90.000000
_cell_volume 3605.905234
_symmetry_space_group_name_H-M "C M M A"
_symmetry_group_IT_number 67
_symmetry_cell_setting 'orthorhombic'
loop_
_space_group_symop_operation_xyz
x,y,z
-x,1/2-y,z
x,-y,-z
-x,1/2+y,-z
-x,-y,-z
x,1/2+y,-z
-x,y,z
x,1/2-y,z
1/2+x,1/2+y,z
1/2-x,-y,z
1/2+x,1/2-y,-z
1/2-x,y,-z
1/2-x,1/2-y,-z
1/2+x,y,-z
1/2-x,1/2+y,z
1/2+x,-y,z
loop_
_atom_site_type_symbol
_atom_site_label
_atom_site_fract_x
_atom_site_fract_y
_atom_site_fract_z
Si Si1 0.500000 0.000000 0.000000
Si Si2 0.763343 0.374432 0.717842
Si Si3 0.104159 0.042936 0.604406
Si Si4 0.602212 0.811485 0.259663
Si Si5 0.844127 0.469373 0.155912
Si Si6 0.391480 0.311375 0.070910
O O1 0.416619 0.041677 0.964091
O O2 0.832352 0.407343 0.622492
O O3 0.690663 0.333126 0.660082
O O4 0.691815 0.417447 0.775590
O O5 0.825637 0.347274 0.836368
O O6 0.000000 0.056582 0.562227
O O7 0.142982 0.000000 0.500000
O O8 0.100343 0.009441 0.745830
O O9 0.500000 0.833142 0.294972
O O10 0.598247 0.750000 0.278653
O O11 0.618224 0.819811 0.094217
O O12 0.750000 0.500000 0.129933
O O13 0.500000 0.319782 0.105289
O O14 0.370445 0.250000 0.095730
#
# Coordination Sequence:
#
# PCOD9504548 Si02
#       6
#     4  16  16  16  16  16
#     4  12  22  40  54  78 130 160 190 254 320 386
#     4  11  21  33  56  89 116 156 222 260 306 377
#     4  10  22  44  67  85 113 156 212 278 330 373
#     4   9  19  34  52  83 131 179 213 251 309 388
#     4  10  24  39  56  84 119 162 206 258 322 371
#     4   9  18  34  55  85 130 174 209 254 317 389
#
# _framework density 23.295121999999999
#
# number of rings (size 3 to 8) (size 9 to 14) (size 15 to 20)
#    0.000    2.095    0.952    3.143    1.333   11.048 
#    6.857    0.000    0.000    0.571    0.000   10.667 
#    0.000   18.286    0.000    0.000    0.000    0.000 
#
# Total GULP energy -234113.006590 kJ/mol
# GULP energy per Si atom -5574.119205 kJ/mol
# Density = 2.324210 g / cm^3
# Si number density = 23.295122 Si / 1000 Ang^3
#
#
#
# Elastic Constant Matrix: (Units=GPa)
#
#
# Indices 1 2 3 4 5 6 
#
# 1 205.9833 61.6961 21.6774 0.0000 0.0000 0.0000
# 2 61.6961 71.0174 19.6099 0.0000 0.0000 0.0000
# 3 21.6774 19.6099 41.7195 0.0000 0.0000 0.0000
# 4 0.0000 0.0000 0.0000 42.3189 0.0000 0.0000
# 5 0.0000 0.0000 0.0000 0.0000 15.1557 0.0000
# 6 0.0000 0.0000 0.0000 0.0000 0.0000 33.6795
#
#
#
# Elastic Compliance Matrix: (Units=1/GPa)
#
#
# Indices 1 2 3 4 5 6 
#
# 1 0.006588 -0.005491 -0.000842 0.000000 0.000000 0.000000
# 2 -0.005491 0.020757 -0.006904 0.000000 0.000000 0.000000
# 3 -0.000842 -0.006904 0.027652 0.000000 0.000000 0.000000
# 4 0.000000 0.000000 0.000000 0.023630 0.000000 0.000000
# 5 0.000000 0.000000 0.000000 0.000000 0.065982 0.000000
# 6 0.000000 0.000000 0.000000 0.000000 0.000000 0.029692
#
#
# Mechanical properties :
#
#
# Convention : Reuss Voigt Hill
#
# Bulk Modulus (GPa) = 35.05810 58.29857 46.67834
# Shear Modulus (GPa) = 23.77746 32.61326 28.19536
#
# Velocity S-wave (km/s) = 3.19831 3.74572 3.48279
# Velocity P-wave (km/s) = 5.35921 6.61722 6.02116
#
# Compressibility (1/GPa) = 0.02852408
#
# Stress axis : x y z
#
# Youngs Moduli (GPa) = 151.79168 48.17546 36.16327
#
# Poissons Ratio (x) = 0.26452 0.03046
# Poissons Ratio (y) = 0.83344 0.24967
# Poissons Ratio (z) = 0.12785 0.33260
#
# Static dielectric constant tensor:
#      x y z
#    x 1.861160 0.000000 0.000000 
#    y 0.000000 1.979620 0.000000 
#    z 0.000000 0.000000 2.229990 
# 
# From -- ./inp_files/18093.got.cif
#   From: 2010.05.17/outbox.cif.g08.bks.cpg/sg67_10_cif.got.tgz:18093.got - 2010.06.03 18:28:57.
