data_PCOD9504788
_publ_section_title
;
Structure prediction by ZEFSAII (Michael W. Deem and Ramdas Pophale) SiO2 
 PCOD9504788
Probable space group: C M M A
;
_chemical_formula_sum "Si O2"
_cell_formula_units_Z 72
_cell_length_a 25.917168
_cell_length_b 8.657135
_cell_length_c 20.368578
_cell_angle_alpha 90.000000
_cell_angle_beta 90.000000
_cell_angle_gamma 90.000000
_cell_volume 4570.065708
_symmetry_space_group_name_H-M "C M M A"
_symmetry_group_IT_number 67
_symmetry_cell_setting 'orthorhombic'
loop_
_space_group_symop_operation_xyz
x,y,z
-x,1/2-y,z
x,-y,-z
-x,1/2+y,-z
-x,-y,-z
x,1/2+y,-z
-x,y,z
x,1/2-y,z
1/2+x,1/2+y,z
1/2-x,-y,z
1/2+x,1/2-y,-z
1/2-x,y,-z
1/2-x,1/2-y,-z
1/2+x,y,-z
1/2-x,1/2+y,z
1/2+x,-y,z
loop_
_atom_site_type_symbol
_atom_site_label
_atom_site_fract_x
_atom_site_fract_y
_atom_site_fract_z
Si Si1 0.806798 0.564837 0.427569
Si Si2 0.401509 0.436323 0.652679
Si Si3 0.560156 0.064383 0.795108
Si Si4 0.000000 0.435528 0.573865
Si Si5 0.939226 0.933910 0.067938
O O1 0.820131 0.500000 0.500000
O O2 0.805687 0.750000 0.429784
O O3 0.750000 0.500000 0.411669
O O4 0.849404 0.504576 0.377222
O O5 0.401581 0.250000 0.647516
O O6 0.410067 0.478635 0.728948
O O7 0.449669 0.502217 0.611621
O O8 0.500000 0.015273 0.787188
O O9 0.560325 0.250000 0.800413
O O10 0.581595 0.995932 0.862944
O O11 0.000000 0.500000 0.500000
O O12 0.000000 0.250000 0.572981
O O13 0.936600 0.750000 0.066409
O O14 0.000000 0.981107 0.068903
O O15 0.917032 0.000000 0.000000
#
# Coordination Sequence:
#
# PCOD9504788 Si02
#       5
#    16  16  16   8  16
#     4  11  22  38  57  77  97 125 162 207 254 300
#     4  11  21  36  53  73 100 131 164 203 249 298
#     4   9  17  30  46  65  93 129 162 196 240 288
#     4  12  24  36  50  70  97 130 167 204 242 294
#     4   9  16  25  39  60  87 122 162 201 235 277
#
# _framework density 15.754697
#
# number of rings (size 3 to 8) (size 9 to 14) (size 15 to 20)
#    0.000    1.778    1.111    5.667    0.000    4.444 
#    0.000    0.000    0.000    0.000    0.000    0.000 
#    0.000    0.889    0.000    9.333    0.000    4.444 
#
# Total GULP energy -200901.411762 kJ/mol
# GULP energy per Si atom -5580.594771 kJ/mol
# Density = 1.571884 g / cm^3
# Si number density = 15.754697 Si / 1000 Ang^3
#
#
#
# Elastic Constant Matrix: (Units=GPa)
#
#
# Indices 1 2 3 4 5 6 
#
# 1 61.1475 32.0133 69.2907 0.0000 0.0000 0.0000
# 2 32.0133 83.9866 62.1001 0.0000 0.0000 0.0000
# 3 69.2907 62.1001 180.5430 0.0000 0.0000 0.0000
# 4 0.0000 0.0000 0.0000 28.5391 0.0000 0.0000
# 5 0.0000 0.0000 0.0000 0.0000 8.9751 0.0000
# 6 0.0000 0.0000 0.0000 0.0000 0.0000 20.8743
#
#
#
# Elastic Compliance Matrix: (Units=1/GPa)
#
#
# Indices 1 2 3 4 5 6 
#
# 1 0.029863 -0.003901 -0.010120 0.000000 0.000000 0.000000
# 2 -0.003901 0.016477 -0.004171 0.000000 0.000000 0.000000
# 3 -0.010120 -0.004171 0.010857 0.000000 0.000000 0.000000
# 4 0.000000 0.000000 0.000000 0.035040 0.000000 0.000000
# 5 0.000000 0.000000 0.000000 0.000000 0.111419 0.000000
# 6 0.000000 0.000000 0.000000 0.000000 0.000000 0.047906
#
#
# Mechanical properties :
#
#
# Convention : Reuss Voigt Hill
#
# Bulk Modulus (GPa) = 48.03947 72.49837 60.26892
# Shear Modulus (GPa) = 16.95592 22.49590 19.72591
#
# Velocity S-wave (km/s) = 3.28418 3.78284 3.54229
# Velocity P-wave (km/s) = 6.70369 8.07445 7.42079
#
# Compressibility (1/GPa) = 0.02081622
#
# Stress axis : x y z
#
# Youngs Moduli (GPa) = 33.48592 60.69014 92.10502
#
# Poissons Ratio (x) = 0.23672 0.93207
# Poissons Ratio (y) = 0.13061 0.38413
# Poissons Ratio (z) = 0.33886 0.25311
#
# Static dielectric constant tensor:
#      x y z
#    x 1.499870 0.000000 0.000000 
#    y 0.000000 1.525970 0.000000 
#    z 0.000000 0.000000 1.542520 
# 
# From -- ./inp_files/31951.got.cif
#   From: 2010.05.17/outbox.cif.g08.bks.cpg/sg67_16_cif.got.tgz:31951.got - 2010.06.03 18:28:57.
