data_PCOD9504209
_publ_section_title
;
Structure prediction by ZEFSAII (Michael W. Deem and Ramdas Pophale) SiO2 
 PCOD9504209
Probable space group: C M M A
;
_chemical_formula_sum "Si O2"
_cell_formula_units_Z 112
_cell_length_a 29.275133
_cell_length_b 15.937852
_cell_length_c 11.488880
_cell_angle_alpha 90.000000
_cell_angle_beta 90.000000
_cell_angle_gamma 90.000000
_cell_volume 5360.513076
_symmetry_space_group_name_H-M "C M M A"
_symmetry_group_IT_number 67
_symmetry_cell_setting 'orthorhombic'
loop_
_space_group_symop_operation_xyz
x,y,z
-x,1/2-y,z
x,-y,-z
-x,1/2+y,-z
-x,-y,-z
x,1/2+y,-z
-x,y,z
x,1/2-y,z
1/2+x,1/2+y,z
1/2-x,-y,z
1/2+x,1/2-y,-z
1/2-x,y,-z
1/2-x,1/2-y,-z
1/2+x,y,-z
1/2-x,1/2+y,z
1/2+x,-y,z
loop_
_atom_site_type_symbol
_atom_site_label
_atom_site_fract_x
_atom_site_fract_y
_atom_site_fract_z
Si Si1 0.946353 0.993385 0.370950
Si Si2 0.793462 0.649198 0.080148
Si Si3 0.390710 0.902387 0.009616
Si Si4 0.819147 0.845303 0.552545
Si Si5 0.402981 0.848131 0.274639
Si Si6 0.728703 0.907645 0.661410
Si Si7 0.445025 0.156786 0.208028
O O1 0.940085 0.083696 0.312677
O O2 0.000000 0.974094 0.383121
O O3 0.926128 0.000000 0.500000
O O4 0.927578 0.917962 0.291449
O O5 0.798751 0.750000 0.078468
O O6 0.838639 0.607787 0.029552
O O7 0.786947 0.618839 0.211689
O O8 0.750000 0.627759 0.000000
O O9 0.422055 0.853695 0.917411
O O10 0.393936 0.866364 0.139327
O O11 0.404122 0.000000 0.000000
O O12 0.827643 0.750000 0.513622
O O13 0.858850 0.867227 0.643946
O O14 0.771066 0.850009 0.621015
O O15 0.810405 0.899779 0.436860
O O16 0.414678 0.750000 0.290692
O O17 0.750000 0.000000 0.662103
O O18 0.500000 0.149723 0.196289
O O19 0.434766 0.250000 0.255011
#
# Coordination Sequence:
#
# PCOD9504209 Si02
#       7
#    16  16  16  16  16  16  16
#     4  10  23  43  67  98 134 170 212 264 322 388
#     4  11  25  42  62  89 128 172 216 268 327 394
#     4  12  25  42  67  97 133 173 219 277 333 400
#     4  10  21  40  61  85 122 164 209 261 317 377
#     4  11  24  42  65  95 130 172 217 266 328 393
#     4  11  23  37  61  90 119 161 213 269 321 381
#     4  10  22  43  71 100 132 172 217 269 332 400
#
# _framework density 20.893522000000001
#
# number of rings (size 3 to 8) (size 9 to 14) (size 15 to 20)
#    0.000    1.286    1.429    4.714    4.000    6.286 
#    0.000    2.857    0.000    0.000    0.000    0.000 
#    0.000    0.000    0.000    0.000    0.000    0.000 
#
# Total GULP energy -313019.026137 kJ/mol
# GULP energy per Si atom -5589.625467 kJ/mol
# Density = 2.084597 g / cm^3
# Si number density = 20.893522 Si / 1000 Ang^3
#
#
#
# Elastic Constant Matrix: (Units=GPa)
#
#
# Indices 1 2 3 4 5 6 
#
# 1 20.1141 7.7809 9.5165 0.0000 0.0000 0.0000
# 2 7.7809 106.4524 29.1858 0.0000 0.0000 0.0000
# 3 9.5165 29.1858 132.2237 0.0000 0.0000 0.0000
# 4 0.0000 0.0000 0.0000 1173.7475 0.0000 0.0000
# 5 0.0000 0.0000 0.0000 0.0000 23.2436 0.0000
# 6 0.0000 0.0000 0.0000 0.0000 0.0000 30.6283
#
#
#
# Elastic Compliance Matrix: (Units=1/GPa)
#
#
# Indices 1 2 3 4 5 6 
#
# 1 0.052338 -0.002973 -0.003111 0.000000 0.000000 0.000000
# 2 -0.002973 0.010168 -0.002030 0.000000 0.000000 0.000000
# 3 -0.003111 -0.002030 0.008235 0.000000 0.000000 0.000000
# 4 0.000000 0.000000 0.000000 0.000852 0.000000 0.000000
# 5 0.000000 0.000000 0.000000 0.000000 0.043023 0.000000
# 6 0.000000 0.000000 0.000000 0.000000 0.000000 0.032650
#
#
# Mechanical properties :
#
#
# Convention : Reuss Voigt Hill
#
# Bulk Modulus (GPa) = 18.34418 39.08405 28.71411
# Shear Modulus (GPa) = 27.52340 259.67768 143.60054
#
# Velocity S-wave (km/s) = 3.63342 11.16047 8.29933
# Velocity P-wave (km/s) = 5.13822 13.59491 10.27674
#
# Compressibility (1/GPa) = 0.05451322
#
# Stress axis : x y z
#
# Youngs Moduli (GPa) = 19.10658 98.34952 121.43292
#
# Poissons Ratio (x) = 0.29236 0.37775
# Poissons Ratio (y) = 0.05680 0.24656
# Poissons Ratio (z) = 0.05944 0.19969
#
# Static dielectric constant tensor:
#      x y z
#    x 1.741070 0.000000 0.000000 
#    y 0.000000 1.776610 0.000000 
#    z 0.000000 0.000000 1.725560 
# 
# From -- ./inp_files/23856.got.cif
#   From: 2010.05.17/outbox.cif.g08.bks.cpg/sg67_12_cif.got.tgz:23856.got - 2010.06.03 18:28:57.
