data_PCOD9504240
_publ_section_title
;
Structure prediction by ZEFSAII (Michael W. Deem and Ramdas Pophale) SiO2 
 PCOD9504240
Probable space group: C M M A
;
_chemical_formula_sum "Si O2"
_cell_formula_units_Z 116
_cell_length_a 27.682660
_cell_length_b 22.464158
_cell_length_c 9.158505
_cell_angle_alpha 90.000000
_cell_angle_beta 90.000000
_cell_angle_gamma 90.000000
_cell_volume 5695.377964
_symmetry_space_group_name_H-M "C M M A"
_symmetry_group_IT_number 67
_symmetry_cell_setting 'orthorhombic'
loop_
_space_group_symop_operation_xyz
x,y,z
-x,1/2-y,z
x,-y,-z
-x,1/2+y,-z
-x,-y,-z
x,1/2+y,-z
-x,y,z
x,1/2-y,z
1/2+x,1/2+y,z
1/2-x,-y,z
1/2+x,1/2-y,-z
1/2-x,y,-z
1/2-x,1/2-y,-z
1/2+x,y,-z
1/2-x,1/2+y,z
1/2+x,-y,z
loop_
_atom_site_type_symbol
_atom_site_label
_atom_site_fract_x
_atom_site_fract_y
_atom_site_fract_z
Si Si1 0.555051 0.588518 0.002714
Si Si2 0.720548 0.319260 0.850546
Si Si3 0.447382 0.975488 0.306818
Si Si4 0.611950 0.818483 0.174343
Si Si5 0.578470 0.355952 0.531976
Si Si6 0.763370 0.068390 0.672795
Si Si7 0.622318 0.076873 0.276506
Si Si8 0.500000 0.750000 0.481447
O O1 0.500000 0.591376 0.945045
O O2 0.555651 0.540914 0.134683
O O3 0.569794 0.647569 0.090959
O O4 0.596134 0.581885 0.880515
O O5 0.724768 0.250000 0.791294
O O6 0.664477 0.328200 0.891952
O O7 0.737390 0.375065 0.751002
O O8 0.750000 0.321160 0.000000
O O9 0.500000 0.004437 0.329980
O O10 0.445266 0.915803 0.401595
O O11 0.401996 0.016668 0.338559
O O12 0.599668 0.750000 0.173313
O O13 0.616218 0.839705 0.341157
O O14 0.602808 0.370571 0.378992
O O15 0.541545 0.302369 0.520408
O O16 0.750000 0.071772 0.500000
O O17 0.820306 0.074557 0.710350
O O18 0.750000 0.000000 0.719338
#
# Coordination Sequence:
#
# PCOD9504240 Si02
#       8
#    16  16  16  16  16  16  16   4
#     4  10  23  40  63  95 137 173 213 267 332 407
#     4  10  22  44  71  96 131 176 233 289 343 413
#     4  10  22  40  67  92 126 177 218 263 327 411
#     4  10  21  40  66  93 124 178 229 269 327 400
#     4  11  24  39  66  90 131 171 219 274 325 390
#     4  11  27  45  67 100 138 177 229 299 351 406
#     4  12  25  42  65  98 134 174 220 280 351 405
#     4  12  24  44  58 102 136 172 238 280 314 412
#
# _framework density 20.367393
#
# number of rings (size 3 to 8) (size 9 to 14) (size 15 to 20)
#    0.000    1.379    1.379    2.897   10.621    2.483 
#    4.966    0.000    0.000    0.000    0.000    0.000 
#    0.000    0.000    0.000    0.000    0.000    0.000 
#
# Total GULP energy -323048.838258 kJ/mol
# GULP energy per Si atom -5569.807556 kJ/mol
# Density = 2.032104 g / cm^3
# Si number density = 20.367393 Si / 1000 Ang^3
#
#
#
# Elastic Constant Matrix: (Units=GPa)
#
#
# Indices 1 2 3 4 5 6 
#
# 1 104.3983 29.0412 25.1588 0.0000 0.0000 0.0000
# 2 29.0412 121.3013 24.4188 0.0000 0.0000 0.0000
# 3 25.1588 24.4188 87.9231 0.0000 0.0000 0.0000
# 4 0.0000 0.0000 0.0000 18.1173 0.0000 0.0000
# 5 0.0000 0.0000 0.0000 0.0000 11.0818 0.0000
# 6 0.0000 0.0000 0.0000 0.0000 0.0000 15.8558
#
#
#
# Elastic Compliance Matrix: (Units=1/GPa)
#
#
# Indices 1 2 3 4 5 6 
#
# 1 0.010758 -0.002072 -0.002503 0.000000 0.000000 0.000000
# 2 -0.002072 0.009131 -0.001943 0.000000 0.000000 0.000000
# 3 -0.002503 -0.001943 0.012629 0.000000 0.000000 0.000000
# 4 0.000000 0.000000 0.000000 0.055196 0.000000 0.000000
# 5 0.000000 0.000000 0.000000 0.000000 0.090238 0.000000
# 6 0.000000 0.000000 0.000000 0.000000 0.000000 0.063068
#
#
# Mechanical properties :
#
#
# Convention : Reuss Voigt Hill
#
# Bulk Modulus (GPa) = 51.32705 52.31782 51.82244
# Shear Modulus (GPa) = 19.19009 24.67790 21.93400
#
# Velocity S-wave (km/s) = 3.07285 3.48464 3.28520
# Velocity P-wave (km/s) = 6.15185 6.47557 6.31578
#
# Compressibility (1/GPa) = 0.01948290
#
# Stress axis : x y z
#
# Youngs Moduli (GPa) = 92.95215 109.51561 79.17984
#
# Poissons Ratio (x) = 0.22689 0.19819
# Poissons Ratio (y) = 0.19258 0.15386
# Poissons Ratio (z) = 0.23266 0.21280
#
# Static dielectric constant tensor:
#      x y z
#    x 1.718930 0.000000 0.000000 
#    y 0.000000 1.752330 0.000000 
#    z 0.000000 0.000000 1.779980 
# 
# From -- ./inp_files/14036.got.cif
#   From: 2010.05.17/outbox.cif.g08.bks.cpg/sg67_8_cif.got.tgz:14036.got - 2010.06.03 18:28:57.
