data_PCOD9504952
_publ_section_title
;
Structure prediction by ZEFSAII (Michael W. Deem and Ramdas Pophale) SiO2 
 PCOD9504952
Probable space group: C M M A
;
_chemical_formula_sum "Si O2"
_cell_formula_units_Z 64
_cell_length_a 19.315185
_cell_length_b 18.250678
_cell_length_c 8.492559
_cell_angle_alpha 90.000000
_cell_angle_beta 90.000000
_cell_angle_gamma 90.000000
_cell_volume 2993.756321
_symmetry_space_group_name_H-M "C M M A"
_symmetry_group_IT_number 67
_symmetry_cell_setting 'orthorhombic'
loop_
_space_group_symop_operation_xyz
x,y,z
-x,1/2-y,z
x,-y,-z
-x,1/2+y,-z
-x,-y,-z
x,1/2+y,-z
-x,y,z
x,1/2-y,z
1/2+x,1/2+y,z
1/2-x,-y,z
1/2+x,1/2-y,-z
1/2-x,y,-z
1/2-x,1/2-y,-z
1/2+x,y,-z
1/2-x,1/2+y,z
1/2+x,-y,z
loop_
_atom_site_type_symbol
_atom_site_label
_atom_site_fract_x
_atom_site_fract_y
_atom_site_fract_z
Si Si1 0.700778 0.166513 0.708196
Si Si2 0.140742 0.028784 0.175479
Si Si3 0.344841 0.115593 0.360654
Si Si4 0.500000 0.836562 0.615377
Si Si5 0.500000 0.556997 0.352230
O O1 0.675965 0.250000 0.721360
O O2 0.679028 0.106380 0.833225
O O3 0.669678 0.129948 0.546660
O O4 0.784130 0.166169 0.707446
O O5 0.065921 0.044433 0.246729
O O6 0.169813 0.965905 0.294069
O O7 0.137699 0.000000 0.000000
O O8 0.425254 0.133946 0.322365
O O9 0.500000 0.750000 0.630381
O O10 0.500000 0.864206 0.434944
O O11 0.500000 0.500000 0.500000
#
# Coordination Sequence:
#
# PCOD9504952 Si02
#       5
#    16  16  16   8   8
#     4  11  23  42  67  98 133 174 231 292 338 388
#     4  12  25  42  67  98 139 182 221 266 339 422
#     4  11  22  41  67  98 129 173 232 283 332 399
#     4  12  22  38  70 102 127 162 219 292 347 382
#     4  12  21  42  69  98 126 170 230 275 324 386
#
# _framework density 21.377825999999999
#
# number of rings (size 3 to 8) (size 9 to 14) (size 15 to 20)
#    0.000    0.500    5.000    4.875    0.000    4.000 
#    0.000    5.000    0.000    1.500    0.000    0.000 
#    0.000    0.000    0.000    0.000    0.000    0.000 
#
# Total GULP energy -178561.138689 kJ/mol
# GULP energy per Si atom -5580.035584 kJ/mol
# Density = 2.132917 g / cm^3
# Si number density = 21.377826 Si / 1000 Ang^3
#
#
#
# Elastic Constant Matrix: (Units=GPa)
#
#
# Indices 1 2 3 4 5 6 
#
# 1 134.9895 43.6536 35.3467 0.0000 0.0000 0.0000
# 2 43.6536 158.0649 45.8862 0.0000 0.0000 0.0000
# 3 35.3467 45.8862 74.2835 0.0000 0.0000 0.0000
# 4 0.0000 0.0000 0.0000 3.7252 0.0000 0.0000
# 5 0.0000 0.0000 0.0000 0.0000 -6.7992 0.0000
# 6 0.0000 0.0000 0.0000 0.0000 0.0000 22.0375
#
#
#
# Elastic Compliance Matrix: (Units=1/GPa)
#
#
# Indices 1 2 3 4 5 6 
#
# 1 0.008734 -0.001469 -0.003248 0.000000 0.000000 0.000000
# 2 -0.001469 0.007956 -0.004216 0.000000 0.000000 0.000000
# 3 -0.003248 -0.004216 0.017612 0.000000 0.000000 0.000000
# 4 0.000000 0.000000 0.000000 0.268439 0.000000 0.000000
# 5 0.000000 0.000000 0.000000 0.000000 -0.147076 0.000000
# 6 0.000000 0.000000 0.000000 0.000000 0.000000 0.045377
#
#
# Mechanical properties :
#
#
# Convention : Reuss Voigt Hill
#
# Bulk Modulus (GPa) = 60.84409 68.56789 64.70599
# Shear Modulus (GPa) = 22.28299 19.95613 21.11956
#
# Velocity S-wave (km/s) = 3.23203 3.05863 3.14653
# Velocity P-wave (km/s) = 6.51545 6.67964 6.59806
#
# Compressibility (1/GPa) = 0.01643545
#
# Stress axis : x y z
#
# Youngs Moduli (GPa) = 114.50015 125.69141 56.78069
#
# Poissons Ratio (x) = 0.18464 0.18444
# Poissons Ratio (y) = 0.16820 0.23936
# Poissons Ratio (z) = 0.37193 0.52986
#
# Static dielectric constant tensor:
#      x y z
#    x 1.855120 0.000000 0.000000 
#    y 0.000000 1.809740 0.000000 
#    z 0.000000 0.000000 1.791380 
# 
# From -- ./inp_files/10732.got.cif
#   From: 2010.05.17/outbox.cif.g08.bks.cpg/sg67_6_cif.got.tgz:10732.got - 2010.06.03 18:28:57.
