data_PCOD9504494
_publ_section_title
;
Structure prediction by ZEFSAII (Michael W. Deem and Ramdas Pophale) SiO2 
 PCOD9504494
Probable space group: C M M A
;
_chemical_formula_sum "Si O2"
_cell_formula_units_Z 52
_cell_length_a 30.808095
_cell_length_b 9.224398
_cell_length_c 9.923886
_cell_angle_alpha 90.000000
_cell_angle_beta 90.000000
_cell_angle_gamma 90.000000
_cell_volume 2820.230756
_symmetry_space_group_name_H-M "C M M A"
_symmetry_group_IT_number 67
_symmetry_cell_setting 'orthorhombic'
loop_
_space_group_symop_operation_xyz
x,y,z
-x,1/2-y,z
x,-y,-z
-x,1/2+y,-z
-x,-y,-z
x,1/2+y,-z
-x,y,z
x,1/2-y,z
1/2+x,1/2+y,z
1/2-x,-y,z
1/2+x,1/2-y,-z
1/2-x,y,-z
1/2-x,1/2-y,-z
1/2+x,y,-z
1/2-x,1/2+y,z
1/2+x,-y,z
loop_
_atom_site_type_symbol
_atom_site_label
_atom_site_fract_x
_atom_site_fract_y
_atom_site_fract_z
Si Si1 0.448302 0.921085 0.641961
Si Si2 0.250000 0.500000 0.500000
Si Si3 0.113398 0.926076 0.855307
Si Si4 0.709388 0.087221 0.767397
O O1 0.500000 0.930641 0.667642
O O2 0.436834 0.750000 0.636667
O O3 0.439688 0.000000 0.500000
O O4 0.421590 0.005785 0.754771
O O5 0.280762 0.416814 0.606015
O O6 0.110117 0.750000 0.860650
O O7 0.161648 0.966950 0.801881
O O8 0.107722 0.000000 0.000000
O O9 0.711931 0.250000 0.816781
O O10 0.750000 0.000000 0.825962
#
# Coordination Sequence:
#
# PCOD9504494 Si02
#       4
#    16   4  16  16
#     4  10  22  41  65  93 122 155 196 246 301 358
#     4   8  18  36  56  80 116 148 196 240 298 344
#     4  11  24  41  59  88 122 162 206 247 301 360
#     4   9  20  35  56  83 114 151 196 243 292 350
#
# _framework density 18.438207999999999
#
# number of rings (size 3 to 8) (size 9 to 14) (size 15 to 20)
#    0.923    1.231    0.000    2.308    2.154    5.538 
#    0.000    3.077    0.000    0.000    0.000    0.000 
#    0.000    0.000    0.000    0.000    0.000    0.000 
#
# Total GULP energy -144841.005596 kJ/mol
# GULP energy per Si atom -5570.807908 kJ/mol
# Density = 1.839624 g / cm^3
# Si number density = 18.438208 Si / 1000 Ang^3
#
#
#
# Elastic Constant Matrix: (Units=GPa)
#
#
# Indices 1 2 3 4 5 6 
#
# 1 89.5455 68.1902 89.0706 0.0000 0.0000 0.0000
# 2 68.1902 114.5550 63.6441 0.0000 0.0000 0.0000
# 3 89.0706 63.6441 136.1684 0.0000 0.0000 0.0000
# 4 0.0000 0.0000 0.0000 26.9094 0.0000 0.0000
# 5 0.0000 0.0000 0.0000 0.0000 104.3835 0.0000
# 6 0.0000 0.0000 0.0000 0.0000 0.0000 30.4337
#
#
#
# Elastic Compliance Matrix: (Units=1/GPa)
#
#
# Indices 1 2 3 4 5 6 
#
# 1 0.043545 -0.013637 -0.022110 0.000000 0.000000 0.000000
# 2 -0.013637 0.016062 0.001413 0.000000 0.000000 0.000000
# 3 -0.022110 0.001413 0.021146 0.000000 0.000000 0.000000
# 4 0.000000 0.000000 0.000000 0.037162 0.000000 0.000000
# 5 0.000000 0.000000 0.000000 0.000000 0.009580 0.000000
# 6 0.000000 0.000000 0.000000 0.000000 0.000000 0.032858
#
#
# Mechanical properties :
#
#
# Convention : Reuss Voigt Hill
#
# Bulk Modulus (GPa) = 82.74581 86.89761 84.82171
# Shear Modulus (GPa) = 21.45481 40.30290 30.87885
#
# Velocity S-wave (km/s) = 3.41487 4.68036 4.09678
# Velocity P-wave (km/s) = 7.77967 8.74295 8.27534
#
# Compressibility (1/GPa) = 0.01208520
#
# Stress axis : x y z
#
# Youngs Moduli (GPa) = 22.96500 62.25904 47.29058
#
# Poissons Ratio (x) = 0.84901 1.04558
# Poissons Ratio (y) = 0.31317 -0.06682
# Poissons Ratio (z) = 0.50775 -0.08796
#
# Static dielectric constant tensor:
#      x y z
#    x 1.631000 0.000000 0.000000 
#    y 0.000000 1.639390 0.000000 
#    z 0.000000 0.000000 1.633740 
# 
# From -- ./inp_files/22513.got.cif
#   From: 2010.05.17/outbox.cif.g08.bks.cpg/sg67_12_cif.got.tgz:22513.got - 2010.06.03 18:28:57.
