data_PCOD9504026
_publ_section_title
;
Structure prediction by ZEFSAII (Michael W. Deem and Ramdas Pophale) SiO2 
 PCOD9504026
Probable space group: C M M A
;
_chemical_formula_sum "Si O2"
_cell_formula_units_Z 96
_cell_length_a 17.484434
_cell_length_b 14.015119
_cell_length_c 20.384307
_cell_angle_alpha 90.000000
_cell_angle_beta 90.000000
_cell_angle_gamma 90.000000
_cell_volume 4995.101519
_symmetry_space_group_name_H-M "C M M A"
_symmetry_group_IT_number 67
_symmetry_cell_setting 'orthorhombic'
loop_
_space_group_symop_operation_xyz
x,y,z
-x,1/2-y,z
x,-y,-z
-x,1/2+y,-z
-x,-y,-z
x,1/2+y,-z
-x,y,z
x,1/2-y,z
1/2+x,1/2+y,z
1/2-x,-y,z
1/2+x,1/2-y,-z
1/2-x,y,-z
1/2-x,1/2-y,-z
1/2+x,y,-z
1/2-x,1/2+y,z
1/2+x,-y,z
loop_
_atom_site_type_symbol
_atom_site_label
_atom_site_fract_x
_atom_site_fract_y
_atom_site_fract_z
Si Si1 0.707304 0.139414 0.933290
Si Si2 0.823260 0.858905 0.189631
Si Si3 0.823086 0.362070 0.272891
Si Si4 0.337992 0.972840 0.405693
Si Si5 0.910232 0.544301 0.844963
Si Si6 0.590952 0.359375 0.473643
O O1 0.681218 0.250000 0.939642
O O2 0.769506 0.136980 0.874920
O O3 0.638136 0.073150 0.909470
O O4 0.750000 0.112609 0.000000
O O5 0.850599 0.750000 0.197302
O O6 0.763792 0.882204 0.248274
O O7 0.886591 0.938811 0.179389
O O8 0.827361 0.250000 0.287911
O O9 0.844613 0.424007 0.335455
O O10 0.878309 0.386381 0.212140
O O11 0.367246 0.900955 0.462068
O O12 0.250000 0.000000 0.417134
O O13 0.385822 0.069696 0.415241
O O14 0.000000 0.553515 0.854500
O O15 0.500000 0.364488 0.484247
O O16 0.612642 0.250000 0.461431
#
# Coordination Sequence:
#
# PCOD9504026 Si02
#       6
#    16  16  16  16  16  16
#     4   9  18  35  59  82 108 148 190 227 273 331
#     4   9  19  37  57  78 110 151 190 226 272 334
#     4  10  21  38  60  83 109 146 191 237 286 343
#     4  11  21  35  59  86 110 141 189 243 287 334
#     4  11  22  35  56  87 119 147 183 238 293 338
#     4  10  22  39  56  78 114 155 189 228 286 351
#
# _framework density 19.218827999999998
#
# number of rings (size 3 to 8) (size 9 to 14) (size 15 to 20)
#    0.000    2.000    0.000    7.000    0.000    6.333 
#    0.000    2.500    0.000    3.000    0.000    0.000 
#    0.000    0.000    0.000    0.000    0.000    0.000 
#
# Total GULP energy -268132.087501 kJ/mol
# GULP energy per Si atom -5586.085156 kJ/mol
# Density = 1.917508 g / cm^3
# Si number density = 19.218828 Si / 1000 Ang^3
#
#
#
# Elastic Constant Matrix: (Units=GPa)
#
#
# Indices 1 2 3 4 5 6 
#
# 1 91.6914 48.0465 33.3727 0.0000 0.0000 0.0000
# 2 48.0465 141.3797 51.7497 0.0000 0.0000 0.0000
# 3 33.3727 51.7497 115.7993 0.0000 0.0000 0.0000
# 4 0.0000 0.0000 0.0000 19.9762 0.0000 0.0000
# 5 0.0000 0.0000 0.0000 0.0000 21.0643 0.0000
# 6 0.0000 0.0000 0.0000 0.0000 0.0000 15.2074
#
#
#
# Elastic Compliance Matrix: (Units=1/GPa)
#
#
# Indices 1 2 3 4 5 6 
#
# 1 0.013738 -0.003849 -0.002239 0.000000 0.000000 0.000000
# 2 -0.003849 0.009535 -0.003152 0.000000 0.000000 0.000000
# 3 -0.002239 -0.003152 0.010689 0.000000 0.000000 0.000000
# 4 0.000000 0.000000 0.000000 0.050060 0.000000 0.000000
# 5 0.000000 0.000000 0.000000 0.000000 0.047474 0.000000
# 6 0.000000 0.000000 0.000000 0.000000 0.000000 0.065757
#
#
# Mechanical properties :
#
#
# Convention : Reuss Voigt Hill
#
# Bulk Modulus (GPa) = 64.58954 68.35648 66.47301
# Shear Modulus (GPa) = 22.63530 25.62967 24.13248
#
# Velocity S-wave (km/s) = 3.43558 3.65577 3.54739
# Velocity P-wave (km/s) = 7.02980 7.31192 7.17225
#
# Compressibility (1/GPa) = 0.01548238
#
# Stress axis : x y z
#
# Youngs Moduli (GPa) = 72.79039 104.87783 93.55048
#
# Poissons Ratio (x) = 0.40369 0.20947
# Poissons Ratio (y) = 0.28018 0.29485
# Poissons Ratio (z) = 0.16298 0.33055
#
# Static dielectric constant tensor:
#      x y z
#    x 1.639410 0.000000 0.000000 
#    y 0.000000 1.705030 0.000000 
#    z 0.000000 0.000000 1.672980 
# 
# From -- ./inp_files/38505.got.cif
#   From: 2010.05.17/outbox.cif.g08.bks.cpg/sg67_20_cif.got.tgz:38505.got - 2010.06.03 18:28:57.
