data_PCOD9504922
_publ_section_title
;
Structure prediction by ZEFSAII (Michael W. Deem and Ramdas Pophale) SiO2 
 PCOD9504922
Probable space group: C M M A
;
_chemical_formula_sum "Si O2"
_cell_formula_units_Z 60
_cell_length_a 14.171681
_cell_length_b 14.201167
_cell_length_c 14.780720
_cell_angle_alpha 90.000000
_cell_angle_beta 90.000000
_cell_angle_gamma 90.000000
_cell_volume 2974.685062
_symmetry_space_group_name_H-M "C M M A"
_symmetry_group_IT_number 67
_symmetry_cell_setting 'orthorhombic'
loop_
_space_group_symop_operation_xyz
x,y,z
-x,1/2-y,z
x,-y,-z
-x,1/2+y,-z
-x,-y,-z
x,1/2+y,-z
-x,y,z
x,1/2-y,z
1/2+x,1/2+y,z
1/2-x,-y,z
1/2+x,1/2-y,-z
1/2-x,y,-z
1/2-x,1/2-y,-z
1/2+x,y,-z
1/2-x,1/2+y,z
1/2+x,-y,z
loop_
_atom_site_type_symbol
_atom_site_label
_atom_site_fract_x
_atom_site_fract_y
_atom_site_fract_z
Si Si1 0.354594 0.040594 0.273857
Si Si2 0.500000 0.750000 0.311894
Si Si3 0.500000 0.448662 0.596347
Si Si4 0.391433 0.943770 0.086222
Si Si5 0.110931 0.250000 0.761578
Si Si6 0.322703 0.250000 0.836280
O O1 0.374834 0.150684 0.288996
O O2 0.250000 0.000000 0.277117
O O3 0.410534 0.985940 0.349432
O O4 0.388781 0.011593 0.173534
O O5 0.500000 0.661698 0.379977
O O6 0.404554 0.750000 0.245779
O O7 0.500000 0.500000 0.500000
O O8 0.500000 0.918569 0.067261
O O9 0.341151 0.846682 0.110785
O O10 0.354735 0.000000 0.000000
O O11 0.209898 0.250000 0.817744
O O12 0.000000 0.250000 0.795913
#
# Coordination Sequence:
#
# PCOD9504922 Si02
#       6
#    16   4   8  16   8   8
#     4  12  23  45  68 100 147 196 247 305 374 449
#     4  12  20  46  80 106 146 204 252 310 394 462
#     4  12  26  44  74 108 144 192 248 320 385 456
#     4  11  22  39  69 105 142 186 250 309 362 441
#     4  12  24  40  73 101 147 202 247 309 389 437
#     4  12  20  43  73 105 146 208 256 302 378 465
#
# _framework density 20.170200999999999
#
# number of rings (size 3 to 8) (size 9 to 14) (size 15 to 20)
#    0.000    0.267    9.333    0.000    0.000    3.200 
#    0.000    2.667    0.000    5.600    0.000    0.000 
#    0.000    0.000    0.000    0.000    0.000    0.000 
#
# Total GULP energy -167253.714435 kJ/mol
# GULP energy per Si atom -5575.123815 kJ/mol
# Density = 2.012429 g / cm^3
# Si number density = 20.170201 Si / 1000 Ang^3
#
#
#
# Elastic Constant Matrix: (Units=GPa)
#
#
# Indices 1 2 3 4 5 6 
#
# 1 180.0002 42.8184 36.1769 0.0000 0.0000 0.0000
# 2 42.8184 217.2230 61.9554 0.0000 0.0000 0.0000
# 3 36.1769 61.9554 136.1918 0.0000 0.0000 0.0000
# 4 0.0000 0.0000 0.0000 36.3894 0.0000 0.0000
# 5 0.0000 0.0000 0.0000 0.0000 -5.9601 0.0000
# 6 0.0000 0.0000 0.0000 0.0000 0.0000 21.4757
#
#
#
# Elastic Compliance Matrix: (Units=1/GPa)
#
#
# Indices 1 2 3 4 5 6 
#
# 1 0.005998 -0.000836 -0.001213 0.000000 0.000000 0.000000
# 2 -0.000836 0.005407 -0.002237 0.000000 0.000000 0.000000
# 3 -0.001213 -0.002237 0.008683 0.000000 0.000000 0.000000
# 4 0.000000 0.000000 0.000000 0.027481 0.000000 0.000000
# 5 0.000000 0.000000 0.000000 0.000000 -0.167781 0.000000
# 6 0.000000 0.000000 0.000000 0.000000 0.000000 0.046564
#
#
# Mechanical properties :
#
#
# Convention : Reuss Voigt Hill
#
# Bulk Modulus (GPa) = 86.84940 90.59071 88.72006
# Shear Modulus (GPa) = -81.64898 36.54527 -22.55186
#
# Velocity S-wave (km/s) = -6.36929 4.26119 -3.34739
# Velocity P-wave (km/s) = 3.30738 8.31992 5.39825
#
# Compressibility (1/GPa) = 0.01151418
#
# Stress axis : x y z
#
# Youngs Moduli (GPa) = 166.71444 184.96041 115.17369
#
# Poissons Ratio (x) = 0.15471 0.13969
# Poissons Ratio (y) = 0.13945 0.25768
# Poissons Ratio (z) = 0.20220 0.41382
#
# Static dielectric constant tensor:
#      x y z
#    x 1.624750 0.000000 0.000000 
#    y 0.000000 1.774440 0.000000 
#    z 0.000000 0.000000 1.783290 
# 
# From -- ./inp_files/26749.got.cif
#   From: 2010.05.17/outbox.cif.g08.bks.cpg/sg67_14_cif.got.tgz:26749.got - 2010.06.03 18:28:57.
