data_PCOD9504152
_publ_section_title
;
Structure prediction by ZEFSAII (Michael W. Deem and Ramdas Pophale) SiO2 
 PCOD9504152
Probable space group: C M M A
;
_chemical_formula_sum "Si O2"
_cell_formula_units_Z 88
_cell_length_a 11.435207
_cell_length_b 24.566168
_cell_length_c 14.229948
_cell_angle_alpha 90.000000
_cell_angle_beta 90.000000
_cell_angle_gamma 90.000000
_cell_volume 3997.465840
_symmetry_space_group_name_H-M "C M M A"
_symmetry_group_IT_number 67
_symmetry_cell_setting 'orthorhombic'
loop_
_space_group_symop_operation_xyz
x,y,z
-x,1/2-y,z
x,-y,-z
-x,1/2+y,-z
-x,-y,-z
x,1/2+y,-z
-x,y,z
x,1/2-y,z
1/2+x,1/2+y,z
1/2-x,-y,z
1/2+x,1/2-y,-z
1/2-x,y,-z
1/2-x,1/2-y,-z
1/2+x,y,-z
1/2-x,1/2+y,z
1/2+x,-y,z
loop_
_atom_site_type_symbol
_atom_site_label
_atom_site_fract_x
_atom_site_fract_y
_atom_site_fract_z
Si Si1 0.363607 0.810569 0.736800
Si Si2 0.194254 0.366132 0.396276
Si Si3 0.125848 0.479079 0.861072
Si Si4 0.366895 0.143485 0.063829
Si Si5 0.124467 0.250000 0.448763
Si Si6 0.875934 0.015358 0.356888
O O1 0.500000 0.816372 0.716891
O O2 0.325686 0.750000 0.707492
O O3 0.295842 0.855907 0.679238
O O4 0.349125 0.816495 0.848219
O O5 0.250000 0.374040 0.500000
O O6 0.126530 0.308515 0.397750
O O7 0.125551 0.419303 0.364401
O O8 0.250000 0.500000 0.897738
O O9 0.126650 0.415895 0.887673
O O10 0.126330 0.492858 0.750012
O O11 0.000000 0.502539 0.895089
O O12 0.500000 0.152971 0.023035
O O13 0.250000 0.146002 0.000000
O O14 0.250000 0.250000 0.500000
O O15 0.000000 0.250000 0.504159
O O16 0.000000 0.994649 0.396673
O O17 0.750000 0.000000 0.398328
#
# Coordination Sequence:
#
# PCOD9504152 Si02
#       6
#    16  16  16  16   8  16
#     4  10  21  39  65  95 130 177 224 270 331 408
#     4  11  23  40  64  98 134 176 224 280 331 387
#     4   9  18  34  57  84 116 157 200 251 310 380
#     4  10  22  41  65  93 126 164 215 271 334 404
#     4  10  22  40  62  92 129 170 223 280 335 390
#     4  10  21  39  62  89 125 169 216 266 325 385
#
# _framework density 22.013947999999999
#
# number of rings (size 3 to 8) (size 9 to 14) (size 15 to 20)
#    0.000    2.000    0.909    2.727    0.000    7.636 
#    0.000    6.364    0.000    0.000    0.000    0.000 
#    0.000    0.000    0.000    0.000    0.000    0.000 
#
# Total GULP energy -245185.084116 kJ/mol
# GULP energy per Si atom -5572.388275 kJ/mol
# Density = 2.196384 g / cm^3
# Si number density = 22.013948 Si / 1000 Ang^3
#
#
#
# Elastic Constant Matrix: (Units=GPa)
#
#
# Indices 1 2 3 4 5 6 
#
# 1 222.5098 38.0929 54.6557 0.0000 0.0000 0.0000
# 2 38.0929 57.0159 5.6786 0.0000 0.0000 0.0000
# 3 54.6557 5.6786 99.2845 0.0000 0.0000 0.0000
# 4 0.0000 0.0000 0.0000 11.6832 0.0000 0.0000
# 5 0.0000 0.0000 0.0000 0.0000 -3.2312 0.0000
# 6 0.0000 0.0000 0.0000 0.0000 0.0000 9.2919
#
#
#
# Elastic Compliance Matrix: (Units=1/GPa)
#
#
# Indices 1 2 3 4 5 6 
#
# 1 0.005853 -0.003610 -0.003016 0.000000 0.000000 0.000000
# 2 -0.003610 0.019866 0.000851 0.000000 0.000000 0.000000
# 3 -0.003016 0.000851 0.011683 0.000000 0.000000 0.000000
# 4 0.000000 0.000000 0.000000 0.085593 0.000000 0.000000
# 5 0.000000 0.000000 0.000000 0.000000 -0.309487 0.000000
# 6 0.000000 0.000000 0.000000 0.000000 0.000000 0.107621
#
#
# Mechanical properties :
#
#
# Convention : Reuss Voigt Hill
#
# Bulk Modulus (GPa) = 38.67958 63.96273 51.32115
# Shear Modulus (GPa) = -85.17296 22.24099 -31.46599
#
# Velocity S-wave (km/s) = -6.22691 3.18199 -3.78480
# Velocity P-wave (km/s) = 5.83872 6.52830 2.06496
#
# Compressibility (1/GPa) = 0.02585344
#
# Stress axis : x y z
#
# Youngs Moduli (GPa) = 170.85459 50.33697 85.59129
#
# Poissons Ratio (x) = 0.18172 0.25810
# Poissons Ratio (y) = 0.61680 -0.07285
# Poissons Ratio (z) = 0.51522 -0.04284
#
# Static dielectric constant tensor:
#      x y z
#    x 1.897810 0.000000 0.000000 
#    y 0.000000 1.835980 0.000000 
#    z 0.000000 0.000000 -0.361890 
# 
# From -- ./inp_files/26157.got.cif
#   From: 2010.05.17/outbox.cif.g08.bks.cpg/sg67_14_cif.got.tgz:26157.got - 2010.06.03 18:28:57.
