data_PCOD9504903
_publ_section_title
;
Structure prediction by ZEFSAII (Michael W. Deem and Ramdas Pophale) SiO2 
 PCOD9504903
Probable space group: C M M A
;
_chemical_formula_sum "Si O2"
_cell_formula_units_Z 116
_cell_length_a 15.792639
_cell_length_b 23.284703
_cell_length_c 17.879088
_cell_angle_alpha 90.000000
_cell_angle_beta 90.000000
_cell_angle_gamma 90.000000
_cell_volume 6574.621761
_symmetry_space_group_name_H-M "C M M A"
_symmetry_group_IT_number 67
_symmetry_cell_setting 'orthorhombic'
loop_
_space_group_symop_operation_xyz
x,y,z
-x,1/2-y,z
x,-y,-z
-x,1/2+y,-z
-x,-y,-z
x,1/2+y,-z
-x,y,z
x,1/2-y,z
1/2+x,1/2+y,z
1/2-x,-y,z
1/2+x,1/2-y,-z
1/2-x,y,-z
1/2-x,1/2-y,-z
1/2+x,y,-z
1/2-x,1/2+y,z
1/2+x,-y,z
loop_
_atom_site_type_symbol
_atom_site_label
_atom_site_fract_x
_atom_site_fract_y
_atom_site_fract_z
Si Si1 0.097174 0.180950 0.808215
Si Si2 0.148594 0.816305 0.500000
Si Si3 0.843921 0.500000 0.617803
Si Si4 0.899419 0.379412 0.654550
Si Si5 0.899419 0.879412 0.654550
Si Si6 0.000000 0.500000 0.500000
Si Si7 0.902826 0.680950 0.808215
Si Si8 0.750000 0.179909 0.913979
O O1 0.097271 0.250000 0.807915
O O2 0.121899 0.159959 0.725355
O O3 0.166102 0.161667 0.868812
O O4 0.000000 0.162311 0.823629
O O5 0.117596 0.750000 0.500000
O O6 0.250000 0.815167 0.500000
O O7 0.120663 0.849593 0.425095
O O8 0.120663 0.849592 0.574905
O O9 0.750000 0.500000 0.583131
O O10 0.853333 0.440267 0.661279
O O11 0.853333 0.559733 0.661278
O O12 0.924340 0.500000 0.563165
O O13 0.000000 0.388844 0.655665
O O14 0.878101 0.840041 0.725355
O O15 0.000000 0.888844 0.655665
O O16 0.902729 0.750000 0.807915
O O17 0.833898 0.661667 0.868812
O O18 0.000000 0.662311 0.823629
O O19 0.750000 0.250000 0.914257
O O20 0.750000 0.161070 0.000000
#
# Coordination Sequence:
#
# PCOD9504903 Si02
#       8
#    16  16  16  16  16   4  16  16
#     4   9  19  34  55  82 113 148 182 224 275 328
#     4  11  24  36  51  78 108 145 189 230 274 329
#     4  12  25  39  59  80 105 144 189 239 294 326
#     4  11  22  39  56  78 110 144 191 236 277 329
#     4  11  22  39  56  78 110 144 191 236 277 329
#     4  12  22  44  52  74 106 136 188 240 276 328
#     4   9  19  34  55  82 113 148 182 224 275 328
#     4   9  18  32  54  84 116 149 180 216 270 336
#
# _framework density 17.643599999999999
#
# number of rings (size 3 to 8) (size 9 to 14) (size 15 to 20)
#    0.000    1.655    1.379    3.103    3.862    2.759 
#    0.000    2.759    0.000    0.000    0.000    1.931 
#    0.000    4.414    0.000    0.000    0.000    0.000 
#
# Total GULP energy -323020.811859 kJ/mol
# GULP energy per Si atom -5569.324342 kJ/mol
# Density = 1.760344 g / cm^3
# Si number density = 17.643600 Si / 1000 Ang^3
#
#
#
# Elastic Constant Matrix: (Units=GPa)
#
#
# Indices 1 2 3 4 5 6 
#
# 1 127.2791 21.3725 67.7416 0.0000 0.0000 0.0000
# 2 21.3725 59.4008 25.7271 0.0000 0.0000 0.0000
# 3 67.7416 25.7271 144.8860 0.0000 0.0000 0.0000
# 4 0.0000 0.0000 0.0000 7.6178 0.0000 0.0000
# 5 0.0000 0.0000 0.0000 0.0000 28.2824 0.0000
# 6 0.0000 0.0000 0.0000 0.0000 0.0000 49.6726
#
#
#
# Elastic Compliance Matrix: (Units=1/GPa)
#
#
# Indices 1 2 3 4 5 6 
#
# 1 0.010637 -0.001813 -0.004651 0.000000 0.000000 0.000000
# 2 -0.001813 0.018546 -0.002446 0.000000 0.000000 0.000000
# 3 -0.004651 -0.002446 0.009511 0.000000 0.000000 0.000000
# 4 0.000000 0.000000 0.000000 0.131271 0.000000 0.000000
# 5 0.000000 0.000000 0.000000 0.000000 0.035358 0.000000
# 6 0.000000 0.000000 0.000000 0.000000 0.000000 0.020132
#
#
# Mechanical properties :
#
#
# Convention : Reuss Voigt Hill
#
# Bulk Modulus (GPa) = 47.90503 62.36090 55.13296
# Shear Modulus (GPa) = 19.98145 31.56288 25.77217
#
# Velocity S-wave (km/s) = 3.36892 4.23414 3.82607
# Velocity P-wave (km/s) = 6.50717 7.70230 7.12982
#
# Compressibility (1/GPa) = 0.02087463
#
# Stress axis : x y z
#
# Youngs Moduli (GPa) = 94.01426 53.91932 105.14140
#
# Poissons Ratio (x) = 0.09773 0.48905
# Poissons Ratio (y) = 0.17041 0.25715
# Poissons Ratio (z) = 0.43729 0.13187
#
# Static dielectric constant tensor:
#      x y z
#    x 1.625370 0.000000 0.000000 
#    y 0.000000 1.649090 0.000000 
#    z 0.000000 0.000000 1.575380 
# 
# From -- ./inp_files/33811.got.cif
#   From: 2010.05.17/outbox.cif.g08.bks.cpg/sg67_17_cif.got.tgz:33811.got - 2010.06.03 18:28:57.
