data_PCOD9504810
_publ_section_title
;
Structure prediction by ZEFSAII (Michael W. Deem and Ramdas Pophale) SiO2 
 PCOD9504810
Probable space group: C M M A
;
_chemical_formula_sum "Si O2"
_cell_formula_units_Z 80
_cell_length_a 10.119766
_cell_length_b 18.202302
_cell_length_c 24.988925
_cell_angle_alpha 90.000000
_cell_angle_beta 90.000000
_cell_angle_gamma 90.000000
_cell_volume 4603.035874
_symmetry_space_group_name_H-M "C M M A"
_symmetry_group_IT_number 67
_symmetry_cell_setting 'orthorhombic'
loop_
_space_group_symop_operation_xyz
x,y,z
-x,1/2-y,z
x,-y,-z
-x,1/2+y,-z
-x,-y,-z
x,1/2+y,-z
-x,y,z
x,1/2-y,z
1/2+x,1/2+y,z
1/2-x,-y,z
1/2+x,1/2-y,-z
1/2-x,y,-z
1/2-x,1/2-y,-z
1/2+x,y,-z
1/2-x,1/2+y,z
1/2+x,-y,z
loop_
_atom_site_type_symbol
_atom_site_label
_atom_site_fract_x
_atom_site_fract_y
_atom_site_fract_z
Si Si1 0.730587 0.587616 0.615714
Si Si2 0.500000 0.081539 0.470694
Si Si3 0.846427 0.837837 0.047424
Si Si4 0.651962 0.569162 0.729264
Si Si5 0.344988 0.070329 0.152902
Si Si6 0.000000 0.663124 0.579675
O O1 0.750000 0.500000 0.619260
O O2 0.626125 0.594209 0.567517
O O3 0.679522 0.612076 0.674280
O O4 0.868267 0.626660 0.603655
O O5 0.500000 0.140487 0.517630
O O6 0.500000 0.000000 0.500000
O O7 0.832517 0.750000 0.052925
O O8 0.815902 0.876013 0.103801
O O9 0.000000 0.853305 0.034101
O O10 0.750000 0.862894 0.000000
O O11 0.500000 0.543499 0.726025
O O12 0.750000 0.500000 0.730358
O O13 0.669788 0.605470 0.787650
O O14 0.500000 0.048473 0.148637
O O15 0.250000 0.000000 0.149648
O O16 0.000000 0.750000 0.587279
#
# Coordination Sequence:
#
# PCOD9504810 Si02
#       6
#    16   8  16  16  16   8
#     4  11  21  38  63  87 114 150 197 237 278 343
#     4  12  22  38  62  94 114 146 201 243 276 345
#     4   9  18  33  53  75 103 140 183 227 270 323
#     4   9  18  32  54  86 111 142 187 235 275 322
#     4   9  18  33  52  79 112 142 179 224 276 324
#     4  12  28  42  58  88 126 152 179 241 307 343
#
# _framework density 17.379833999999999
#
# number of rings (size 3 to 8) (size 9 to 14) (size 15 to 20)
#    0.000    2.000    3.000    0.600    4.200    2.800 
#    0.000    3.000    0.000    1.200    0.000    0.000 
#    0.000    0.000    0.000    0.000    0.000    0.000 
#
# Total GULP energy -222812.852709 kJ/mol
# GULP energy per Si atom -5570.321318 kJ/mol
# Density = 1.734028 g / cm^3
# Si number density = 17.379834 Si / 1000 Ang^3
#
#
#
# Elastic Constant Matrix: (Units=GPa)
#
#
# Indices 1 2 3 4 5 6 
#
# 1 120.6990 43.4609 88.5300 0.0000 0.0000 0.0000
# 2 43.4609 57.9101 41.6666 0.0000 0.0000 0.0000
# 3 88.5300 41.6666 182.4237 0.0000 0.0000 0.0000
# 4 0.0000 0.0000 0.0000 215.6887 0.0000 0.0000
# 5 0.0000 0.0000 0.0000 0.0000 18.3149 0.0000
# 6 0.0000 0.0000 0.0000 0.0000 0.0000 15.1360
#
#
#
# Elastic Compliance Matrix: (Units=1/GPa)
#
#
# Indices 1 2 3 4 5 6 
#
# 1 0.015021 -0.007213 -0.005642 0.000000 0.000000 0.000000
# 2 -0.007213 0.024128 -0.002010 0.000000 0.000000 0.000000
# 3 -0.005642 -0.002010 0.008679 0.000000 0.000000 0.000000
# 4 0.000000 0.000000 0.000000 0.004636 0.000000 0.000000
# 5 0.000000 0.000000 0.000000 0.000000 0.054600 0.000000
# 6 0.000000 0.000000 0.000000 0.000000 0.000000 0.066068
#
#
# Mechanical properties :
#
#
# Convention : Reuss Voigt Hill
#
# Bulk Modulus (GPa) = 55.25961 78.70530 66.98246
# Shear Modulus (GPa) = 23.93538 62.31961 43.12749
#
# Velocity S-wave (km/s) = 3.71508 5.99460 4.98684
# Velocity P-wave (km/s) = 7.08990 9.65906 8.47243
#
# Compressibility (1/GPa) = 0.01809640
#
# Stress axis : x y z
#
# Youngs Moduli (GPa) = 66.57475 41.44518 115.22147
#
# Poissons Ratio (x) = 0.29896 0.65007
# Poissons Ratio (y) = 0.48024 0.23163
# Poissons Ratio (z) = 0.37561 0.08332
#
# Static dielectric constant tensor:
#      x y z
#    x 1.587690 0.000000 0.000000 
#    y 0.000000 1.567790 0.000000 
#    z 0.000000 0.000000 1.640140 
# 
# From -- ./inp_files/42305.got.cif
#   From: 2010.05.17/outbox.cif.g08.bks.cpg/sg67_22_cif.got.tgz:42305.got - 2010.06.03 18:28:57.
