data_PCOD9504428
_publ_section_title
;
Structure prediction by ZEFSAII (Michael W. Deem and Ramdas Pophale) SiO2 
 PCOD9504428
Probable space group: C M M A
;
_chemical_formula_sum "Si O2"
_cell_formula_units_Z 80
_cell_length_a 18.510729
_cell_length_b 10.876994
_cell_length_c 19.118233
_cell_angle_alpha 90.000000
_cell_angle_beta 90.000000
_cell_angle_gamma 90.000000
_cell_volume 3849.285838
_symmetry_space_group_name_H-M "C M M A"
_symmetry_group_IT_number 67
_symmetry_cell_setting 'orthorhombic'
loop_
_space_group_symop_operation_xyz
x,y,z
-x,1/2-y,z
x,-y,-z
-x,1/2+y,-z
-x,-y,-z
x,1/2+y,-z
-x,y,z
x,1/2-y,z
1/2+x,1/2+y,z
1/2-x,-y,z
1/2+x,1/2-y,-z
1/2-x,y,-z
1/2-x,1/2-y,-z
1/2+x,y,-z
1/2-x,1/2+y,z
1/2+x,-y,z
loop_
_atom_site_type_symbol
_atom_site_label
_atom_site_fract_x
_atom_site_fract_y
_atom_site_fract_z
Si Si1 0.193427 0.891736 0.680228
Si Si2 0.085151 0.501128 0.582977
Si Si3 0.084709 0.473732 0.924007
Si Si4 0.411680 0.750000 0.826694
Si Si5 0.587073 0.750000 0.664503
Si Si6 0.921687 0.607591 0.790851
O O1 0.219849 0.750000 0.688187
O O2 0.146973 0.934803 0.747851
O O3 0.250000 0.000000 0.666913
O O4 0.134749 0.896973 0.618400
O O5 0.095875 0.500000 0.500000
O O6 0.105812 0.372058 0.620457
O O7 0.000000 0.523001 0.596121
O O8 0.112703 0.366678 0.872868
O O9 0.087292 0.590916 0.873451
O O10 0.000000 0.441494 0.936129
O O11 0.117212 0.500000 0.000000
O O12 0.500000 0.750000 0.824717
O O13 0.387693 0.750000 0.745661
O O14 0.500000 0.750000 0.668031
O O15 0.926886 0.750000 0.773040
O O16 0.000000 0.547140 0.772903
#
# Coordination Sequence:
#
# PCOD9504428 Si02
#       6
#    16  16  16   8   8  16
#     4  11  25  43  64  89 122 165 212 258 313 376
#     4  10  22  39  65  97 127 159 201 256 316 374
#     4   9  17  27  46  80 119 152 188 241 307 369
#     4   9  16  26  42  70 111 157 195 230 289 359
#     4   9  18  34  58  89 125 161 202 251 305 371
#     4   9  18  35  60  87 116 154 201 253 305 364
#
# _framework density 20.783076000000001
#
# number of rings (size 3 to 8) (size 9 to 14) (size 15 to 20)
#    0.000    2.400    0.000    1.800    4.200    4.800 
#    1.800    1.000    0.000    0.600    0.000    2.800 
#    0.000    0.000    0.000    0.000    0.000    0.000 
#
# Total GULP energy -222937.020811 kJ/mol
# GULP energy per Si atom -5573.425520 kJ/mol
# Density = 2.073577 g / cm^3
# Si number density = 20.783076 Si / 1000 Ang^3
#
#
#
# Elastic Constant Matrix: (Units=GPa)
#
#
# Indices 1 2 3 4 5 6 
#
# 1 49.5601 32.5262 34.6734 0.0000 0.0000 0.0000
# 2 32.5262 106.6505 43.6951 0.0000 0.0000 0.0000
# 3 34.6734 43.6951 162.7760 0.0000 0.0000 0.0000
# 4 0.0000 0.0000 0.0000 27.8355 0.0000 0.0000
# 5 0.0000 0.0000 0.0000 0.0000 343.3545 0.0000
# 6 0.0000 0.0000 0.0000 0.0000 0.0000 -44.4530
#
#
#
# Elastic Compliance Matrix: (Units=1/GPa)
#
#
# Indices 1 2 3 4 5 6 
#
# 1 0.027401 -0.006703 -0.004038 0.000000 0.000000 0.000000
# 2 -0.006703 0.012175 -0.001840 0.000000 0.000000 0.000000
# 3 -0.004038 -0.001840 0.007497 0.000000 0.000000 0.000000
# 4 0.000000 0.000000 0.000000 0.035925 0.000000 0.000000
# 5 0.000000 0.000000 0.000000 0.000000 0.002912 0.000000
# 6 0.000000 0.000000 0.000000 0.000000 0.000000 -0.022496
#
#
# Mechanical properties :
#
#
# Convention : Reuss Voigt Hill
#
# Bulk Modulus (GPa) = 45.63673 60.08623 52.86148
# Shear Modulus (GPa) = 52.14821 79.22020 65.68420
#
# Velocity S-wave (km/s) = 5.01459 6.18065 5.62790
# Velocity P-wave (km/s) = 7.45214 8.93911 8.22928
#
# Compressibility (1/GPa) = 0.02191218
#
# Stress axis : x y z
#
# Youngs Moduli (GPa) = 36.49474 82.13839 133.37794
#
# Poissons Ratio (x) = 0.55054 0.53853
# Poissons Ratio (y) = 0.24461 0.24546
# Poissons Ratio (z) = 0.14735 0.15116
#
# Static dielectric constant tensor:
#      x y z
#    x 1.777820 0.000000 0.000000 
#    y 0.000000 1.822590 0.000000 
#    z 0.000000 0.000000 1.743690 
# 
# From -- ./inp_files/34833.got.cif
#   From: 2010.05.17/outbox.cif.g08.bks.cpg/sg67_18_cif.got.tgz:34833.got - 2010.06.03 18:28:57.
