data_PCOD9504007
_publ_section_title
;
Structure prediction by ZEFSAII (Michael W. Deem and Ramdas Pophale) SiO2 
 PCOD9504007
Probable space group: C M M A
;
_chemical_formula_sum "Si O2"
_cell_formula_units_Z 80
_cell_length_a 18.645973
_cell_length_b 8.802563
_cell_length_c 26.869841
_cell_angle_alpha 90.000000
_cell_angle_beta 90.000000
_cell_angle_gamma 90.000000
_cell_volume 4410.210202
_symmetry_space_group_name_H-M "C M M A"
_symmetry_group_IT_number 67
_symmetry_cell_setting 'orthorhombic'
loop_
_space_group_symop_operation_xyz
x,y,z
-x,1/2-y,z
x,-y,-z
-x,1/2+y,-z
-x,-y,-z
x,1/2+y,-z
-x,y,z
x,1/2-y,z
1/2+x,1/2+y,z
1/2-x,-y,z
1/2+x,1/2-y,-z
1/2-x,y,-z
1/2-x,1/2-y,-z
1/2+x,y,-z
1/2-x,1/2+y,z
1/2+x,-y,z
loop_
_atom_site_type_symbol
_atom_site_label
_atom_site_fract_x
_atom_site_fract_y
_atom_site_fract_z
Si Si1 0.413864 0.428444 0.052981
Si Si2 0.829747 0.568526 0.855346
Si Si3 0.670586 0.069138 0.248511
Si Si4 0.084952 0.431951 0.449298
Si Si5 0.413773 0.069340 0.660550
O O1 0.500000 0.442444 0.057034
O O2 0.395480 0.250000 0.054305
O O3 0.376871 0.514182 0.098436
O O4 0.392363 0.500000 0.000000
O O5 0.826125 0.750000 0.852747
O O6 0.750000 0.500000 0.861295
O O7 0.858180 0.502169 0.803016
O O8 0.675117 0.250000 0.243644
O O9 0.750000 0.000000 0.255397
O O10 0.623085 0.021106 0.295321
O O11 0.116507 0.500000 0.500000
O O12 0.089794 0.250000 0.451678
O O13 0.112302 0.479278 0.394762
O O14 0.000000 0.471527 0.448841
O O15 0.500000 0.051407 0.662210
O O16 0.399103 0.250000 0.666046
#
# Coordination Sequence:
#
# PCOD9504007 Si02
#       5
#    16  16  16  16  16
#     4  10  21  38  59  84 114 145 178 216 260 310
#     4  11  22  38  59  81 107 139 178 220 263 311
#     4  11  22  37  56  77 104 138 176 217 264 315
#     4   8  14  25  43  68  99 133 167 206 253 304
#     4   9  18  33  52  76 106 138 173 214 260 310
#
# _framework density 18.139724000000001
#
# number of rings (size 3 to 8) (size 9 to 14) (size 15 to 20)
#    0.000    2.200    0.000    6.600    0.000    3.600 
#    0.000    4.000    0.000    0.600    0.000    4.200 
#    0.000    0.000    0.000    0.000    0.000    0.000 
#
# Total GULP energy -223176.734882 kJ/mol
# GULP energy per Si atom -5579.418372 kJ/mol
# Density = 1.809844 g / cm^3
# Si number density = 18.139724 Si / 1000 Ang^3
#
#
#
# Elastic Constant Matrix: (Units=GPa)
#
#
# Indices 1 2 3 4 5 6 
#
# 1 14.2563 31.8943 41.8751 0.0000 0.0000 0.0000
# 2 31.8943 140.5566 88.9976 0.0000 0.0000 0.0000
# 3 41.8751 88.9976 196.4031 0.0000 0.0000 0.0000
# 4 0.0000 0.0000 0.0000 37.3603 0.0000 0.0000
# 5 0.0000 0.0000 0.0000 0.0000 97.0663 0.0000
# 6 0.0000 0.0000 0.0000 0.0000 0.0000 23.0029
#
#
#
# Elastic Compliance Matrix: (Units=1/GPa)
#
#
# Indices 1 2 3 4 5 6 
#
# 1 0.273010 -0.035190 -0.042262 0.000000 0.000000 0.000000
# 2 -0.035190 0.014513 0.000926 0.000000 0.000000 0.000000
# 3 -0.042262 0.000926 0.013683 0.000000 0.000000 0.000000
# 4 0.000000 0.000000 0.000000 0.026766 0.000000 0.000000
# 5 0.000000 0.000000 0.000000 0.000000 0.010302 0.000000
# 6 0.000000 0.000000 0.000000 0.000000 0.000000 0.043473
#
#
# Mechanical properties :
#
#
# Convention : Reuss Voigt Hill
#
# Bulk Modulus (GPa) = 6.74977 75.19443 40.97210
# Shear Modulus (GPa) = 8.55895 44.04916 26.30406
#
# Velocity S-wave (km/s) = 2.17453 4.93315 3.81212
# Velocity P-wave (km/s) = 3.16763 8.60179 6.48169
#
# Compressibility (1/GPa) = 0.14815325
#
# Stress axis : x y z
#
# Youngs Moduli (GPa) = 3.66287 68.90332 73.08581
#
# Poissons Ratio (x) = 2.42471 3.08879
# Poissons Ratio (y) = 0.12890 -0.06771
# Poissons Ratio (z) = 0.15480 -0.06384
#
# Static dielectric constant tensor:
#      x y z
#    x 1.607030 0.000000 0.000000 
#    y 0.000000 1.605650 0.000000 
#    z 0.000000 0.000000 1.639340 
# 
# From -- ./inp_files/43302.got.cif
#   From: 2010.05.17/outbox.cif.g08.bks.cpg/sg67_22_cif.got.tgz:43302.got - 2010.06.03 18:28:57.
