data_PCOD9504135
_publ_section_title
;
Structure prediction by ZEFSAII (Michael W. Deem and Ramdas Pophale) SiO2 
 PCOD9504135
Probable space group: C M M A
;
_chemical_formula_sum "Si O2"
_cell_formula_units_Z 112
_cell_length_a 15.195541
_cell_length_b 15.769747
_cell_length_c 23.324017
_cell_angle_alpha 90.000000
_cell_angle_beta 90.000000
_cell_angle_gamma 90.000000
_cell_volume 5589.130394
_symmetry_space_group_name_H-M "C M M A"
_symmetry_group_IT_number 67
_symmetry_cell_setting 'orthorhombic'
loop_
_space_group_symop_operation_xyz
x,y,z
-x,1/2-y,z
x,-y,-z
-x,1/2+y,-z
-x,-y,-z
x,1/2+y,-z
-x,y,z
x,1/2-y,z
1/2+x,1/2+y,z
1/2-x,-y,z
1/2+x,1/2-y,-z
1/2-x,y,-z
1/2-x,1/2-y,-z
1/2+x,y,-z
1/2-x,1/2+y,z
1/2+x,-y,z
loop_
_atom_site_type_symbol
_atom_site_label
_atom_site_fract_x
_atom_site_fract_y
_atom_site_fract_z
Si Si1 0.893580 0.348465 0.449134
Si Si2 0.894698 0.844179 0.419561
Si Si3 0.902719 0.106284 0.843824
Si Si4 0.293782 0.654405 0.144733
Si Si5 0.096948 0.451950 0.232985
Si Si6 0.899070 0.959743 0.939567
Si Si7 0.847782 0.015334 0.355589
O O1 0.875476 0.250000 0.434191
O O2 0.864390 0.361082 0.515074
O O3 0.851476 0.416208 0.406613
O O4 0.000000 0.360324 0.446545
O O5 0.861709 0.750000 0.401714
O O6 0.000000 0.837769 0.423373
O O7 0.876864 0.924158 0.379658
O O8 0.812066 0.154980 0.852715
O O9 0.000000 0.147670 0.843876
O O10 0.894438 0.049880 0.786276
O O11 0.903130 0.036253 0.894153
O O12 0.326986 0.750000 0.146716
O O13 0.331088 0.601860 0.198938
O O14 0.332415 0.607272 0.088535
O O15 0.100930 0.448898 0.301128
O O16 0.000000 0.423614 0.212556
O O17 0.000000 0.926363 0.945663
O O18 0.871801 0.000000 0.000000
O O19 0.750000 0.000000 0.333953
#
# Coordination Sequence:
#
# PCOD9504135 Si02
#       7
#    16  16  16  16  16  16  16
#     4   9  19  36  56  78 107 145 188 234 286 345
#     4   9  19  37  58  78 104 141 187 238 287 340
#     4   9  19  37  58  80 113 158 197 228 274 337
#     4  11  22  36  59  90 121 150 186 239 294 343
#     4  10  21  39  61  80 105 146 194 241 286 340
#     4   9  18  35  60  86 115 156 200 240 282 330
#     4  12  23  34  54  83 114 148 185 230 289 358
#
# _framework density 20.038896000000001
#
# number of rings (size 3 to 8) (size 9 to 14) (size 15 to 20)
#    0.000    2.143    0.000    6.429    0.000    6.000 
#    0.000    5.000    0.000    3.429    0.000    0.000 
#    0.000    0.000    0.000    0.000    0.000    0.000 
#
# Total GULP energy -312373.069522 kJ/mol
# GULP energy per Si atom -5578.090527 kJ/mol
# Density = 1.999329 g / cm^3
# Si number density = 20.038896 Si / 1000 Ang^3
#
#
#
# Elastic Constant Matrix: (Units=GPa)
#
#
# Indices 1 2 3 4 5 6 
#
# 1 106.4189 29.9132 15.4837 0.0000 0.0000 0.0000
# 2 29.9132 87.0288 40.1619 0.0000 0.0000 0.0000
# 3 15.4837 40.1619 86.7083 0.0000 0.0000 0.0000
# 4 0.0000 0.0000 0.0000 6.9764 0.0000 0.0000
# 5 0.0000 0.0000 0.0000 0.0000 180.1297 0.0000
# 6 0.0000 0.0000 0.0000 0.0000 0.0000 134.7243
#
#
#
# Elastic Compliance Matrix: (Units=1/GPa)
#
#
# Indices 1 2 3 4 5 6 
#
# 1 0.010406 -0.003459 -0.000256 0.000000 0.000000 0.000000
# 2 -0.003459 0.015764 -0.006684 0.000000 0.000000 0.000000
# 3 -0.000256 -0.006684 0.014675 0.000000 0.000000 0.000000
# 4 0.000000 0.000000 0.000000 0.143341 0.000000 0.000000
# 5 0.000000 0.000000 0.000000 0.000000 0.005552 0.000000
# 6 0.000000 0.000000 0.000000 0.000000 0.000000 0.007423
#
#
# Mechanical properties :
#
#
# Convention : Reuss Voigt Hill
#
# Bulk Modulus (GPa) = 49.88272 50.14153 50.01213
# Shear Modulus (GPa) = 22.25790 77.33923 49.79857
#
# Velocity S-wave (km/s) = 3.33638 6.21919 4.99048
# Velocity P-wave (km/s) = 6.30785 8.75486 7.63009
#
# Compressibility (1/GPa) = 0.02004702
#
# Stress axis : x y z
#
# Youngs Moduli (GPa) = 96.09589 63.43705 68.14513
#
# Poissons Ratio (x) = 0.21940 0.01747
# Poissons Ratio (y) = 0.33235 0.45547
# Poissons Ratio (z) = 0.02463 0.42401
#
# Static dielectric constant tensor:
#      x y z
#    x 1.778960 0.000000 0.000000 
#    y 0.000000 1.687890 0.000000 
#    z 0.000000 0.000000 1.702850 
# 
# From -- ./inp_files/41913.got.cif
#   From: 2010.05.17/outbox.cif.g08.bks.cpg/sg67_21_cif.got.tgz:41913.got - 2010.06.03 18:28:57.
