data_PCOD9504248
_publ_section_title
;
Structure prediction by ZEFSAII (Michael W. Deem and Ramdas Pophale) SiO2 
 PCOD9504248
Probable space group: C M M A
;
_chemical_formula_sum "Si O2"
_cell_formula_units_Z 68
_cell_length_a 16.071708
_cell_length_b 22.239940
_cell_length_c 8.451327
_cell_angle_alpha 90.000000
_cell_angle_beta 90.000000
_cell_angle_gamma 90.000000
_cell_volume 3020.790107
_symmetry_space_group_name_H-M "C M M A"
_symmetry_group_IT_number 67
_symmetry_cell_setting 'orthorhombic'
loop_
_space_group_symop_operation_xyz
x,y,z
-x,1/2-y,z
x,-y,-z
-x,1/2+y,-z
-x,-y,-z
x,1/2+y,-z
-x,y,z
x,1/2-y,z
1/2+x,1/2+y,z
1/2-x,-y,z
1/2+x,1/2-y,-z
1/2-x,y,-z
1/2-x,1/2-y,-z
1/2+x,y,-z
1/2-x,1/2+y,z
1/2+x,-y,z
loop_
_atom_site_type_symbol
_atom_site_label
_atom_site_fract_x
_atom_site_fract_y
_atom_site_fract_z
Si Si1 0.399273 0.472310 0.330979
Si Si2 0.500000 0.750000 0.797553
Si Si3 0.144361 0.648257 0.170764
Si Si4 0.802211 0.316534 0.338987
Si Si5 0.099563 0.909919 0.838040
O O1 0.375258 0.500000 0.500000
O O2 0.500000 0.467001 0.327926
O O3 0.363166 0.407608 0.291999
O O4 0.374548 0.522029 0.200366
O O5 0.572817 0.802825 0.802090
O O6 0.233165 0.677919 0.202240
O O7 0.132950 0.618109 0.999650
O O8 0.841144 0.250000 0.338052
O O9 0.750000 0.322681 0.500000
O O10 0.869108 0.367584 0.304481
O O11 0.000000 0.908886 0.846077
#
# Coordination Sequence:
#
# PCOD9504248 Si02
#       5
#    16   4  16  16  16
#     4  10  21  40  67  99 136 176 221 277 335 396
#     4  12  24  40  68 110 130 184 214 282 328 412
#     4  12  23  43  70  99 138 174 228 275 336 399
#     4  11  26  45  63  96 139 181 224 277 334 398
#     4  11  24  42  69 101 132 173 227 277 336 396
#
# _framework density 22.510667999999999
#
# number of rings (size 3 to 8) (size 9 to 14) (size 15 to 20)
#    0.000    0.941    3.529    2.824    1.647    4.235 
#    2.118    4.706    0.000    1.412    0.000    0.000 
#    0.000    0.000    0.000    0.000    0.000    0.000 
#
# Total GULP energy -189751.936416 kJ/mol
# GULP energy per Si atom -5580.939306 kJ/mol
# Density = 2.245943 g / cm^3
# Si number density = 22.510668 Si / 1000 Ang^3
#
#
#
# Elastic Constant Matrix: (Units=GPa)
#
#
# Indices 1 2 3 4 5 6 
#
# 1 23.3470 -2.5563 6.1549 0.0000 0.0000 0.0000
# 2 -2.5563 159.7559 43.0709 0.0000 0.0000 0.0000
# 3 6.1549 43.0709 73.5422 0.0000 0.0000 0.0000
# 4 0.0000 0.0000 0.0000 9.4455 0.0000 0.0000
# 5 0.0000 0.0000 0.0000 0.0000 21.4884 0.0000
# 6 0.0000 0.0000 0.0000 0.0000 0.0000 21.3942
#
#
#
# Elastic Compliance Matrix: (Units=1/GPa)
#
#
# Indices 1 2 3 4 5 6 
#
# 1 0.044346 0.002031 -0.004901 0.000000 0.000000 0.000000
# 2 0.002031 0.007526 -0.004578 0.000000 0.000000 0.000000
# 3 -0.004901 -0.004578 0.016689 0.000000 0.000000 0.000000
# 4 0.000000 0.000000 0.000000 0.105871 0.000000 0.000000
# 5 0.000000 0.000000 0.000000 0.000000 0.046537 0.000000
# 6 0.000000 0.000000 0.000000 0.000000 0.000000 0.046742
#
#
# Mechanical properties :
#
#
# Convention : Reuss Voigt Hill
#
# Bulk Modulus (GPa) = 18.63379 38.88711 28.76045
# Shear Modulus (GPa) = 16.63924 24.46401 20.55163
#
# Velocity S-wave (km/s) = 2.72172 3.30020 3.02482
# Velocity P-wave (km/s) = 4.26295 5.64218 5.00035
#
# Compressibility (1/GPa) = 0.05366595
#
# Stress axis : x y z
#
# Youngs Moduli (GPa) = 22.54975 132.86843 59.92025
#
# Poissons Ratio (x) = -0.26984 0.29366
# Poissons Ratio (y) = -0.04580 0.27430
# Poissons Ratio (z) = 0.11051 0.60825
#
# Static dielectric constant tensor:
#      x y z
#    x 1.787140 0.000000 0.000000 
#    y 0.000000 1.799700 0.000000 
#    z 0.000000 0.000000 1.903520 
# 
# From -- ./inp_files/9488.got.cif
#   From: 2010.05.17/outbox.cif.g08.bks.cpg/sg67_5_cif.got.tgz:9488.got - 2010.06.03 18:28:57.
