data_PCOD9504671
_publ_section_title
;
Structure prediction by ZEFSAII (Michael W. Deem and Ramdas Pophale) SiO2 
 PCOD9504671
Probable space group: C M M A
;
_chemical_formula_sum "Si O2"
_cell_formula_units_Z 96
_cell_length_a 22.239066
_cell_length_b 23.560913
_cell_length_c 9.399900
_cell_angle_alpha 90.000000
_cell_angle_beta 90.000000
_cell_angle_gamma 90.000000
_cell_volume 4925.290975
_symmetry_space_group_name_H-M "C M M A"
_symmetry_group_IT_number 67
_symmetry_cell_setting 'orthorhombic'
loop_
_space_group_symop_operation_xyz
x,y,z
-x,1/2-y,z
x,-y,-z
-x,1/2+y,-z
-x,-y,-z
x,1/2+y,-z
-x,y,z
x,1/2-y,z
1/2+x,1/2+y,z
1/2-x,-y,z
1/2+x,1/2-y,-z
1/2-x,y,-z
1/2-x,1/2-y,-z
1/2+x,y,-z
1/2-x,1/2+y,z
1/2+x,-y,z
loop_
_atom_site_type_symbol
_atom_site_label
_atom_site_fract_x
_atom_site_fract_y
_atom_site_fract_z
Si Si1 0.232192 0.750000 0.753935
Si Si2 0.211520 0.558041 0.166473
Si Si3 0.000000 0.561873 0.067454
Si Si4 0.621419 0.125287 0.972828
Si Si5 0.812951 0.367946 0.313528
Si Si6 0.631194 0.936945 0.562209
Si Si7 0.000000 0.558033 0.406591
Si Si8 0.842440 0.250000 0.948823
O O1 0.209920 0.804453 0.670201
O O2 0.300976 0.750000 0.807595
O O3 0.197691 0.750000 0.906841
O O4 0.250000 0.500000 0.148382
O O5 0.177078 0.587230 0.034490
O O6 0.257997 0.600834 0.237229
O O7 0.158564 0.553272 0.282495
O O8 0.940474 0.595378 0.016589
O O9 0.000000 0.551001 0.236633
O O10 0.000000 0.500000 0.000000
O O11 0.624461 0.189039 0.038794
O O12 0.633001 0.129164 0.802962
O O13 0.829190 0.398357 0.459444
O O14 0.563582 0.912909 0.561651
O O15 0.629748 0.000000 0.500000
O O16 0.000000 0.500000 0.500000
#
# Coordination Sequence:
#
# PCOD9504671 Si02
#       8
#     8  16   8  16  16  16   8   8
#     4   9  18  38  62  94 130 157 210 262 314 382
#     4  12  23  38  59  94 135 161 201 258 325 386
#     4  12  28  43  63  97 131 157 222 274 313 385
#     4  11  25  42  66  94 126 168 215 271 316 382
#     4  11  23  38  65  96 123 165 206 262 323 376
#     4  11  23  41  60  86 126 171 210 247 314 389
#     4  10  24  44  63  79 125 182 205 244 316 390
#     4   9  18  41  65  89 125 173 210 252 331 380
#
# _framework density 19.491235
#
# number of rings (size 3 to 8) (size 9 to 14) (size 15 to 20)
#    0.000    1.167    5.000    1.000    7.000    1.000 
#    0.000    2.500    0.000    1.500    0.000    0.000 
#    0.000    0.000    0.000    0.000    0.000    0.000 
#
# Total GULP energy -267885.112035 kJ/mol
# GULP energy per Si atom -5580.939834 kJ/mol
# Density = 1.944687 g / cm^3
# Si number density = 19.491235 Si / 1000 Ang^3
#
#
#
# Elastic Constant Matrix: (Units=GPa)
#
#
# Indices 1 2 3 4 5 6 
#
# 1 93.6068 40.6688 -3.7822 0.0000 0.0000 0.0000
# 2 40.6688 147.2967 9.9738 0.0000 0.0000 0.0000
# 3 -3.7822 9.9738 53.6668 0.0000 0.0000 0.0000
# 4 0.0000 0.0000 0.0000 18.8589 0.0000 0.0000
# 5 0.0000 0.0000 0.0000 0.0000 -110.3416 0.0000
# 6 0.0000 0.0000 0.0000 0.0000 0.0000 17.9170
#
#
#
# Elastic Compliance Matrix: (Units=1/GPa)
#
#
# Indices 1 2 3 4 5 6 
#
# 1 0.012259 -0.003487 0.001512 0.000000 0.000000 0.000000
# 2 -0.003487 0.007867 -0.001708 0.000000 0.000000 0.000000
# 3 0.001512 -0.001708 0.019057 0.000000 0.000000 0.000000
# 4 0.000000 0.000000 0.000000 0.053025 0.000000 0.000000
# 5 0.000000 0.000000 0.000000 0.000000 -0.009063 0.000000
# 6 0.000000 0.000000 0.000000 0.000000 0.000000 0.055813
#
#
# Mechanical properties :
#
#
# Convention : Reuss Voigt Hill
#
# Bulk Modulus (GPa) = 31.42869 43.14344 37.28607
# Shear Modulus (GPa) = 31.86105 1.80086 16.83096
#
# Velocity S-wave (km/s) = 4.04745 0.96226 2.94175
# Velocity P-wave (km/s) = 6.16457 4.83916 5.54163
#
# Compressibility (1/GPa) = 0.03181806
#
# Stress axis : x y z
#
# Youngs Moduli (GPa) = 81.57198 127.10573 52.47287
#
# Poissons Ratio (x) = 0.44324 -0.07934
# Poissons Ratio (y) = 0.28445 0.08962
# Poissons Ratio (z) = -0.12334 0.21708
#
# Static dielectric constant tensor:
#      x y z
#    x 1.716390 0.000000 0.000000 
#    y 0.000000 1.596880 0.000000 
#    z 0.000000 0.000000 1.716140 
# 
# From -- ./inp_files/12715.got.cif
#   From: 2010.05.17/outbox.cif.g08.bks.cpg/sg67_7_cif.got.tgz:12715.got - 2010.06.03 18:28:57.
