data_PCOD9504312
_publ_section_title
;
Structure prediction by ZEFSAII (Michael W. Deem and Ramdas Pophale) SiO2 
 PCOD9504312
Probable space group: C M M A
;
_chemical_formula_sum "Si O2"
_cell_formula_units_Z 84
_cell_length_a 14.448745
_cell_length_b 20.594438
_cell_length_c 12.724767
_cell_angle_alpha 90.000000
_cell_angle_beta 90.000000
_cell_angle_gamma 90.000000
_cell_volume 3786.429807
_symmetry_space_group_name_H-M "C M M A"
_symmetry_group_IT_number 67
_symmetry_cell_setting 'orthorhombic'
loop_
_space_group_symop_operation_xyz
x,y,z
-x,1/2-y,z
x,-y,-z
-x,1/2+y,-z
-x,-y,-z
x,1/2+y,-z
-x,y,z
x,1/2-y,z
1/2+x,1/2+y,z
1/2-x,-y,z
1/2+x,1/2-y,-z
1/2-x,y,-z
1/2-x,1/2-y,-z
1/2+x,y,-z
1/2-x,1/2+y,z
1/2+x,-y,z
loop_
_atom_site_type_symbol
_atom_site_label
_atom_site_fract_x
_atom_site_fract_y
_atom_site_fract_z
Si Si1 0.112358 0.961636 0.103091
Si Si2 0.865527 0.354334 0.387001
Si Si3 0.858092 0.357461 0.620868
Si Si4 0.500000 0.250000 0.698359
Si Si5 0.392793 0.819260 0.853257
Si Si6 0.356148 0.498024 0.664201
O O1 0.148391 0.887473 0.107792
O O2 0.000000 0.958653 0.104486
O O3 0.140016 0.998065 0.209606
O O4 0.141037 0.000000 0.000000
O O5 0.885261 0.331818 0.506674
O O6 0.754186 0.353765 0.372746
O O7 0.894387 0.429531 0.373296
O O8 0.919391 0.306989 0.310356
O O9 0.892714 0.324121 0.726452
O O10 0.892287 0.432363 0.626394
O O11 0.500000 0.818461 0.888123
O O12 0.350027 0.750000 0.884371
O O13 0.250000 0.500000 0.628488
#
# Coordination Sequence:
#
# PCOD9504312 Si02
#       6
#    16  16  16   4  16  16
#     4   9  18  33  54  79 105 138 178 226 289 340
#     4  10  22  36  51  75 118 150 193 225 271 343
#     4   9  19  35  58  79 103 151 189 237 281 317
#     4  12  28  34  46  80 116 168 192 214 278 340
#     4   9  18  30  52  82 110 134 181 235 281 332
#     4   9  18  36  58  81 101 139 189 239 280 321
#
# _framework density 22.184486
#
# number of rings (size 3 to 8) (size 9 to 14) (size 15 to 20)
#    0.000    2.667    0.000    0.571    5.333    3.429 
#    0.000    0.952    2.095    0.000    0.000    4.000 
#    0.000    0.000    0.000    0.000    0.000    0.000 
#
# Total GULP energy -233852.603279 kJ/mol
# GULP energy per Si atom -5567.919126 kJ/mol
# Density = 2.213399 g / cm^3
# Si number density = 22.184486 Si / 1000 Ang^3
#
#
#
# Elastic Constant Matrix: (Units=GPa)
#
#
# Indices 1 2 3 4 5 6 
#
# 1 82.8613 12.7658 -9.8362 0.0000 0.0000 0.0000
# 2 12.7658 155.1198 27.4152 0.0000 0.0000 0.0000
# 3 -9.8362 27.4152 78.1935 0.0000 0.0000 0.0000
# 4 0.0000 0.0000 0.0000 -15.3598 0.0000 0.0000
# 5 0.0000 0.0000 0.0000 0.0000 13.8478 0.0000
# 6 0.0000 0.0000 0.0000 0.0000 0.0000 -579.8344
#
#
#
# Elastic Compliance Matrix: (Units=1/GPa)
#
#
# Indices 1 2 3 4 5 6 
#
# 1 0.012529 -0.001396 0.002065 0.000000 0.000000 0.000000
# 2 -0.001396 0.007028 -0.002640 0.000000 0.000000 0.000000
# 3 0.002065 -0.002640 0.013974 0.000000 0.000000 0.000000
# 4 0.000000 0.000000 0.000000 -0.065105 0.000000 0.000000
# 5 0.000000 0.000000 0.000000 0.000000 0.072213 0.000000
# 6 0.000000 0.000000 0.000000 0.000000 0.000000 -0.001725
#
#
# Mechanical properties :
#
#
# Convention : Reuss Voigt Hill
#
# Bulk Modulus (GPa) = 33.79501 41.87381 37.83441
# Shear Modulus (GPa) = 94.84332 -97.21395 -1.18531
#
# Velocity S-wave (km/s) = 6.54560 -6.62690 -0.73175
# Velocity P-wave (km/s) = 8.50842 6.29589 4.04692
#
# Compressibility (1/GPa) = 0.02959016
#
# Stress axis : x y z
#
# Youngs Moduli (GPa) = 79.81712 142.28693 71.56092
#
# Poissons Ratio (x) = 0.19865 -0.14781
# Poissons Ratio (y) = 0.11143 0.18890
# Poissons Ratio (z) = -0.16486 0.37560
#
# Static dielectric constant tensor:
#      x y z
#    x 1.853170 0.000000 0.000000 
#    y 0.000000 1.845580 0.000000 
#    z 0.000000 0.000000 1.792970 
# 
# From -- ./inp_files/27081.got.cif
#   From: 2010.05.17/outbox.cif.g08.bks.cpg/sg67_14_cif.got.tgz:27081.got - 2010.06.03 18:28:57.
