data_PCOD9504308
_publ_section_title
;
Structure prediction by ZEFSAII (Michael W. Deem and Ramdas Pophale) SiO2 
 PCOD9504308
Probable space group: C M M A
;
_chemical_formula_sum "Si O2"
_cell_formula_units_Z 88
_cell_length_a 22.357082
_cell_length_b 8.854019
_cell_length_c 24.260621
_cell_angle_alpha 90.000000
_cell_angle_beta 90.000000
_cell_angle_gamma 90.000000
_cell_volume 4802.390626
_symmetry_space_group_name_H-M "C M M A"
_symmetry_group_IT_number 67
_symmetry_cell_setting 'orthorhombic'
loop_
_space_group_symop_operation_xyz
x,y,z
-x,1/2-y,z
x,-y,-z
-x,1/2+y,-z
-x,-y,-z
x,1/2+y,-z
-x,y,z
x,1/2-y,z
1/2+x,1/2+y,z
1/2-x,-y,z
1/2+x,1/2-y,-z
1/2-x,y,-z
1/2-x,1/2-y,-z
1/2+x,y,-z
1/2-x,1/2+y,z
1/2+x,-y,z
loop_
_atom_site_type_symbol
_atom_site_label
_atom_site_fract_x
_atom_site_fract_y
_atom_site_fract_z
Si Si1 0.000000 0.071897 0.560415
Si Si2 0.570047 0.932248 0.122988
Si Si3 0.185419 0.073725 0.447239
Si Si4 0.888087 0.072975 0.639751
Si Si5 0.071124 0.076836 0.252421
Si Si6 0.813713 0.067185 0.938212
O O1 0.944389 0.037613 0.600262
O O2 0.000000 0.250000 0.550682
O O3 0.000000 0.000000 0.500000
O O4 0.500000 0.974334 0.109137
O O5 0.574025 0.750000 0.114812
O O6 0.579005 0.962283 0.188253
O O7 0.625059 0.012542 0.091751
O O8 0.187299 0.250000 0.456592
O O9 0.151730 0.000000 0.500000
O O10 0.250000 0.000000 0.447379
O O11 0.160538 0.032302 0.387951
O O12 0.873875 0.250000 0.633882
O O13 0.899933 0.031503 0.702754
O O14 0.091557 0.250000 0.260662
O O15 0.000000 0.073750 0.262464
O O16 0.810588 0.250000 0.938821
O O17 0.750000 0.000000 0.915497
O O18 0.817560 0.000000 0.000000
#
# Coordination Sequence:
#
# PCOD9504308 Si02
#       6
#     8  16  16  16  16  16
#     4  10  22  34  48  74 106 138 171 214 267 320
#     4   9  19  37  60  87 120 156 198 245 291 345
#     4  11  22  38  57  77 100 133 173 220 273 332
#     4  11  21  35  53  78 108 141 178 221 270 326
#     4   9  18  34  56  81 110 148 188 228 278 331
#     4  11  22  38  61  88 121 160 200 243 295 351
#
# _framework density 18.324207000000001
#
# number of rings (size 3 to 8) (size 9 to 14) (size 15 to 20)
#    0.000    1.818    0.909    6.545    0.000    4.364 
#    0.000    2.727    0.000    4.364    0.000    0.000 
#    0.000    0.000    0.000    0.000    0.000    0.000 
#
# Total GULP energy -245201.268007 kJ/mol
# GULP energy per Si atom -5572.756091 kJ/mol
# Density = 1.828250 g / cm^3
# Si number density = 18.324207 Si / 1000 Ang^3
#
#
#
# Elastic Constant Matrix: (Units=GPa)
#
#
# Indices 1 2 3 4 5 6 
#
# 1 96.1475 56.7219 45.8617 0.0000 0.0000 0.0000
# 2 56.7219 114.3946 48.6675 0.0000 0.0000 0.0000
# 3 45.8617 48.6675 73.0627 0.0000 0.0000 0.0000
# 4 0.0000 0.0000 0.0000 33.3442 0.0000 0.0000
# 5 0.0000 0.0000 0.0000 0.0000 27.0735 0.0000
# 6 0.0000 0.0000 0.0000 0.0000 0.0000 19.4140
#
#
#
# Elastic Compliance Matrix: (Units=1/GPa)
#
#
# Indices 1 2 3 4 5 6 
#
# 1 0.016948 -0.005411 -0.007034 0.000000 0.000000 0.000000
# 2 -0.005411 0.013926 -0.005880 0.000000 0.000000 0.000000
# 3 -0.007034 -0.005880 0.022019 0.000000 0.000000 0.000000
# 4 0.000000 0.000000 0.000000 0.029990 0.000000 0.000000
# 5 0.000000 0.000000 0.000000 0.000000 0.036937 0.000000
# 6 0.000000 0.000000 0.000000 0.000000 0.000000 0.051509
#
#
# Mechanical properties :
#
#
# Convention : Reuss Voigt Hill
#
# Bulk Modulus (GPa) = 61.56407 65.12302 63.34355
# Shear Modulus (GPa) = 23.43092 24.78991 24.11041
#
# Velocity S-wave (km/s) = 3.57975 3.68210 3.63129
# Velocity P-wave (km/s) = 7.12434 7.32760 7.22668
#
# Compressibility (1/GPa) = 0.01624324
#
# Stress axis : x y z
#
# Youngs Moduli (GPa) = 59.00354 71.80713 45.41596
#
# Poissons Ratio (x) = 0.38856 0.31946
# Poissons Ratio (y) = 0.31927 0.26703
# Poissons Ratio (z) = 0.41503 0.42221
#
# Static dielectric constant tensor:
#      x y z
#    x 1.679300 0.000000 0.000000 
#    y 0.000000 1.633800 0.000000 
#    z 0.000000 0.000000 1.622520 
# 
# From -- ./inp_files/36937.got.cif
#   From: 2010.05.17/outbox.cif.g08.bks.cpg/sg67_19_cif.got.tgz:36937.got - 2010.06.03 18:28:57.
