data_PCOD9504384
_publ_section_title
;
Structure prediction by ZEFSAII (Michael W. Deem and Ramdas Pophale) SiO2 
 PCOD9504384
Probable space group: C M M A
;
_chemical_formula_sum "Si O2"
_cell_formula_units_Z 68
_cell_length_a 9.734037
_cell_length_b 15.278881
_cell_length_c 21.660166
_cell_angle_alpha 90.000000
_cell_angle_beta 90.000000
_cell_angle_gamma 90.000000
_cell_volume 3221.412368
_symmetry_space_group_name_H-M "C M M A"
_symmetry_group_IT_number 67
_symmetry_cell_setting 'orthorhombic'
loop_
_space_group_symop_operation_xyz
x,y,z
-x,1/2-y,z
x,-y,-z
-x,1/2+y,-z
-x,-y,-z
x,1/2+y,-z
-x,y,z
x,1/2-y,z
1/2+x,1/2+y,z
1/2-x,-y,z
1/2+x,1/2-y,-z
1/2-x,y,-z
1/2-x,1/2-y,-z
1/2+x,y,-z
1/2-x,1/2+y,z
1/2+x,-y,z
loop_
_atom_site_type_symbol
_atom_site_label
_atom_site_fract_x
_atom_site_fract_y
_atom_site_fract_z
Si Si1 0.250000 0.000000 0.714546
Si Si2 0.855542 0.892551 0.391586
Si Si3 0.750000 0.500000 0.500000
Si Si4 0.834020 0.854158 0.197166
Si Si5 0.655482 0.643445 0.944500
Si Si6 0.835726 0.750000 0.565541
O O1 0.354781 0.960878 0.664266
O O2 0.242269 0.916366 0.759790
O O3 0.844189 0.943322 0.455663
O O4 0.721361 0.831899 0.394956
O O5 0.000000 0.843834 0.388874
O O6 0.812599 0.750000 0.207702
O O7 0.801909 0.875984 0.125684
O O8 0.000000 0.869763 0.206231
O O9 0.500000 0.612587 0.953200
O O10 0.653302 0.750000 0.947256
O O11 0.750000 0.611779 0.000000
O O12 0.750000 0.750000 0.500000
O O13 0.000000 0.750000 0.556289
#
# Coordination Sequence:
#
# PCOD9504384 Si02
#       6
#     8  16   4  16  16   8
#     4  11  24  39  65  94 127 170 222 268 315 378
#     4  11  24  42  66  96 131 168 211 263 325 386
#     4  10  22  38  68  90 124 166 212 252 326 380
#     4   9  19  38  63  88 124 172 221 266 324 393
#     4   8  14  28  54  87 119 159 208 263 322 383
#     4  12  26  44  70 100 130 162 209 264 323 390
#
# _framework density 21.108754000000001
#
# number of rings (size 3 to 8) (size 9 to 14) (size 15 to 20)
#    0.000    2.118    1.176    3.529    1.647    4.706 
#    0.000    2.941    0.000    5.647    0.000    0.000 
#    0.000    0.000    0.000    0.000    0.000    0.000 
#
# Total GULP energy -189277.253983 kJ/mol
# GULP energy per Si atom -5566.978058 kJ/mol
# Density = 2.106071 g / cm^3
# Si number density = 21.108754 Si / 1000 Ang^3
#
#
#
# Elastic Constant Matrix: (Units=GPa)
#
#
# Indices 1 2 3 4 5 6 
#
# 1 122.0391 45.0924 57.9476 0.0000 0.0000 0.0000
# 2 45.0924 96.5802 59.6398 0.0000 0.0000 0.0000
# 3 57.9476 59.6398 160.4477 0.0000 0.0000 0.0000
# 4 0.0000 0.0000 0.0000 216.4954 0.0000 0.0000
# 5 0.0000 0.0000 0.0000 0.0000 -524.2750 0.0000
# 6 0.0000 0.0000 0.0000 0.0000 0.0000 52.2583
#
#
#
# Elastic Compliance Matrix: (Units=1/GPa)
#
#
# Indices 1 2 3 4 5 6 
#
# 1 0.010677 -0.003380 -0.002600 0.000000 0.000000 0.000000
# 2 -0.003380 0.014508 -0.004172 0.000000 0.000000 0.000000
# 3 -0.002600 -0.004172 0.008722 0.000000 0.000000 0.000000
# 4 0.000000 0.000000 0.000000 0.004619 0.000000 0.000000
# 5 0.000000 0.000000 0.000000 0.000000 -0.001907 0.000000
# 6 0.000000 0.000000 0.000000 0.000000 0.000000 0.019136
#
#
# Mechanical properties :
#
#
# Convention : Reuss Voigt Hill
#
# Bulk Modulus (GPa) = 73.50569 78.26962 75.88765
# Shear Modulus (GPa) = 62.03893 -36.67846 12.68023
#
# Velocity S-wave (km/s) = 5.42715 -4.17297 2.45360
# Velocity P-wave (km/s) = 8.61219 3.73383 6.63745
#
# Compressibility (1/GPa) = 0.01360439
#
# Stress axis : x y z
#
# Youngs Moduli (GPa) = 93.65567 68.92516 114.64609
#
# Poissons Ratio (x) = 0.23294 0.29808
# Poissons Ratio (y) = 0.31652 0.47834
# Poissons Ratio (z) = 0.24351 0.28758
#
# Static dielectric constant tensor:
#      x y z
#    x 1.784300 0.000000 0.000000 
#    y 0.000000 1.830030 0.000000 
#    z 0.000000 0.000000 1.775940 
# 
# From -- ./inp_files/36669.got.cif
#   From: 2010.05.17/outbox.cif.g08.bks.cpg/sg67_19_cif.got.tgz:36669.got - 2010.06.03 18:28:57.
