data_PCOD9504154
_publ_section_title
;
Structure prediction by ZEFSAII (Michael W. Deem and Ramdas Pophale) SiO2 
 PCOD9504154
Probable space group: C M M A
;
_chemical_formula_sum "Si O2"
_cell_formula_units_Z 60
_cell_length_a 14.531407
_cell_length_b 9.760813
_cell_length_c 19.351317
_cell_angle_alpha 90.000000
_cell_angle_beta 90.000000
_cell_angle_gamma 90.000000
_cell_volume 2744.758803
_symmetry_space_group_name_H-M "C M M A"
_symmetry_group_IT_number 67
_symmetry_cell_setting 'orthorhombic'
loop_
_space_group_symop_operation_xyz
x,y,z
-x,1/2-y,z
x,-y,-z
-x,1/2+y,-z
-x,-y,-z
x,1/2+y,-z
-x,y,z
x,1/2-y,z
1/2+x,1/2+y,z
1/2-x,-y,z
1/2+x,1/2-y,-z
1/2-x,y,-z
1/2-x,1/2-y,-z
1/2+x,y,-z
1/2-x,1/2+y,z
1/2+x,-y,z
loop_
_atom_site_type_symbol
_atom_site_label
_atom_site_fract_x
_atom_site_fract_y
_atom_site_fract_z
Si Si1 0.387584 0.250000 0.763128
Si Si2 0.709441 0.250000 0.910567
Si Si3 0.391337 0.034060 0.286154
Si Si4 0.750000 0.000000 0.000000
Si Si5 0.388532 0.750000 0.828508
Si Si6 0.656829 0.089916 0.440635
O O1 0.500000 0.250000 0.765600
O O2 0.348096 0.250000 0.840207
O O3 0.352979 0.382330 0.721948
O O4 0.693737 0.391538 0.952505
O O5 0.819121 0.250000 0.892325
O O6 0.500000 0.025546 0.276281
O O7 0.361657 0.123625 0.221084
O O8 0.379554 0.090087 0.362782
O O9 0.500000 0.750000 0.842128
O O10 0.664544 0.250000 0.461514
O O11 0.605985 0.000000 0.500000
O O12 0.750000 0.000000 0.433315
#
# Coordination Sequence:
#
# PCOD9504154 Si02
#       6
#     8   8  16   4   8  16
#     4  10  23  39  62  95 127 159 209 258 309 370
#     4  11  22  42  66  90 127 166 194 252 303 362
#     4  10  22  38  58  88 121 154 207 267 309 367
#     4  10  24  42  62  98 128 152 214 242 282 382
#     4  10  21  39  62  93 123 159 207 256 309 370
#     4  11  24  39  58  83 119 162 210 260 313 379
#
# _framework density 21.859843999999999
#
# number of rings (size 3 to 8) (size 9 to 14) (size 15 to 20)
#    0.000    1.600    1.333    3.200    7.467    0.533 
#    0.000    4.000    0.000    0.000    0.000    0.000 
#    0.000    0.000    0.000    0.000    0.000    0.000 
#
# Total GULP energy -167216.994998 kJ/mol
# GULP energy per Si atom -5573.899833 kJ/mol
# Density = 2.181009 g / cm^3
# Si number density = 21.859844 Si / 1000 Ang^3
#
#
#
# Elastic Constant Matrix: (Units=GPa)
#
#
# Indices 1 2 3 4 5 6 
#
# 1 53.3646 9.4319 1.4633 0.0000 0.0000 0.0000
# 2 9.4319 210.6841 54.5352 0.0000 0.0000 0.0000
# 3 1.4633 54.5352 106.0401 0.0000 0.0000 0.0000
# 4 0.0000 0.0000 0.0000 47.2252 0.0000 0.0000
# 5 0.0000 0.0000 0.0000 0.0000 3.2222 0.0000
# 6 0.0000 0.0000 0.0000 0.0000 0.0000 0.2296
#
#
#
# Elastic Compliance Matrix: (Units=1/GPa)
#
#
# Indices 1 2 3 4 5 6 
#
# 1 0.018892 -0.000898 0.000201 0.000000 0.000000 0.000000
# 2 -0.000898 0.005518 -0.002825 0.000000 0.000000 0.000000
# 3 0.000201 -0.002825 0.010881 0.000000 0.000000 0.000000
# 4 0.000000 0.000000 0.000000 0.021175 0.000000 0.000000
# 5 0.000000 0.000000 0.000000 0.000000 0.310344 0.000000
# 6 0.000000 0.000000 0.000000 0.000000 0.000000 4.355813
#
#
# Mechanical properties :
#
#
# Convention : Reuss Voigt Hill
#
# Bulk Modulus (GPa) = 35.40268 55.66106 45.53187
# Shear Modulus (GPa) = 1.05506 30.44597 15.75051
#
# Velocity S-wave (km/s) = 0.69548 3.73605 2.68717
# Velocity P-wave (km/s) = 4.10797 6.64294 5.52287
#
# Compressibility (1/GPa) = 0.02824645
#
# Stress axis : x y z
#
# Youngs Moduli (GPa) = 52.93192 181.22517 91.90574
#
# Poissons Ratio (x) = 0.16270 -0.01847
# Poissons Ratio (y) = 0.04752 0.25968
# Poissons Ratio (z) = -0.01064 0.51204
#
# Static dielectric constant tensor:
#      x y z
#    x 1.829010 0.000000 0.000000 
#    y 0.000000 1.868870 0.000000 
#    z 0.000000 0.000000 1.810290 
# 
# From -- ./inp_files/33955.got.cif
#   From: 2010.05.17/outbox.cif.g08.bks.cpg/sg67_17_cif.got.tgz:33955.got - 2010.06.03 18:28:57.
