data_PCOD9504138
_publ_section_title
;
Structure prediction by ZEFSAII (Michael W. Deem and Ramdas Pophale) SiO2 
 PCOD9504138
Probable space group: C M M A
;
_chemical_formula_sum "Si O2"
_cell_formula_units_Z 112
_cell_length_a 14.795319
_cell_length_b 23.358975
_cell_length_c 14.487969
_cell_angle_alpha 90.000000
_cell_angle_beta 90.000000
_cell_angle_gamma 90.000000
_cell_volume 5007.092601
_symmetry_space_group_name_H-M "C M M A"
_symmetry_group_IT_number 67
_symmetry_cell_setting 'orthorhombic'
loop_
_space_group_symop_operation_xyz
x,y,z
-x,1/2-y,z
x,-y,-z
-x,1/2+y,-z
-x,-y,-z
x,1/2+y,-z
-x,y,z
x,1/2-y,z
1/2+x,1/2+y,z
1/2-x,-y,z
1/2+x,1/2-y,-z
1/2-x,y,-z
1/2-x,1/2-y,-z
1/2+x,y,-z
1/2-x,1/2+y,z
1/2+x,-y,z
loop_
_atom_site_type_symbol
_atom_site_label
_atom_site_fract_x
_atom_site_fract_y
_atom_site_fract_z
Si Si1 0.398281 0.519138 0.296849
Si Si2 0.395806 0.312392 0.503984
Si Si3 0.328485 0.638924 0.314125
Si Si4 0.302108 0.815282 0.115839
Si Si5 0.605354 0.353920 0.061648
Si Si6 0.682409 0.578683 0.586771
Si Si7 0.104604 0.014062 0.900108
O O1 0.500000 0.497112 0.289060
O O2 0.397466 0.586005 0.320126
O O3 0.355723 0.481089 0.377691
O O4 0.356149 0.511054 0.194700
O O5 0.500000 0.310758 0.531621
O O6 0.373710 0.250000 0.461189
O O7 0.338491 0.321357 0.596793
O O8 0.382072 0.369302 0.443676
O O9 0.332522 0.671348 0.218900
O O10 0.235231 0.604778 0.326064
O O11 0.323205 0.750000 0.090335
O O12 0.193088 0.823264 0.107481
O O13 0.359537 0.854198 0.044812
O O14 0.500000 0.332392 0.067012
O O15 0.603788 0.417405 0.103524
O O16 0.750000 0.571611 0.500000
O O17 0.000000 0.992408 0.904493
O O18 0.146017 0.000000 0.000000
#
# Coordination Sequence:
#
# PCOD9504138 Si02
#       7
#    16  16  16  16  16  16  16
#     4  11  22  38  62  92 125 160 204 257 312 376
#     4  10  22  41  64  89 118 157 207 258 310 371
#     4  11  23  39  60  88 122 158 199 252 315 378
#     4  11  24  40  60  88 120 159 209 260 313 378
#     4  10  21  39  61  86 120 162 207 257 313 374
#     4  10  23  40  61  87 121 162 202 250 309 371
#     4   9  18  34  58  87 120 157 197 247 309 375
#
# _framework density 22.368271
#
# number of rings (size 3 to 8) (size 9 to 14) (size 15 to 20)
#    0.000    1.714    0.000    4.286    0.000   10.571 
#    0.000    8.571    0.000    0.000    0.000    0.000 
#    0.000    0.000    0.000    0.000    0.000    0.000 
#
# Total GULP energy -312450.576707 kJ/mol
# GULP energy per Si atom -5579.474584 kJ/mol
# Density = 2.231736 g / cm^3
# Si number density = 22.368271 Si / 1000 Ang^3
#
#
#
# Elastic Constant Matrix: (Units=GPa)
#
#
# Indices 1 2 3 4 5 6 
#
# 1 79.7719 11.9176 -4.3326 0.0000 0.0000 0.0000
# 2 11.9176 77.0485 19.2455 0.0000 0.0000 0.0000
# 3 -4.3326 19.2455 68.2161 0.0000 0.0000 0.0000
# 4 0.0000 0.0000 0.0000 32.8458 0.0000 0.0000
# 5 0.0000 0.0000 0.0000 0.0000 14.5687 0.0000
# 6 0.0000 0.0000 0.0000 0.0000 0.0000 16.7018
#
#
#
# Elastic Compliance Matrix: (Units=1/GPa)
#
#
# Indices 1 2 3 4 5 6 
#
# 1 0.012973 -0.002380 0.001495 0.000000 0.000000 0.000000
# 2 -0.002380 0.014399 -0.004214 0.000000 0.000000 0.000000
# 3 0.001495 -0.004214 0.015943 0.000000 0.000000 0.000000
# 4 0.000000 0.000000 0.000000 0.030445 0.000000 0.000000
# 5 0.000000 0.000000 0.000000 0.000000 0.068641 0.000000
# 6 0.000000 0.000000 0.000000 0.000000 0.000000 0.059874
#
#
# Mechanical properties :
#
#
# Convention : Reuss Voigt Hill
#
# Bulk Modulus (GPa) = 30.19462 30.96637 30.58049
# Shear Modulus (GPa) = 22.37030 26.03699 24.20365
#
# Velocity S-wave (km/s) = 3.16585 3.41547 3.29303
# Velocity P-wave (km/s) = 5.18572 5.42474 5.30657
#
# Compressibility (1/GPa) = 0.03311849
#
# Stress axis : x y z
#
# Youngs Moduli (GPa) = 77.08599 69.44697 62.72325
#
# Poissons Ratio (x) = 0.16529 -0.09380
# Poissons Ratio (y) = 0.18347 0.26429
# Poissons Ratio (z) = -0.11527 0.29262
#
# Static dielectric constant tensor:
#      x y z
#    x 1.876350 0.000000 0.000000 
#    y 0.000000 1.822540 0.000000 
#    z 0.000000 0.000000 1.833730 
# 
# From -- ./inp_files/27513.got.cif
#   From: 2010.05.17/outbox.cif.g08.bks.cpg/sg67_14_cif.got.tgz:27513.got - 2010.06.03 18:28:57.
