data_PCOD9504800
_publ_section_title
;
Structure prediction by ZEFSAII (Michael W. Deem and Ramdas Pophale) SiO2 
 PCOD9504800
Probable space group: C M M A
;
_chemical_formula_sum "Si O2"
_cell_formula_units_Z 104
_cell_length_a 29.222131
_cell_length_b 22.869297
_cell_length_c 8.532381
_cell_angle_alpha 90.000000
_cell_angle_beta 90.000000
_cell_angle_gamma 90.000000
_cell_volume 5702.101424
_symmetry_space_group_name_H-M "C M M A"
_symmetry_group_IT_number 67
_symmetry_cell_setting 'orthorhombic'
loop_
_space_group_symop_operation_xyz
x,y,z
-x,1/2-y,z
x,-y,-z
-x,1/2+y,-z
-x,-y,-z
x,1/2+y,-z
-x,y,z
x,1/2-y,z
1/2+x,1/2+y,z
1/2-x,-y,z
1/2+x,1/2-y,-z
1/2-x,y,-z
1/2-x,1/2-y,-z
1/2+x,y,-z
1/2-x,1/2+y,z
1/2+x,-y,z
loop_
_atom_site_type_symbol
_atom_site_label
_atom_site_fract_x
_atom_site_fract_y
_atom_site_fract_z
Si Si1 0.730320 0.819608 0.172617
Si Si2 0.051375 0.750000 0.983055
Si Si3 0.950802 0.250000 0.524617
Si Si4 0.315897 0.136044 0.336452
Si Si5 0.848782 0.613447 0.694695
Si Si6 0.697946 0.493653 0.309929
Si Si7 0.049988 0.351418 0.270778
Si Si8 0.130086 0.250000 0.765722
O O1 0.732809 0.750000 0.192546
O O2 0.762262 0.850163 0.304581
O O3 0.678658 0.841224 0.196080
O O4 0.750000 0.834055 0.000000
O O5 0.052985 0.692116 0.876522
O O6 0.000000 0.750000 0.054297
O O7 0.096289 0.750000 0.087953
O O8 0.950205 0.192947 0.416813
O O9 0.905595 0.250000 0.624017
O O10 0.000000 0.250000 0.608101
O O11 0.333360 0.131356 0.516519
O O12 0.322047 0.070146 0.271351
O O13 0.340450 0.190693 0.251274
O O14 0.830698 0.549506 0.739905
O O15 0.903172 0.613738 0.713927
O O16 0.699550 0.500000 0.500000
O O17 0.750000 0.500000 0.252244
O O18 0.000000 0.381682 0.266501
#
# Coordination Sequence:
#
# PCOD9504800 Si02
#       8
#    16   8   8  16  16  16  16   8
#     4  11  25  36  51  82 121 150 181 229 282 340
#     4   9  21  37  56  80 117 156 183 225 288 352
#     4   9  17  33  52  80 109 133 181 234 271 324
#     4  11  22  36  54  86 112 143 188 235 276 343
#     4  11  21  36  63  77 110 155 187 235 285 325
#     4   9  18  36  55  77 109 150 194 230 275 338
#     4   9  19  35  56  84 109 142 191 229 273 341
#     4  12  21  32  56  86 115 144 177 233 293 336
#
# _framework density 18.238890999999999
#
# number of rings (size 3 to 8) (size 9 to 14) (size 15 to 20)
#    0.000    1.846    3.846    1.615    5.385    0.615 
#    0.000    1.538    0.000    6.000    0.000    2.154 
#    0.000    0.000    0.000    0.000    0.000    0.000 
#
# Total GULP energy -289797.169458 kJ/mol
# GULP energy per Si atom -5573.022490 kJ/mol
# Density = 1.819738 g / cm^3
# Si number density = 18.238891 Si / 1000 Ang^3
#
#
#
# Elastic Constant Matrix: (Units=GPa)
#
#
# Indices 1 2 3 4 5 6 
#
# 1 153.1533 50.8921 24.1102 0.0000 0.0000 0.0000
# 2 50.8921 102.4243 18.1846 0.0000 0.0000 0.0000
# 3 24.1102 18.1846 45.3766 0.0000 0.0000 0.0000
# 4 0.0000 0.0000 0.0000 5.6384 0.0000 0.0000
# 5 0.0000 0.0000 0.0000 0.0000 27.9678 0.0000
# 6 0.0000 0.0000 0.0000 0.0000 0.0000 30.1954
#
#
#
# Elastic Compliance Matrix: (Units=1/GPa)
#
#
# Indices 1 2 3 4 5 6 
#
# 1 0.008165 -0.003538 -0.002920 0.000000 0.000000 0.000000
# 2 -0.003538 0.012045 -0.002947 0.000000 0.000000 0.000000
# 3 -0.002920 -0.002947 0.024770 0.000000 0.000000 0.000000
# 4 0.000000 0.000000 0.000000 0.177356 0.000000 0.000000
# 5 0.000000 0.000000 0.000000 0.000000 0.035755 0.000000
# 6 0.000000 0.000000 0.000000 0.000000 0.000000 0.033118
#
#
# Mechanical properties :
#
#
# Convention : Reuss Voigt Hill
#
# Bulk Modulus (GPa) = 38.21328 54.14755 46.18041
# Shear Modulus (GPa) = 15.68662 26.61146 21.14904
#
# Velocity S-wave (km/s) = 2.93587 3.82390 3.40892
# Velocity P-wave (km/s) = 5.69995 7.01774 6.39289
#
# Compressibility (1/GPa) = 0.02616891
#
# Stress axis : x y z
#
# Youngs Moduli (GPa) = 122.47464 83.02426 40.37082
#
# Poissons Ratio (x) = 0.29378 0.11789
# Poissons Ratio (y) = 0.43338 0.11896
# Poissons Ratio (z) = 0.35766 0.24465
#
# Static dielectric constant tensor:
#      x y z
#    x 1.656090 0.000000 0.000000 
#    y 0.000000 1.604860 0.000000 
#    z 0.000000 0.000000 1.662740 
# 
# From -- ./inp_files/13998.got.cif
#   From: 2010.05.17/outbox.cif.g08.bks.cpg/sg67_7_cif.got.tgz:13998.got - 2010.06.03 18:28:57.
