data_PCOD9504762
_publ_section_title
;
Structure prediction by ZEFSAII (Michael W. Deem and Ramdas Pophale) SiO2 
 PCOD9504762
Probable space group: C M M A
;
_chemical_formula_sum "Si O2"
_cell_formula_units_Z 80
_cell_length_a 8.628645
_cell_length_b 28.332688
_cell_length_c 19.260181
_cell_angle_alpha 90.000000
_cell_angle_beta 90.000000
_cell_angle_gamma 90.000000
_cell_volume 4708.588580
_symmetry_space_group_name_H-M "C M M A"
_symmetry_group_IT_number 67
_symmetry_cell_setting 'orthorhombic'
loop_
_space_group_symop_operation_xyz
x,y,z
-x,1/2-y,z
x,-y,-z
-x,1/2+y,-z
-x,-y,-z
x,1/2+y,-z
-x,y,z
x,1/2-y,z
1/2+x,1/2+y,z
1/2-x,-y,z
1/2+x,1/2-y,-z
1/2-x,y,-z
1/2-x,1/2-y,-z
1/2+x,y,-z
1/2-x,1/2+y,z
1/2+x,-y,z
loop_
_atom_site_type_symbol
_atom_site_label
_atom_site_fract_x
_atom_site_fract_y
_atom_site_fract_z
Si Si1 0.187391 0.103136 0.791827
Si Si2 0.684506 0.447334 0.925311
Si Si3 0.688824 0.197166 0.284854
Si Si4 0.686363 0.448500 0.350067
Si Si5 0.686833 0.146101 0.424993
O O1 0.261255 0.085627 0.862690
O O2 0.234798 0.155755 0.768037
O O3 0.230626 0.068762 0.727531
O O4 0.000000 0.101959 0.797748
O O5 0.500000 0.449768 0.928650
O O6 0.750000 0.500000 0.912594
O O7 0.750000 0.431746 0.000000
O O8 0.500000 0.197412 0.284474
O O9 0.742657 0.250000 0.269195
O O10 0.735260 0.180453 0.362145
O O11 0.500000 0.449976 0.351891
O O12 0.750000 0.500000 0.365816
O O13 0.736634 0.406792 0.402151
O O14 0.500000 0.146522 0.426922
O O15 0.750000 0.158882 0.500000
#
# Coordination Sequence:
#
# PCOD9504762 Si02
#       5
#    16  16  16  16  16
#     4   9  17  31  50  72  97 124 158 198 238 281
#     4  11  21  33  50  74 104 134 162 191 227 272
#     4   8  15  30  52  73  93 122 159 197 240 290
#     4   9  18  30  44  63  89 122 157 193 232 280
#     4   9  18  31  45  65  92 120 154 195 239 285
#
# _framework density 16.99023
#
# number of rings (size 3 to 8) (size 9 to 14) (size 15 to 20)
#    0.000    2.800    0.000    5.400    0.000    4.000 
#    0.000    5.000    0.000    2.400    0.000    0.000 
#    0.000    0.000    0.000    0.000    0.000    0.000 
#
# Total GULP energy -223021.313910 kJ/mol
# GULP energy per Si atom -5575.532848 kJ/mol
# Density = 1.695156 g / cm^3
# Si number density = 16.990230 Si / 1000 Ang^3
#
#
#
# Elastic Constant Matrix: (Units=GPa)
#
#
# Indices 1 2 3 4 5 6 
#
# 1 36.8860 13.3468 28.5138 0.0000 0.0000 0.0000
# 2 13.3468 74.8670 35.1570 0.0000 0.0000 0.0000
# 3 28.5138 35.1570 116.3597 0.0000 0.0000 0.0000
# 4 0.0000 0.0000 0.0000 16.2355 0.0000 0.0000
# 5 0.0000 0.0000 0.0000 0.0000 26.1832 0.0000
# 6 0.0000 0.0000 0.0000 0.0000 0.0000 13.9314
#
#
#
# Elastic Compliance Matrix: (Units=1/GPa)
#
#
# Indices 1 2 3 4 5 6 
#
# 1 0.033841 -0.002492 -0.007540 0.000000 0.000000 0.000000
# 2 -0.002492 0.015749 -0.004148 0.000000 0.000000 0.000000
# 3 -0.007540 -0.004148 0.011695 0.000000 0.000000 0.000000
# 4 0.000000 0.000000 0.000000 0.061594 0.000000 0.000000
# 5 0.000000 0.000000 0.000000 0.000000 0.038192 0.000000
# 6 0.000000 0.000000 0.000000 0.000000 0.000000 0.071780
#
#
# Mechanical properties :
#
#
# Convention : Reuss Voigt Hill
#
# Bulk Modulus (GPa) = 30.37180 42.46086 36.41633
# Shear Modulus (GPa) = 18.36984 21.34301 19.85643
#
# Velocity S-wave (km/s) = 3.29173 3.54813 3.42233
# Velocity P-wave (km/s) = 5.68877 6.46770 6.09070
#
# Compressibility (1/GPa) = 0.03292528
#
# Stress axis : x y z
#
# Youngs Moduli (GPa) = 29.55027 63.49581 85.50823
#
# Poissons Ratio (x) = 0.15825 0.64469
# Poissons Ratio (y) = 0.07365 0.35466
# Poissons Ratio (z) = 0.22280 0.26336
#
# Static dielectric constant tensor:
#      x y z
#    x 1.578260 0.000000 0.000000 
#    y 0.000000 1.574920 0.000000 
#    z 0.000000 0.000000 1.558550 
# 
# From -- ./inp_files/32118.got.cif
#   From: 2010.05.17/outbox.cif.g08.bks.cpg/sg67_17_cif.got.tgz:32118.got - 2010.06.03 18:28:57.
