data_PCOD9504280
_publ_section_title
;
Structure prediction by ZEFSAII (Michael W. Deem and Ramdas Pophale) SiO2 
 PCOD9504280
Probable space group: C M M A
;
_chemical_formula_sum "Si O2"
_cell_formula_units_Z 80
_cell_length_a 27.357243
_cell_length_b 14.639047
_cell_length_c 9.607314
_cell_angle_alpha 90.000000
_cell_angle_beta 90.000000
_cell_angle_gamma 90.000000
_cell_volume 3847.575214
_symmetry_space_group_name_H-M "C M M A"
_symmetry_group_IT_number 67
_symmetry_cell_setting 'orthorhombic'
loop_
_space_group_symop_operation_xyz
x,y,z
-x,1/2-y,z
x,-y,-z
-x,1/2+y,-z
-x,-y,-z
x,1/2+y,-z
-x,y,z
x,1/2-y,z
1/2+x,1/2+y,z
1/2-x,-y,z
1/2+x,1/2-y,-z
1/2-x,y,-z
1/2-x,1/2-y,-z
1/2+x,y,-z
1/2-x,1/2+y,z
1/2+x,-y,z
loop_
_atom_site_type_symbol
_atom_site_label
_atom_site_fract_x
_atom_site_fract_y
_atom_site_fract_z
Si Si1 0.852120 0.506812 0.703251
Si Si2 0.440958 0.250000 0.444503
Si Si3 0.691764 0.143604 0.476648
Si Si4 0.412123 0.412357 0.930139
Si Si5 0.444537 0.585561 0.361668
Si Si6 0.939662 0.750000 0.120653
O O1 0.823909 0.415320 0.660030
O O2 0.829434 0.587160 0.608180
O O3 0.862145 0.453665 0.141490
O O4 0.908443 0.499793 0.650990
O O5 0.500000 0.250000 0.450392
O O6 0.426529 0.339094 0.530867
O O7 0.428026 0.250000 0.283829
O O8 0.676715 0.250000 0.469609
O O9 0.750000 0.141362 0.500000
O O10 0.414267 0.336276 0.046883
O O11 0.437038 0.500000 0.000000
O O12 0.439813 0.374391 0.794658
O O13 0.500000 0.561036 0.386848
O O14 0.000000 0.750000 0.104062
#
# Coordination Sequence:
#
# PCOD9504280 Si02
#       6
#    16   8  16  16  16   8
#     4   9  21  37  64  94 132 166 213 272 317 393
#     4   9  19  37  59  91 125 172 237 287 318 364
#     4  10  21  41  70 100 129 162 212 275 336 399
#     4  10  23  41  58  90 128 181 222 272 324 391
#     4   9  19  36  60  87 131 177 216 269 322 370
#     4  11  23  37  59  83 121 180 238 277 318 394
#
# _framework density 20.792317000000001
#
# number of rings (size 3 to 8) (size 9 to 14) (size 15 to 20)
#    1.200    1.200    0.000    2.400    2.800    5.600 
#    1.800    2.000    0.000    4.200    0.000    2.800 
#    0.000    0.000    0.000    0.000    0.000    0.000 
#
# Total GULP energy -222715.165966 kJ/mol
# GULP energy per Si atom -5567.879149 kJ/mol
# Density = 2.074499 g / cm^3
# Si number density = 20.792317 Si / 1000 Ang^3
#
#
#
# Elastic Constant Matrix: (Units=GPa)
#
#
# Indices 1 2 3 4 5 6 
#
# 1 89.4522 39.2244 17.2054 0.0000 0.0000 0.0000
# 2 39.2244 151.0560 63.4520 0.0000 0.0000 0.0000
# 3 17.2054 63.4520 159.3522 0.0000 0.0000 0.0000
# 4 0.0000 0.0000 0.0000 36.0091 0.0000 0.0000
# 5 0.0000 0.0000 0.0000 0.0000 -16.9467 0.0000
# 6 0.0000 0.0000 0.0000 0.0000 0.0000 64.3994
#
#
#
# Elastic Compliance Matrix: (Units=1/GPa)
#
#
# Indices 1 2 3 4 5 6 
#
# 1 0.012616 -0.003247 -0.000069 0.000000 0.000000 0.000000
# 2 -0.003247 0.008785 -0.003148 0.000000 0.000000 0.000000
# 3 -0.000069 -0.003148 0.007536 0.000000 0.000000 0.000000
# 4 0.000000 0.000000 0.000000 0.027771 0.000000 0.000000
# 5 0.000000 0.000000 0.000000 0.000000 -0.059008 0.000000
# 6 0.000000 0.000000 0.000000 0.000000 0.000000 0.015528
#
#
# Mechanical properties :
#
#
# Convention : Reuss Voigt Hill
#
# Bulk Modulus (GPa) = 62.46055 71.06935 66.76495
# Shear Modulus (GPa) = 158.76650 35.35759 97.06204
#
# Velocity S-wave (km/s) = 8.74780 4.12820 6.83981
# Velocity P-wave (km/s) = 11.49511 7.54834 9.72407
#
# Compressibility (1/GPa) = 0.01601010
#
# Stress axis : x y z
#
# Youngs Moduli (GPa) = 79.26287 113.82550 132.69209
#
# Poissons Ratio (x) = 0.36958 0.00920
# Poissons Ratio (y) = 0.25736 0.41767
# Poissons Ratio (z) = 0.00549 0.35828
#
# Static dielectric constant tensor:
#      x y z
#    x 1.795850 0.000000 0.000000 
#    y 0.000000 1.778230 0.000000 
#    z 0.000000 0.000000 1.801780 
# 
# From -- ./inp_files/13587.got.cif
#   From: 2010.05.17/outbox.cif.g08.bks.cpg/sg67_7_cif.got.tgz:13587.got - 2010.06.03 18:28:57.
