data_PCOD9504597
_publ_section_title
;
Structure prediction by ZEFSAII (Michael W. Deem and Ramdas Pophale) SiO2 
 PCOD9504597
Probable space group: C M M A
;
_chemical_formula_sum "Si O2"
_cell_formula_units_Z 56
_cell_length_a 13.929787
_cell_length_b 10.576049
_cell_length_c 19.059767
_cell_angle_alpha 90.000000
_cell_angle_beta 90.000000
_cell_angle_gamma 90.000000
_cell_volume 2807.925088
_symmetry_space_group_name_H-M "C M M A"
_symmetry_group_IT_number 67
_symmetry_cell_setting 'orthorhombic'
loop_
_space_group_symop_operation_xyz
x,y,z
-x,1/2-y,z
x,-y,-z
-x,1/2+y,-z
-x,-y,-z
x,1/2+y,-z
-x,y,z
x,1/2-y,z
1/2+x,1/2+y,z
1/2-x,-y,z
1/2+x,1/2-y,-z
1/2-x,y,-z
1/2-x,1/2-y,-z
1/2+x,y,-z
1/2-x,1/2+y,z
1/2+x,-y,z
loop_
_atom_site_type_symbol
_atom_site_label
_atom_site_fract_x
_atom_site_fract_y
_atom_site_fract_z
Si Si1 0.383138 0.604161 0.442822
Si Si2 0.107690 0.599253 0.713170
Si Si3 0.750000 0.000000 0.828974
Si Si4 0.888033 0.891710 0.057587
O O1 0.354944 0.500000 0.500000
O O2 0.500000 0.608736 0.442944
O O3 0.351072 0.750000 0.455365
O O4 0.356874 0.560026 0.364152
O O5 0.100594 0.750000 0.708058
O O6 0.176300 0.568124 0.777080
O O7 0.000000 0.547652 0.724858
O O8 0.685747 0.912418 0.879320
O O9 0.876507 0.750000 0.028004
O O10 0.000000 0.904053 0.080241
O O11 0.870931 0.000000 0.000000
#
# Coordination Sequence:
#
# PCOD9504597 Si02
#       4
#    16  16   8  16
#     4   8  14  28  51  76 103 140 187 233 275 323
#     4   9  19  35  54  79 112 149 187 227 277 336
#     4  12  21  34  59  86 114 146 184 228 275 328
#     4  10  23  42  62  86 115 146 183 228 276 328
#
# _framework density 19.943552
#
# number of rings (size 3 to 8) (size 9 to 14) (size 15 to 20)
#    0.000    2.571    0.000    3.857    0.000    3.429 
#    0.000    6.429    0.000   10.286    0.000    0.000 
#    0.000    0.000    0.000    0.000    0.000    1.143 
#
# Total GULP energy -156183.295938 kJ/mol
# GULP energy per Si atom -5577.974855 kJ/mol
# Density = 1.989816 g / cm^3
# Si number density = 19.943552 Si / 1000 Ang^3
#
#
#
# Elastic Constant Matrix: (Units=GPa)
#
#
# Indices 1 2 3 4 5 6 
#
# 1 109.7755 40.9672 65.1023 0.0000 0.0000 0.0000
# 2 40.9672 100.9173 71.8175 0.0000 0.0000 0.0000
# 3 65.1023 71.8175 140.1169 0.0000 0.0000 0.0000
# 4 0.0000 0.0000 0.0000 28.5911 0.0000 0.0000
# 5 0.0000 0.0000 0.0000 0.0000 146.4681 0.0000
# 6 0.0000 0.0000 0.0000 0.0000 0.0000 -26.7542
#
#
#
# Elastic Compliance Matrix: (Units=1/GPa)
#
#
# Indices 1 2 3 4 5 6 
#
# 1 0.012718 -0.001508 -0.005137 0.000000 0.000000 0.000000
# 2 -0.001508 0.015778 -0.007386 0.000000 0.000000 0.000000
# 3 -0.005137 -0.007386 0.013309 0.000000 0.000000 0.000000
# 4 0.000000 0.000000 0.000000 0.034976 0.000000 0.000000
# 5 0.000000 0.000000 0.000000 0.000000 0.006827 0.000000
# 6 0.000000 0.000000 0.000000 0.000000 0.000000 -0.037377
#
#
# Mechanical properties :
#
#
# Convention : Reuss Voigt Hill
#
# Bulk Modulus (GPa) = 72.75764 78.50930 75.63347
# Shear Modulus (GPa) = 63.39212 41.18917 52.29064
#
# Velocity S-wave (km/s) = 5.64400 4.54947 5.12604
# Velocity P-wave (km/s) = 8.89011 8.18829 8.54641
#
# Compressibility (1/GPa) = 0.01374426
#
# Stress axis : x y z
#
# Youngs Moduli (GPa) = 78.62639 63.38095 75.13453
#
# Poissons Ratio (x) = 0.09555 0.38594
# Poissons Ratio (y) = 0.11853 0.55498
# Poissons Ratio (z) = 0.40387 0.46816
#
# Static dielectric constant tensor:
#      x y z
#    x 1.785870 0.000000 0.000000 
#    y 0.000000 1.682680 0.000000 
#    z 0.000000 0.000000 1.696110 
# 
# From -- ./inp_files/25555.got.cif
#   From: 2010.05.17/outbox.cif.g08.bks.cpg/sg67_13_cif.got.tgz:25555.got - 2010.06.03 18:28:57.
