data_PCOD9504093
_publ_section_title
;
Structure prediction by ZEFSAII (Michael W. Deem and Ramdas Pophale) SiO2 
 PCOD9504093
Probable space group: C M M A
;
_chemical_formula_sum "Si O2"
_cell_formula_units_Z 80
_cell_length_a 24.374217
_cell_length_b 32.137284
_cell_length_c 5.044862
_cell_angle_alpha 90.000000
_cell_angle_beta 90.000000
_cell_angle_gamma 90.000000
_cell_volume 3951.747023
_symmetry_space_group_name_H-M "C M M A"
_symmetry_group_IT_number 67
_symmetry_cell_setting 'orthorhombic'
loop_
_space_group_symop_operation_xyz
x,y,z
-x,1/2-y,z
x,-y,-z
-x,1/2+y,-z
-x,-y,-z
x,1/2+y,-z
-x,y,z
x,1/2-y,z
1/2+x,1/2+y,z
1/2-x,-y,z
1/2+x,1/2-y,-z
1/2-x,y,-z
1/2-x,1/2-y,-z
1/2+x,y,-z
1/2-x,1/2+y,z
1/2+x,-y,z
loop_
_atom_site_type_symbol
_atom_site_label
_atom_site_fract_x
_atom_site_fract_y
_atom_site_fract_z
Si Si1 0.812675 0.250000 0.354037
Si Si2 0.437064 0.527983 0.238530
Si Si3 0.938253 0.340791 0.891716
Si Si4 0.606201 0.882091 0.389113
Si Si5 0.786634 0.660635 0.757742
Si Si6 0.065961 0.750000 0.346176
O O1 0.750000 0.250000 0.500000
O O2 0.811270 0.293132 0.193063
O O3 0.873766 0.250000 0.497972
O O4 0.437844 0.500000 0.500000
O O5 0.500000 0.538202 0.160106
O O6 0.409562 0.571292 0.315539
O O7 0.413243 0.500000 0.000000
O O8 0.901490 0.368358 0.693273
O O9 0.931385 0.292337 0.823629
O O10 0.000000 0.352962 0.821920
O O11 0.928597 0.351359 0.198013
O O12 0.667177 0.872267 0.301923
O O13 0.750000 0.664218 0.500000
O O14 0.750000 0.648053 0.000000
O O15 0.000000 0.750000 0.457739
#
# Coordination Sequence:
#
# PCOD9504093 Si02
#       6
#     8  16  16  16  16   8
#     4  10  21  40  64  88 125 174 226 267 319 368
#     4  10  21  38  62  93 124 155 198 253 320 401
#     4  11  23  38  59  90 128 170 212 250 314 388
#     4  12  23  40  66  88 126 165 211 259 327 376
#     4  11  24  41  62  91 122 165 222 277 311 368
#     4  10  22  40  59  93 138 177 217 274 329 386
#
# _framework density 20.244211
#
# number of rings (size 3 to 8) (size 9 to 14) (size 15 to 20)
#    0.000    1.200    2.000    4.500    2.800    3.200 
#    0.000    3.000    0.000    3.600    0.000    0.000 
#    0.000    0.000    0.000    0.000    0.000    0.000 
#
# Total GULP energy -223169.835748 kJ/mol
# GULP energy per Si atom -5579.245894 kJ/mol
# Density = 2.019813 g / cm^3
# Si number density = 20.244211 Si / 1000 Ang^3
#
#
#
# Elastic Constant Matrix: (Units=GPa)
#
#
# Indices 1 2 3 4 5 6 
#
# 1 96.5830 22.1544 -1.2580 0.0000 0.0000 0.0000
# 2 22.1544 100.5700 -15.7872 0.0000 0.0000 0.0000
# 3 -1.2580 -15.7872 47.4166 0.0000 0.0000 0.0000
# 4 0.0000 0.0000 0.0000 17.0169 0.0000 0.0000
# 5 0.0000 0.0000 0.0000 0.0000 24.5883 0.0000
# 6 0.0000 0.0000 0.0000 0.0000 0.0000 47.1146
#
#
#
# Elastic Compliance Matrix: (Units=1/GPa)
#
#
# Indices 1 2 3 4 5 6 
#
# 1 0.010918 -0.002490 -0.000539 0.000000 0.000000 0.000000
# 2 -0.002490 0.011059 0.003616 0.000000 0.000000 0.000000
# 3 -0.000539 0.003616 0.022279 0.000000 0.000000 0.000000
# 4 0.000000 0.000000 0.000000 0.058765 0.000000 0.000000
# 5 0.000000 0.000000 0.000000 0.000000 0.040670 0.000000
# 6 0.000000 0.000000 0.000000 0.000000 0.000000 0.021225
#
#
# Mechanical properties :
#
#
# Convention : Reuss Voigt Hill
#
# Bulk Modulus (GPa) = 22.01145 28.30977 25.16061
# Shear Modulus (GPa) = 27.95080 33.70798 30.82939
#
# Velocity S-wave (km/s) = 3.71978 4.08495 3.90664
# Velocity P-wave (km/s) = 5.41716 6.02193 5.72753
#
# Compressibility (1/GPa) = 0.04543090
#
# Stress axis : x y z
#
# Youngs Moduli (GPa) = 91.59299 90.42048 44.88463
#
# Poissons Ratio (x) = 0.22512 0.02421
# Poissons Ratio (y) = 0.22804 -0.16231
# Poissons Ratio (z) = 0.04940 -0.32697
#
# Static dielectric constant tensor:
#      x y z
#    x 1.782450 0.000000 0.000000 
#    y 0.000000 1.705690 0.000000 
#    z 0.000000 0.000000 1.737850 
# 
# From -- ./inp_files/3583.got.cif
#   From: 2010.05.17/outbox.cif.g08.bks.cpg/sg67_2_cif.got.tgz:3583.got - 2010.06.03 18:28:57.
