data_PCOD9504434
_publ_section_title
;
Structure prediction by ZEFSAII (Michael W. Deem and Ramdas Pophale) SiO2 
 PCOD9504434
Probable space group: C M M A
;
_chemical_formula_sum "Si O2"
_cell_formula_units_Z 80
_cell_length_a 9.423902
_cell_length_b 24.635379
_cell_length_c 18.376392
_cell_angle_alpha 90.000000
_cell_angle_beta 90.000000
_cell_angle_gamma 90.000000
_cell_volume 4266.288846
_symmetry_space_group_name_H-M "C M M A"
_symmetry_group_IT_number 67
_symmetry_cell_setting 'orthorhombic'
loop_
_space_group_symop_operation_xyz
x,y,z
-x,1/2-y,z
x,-y,-z
-x,1/2+y,-z
-x,-y,-z
x,1/2+y,-z
-x,y,z
x,1/2-y,z
1/2+x,1/2+y,z
1/2-x,-y,z
1/2+x,1/2-y,-z
1/2-x,y,-z
1/2-x,1/2-y,-z
1/2+x,y,-z
1/2-x,1/2+y,z
1/2+x,-y,z
loop_
_atom_site_type_symbol
_atom_site_label
_atom_site_fract_x
_atom_site_fract_y
_atom_site_fract_z
Si Si1 0.750000 0.500000 0.314502
Si Si2 0.500000 0.492913 0.414039
Si Si3 0.000000 0.634914 0.390062
Si Si4 0.166910 0.904164 0.787765
Si Si5 0.500000 0.187115 0.546420
Si Si6 0.778988 0.814269 0.674035
Si Si7 0.175745 0.441152 0.923279
O O1 0.630979 0.517563 0.371770
O O2 0.748886 0.448757 0.260839
O O3 0.500000 0.500000 0.500000
O O4 0.500000 0.429832 0.391520
O O5 0.000000 0.651994 0.474531
O O6 0.130941 0.660409 0.348324
O O7 0.165113 0.848713 0.741944
O O8 0.259353 0.902304 0.861248
O O9 0.000000 0.920773 0.799507
O O10 0.500000 0.250000 0.522650
O O11 0.630056 0.177874 0.600584
O O12 0.775653 0.750000 0.688909
O O13 0.250000 0.500000 0.906917
O O14 0.000000 0.443759 0.925514
O O15 0.250000 0.425946 0.000000
#
# Coordination Sequence:
#
# PCOD9504434 Si02
#       7
#     8   8   8  16   8  16  16
#     4  12  25  42  57  86 122 168 214 258 321 380
#     4  12  28  40  58  84 123 168 219 264 321 387
#     4  12  24  38  62  86 118 161 212 276 332 386
#     4  12  24  40  66  91 127 168 210 263 316 381
#     4  10  22  40  58  82 114 157 210 266 321 379
#     4  11  24  41  62  89 120 162 215 271 327 381
#     4  11  23  40  66  99 137 171 208 247 303 376
#
# _framework density 18.751660999999999
#
# number of rings (size 3 to 8) (size 9 to 14) (size 15 to 20)
#    0.000    0.600    5.000    4.200    5.600    3.200 
#    0.000    0.000    0.000    0.600    0.000    0.000 
#    0.000    0.000    0.000    0.000    0.000    0.000 
#
# Total GULP energy -223046.199966 kJ/mol
# GULP energy per Si atom -5576.154999 kJ/mol
# Density = 1.870898 g / cm^3
# Si number density = 18.751661 Si / 1000 Ang^3
#
#
#
# Elastic Constant Matrix: (Units=GPa)
#
#
# Indices 1 2 3 4 5 6 
#
# 1 69.3046 -1.2656 5.1962 0.0000 0.0000 0.0000
# 2 -1.2656 54.4449 31.5849 0.0000 0.0000 0.0000
# 3 5.1962 31.5849 109.1920 0.0000 0.0000 0.0000
# 4 0.0000 0.0000 0.0000 6.9078 0.0000 0.0000
# 5 0.0000 0.0000 0.0000 0.0000 30.1420 0.0000
# 6 0.0000 0.0000 0.0000 0.0000 0.0000 34.5579
#
#
#
# Elastic Compliance Matrix: (Units=1/GPa)
#
#
# Indices 1 2 3 4 5 6 
#
# 1 0.014516 0.000887 -0.000947 0.000000 0.000000 0.000000
# 2 0.000887 0.022125 -0.006442 0.000000 0.000000 0.000000
# 3 -0.000947 -0.006442 0.011067 0.000000 0.000000 0.000000
# 4 0.000000 0.000000 0.000000 0.144764 0.000000 0.000000
# 5 0.000000 0.000000 0.000000 0.000000 0.033176 0.000000
# 6 0.000000 0.000000 0.000000 0.000000 0.000000 0.028937
#
#
# Mechanical properties :
#
#
# Convention : Reuss Voigt Hill
#
# Bulk Modulus (GPa) = 28.81585 33.77472 31.29528
# Shear Modulus (GPa) = 17.91100 27.48327 22.69713
#
# Velocity S-wave (km/s) = 3.09393 3.83253 3.48286
# Velocity P-wave (km/s) = 5.30695 6.13474 5.73580
#
# Compressibility (1/GPa) = 0.03470313
#
# Stress axis : x y z
#
# Youngs Moduli (GPa) = 68.88811 45.19770 90.36118
#
# Poissons Ratio (x) = -0.04009 0.08561
# Poissons Ratio (y) = -0.06111 0.58211
# Poissons Ratio (z) = 0.06526 0.29117
#
# Static dielectric constant tensor:
#      x y z
#    x 1.631250 0.000000 0.000000 
#    y 0.000000 1.641110 0.000000 
#    z 0.000000 0.000000 1.641040 
# 
# From -- ./inp_files/32223.got.cif
#   From: 2010.05.17/outbox.cif.g08.bks.cpg/sg67_17_cif.got.tgz:32223.got - 2010.06.03 18:28:57.
