data_PCOD9504220
_publ_section_title
;
Structure prediction by ZEFSAII (Michael W. Deem and Ramdas Pophale) SiO2 
 PCOD9504220
Probable space group: C M M A
;
_chemical_formula_sum "Si O2"
_cell_formula_units_Z 96
_cell_length_a 18.073126
_cell_length_b 23.457630
_cell_length_c 11.209056
_cell_angle_alpha 90.000000
_cell_angle_beta 90.000000
_cell_angle_gamma 90.000000
_cell_volume 4752.109585
_symmetry_space_group_name_H-M "C M M A"
_symmetry_group_IT_number 67
_symmetry_cell_setting 'orthorhombic'
loop_
_space_group_symop_operation_xyz
x,y,z
-x,1/2-y,z
x,-y,-z
-x,1/2+y,-z
-x,-y,-z
x,1/2+y,-z
-x,y,z
x,1/2-y,z
1/2+x,1/2+y,z
1/2-x,-y,z
1/2+x,1/2-y,-z
1/2-x,y,-z
1/2-x,1/2-y,-z
1/2+x,y,-z
1/2-x,1/2+y,z
1/2+x,-y,z
loop_
_atom_site_type_symbol
_atom_site_label
_atom_site_fract_x
_atom_site_fract_y
_atom_site_fract_z
Si Si1 0.914612 0.846069 0.313962
Si Si2 0.803276 0.842472 0.826168
Si Si3 0.276076 0.565645 0.363995
Si Si4 0.851466 0.184893 0.928827
Si Si5 0.165001 0.750000 0.455377
Si Si6 0.089808 0.750000 0.705263
Si Si7 0.078860 0.432665 0.486636
O O1 0.901304 0.843161 0.173467
O O2 0.856188 0.804020 0.375763
O O3 0.902885 0.905205 0.384863
O O4 0.000000 0.828306 0.335847
O O5 0.766038 0.892887 0.747725
O O6 0.730059 0.809962 0.870981
O O7 0.862672 0.804006 0.755163
O O8 0.844109 0.853437 0.952694
O O9 0.250000 0.500000 0.345591
O O10 0.250000 0.580893 0.500000
O O11 0.363096 0.574634 0.383575
O O12 0.876422 0.250000 0.957853
O O13 0.250000 0.750000 0.500000
O O14 0.108129 0.750000 0.565099
O O15 0.000000 0.750000 0.727355
O O16 0.075008 0.500000 0.500000
O O17 0.000000 0.407952 0.451252
#
# Coordination Sequence:
#
# PCOD9504220 Si02
#       7
#    16  16  16  16   8   8  16
#     4  11  23  39  64  95 128 172 225 269 319 393
#     4  11  23  41  62  91 132 171 217 269 328 401
#     4  11  22  40  65  98 126 161 218 274 331 399
#     4  11  21  41  65  87 126 177 220 263 322 386
#     4  12  24  39  58  93 134 171 206 260 327 391
#     4  12  24  38  60  96 136 170 206 263 339 409
#     4  10  21  40  63  90 127 161 198 263 333 385
#
# _framework density 20.201554000000002
#
# number of rings (size 3 to 8) (size 9 to 14) (size 15 to 20)
#    0.000    1.000    4.167    4.250    0.000    4.000 
#    0.000    1.667    0.000    0.000    0.000    3.500 
#    0.000    0.000    0.000    0.000    0.000    0.000 
#
# Total GULP energy -267373.701834 kJ/mol
# GULP energy per Si atom -5570.285455 kJ/mol
# Density = 2.015557 g / cm^3
# Si number density = 20.201554 Si / 1000 Ang^3
#
#
#
# Elastic Constant Matrix: (Units=GPa)
#
#
# Indices 1 2 3 4 5 6 
#
# 1 75.5112 25.6366 25.8776 0.0000 0.0000 0.0000
# 2 25.6366 106.1250 72.9830 0.0000 0.0000 0.0000
# 3 25.8776 72.9830 131.1124 0.0000 0.0000 0.0000
# 4 0.0000 0.0000 0.0000 17.8148 0.0000 0.0000
# 5 0.0000 0.0000 0.0000 0.0000 -14.3390 0.0000
# 6 0.0000 0.0000 0.0000 0.0000 0.0000 22.6669
#
#
#
# Elastic Compliance Matrix: (Units=1/GPa)
#
#
# Indices 1 2 3 4 5 6 
#
# 1 0.014603 -0.002504 -0.001488 0.000000 0.000000 0.000000
# 2 -0.002504 0.015697 -0.008243 0.000000 0.000000 0.000000
# 3 -0.001488 -0.008243 0.012509 0.000000 0.000000 0.000000
# 4 0.000000 0.000000 0.000000 0.056133 0.000000 0.000000
# 5 0.000000 0.000000 0.000000 0.000000 -0.069740 0.000000
# 6 0.000000 0.000000 0.000000 0.000000 0.000000 0.044117
#
#
# Mechanical properties :
#
#
# Convention : Reuss Voigt Hill
#
# Bulk Modulus (GPa) = 54.53191 62.41591 58.47391
# Shear Modulus (GPa) = 48.12125 17.77862 32.94993
#
# Velocity S-wave (km/s) = 4.88593 2.96980 4.04302
# Velocity P-wave (km/s) = 7.67348 6.53631 7.12761
#
# Compressibility (1/GPa) = 0.01833789
#
# Stress axis : x y z
#
# Youngs Moduli (GPa) = 68.47763 63.70755 79.94026
#
# Poissons Ratio (x) = 0.15954 0.11898
# Poissons Ratio (y) = 0.17148 0.65897
# Poissons Ratio (z) = 0.10192 0.52516
#
# Static dielectric constant tensor:
#      x y z
#    x 1.865630 0.000000 0.000000 
#    y 0.000000 1.881060 0.000000 
#    z 0.000000 0.000000 1.762700 
# 
# From -- ./inp_files/19688.got.cif
#   From: 2010.05.17/outbox.cif.g08.bks.cpg/sg67_10_cif.got.tgz:19688.got - 2010.06.03 18:28:57.
