data_PCOD9504924
_publ_section_title
;
Structure prediction by ZEFSAII (Michael W. Deem and Ramdas Pophale) SiO2 
 PCOD9504924
Probable space group: C M M A
;
_chemical_formula_sum "Si O2"
_cell_formula_units_Z 56
_cell_length_a 15.310976
_cell_length_b 7.805694
_cell_length_c 23.824308
_cell_angle_alpha 90.000000
_cell_angle_beta 90.000000
_cell_angle_gamma 90.000000
_cell_volume 2847.309602
_symmetry_space_group_name_H-M "C M M A"
_symmetry_group_IT_number 67
_symmetry_cell_setting 'orthorhombic'
loop_
_space_group_symop_operation_xyz
x,y,z
-x,1/2-y,z
x,-y,-z
-x,1/2+y,-z
-x,-y,-z
x,1/2+y,-z
-x,y,z
x,1/2-y,z
1/2+x,1/2+y,z
1/2-x,-y,z
1/2+x,1/2-y,-z
1/2-x,y,-z
1/2-x,1/2-y,-z
1/2+x,y,-z
1/2-x,1/2+y,z
1/2+x,-y,z
loop_
_atom_site_type_symbol
_atom_site_label
_atom_site_fract_x
_atom_site_fract_y
_atom_site_fract_z
Si Si1 0.606764 0.943496 0.437384
Si Si2 0.107008 0.750000 0.357168
Si Si3 0.500000 0.954544 0.934786
Si Si4 0.394920 0.250000 0.228522
Si Si5 0.655372 0.552705 0.145488
O O1 0.500000 0.943424 0.437292
O O2 0.635770 0.750000 0.425861
O O3 0.633199 0.000000 0.500000
O O4 0.634920 0.082380 0.391756
O O5 0.135738 0.750000 0.292779
O O6 0.000000 0.750000 0.356927
O O7 0.500000 0.750000 0.927754
O O8 0.416359 0.027874 0.902479
O O9 0.500000 0.000000 0.000000
O O10 0.500000 0.250000 0.227866
O O11 0.364835 0.419009 0.195237
O O12 0.655325 0.750000 0.164441
O O13 0.750000 0.500000 0.122969
#
# Coordination Sequence:
#
# PCOD9504924 Si02
#       5
#    16   8   8   8  16
#     4   9  14  22  38  62  99 145 188 237 300 371
#     4   9  18  28  44  72 105 154 197 240 312 373
#     4  12  24  44  68 103 137 168 211 260 312 374
#     4  11  22  40  60  86 130 163 210 272 316 382
#     4  12  23  42  67  93 126 174 215 259 320 372
#
# _framework density 19.66769
#
# number of rings (size 3 to 8) (size 9 to 14) (size 15 to 20)
#    0.000    1.429    5.714    1.286    0.000    1.714 
#    0.000    5.714    0.000    0.000    0.000    0.000 
#    0.000    3.429    0.000    0.000    0.000    0.000 
#
# Total GULP energy -156492.052651 kJ/mol
# GULP energy per Si atom -5589.001880 kJ/mol
# Density = 1.962293 g / cm^3
# Si number density = 19.667690 Si / 1000 Ang^3
#
#
#
# Elastic Constant Matrix: (Units=GPa)
#
#
# Indices 1 2 3 4 5 6 
#
# 1 88.7439 34.1177 46.1602 0.0000 0.0000 0.0000
# 2 34.1177 216.6887 91.3189 0.0000 0.0000 0.0000
# 3 46.1602 91.3189 177.6629 0.0000 0.0000 0.0000
# 4 0.0000 0.0000 0.0000 32.8038 0.0000 0.0000
# 5 0.0000 0.0000 0.0000 0.0000 -13.5655 0.0000
# 6 0.0000 0.0000 0.0000 0.0000 0.0000 20.1598
#
#
#
# Elastic Compliance Matrix: (Units=1/GPa)
#
#
# Indices 1 2 3 4 5 6 
#
# 1 0.013138 -0.000804 -0.003000 0.000000 0.000000 0.000000
# 2 -0.000804 0.005940 -0.002844 0.000000 0.000000 0.000000
# 3 -0.003000 -0.002844 0.007870 0.000000 0.000000 0.000000
# 4 0.000000 0.000000 0.000000 0.030484 0.000000 0.000000
# 5 0.000000 0.000000 0.000000 0.000000 -0.073717 0.000000
# 6 0.000000 0.000000 0.000000 0.000000 0.000000 0.049604
#
#
# Mechanical properties :
#
#
# Convention : Reuss Voigt Hill
#
# Bulk Modulus (GPa) = 73.25463 91.80991 82.53227
# Shear Modulus (GPa) = 97.71804 28.64620 63.18212
#
# Velocity S-wave (km/s) = 7.05637 3.82057 5.67403
# Velocity P-wave (km/s) = 10.18415 8.13906 9.21849
#
# Compressibility (1/GPa) = 0.01365101
#
# Stress axis : x y z
#
# Youngs Moduli (GPa) = 76.11444 168.34384 127.06288
#
# Poissons Ratio (x) = 0.13539 0.38121
# Poissons Ratio (y) = 0.06121 0.36141
# Poissons Ratio (z) = 0.22835 0.47882
#
# Static dielectric constant tensor:
#      x y z
#    x 1.722030 0.000000 0.000000 
#    y 0.000000 1.678460 0.000000 
#    z 0.000000 0.000000 1.647450 
# 
# From -- ./inp_files/38223.got.cif
#   From: 2010.05.17/outbox.cif.g08.bks.cpg/sg67_20_cif.got.tgz:38223.got - 2010.06.03 18:28:57.
