data_PCOD9504730
_publ_section_title
;
Structure prediction by ZEFSAII (Michael W. Deem and Ramdas Pophale) SiO2 
 PCOD9504730
Probable space group: C M M A
;
_chemical_formula_sum "Si O2"
_cell_formula_units_Z 96
_cell_length_a 22.872808
_cell_length_b 26.536733
_cell_length_c 8.298639
_cell_angle_alpha 90.000000
_cell_angle_beta 90.000000
_cell_angle_gamma 90.000000
_cell_volume 5037.021585
_symmetry_space_group_name_H-M "C M M A"
_symmetry_group_IT_number 67
_symmetry_cell_setting 'orthorhombic'
loop_
_space_group_symop_operation_xyz
x,y,z
-x,1/2-y,z
x,-y,-z
-x,1/2+y,-z
-x,-y,-z
x,1/2+y,-z
-x,y,z
x,1/2-y,z
1/2+x,1/2+y,z
1/2-x,-y,z
1/2+x,1/2-y,-z
1/2-x,y,-z
1/2-x,1/2-y,-z
1/2+x,y,-z
1/2-x,1/2+y,z
1/2+x,-y,z
loop_
_atom_site_type_symbol
_atom_site_label
_atom_site_fract_x
_atom_site_fract_y
_atom_site_fract_z
Si Si1 0.807275 0.596363 0.911016
Si Si2 0.725744 0.807815 0.242532
Si Si3 0.566619 0.099581 0.429046
Si Si4 0.843190 0.033894 0.363588
Si Si5 0.156255 0.808807 0.418834
Si Si6 0.097148 0.040939 0.883111
O O1 0.801902 0.655908 0.889292
O O2 0.806501 0.575481 0.728796
O O3 0.750000 0.576677 0.000000
O O4 0.864151 0.577852 0.005900
O O5 0.727144 0.750000 0.191340
O O6 0.791726 0.822995 0.294280
O O7 0.686904 0.810308 0.405430
O O8 0.500000 0.107574 0.483931
O O9 0.601969 0.062164 0.550268
O O10 0.604111 0.150920 0.415320
O O11 0.565067 0.073097 0.253195
O O12 0.814692 0.000000 0.500000
O O13 0.861594 0.995111 0.224375
O O14 0.139601 0.750000 0.390039
O O15 0.066239 0.000000 0.000000
#
# Coordination Sequence:
#
# PCOD9504730 Si02
#       6
#    16  16  16  16  16  16
#     4  11  20  35  56  83 121 151 187 229 291 351
#     4   9  18  34  60  86 114 148 182 229 285 345
#     4  11  21  37  61  85 110 150 199 244 286 334
#     4   9  20  38  55  77 110 151 199 238 276 331
#     4   9  18  35  58  90 117 140 186 241 289 334
#     4   9  21  37  53  80 120 150 188 237 285 338
#
# _framework density 19.058882000000001
#
# number of rings (size 3 to 8) (size 9 to 14) (size 15 to 20)
#    0.000    2.333    1.667    2.000    0.000    7.000 
#    0.000    7.500    0.000    0.000    0.000    0.000 
#    0.000    0.000    0.000    0.000    0.000    0.000 
#
# Total GULP energy -267562.223736 kJ/mol
# GULP energy per Si atom -5574.212994 kJ/mol
# Density = 1.901550 g / cm^3
# Si number density = 19.058882 Si / 1000 Ang^3
#
#
#
# Elastic Constant Matrix: (Units=GPa)
#
#
# Indices 1 2 3 4 5 6 
#
# 1 96.4767 52.5391 24.8347 0.0000 0.0000 0.0000
# 2 52.5391 106.7213 31.1081 0.0000 0.0000 0.0000
# 3 24.8347 31.1081 86.8870 0.0000 0.0000 0.0000
# 4 0.0000 0.0000 0.0000 33.8378 0.0000 0.0000
# 5 0.0000 0.0000 0.0000 0.0000 13.5877 0.0000
# 6 0.0000 0.0000 0.0000 0.0000 0.0000 346.2601
#
#
#
# Elastic Compliance Matrix: (Units=1/GPa)
#
#
# Indices 1 2 3 4 5 6 
#
# 1 0.014399 -0.006575 -0.001762 0.000000 0.000000 0.000000
# 2 -0.006575 0.013465 -0.002941 0.000000 0.000000 0.000000
# 3 -0.001762 -0.002941 0.013066 0.000000 0.000000 0.000000
# 4 0.000000 0.000000 0.000000 0.029553 0.000000 0.000000
# 5 0.000000 0.000000 0.000000 0.000000 0.073596 0.000000
# 6 0.000000 0.000000 0.000000 0.000000 0.000000 0.002888
#
#
# Mechanical properties :
#
#
# Convention : Reuss Voigt Hill
#
# Bulk Modulus (GPa) = 54.42674 56.33876 55.38275
# Shear Modulus (GPa) = 28.46608 90.84400 59.65504
#
# Velocity S-wave (km/s) = 3.86889 6.91147 5.60074
# Velocity P-wave (km/s) = 6.96971 9.66001 8.42296
#
# Compressibility (1/GPa) = 0.01837332
#
# Stress axis : x y z
#
# Youngs Moduli (GPa) = 69.44699 74.26857 76.53578
#
# Poissons Ratio (x) = 0.48835 0.13482
# Poissons Ratio (y) = 0.45664 0.22512
# Poissons Ratio (z) = 0.12234 0.21845
#
# Static dielectric constant tensor:
#      x y z
#    x 1.638710 0.000000 0.000000 
#    y 0.000000 1.695810 0.000000 
#    z 0.000000 0.000000 1.712460 
# 
# From -- ./inp_files/12616.got.cif
#   From: 2010.05.17/outbox.cif.g08.bks.cpg/sg67_7_cif.got.tgz:12616.got - 2010.06.03 18:28:57.
