data_PCOD9504735
_publ_section_title
;
Structure prediction by ZEFSAII (Michael W. Deem and Ramdas Pophale) SiO2 
 PCOD9504735
Probable space group: C M M A
;
_chemical_formula_sum "Si O2"
_cell_formula_units_Z 104
_cell_length_a 8.402558
_cell_length_b 30.912822
_cell_length_c 20.890214
_cell_angle_alpha 90.000000
_cell_angle_beta 90.000000
_cell_angle_gamma 90.000000
_cell_volume 5426.165816
_symmetry_space_group_name_H-M "C M M A"
_symmetry_group_IT_number 67
_symmetry_cell_setting 'orthorhombic'
loop_
_space_group_symop_operation_xyz
x,y,z
-x,1/2-y,z
x,-y,-z
-x,1/2+y,-z
-x,-y,-z
x,1/2+y,-z
-x,y,z
x,1/2-y,z
1/2+x,1/2+y,z
1/2-x,-y,z
1/2+x,1/2-y,-z
1/2-x,y,-z
1/2-x,1/2-y,-z
1/2+x,y,-z
1/2-x,1/2+y,z
1/2+x,-y,z
loop_
_atom_site_type_symbol
_atom_site_label
_atom_site_fract_x
_atom_site_fract_y
_atom_site_fract_z
Si Si1 0.191387 0.250000 0.071173
Si Si2 0.311685 0.664526 0.863634
Si Si3 0.693396 0.699987 0.724529
Si Si4 0.690831 0.889905 0.682638
Si Si5 0.189442 0.048051 0.428389
Si Si6 0.191114 0.953771 0.792275
Si Si7 0.687795 0.921711 0.072345
O O1 0.271367 0.291824 0.100657
O O2 0.000000 0.250000 0.078377
O O3 0.250000 0.250000 0.000000
O O4 0.500000 0.654538 0.862897
O O5 0.261208 0.677762 0.791994
O O6 0.224289 0.626485 0.901694
O O7 0.500000 0.702852 0.723892
O O8 0.750796 0.750000 0.717749
O O9 0.741376 0.660717 0.677548
O O10 0.500000 0.890440 0.685329
O O11 0.749536 0.917572 0.622772
O O12 0.749683 0.915053 0.746655
O O13 0.250000 0.057574 0.500000
O O14 0.000000 0.047418 0.428429
O O15 0.250000 0.000000 0.411335
O O16 0.250114 0.948843 0.866121
O O17 0.000000 0.952644 0.792367
O O18 0.250000 0.000000 0.767073
O O19 0.500000 0.928620 0.068685
O O20 0.750000 0.928750 0.000000
#
# Coordination Sequence:
#
# PCOD9504735 Si02
#       7
#     8  16  16  16  16  16  16
#     4  12  24  36  50  74 104 140 181 236 299 364
#     4  11  20  36  58  79 105 141 186 239 297 360
#     4   9  18  34  59  88 115 149 194 240 290 347
#     4  11  21  37  63  92 124 161 197 241 295 348
#     4  11  22  39  63  95 133 168 204 243 286 344
#     4  11  24  40  59  84 114 149 196 247 298 358
#     4  11  24  40  57  78 107 144 190 243 302 363
#
# _framework density 19.166388999999999
#
# number of rings (size 3 to 8) (size 9 to 14) (size 15 to 20)
#    0.000    1.231    2.308    5.308    0.000    2.154 
#    0.000    1.538    0.000    0.462    0.000    0.000 
#    0.000    0.000    0.000    0.000    0.000    0.000 
#
# Total GULP energy -290104.295994 kJ/mol
# GULP energy per Si atom -5578.928769 kJ/mol
# Density = 1.912277 g / cm^3
# Si number density = 19.166389 Si / 1000 Ang^3
#
#
#
# Elastic Constant Matrix: (Units=GPa)
#
#
# Indices 1 2 3 4 5 6 
#
# 1 49.8910 14.0468 23.6484 0.0000 0.0000 0.0000
# 2 14.0468 136.1372 62.9420 0.0000 0.0000 0.0000
# 3 23.6484 62.9420 103.7727 0.0000 0.0000 0.0000
# 4 0.0000 0.0000 0.0000 33.3457 0.0000 0.0000
# 5 0.0000 0.0000 0.0000 0.0000 9.6195 0.0000
# 6 0.0000 0.0000 0.0000 0.0000 0.0000 13.4239
#
#
#
# Elastic Compliance Matrix: (Units=1/GPa)
#
#
# Indices 1 2 3 4 5 6 
#
# 1 0.022471 0.000068 -0.005162 0.000000 0.000000 0.000000
# 2 0.000068 0.010208 -0.006207 0.000000 0.000000 0.000000
# 3 -0.005162 -0.006207 0.014578 0.000000 0.000000 0.000000
# 4 0.000000 0.000000 0.000000 0.029989 0.000000 0.000000
# 5 0.000000 0.000000 0.000000 0.000000 0.103955 0.000000
# 6 0.000000 0.000000 0.000000 0.000000 0.000000 0.074494
#
#
# Mechanical properties :
#
#
# Convention : Reuss Voigt Hill
#
# Bulk Modulus (GPa) = 40.56013 54.56393 47.56203
# Shear Modulus (GPa) = 17.45101 23.88876 20.66989
#
# Velocity S-wave (km/s) = 3.02072 3.53425 3.28753
# Velocity P-wave (km/s) = 5.77706 6.72197 6.26735
#
# Compressibility (1/GPa) = 0.02465476
#
# Stress axis : x y z
#
# Youngs Moduli (GPa) = 44.50095 97.95865 68.59748
#
# Poissons Ratio (x) = -0.00667 0.35412
# Poissons Ratio (y) = -0.00303 0.42580
# Poissons Ratio (z) = 0.22972 0.60806
#
# Static dielectric constant tensor:
#      x y z
#    x 1.662020 0.000000 0.000000 
#    y 0.000000 1.660880 0.000000 
#    z 0.000000 0.000000 1.678750 
# 
# From -- ./inp_files/37504.got.cif
#   From: 2010.05.17/outbox.cif.g08.bks.cpg/sg67_19_cif.got.tgz:37504.got - 2010.06.03 18:28:57.
