data_PCOD9504339
_publ_section_title
;
Structure prediction by ZEFSAII (Michael W. Deem and Ramdas Pophale) SiO2 
 PCOD9504339
Probable space group: C M M A
;
_chemical_formula_sum "Si O2"
_cell_formula_units_Z 72
_cell_length_a 28.348451
_cell_length_b 7.461231
_cell_length_c 14.036827
_cell_angle_alpha 90.000000
_cell_angle_beta 90.000000
_cell_angle_gamma 90.000000
_cell_volume 2968.990218
_symmetry_space_group_name_H-M "C M M A"
_symmetry_group_IT_number 67
_symmetry_cell_setting 'orthorhombic'
loop_
_space_group_symop_operation_xyz
x,y,z
-x,1/2-y,z
x,-y,-z
-x,1/2+y,-z
-x,-y,-z
x,1/2+y,-z
-x,y,z
x,1/2-y,z
1/2+x,1/2+y,z
1/2-x,-y,z
1/2+x,1/2-y,-z
1/2-x,y,-z
1/2-x,1/2-y,-z
1/2+x,y,-z
1/2-x,1/2+y,z
1/2+x,-y,z
loop_
_atom_site_type_symbol
_atom_site_label
_atom_site_fract_x
_atom_site_fract_y
_atom_site_fract_z
Si Si1 0.449246 0.464644 0.114010
Si Si2 0.000000 0.534972 0.385442
Si Si3 0.198373 0.035948 0.704303
Si Si4 0.345225 0.964444 0.889330
Si Si5 0.397885 0.964648 0.612406
O O1 0.500000 0.532745 0.150546
O O2 0.449381 0.250000 0.130088
O O3 0.397403 0.532085 0.142017
O O4 0.449750 0.500000 0.000000
O O5 0.000000 0.500000 0.500000
O O6 0.948897 0.468170 0.349967
O O7 0.000000 0.750000 0.371292
O O8 0.194638 0.250000 0.703184
O O9 0.193041 0.971176 0.813595
O O10 0.151560 0.965476 0.652467
O O11 0.250000 0.000000 0.663972
O O12 0.347656 0.750000 0.882110
O O13 0.336332 0.000000 0.000000
O O14 0.398500 0.750000 0.628538
O O15 0.397689 0.000000 0.500000
#
# Coordination Sequence:
#
# PCOD9504339 Si02
#       5
#    16   8  16  16  16
#     4   8  13  23  41  65  91 120 153 193 243 296
#     4   8  14  28  52  80 107 134 164 204 253 306
#     4  10  22  38  53  74 105 138 177 220 260 307
#     4   9  18  33  51  72  99 132 172 216 259 305
#     4   9  18  34  56  82 109 137 170 209 257 312
#
# _framework density 24.250671000000001
#
# number of rings (size 3 to 8) (size 9 to 14) (size 15 to 20)
#    0.000    3.111    0.000    0.000    0.000    2.667 
#    2.000    4.444    0.000    0.000    0.000    0.000 
#    0.000    0.000    0.000    0.000    0.000    0.000 
#
# Total GULP energy -200791.937283 kJ/mol
# GULP energy per Si atom -5577.553813 kJ/mol
# Density = 2.419547 g / cm^3
# Si number density = 24.250671 Si / 1000 Ang^3
#
#
#
# Elastic Constant Matrix: (Units=GPa)
#
#
# Indices 1 2 3 4 5 6 
#
# 1 232.7673 8.0029 64.3570 0.0000 0.0000 0.0000
# 2 8.0029 77.0915 -3.7010 0.0000 0.0000 0.0000
# 3 64.3570 -3.7010 64.4400 0.0000 0.0000 0.0000
# 4 0.0000 0.0000 0.0000 2.6115 0.0000 0.0000
# 5 0.0000 0.0000 0.0000 0.0000 31.3617 0.0000
# 6 0.0000 0.0000 0.0000 0.0000 0.0000 14.4399
#
#
#
# Elastic Compliance Matrix: (Units=1/GPa)
#
#
# Indices 1 2 3 4 5 6 
#
# 1 0.005998 -0.000913 -0.006043 0.000000 0.000000 0.000000
# 2 -0.000913 0.013146 0.001667 0.000000 0.000000 0.000000
# 3 -0.006043 0.001667 0.021649 0.000000 0.000000 0.000000
# 4 0.000000 0.000000 0.000000 0.382922 0.000000 0.000000
# 5 0.000000 0.000000 0.000000 0.000000 0.031886 0.000000
# 6 0.000000 0.000000 0.000000 0.000000 0.000000 0.069253
#
#
# Mechanical properties :
#
#
# Convention : Reuss Voigt Hill
#
# Bulk Modulus (GPa) = 33.09543 56.84629 44.97086
# Shear Modulus (GPa) = 9.16582 30.05859 19.61221
#
# Velocity S-wave (km/s) = 1.94623 3.52447 2.84690
# Velocity P-wave (km/s) = 4.32750 6.32886 5.42134
#
# Compressibility (1/GPa) = 0.03021566
#
# Stress axis : x y z
#
# Youngs Moduli (GPa) = 166.71273 76.06661 46.19083
#
# Poissons Ratio (x) = 0.06943 0.27913
# Poissons Ratio (y) = 0.15218 -0.07698
# Poissons Ratio (z) = 1.00745 -0.12678
#
# Static dielectric constant tensor:
#      x y z
#    x 1.980510 0.000000 0.000000 
#    y 0.000000 -0.786850 0.000000 
#    z 0.000000 0.000000 1.962660 
# 
# From -- ./inp_files/25081.got.cif
#   From: 2010.05.17/outbox.cif.g08.bks.cpg/sg67_13_cif.got.tgz:25081.got - 2010.06.03 18:28:57.
