data_PCOD9504447
_publ_section_title
;
Structure prediction by ZEFSAII (Michael W. Deem and Ramdas Pophale) SiO2 
 PCOD9504447
Probable space group: C M M A
;
_chemical_formula_sum "Si O2"
_cell_formula_units_Z 88
_cell_length_a 27.496579
_cell_length_b 14.677707
_cell_length_c 11.986260
_cell_angle_alpha 90.000000
_cell_angle_beta 90.000000
_cell_angle_gamma 90.000000
_cell_volume 4837.495479
_symmetry_space_group_name_H-M "C M M A"
_symmetry_group_IT_number 67
_symmetry_cell_setting 'orthorhombic'
loop_
_space_group_symop_operation_xyz
x,y,z
-x,1/2-y,z
x,-y,-z
-x,1/2+y,-z
-x,-y,-z
x,1/2+y,-z
-x,y,z
x,1/2-y,z
1/2+x,1/2+y,z
1/2-x,-y,z
1/2+x,1/2-y,-z
1/2-x,y,-z
1/2-x,1/2-y,-z
1/2+x,y,-z
1/2-x,1/2+y,z
1/2+x,-y,z
loop_
_atom_site_type_symbol
_atom_site_label
_atom_site_fract_x
_atom_site_fract_y
_atom_site_fract_z
Si Si1 0.056504 0.605914 0.469654
Si Si2 0.604041 0.750000 0.373699
Si Si3 0.555690 0.601473 0.954875
Si Si4 0.376654 0.641828 0.745125
Si Si5 0.803801 0.954043 0.382694
Si Si6 0.805304 0.750000 0.472406
Si Si7 0.055934 0.750000 0.855704
O O1 0.060538 0.500000 0.500000
O O2 0.077979 0.663136 0.571680
O O3 0.087066 0.632369 0.360599
O O4 0.000000 0.628016 0.452715
O O5 0.658538 0.750000 0.422490
O O6 0.594465 0.750000 0.243370
O O7 0.500000 0.614492 0.913196
O O8 0.593180 0.624559 0.857605
O O9 0.560901 0.500000 0.000000
O O10 0.561694 0.665067 0.062336
O O11 0.360695 0.750000 0.749832
O O12 0.338751 0.556149 0.724909
O O13 0.808208 0.846638 0.411069
O O14 0.820910 0.000000 0.500000
O O15 0.750000 0.000000 0.363744
O O16 0.750000 0.750000 0.500000
O O17 0.000000 0.750000 0.810704
#
# Coordination Sequence:
#
# PCOD9504447 Si02
#       7
#    16   8  16  16  16   8   8
#     4  11  23  35  55  89 129 165 196 245 317 386
#     4  12  24  39  60  87 132 162 206 258 311 377
#     4  10  23  41  62  90 127 173 221 260 303 368
#     4  12  22  39  64  91 125 164 215 264 310 382
#     4  11  22  37  62  91 129 162 199 263 323 387
#     4  12  22  39  57  92 122 161 214 251 311 385
#     4  10  22  40  61  91 128 173 215 258 313 367
#
# _framework density 18.191230999999998
#
# number of rings (size 3 to 8) (size 9 to 14) (size 15 to 20)
#    0.000    0.909    6.364    1.909    2.545    0.727 
#    0.000    0.000    0.000    0.545    0.000    2.545 
#    0.000    0.000    0.000    0.000    0.000    0.000 
#
# Total GULP energy -245040.903463 kJ/mol
# GULP energy per Si atom -5569.111442 kJ/mol
# Density = 1.814983 g / cm^3
# Si number density = 18.191231 Si / 1000 Ang^3
#
#
#
# Elastic Constant Matrix: (Units=GPa)
#
#
# Indices 1 2 3 4 5 6 
#
# 1 123.7520 35.6062 47.1418 0.0000 0.0000 0.0000
# 2 35.6062 117.6566 34.4947 0.0000 0.0000 0.0000
# 3 47.1418 34.4947 77.5822 0.0000 0.0000 0.0000
# 4 0.0000 0.0000 0.0000 0.6040 0.0000 0.0000
# 5 0.0000 0.0000 0.0000 0.0000 6.7397 0.0000
# 6 0.0000 0.0000 0.0000 0.0000 0.0000 31.6145
#
#
#
# Elastic Compliance Matrix: (Units=1/GPa)
#
#
# Indices 1 2 3 4 5 6 
#
# 1 0.010751 -0.001539 -0.005849 0.000000 0.000000 0.000000
# 2 -0.001539 0.009994 -0.003508 0.000000 0.000000 0.000000
# 3 -0.005849 -0.003508 0.018003 0.000000 0.000000 0.000000
# 4 0.000000 0.000000 0.000000 1.655513 0.000000 0.000000
# 5 0.000000 0.000000 0.000000 0.000000 0.148375 0.000000
# 6 0.000000 0.000000 0.000000 0.000000 0.000000 0.031631
#
#
# Mechanical properties :
#
#
# Convention : Reuss Voigt Hill
#
# Bulk Modulus (GPa) = 58.97443 61.49736 60.23589
# Shear Modulus (GPa) = 2.62921 21.24152 11.93536
#
# Velocity S-wave (km/s) = 1.20352 3.42084 2.56423
# Velocity P-wave (km/s) = 5.86692 7.03436 6.47700
#
# Compressibility (1/GPa) = 0.01695650
#
# Stress axis : x y z
#
# Youngs Moduli (GPa) = 93.01055 100.06414 55.54532
#
# Poissons Ratio (x) = 0.15399 0.32487
# Poissons Ratio (y) = 0.14314 0.19487
# Poissons Ratio (z) = 0.54399 0.35105
#
# Static dielectric constant tensor:
#      x y z
#    x 1.694080 0.000000 0.000000 
#    y 0.000000 1.622720 0.000000 
#    z 0.000000 0.000000 1.642710 
# 
# From -- ./inp_files/22866.got.cif
#   From: 2010.05.17/outbox.cif.g08.bks.cpg/sg67_12_cif.got.tgz:22866.got - 2010.06.03 18:28:57.
