data_PCOD9504609
_publ_section_title
;
Structure prediction by ZEFSAII (Michael W. Deem and Ramdas Pophale) SiO2 
 PCOD9504609
Probable space group: C M M A
;
_chemical_formula_sum "Si O2"
_cell_formula_units_Z 68
_cell_length_a 27.658571
_cell_length_b 17.816168
_cell_length_c 6.833495
_cell_angle_alpha 90.000000
_cell_angle_beta 90.000000
_cell_angle_gamma 90.000000
_cell_volume 3367.339606
_symmetry_space_group_name_H-M "C M M A"
_symmetry_group_IT_number 67
_symmetry_cell_setting 'orthorhombic'
loop_
_space_group_symop_operation_xyz
x,y,z
-x,1/2-y,z
x,-y,-z
-x,1/2+y,-z
-x,-y,-z
x,1/2+y,-z
-x,y,z
x,1/2-y,z
1/2+x,1/2+y,z
1/2-x,-y,z
1/2+x,1/2-y,-z
1/2-x,y,-z
1/2-x,1/2-y,-z
1/2+x,y,-z
1/2-x,1/2+y,z
1/2+x,-y,z
loop_
_atom_site_type_symbol
_atom_site_label
_atom_site_fract_x
_atom_site_fract_y
_atom_site_fract_z
Si Si1 0.201910 0.250000 0.872267
Si Si2 0.118351 0.500000 0.500000
Si Si3 0.945341 0.750000 0.378814
Si Si4 0.794081 0.595365 0.342146
Si Si5 0.250000 0.000000 0.000000
Si Si6 0.398255 0.250000 0.969368
Si Si7 0.056904 0.378094 0.296688
O O1 0.200058 0.179315 0.729800
O O2 0.250000 0.250000 0.000000
O O3 0.159290 0.250000 0.032582
O O4 0.155830 0.437822 0.579327
O O5 0.084828 0.455198 0.345070
O O6 0.939829 0.823483 0.513479
O O7 0.000000 0.750000 0.299928
O O8 0.910473 0.750000 0.197322
O O9 0.750000 0.588108 0.500000
O O10 0.781053 0.550011 0.146267
O O11 0.419967 0.324877 0.869866
O O12 0.000000 0.391076 0.256891
#
# Coordination Sequence:
#
# PCOD9504609 Si02
#       7
#     8   8   8  16   4   8  16
#     4  12  28  43  70  99 136 178 236 288 333 425
#     4  12  24  42  68  96 138 180 228 284 352 414
#     4   9  18  41  67  93 129 171 223 279 336 400
#     4  12  26  47  70 100 142 188 227 289 351 418
#     4  12  22  46  72  98 142 178 230 276 356 404
#     4  11  23  42  69 101 130 182 227 289 349 406
#     4  10  23  42  68  98 137 178 228 287 346 416
#
# _framework density 20.193985000000001
#
# number of rings (size 3 to 8) (size 9 to 14) (size 15 to 20)
#    0.000    0.941    3.529    3.882    6.588    0.941 
#    0.000    0.000    0.000    5.647    0.000    0.000 
#    0.000    0.000    0.000    0.000    0.000    0.000 
#
# Total GULP energy -189979.036793 kJ/mol
# GULP energy per Si atom -5587.618729 kJ/mol
# Density = 2.014802 g / cm^3
# Si number density = 20.193985 Si / 1000 Ang^3
#
#
#
# Elastic Constant Matrix: (Units=GPa)
#
#
# Indices 1 2 3 4 5 6 
#
# 1 169.7907 52.8666 48.0804 0.0000 0.0000 0.0000
# 2 52.8666 134.9970 25.4363 0.0000 0.0000 0.0000
# 3 48.0804 25.4363 70.8671 0.0000 0.0000 0.0000
# 4 0.0000 0.0000 0.0000 19.7004 0.0000 0.0000
# 5 0.0000 0.0000 0.0000 0.0000 17.5937 0.0000
# 6 0.0000 0.0000 0.0000 0.0000 0.0000 35.0768
#
#
#
# Elastic Compliance Matrix: (Units=1/GPa)
#
#
# Indices 1 2 3 4 5 6 
#
# 1 0.007868 -0.002226 -0.004539 0.000000 0.000000 0.000000
# 2 -0.002226 0.008575 -0.001567 0.000000 0.000000 0.000000
# 3 -0.004539 -0.001567 0.017753 0.000000 0.000000 0.000000
# 4 0.000000 0.000000 0.000000 0.050760 0.000000 0.000000
# 5 0.000000 0.000000 0.000000 0.000000 0.056838 0.000000
# 6 0.000000 0.000000 0.000000 0.000000 0.000000 0.028509
#
#
# Mechanical properties :
#
#
# Convention : Reuss Voigt Hill
#
# Bulk Modulus (GPa) = 57.04298 69.82461 63.43380
# Shear Modulus (GPa) = 25.93195 31.09229 28.51212
#
# Velocity S-wave (km/s) = 3.58738 3.92813 3.76162
# Velocity P-wave (km/s) = 6.74299 7.43140 7.09555
#
# Compressibility (1/GPa) = 0.01753064
#
# Stress axis : x y z
#
# Youngs Moduli (GPa) = 127.09592 116.62315 56.32787
#
# Poissons Ratio (x) = 0.25960 0.25568
# Poissons Ratio (y) = 0.28291 0.08829
# Poissons Ratio (z) = 0.57691 0.18280
#
# Static dielectric constant tensor:
#      x y z
#    x 1.747930 0.000000 0.000000 
#    y 0.000000 1.708540 0.000000 
#    z 0.000000 0.000000 1.687780 
# 
# From -- ./inp_files/4095.got.cif
#   From: 2010.05.17/outbox.cif.g08.bks.cpg/sg67_3_cif.got.tgz:4095.got - 2010.06.03 18:28:57.
