data_PCOD9504527
_publ_section_title
;
Structure prediction by ZEFSAII (Michael W. Deem and Ramdas Pophale) SiO2 
 PCOD9504527
Probable space group: C M M A
;
_chemical_formula_sum "Si O2"
_cell_formula_units_Z 52
_cell_length_a 21.328394
_cell_length_b 7.739729
_cell_length_c 14.485569
_cell_angle_alpha 90.000000
_cell_angle_beta 90.000000
_cell_angle_gamma 90.000000
_cell_volume 2391.219637
_symmetry_space_group_name_H-M "C M M A"
_symmetry_group_IT_number 67
_symmetry_cell_setting 'orthorhombic'
loop_
_space_group_symop_operation_xyz
x,y,z
-x,1/2-y,z
x,-y,-z
-x,1/2+y,-z
-x,-y,-z
x,1/2+y,-z
-x,y,z
x,1/2-y,z
1/2+x,1/2+y,z
1/2-x,-y,z
1/2+x,1/2-y,-z
1/2-x,y,-z
1/2-x,1/2-y,-z
1/2+x,y,-z
1/2-x,1/2+y,z
1/2+x,-y,z
loop_
_atom_site_type_symbol
_atom_site_label
_atom_site_fract_x
_atom_site_fract_y
_atom_site_fract_z
Si Si1 0.600057 0.053434 0.895040
Si Si2 0.318004 0.947305 0.739372
Si Si3 0.500000 0.250000 0.150317
Si Si4 0.930795 0.456656 0.391843
O O1 0.573941 0.250000 0.894780
O O2 0.660128 0.051940 0.828812
O O3 0.554007 0.904883 0.856626
O O4 0.613552 0.000000 0.000000
O O5 0.314108 0.750000 0.767293
O O6 0.250000 0.000000 0.702911
O O7 0.372825 0.969512 0.664117
O O8 0.925654 0.500000 0.500000
O O9 0.930211 0.250000 0.380444
O O10 0.000000 0.521638 0.360577
#
# Coordination Sequence:
#
# PCOD9504527 Si02
#       4
#    16  16   4  16
#     4  12  25  43  67 102 138 180 224 281 337 403
#     4  12  26  46  67  97 133 179 229 277 336 405
#     4  12  24  44  66 104 138 174 232 274 350 390
#     4  10  22  42  68 101 134 172 216 275 340 400
#
# _framework density 21.746226
#
# number of rings (size 3 to 8) (size 9 to 14) (size 15 to 20)
#    0.000    0.615    3.077    4.615    2.154    3.077 
#    0.000    6.154    0.000    0.000    0.000    0.000 
#    0.000    0.000    0.000    0.000    0.000    0.000 
#
# Total GULP energy -144893.410404 kJ/mol
# GULP energy per Si atom -5572.823477 kJ/mol
# Density = 2.169673 g / cm^3
# Si number density = 21.746226 Si / 1000 Ang^3
#
#
#
# Elastic Constant Matrix: (Units=GPa)
#
#
# Indices 1 2 3 4 5 6 
#
# 1 169.6828 32.5379 62.5655 0.0000 0.0000 0.0000
# 2 32.5379 170.4862 8.4551 0.0000 0.0000 0.0000
# 3 62.5655 8.4551 70.5334 0.0000 0.0000 0.0000
# 4 0.0000 0.0000 0.0000 20.1037 0.0000 0.0000
# 5 0.0000 0.0000 0.0000 0.0000 80.1259 0.0000
# 6 0.0000 0.0000 0.0000 0.0000 0.0000 28.4261
#
#
#
# Elastic Compliance Matrix: (Units=1/GPa)
#
#
# Indices 1 2 3 4 5 6 
#
# 1 0.009051 -0.001337 -0.007868 0.000000 0.000000 0.000000
# 2 -0.001337 0.006098 0.000455 0.000000 0.000000 0.000000
# 3 -0.007868 0.000455 0.021102 0.000000 0.000000 0.000000
# 4 0.000000 0.000000 0.000000 0.049742 0.000000 0.000000
# 5 0.000000 0.000000 0.000000 0.000000 0.012480 0.000000
# 6 0.000000 0.000000 0.000000 0.000000 0.000000 0.035179
#
#
# Mechanical properties :
#
#
# Convention : Reuss Voigt Hill
#
# Bulk Modulus (GPa) = 53.33022 68.64661 60.98841
# Shear Modulus (GPa) = 31.76544 46.20741 38.98642
#
# Velocity S-wave (km/s) = 3.82610 4.61461 4.23873
# Velocity P-wave (km/s) = 6.64047 7.74780 7.21541
#
# Compressibility (1/GPa) = 0.01875109
#
# Stress axis : x y z
#
# Youngs Moduli (GPa) = 110.48593 163.98246 47.38784
#
# Poissons Ratio (x) = 0.21928 0.37286
# Poissons Ratio (y) = 0.14774 -0.02157
# Poissons Ratio (z) = 0.86932 -0.07463
#
# Static dielectric constant tensor:
#      x y z
#    x 1.830010 0.000000 0.000000 
#    y 0.000000 1.839930 0.000000 
#    z 0.000000 0.000000 1.784200 
# 
# From -- ./inp_files/24533.got.cif
#   From: 2010.05.17/outbox.cif.g08.bks.cpg/sg67_13_cif.got.tgz:24533.got - 2010.06.03 18:28:57.
