data_PCOD9504121
_publ_section_title
;
Structure prediction by ZEFSAII (Michael W. Deem and Ramdas Pophale) SiO2 
 PCOD9504121
Probable space group: C M M A
;
_chemical_formula_sum "Si O2"
_cell_formula_units_Z 100
_cell_length_a 25.893148
_cell_length_b 20.062601
_cell_length_c 9.559352
_cell_angle_alpha 90.000000
_cell_angle_beta 90.000000
_cell_angle_gamma 90.000000
_cell_volume 4965.929429
_symmetry_space_group_name_H-M "C M M A"
_symmetry_group_IT_number 67
_symmetry_cell_setting 'orthorhombic'
loop_
_space_group_symop_operation_xyz
x,y,z
-x,1/2-y,z
x,-y,-z
-x,1/2+y,-z
-x,-y,-z
x,1/2+y,-z
-x,y,z
x,1/2-y,z
1/2+x,1/2+y,z
1/2-x,-y,z
1/2+x,1/2-y,-z
1/2-x,y,-z
1/2-x,1/2-y,-z
1/2+x,y,-z
1/2-x,1/2+y,z
1/2+x,-y,z
loop_
_atom_site_type_symbol
_atom_site_label
_atom_site_fract_x
_atom_site_fract_y
_atom_site_fract_z
Si Si1 0.560034 0.535840 0.221082
Si Si2 0.597721 0.845012 0.062111
Si Si3 0.868536 0.575491 0.528032
Si Si4 0.613244 0.600449 0.783413
Si Si5 0.500000 0.750000 0.117713
Si Si6 0.807816 0.173634 0.271015
Si Si7 0.730441 0.570165 0.840762
O O1 0.500000 0.548188 0.213202
O O2 0.589806 0.578106 0.104692
O O3 0.583255 0.560498 0.369417
O O4 0.571877 0.458401 0.203754
O O5 0.546759 0.806791 0.113515
O O6 0.649968 0.825117 0.143869
O O7 0.601517 0.841552 0.894186
O O8 0.847208 0.500000 0.500000
O O9 0.883075 0.610853 0.382708
O O10 0.831983 0.625611 0.611452
O O11 0.669243 0.572859 0.828691
O O12 0.799478 0.250000 0.314426
O O13 0.756078 0.135426 0.226075
O O14 0.750000 0.500000 0.777579
O O15 0.750000 0.570569 0.000000
#
# Coordination Sequence:
#
# PCOD9504121 Si02
#       7
#    16  16  16  16   4  16  16
#     4  10  21  38  66  93 124 165 214 263 319 384
#     4  11  22  40  62  92 124 163 209 261 315 383
#     4   9  21  41  64  93 130 169 210 266 316 383
#     4  11  23  39  61  95 127 159 210 267 321 368
#     4  12  24  40  58  88 128 168 208 260 318 384
#     4  11  23  44  68  93 127 172 220 257 318 391
#     4  11  22  38  65  98 130 169 210 267 320 375
#
# _framework density 20.137217
#
# number of rings (size 3 to 8) (size 9 to 14) (size 15 to 20)
#    0.000    1.440    3.200    3.360    3.360    4.480 
#    2.880    4.000    0.000    3.840    0.000    0.000 
#    0.000    0.000    0.000    0.000    0.000    0.000 
#
# Total GULP energy -278473.572165 kJ/mol
# GULP energy per Si atom -5569.471443 kJ/mol
# Density = 2.009138 g / cm^3
# Si number density = 20.137217 Si / 1000 Ang^3
#
#
#
# Elastic Constant Matrix: (Units=GPa)
#
#
# Indices 1 2 3 4 5 6 
#
# 1 58.7419 19.8772 -7.9007 0.0000 0.0000 0.0000
# 2 19.8772 103.5736 14.3008 0.0000 0.0000 0.0000
# 3 -7.9007 14.3008 100.2509 0.0000 0.0000 0.0000
# 4 0.0000 0.0000 0.0000 31.5355 0.0000 0.0000
# 5 0.0000 0.0000 0.0000 0.0000 3.5432 0.0000
# 6 0.0000 0.0000 0.0000 0.0000 0.0000 21.0327
#
#
#
# Elastic Compliance Matrix: (Units=1/GPa)
#
#
# Indices 1 2 3 4 5 6 
#
# 1 0.018596 -0.003847 0.002014 0.000000 0.000000 0.000000
# 2 -0.003847 0.010645 -0.001822 0.000000 0.000000 0.000000
# 3 0.002014 -0.001822 0.010394 0.000000 0.000000 0.000000
# 4 0.000000 0.000000 0.000000 0.031710 0.000000 0.000000
# 5 0.000000 0.000000 0.000000 0.000000 0.282228 0.000000
# 6 0.000000 0.000000 0.000000 0.000000 0.000000 0.047545
#
#
# Mechanical properties :
#
#
# Convention : Reuss Voigt Hill
#
# Bulk Modulus (GPa) = 30.93484 35.01344 32.97414
# Shear Modulus (GPa) = 11.92741 26.97490 19.45115
#
# Velocity S-wave (km/s) = 2.43638 3.66396 3.11131
# Velocity P-wave (km/s) = 4.82804 5.94346 5.41455
#
# Compressibility (1/GPa) = 0.03232601
#
# Stress axis : x y z
#
# Youngs Moduli (GPa) = 53.77412 93.94273 96.21324
#
# Poissons Ratio (x) = 0.36140 -0.19381
# Poissons Ratio (y) = 0.20687 0.17527
# Poissons Ratio (z) = -0.10832 0.17113
#
# Static dielectric constant tensor:
#      x y z
#    x 1.664090 0.000000 0.000000 
#    y 0.000000 1.733850 0.000000 
#    z 0.000000 0.000000 1.761140 
# 
# From -- ./inp_files/13799.got.cif
#   From: 2010.05.17/outbox.cif.g08.bks.cpg/sg67_7_cif.got.tgz:13799.got - 2010.06.03 18:28:57.
