data_PCOD9504279
_publ_section_title
;
Structure prediction by ZEFSAII (Michael W. Deem and Ramdas Pophale) SiO2 
 PCOD9504279
Probable space group: C M M A
;
_chemical_formula_sum "Si O2"
_cell_formula_units_Z 64
_cell_length_a 28.141602
_cell_length_b 16.728955
_cell_length_c 6.875129
_cell_angle_alpha 90.000000
_cell_angle_beta 90.000000
_cell_angle_gamma 90.000000
_cell_volume 3236.670436
_symmetry_space_group_name_H-M "C M M A"
_symmetry_group_IT_number 67
_symmetry_cell_setting 'orthorhombic'
loop_
_space_group_symop_operation_xyz
x,y,z
-x,1/2-y,z
x,-y,-z
-x,1/2+y,-z
-x,-y,-z
x,1/2+y,-z
-x,y,z
x,1/2-y,z
1/2+x,1/2+y,z
1/2-x,-y,z
1/2+x,1/2-y,-z
1/2-x,y,-z
1/2-x,1/2-y,-z
1/2+x,y,-z
1/2-x,1/2+y,z
1/2+x,-y,z
loop_
_atom_site_type_symbol
_atom_site_label
_atom_site_fract_x
_atom_site_fract_y
_atom_site_fract_z
Si Si1 0.444071 0.431888 0.842017
Si Si2 0.299829 0.250000 0.105993
Si Si3 0.153886 0.750000 0.705764
Si Si4 0.554731 0.250000 0.808632
Si Si5 0.118764 0.500000 0.500000
Si Si6 0.302421 0.381342 0.434361
O O1 0.500000 0.442665 0.797739
O O2 0.439039 0.338314 0.906950
O O3 0.413367 0.450529 0.650345
O O4 0.431473 0.500000 0.000000
O O5 0.300206 0.325456 0.247128
O O6 0.250000 0.250000 0.000000
O O7 0.339307 0.250000 0.937796
O O8 0.098050 0.750000 0.656168
O O9 0.179050 0.673541 0.612370
O O10 0.500000 0.250000 0.736335
O O11 0.156468 0.555856 0.389999
O O12 0.250000 0.409514 0.500000
#
# Coordination Sequence:
#
# PCOD9504279 Si02
#       6
#    16   8   8   8   8  16
#     4  10  23  44  67  95 130 169 214 269 328 388
#     4  11  21  39  69  86 116 170 219 260 321 382
#     4  11  20  41  65  90 128 161 213 269 319 380
#     4  10  21  41  69  95 126 167 212 268 325 382
#     4  12  24  38  62  92 132 168 208 264 318 390
#     4  11  23  39  60  92 125 167 210 265 320 376
#
# _framework density 19.773405
#
# number of rings (size 3 to 8) (size 9 to 14) (size 15 to 20)
#    0.000    1.250    5.000    1.500    3.500    0.000 
#    0.000    1.250    0.000    7.500    0.000    0.000 
#    0.000    0.000    0.000    0.000    0.000    0.000 
#
# Total GULP energy -178279.613934 kJ/mol
# GULP energy per Si atom -5571.237935 kJ/mol
# Density = 1.972840 g / cm^3
# Si number density = 19.773405 Si / 1000 Ang^3
#
#
#
# Elastic Constant Matrix: (Units=GPa)
#
#
# Indices 1 2 3 4 5 6 
#
# 1 118.5104 41.5911 31.1911 0.0000 0.0000 0.0000
# 2 41.5911 133.3843 38.5772 0.0000 0.0000 0.0000
# 3 31.1911 38.5772 83.1761 0.0000 0.0000 0.0000
# 4 0.0000 0.0000 0.0000 -7.1206 0.0000 0.0000
# 5 0.0000 0.0000 0.0000 0.0000 24.4554 0.0000
# 6 0.0000 0.0000 0.0000 0.0000 0.0000 29.5386
#
#
#
# Elastic Compliance Matrix: (Units=1/GPa)
#
#
# Indices 1 2 3 4 5 6 
#
# 1 0.009956 -0.002338 -0.002649 0.000000 0.000000 0.000000
# 2 -0.002338 0.009208 -0.003394 0.000000 0.000000 0.000000
# 3 -0.002649 -0.003394 0.014590 0.000000 0.000000 0.000000
# 4 0.000000 0.000000 0.000000 -0.140438 0.000000 0.000000
# 5 0.000000 0.000000 0.000000 0.000000 0.040891 0.000000
# 6 0.000000 0.000000 0.000000 0.000000 0.000000 0.033854
#
#
# Mechanical properties :
#
#
# Convention : Reuss Voigt Hill
#
# Bulk Modulus (GPa) = 58.85193 61.97663 60.41428
# Shear Modulus (GPa) = -525.55936 24.28878 -250.63529
#
# Velocity S-wave (km/s) = -16.32079 3.50859 -11.27071
# Velocity P-wave (km/s) = 18.03690 6.91557 11.77931
#
# Compressibility (1/GPa) = 0.01699180
#
# Stress axis : x y z
#
# Youngs Moduli (GPa) = 100.44322 108.60406 68.53970
#
# Poissons Ratio (x) = 0.25394 0.18156
# Poissons Ratio (y) = 0.23486 0.23261
# Poissons Ratio (z) = 0.26607 0.36857
#
# Static dielectric constant tensor:
#      x y z
#    x 1.745170 0.000000 0.000000 
#    y 0.000000 1.577190 0.000000 
#    z 0.000000 0.000000 1.687910 
# 
# From -- ./inp_files/4590.got.cif
#   From: 2010.05.17/outbox.cif.g08.bks.cpg/sg67_3_cif.got.tgz:4590.got - 2010.06.03 18:28:57.
