data_PCOD9504123
_publ_section_title
;
Structure prediction by ZEFSAII (Michael W. Deem and Ramdas Pophale) SiO2 
 PCOD9504123
Probable space group: C M M A
;
_chemical_formula_sum "Si O2"
_cell_formula_units_Z 80
_cell_length_a 18.635192
_cell_length_b 14.277954
_cell_length_c 16.120633
_cell_angle_alpha 90.000000
_cell_angle_beta 90.000000
_cell_angle_gamma 90.000000
_cell_volume 4289.255740
_symmetry_space_group_name_H-M "C M M A"
_symmetry_group_IT_number 67
_symmetry_cell_setting 'orthorhombic'
loop_
_space_group_symop_operation_xyz
x,y,z
-x,1/2-y,z
x,-y,-z
-x,1/2+y,-z
-x,-y,-z
x,1/2+y,-z
-x,y,z
x,1/2-y,z
1/2+x,1/2+y,z
1/2-x,-y,z
1/2+x,1/2-y,-z
1/2-x,y,-z
1/2-x,1/2-y,-z
1/2+x,y,-z
1/2-x,1/2+y,z
1/2+x,-y,z
loop_
_atom_site_type_symbol
_atom_site_label
_atom_site_fract_x
_atom_site_fract_y
_atom_site_fract_z
Si Si1 0.332721 0.979513 0.708423
Si Si2 0.586970 0.854643 0.040453
Si Si3 0.084522 0.860331 0.620796
Si Si4 0.326646 0.861223 0.541346
Si Si5 0.913478 0.044772 0.870121
O O1 0.336459 0.916698 0.625834
O O2 0.373109 0.933308 0.785632
O O3 0.250000 0.000000 0.727608
O O4 0.372894 0.075722 0.684866
O O5 0.500000 0.852651 0.044085
O O6 0.613349 0.750000 0.059403
O O7 0.604736 0.887155 0.946854
O O8 0.608141 0.939478 0.100877
O O9 0.097698 0.750000 0.635542
O O10 0.113874 0.881330 0.528467
O O11 0.000000 0.878162 0.626548
O O12 0.326714 0.750000 0.557636
O O13 0.250000 0.885133 0.500000
O O14 0.000000 0.046819 0.859445
#
# Coordination Sequence:
#
# PCOD9504123 Si02
#       5
#    16  16  16  16  16
#     4  12  23  34  56  84 116 154 190 235 295 349
#     4   8  15  33  59  79 104 146 184 223 286 350
#     4  10  22  39  59  83 111 148 198 250 292 340
#     4  10  21  39  58  77 110 155 198 236 286 351
#     4   9  19  34  53  83 113 138 184 239 280 339
#
# _framework density 18.651254000000002
#
# number of rings (size 3 to 8) (size 9 to 14) (size 15 to 20)
#    0.000    2.200    2.000    2.400    0.000    4.000 
#    0.000    4.000    0.000    1.200    0.000    0.000 
#    0.000    0.000    0.000    0.000    0.000    0.000 
#
# Total GULP energy -223303.526052 kJ/mol
# GULP energy per Si atom -5582.588151 kJ/mol
# Density = 1.860880 g / cm^3
# Si number density = 18.651254 Si / 1000 Ang^3
#
#
#
# Elastic Constant Matrix: (Units=GPa)
#
#
# Indices 1 2 3 4 5 6 
#
# 1 59.8842 11.7485 18.0722 0.0000 0.0000 0.0000
# 2 11.7485 50.9186 -3.5069 0.0000 0.0000 0.0000
# 3 18.0722 -3.5069 62.5628 0.0000 0.0000 0.0000
# 4 0.0000 0.0000 0.0000 6.8242 0.0000 0.0000
# 5 0.0000 0.0000 0.0000 0.0000 50.3845 0.0000
# 6 0.0000 0.0000 0.0000 0.0000 0.0000 15.6035
#
#
#
# Elastic Compliance Matrix: (Units=1/GPa)
#
#
# Indices 1 2 3 4 5 6 
#
# 1 0.019435 -0.004890 -0.005888 0.000000 0.000000 0.000000
# 2 -0.004890 0.020946 0.002587 0.000000 0.000000 0.000000
# 3 -0.005888 0.002587 0.017830 0.000000 0.000000 0.000000
# 4 0.000000 0.000000 0.000000 0.146537 0.000000 0.000000
# 5 0.000000 0.000000 0.000000 0.000000 0.019847 0.000000
# 6 0.000000 0.000000 0.000000 0.000000 0.000000 0.064088
#
#
# Mechanical properties :
#
#
# Convention : Reuss Voigt Hill
#
# Bulk Modulus (GPa) = 23.90765 25.11036 24.50900
# Shear Modulus (GPa) = 15.67357 24.36589 20.01973
#
# Velocity S-wave (km/s) = 2.90202 3.61833 3.27979
# Velocity P-wave (km/s) = 4.90663 5.56316 5.24518
#
# Compressibility (1/GPa) = 0.04182762
#
# Stress axis : x y z
#
# Youngs Moduli (GPa) = 51.45302 47.74277 56.08573
#
# Poissons Ratio (x) = 0.23346 0.33025
# Poissons Ratio (y) = 0.25160 -0.14507
# Poissons Ratio (z) = 0.30297 -0.12349
#
# Static dielectric constant tensor:
#      x y z
#    x 1.627730 0.000000 0.000000 
#    y 0.000000 1.667820 0.000000 
#    z 0.000000 0.000000 1.621520 
# 
# From -- ./inp_files/26990.got.cif
#   From: 2010.05.17/outbox.cif.g08.bks.cpg/sg67_14_cif.got.tgz:26990.got - 2010.06.03 18:28:57.
