data_PCOD9504482
_publ_section_title
;
Structure prediction by ZEFSAII (Michael W. Deem and Ramdas Pophale) SiO2 
 PCOD9504482
Probable space group: C M M A
;
_chemical_formula_sum "Si O2"
_cell_formula_units_Z 116
_cell_length_a 18.943361
_cell_length_b 18.645581
_cell_length_c 17.181420
_cell_angle_alpha 90.000000
_cell_angle_beta 90.000000
_cell_angle_gamma 90.000000
_cell_volume 6068.648876
_symmetry_space_group_name_H-M "C M M A"
_symmetry_group_IT_number 67
_symmetry_cell_setting 'orthorhombic'
loop_
_space_group_symop_operation_xyz
x,y,z
-x,1/2-y,z
x,-y,-z
-x,1/2+y,-z
-x,-y,-z
x,1/2+y,-z
-x,y,z
x,1/2-y,z
1/2+x,1/2+y,z
1/2-x,-y,z
1/2+x,1/2-y,-z
1/2-x,y,-z
1/2-x,1/2-y,-z
1/2+x,y,-z
1/2-x,1/2+y,z
1/2+x,-y,z
loop_
_atom_site_type_symbol
_atom_site_label
_atom_site_fract_x
_atom_site_fract_y
_atom_site_fract_z
Si Si1 0.137021 0.592116 0.091885
Si Si2 0.687024 0.835212 0.751191
Si Si3 0.584719 0.169327 0.938769
Si Si4 0.306339 0.563112 0.308089
Si Si5 0.750000 0.500000 0.000000
Si Si6 0.330899 0.416004 0.519511
Si Si7 0.418579 0.957957 0.176611
Si Si8 0.081551 0.836264 0.389801
O O1 0.160039 0.638722 0.165394
O O2 0.086791 0.528772 0.123340
O O3 0.105195 0.640307 0.023598
O O4 0.202629 0.549988 0.054437
O O5 0.695637 0.750000 0.749897
O O6 0.759438 0.875093 0.730735
O O7 0.629468 0.855167 0.684870
O O8 0.500000 0.171984 0.934880
O O9 0.612402 0.250000 0.925355
O O10 0.606187 0.110015 0.875252
O O11 0.250000 0.500000 0.327067
O O12 0.339960 0.590733 0.388120
O O13 0.365205 0.535339 0.248499
O O14 0.338529 0.500000 0.500000
O O15 0.250000 0.394661 0.500000
O O16 0.383602 0.371926 0.465398
O O17 0.500000 0.947365 0.200391
O O18 0.083344 0.750000 0.397513
O O19 0.000000 0.858243 0.379504
#
# Coordination Sequence:
#
# PCOD9504482 Si02
#       8
#    16  16  16  16   4  16  16  16
#     4  12  22  40  62  90 123 161 211 259 314 377
#     4  11  24  40  63  95 126 166 209 258 321 378
#     4  10  22  41  62  86 120 161 206 259 315 371
#     4  12  22  42  65  91 129 166 212 261 307 373
#     4  12  24  40  64  88 120 166 204 268 316 356
#     4  11  21  39  65  94 124 165 212 257 307 369
#     4  11  24  41  65  92 125 168 212 260 320 380
#     4  10  23  43  65  95 133 167 205 258 317 375
#
# _framework density 19.114633000000001
#
# number of rings (size 3 to 8) (size 9 to 14) (size 15 to 20)
#    0.000    0.966    5.517    1.655    0.000    4.414 
#    0.000    2.069    0.000    1.655    0.000    0.000 
#    0.000    0.000    0.000    0.000    0.000    0.000 
#
# Total GULP energy -324223.113292 kJ/mol
# GULP energy per Si atom -5590.053677 kJ/mol
# Density = 1.907113 g / cm^3
# Si number density = 19.114633 Si / 1000 Ang^3
#
#
#
# Elastic Constant Matrix: (Units=GPa)
#
#
# Indices 1 2 3 4 5 6 
#
# 1 76.1956 12.0600 24.3324 0.0000 0.0000 0.0000
# 2 12.0600 60.8394 2.7968 0.0000 0.0000 0.0000
# 3 24.3324 2.7968 85.8155 0.0000 0.0000 0.0000
# 4 0.0000 0.0000 0.0000 34.3832 0.0000 0.0000
# 5 0.0000 0.0000 0.0000 0.0000 29.9953 0.0000
# 6 0.0000 0.0000 0.0000 0.0000 0.0000 22.0767
#
#
#
# Elastic Compliance Matrix: (Units=1/GPa)
#
#
# Indices 1 2 3 4 5 6 
#
# 1 0.014879 -0.002760 -0.004129 0.000000 0.000000 0.000000
# 2 -0.002760 0.016973 0.000229 0.000000 0.000000 0.000000
# 3 -0.004129 0.000229 0.012816 0.000000 0.000000 0.000000
# 4 0.000000 0.000000 0.000000 0.029084 0.000000 0.000000
# 5 0.000000 0.000000 0.000000 0.000000 0.033339 0.000000
# 6 0.000000 0.000000 0.000000 0.000000 0.000000 0.045297
#
#
# Mechanical properties :
#
#
# Convention : Reuss Voigt Hill
#
# Bulk Modulus (GPa) = 31.89784 33.46987 32.68385
# Shear Modulus (GPa) = 28.38378 29.53512 28.95945
#
# Velocity S-wave (km/s) = 3.85765 3.93511 3.89658
# Velocity P-wave (km/s) = 6.04697 6.18020 6.11395
#
# Compressibility (1/GPa) = 0.03135008
#
# Stress axis : x y z
#
# Youngs Moduli (GPa) = 67.20660 58.91636 78.02630
#
# Poissons Ratio (x) = 0.16259 0.32217
# Poissons Ratio (y) = 0.18547 -0.01789
# Poissons Ratio (z) = 0.27750 -0.01351
#
# Static dielectric constant tensor:
#      x y z
#    x 1.657200 0.000000 0.000000 
#    y 0.000000 1.665260 0.000000 
#    z 0.000000 0.000000 1.645040 
# 
# From -- ./inp_files/34368.got.cif
#   From: 2010.05.17/outbox.cif.g08.bks.cpg/sg67_18_cif.got.tgz:34368.got - 2010.06.03 18:28:57.
