data_PCOD9504740
_publ_section_title
;
Structure prediction by ZEFSAII (Michael W. Deem and Ramdas Pophale) SiO2 
 PCOD9504740
Probable space group: C M M A
;
_chemical_formula_sum "Si O2"
_cell_formula_units_Z 96
_cell_length_a 19.922111
_cell_length_b 21.556912
_cell_length_c 11.929236
_cell_angle_alpha 90.000000
_cell_angle_beta 90.000000
_cell_angle_gamma 90.000000
_cell_volume 5123.120074
_symmetry_space_group_name_H-M "C M M A"
_symmetry_group_IT_number 67
_symmetry_cell_setting 'orthorhombic'
loop_
_space_group_symop_operation_xyz
x,y,z
-x,1/2-y,z
x,-y,-z
-x,1/2+y,-z
-x,-y,-z
x,1/2+y,-z
-x,y,z
x,1/2-y,z
1/2+x,1/2+y,z
1/2-x,-y,z
1/2+x,1/2-y,-z
1/2-x,y,-z
1/2-x,1/2-y,-z
1/2+x,y,-z
1/2-x,1/2+y,z
1/2+x,-y,z
loop_
_atom_site_type_symbol
_atom_site_label
_atom_site_fract_x
_atom_site_fract_y
_atom_site_fract_z
Si Si1 0.373437 0.391055 0.185751
Si Si2 0.000000 0.677973 0.552992
Si Si3 0.352045 0.372857 0.568593
Si Si4 0.000000 0.678202 0.283796
Si Si5 0.675750 0.927492 0.035263
Si Si6 0.214787 0.676860 0.345164
Si Si7 0.327480 0.021805 0.729170
O O1 0.435813 0.355424 0.234853
O O2 0.308928 0.352940 0.229512
O O3 0.368402 0.460124 0.238605
O O4 0.374141 0.395121 0.051315
O O5 0.928570 0.648273 0.587808
O O6 0.000000 0.750000 0.586453
O O7 0.000000 0.674542 0.417937
O O8 0.293401 0.334678 0.632985
O O9 0.328093 0.360016 0.440688
O O10 0.344610 0.442798 0.614820
O O11 0.000000 0.750000 0.252469
O O12 0.663672 0.929752 0.167509
O O13 0.750000 0.905824 0.000000
O O14 0.674368 0.000000 0.000000
O O15 0.199616 0.750000 0.354030
O O16 0.250000 0.000000 0.728046
#
# Coordination Sequence:
#
# PCOD9504740 Si02
#       7
#    16   8  16   8  16  16  16
#     4  11  21  37  64  94 117 163 212 261 310 371
#     4  11  22  41  60  81 122 179 216 247 309 376
#     4  11  22  36  59  90 122 167 206 256 313 378
#     4  11  24  43  61  85 125 173 217 256 312 373
#     4   9  15  33  62  88 116 151 191 243 307 372
#     4  11  21  37  59  87 120 164 221 265 304 368
#     4  11  20  38  61  94 129 159 197 258 325 378
#
# _framework density 18.738579999999999
#
# number of rings (size 3 to 8) (size 9 to 14) (size 15 to 20)
#    0.000    1.333    6.667    2.500    0.000    1.333 
#    0.000    5.417    0.000   14.000    0.000    0.000 
#    0.000    0.000    0.000    0.000    0.000    0.000 
#
# Total GULP energy -267679.340949 kJ/mol
# GULP energy per Si atom -5576.652936 kJ/mol
# Density = 1.869593 g / cm^3
# Si number density = 18.738580 Si / 1000 Ang^3
#
#
#
# Elastic Constant Matrix: (Units=GPa)
#
#
# Indices 1 2 3 4 5 6 
#
# 1 109.9461 41.5901 29.9959 0.0000 0.0000 0.0000
# 2 41.5901 95.7657 51.8642 0.0000 0.0000 0.0000
# 3 29.9959 51.8642 71.2397 0.0000 0.0000 0.0000
# 4 0.0000 0.0000 0.0000 15.8601 0.0000 0.0000
# 5 0.0000 0.0000 0.0000 0.0000 20.6395 0.0000
# 6 0.0000 0.0000 0.0000 0.0000 0.0000 21.8314
#
#
#
# Elastic Compliance Matrix: (Units=1/GPa)
#
#
# Indices 1 2 3 4 5 6 
#
# 1 0.011039 -0.003759 -0.001911 0.000000 0.000000 0.000000
# 2 -0.003759 0.018519 -0.011900 0.000000 0.000000 0.000000
# 3 -0.001911 -0.011900 0.023505 0.000000 0.000000 0.000000
# 4 0.000000 0.000000 0.000000 0.063051 0.000000 0.000000
# 5 0.000000 0.000000 0.000000 0.000000 0.048451 0.000000
# 6 0.000000 0.000000 0.000000 0.000000 0.000000 0.045806
#
#
# Mechanical properties :
#
#
# Convention : Reuss Voigt Hill
#
# Bulk Modulus (GPa) = 55.79364 58.20576 56.99970
# Shear Modulus (GPa) = 19.88189 21.89962 20.89076
#
# Velocity S-wave (km/s) = 3.26085 3.42232 3.34256
# Velocity P-wave (km/s) = 6.63453 6.83709 6.73657
#
# Compressibility (1/GPa) = 0.01792319
#
# Stress axis : x y z
#
# Youngs Moduli (GPa) = 90.59018 53.99816 42.54378
#
# Poissons Ratio (x) = 0.20297 0.08132
# Poissons Ratio (y) = 0.34051 0.50626
# Poissons Ratio (z) = 0.17315 0.64256
#
# Static dielectric constant tensor:
#      x y z
#    x 1.528640 0.000000 0.000000 
#    y 0.000000 1.651800 0.000000 
#    z 0.000000 0.000000 1.691760 
# 
# From -- ./inp_files/20907.got.cif
#   From: 2010.05.17/outbox.cif.g08.bks.cpg/sg67_11_cif.got.tgz:20907.got - 2010.06.03 18:28:57.
