data_PCOD9504892
_publ_section_title
;
Structure prediction by ZEFSAII (Michael W. Deem and Ramdas Pophale) SiO2 
 PCOD9504892
Probable space group: C M M A
;
_chemical_formula_sum "Si O2"
_cell_formula_units_Z 56
_cell_length_a 15.952458
_cell_length_b 8.674683
_cell_length_c 19.752802
_cell_angle_alpha 90.000000
_cell_angle_beta 90.000000
_cell_angle_gamma 90.000000
_cell_volume 2733.442443
_symmetry_space_group_name_H-M "C M M A"
_symmetry_group_IT_number 67
_symmetry_cell_setting 'orthorhombic'
loop_
_space_group_symop_operation_xyz
x,y,z
-x,1/2-y,z
x,-y,-z
-x,1/2+y,-z
-x,-y,-z
x,1/2+y,-z
-x,y,z
x,1/2-y,z
1/2+x,1/2+y,z
1/2-x,-y,z
1/2+x,1/2-y,-z
1/2-x,y,-z
1/2-x,1/2-y,-z
1/2+x,y,-z
1/2-x,1/2+y,z
1/2+x,-y,z
loop_
_atom_site_type_symbol
_atom_site_label
_atom_site_fract_x
_atom_site_fract_y
_atom_site_fract_z
Si Si1 0.000000 0.934585 0.924286
Si Si2 0.844647 0.434474 0.570416
Si Si3 0.098131 0.071002 0.289842
Si Si4 0.339017 0.566744 0.846172
O O1 0.000000 0.750000 0.924229
O O2 0.916963 0.994661 0.886399
O O3 0.000000 0.000000 0.000000
O O4 0.880732 0.500000 0.500000
O O5 0.843274 0.250000 0.568364
O O6 0.750000 0.500000 0.574912
O O7 0.890429 0.495446 0.636957
O O8 0.125080 0.250000 0.291915
O O9 0.000000 0.066851 0.271480
O O10 0.148202 0.981364 0.232159
O O11 0.340159 0.750000 0.852800
O O12 0.250000 0.500000 0.869799
#
# Coordination Sequence:
#
# PCOD9504892 Si02
#       4
#     8  16  16  16
#     4  12  26  48  74 106 143 180 223 274 332 396
#     4  11  22  38  59  84 119 161 213 270 332 397
#     4  11  23  40  63  91 127 169 218 274 332 393
#     4  12  25  44  71 103 139 181 228 277 334 397
#
# _framework density 20.486985000000001
#
# number of rings (size 3 to 8) (size 9 to 14) (size 15 to 20)
#    0.000    0.571    1.429    9.000    0.000    2.857 
#    0.000    2.857    0.000    0.000    0.000    0.000 
#    0.000    0.000    0.000    0.000    0.000    0.000 
#
# Total GULP energy -156791.817216 kJ/mol
# GULP energy per Si atom -5599.707758 kJ/mol
# Density = 2.044036 g / cm^3
# Si number density = 20.486985 Si / 1000 Ang^3
#
#
#
# Elastic Constant Matrix: (Units=GPa)
#
#
# Indices 1 2 3 4 5 6 
#
# 1 128.4023 70.3843 58.7623 0.0000 0.0000 0.0000
# 2 70.3843 238.1938 61.8945 0.0000 0.0000 0.0000
# 3 58.7623 61.8945 130.1416 0.0000 0.0000 0.0000
# 4 0.0000 0.0000 0.0000 37.9756 0.0000 0.0000
# 5 0.0000 0.0000 0.0000 0.0000 -0.6782 0.0000
# 6 0.0000 0.0000 0.0000 0.0000 0.0000 30.4989
#
#
#
# Elastic Compliance Matrix: (Units=1/GPa)
#
#
# Indices 1 2 3 4 5 6 
#
# 1 0.010725 -0.002180 -0.003806 0.000000 0.000000 0.000000
# 2 -0.002180 0.005233 -0.001505 0.000000 0.000000 0.000000
# 3 -0.003806 -0.001505 0.010118 0.000000 0.000000 0.000000
# 4 0.000000 0.000000 0.000000 0.026333 0.000000 0.000000
# 5 0.000000 0.000000 0.000000 0.000000 -1.474509 0.000000
# 6 0.000000 0.000000 0.000000 0.000000 0.000000 0.032788
#
#
# Mechanical properties :
#
#
# Convention : Reuss Voigt Hill
#
# Bulk Modulus (GPa) = 90.12863 97.64667 93.88765
# Shear Modulus (GPa) = -3.64795 33.93904 15.14555
#
# Velocity S-wave (km/s) = -1.33585 4.07457 2.72191
# Velocity P-wave (km/s) = 6.45827 8.36077 7.47033
#
# Compressibility (1/GPa) = 0.01109525
#
# Stress axis : x y z
#
# Youngs Moduli (GPa) = 93.24268 191.07845 98.83534
#
# Poissons Ratio (x) = 0.41658 0.37613
# Poissons Ratio (y) = 0.20329 0.14871
# Poissons Ratio (z) = 0.35484 0.28750
#
# Static dielectric constant tensor:
#      x y z
#    x 1.739730 0.000000 0.000000 
#    y 0.000000 1.680570 0.000000 
#    z 0.000000 0.000000 1.727360 
# 
# From -- ./inp_files/36517.got.cif
#   From: 2010.05.17/outbox.cif.g08.bks.cpg/sg67_19_cif.got.tgz:36517.got - 2010.06.03 18:28:57.
