data_PCOD9504422
_publ_section_title
;
Structure prediction by ZEFSAII (Michael W. Deem and Ramdas Pophale) SiO2 
 PCOD9504422
Probable space group: C M M A
;
_chemical_formula_sum "Si O2"
_cell_formula_units_Z 48
_cell_length_a 20.923016
_cell_length_b 21.317208
_cell_length_c 5.232887
_cell_angle_alpha 90.000000
_cell_angle_beta 90.000000
_cell_angle_gamma 90.000000
_cell_volume 2333.973746
_symmetry_space_group_name_H-M "C M M A"
_symmetry_group_IT_number 67
_symmetry_cell_setting 'orthorhombic'
loop_
_space_group_symop_operation_xyz
x,y,z
-x,1/2-y,z
x,-y,-z
-x,1/2+y,-z
-x,-y,-z
x,1/2+y,-z
-x,y,z
x,1/2-y,z
1/2+x,1/2+y,z
1/2-x,-y,z
1/2+x,1/2-y,-z
1/2-x,y,-z
1/2-x,1/2-y,-z
1/2+x,y,-z
1/2-x,1/2+y,z
1/2+x,-y,z
loop_
_atom_site_type_symbol
_atom_site_label
_atom_site_fract_x
_atom_site_fract_y
_atom_site_fract_z
Si Si1 0.132465 0.431296 0.951888
Si Si2 0.809462 0.179967 0.688433
Si Si3 0.426766 0.117936 0.533724
O O1 0.182637 0.375873 0.891906
O O2 0.088644 0.430454 0.697174
O O3 0.160252 0.500000 0.000000
O O4 0.091143 0.411415 0.195305
O O5 0.805929 0.250000 0.797087
O O6 0.750000 0.169924 0.500000
O O7 0.875226 0.172247 0.526842
O O8 0.500000 0.137817 0.524974
#
# Coordination Sequence:
#
# PCOD9504422 Si02
#       3
#    16  16  16
#     4  10  22  40  66  97 127 168 215 273 327 386
#     4   9  22  44  66  90 130 181 221 262 327 400
#     4  10  22  39  64  96 130 168 216 273 328 383
#
# _framework density 20.565784000000001
#
# number of rings (size 3 to 8) (size 9 to 14) (size 15 to 20)
#    2.000    0.333    0.000    2.000    0.000    7.333 
#    0.000    8.333    0.000    0.000    0.000    0.000 
#    0.000    0.000    0.000    0.000    0.000    0.000 
#
# Total GULP energy -133671.480073 kJ/mol
# GULP energy per Si atom -5569.645003 kJ/mol
# Density = 2.051898 g / cm^3
# Si number density = 20.565784 Si / 1000 Ang^3
#
#
#
# Elastic Constant Matrix: (Units=GPa)
#
#
# Indices 1 2 3 4 5 6 
#
# 1 150.4169 73.7341 46.7390 0.0000 0.0000 0.0000
# 2 73.7341 140.4664 42.1366 0.0000 0.0000 0.0000
# 3 46.7390 42.1366 124.7302 0.0000 0.0000 0.0000
# 4 0.0000 0.0000 0.0000 5.5160 0.0000 0.0000
# 5 0.0000 0.0000 0.0000 0.0000 9.9564 0.0000
# 6 0.0000 0.0000 0.0000 0.0000 0.0000 1.7478
#
#
#
# Elastic Compliance Matrix: (Units=1/GPa)
#
#
# Indices 1 2 3 4 5 6 
#
# 1 0.009407 -0.004318 -0.002066 0.000000 0.000000 0.000000
# 2 -0.004318 0.009904 -0.001728 0.000000 0.000000 0.000000
# 3 -0.002066 -0.001728 0.009375 0.000000 0.000000 0.000000
# 4 0.000000 0.000000 0.000000 0.181290 0.000000 0.000000
# 5 0.000000 0.000000 0.000000 0.000000 0.100438 0.000000
# 6 0.000000 0.000000 0.000000 0.000000 0.000000 0.572141
#
#
# Mechanical properties :
#
#
# Convention : Reuss Voigt Hill
#
# Bulk Modulus (GPa) = 80.24308 82.31476 81.27892
# Shear Modulus (GPa) = 5.53751 20.31097 12.92424
#
# Velocity S-wave (km/s) = 1.64269 3.14604 2.50958
# Velocity P-wave (km/s) = 6.53455 7.30128 6.92853
#
# Compressibility (1/GPa) = 0.01246213
#
# Stress axis : x y z
#
# Youngs Moduli (GPa) = 106.30424 100.96826 106.66400
#
# Poissons Ratio (x) = 0.43599 0.22039
# Poissons Ratio (y) = 0.45903 0.18429
# Poissons Ratio (z) = 0.21965 0.17445
#
# Static dielectric constant tensor:
#      x y z
#    x 1.714610 0.000000 0.000000 
#    y 0.000000 1.734880 0.000000 
#    z 0.000000 0.000000 1.744090 
# 
# From -- ./inp_files/1864.got.cif
#   From: 2010.05.17/outbox.cif.g08.bks.cpg/sg67_1_cif.got.tgz:1864.got - 2010.06.03 18:28:57.
