data_PCOD9504102
_publ_section_title
;
Structure prediction by ZEFSAII (Michael W. Deem and Ramdas Pophale) SiO2 
 PCOD9504102
Probable space group: C M M A
;
_chemical_formula_sum "Si O2"
_cell_formula_units_Z 112
_cell_length_a 23.409167
_cell_length_b 14.722720
_cell_length_c 14.527005
_cell_angle_alpha 90.000000
_cell_angle_beta 90.000000
_cell_angle_gamma 90.000000
_cell_volume 5006.683044
_symmetry_space_group_name_H-M "C M M A"
_symmetry_group_IT_number 67
_symmetry_cell_setting 'orthorhombic'
loop_
_space_group_symop_operation_xyz
x,y,z
-x,1/2-y,z
x,-y,-z
-x,1/2+y,-z
-x,-y,-z
x,1/2+y,-z
-x,y,z
x,1/2-y,z
1/2+x,1/2+y,z
1/2-x,-y,z
1/2+x,1/2-y,-z
1/2-x,y,-z
1/2-x,1/2-y,-z
1/2+x,y,-z
1/2-x,1/2+y,z
1/2+x,-y,z
loop_
_atom_site_type_symbol
_atom_site_label
_atom_site_fract_x
_atom_site_fract_y
_atom_site_fract_z
Si Si1 0.128314 0.852354 0.926243
Si Si2 0.934048 0.055361 0.386170
Si Si3 0.145065 0.848291 0.140039
Si Si4 0.065716 0.987951 0.813833
Si Si5 0.734175 0.399632 0.797851
Si Si6 0.606272 0.143393 0.437721
Si Si7 0.262277 0.143378 0.398525
O O1 0.106432 0.750000 0.918117
O O2 0.180425 0.865533 0.854885
O O3 0.080872 0.925102 0.899856
O O4 0.149207 0.865125 0.030587
O O5 0.894639 0.114717 0.453870
O O6 0.000000 0.078755 0.407732
O O7 0.923411 0.069785 0.278706
O O8 0.927160 0.945621 0.399613
O O9 0.117403 0.750000 0.154904
O O10 0.108023 0.927337 0.183956
O O11 0.208342 0.845655 0.180359
O O12 0.000000 0.016660 0.813299
O O13 0.750000 0.500000 0.830369
O O14 0.729397 0.399881 0.687244
O O15 0.587250 0.250000 0.428120
O O16 0.668946 0.138013 0.392354
O O17 0.246374 0.250000 0.398232
O O18 0.250000 0.105984 0.500000
#
# Coordination Sequence:
#
# PCOD9504102 Si02
#       7
#    16  16  16  16  16  16  16
#     4  11  25  43  68  96 129 175 218 269 337 400
#     4  10  23  40  60  90 124 163 216 267 318 376
#     4  11  24  44  68  97 131 169 218 275 335 399
#     4  11  25  44  66  96 133 172 220 278 331 395
#     4  12  24  39  67  99 132 170 215 272 329 393
#     4  10  21  38  63  88 122 167 212 263 312 369
#     4  10  23  39  57  89 128 167 207 253 314 384
#
# _framework density 22.370100000000001
#
# number of rings (size 3 to 8) (size 9 to 14) (size 15 to 20)
#    0.000    1.286    1.429    3.857    2.000    8.286 
#    0.000    4.286    0.000    0.000    0.000    0.000 
#    0.000    0.000    0.000    0.000    0.000    0.000 
#
# Total GULP energy -312918.404782 kJ/mol
# GULP energy per Si atom -5587.828657 kJ/mol
# Density = 2.231918 g / cm^3
# Si number density = 22.370100 Si / 1000 Ang^3
#
#
#
# Elastic Constant Matrix: (Units=GPa)
#
#
# Indices 1 2 3 4 5 6 
#
# 1 55.3834 -5.8068 2.4021 0.0000 0.0000 0.0000
# 2 -5.8068 71.1804 -11.8764 0.0000 0.0000 0.0000
# 3 2.4021 -11.8764 72.8298 0.0000 0.0000 0.0000
# 4 0.0000 0.0000 0.0000 23.3727 0.0000 0.0000
# 5 0.0000 0.0000 0.0000 0.0000 27.2871 0.0000
# 6 0.0000 0.0000 0.0000 0.0000 0.0000 -7.8811
#
#
#
# Elastic Compliance Matrix: (Units=1/GPa)
#
#
# Indices 1 2 3 4 5 6 
#
# 1 0.018221 0.001425 -0.000369 0.000000 0.000000 0.000000
# 2 0.001425 0.014553 0.002326 0.000000 0.000000 0.000000
# 3 -0.000369 0.002326 0.014122 0.000000 0.000000 0.000000
# 4 0.000000 0.000000 0.000000 0.042785 0.000000 0.000000
# 5 0.000000 0.000000 0.000000 0.000000 0.036647 0.000000
# 6 0.000000 0.000000 0.000000 0.000000 0.000000 -0.126886
#
#
# Mechanical properties :
#
#
# Convention : Reuss Voigt Hill
#
# Bulk Modulus (GPa) = 18.63525 18.75905 18.69715
# Shear Modulus (GPa) = 473.26281 22.86739 248.06510
#
# Velocity S-wave (km/s) = 14.56090 3.20070 10.54192
# Velocity P-wave (km/s) = 17.05994 4.69716 12.51209
#
# Compressibility (1/GPa) = 0.05366175
#
# Stress axis : x y z
#
# Youngs Moduli (GPa) = 54.88065 68.71353 70.81086
#
# Poissons Ratio (x) = -0.09791 0.02610
# Poissons Ratio (y) = -0.07820 -0.16472
# Poissons Ratio (z) = 0.02023 -0.15984
#
# Static dielectric constant tensor:
#      x y z
#    x 1.781230 0.000000 0.000000 
#    y 0.000000 1.824570 0.000000 
#    z 0.000000 0.000000 1.865780 
# 
# From -- ./inp_files/30144.got.cif
#   From: 2010.05.17/outbox.cif.g08.bks.cpg/sg67_16_cif.got.tgz:30144.got - 2010.06.03 18:28:57.
