data_PCOD9504409
_publ_section_title
;
Structure prediction by ZEFSAII (Michael W. Deem and Ramdas Pophale) SiO2 
 PCOD9504409
Probable space group: C M M A
;
_chemical_formula_sum "Si O2"
_cell_formula_units_Z 96
_cell_length_a 18.136931
_cell_length_b 24.594567
_cell_length_c 10.915704
_cell_angle_alpha 90.000000
_cell_angle_beta 90.000000
_cell_angle_gamma 90.000000
_cell_volume 4869.167697
_symmetry_space_group_name_H-M "C M M A"
_symmetry_group_IT_number 67
_symmetry_cell_setting 'orthorhombic'
loop_
_space_group_symop_operation_xyz
x,y,z
-x,1/2-y,z
x,-y,-z
-x,1/2+y,-z
-x,-y,-z
x,1/2+y,-z
-x,y,z
x,1/2-y,z
1/2+x,1/2+y,z
1/2-x,-y,z
1/2+x,1/2-y,-z
1/2-x,y,-z
1/2-x,1/2-y,-z
1/2+x,y,-z
1/2-x,1/2+y,z
1/2+x,-y,z
loop_
_atom_site_type_symbol
_atom_site_label
_atom_site_fract_x
_atom_site_fract_y
_atom_site_fract_z
Si Si1 0.665006 0.750000 0.550816
Si Si2 0.298988 0.814482 0.155588
Si Si3 0.920390 0.250000 0.787492
Si Si4 0.911865 0.965081 0.622873
Si Si5 0.089054 0.972615 0.128336
Si Si6 0.363555 0.648785 0.923791
Si Si7 0.325439 0.854837 0.426404
O O1 0.750000 0.750000 0.500000
O O2 0.648323 0.750000 0.694111
O O3 0.634012 0.692815 0.502489
O O4 0.304182 0.750000 0.130314
O O5 0.218745 0.836232 0.119317
O O6 0.308381 0.826997 0.297091
O O7 0.358496 0.845541 0.070827
O O8 0.913692 0.196254 0.869149
O O9 0.000000 0.250000 0.723053
O O10 0.871475 0.908292 0.601223
O O11 0.000000 0.043084 0.366697
O O12 0.898443 0.000000 0.500000
O O13 0.886970 0.995799 0.747959
O O14 0.114760 0.910279 0.123437
O O15 0.000000 0.973029 0.129110
O O16 0.113727 0.000000 0.000000
O O17 0.250000 0.868280 0.500000
#
# Coordination Sequence:
#
# PCOD9504409 Si02
#       7
#     8  16   8  16  16  16  16
#     4  10  22  39  62  89 130 171 208 260 336 396
#     4  11  21  40  64  92 128 169 204 253 332 395
#     4  12  24  36  62 100 127 157 218 281 322 388
#     4  10  24  44  63  88 127 171 210 260 325 385
#     4  10  22  42  65  87 121 169 211 256 320 385
#     4  11  21  39  64  93 124 163 205 263 327 387
#     4  11  23  40  66  94 124 166 217 261 312 381
#
# _framework density 19.715895
#
# number of rings (size 3 to 8) (size 9 to 14) (size 15 to 20)
#    0.000    1.333    2.500    4.000    4.667    1.000 
#    0.000    5.833    0.000    0.000    0.000    0.000 
#    0.000    0.000    0.000    0.000    0.000    0.000 
#
# Total GULP energy -267951.767073 kJ/mol
# GULP energy per Si atom -5582.328481 kJ/mol
# Density = 1.967102 g / cm^3
# Si number density = 19.715895 Si / 1000 Ang^3
#
#
#
# Elastic Constant Matrix: (Units=GPa)
#
#
# Indices 1 2 3 4 5 6 
#
# 1 29.4497 33.5611 26.5795 0.0000 0.0000 0.0000
# 2 33.5611 183.4400 62.0038 0.0000 0.0000 0.0000
# 3 26.5795 62.0038 139.9653 0.0000 0.0000 0.0000
# 4 0.0000 0.0000 0.0000 30.3322 0.0000 0.0000
# 5 0.0000 0.0000 0.0000 0.0000 15.7697 0.0000
# 6 0.0000 0.0000 0.0000 0.0000 0.0000 25.6520
#
#
#
# Elastic Compliance Matrix: (Units=1/GPa)
#
#
# Indices 1 2 3 4 5 6 
#
# 1 0.046819 -0.006540 -0.005994 0.000000 0.000000 0.000000
# 2 -0.006540 0.007325 -0.002003 0.000000 0.000000 0.000000
# 3 -0.005994 -0.002003 0.009170 0.000000 0.000000 0.000000
# 4 0.000000 0.000000 0.000000 0.032968 0.000000 0.000000
# 5 0.000000 0.000000 0.000000 0.000000 0.063413 0.000000
# 6 0.000000 0.000000 0.000000 0.000000 0.000000 0.038983
#
#
# Mechanical properties :
#
#
# Convention : Reuss Voigt Hill
#
# Bulk Modulus (GPa) = 29.20515 66.34932 47.77723
# Shear Modulus (GPa) = 20.90614 29.73150 25.31882
#
# Velocity S-wave (km/s) = 3.25986 3.88751 3.58744
# Velocity P-wave (km/s) = 5.38647 7.34003 6.43778
#
# Compressibility (1/GPa) = 0.03424054
#
# Stress axis : x y z
#
# Youngs Moduli (GPa) = 21.35907 136.52146 109.04925
#
# Poissons Ratio (x) = 0.89281 0.65362
# Poissons Ratio (y) = 0.13968 0.21842
# Poissons Ratio (z) = 0.12802 0.27345
#
# Static dielectric constant tensor:
#      x y z
#    x 1.709890 0.000000 0.000000 
#    y 0.000000 1.683520 0.000000 
#    z 0.000000 0.000000 1.823270 
# 
# From -- ./inp_files/20890.got.cif
#   From: 2010.05.17/outbox.cif.g08.bks.cpg/sg67_11_cif.got.tgz:20890.got - 2010.06.03 18:28:57.
