data_PCOD9504160
_publ_section_title
;
Structure prediction by ZEFSAII (Michael W. Deem and Ramdas Pophale) SiO2 
 PCOD9504160
Probable space group: C M M A
;
_chemical_formula_sum "Si O2"
_cell_formula_units_Z 64
_cell_length_a 8.984259
_cell_length_b 18.002723
_cell_length_c 21.484322
_cell_angle_alpha 90.000000
_cell_angle_beta 90.000000
_cell_angle_gamma 90.000000
_cell_volume 3474.898435
_symmetry_space_group_name_H-M "C M M A"
_symmetry_group_IT_number 67
_symmetry_cell_setting 'orthorhombic'
loop_
_space_group_symop_operation_xyz
x,y,z
-x,1/2-y,z
x,-y,-z
-x,1/2+y,-z
-x,-y,-z
x,1/2+y,-z
-x,y,z
x,1/2-y,z
1/2+x,1/2+y,z
1/2-x,-y,z
1/2+x,1/2-y,-z
1/2-x,y,-z
1/2-x,1/2-y,-z
1/2+x,y,-z
1/2-x,1/2+y,z
1/2+x,-y,z
loop_
_atom_site_type_symbol
_atom_site_label
_atom_site_fract_x
_atom_site_fract_y
_atom_site_fract_z
Si Si1 0.676309 0.839371 0.062675
Si Si2 0.677298 0.339426 0.799494
Si Si3 0.674218 0.160488 0.565279
Si Si4 0.822270 0.581135 0.317364
O O1 0.500000 0.850962 0.058924
O O2 0.701179 0.750000 0.063055
O O3 0.725761 0.865197 0.131204
O O4 0.750000 0.869825 0.000000
O O5 0.500000 0.354814 0.792588
O O6 0.693654 0.250000 0.796304
O O7 0.767999 0.377151 0.744757
O O8 0.500000 0.139534 0.566090
O O9 0.682633 0.250000 0.570314
O O10 0.750000 0.138925 0.500000
O O11 0.759466 0.124676 0.622897
O O12 0.750000 0.500000 0.317421
O O13 0.000000 0.576947 0.319607
#
# Coordination Sequence:
#
# PCOD9504160 Si02
#       4
#    16  16  16  16
#     4   8  14  25  44  72 105 138 172 214 264 316
#     4   9  18  34  55  79 109 144 180 221 271 323
#     4  10  21  39  63  89 116 144 176 217 264 315
#     4  12  25  39  56  79 109 145 185 226 270 320
#
# _framework density 18.417805000000001
#
# number of rings (size 3 to 8) (size 9 to 14) (size 15 to 20)
#    0.000    2.250    0.000    5.250    0.000    6.500 
#    0.000    5.000    0.000    0.750    0.000    5.250 
#    0.000    0.000    0.000    0.000    0.000    0.000 
#
# Total GULP energy -178574.307336 kJ/mol
# GULP energy per Si atom -5580.447104 kJ/mol
# Density = 1.837589 g / cm^3
# Si number density = 18.417805 Si / 1000 Ang^3
#
#
#
# Elastic Constant Matrix: (Units=GPa)
#
#
# Indices 1 2 3 4 5 6 
#
# 1 119.5605 34.5733 95.1914 0.0000 0.0000 0.0000
# 2 34.5733 20.9978 44.4863 0.0000 0.0000 0.0000
# 3 95.1914 44.4863 216.3779 0.0000 0.0000 0.0000
# 4 0.0000 0.0000 0.0000 -15.2601 0.0000 0.0000
# 5 0.0000 0.0000 0.0000 0.0000 38.3707 0.0000
# 6 0.0000 0.0000 0.0000 0.0000 0.0000 23.9020
#
#
#
# Elastic Compliance Matrix: (Units=1/GPa)
#
#
# Indices 1 2 3 4 5 6 
#
# 1 0.017038 -0.021568 -0.003061 0.000000 0.000000 0.000000
# 2 -0.021568 0.111678 -0.013472 0.000000 0.000000 0.000000
# 3 -0.003061 -0.013472 0.008738 0.000000 0.000000 0.000000
# 4 0.000000 0.000000 0.000000 -0.065530 0.000000 0.000000
# 5 0.000000 0.000000 0.000000 0.000000 0.026062 0.000000
# 6 0.000000 0.000000 0.000000 0.000000 0.000000 0.041837
#
#
# Mechanical properties :
#
#
# Convention : Reuss Voigt Hill
#
# Bulk Modulus (GPa) = 16.32600 78.38204 47.35402
# Shear Modulus (GPa) = 21.14670 21.58154 21.36412
#
# Velocity S-wave (km/s) = 3.39214 3.42683 3.40953
# Velocity P-wave (km/s) = 4.92195 7.63595 6.42391
#
# Compressibility (1/GPa) = 0.06125198
#
# Stress axis : x y z
#
# Youngs Moduli (GPa) = 58.69197 8.95428 114.44043
#
# Poissons Ratio (x) = 0.19312 0.35034
# Poissons Ratio (y) = 1.26585 1.54177
# Poissons Ratio (z) = 0.17968 0.12063
#
# Static dielectric constant tensor:
#      x y z
#    x 1.611620 0.000000 0.000000 
#    y 0.000000 1.619690 0.000000 
#    z 0.000000 0.000000 1.644690 
# 
# From -- ./inp_files/31746.got.cif
#   From: 2010.05.17/outbox.cif.g08.bks.cpg/sg67_16_cif.got.tgz:31746.got - 2010.06.03 18:28:57.
