data_PCOD9504372
_publ_section_title
;
Structure prediction by ZEFSAII (Michael W. Deem and Ramdas Pophale) SiO2 
 PCOD9504372
Probable space group: C M M A
;
_chemical_formula_sum "Si O2"
_cell_formula_units_Z 100
_cell_length_a 19.192010
_cell_length_b 9.210019
_cell_length_c 29.484643
_cell_angle_alpha 90.000000
_cell_angle_beta 90.000000
_cell_angle_gamma 90.000000
_cell_volume 5211.669430
_symmetry_space_group_name_H-M "C M M A"
_symmetry_group_IT_number 67
_symmetry_cell_setting 'orthorhombic'
loop_
_space_group_symop_operation_xyz
x,y,z
-x,1/2-y,z
x,-y,-z
-x,1/2+y,-z
-x,-y,-z
x,1/2+y,-z
-x,y,z
x,1/2-y,z
1/2+x,1/2+y,z
1/2-x,-y,z
1/2+x,1/2-y,-z
1/2-x,y,-z
1/2-x,1/2-y,-z
1/2+x,y,-z
1/2-x,1/2+y,z
1/2+x,-y,z
loop_
_atom_site_type_symbol
_atom_site_label
_atom_site_fract_x
_atom_site_fract_y
_atom_site_fract_z
Si Si1 0.199571 0.750000 0.440458
Si Si2 0.380009 0.005115 0.399350
Si Si3 0.823525 0.417320 0.304494
Si Si4 0.914961 0.082007 0.954224
Si Si5 0.083271 0.577212 0.229977
Si Si6 0.915288 0.917155 0.863276
Si Si7 0.862377 0.750000 0.535813
Si Si8 0.500000 0.750000 0.609299
O O1 0.185174 0.895082 0.413133
O O2 0.141890 0.750000 0.481370
O O3 0.279656 0.750000 0.454075
O O4 0.440065 0.121763 0.391196
O O5 0.360613 0.923382 0.353408
O O6 0.393813 0.891703 0.440080
O O7 0.812991 0.250000 0.291246
O O8 0.750000 0.500000 0.306444
O O9 0.873366 0.499074 0.269023
O O10 0.893129 0.250000 0.953853
O O11 0.000000 0.081552 0.953991
O O12 0.892029 0.997096 0.909153
O O13 0.893070 0.000000 0.000000
O O14 0.095455 0.750000 0.230048
O O15 0.103072 0.507099 0.181625
O O16 0.000000 0.554707 0.236747
O O17 0.891704 0.750000 0.861075
O O18 0.000000 0.914581 0.864711
#
# Coordination Sequence:
#
# PCOD9504372 Si02
#       8
#     8  16  16  16  16  16   8   4
#     4  10  22  38  69  97 127 154 195 245 305 347
#     4  11  24  42  63  90 127 158 199 241 296 349
#     4  12  26  42  65  91 119 152 194 246 301 357
#     4   9  15  22  35  58  92 137 188 237 291 348
#     4  10  22  38  60  86 116 154 194 241 297 358
#     4   9  16  28  45  68 103 142 188 238 289 350
#     4  11  20  41  67 101 122 156 200 249 293 355
#     4  10  28  44  62  90 124 174 200 240 292 360
#
# _framework density 19.187709999999999
#
# number of rings (size 3 to 8) (size 9 to 14) (size 15 to 20)
#    0.000    1.760    0.800    3.840    5.600    6.400 
#    0.000    6.400    0.000    0.000    0.000    0.000 
#    0.000    0.640    0.000    6.400    0.000    9.920 
#
# Total GULP energy -278637.178655 kJ/mol
# GULP energy per Si atom -5572.743573 kJ/mol
# Density = 1.914404 g / cm^3
# Si number density = 19.187710 Si / 1000 Ang^3
#
#
#
# Elastic Constant Matrix: (Units=GPa)
#
#
# Indices 1 2 3 4 5 6 
#
# 1 46.7258 38.0220 21.1999 0.0000 0.0000 0.0000
# 2 38.0220 170.3722 61.1480 0.0000 0.0000 0.0000
# 3 21.1999 61.1480 130.4400 0.0000 0.0000 0.0000
# 4 0.0000 0.0000 0.0000 31.6950 0.0000 0.0000
# 5 0.0000 0.0000 0.0000 0.0000 7.3445 0.0000
# 6 0.0000 0.0000 0.0000 0.0000 0.0000 -79.5418
#
#
#
# Elastic Compliance Matrix: (Units=1/GPa)
#
#
# Indices 1 2 3 4 5 6 
#
# 1 0.026515 -0.005255 -0.001846 0.000000 0.000000 0.000000
# 2 -0.005255 0.008098 -0.002942 0.000000 0.000000 0.000000
# 3 -0.001846 -0.002942 0.009346 0.000000 0.000000 0.000000
# 4 0.000000 0.000000 0.000000 0.031551 0.000000 0.000000
# 5 0.000000 0.000000 0.000000 0.000000 0.136157 0.000000
# 6 0.000000 0.000000 0.000000 0.000000 0.000000 -0.012572
#
#
# Mechanical properties :
#
#
# Convention : Reuss Voigt Hill
#
# Bulk Modulus (GPa) = 41.88885 65.36419 53.62652
# Shear Modulus (GPa) = 22.01307 7.04408 14.52857
#
# Velocity S-wave (km/s) = 3.39078 1.91810 2.75468
# Velocity P-wave (km/s) = 6.09986 6.24861 6.17468
#
# Compressibility (1/GPa) = 0.02387270
#
# Stress axis : x y z
#
# Youngs Moduli (GPa) = 37.71455 123.48387 107.00150
#
# Poissons Ratio (x) = 0.64888 0.19753
# Poissons Ratio (y) = 0.19818 0.31483
# Poissons Ratio (z) = 0.06962 0.36332
#
# Static dielectric constant tensor:
#      x y z
#    x 1.647050 0.000000 0.000000 
#    y 0.000000 1.654090 0.000000 
#    z 0.000000 0.000000 1.679230 
# 
# From -- ./inp_files/44728.got.cif
#   From: 2010.05.17/outbox.cif.g08.bks.cpg/sg67_23_cif.got.tgz:44728.got - 2010.06.03 18:28:57.
