data_PCOD9504063
_publ_section_title
;
Structure prediction by ZEFSAII (Michael W. Deem and Ramdas Pophale) SiO2 
 PCOD9504063
Probable space group: C M M A
;
_chemical_formula_sum "Si O2"
_cell_formula_units_Z 104
_cell_length_a 20.893594
_cell_length_b 7.975591
_cell_length_c 30.189954
_cell_angle_alpha 90.000000
_cell_angle_beta 90.000000
_cell_angle_gamma 90.000000
_cell_volume 5030.816507
_symmetry_space_group_name_H-M "C M M A"
_symmetry_group_IT_number 67
_symmetry_cell_setting 'orthorhombic'
loop_
_space_group_symop_operation_xyz
x,y,z
-x,1/2-y,z
x,-y,-z
-x,1/2+y,-z
-x,-y,-z
x,1/2+y,-z
-x,y,z
x,1/2-y,z
1/2+x,1/2+y,z
1/2-x,-y,z
1/2+x,1/2-y,-z
1/2-x,y,-z
1/2-x,1/2-y,-z
1/2+x,y,-z
1/2-x,1/2+y,z
1/2+x,-y,z
loop_
_atom_site_type_symbol
_atom_site_label
_atom_site_fract_x
_atom_site_fract_y
_atom_site_fract_z
Si Si1 0.500000 0.450617 0.948702
Si Si2 0.428589 0.047060 0.794310
Si Si3 0.816797 0.951761 0.857456
Si Si4 0.175375 0.947774 0.377620
Si Si5 0.427630 0.951866 0.692485
Si Si6 0.640658 0.047673 0.949130
Si Si7 0.928472 0.450600 0.448607
O O1 0.500000 0.250000 0.942521
O O2 0.430680 0.510502 0.934359
O O3 0.500000 0.500000 0.000000
O O4 0.500000 0.990921 0.806848
O O5 0.428107 0.250000 0.795486
O O6 0.375578 0.985241 0.828350
O O7 0.416494 0.993708 0.743872
O O8 0.821461 0.750000 0.859344
O O9 0.817908 0.015528 0.908204
O O10 0.750000 0.000000 0.836099
O O11 0.178015 0.750000 0.371215
O O12 0.130278 0.018708 0.337899
O O13 0.250000 0.000000 0.379939
O O14 0.131563 0.983573 0.420676
O O15 0.500000 0.013953 0.680923
O O16 0.429303 0.750000 0.687841
O O17 0.641125 0.250000 0.949676
O O18 0.654976 0.000000 0.000000
O O19 0.922294 0.500000 0.500000
O O20 0.928364 0.250000 0.445070
O O21 0.000000 0.511204 0.433740
#
# Coordination Sequence:
#
# PCOD9504063 Si02
#       7
#     8  16  16  16  16  16  16
#     4   8  14  26  46  70  94 120 154 200 248 292
#     4   9  19  36  59  83 105 135 178 224 268 319
#     4  10  22  37  53  76 106 140 174 212 262 317
#     4  11  23  38  57  84 119 157 196 239 289 344
#     4   9  19  37  60  84 111 144 182 227 281 336
#     4   9  18  32  51  74 100 132 169 211 257 308
#     4  10  21  38  61  88 118 155 200 248 295 345
#
# _framework density 20.672588999999999
#
# number of rings (size 3 to 8) (size 9 to 14) (size 15 to 20)
#    0.000    2.462    0.000    1.385    1.077    5.231 
#    0.000    7.692    0.000    0.000    0.000    0.000 
#    0.000    0.000    0.000    0.000    0.000    0.000 
#
# Total GULP energy -289819.374971 kJ/mol
# GULP energy per Si atom -5573.449519 kJ/mol
# Density = 2.062554 g / cm^3
# Si number density = 20.672589 Si / 1000 Ang^3
#
#
#
# Elastic Constant Matrix: (Units=GPa)
#
#
# Indices 1 2 3 4 5 6 
#
# 1 206.8122 14.6644 103.9105 0.0000 0.0000 0.0000
# 2 14.6644 19.2625 2.1954 0.0000 0.0000 0.0000
# 3 103.9105 2.1954 111.9585 0.0000 0.0000 0.0000
# 4 0.0000 0.0000 0.0000 20.9242 0.0000 0.0000
# 5 0.0000 0.0000 0.0000 0.0000 -26.6757 0.0000
# 6 0.0000 0.0000 0.0000 0.0000 0.0000 15.6717
#
#
#
# Elastic Compliance Matrix: (Units=1/GPa)
#
#
# Indices 1 2 3 4 5 6 
#
# 1 0.009797 -0.006436 -0.008966 0.000000 0.000000 0.000000
# 2 -0.006436 0.056259 0.004870 0.000000 0.000000 0.000000
# 3 -0.008966 0.004870 0.017158 0.000000 0.000000 0.000000
# 4 0.000000 0.000000 0.000000 0.047791 0.000000 0.000000
# 5 0.000000 0.000000 0.000000 0.000000 -0.037487 0.000000
# 6 0.000000 0.000000 0.000000 0.000000 0.000000 0.063809
#
#
# Mechanical properties :
#
#
# Convention : Reuss Voigt Hill
#
# Bulk Modulus (GPa) = 16.09016 64.39707 40.24362
# Shear Modulus (GPa) = 25.11200 16.46825 20.79012
#
# Velocity S-wave (km/s) = 3.48911 2.82551 3.17469
# Velocity P-wave (km/s) = 4.90225 6.47018 5.74000
#
# Compressibility (1/GPa) = 0.06214979
#
# Stress axis : x y z
#
# Youngs Moduli (GPa) = 102.07560 17.77487 58.28159
#
# Poissons Ratio (x) = 0.11440 0.52257
# Poissons Ratio (y) = 0.65698 -0.28385
# Poissons Ratio (z) = 0.91523 -0.08657
#
# Static dielectric constant tensor:
#      x y z
#    x 1.802490 0.000000 0.000000 
#    y 0.000000 1.729630 0.000000 
#    z 0.000000 0.000000 1.725820 
# 
# From -- ./inp_files/45872.got.cif
#   From: 2010.05.17/outbox.cif.g08.bks.cpg/sg67_23_cif.got.tgz:45872.got - 2010.06.03 18:28:57.
