data_PCOD9504883
_publ_section_title
;
Structure prediction by ZEFSAII (Michael W. Deem and Ramdas Pophale) SiO2 
 PCOD9504883
Probable space group: C M M A
;
_chemical_formula_sum "Si O2"
_cell_formula_units_Z 96
_cell_length_a 15.053118
_cell_length_b 17.312225
_cell_length_c 19.224853
_cell_angle_alpha 90.000000
_cell_angle_beta 90.000000
_cell_angle_gamma 90.000000
_cell_volume 5010.053708
_symmetry_space_group_name_H-M "C M M A"
_symmetry_group_IT_number 67
_symmetry_cell_setting 'orthorhombic'
loop_
_space_group_symop_operation_xyz
x,y,z
-x,1/2-y,z
x,-y,-z
-x,1/2+y,-z
-x,-y,-z
x,1/2+y,-z
-x,y,z
x,1/2-y,z
1/2+x,1/2+y,z
1/2-x,-y,z
1/2+x,1/2-y,-z
1/2-x,y,-z
1/2-x,1/2-y,-z
1/2+x,y,-z
1/2-x,1/2+y,z
1/2+x,-y,z
loop_
_atom_site_type_symbol
_atom_site_label
_atom_site_fract_x
_atom_site_fract_y
_atom_site_fract_z
Si Si1 0.602081 0.435858 0.857436
Si Si2 0.264630 0.838038 0.235672
Si Si3 0.599937 0.118209 0.144806
Si Si4 0.397729 0.593841 0.499978
Si Si5 0.750289 0.906431 0.388502
Si Si6 0.644036 0.836926 0.009650
O O1 0.500000 0.425796 0.835974
O O2 0.666813 0.392254 0.805144
O O3 0.621063 0.526912 0.858919
O O4 0.614145 0.398716 0.933635
O O5 0.296503 0.750000 0.235688
O O6 0.172909 0.842845 0.192946
O O7 0.250956 0.868410 0.313424
O O8 0.500000 0.128259 0.171698
O O9 0.604472 0.149458 0.066351
O O10 0.400673 0.500000 0.500000
O O11 0.500000 0.621322 0.499690
O O12 0.337179 0.615566 0.433485
O O13 0.337819 0.615561 0.566817
O O14 0.750000 0.000000 0.381974
O O15 0.622660 0.750000 0.034190
O O16 0.750000 0.842497 0.000000
#
# Coordination Sequence:
#
# PCOD9504883 Si02
#       6
#    16  16  16  16  16  16
#     4  11  24  41  62  86 112 150 200 249 294 343
#     4  12  25  40  58  84 121 160 194 236 293 350
#     4  11  24  41  62  86 112 150 200 249 294 343
#     4   8  15  31  58  88 114 144 186 233 278 327
#     4   9  18  34  57  85 115 148 189 235 278 330
#     4  11  22  37  60  89 118 151 188 237 301 357
#
# _framework density 19.161470999999999
#
# number of rings (size 3 to 8) (size 9 to 14) (size 15 to 20)
#    0.000    1.667    1.667    4.500    0.000    6.667 
#    0.000    5.000    0.000    1.000    0.000    0.000 
#    0.000    0.000    0.000    0.000    0.000    0.000 
#
# Total GULP energy -268214.376543 kJ/mol
# GULP energy per Si atom -5587.799511 kJ/mol
# Density = 1.911786 g / cm^3
# Si number density = 19.161471 Si / 1000 Ang^3
#
#
#
# Elastic Constant Matrix: (Units=GPa)
#
#
# Indices 1 2 3 4 5 6 
#
# 1 107.1159 22.2932 34.9211 0.0000 0.0000 0.0000
# 2 22.2932 43.3634 1.8660 0.0000 0.0000 0.0000
# 3 34.9211 1.8660 108.7758 0.0000 0.0000 0.0000
# 4 0.0000 0.0000 0.0000 120.8054 0.0000 0.0000
# 5 0.0000 0.0000 0.0000 0.0000 -349.6208 0.0000
# 6 0.0000 0.0000 0.0000 0.0000 0.0000 -507.5789
#
#
#
# Elastic Compliance Matrix: (Units=1/GPa)
#
#
# Indices 1 2 3 4 5 6 
#
# 1 0.011759 -0.005887 -0.003674 0.000000 0.000000 0.000000
# 2 -0.005887 0.026025 0.001444 0.000000 0.000000 0.000000
# 3 -0.003674 0.001444 0.010348 0.000000 0.000000 0.000000
# 4 0.000000 0.000000 0.000000 0.008278 0.000000 0.000000
# 5 0.000000 0.000000 0.000000 0.000000 -0.002860 0.000000
# 6 0.000000 0.000000 0.000000 0.000000 0.000000 -0.001970
#
#
# Mechanical properties :
#
#
# Convention : Reuss Voigt Hill
#
# Bulk Modulus (GPa) = 31.35101 41.93509 36.64305
# Shear Modulus (GPa) = 63.73753 -133.93386 -35.09816
#
# Velocity S-wave (km/s) = 5.77370 -8.36954 -4.28449
# Velocity P-wave (km/s) = 7.80029 8.45378 2.30455
#
# Compressibility (1/GPa) = 0.03189690
#
# Stress axis : x y z
#
# Youngs Moduli (GPa) = 85.04356 38.42410 96.63755
#
# Poissons Ratio (x) = 0.22621 0.35505
# Poissons Ratio (y) = 0.50066 -0.13950
# Poissons Ratio (z) = 0.31245 -0.05547
#
# Static dielectric constant tensor:
#      x y z
#    x 1.676110 0.000000 0.000000 
#    y 0.000000 1.656670 0.000000 
#    z 0.000000 0.000000 1.626640 
# 
# From -- ./inp_files/38503.got.cif
#   From: 2010.05.17/outbox.cif.g08.bks.cpg/sg67_20_cif.got.tgz:38503.got - 2010.06.03 18:28:57.
