data_PCOD9504821
_publ_section_title
;
Structure prediction by ZEFSAII (Michael W. Deem and Ramdas Pophale) SiO2 
 PCOD9504821
Probable space group: C M M A
;
_chemical_formula_sum "Si O2"
_cell_formula_units_Z 100
_cell_length_a 28.542345
_cell_length_b 21.001422
_cell_length_c 6.958972
_cell_angle_alpha 90.000000
_cell_angle_beta 90.000000
_cell_angle_gamma 90.000000
_cell_volume 4171.415418
_symmetry_space_group_name_H-M "C M M A"
_symmetry_group_IT_number 67
_symmetry_cell_setting 'orthorhombic'
loop_
_space_group_symop_operation_xyz
x,y,z
-x,1/2-y,z
x,-y,-z
-x,1/2+y,-z
-x,-y,-z
x,1/2+y,-z
-x,y,z
x,1/2-y,z
1/2+x,1/2+y,z
1/2-x,-y,z
1/2+x,1/2-y,-z
1/2-x,y,-z
1/2-x,1/2-y,-z
1/2+x,y,-z
1/2-x,1/2+y,z
1/2+x,-y,z
loop_
_atom_site_type_symbol
_atom_site_label
_atom_site_fract_x
_atom_site_fract_y
_atom_site_fract_z
Si Si1 0.303463 0.077224 0.500000
Si Si2 0.911484 0.250000 0.723677
Si Si3 0.628428 0.111464 0.749227
Si Si4 0.628428 0.388536 0.250773
Si Si5 0.000000 0.250000 0.000000
Si Si6 0.303096 0.076425 1.000000
Si Si7 0.053719 0.000000 0.772155
Si Si8 0.911484 0.750000 0.723676
O O1 0.250000 0.100557 0.500000
O O2 0.314330 0.088085 0.751847
O O3 0.356944 0.111597 0.500000
O O4 0.306356 0.000000 0.500000
O O5 0.883434 0.314225 0.768145
O O6 0.921698 0.250000 0.500000
O O7 0.959164 0.250000 0.837282
O O8 0.616566 0.185775 0.768145
O O9 0.584948 0.061988 0.725177
O O10 0.638624 0.098071 1.000000
O O11 0.685670 0.411915 0.248153
O O12 0.584948 0.438012 0.274822
O O13 0.040836 0.250000 0.162718
O O14 0.250000 0.103935 0.000000
O O15 0.301434 0.000000 0.000000
O O16 0.000000 0.000000 0.700475
O O17 0.049715 0.000000 0.000000
#
# Coordination Sequence:
#
# PCOD9504821 Si02
#       8
#    16   8  16  16   4  16  16   8
#     4  11  22  39  69 102 137 187 234 284 357 432
#     4  12  29  49  74 106 153 188 249 307 369 438
#     4  12  22  45  66 102 142 185 234 305 362 432
#     4  12  22  45  66 102 142 185 234 305 362 432
#     4  12  30  52  80 100 134 216 250 294 368 458
#     4  11  21  39  70 106 140 187 249 312 371 438
#     4  11  24  41  70 101 137 180 240 302 363 428
#     4  12  29  49  74 106 153 188 249 307 369 438
#
# _framework density 23.972678999999999
#
# number of rings (size 3 to 8) (size 9 to 14) (size 15 to 20)
#    0.000    0.480    6.400    2.160    2.240    2.560 
#    0.000    6.400    0.000    0.000    0.000    0.000 
#    0.000    0.000    0.000    0.000    0.000    0.000 
#
# Total GULP energy -278613.995582 kJ/mol
# GULP energy per Si atom -5572.279912 kJ/mol
# Density = 2.391812 g / cm^3
# Si number density = 23.972679 Si / 1000 Ang^3
#
#
#
# Elastic Constant Matrix: (Units=GPa)
#
#
# Indices 1 2 3 4 5 6 
#
# 1 241.9815 122.8230 112.3854 0.0000 0.0000 0.0000
# 2 122.8230 172.0235 38.0622 0.0000 0.0000 0.0000
# 3 112.3854 38.0622 244.1564 0.0000 0.0000 0.0000
# 4 0.0000 0.0000 0.0000 82.0682 0.0000 0.0000
# 5 0.0000 0.0000 0.0000 0.0000 75.2371 0.0000
# 6 0.0000 0.0000 0.0000 0.0000 0.0000 143.1726
#
#
#
# Elastic Compliance Matrix: (Units=1/GPa)
#
#
# Indices 1 2 3 4 5 6 
#
# 1 0.008098 -0.005134 -0.002927 0.000000 0.000000 0.000000
# 2 -0.005134 0.009276 0.000917 0.000000 0.000000 0.000000
# 3 -0.002927 0.000917 0.005300 0.000000 0.000000 0.000000
# 4 0.000000 0.000000 0.000000 0.012185 0.000000 0.000000
# 5 0.000000 0.000000 0.000000 0.000000 0.013291 0.000000
# 6 0.000000 0.000000 0.000000 0.000000 0.000000 0.006985
#
#
# Mechanical properties :
#
#
# Convention : Reuss Voigt Hill
#
# Bulk Modulus (GPa) = 119.24849 133.85585 126.55217
# Shear Modulus (GPa) = 69.23427 85.75495 77.49461
#
# Velocity S-wave (km/s) = 5.37989 5.98745 5.69178
# Velocity P-wave (km/s) = 9.40438 10.18614 9.80306
#
# Compressibility (1/GPa) = 0.00838585
#
# Stress axis : x y z
#
# Youngs Moduli (GPa) = 123.48703 107.80503 188.67535
#
# Poissons Ratio (x) = 0.55350 0.55228
# Poissons Ratio (y) = 0.63401 -0.17306
# Poissons Ratio (z) = 0.36146 -0.09888
#
# Static dielectric constant tensor:
#      x y z
#    x 1.827160 0.000000 0.000000 
#    y 0.000000 1.711810 0.000000 
#    z 0.000000 0.000000 2.525810 
# 
# From -- ./inp_files/13838.got.cif
#   From: 2010.05.17/outbox.cif.g08.bks.cpg/sg67_7_cif.got.tgz:13838.got - 2010.06.03 18:28:57.
