data_PCOD9504587
_publ_section_title
;
Structure prediction by ZEFSAII (Michael W. Deem and Ramdas Pophale) SiO2 
 PCOD9504587
Probable space group: C M M A
;
_chemical_formula_sum "Si O2"
_cell_formula_units_Z 80
_cell_length_a 18.234740
_cell_length_b 25.808298
_cell_length_c 8.632750
_cell_angle_alpha 90.000000
_cell_angle_beta 90.000000
_cell_angle_gamma 90.000000
_cell_volume 4062.637792
_symmetry_space_group_name_H-M "C M M A"
_symmetry_group_IT_number 67
_symmetry_cell_setting 'orthorhombic'
loop_
_space_group_symop_operation_xyz
x,y,z
-x,1/2-y,z
x,-y,-z
-x,1/2+y,-z
-x,-y,-z
x,1/2+y,-z
-x,y,z
x,1/2-y,z
1/2+x,1/2+y,z
1/2-x,-y,z
1/2+x,1/2-y,-z
1/2-x,y,-z
1/2-x,1/2-y,-z
1/2+x,y,-z
1/2-x,1/2+y,z
1/2+x,-y,z
loop_
_atom_site_type_symbol
_atom_site_label
_atom_site_fract_x
_atom_site_fract_y
_atom_site_fract_z
Si Si1 0.182993 0.370724 0.596257
Si Si2 0.178602 0.029339 0.777659
Si Si3 0.916846 0.594777 0.983923
Si Si4 0.585274 0.560370 0.370648
Si Si5 0.671912 0.310987 0.087792
O O1 0.250000 0.348283 0.500000
O O2 0.210868 0.422223 0.683169
O O3 0.120836 0.396641 0.485976
O O4 0.166510 0.330697 0.733989
O O5 0.130587 0.054765 0.913658
O O6 0.250000 0.000000 0.833510
O O7 0.130109 0.993145 0.663529
O O8 0.886550 0.652262 0.005693
O O9 0.000000 0.590145 0.039782
O O10 0.913619 0.582528 0.803662
O O11 0.500000 0.551454 0.413464
O O12 0.658089 0.250000 0.078116
O O13 0.750000 0.321035 0.000000
#
# Coordination Sequence:
#
# PCOD9504587 Si02
#       5
#    16  16  16  16  16
#     4  11  22  38  59  89 126 159 202 255 311 377
#     4  11  22  36  60  92 128 173 216 250 299 368
#     4  10  23  41  62  92 127 166 215 264 309 367
#     4  11  23  38  58  89 131 171 207 251 306 373
#     4  10  23  43  68  92 115 156 212 267 324 381
#
# _framework density 19.69164
#
# number of rings (size 3 to 8) (size 9 to 14) (size 15 to 20)
#    0.000    1.400    2.000    3.000    2.800    8.000 
#    0.000    1.000    0.000    1.200    0.000    0.000 
#    0.000    0.000    0.000    0.000    0.000    0.000 
#
# Total GULP energy -223197.164173 kJ/mol
# GULP energy per Si atom -5579.929104 kJ/mol
# Density = 1.964682 g / cm^3
# Si number density = 19.691640 Si / 1000 Ang^3
#
#
#
# Elastic Constant Matrix: (Units=GPa)
#
#
# Indices 1 2 3 4 5 6 
#
# 1 98.8146 45.5960 32.2995 0.0000 0.0000 0.0000
# 2 45.5960 101.8432 36.2797 0.0000 0.0000 0.0000
# 3 32.2995 36.2797 91.5353 0.0000 0.0000 0.0000
# 4 0.0000 0.0000 0.0000 17.5815 0.0000 0.0000
# 5 0.0000 0.0000 0.0000 0.0000 27.2429 0.0000
# 6 0.0000 0.0000 0.0000 0.0000 0.0000 17.2029
#
#
#
# Elastic Compliance Matrix: (Units=1/GPa)
#
#
# Indices 1 2 3 4 5 6 
#
# 1 0.013312 -0.004991 -0.002719 0.000000 0.000000 0.000000
# 2 -0.004991 0.013305 -0.003512 0.000000 0.000000 0.000000
# 3 -0.002719 -0.003512 0.013276 0.000000 0.000000 0.000000
# 4 0.000000 0.000000 0.000000 0.056878 0.000000 0.000000
# 5 0.000000 0.000000 0.000000 0.000000 0.036707 0.000000
# 6 0.000000 0.000000 0.000000 0.000000 0.000000 0.058130
#
#
# Mechanical properties :
#
#
# Convention : Reuss Voigt Hill
#
# Bulk Modulus (GPa) = 57.31266 57.83818 57.57542
# Shear Modulus (GPa) = 22.74094 24.27332 23.50713
#
# Velocity S-wave (km/s) = 3.40200 3.51475 3.45883
# Velocity P-wave (km/s) = 6.67830 6.77547 6.72706
#
# Compressibility (1/GPa) = 0.01744815
#
# Stress axis : x y z
#
# Youngs Moduli (GPa) = 75.12122 75.16125 75.32280
#
# Poissons Ratio (x) = 0.37515 0.20480
# Poissons Ratio (y) = 0.37495 0.26454
# Poissons Ratio (z) = 0.20426 0.26397
#
# Static dielectric constant tensor:
#      x y z
#    x 1.703900 0.000000 0.000000 
#    y 0.000000 1.665270 0.000000 
#    z 0.000000 0.000000 1.767240 
# 
# From -- ./inp_files/9977.got.cif
#   From: 2010.05.17/outbox.cif.g08.bks.cpg/sg67_5_cif.got.tgz:9977.got - 2010.06.03 18:28:57.
