data_PCOD9504916
_publ_section_title
;
Structure prediction by ZEFSAII (Michael W. Deem and Ramdas Pophale) SiO2 
 PCOD9504916
Probable space group: C M M A
;
_chemical_formula_sum "Si O2"
_cell_formula_units_Z 56
_cell_length_a 14.739588
_cell_length_b 8.595374
_cell_length_c 21.167021
_cell_angle_alpha 90.000000
_cell_angle_beta 90.000000
_cell_angle_gamma 90.000000
_cell_volume 2681.697971
_symmetry_space_group_name_H-M "C M M A"
_symmetry_group_IT_number 67
_symmetry_cell_setting 'orthorhombic'
loop_
_space_group_symop_operation_xyz
x,y,z
-x,1/2-y,z
x,-y,-z
-x,1/2+y,-z
-x,-y,-z
x,1/2+y,-z
-x,y,z
x,1/2-y,z
1/2+x,1/2+y,z
1/2-x,-y,z
1/2+x,1/2-y,-z
1/2-x,y,-z
1/2-x,1/2-y,-z
1/2+x,y,-z
1/2-x,1/2+y,z
1/2+x,-y,z
loop_
_atom_site_type_symbol
_atom_site_label
_atom_site_fract_x
_atom_site_fract_y
_atom_site_fract_z
Si Si1 0.353352 0.062792 0.797484
Si Si2 0.852472 0.064295 0.665325
Si Si3 0.353383 0.436270 0.935235
Si Si4 0.000000 0.935756 0.570786
O O1 0.353600 0.250000 0.792014
O O2 0.393133 0.021503 0.866415
O O3 0.250000 0.000000 0.799174
O O4 0.391313 0.991269 0.733260
O O5 0.851142 0.250000 0.663646
O O6 0.750000 0.000000 0.660382
O O7 0.913355 0.997469 0.609442
O O8 0.351161 0.250000 0.938911
O O9 0.250000 0.500000 0.934268
O O10 0.395144 0.500000 0.000000
O O11 0.000000 0.750000 0.570149
O O12 0.000000 0.000000 0.500000
#
# Coordination Sequence:
#
# PCOD9504916 Si02
#       4
#    16  16  16   8
#     4   9  16  27  44  70 103 144 190 239 289 342
#     4  11  22  39  63  92 123 160 201 244 294 350
#     4   9  15  21  33  56  92 135 182 232 286 338
#     4  12  26  46  68  94 125 156 193 240 290 350
#
# _framework density 20.882292
#
# number of rings (size 3 to 8) (size 9 to 14) (size 15 to 20)
#    0.000    2.000    0.000    8.143    0.000    4.000 
#    0.000    2.857    0.000    0.000    0.000    1.000 
#    0.000    0.000    0.000    0.857    0.000    0.286 
#
# Total GULP energy -156338.830397 kJ/mol
# GULP energy per Si atom -5583.529657 kJ/mol
# Density = 2.083476 g / cm^3
# Si number density = 20.882292 Si / 1000 Ang^3
#
#
#
# Elastic Constant Matrix: (Units=GPa)
#
#
# Indices 1 2 3 4 5 6 
#
# 1 97.1823 35.2308 67.8743 0.0000 0.0000 0.0000
# 2 35.2308 165.4331 99.0639 0.0000 0.0000 0.0000
# 3 67.8743 99.0639 268.3282 0.0000 0.0000 0.0000
# 4 0.0000 0.0000 0.0000 43.4066 0.0000 0.0000
# 5 0.0000 0.0000 0.0000 0.0000 157.7561 0.0000
# 6 0.0000 0.0000 0.0000 0.0000 0.0000 11.2229
#
#
#
# Elastic Compliance Matrix: (Units=1/GPa)
#
#
# Indices 1 2 3 4 5 6 
#
# 1 0.012625 -0.000997 -0.002825 0.000000 0.000000 0.000000
# 2 -0.000997 0.007839 -0.002642 0.000000 0.000000 0.000000
# 3 -0.002825 -0.002642 0.005417 0.000000 0.000000 0.000000
# 4 0.000000 0.000000 0.000000 0.023038 0.000000 0.000000
# 5 0.000000 0.000000 0.000000 0.000000 0.006339 0.000000
# 6 0.000000 0.000000 0.000000 0.000000 0.000000 0.089103
#
#
# Mechanical properties :
#
#
# Convention : Reuss Voigt Hill
#
# Bulk Modulus (GPa) = 77.20595 103.92017 90.56306
# Shear Modulus (GPa) = 30.93938 64.39545 47.66741
#
# Velocity S-wave (km/s) = 3.85334 5.55916 4.78291
# Velocity P-wave (km/s) = 7.53989 9.54351 8.60024
#
# Compressibility (1/GPa) = 0.01295237
#
# Stress axis : x y z
#
# Youngs Moduli (GPa) = 79.21031 127.56655 184.60765
#
# Poissons Ratio (x) = 0.12713 0.52161
# Poissons Ratio (y) = 0.07894 0.48773
# Poissons Ratio (z) = 0.22381 0.33703
#
# Static dielectric constant tensor:
#      x y z
#    x 1.843120 0.000000 0.000000 
#    y 0.000000 1.688740 0.000000 
#    z 0.000000 0.000000 1.787570 
# 
# From -- ./inp_files/36556.got.cif
#   From: 2010.05.17/outbox.cif.g08.bks.cpg/sg67_19_cif.got.tgz:36556.got - 2010.06.03 18:28:57.
