data_PCOD9504006
_publ_section_title
;
Structure prediction by ZEFSAII (Michael W. Deem and Ramdas Pophale) SiO2 
 PCOD9504006
Probable space group: C M M A
;
_chemical_formula_sum "Si O2"
_cell_formula_units_Z 112
_cell_length_a 14.797352
_cell_length_b 28.231726
_cell_length_c 12.194845
_cell_angle_alpha 90.000000
_cell_angle_beta 90.000000
_cell_angle_gamma 90.000000
_cell_volume 5094.454878
_symmetry_space_group_name_H-M "C M M A"
_symmetry_group_IT_number 67
_symmetry_cell_setting 'orthorhombic'
loop_
_space_group_symop_operation_xyz
x,y,z
-x,1/2-y,z
x,-y,-z
-x,1/2+y,-z
-x,-y,-z
x,1/2+y,-z
-x,y,z
x,1/2-y,z
1/2+x,1/2+y,z
1/2-x,-y,z
1/2+x,1/2-y,-z
1/2-x,y,-z
1/2-x,1/2-y,-z
1/2+x,y,-z
1/2-x,1/2+y,z
1/2+x,-y,z
loop_
_atom_site_type_symbol
_atom_site_label
_atom_site_fract_x
_atom_site_fract_y
_atom_site_fract_z
Si Si1 0.895119 0.666131 0.684822
Si Si2 0.892269 0.110895 0.516149
Si Si3 0.606685 0.449617 0.292336
Si Si4 0.199437 0.802245 0.356231
Si Si5 0.609276 0.353730 0.163373
Si Si6 0.650542 0.980134 0.111459
Si Si7 0.893273 0.373929 0.079154
O O1 0.882617 0.617220 0.614378
O O2 0.808214 0.695951 0.648718
O O3 0.884530 0.657999 0.813935
O O4 0.000000 0.681938 0.664527
O O5 0.859666 0.065116 0.585573
O O6 0.841633 0.155906 0.569339
O O7 0.000000 0.116723 0.535622
O O8 0.500000 0.447094 0.301769
O O9 0.633763 0.405631 0.213098
O O10 0.620524 0.498389 0.227888
O O11 0.170086 0.750000 0.391228
O O12 0.159289 0.815177 0.236945
O O13 0.500000 0.348289 0.172820
O O14 0.636628 0.352764 0.036510
O O15 0.650764 0.924153 0.104076
O O16 0.750000 0.000000 0.106196
O O17 0.603202 0.000000 0.000000
O O18 0.000000 0.384335 0.065624
#
# Coordination Sequence:
#
# PCOD9504006 Si02
#       7
#    16  16  16  16  16  16  16
#     4  10  23  41  59  82 117 160 202 239 287 357
#     4   9  20  39  62  87 116 153 194 242 299 354
#     4   9  17  33  55  79 112 150 189 237 290 334
#     4  11  23  38  63  92 115 146 193 249 305 355
#     4   9  19  36  60  88 119 153 189 237 298 356
#     4  11  22  30  50  88 122 151 194 246 288 339
#     4  10  21  38  59  83 117 162 200 237 291 353
#
# _framework density 21.984687999999998
#
# number of rings (size 3 to 8) (size 9 to 14) (size 15 to 20)
#    0.000    2.143    1.429    2.143    4.000    3.714 
#    0.000    3.571    0.000    6.857    0.000    0.000 
#    0.000    0.000    0.000    0.000    0.000    0.000 
#
# Total GULP energy -312123.829305 kJ/mol
# GULP energy per Si atom -5573.639809 kJ/mol
# Density = 2.193465 g / cm^3
# Si number density = 21.984688 Si / 1000 Ang^3
#
#
#
# Elastic Constant Matrix: (Units=GPa)
#
#
# Indices 1 2 3 4 5 6 
#
# 1 46.1088 0.5563 13.4834 0.0000 0.0000 0.0000
# 2 0.5563 32.0882 5.4577 0.0000 0.0000 0.0000
# 3 13.4834 5.4577 123.7121 0.0000 0.0000 0.0000
# 4 0.0000 0.0000 0.0000 10.7528 0.0000 0.0000
# 5 0.0000 0.0000 0.0000 0.0000 10.1568 0.0000
# 6 0.0000 0.0000 0.0000 0.0000 0.0000 -31.2966
#
#
#
# Elastic Compliance Matrix: (Units=1/GPa)
#
#
# Indices 1 2 3 4 5 6 
#
# 1 0.022402 0.000027 -0.002443 0.000000 0.000000 0.000000
# 2 0.000027 0.031400 -0.001388 0.000000 0.000000 0.000000
# 3 -0.002443 -0.001388 0.008411 0.000000 0.000000 0.000000
# 4 0.000000 0.000000 0.000000 0.092999 0.000000 0.000000
# 5 0.000000 0.000000 0.000000 0.000000 0.098456 0.000000
# 6 0.000000 0.000000 0.000000 0.000000 0.000000 -0.031952
#
#
# Mechanical properties :
#
#
# Convention : Reuss Voigt Hill
#
# Bulk Modulus (GPa) = 18.31348 26.76711 22.54029
# Shear Modulus (GPa) = 20.20000 10.08337 15.14168
#
# Velocity S-wave (km/s) = 3.03450 2.14394 2.62723
# Velocity P-wave (km/s) = 4.54156 4.28141 4.41340
#
# Compressibility (1/GPa) = 0.05460459
#
# Stress axis : x y z
#
# Youngs Moduli (GPa) = 44.63919 31.84744 118.89526
#
# Poissons Ratio (x) = -0.00086 0.29043
# Poissons Ratio (y) = -0.00121 0.16505
# Poissons Ratio (z) = 0.10904 0.04421
#
# Static dielectric constant tensor:
#      x y z
#    x 1.812150 0.000000 0.000000 
#    y 0.000000 1.818270 0.000000 
#    z 0.000000 0.000000 1.947620 
# 
# From -- ./inp_files/18566.got.cif
#   From: 2010.05.17/outbox.cif.g08.bks.cpg/sg67_10_cif.got.tgz:18566.got - 2010.06.03 18:28:57.
