data_PCOD9504919
_publ_section_title
;
Structure prediction by ZEFSAII (Michael W. Deem and Ramdas Pophale) SiO2 
 PCOD9504919
Probable space group: C M M A
;
_chemical_formula_sum "Si O2"
_cell_formula_units_Z 64
_cell_length_a 10.331594
_cell_length_b 32.869791
_cell_length_c 10.076057
_cell_angle_alpha 90.000000
_cell_angle_beta 90.000000
_cell_angle_gamma 90.000000
_cell_volume 3421.802109
_symmetry_space_group_name_H-M "C M M A"
_symmetry_group_IT_number 67
_symmetry_cell_setting 'orthorhombic'
loop_
_space_group_symop_operation_xyz
x,y,z
-x,1/2-y,z
x,-y,-z
-x,1/2+y,-z
-x,-y,-z
x,1/2+y,-z
-x,y,z
x,1/2-y,z
1/2+x,1/2+y,z
1/2-x,-y,z
1/2+x,1/2-y,-z
1/2-x,y,-z
1/2-x,1/2-y,-z
1/2+x,y,-z
1/2-x,1/2+y,z
1/2+x,-y,z
loop_
_atom_site_type_symbol
_atom_site_label
_atom_site_fract_x
_atom_site_fract_y
_atom_site_fract_z
Si Si1 0.250000 0.656832 0.500000
Si Si2 0.000000 0.957997 0.675397
Si Si3 0.000000 0.446575 0.643145
Si Si4 0.250000 0.849682 0.000000
Si Si5 0.000000 0.298487 0.933371
Si Si6 0.737131 0.903459 0.263828
Si Si7 0.000000 0.201969 0.615154
O O1 0.296730 0.628200 0.380405
O O2 0.129052 0.682605 0.446788
O O3 0.000000 0.947934 0.517382
O O4 0.126825 0.937665 0.738029
O O5 0.000000 0.006534 0.688568
O O6 0.873298 0.423653 0.695784
O O7 0.253613 0.878507 0.128414
O O8 0.125328 0.820693 0.008118
O O9 0.000000 0.304928 0.773862
O O10 0.000000 0.250000 0.958284
O O11 0.000000 0.250000 0.591337
#
# Coordination Sequence:
#
# PCOD9504919 Si02
#       7
#     8   8   8   8   8  16   8
#     4  12  21  42  67  94 128 166 216 260 323 376
#     4  11  22  39  64  97 122 165 211 258 314 381
#     4  11  22  40  64  92 130 161 207 264 320 367
#     4  12  25  44  65  94 128 170 214 260 317 380
#     4  11  24  45  65  92 130 171 213 262 321 381
#     4  12  23  40  64  93 124 165 212 257 310 376
#     4  11  24  42  65  97 132 164 206 270 327 376
#
# _framework density 18.703593999999999
#
# number of rings (size 3 to 8) (size 9 to 14) (size 15 to 20)
#    0.000    0.500    5.000    4.500    0.000    2.000 
#    0.000    5.000    0.000    0.000    0.000    0.000 
#    0.000    0.000    0.000    0.000    0.000    0.000 
#
# Total GULP energy -179049.576478 kJ/mol
# GULP energy per Si atom -5595.299265 kJ/mol
# Density = 1.866102 g / cm^3
# Si number density = 18.703594 Si / 1000 Ang^3
#
#
#
# Elastic Constant Matrix: (Units=GPa)
#
#
# Indices 1 2 3 4 5 6 
#
# 1 149.4747 69.9591 11.7998 0.0000 0.0000 0.0000
# 2 69.9591 138.3758 52.0032 0.0000 0.0000 0.0000
# 3 11.7998 52.0032 83.8803 0.0000 0.0000 0.0000
# 4 0.0000 0.0000 0.0000 28.9562 0.0000 0.0000
# 5 0.0000 0.0000 0.0000 0.0000 18.6554 0.0000
# 6 0.0000 0.0000 0.0000 0.0000 0.0000 56.1602
#
#
#
# Elastic Compliance Matrix: (Units=1/GPa)
#
#
# Indices 1 2 3 4 5 6 
#
# 1 0.009022 -0.005325 0.002032 0.000000 0.000000 0.000000
# 2 -0.005325 0.012565 -0.007041 0.000000 0.000000 0.000000
# 3 0.002032 -0.007041 0.016001 0.000000 0.000000 0.000000
# 4 0.000000 0.000000 0.000000 0.034535 0.000000 0.000000
# 5 0.000000 0.000000 0.000000 0.000000 0.053604 0.000000
# 6 0.000000 0.000000 0.000000 0.000000 0.000000 0.017806
#
#
# Mechanical properties :
#
#
# Convention : Reuss Voigt Hill
#
# Bulk Modulus (GPa) = 59.09948 71.02834 65.06391
# Shear Modulus (GPa) = 29.43952 36.61895 33.02923
#
# Velocity S-wave (km/s) = 3.97167 4.42957 4.20686
# Velocity P-wave (km/s) = 7.25939 8.01372 7.64586
#
# Compressibility (1/GPa) = 0.01692062
#
# Stress axis : x y z
#
# Youngs Moduli (GPa) = 110.84108 79.58722 62.49642
#
# Poissons Ratio (x) = 0.42380 -0.12700
# Poissons Ratio (y) = 0.59022 0.44002
# Poissons Ratio (z) = -0.22525 0.56035
#
# Static dielectric constant tensor:
#      x y z
#    x 1.629130 0.000000 0.000000 
#    y 0.000000 1.625160 0.000000 
#    z 0.000000 0.000000 1.625350 
# 
# From -- ./inp_files/15896.got.cif
#   From: 2010.05.17/outbox.cif.g08.bks.cpg/sg67_8_cif.got.tgz:15896.got - 2010.06.03 18:28:57.
