data_PCOD9504651
_publ_section_title
;
Structure prediction by ZEFSAII (Michael W. Deem and Ramdas Pophale) SiO2 
 PCOD9504651
Probable space group: C M M A
;
_chemical_formula_sum "Si O2"
_cell_formula_units_Z 104
_cell_length_a 22.148156
_cell_length_b 26.804746
_cell_length_c 9.164671
_cell_angle_alpha 90.000000
_cell_angle_beta 90.000000
_cell_angle_gamma 90.000000
_cell_volume 5440.842434
_symmetry_space_group_name_H-M "C M M A"
_symmetry_group_IT_number 67
_symmetry_cell_setting 'orthorhombic'
loop_
_space_group_symop_operation_xyz
x,y,z
-x,1/2-y,z
x,-y,-z
-x,1/2+y,-z
-x,-y,-z
x,1/2+y,-z
-x,y,z
x,1/2-y,z
1/2+x,1/2+y,z
1/2-x,-y,z
1/2+x,1/2-y,-z
1/2-x,y,-z
1/2-x,1/2-y,-z
1/2+x,y,-z
1/2-x,1/2+y,z
1/2+x,-y,z
loop_
_atom_site_type_symbol
_atom_site_label
_atom_site_fract_x
_atom_site_fract_y
_atom_site_fract_z
Si Si1 0.933770 0.941550 0.029552
Si Si2 0.651527 0.250000 0.444755
Si Si3 0.356541 0.500000 0.500000
Si Si4 0.230295 0.250000 0.260279
Si Si5 0.267213 0.861938 0.167363
Si Si6 0.430213 0.346544 0.464996
Si Si7 0.154306 0.915833 0.284529
Si Si8 0.110269 0.588282 0.719416
O O1 0.876554 0.931935 0.133297
O O2 0.000000 0.926378 0.089968
O O3 0.923890 0.918414 0.870835
O O4 0.935399 0.000000 0.000000
O O5 0.700635 0.250000 0.316286
O O6 0.688673 0.250000 0.595891
O O7 0.609233 0.202166 0.440565
O O8 0.324786 0.538496 0.611687
O O9 0.389278 0.461819 0.616462
O O10 0.219700 0.197352 0.179300
O O11 0.208668 0.877713 0.260361
O O12 0.322415 0.893871 0.234254
O O13 0.250000 0.874092 0.000000
O O14 0.500000 0.338224 0.435010
O O15 0.400688 0.388913 0.365372
O O16 0.419923 0.367854 0.626678
#
# Coordination Sequence:
#
# PCOD9504651 Si02
#       8
#    16   8   8   8  16  16  16  16
#     4  11  22  41  63  87 126 171 214 255 295 365
#     4  11  21  38  68  90 121 161 210 250 324 367
#     4  10  24  39  59  90 132 152 205 257 298 374
#     4  11  23  42  62  94 121 159 204 268 304 386
#     4  12  24  41  69  87 124 163 207 264 316 366
#     4  11  23  40  63  93 129 164 206 258 308 373
#     4  11  23  41  62  94 123 168 209 252 314 363
#     4  11  23  41  62  94 123 168 209 252 314 363
#
# _framework density 19.114687
#
# number of rings (size 3 to 8) (size 9 to 14) (size 15 to 20)
#    0.000    0.923    6.154    1.385    0.000    3.692 
#    0.000    3.846    0.000    0.000    0.000    6.462 
#    0.000    0.000    0.000    0.000    0.000    0.000 
#
# Total GULP energy -290000.353544 kJ/mol
# GULP energy per Si atom -5576.929876 kJ/mol
# Density = 1.907118 g / cm^3
# Si number density = 19.114687 Si / 1000 Ang^3
#
#
#
# Elastic Constant Matrix: (Units=GPa)
#
#
# Indices 1 2 3 4 5 6 
#
# 1 103.1605 19.2845 5.6507 0.0000 0.0000 0.0000
# 2 19.2845 83.6601 15.9826 0.0000 0.0000 0.0000
# 3 5.6507 15.9826 67.1191 0.0000 0.0000 0.0000
# 4 0.0000 0.0000 0.0000 25.0764 0.0000 0.0000
# 5 0.0000 0.0000 0.0000 0.0000 27.7992 0.0000
# 6 0.0000 0.0000 0.0000 0.0000 0.0000 45.8317
#
#
#
# Elastic Compliance Matrix: (Units=1/GPa)
#
#
# Indices 1 2 3 4 5 6 
#
# 1 0.010136 -0.002277 -0.000311 0.000000 0.000000 0.000000
# 2 -0.002277 0.013034 -0.002912 0.000000 0.000000 0.000000
# 3 -0.000311 -0.002912 0.015619 0.000000 0.000000 0.000000
# 4 0.000000 0.000000 0.000000 0.039878 0.000000 0.000000
# 5 0.000000 0.000000 0.000000 0.000000 0.035972 0.000000
# 6 0.000000 0.000000 0.000000 0.000000 0.000000 0.021819
#
#
# Mechanical properties :
#
#
# Convention : Reuss Voigt Hill
#
# Bulk Modulus (GPa) = 35.98597 37.30837 36.64717
# Shear Modulus (GPa) = 31.90362 33.94292 32.92327
#
# Velocity S-wave (km/s) = 4.08985 4.21854 4.15469
# Velocity P-wave (km/s) = 6.41636 6.57941 6.49840
#
# Compressibility (1/GPa) = 0.02778861
#
# Stress axis : x y z
#
# Youngs Moduli (GPa) = 98.65482 76.72035 64.02655
#
# Poissons Ratio (x) = 0.17470 0.01992
# Poissons Ratio (y) = 0.22465 0.18645
# Poissons Ratio (z) = 0.03070 0.22341
#
# Static dielectric constant tensor:
#      x y z
#    x 1.660210 0.000000 0.000000 
#    y 0.000000 1.659760 0.000000 
#    z 0.000000 0.000000 2.352020 
# 
# From -- ./inp_files/11611.got.cif
#   From: 2010.05.17/outbox.cif.g08.bks.cpg/sg67_6_cif.got.tgz:11611.got - 2010.06.03 18:28:57.
