data_PCOD9504179
_publ_section_title
;
Structure prediction by ZEFSAII (Michael W. Deem and Ramdas Pophale) SiO2 
 PCOD9504179
Probable space group: C M M A
;
_chemical_formula_sum "Si O2"
_cell_formula_units_Z 68
_cell_length_a 9.770261
_cell_length_b 21.327562
_cell_length_c 15.884196
_cell_angle_alpha 90.000000
_cell_angle_beta 90.000000
_cell_angle_gamma 90.000000
_cell_volume 3309.882799
_symmetry_space_group_name_H-M "C M M A"
_symmetry_group_IT_number 67
_symmetry_cell_setting 'orthorhombic'
loop_
_space_group_symop_operation_xyz
x,y,z
-x,1/2-y,z
x,-y,-z
-x,1/2+y,-z
-x,-y,-z
x,1/2+y,-z
-x,y,z
x,1/2-y,z
1/2+x,1/2+y,z
1/2-x,-y,z
1/2+x,1/2-y,-z
1/2-x,y,-z
1/2-x,1/2-y,-z
1/2+x,y,-z
1/2-x,1/2+y,z
1/2+x,-y,z
loop_
_atom_site_type_symbol
_atom_site_label
_atom_site_fract_x
_atom_site_fract_y
_atom_site_fract_z
Si Si1 0.651087 0.114463 0.078736
Si Si2 0.250000 0.000000 0.190058
Si Si3 0.236303 0.250000 0.896872
Si Si4 0.000000 0.439822 0.562008
Si Si5 0.000000 0.250000 0.223067
Si Si6 0.500000 0.965709 0.299214
Si Si7 0.500000 0.836136 0.384370
Si Si8 0.250000 0.357131 0.500000
O O1 0.500000 0.110697 0.043547
O O2 0.667091 0.182826 0.121887
O O3 0.679109 0.054620 0.136341
O O4 0.750000 0.111733 0.000000
O O5 0.363937 0.964543 0.244500
O O6 0.372577 0.250000 0.840578
O O7 0.250000 0.250000 0.000000
O O8 0.000000 0.500000 0.500000
O O9 0.860928 0.400140 0.549020
O O10 0.000000 0.467929 0.654433
O O11 0.000000 0.306367 0.291406
O O12 0.500000 0.910299 0.366967
O O13 0.641087 0.822470 0.436809
#
# Coordination Sequence:
#
# PCOD9504179 Si02
#       8
#    16   8   8   8   4   8   8   8
#     4  11  25  44  70  97 132 180 228 284 349 425
#     4  12  25  40  59 100 146 172 224 282 363 410
#     4  10  25  44  78  98 132 175 243 285 346 426
#     4  11  20  34  62  90 131 165 225 258 326 397
#     4  12  26  48  70 104 132 180 228 292 358 412
#     4  12  23  36  61  92 132 180 216 282 336 402
#     4  11  24  41  70  94 138 179 230 287 344 410
#     4  10  21  39  64 100 128 179 222 275 336 412
#
# _framework density 20.544533999999999
#
# number of rings (size 3 to 8) (size 9 to 14) (size 15 to 20)
#    0.000    0.941    3.529    3.882    8.235    1.412 
#    0.000    0.000    5.176    0.000    0.000    0.000 
#    0.000    0.000    0.000    0.000    0.000    0.000 
#
# Total GULP energy -189607.845324 kJ/mol
# GULP energy per Si atom -5576.701333 kJ/mol
# Density = 2.049777 g / cm^3
# Si number density = 20.544534 Si / 1000 Ang^3
#
#
#
# Elastic Constant Matrix: (Units=GPa)
#
#
# Indices 1 2 3 4 5 6 
#
# 1 192.7209 26.5161 57.4017 0.0000 0.0000 0.0000
# 2 26.5161 105.1369 21.2372 0.0000 0.0000 0.0000
# 3 57.4017 21.2372 80.7820 0.0000 0.0000 0.0000
# 4 0.0000 0.0000 0.0000 18.6598 0.0000 0.0000
# 5 0.0000 0.0000 0.0000 0.0000 47.1999 0.0000
# 6 0.0000 0.0000 0.0000 0.0000 0.0000 9.6434
#
#
#
# Elastic Compliance Matrix: (Units=1/GPa)
#
#
# Indices 1 2 3 4 5 6 
#
# 1 0.006639 -0.000762 -0.004517 0.000000 0.000000 0.000000
# 2 -0.000762 0.010132 -0.002122 0.000000 0.000000 0.000000
# 3 -0.004517 -0.002122 0.016147 0.000000 0.000000 0.000000
# 4 0.000000 0.000000 0.000000 0.053591 0.000000 0.000000
# 5 0.000000 0.000000 0.000000 0.000000 0.021186 0.000000
# 6 0.000000 0.000000 0.000000 0.000000 0.000000 0.103698
#
#
# Mechanical properties :
#
#
# Convention : Reuss Voigt Hill
#
# Bulk Modulus (GPa) = 55.20246 65.43887 60.32066
# Shear Modulus (GPa) = 21.52986 33.33294 27.43140
#
# Velocity S-wave (km/s) = 3.24073 4.03236 3.65803
# Velocity P-wave (km/s) = 6.39774 7.32129 6.87504
#
# Compressibility (1/GPa) = 0.01811514
#
# Stress axis : x y z
#
# Youngs Moduli (GPa) = 150.62133 98.69459 61.93160
#
# Poissons Ratio (x) = 0.07520 0.27976
# Poissons Ratio (y) = 0.11477 0.13144
# Poissons Ratio (z) = 0.68040 0.20946
#
# Static dielectric constant tensor:
#      x y z
#    x 1.698360 0.000000 0.000000 
#    y 0.000000 1.801130 0.000000 
#    z 0.000000 0.000000 1.725110 
# 
# From -- ./inp_files/31870.got.cif
#   From: 2010.05.17/outbox.cif.g08.bks.cpg/sg67_16_cif.got.tgz:31870.got - 2010.06.03 18:28:57.
