data_PCOD9504477
_publ_section_title
;
Structure prediction by ZEFSAII (Michael W. Deem and Ramdas Pophale) SiO2 
 PCOD9504477
Probable space group: C M M A
;
_chemical_formula_sum "Si O2"
_cell_formula_units_Z 112
_cell_length_a 28.907328
_cell_length_b 15.264824
_cell_length_c 12.013990
_cell_angle_alpha 90.000000
_cell_angle_beta 90.000000
_cell_angle_gamma 90.000000
_cell_volume 5301.356592
_symmetry_space_group_name_H-M "C M M A"
_symmetry_group_IT_number 67
_symmetry_cell_setting 'orthorhombic'
loop_
_space_group_symop_operation_xyz
x,y,z
-x,1/2-y,z
x,-y,-z
-x,1/2+y,-z
-x,-y,-z
x,1/2+y,-z
-x,y,z
x,1/2-y,z
1/2+x,1/2+y,z
1/2-x,-y,z
1/2+x,1/2-y,-z
1/2-x,y,-z
1/2-x,1/2-y,-z
1/2+x,y,-z
1/2-x,1/2+y,z
1/2+x,-y,z
loop_
_atom_site_type_symbol
_atom_site_label
_atom_site_fract_x
_atom_site_fract_y
_atom_site_fract_z
Si Si1 0.700870 0.399215 0.458156
Si Si2 0.632948 0.351104 0.638310
Si Si3 0.795296 0.356827 0.801313
Si Si4 0.053361 0.988060 0.633137
Si Si5 0.193040 0.646255 0.839595
Si Si6 0.374169 0.594766 0.961633
Si Si7 0.055107 0.153199 0.788078
O O1 0.699582 0.500000 0.500000
O O2 0.750000 0.361432 0.500000
O O3 0.656323 0.357607 0.517370
O O4 0.701463 0.383670 0.327049
O O5 0.622674 0.250000 0.663048
O O6 0.588462 0.410200 0.656856
O O7 0.672035 0.385440 0.723430
O O8 0.801322 0.250000 0.813044
O O9 0.745648 0.384893 0.852287
O O10 0.835416 0.406547 0.866071
O O11 0.000000 0.967863 0.662114
O O12 0.055422 0.000000 0.500000
O O13 0.066823 0.075365 0.701855
O O14 0.199033 0.750000 0.828376
O O15 0.155099 0.632246 0.934900
O O16 0.416686 0.643179 0.902812
O O17 0.390534 0.500000 0.000000
O O18 0.065574 0.250000 0.741043
O O19 0.000000 0.148255 0.807610
#
# Coordination Sequence:
#
# PCOD9504477 Si02
#       7
#    16  16  16  16  16  16  16
#     4  11  24  39  63  94 136 178 232 281 335 401
#     4  11  23  40  65  95 135 181 225 276 339 409
#     4  11  24  42  64  92 131 179 229 274 330 405
#     4  10  23  43  66  96 135 173 219 283 347 405
#     4  10  22  41  61  88 130 173 219 271 326 390
#     4  12  26  40  65  95 132 170 220 277 338 403
#     4  10  23  46  74 102 133 176 232 288 347 419
#
# _framework density 21.126667000000001
#
# number of rings (size 3 to 8) (size 9 to 14) (size 15 to 20)
#    0.000    1.286    1.429    3.429    6.000    4.000 
#    0.000    2.143    0.000    0.857    0.000    0.000 
#    0.000    0.000    0.000    0.000    0.000    0.000 
#
# Total GULP energy -312902.968041 kJ/mol
# GULP energy per Si atom -5587.553001 kJ/mol
# Density = 2.107858 g / cm^3
# Si number density = 21.126667 Si / 1000 Ang^3
#
#
#
# Elastic Constant Matrix: (Units=GPa)
#
#
# Indices 1 2 3 4 5 6 
#
# 1 82.6015 54.3568 21.0124 0.0000 0.0000 0.0000
# 2 54.3568 105.5024 12.4759 0.0000 0.0000 0.0000
# 3 21.0124 12.4759 86.4650 0.0000 0.0000 0.0000
# 4 0.0000 0.0000 0.0000 26.2766 0.0000 0.0000
# 5 0.0000 0.0000 0.0000 0.0000 45.9676 0.0000
# 6 0.0000 0.0000 0.0000 0.0000 0.0000 17.5188
#
#
#
# Elastic Compliance Matrix: (Units=1/GPa)
#
#
# Indices 1 2 3 4 5 6 
#
# 1 0.019196 -0.009501 -0.003294 0.000000 0.000000 0.000000
# 2 -0.009501 0.014345 0.000239 0.000000 0.000000 0.000000
# 3 -0.003294 0.000239 0.012331 0.000000 0.000000 0.000000
# 4 0.000000 0.000000 0.000000 0.038057 0.000000 0.000000
# 5 0.000000 0.000000 0.000000 0.000000 0.021754 0.000000
# 6 0.000000 0.000000 0.000000 0.000000 0.000000 0.057082
#
#
# Mechanical properties :
#
#
# Convention : Reuss Voigt Hill
#
# Bulk Modulus (GPa) = 48.16710 50.02879 49.09795
# Shear Modulus (GPa) = 25.66759 30.40083 28.03421
#
# Velocity S-wave (km/s) = 3.48938 3.79750 3.64670
# Velocity P-wave (km/s) = 6.25164 6.55438 6.40480
#
# Compressibility (1/GPa) = 0.02076106
#
# Stress axis : x y z
#
# Youngs Moduli (GPa) = 52.09306 69.70979 81.09357
#
# Poissons Ratio (x) = 0.66230 0.26714
# Poissons Ratio (y) = 0.49493 -0.01938
# Poissons Ratio (z) = 0.17160 -0.01666
#
# Static dielectric constant tensor:
#      x y z
#    x 1.758790 0.000000 0.000000 
#    y 0.000000 1.783720 0.000000 
#    z 0.000000 0.000000 1.784010 
# 
# From -- ./inp_files/23813.got.cif
#   From: 2010.05.17/outbox.cif.g08.bks.cpg/sg67_12_cif.got.tgz:23813.got - 2010.06.03 18:28:57.
