data_PCOD9504591
_publ_section_title
;
Structure prediction by ZEFSAII (Michael W. Deem and Ramdas Pophale) SiO2 
 PCOD9504591
Probable space group: C M M A
;
_chemical_formula_sum "Si O2"
_cell_formula_units_Z 96
_cell_length_a 16.552004
_cell_length_b 23.983520
_cell_length_c 12.385531
_cell_angle_alpha 90.000000
_cell_angle_beta 90.000000
_cell_angle_gamma 90.000000
_cell_volume 4916.750119
_symmetry_space_group_name_H-M "C M M A"
_symmetry_group_IT_number 67
_symmetry_cell_setting 'orthorhombic'
loop_
_space_group_symop_operation_xyz
x,y,z
-x,1/2-y,z
x,-y,-z
-x,1/2+y,-z
-x,-y,-z
x,1/2+y,-z
-x,y,z
x,1/2-y,z
1/2+x,1/2+y,z
1/2-x,-y,z
1/2+x,1/2-y,-z
1/2-x,y,-z
1/2-x,1/2-y,-z
1/2+x,y,-z
1/2-x,1/2+y,z
1/2+x,-y,z
loop_
_atom_site_type_symbol
_atom_site_label
_atom_site_fract_x
_atom_site_fract_y
_atom_site_fract_z
Si Si1 0.596177 0.107021 0.309620
Si Si2 0.847216 0.687043 0.499580
Si Si3 0.594092 0.689398 0.865294
Si Si4 0.402839 0.628436 0.285970
Si Si5 0.326308 0.184639 0.920692
Si Si6 0.653696 0.508636 0.376226
O O1 0.500000 0.108086 0.310244
O O2 0.625164 0.140591 0.414588
O O3 0.630169 0.141009 0.207474
O O4 0.621266 0.043302 0.309071
O O5 0.873064 0.750000 0.469042
O O6 0.750000 0.685811 0.500000
O O7 0.882283 0.670529 0.615957
O O8 0.500000 0.692350 0.838240
O O9 0.631233 0.750000 0.840040
O O10 0.602197 0.680229 0.991924
O O11 0.500000 0.628463 0.265630
O O12 0.350582 0.647946 0.182096
O O13 0.374179 0.567593 0.328352
O O14 0.318369 0.250000 0.888909
O O15 0.250000 0.170871 0.000000
O O16 0.624553 0.500000 0.500000
O O17 0.750000 0.500000 0.377928
#
# Coordination Sequence:
#
# PCOD9504591 Si02
#       6
#    16  16  16  16  16  16
#     4  11  22  38  63  91 122 162 214 266 319 390
#     4  11  24  38  59  93 135 172 208 264 330 398
#     4   9  19  37  62  90 122 161 204 258 323 388
#     4  12  25  42  68  99 133 173 225 280 335 398
#     4  10  23  41  66  96 130 171 216 268 330 395
#     4  11  24  42  65  91 126 175 220 265 329 398
#
# _framework density 19.525092999999998
#
# number of rings (size 3 to 8) (size 9 to 14) (size 15 to 20)
#    0.000    1.333    1.667    3.500    4.667    4.333 
#    0.000    0.833    0.000    3.000    0.000    0.000 
#    0.000    0.000    0.000    0.000    0.000    0.000 
#
# Total GULP energy -267903.839338 kJ/mol
# GULP energy per Si atom -5581.329986 kJ/mol
# Density = 1.948065 g / cm^3
# Si number density = 19.525093 Si / 1000 Ang^3
#
#
#
# Elastic Constant Matrix: (Units=GPa)
#
#
# Indices 1 2 3 4 5 6 
#
# 1 78.5577 28.5392 23.8171 0.0000 0.0000 0.0000
# 2 28.5392 117.8256 54.7647 0.0000 0.0000 0.0000
# 3 23.8171 54.7647 101.5867 0.0000 0.0000 0.0000
# 4 0.0000 0.0000 0.0000 35.3746 0.0000 0.0000
# 5 0.0000 0.0000 0.0000 0.0000 27.4693 0.0000
# 6 0.0000 0.0000 0.0000 0.0000 0.0000 14.4401
#
#
#
# Elastic Compliance Matrix: (Units=1/GPa)
#
#
# Indices 1 2 3 4 5 6 
#
# 1 0.014249 -0.002533 -0.001975 0.000000 0.000000 0.000000
# 2 -0.002533 0.011775 -0.005754 0.000000 0.000000 0.000000
# 3 -0.001975 -0.005754 0.013409 0.000000 0.000000 0.000000
# 4 0.000000 0.000000 0.000000 0.028269 0.000000 0.000000
# 5 0.000000 0.000000 0.000000 0.000000 0.036404 0.000000
# 6 0.000000 0.000000 0.000000 0.000000 0.000000 0.069252
#
#
# Mechanical properties :
#
#
# Convention : Reuss Voigt Hill
#
# Bulk Modulus (GPa) = 52.88735 56.91245 54.89990
# Shear Modulus (GPa) = 24.97699 28.18008 26.57854
#
# Velocity S-wave (km/s) = 3.58051 3.80317 3.69351
# Velocity P-wave (km/s) = 6.65124 6.96399 6.80941
#
# Compressibility (1/GPa) = 0.01890811
#
# Stress axis : x y z
#
# Youngs Moduli (GPa) = 70.18250 84.92477 74.57818
#
# Poissons Ratio (x) = 0.21514 0.14729
# Poissons Ratio (y) = 0.17779 0.42912
# Poissons Ratio (z) = 0.13860 0.48865
#
# Static dielectric constant tensor:
#      x y z
#    x 1.704710 0.000000 0.000000 
#    y 0.000000 1.676810 0.000000 
#    z 0.000000 0.000000 1.700960 
# 
# From -- ./inp_files/19596.got.cif
#   From: 2010.05.17/outbox.cif.g08.bks.cpg/sg67_10_cif.got.tgz:19596.got - 2010.06.03 18:28:57.
