data_PCOD9504151
_publ_section_title
;
Structure prediction by ZEFSAII (Michael W. Deem and Ramdas Pophale) SiO2 
 PCOD9504151
Probable space group: C M M A
;
_chemical_formula_sum "Si O2"
_cell_formula_units_Z 96
_cell_length_a 20.029497
_cell_length_b 29.359919
_cell_length_c 9.243693
_cell_angle_alpha 90.000000
_cell_angle_beta 90.000000
_cell_angle_gamma 90.000000
_cell_volume 5435.886866
_symmetry_space_group_name_H-M "C M M A"
_symmetry_group_IT_number 67
_symmetry_cell_setting 'orthorhombic'
loop_
_space_group_symop_operation_xyz
x,y,z
-x,1/2-y,z
x,-y,-z
-x,1/2+y,-z
-x,-y,-z
x,1/2+y,-z
-x,y,z
x,1/2-y,z
1/2+x,1/2+y,z
1/2-x,-y,z
1/2+x,1/2-y,-z
1/2-x,y,-z
1/2-x,1/2-y,-z
1/2+x,y,-z
1/2-x,1/2+y,z
1/2+x,-y,z
loop_
_atom_site_type_symbol
_atom_site_label
_atom_site_fract_x
_atom_site_fract_y
_atom_site_fract_z
Si Si1 0.420913 0.303789 0.216983
Si Si2 0.577064 0.525909 0.653180
Si Si3 0.673693 0.802399 0.056661
Si Si4 0.699258 0.120503 0.722571
Si Si5 0.650469 0.879146 0.604843
Si Si6 0.316579 0.478339 0.840577
O O1 0.500000 0.311167 0.194622
O O2 0.410681 0.250000 0.249209
O O3 0.392907 0.336192 0.342854
O O4 0.377750 0.313891 0.072344
O O5 0.580807 0.500000 0.500000
O O6 0.500000 0.531917 0.691969
O O7 0.613450 0.574460 0.648157
O O8 0.617135 0.494615 0.763030
O O9 0.661120 0.750000 0.099468
O O10 0.671228 0.836861 0.189279
O O11 0.750000 0.805156 0.000000
O O12 0.663498 0.117676 0.566899
O O13 0.777807 0.124544 0.684326
O O14 0.689885 0.075626 0.821273
O O15 0.250000 0.500000 0.767753
O O16 0.318149 0.500000 0.000000
#
# Coordination Sequence:
#
# PCOD9504151 Si02
#       6
#    16  16  16  16  16  16
#     4  10  22  41  64  90 122 162 203 245 304 367
#     4  11  23  41  61  83 120 161 199 241 295 355
#     4  10  21  39  62  89 123 156 197 253 301 354
#     4  11  23  37  61  92 122 155 202 251 303 355
#     4  11  22  38  61  90 122 158 199 251 301 357
#     4  11  24  38  60  88 118 158 198 247 297 352
#
# _framework density 17.660412000000001
#
# number of rings (size 3 to 8) (size 9 to 14) (size 15 to 20)
#    0.000    1.333    5.000    0.500    4.667    1.333 
#    0.000    4.167    0.000    2.000    0.000    0.000 
#    0.000    0.000    0.000    0.000    0.000    0.000 
#
# Total GULP energy -267909.155048 kJ/mol
# GULP energy per Si atom -5581.440730 kJ/mol
# Density = 1.762022 g / cm^3
# Si number density = 17.660412 Si / 1000 Ang^3
#
#
#
# Elastic Constant Matrix: (Units=GPa)
#
#
# Indices 1 2 3 4 5 6 
#
# 1 98.8938 24.9372 31.9907 0.0000 0.0000 0.0000
# 2 24.9372 83.2934 38.7085 0.0000 0.0000 0.0000
# 3 31.9907 38.7085 65.8261 0.0000 0.0000 0.0000
# 4 0.0000 0.0000 0.0000 30.1048 0.0000 0.0000
# 5 0.0000 0.0000 0.0000 0.0000 19.7903 0.0000
# 6 0.0000 0.0000 0.0000 0.0000 0.0000 24.1670
#
#
#
# Elastic Compliance Matrix: (Units=1/GPa)
#
#
# Indices 1 2 3 4 5 6 
#
# 1 0.012088 -0.001223 -0.005155 0.000000 0.000000 0.000000
# 2 -0.001223 0.016644 -0.009193 0.000000 0.000000 0.000000
# 3 -0.005155 -0.009193 0.023103 0.000000 0.000000 0.000000
# 4 0.000000 0.000000 0.000000 0.033217 0.000000 0.000000
# 5 0.000000 0.000000 0.000000 0.000000 0.050530 0.000000
# 6 0.000000 0.000000 0.000000 0.000000 0.000000 0.041379
#
#
# Mechanical properties :
#
#
# Convention : Reuss Voigt Hill
#
# Bulk Modulus (GPa) = 48.32804 48.80958 48.56881
# Shear Modulus (GPa) = 23.25568 24.97087 24.11327
#
# Velocity S-wave (km/s) = 3.63275 3.76433 3.69912
# Velocity P-wave (km/s) = 6.70972 6.82579 6.76800
#
# Compressibility (1/GPa) = 0.02069192
#
# Stress axis : x y z
#
# Youngs Moduli (GPa) = 82.72683 60.08102 43.28475
#
# Poissons Ratio (x) = 0.07349 0.22315
# Poissons Ratio (y) = 0.10119 0.39792
# Poissons Ratio (z) = 0.42648 0.55232
#
# Static dielectric constant tensor:
#      x y z
#    x 1.592510 0.000000 0.000000 
#    y 0.000000 1.592460 0.000000 
#    z 0.000000 0.000000 1.584070 
# 
# From -- ./inp_files/11457.got.cif
#   From: 2010.05.17/outbox.cif.g08.bks.cpg/sg67_6_cif.got.tgz:11457.got - 2010.06.03 18:28:57.
