data_PCOD9504978
_publ_section_title
;
Structure prediction by ZEFSAII (Michael W. Deem and Ramdas Pophale) SiO2 
 PCOD9504978
Probable space group: C M M A
;
_chemical_formula_sum "Si O2"
_cell_formula_units_Z 112
_cell_length_a 22.693086
_cell_length_b 14.491617
_cell_length_c 15.173513
_cell_angle_alpha 90.000000
_cell_angle_beta 90.000000
_cell_angle_gamma 90.000000
_cell_volume 4989.954063
_symmetry_space_group_name_H-M "C M M A"
_symmetry_group_IT_number 67
_symmetry_cell_setting 'orthorhombic'
loop_
_space_group_symop_operation_xyz
x,y,z
-x,1/2-y,z
x,-y,-z
-x,1/2+y,-z
-x,-y,-z
x,1/2+y,-z
-x,y,z
x,1/2-y,z
1/2+x,1/2+y,z
1/2-x,-y,z
1/2+x,1/2-y,-z
1/2-x,y,-z
1/2-x,1/2-y,-z
1/2+x,y,-z
1/2-x,1/2+y,z
1/2+x,-y,z
loop_
_atom_site_type_symbol
_atom_site_label
_atom_site_fract_x
_atom_site_fract_y
_atom_site_fract_z
Si Si1 0.210360 0.355523 0.628949
Si Si2 0.602543 0.644585 0.822153
Si Si3 0.063535 0.390417 0.010251
Si Si4 0.725555 0.860598 0.906076
Si Si5 0.656463 0.855922 0.432817
Si Si6 0.649990 0.646405 0.165313
Si Si7 0.121446 0.501928 0.305648
O O1 0.202356 0.250000 0.661396
O O2 0.279998 0.366495 0.615334
O O3 0.175903 0.362320 0.534997
O O4 0.180691 0.437080 0.682686
O O5 0.609344 0.750000 0.792976
O O6 0.664615 0.606102 0.864470
O O7 0.581576 0.581505 0.740625
O O8 0.564792 0.645289 0.910857
O O9 0.117363 0.357829 0.070775
O O10 0.000000 0.367145 0.051664
O O11 0.068000 0.500000 0.000000
O O12 0.716964 0.750000 0.916869
O O13 0.781018 0.874732 0.843136
O O14 0.750000 0.895639 0.000000
O O15 0.635199 0.750000 0.418683
O O16 0.616609 0.938973 0.394179
O O17 0.644169 0.750000 0.198999
O O18 0.621978 0.574917 0.230747
#
# Coordination Sequence:
#
# PCOD9504978 Si02
#       7
#    16  16  16  16  16  16  16
#     4   9  19  35  52  73 107 153 201 239 273 328
#     4  11  23  37  54  82 113 150 193 236 291 341
#     4  11  23  44  65  81 106 148 204 250 288 337
#     4   9  18  33  51  71 108 145 182 231 273 334
#     4   9  19  35  52  73 107 153 201 239 273 328
#     4  11  23  37  54  82 113 150 193 236 291 341
#     4  12  22  32  49  78 110 147 184 243 280 330
#
# _framework density 22.445097000000001
#
# number of rings (size 3 to 8) (size 9 to 14) (size 15 to 20)
#    0.000    1.714    2.857    3.000    4.000    2.286 
#    0.000    1.429    0.000    0.000    0.000    0.000 
#    0.000    9.143    0.000   24.000    0.000    0.000 
#
# Total GULP energy -312447.343016 kJ/mol
# GULP energy per Si atom -5579.416840 kJ/mol
# Density = 2.239401 g / cm^3
# Si number density = 22.445097 Si / 1000 Ang^3
#
#
#
# Elastic Constant Matrix: (Units=GPa)
#
#
# Indices 1 2 3 4 5 6 
#
# 1 59.7173 0.6946 4.2010 0.0000 0.0000 0.0000
# 2 0.6946 96.0155 23.2610 0.0000 0.0000 0.0000
# 3 4.2010 23.2610 66.0687 0.0000 0.0000 0.0000
# 4 0.0000 0.0000 0.0000 -6.4482 0.0000 0.0000
# 5 0.0000 0.0000 0.0000 0.0000 6.7802 0.0000
# 6 0.0000 0.0000 0.0000 0.0000 0.0000 199.0315
#
#
#
# Elastic Compliance Matrix: (Units=1/GPa)
#
#
# Indices 1 2 3 4 5 6 
#
# 1 0.016823 0.000150 -0.001123 0.000000 0.000000 0.000000
# 2 0.000150 0.011388 -0.004019 0.000000 0.000000 0.000000
# 3 -0.001123 -0.004019 0.016622 0.000000 0.000000 0.000000
# 4 0.000000 0.000000 0.000000 -0.155081 0.000000 0.000000
# 5 0.000000 0.000000 0.000000 0.000000 0.147488 0.000000
# 6 0.000000 0.000000 0.000000 0.000000 0.000000 0.005024
#
#
# Mechanical properties :
#
#
# Convention : Reuss Voigt Hill
#
# Bulk Modulus (GPa) = 28.69430 30.90163 29.79797
# Shear Modulus (GPa) = 78.29285 52.78235 65.53760
#
# Velocity S-wave (km/s) = 5.91250 4.85461 5.40948
# Velocity P-wave (km/s) = 7.70858 6.72462 7.23335
#
# Compressibility (1/GPa) = 0.03485013
#
# Stress axis : x y z
#
# Youngs Moduli (GPa) = 59.44315 87.81558 60.16103
#
# Poissons Ratio (x) = -0.01319 0.06754
# Poissons Ratio (y) = -0.00893 0.24177
# Poissons Ratio (z) = 0.06673 0.35291
#
# Static dielectric constant tensor:
#      x y z
#    x 1.813100 0.000000 0.000000 
#    y 0.000000 1.859270 0.000000 
#    z 0.000000 0.000000 1.923500 
# 
# From -- ./inp_files/30166.got.cif
#   From: 2010.05.17/outbox.cif.g08.bks.cpg/sg67_16_cif.got.tgz:30166.got - 2010.06.03 18:28:57.
