data_PCOD9504652
_publ_section_title
;
Structure prediction by ZEFSAII (Michael W. Deem and Ramdas Pophale) SiO2 
 PCOD9504652
Probable space group: C M M A
;
_chemical_formula_sum "Si O2"
_cell_formula_units_Z 60
_cell_length_a 15.394169
_cell_length_b 7.476846
_cell_length_c 26.089571
_cell_angle_alpha 90.000000
_cell_angle_beta 90.000000
_cell_angle_gamma 90.000000
_cell_volume 3002.905211
_symmetry_space_group_name_H-M "C M M A"
_symmetry_group_IT_number 67
_symmetry_cell_setting 'orthorhombic'
loop_
_space_group_symop_operation_xyz
x,y,z
-x,1/2-y,z
x,-y,-z
-x,1/2+y,-z
-x,-y,-z
x,1/2+y,-z
-x,y,z
x,1/2-y,z
1/2+x,1/2+y,z
1/2-x,-y,z
1/2+x,1/2-y,-z
1/2-x,y,-z
1/2-x,1/2-y,-z
1/2+x,y,-z
1/2-x,1/2+y,z
1/2+x,-y,z
loop_
_atom_site_type_symbol
_atom_site_label
_atom_site_fract_x
_atom_site_fract_y
_atom_site_fract_z
Si Si1 0.500000 0.500000 0.500000
Si Si2 0.500000 0.462884 0.060004
Si Si3 0.152701 0.037901 0.865951
Si Si4 0.652183 0.461509 0.416307
Si Si5 0.604854 0.250000 0.665711
Si Si6 0.604494 0.250000 0.783766
O O1 0.576742 0.515261 0.456012
O O2 0.500000 0.250000 0.064617
O O3 0.584332 0.525108 0.091186
O O4 0.500000 0.500000 0.000000
O O5 0.141882 0.250000 0.856619
O O6 0.250000 0.000000 0.883881
O O7 0.136719 0.922950 0.814923
O O8 0.643051 0.250000 0.407442
O O9 0.750000 0.500000 0.435597
O O10 0.638764 0.578227 0.365391
O O11 0.500000 0.250000 0.664088
O O12 0.632805 0.250000 0.724774
O O13 0.500000 0.250000 0.784977
#
# Coordination Sequence:
#
# PCOD9504652 Si02
#       6
#     4   8  16  16   8   8
#     4  12  28  44  74  98 132 180 222 268 340 388
#     4  10  24  40  64  95 134 179 221 283 337 395
#     4  11  23  42  66 101 134 174 232 273 333 405
#     4  12  27  46  71 102 139 176 221 278 331 401
#     4  11  26  48  69 103 135 175 231 271 338 402
#     4  11  24  44  74  93 135 185 215 286 334 394
#
# _framework density 19.980651999999999
#
# number of rings (size 3 to 8) (size 9 to 14) (size 15 to 20)
#    0.000    0.800    5.333    0.800    5.600    3.733 
#    0.000    5.333    0.000    0.000    0.000    0.000 
#    0.000    0.000    0.000    0.000    0.000    0.000 
#
# Total GULP energy -167170.357299 kJ/mol
# GULP energy per Si atom -5572.345243 kJ/mol
# Density = 1.993518 g / cm^3
# Si number density = 19.980652 Si / 1000 Ang^3
#
#
#
# Elastic Constant Matrix: (Units=GPa)
#
#
# Indices 1 2 3 4 5 6 
#
# 1 191.9713 26.5505 90.7806 0.0000 0.0000 0.0000
# 2 26.5505 112.6081 55.7501 0.0000 0.0000 0.0000
# 3 90.7806 55.7501 192.4218 0.0000 0.0000 0.0000
# 4 0.0000 0.0000 0.0000 53.9290 0.0000 0.0000
# 5 0.0000 0.0000 0.0000 0.0000 -6.9119 0.0000
# 6 0.0000 0.0000 0.0000 0.0000 0.0000 5.3359
#
#
#
# Elastic Compliance Matrix: (Units=1/GPa)
#
#
# Indices 1 2 3 4 5 6 
#
# 1 0.006705 -0.000017 -0.003158 0.000000 0.000000 0.000000
# 2 -0.000017 0.010368 -0.002996 0.000000 0.000000 0.000000
# 3 -0.003158 -0.002996 0.007555 0.000000 0.000000 0.000000
# 4 0.000000 0.000000 0.000000 0.018543 0.000000 0.000000
# 5 0.000000 0.000000 0.000000 0.000000 -0.144678 0.000000
# 6 0.000000 0.000000 0.000000 0.000000 0.000000 0.187409
#
#
# Mechanical properties :
#
#
# Convention : Reuss Voigt Hill
#
# Bulk Modulus (GPa) = 81.40005 93.68487 87.54246
# Shear Modulus (GPa) = 48.85749 32.06527 40.46138
#
# Velocity S-wave (km/s) = 4.95030 4.01036 4.50491
# Velocity P-wave (km/s) = 8.57332 8.27246 8.42423
#
# Compressibility (1/GPa) = 0.01228500
#
# Stress axis : x y z
#
# Youngs Moduli (GPa) = 149.14223 96.45526 132.36555
#
# Poissons Ratio (x) = 0.00167 0.41805
# Poissons Ratio (y) = 0.00258 0.39651
# Poissons Ratio (z) = 0.47103 0.28894
#
# Static dielectric constant tensor:
#      x y z
#    x 1.716730 0.000000 0.000000 
#    y 0.000000 1.735370 0.000000 
#    z 0.000000 0.000000 1.667310 
# 
# From -- ./inp_files/41708.got.cif
#   From: 2010.05.17/outbox.cif.g08.bks.cpg/sg67_21_cif.got.tgz:41708.got - 2010.06.03 18:28:57.
