data_PCOD9504822
_publ_section_title
;
Structure prediction by ZEFSAII (Michael W. Deem and Ramdas Pophale) SiO2 
 PCOD9504822
Probable space group: C M M A
;
_chemical_formula_sum "Si O2"
_cell_formula_units_Z 84
_cell_length_a 21.992330
_cell_length_b 17.597289
_cell_length_c 11.053369
_cell_angle_alpha 90.000000
_cell_angle_beta 90.000000
_cell_angle_gamma 90.000000
_cell_volume 4277.713345
_symmetry_space_group_name_H-M "C M M A"
_symmetry_group_IT_number 67
_symmetry_cell_setting 'orthorhombic'
loop_
_space_group_symop_operation_xyz
x,y,z
-x,1/2-y,z
x,-y,-z
-x,1/2+y,-z
-x,-y,-z
x,1/2+y,-z
-x,y,z
x,1/2-y,z
1/2+x,1/2+y,z
1/2-x,-y,z
1/2+x,1/2-y,-z
1/2-x,y,-z
1/2-x,1/2-y,-z
1/2+x,y,-z
1/2-x,1/2+y,z
1/2+x,-y,z
loop_
_atom_site_type_symbol
_atom_site_label
_atom_site_fract_x
_atom_site_fract_y
_atom_site_fract_z
Si Si1 0.250000 0.876763 0.000000
Si Si2 0.570252 0.468552 0.761818
Si Si3 0.355480 0.000000 0.000000
Si Si4 0.601897 0.119401 0.358873
Si Si5 0.229114 0.164487 0.730173
Si Si6 0.000000 0.750000 0.308837
Si Si7 0.642574 0.159039 0.630039
O O1 0.253177 0.834933 0.871566
O O2 0.310047 0.928703 0.003865
O O3 0.500000 0.454169 0.785643
O O4 0.576604 0.534843 0.661513
O O5 0.602429 0.391433 0.719495
O O6 0.602993 0.498679 0.881945
O O7 0.666553 0.121035 0.289432
O O8 0.553746 0.182552 0.313727
O O9 0.618925 0.139742 0.496555
O O10 0.216733 0.250000 0.687435
O O11 0.287185 0.136248 0.654364
O O12 0.638117 0.250000 0.650472
#
# Coordination Sequence:
#
# PCOD9504822 Si02
#       7
#     8  16   8  16  16   4  16
#     4  11  21  40  70  90 129 173 226 278 340 382
#     4  12  26  43  69  96 132 181 228 273 335 405
#     4  11  23  44  64  94 131 175 218 288 338 382
#     4  12  24  42  69  99 138 177 219 269 332 400
#     4  11  22  41  67  99 133 172 220 278 336 391
#     4  12  24  44  68 100 140 188 210 268 322 408
#     4  11  25  43  67 100 138 173 219 277 336 394
#
# _framework density 19.636659999999999
#
# number of rings (size 3 to 8) (size 9 to 14) (size 15 to 20)
#    0.000    0.571    6.667    1.714    1.333    3.429 
#    0.000    1.905    2.095    0.000    0.000    0.000 
#    0.000    0.000    0.000    0.000    0.000    0.000 
#
# Total GULP energy -234072.737436 kJ/mol
# GULP energy per Si atom -5573.160415 kJ/mol
# Density = 1.959197 g / cm^3
# Si number density = 19.636660 Si / 1000 Ang^3
#
#
#
# Elastic Constant Matrix: (Units=GPa)
#
#
# Indices 1 2 3 4 5 6 
#
# 1 160.4722 45.4866 34.1940 0.0000 0.0000 0.0000
# 2 45.4866 74.1819 25.4022 0.0000 0.0000 0.0000
# 3 34.1940 25.4022 64.8013 0.0000 0.0000 0.0000
# 4 0.0000 0.0000 0.0000 -24.0499 0.0000 0.0000
# 5 0.0000 0.0000 0.0000 0.0000 14.9589 0.0000
# 6 0.0000 0.0000 0.0000 0.0000 0.0000 65.0596
#
#
#
# Elastic Compliance Matrix: (Units=1/GPa)
#
#
# Indices 1 2 3 4 5 6 
#
# 1 0.007911 -0.003952 -0.002625 0.000000 0.000000 0.000000
# 2 -0.003952 0.017545 -0.004792 0.000000 0.000000 0.000000
# 3 -0.002625 -0.004792 0.018696 0.000000 0.000000 0.000000
# 4 0.000000 0.000000 0.000000 -0.041580 0.000000 0.000000
# 5 0.000000 0.000000 0.000000 0.000000 0.066850 0.000000
# 6 0.000000 0.000000 0.000000 0.000000 0.000000 0.015371
#
#
# Mechanical properties :
#
#
# Convention : Reuss Voigt Hill
#
# Bulk Modulus (GPa) = 46.70170 56.62456 51.66313
# Shear Modulus (GPa) = 43.60408 24.15190 33.87799
#
# Velocity S-wave (km/s) = 4.71738 3.51085 4.15811
# Velocity P-wave (km/s) = 7.31479 6.73302 7.02992
#
# Compressibility (1/GPa) = 0.02141250
#
# Stress axis : x y z
#
# Youngs Moduli (GPa) = 126.40237 56.99760 53.48837
#
# Poissons Ratio (x) = 0.22525 0.14043
# Poissons Ratio (y) = 0.49954 0.25632
# Poissons Ratio (z) = 0.33186 0.27314
#
# Static dielectric constant tensor:
#      x y z
#    x 1.673320 0.000000 0.000000 
#    y 0.000000 1.672950 0.000000 
#    z 0.000000 0.000000 1.706290 
# 
# From -- ./inp_files/20606.got.cif
#   From: 2010.05.17/outbox.cif.g08.bks.cpg/sg67_11_cif.got.tgz:20606.got - 2010.06.03 18:28:57.
