data_PCOD9504871
_publ_section_title
;
Structure prediction by ZEFSAII (Michael W. Deem and Ramdas Pophale) SiO2 
 PCOD9504871
Probable space group: C M M A
;
_chemical_formula_sum "Si O2"
_cell_formula_units_Z 80
_cell_length_a 20.019531
_cell_length_b 8.639415
_cell_length_c 26.720561
_cell_angle_alpha 90.000000
_cell_angle_beta 90.000000
_cell_angle_gamma 90.000000
_cell_volume 4621.509042
_symmetry_space_group_name_H-M "C M M A"
_symmetry_group_IT_number 67
_symmetry_cell_setting 'orthorhombic'
loop_
_space_group_symop_operation_xyz
x,y,z
-x,1/2-y,z
x,-y,-z
-x,1/2+y,-z
-x,-y,-z
x,1/2+y,-z
-x,y,z
x,1/2-y,z
1/2+x,1/2+y,z
1/2-x,-y,z
1/2+x,1/2-y,-z
1/2-x,y,-z
1/2-x,1/2-y,-z
1/2+x,y,-z
1/2-x,1/2+y,z
1/2+x,-y,z
loop_
_atom_site_type_symbol
_atom_site_label
_atom_site_fract_x
_atom_site_fract_y
_atom_site_fract_z
Si Si1 0.174849 0.562923 0.161275
Si Si2 0.076521 0.061314 0.751436
Si Si3 0.325700 0.564978 0.949178
Si Si4 0.676116 0.433998 0.554203
Si Si5 0.921570 0.063778 0.637641
O O1 0.178153 0.750000 0.163038
O O2 0.250000 0.500000 0.166416
O O3 0.127326 0.508049 0.205973
O O4 0.147278 0.521762 0.105783
O O5 0.076567 0.250000 0.752108
O O6 0.095181 0.016224 0.694750
O O7 0.000000 0.012703 0.760929
O O8 0.323463 0.750000 0.952910
O O9 0.250000 0.500000 0.948339
O O10 0.357981 0.500000 0.000000
O O11 0.655482 0.500000 0.500000
O O12 0.679967 0.250000 0.551084
O O13 0.750000 0.500000 0.564892
O O14 0.625088 0.485504 0.596923
O O15 0.913995 0.250000 0.634278
O O16 0.000000 0.028872 0.629566
#
# Coordination Sequence:
#
# PCOD9504871 Si02
#       5
#    16  16  16  16  16
#     4   9  17  28  44  68  93 118 153 194 235 278
#     4   8  15  30  51  71  93 124 160 195 231 276
#     4   9  15  23  37  58  85 115 147 186 230 276
#     4  11  22  37  56  77 104 134 165 201 242 289
#     4   9  18  34  55  77 101 130 165 203 242 286
#
# _framework density 17.310364
#
# number of rings (size 3 to 8) (size 9 to 14) (size 15 to 20)
#    0.000    2.800    0.000    4.800    0.000    2.400 
#    0.000    3.000    0.000    2.400    0.000    0.000 
#    0.000    0.000    0.000    0.000    0.000    5.400 
#
# Total GULP energy -222850.768852 kJ/mol
# GULP energy per Si atom -5571.269221 kJ/mol
# Density = 1.727096 g / cm^3
# Si number density = 17.310364 Si / 1000 Ang^3
#
#
#
# Elastic Constant Matrix: (Units=GPa)
#
#
# Indices 1 2 3 4 5 6 
#
# 1 66.8884 32.4459 100.9845 0.0000 0.0000 0.0000
# 2 32.4459 52.8114 57.7487 0.0000 0.0000 0.0000
# 3 100.9845 57.7487 200.6987 0.0000 0.0000 0.0000
# 4 0.0000 0.0000 0.0000 -112.1824 0.0000 0.0000
# 5 0.0000 0.0000 0.0000 0.0000 -6.6524 0.0000
# 6 0.0000 0.0000 0.0000 0.0000 0.0000 15.0965
#
#
#
# Elastic Compliance Matrix: (Units=1/GPa)
#
#
# Indices 1 2 3 4 5 6 
#
# 1 0.063454 -0.005941 -0.030218 0.000000 0.000000 0.000000
# 2 -0.005941 0.028184 -0.005120 0.000000 0.000000 0.000000
# 3 -0.030218 -0.005120 0.021661 0.000000 0.000000 0.000000
# 4 0.000000 0.000000 0.000000 -0.008914 0.000000 0.000000
# 5 0.000000 0.000000 0.000000 0.000000 -0.150322 0.000000
# 6 0.000000 0.000000 0.000000 0.000000 0.000000 0.066240
#
#
# Mechanical properties :
#
#
# Convention : Reuss Voigt Hill
#
# Bulk Modulus (GPa) = 32.53125 78.08407 55.30766
# Shear Modulus (GPa) = 44.20451 -12.13302 16.03575
#
# Velocity S-wave (km/s) = 5.05884 -2.65034 3.04693
# Velocity P-wave (km/s) = 7.27710 5.98669 6.66321
#
# Compressibility (1/GPa) = 0.03073967
#
# Stress axis : x y z
#
# Youngs Moduli (GPa) = 15.75937 35.48053 46.16632
#
# Poissons Ratio (x) = 0.21079 1.39508
# Poissons Ratio (y) = 0.09363 0.23639
# Poissons Ratio (z) = 0.47622 0.18168
#
# Static dielectric constant tensor:
#      x y z
#    x 1.555390 0.000000 0.000000 
#    y 0.000000 1.584340 0.000000 
#    z 0.000000 0.000000 1.623770 
# 
# From -- ./inp_files/43220.got.cif
#   From: 2010.05.17/outbox.cif.g08.bks.cpg/sg67_22_cif.got.tgz:43220.got - 2010.06.03 18:28:57.
