data_PCOD9504741
_publ_section_title
;
Structure prediction by ZEFSAII (Michael W. Deem and Ramdas Pophale) SiO2 
 PCOD9504741
Probable space group: C M M A
;
_chemical_formula_sum "Si O2"
_cell_formula_units_Z 96
_cell_length_a 8.532495
_cell_length_b 24.280675
_cell_length_c 26.819554
_cell_angle_alpha 90.000000
_cell_angle_beta 90.000000
_cell_angle_gamma 90.000000
_cell_volume 5556.334074
_symmetry_space_group_name_H-M "C M M A"
_symmetry_group_IT_number 67
_symmetry_cell_setting 'orthorhombic'
loop_
_space_group_symop_operation_xyz
x,y,z
-x,1/2-y,z
x,-y,-z
-x,1/2+y,-z
-x,-y,-z
x,1/2+y,-z
-x,y,z
x,1/2-y,z
1/2+x,1/2+y,z
1/2-x,-y,z
1/2+x,1/2-y,-z
1/2-x,y,-z
1/2-x,1/2-y,-z
1/2+x,y,-z
1/2-x,1/2+y,z
1/2+x,-y,z
loop_
_atom_site_type_symbol
_atom_site_label
_atom_site_fract_x
_atom_site_fract_y
_atom_site_fract_z
Si Si1 0.311674 0.438050 0.145373
Si Si2 0.190952 0.750000 0.209474
Si Si3 0.312737 0.562738 0.551123
Si Si4 0.191198 0.630768 0.243299
Si Si5 0.310439 0.937463 0.661027
Si Si6 0.811420 0.250000 0.907415
Si Si7 0.186689 0.866127 0.945844
O O1 0.500000 0.438038 0.143642
O O2 0.250000 0.500000 0.147414
O O3 0.262653 0.404797 0.195003
O O4 0.248214 0.406482 0.097113
O O5 0.243801 0.693586 0.235385
O O6 0.234825 0.750000 0.151063
O O7 0.000000 0.750000 0.210315
O O8 0.500000 0.561639 0.548295
O O9 0.250000 0.500000 0.551543
O O10 0.250000 0.589118 0.500000
O O11 0.265625 0.584412 0.605813
O O12 0.244225 0.601003 0.293815
O O13 0.000000 0.631427 0.244266
O O14 0.500000 0.939743 0.662387
O O15 0.250000 0.000000 0.666989
O O16 0.747897 0.304959 0.933002
O O17 0.000000 0.250000 0.909965
O O18 0.000000 0.866082 0.946288
O O19 0.250000 0.882523 0.000000
#
# Coordination Sequence:
#
# PCOD9504741 Si02
#       7
#    16   8  16  16  16   8  16
#     4  11  22  38  58  81 108 140 174 210 257 314
#     4   9  16  30  56  81 100 129 163 204 252 299
#     4   9  15  23  37  59  90 127 165 204 244 289
#     4   9  17  31  52  77 103 131 167 208 253 304
#     4   9  17  28  44  69 100 132 167 205 246 297
#     4  11  20  38  63  87 110 137 171 212 262 310
#     4  12  25  41  60  84 110 139 174 215 258 307
#
# _framework density 17.277577999999998
#
# number of rings (size 3 to 8) (size 9 to 14) (size 15 to 20)
#    0.000    2.000    1.667    4.000    0.000    1.000 
#    0.000    2.500    0.000    0.000    0.000    0.583 
#    0.000    0.000    0.000    0.000    0.000    0.000 
#
# Total GULP energy -267807.491931 kJ/mol
# GULP energy per Si atom -5579.322749 kJ/mol
# Density = 1.723825 g / cm^3
# Si number density = 17.277578 Si / 1000 Ang^3
#
#
#
# Elastic Constant Matrix: (Units=GPa)
#
#
# Indices 1 2 3 4 5 6 
#
# 1 53.5721 25.7783 40.3062 0.0000 0.0000 0.0000
# 2 25.7783 115.5854 80.4010 0.0000 0.0000 0.0000
# 3 40.3062 80.4010 199.1518 0.0000 0.0000 0.0000
# 4 0.0000 0.0000 0.0000 -94.7539 0.0000 0.0000
# 5 0.0000 0.0000 0.0000 0.0000 116.6190 0.0000
# 6 0.0000 0.0000 0.0000 0.0000 0.0000 13.0813
#
#
#
# Elastic Compliance Matrix: (Units=1/GPa)
#
#
# Indices 1 2 3 4 5 6 
#
# 1 0.022559 -0.002580 -0.003524 0.000000 0.000000 0.000000
# 2 -0.002580 0.012325 -0.004454 0.000000 0.000000 0.000000
# 3 -0.003524 -0.004454 0.007533 0.000000 0.000000 0.000000
# 4 0.000000 0.000000 0.000000 -0.010554 0.000000 0.000000
# 5 0.000000 0.000000 0.000000 0.000000 0.008575 0.000000
# 6 0.000000 0.000000 0.000000 0.000000 0.000000 0.076445
#
#
# Mechanical properties :
#
#
# Convention : Reuss Voigt Hill
#
# Bulk Modulus (GPa) = 46.94518 73.47559 60.21038
# Shear Modulus (GPa) = 34.45914 21.77753 28.11833
#
# Velocity S-wave (km/s) = 4.47076 3.55413 4.03854
# Velocity P-wave (km/s) = 7.34033 7.71112 7.52801
#
# Compressibility (1/GPa) = 0.02130144
#
# Stress axis : x y z
#
# Youngs Moduli (GPa) = 44.32743 81.13634 132.75645
#
# Poissons Ratio (x) = 0.20932 0.46787
# Poissons Ratio (y) = 0.11436 0.59125
# Poissons Ratio (z) = 0.15622 0.36135
#
# Static dielectric constant tensor:
#      x y z
#    x 1.587690 0.000000 0.000000 
#    y 0.000000 1.552300 0.000000 
#    z 0.000000 0.000000 1.617540 
# 
# From -- ./inp_files/43695.got.cif
#   From: 2010.05.17/outbox.cif.g08.bks.cpg/sg67_22_cif.got.tgz:43695.got - 2010.06.03 18:28:57.
