data_PCOD9504873
_publ_section_title
;
Structure prediction by ZEFSAII (Michael W. Deem and Ramdas Pophale) SiO2 
 PCOD9504873
Probable space group: C M M A
;
_chemical_formula_sum "Si O2"
_cell_formula_units_Z 96
_cell_length_a 18.940511
_cell_length_b 8.986237
_cell_length_c 31.642400
_cell_angle_alpha 90.000000
_cell_angle_beta 90.000000
_cell_angle_gamma 90.000000
_cell_volume 5385.660542
_symmetry_space_group_name_H-M "C M M A"
_symmetry_group_IT_number 67
_symmetry_cell_setting 'orthorhombic'
loop_
_space_group_symop_operation_xyz
x,y,z
-x,1/2-y,z
x,-y,-z
-x,1/2+y,-z
-x,-y,-z
x,1/2+y,-z
-x,y,z
x,1/2-y,z
1/2+x,1/2+y,z
1/2-x,-y,z
1/2+x,1/2-y,-z
1/2-x,y,-z
1/2-x,1/2-y,-z
1/2+x,y,-z
1/2-x,1/2+y,z
1/2+x,-y,z
loop_
_atom_site_type_symbol
_atom_site_label
_atom_site_fract_x
_atom_site_fract_y
_atom_site_fract_z
Si Si1 0.672752 0.072369 0.956442
Si Si2 0.827047 0.428567 0.287664
Si Si3 0.917023 0.571748 0.213685
Si Si4 0.084505 0.424525 0.883829
Si Si5 0.913990 0.921410 0.456999
Si Si6 0.917871 0.428802 0.369565
O O1 0.678200 0.250000 0.960601
O O2 0.750000 0.000000 0.950169
O O3 0.624499 0.025271 0.917306
O O4 0.644663 0.000000 0.000000
O O5 0.822063 0.250000 0.286649
O O6 0.750000 0.500000 0.288504
O O7 0.869591 0.486160 0.247027
O O8 0.870725 0.472406 0.329667
O O9 0.909263 0.750000 0.219223
O O10 0.898323 0.538056 0.164913
O O11 0.000000 0.536158 0.219786
O O12 0.102557 0.250000 0.890781
O O13 0.000000 0.438190 0.888354
O O14 0.892532 0.750000 0.456647
O O15 0.000000 0.926702 0.457585
O O16 0.889589 0.000000 0.500000
O O17 0.892761 0.001456 0.413687
O O18 0.916293 0.250000 0.373392
O O19 0.000000 0.472557 0.362593
#
# Coordination Sequence:
#
# PCOD9504873 Si02
#       6
#    16  16  16  16  16  16
#     4  11  22  37  57  80 109 145 184 224 266 314
#     4  11  23  37  54  77 107 142 179 221 266 314
#     4   9  19  37  60  83 108 139 175 218 267 318
#     4   9  19  37  59  83 111 141 175 218 267 317
#     4   9  16  26  44  72 103 133 166 207 254 304
#     4   9  18  33  52  74 101 134 172 214 261 311
#
# _framework density 17.825112000000001
#
# number of rings (size 3 to 8) (size 9 to 14) (size 15 to 20)
#    0.000    2.333    0.000    4.500    0.000    6.333 
#    0.000    3.333    0.000    0.500    0.000    3.500 
#    0.000    0.000    0.000    0.000    0.000    0.000 
#
# Total GULP energy -267895.359667 kJ/mol
# GULP energy per Si atom -5581.153326 kJ/mol
# Density = 1.778454 g / cm^3
# Si number density = 17.825112 Si / 1000 Ang^3
#
#
#
# Elastic Constant Matrix: (Units=GPa)
#
#
# Indices 1 2 3 4 5 6 
#
# 1 62.8508 49.4291 78.4856 0.0000 0.0000 0.0000
# 2 49.4291 91.1185 86.1779 0.0000 0.0000 0.0000
# 3 78.4856 86.1779 167.5895 0.0000 0.0000 0.0000
# 4 0.0000 0.0000 0.0000 35.0433 0.0000 0.0000
# 5 0.0000 0.0000 0.0000 0.0000 -28.1466 0.0000
# 6 0.0000 0.0000 0.0000 0.0000 0.0000 17.8820
#
#
#
# Elastic Compliance Matrix: (Units=1/GPa)
#
#
# Indices 1 2 3 4 5 6 
#
# 1 0.041090 -0.007963 -0.015149 0.000000 0.000000 0.000000
# 2 -0.007963 0.022909 -0.008051 0.000000 0.000000 0.000000
# 3 -0.015149 -0.008051 0.017201 0.000000 0.000000 0.000000
# 4 0.000000 0.000000 0.000000 0.028536 0.000000 0.000000
# 5 0.000000 0.000000 0.000000 0.000000 -0.035528 0.000000
# 6 0.000000 0.000000 0.000000 0.000000 0.000000 0.055922
#
#
# Mechanical properties :
#
#
# Convention : Reuss Voigt Hill
#
# Bulk Modulus (GPa) = 52.97946 83.30489 68.14218
# Shear Modulus (GPa) = 25.15753 12.12015 18.63884
#
# Velocity S-wave (km/s) = 3.76087 2.61041 3.23716
# Velocity P-wave (km/s) = 6.97461 7.47808 7.23073
#
# Compressibility (1/GPa) = 0.01887524
#
# Stress axis : x y z
#
# Youngs Moduli (GPa) = 24.33660 43.65127 58.13488
#
# Poissons Ratio (x) = 0.34760 0.88067
# Poissons Ratio (y) = 0.19379 0.46804
# Poissons Ratio (z) = 0.36867 0.35143
#
# Static dielectric constant tensor:
#      x y z
#    x 1.589410 0.000000 0.000000 
#    y 0.000000 1.594730 0.000000 
#    z 0.000000 0.000000 1.597010 
# 
# From -- ./inp_files/44578.got.cif
#   From: 2010.05.17/outbox.cif.g08.bks.cpg/sg67_23_cif.got.tgz:44578.got - 2010.06.03 18:28:57.
