data_PCOD9504632
_publ_section_title
;
Structure prediction by ZEFSAII (Michael W. Deem and Ramdas Pophale) SiO2 
 PCOD9504632
Probable space group: C M M A
;
_chemical_formula_sum "Si O2"
_cell_formula_units_Z 64
_cell_length_a 19.454977
_cell_length_b 18.938192
_cell_length_c 8.368578
_cell_angle_alpha 90.000000
_cell_angle_beta 90.000000
_cell_angle_gamma 90.000000
_cell_volume 3083.336367
_symmetry_space_group_name_H-M "C M M A"
_symmetry_group_IT_number 67
_symmetry_cell_setting 'orthorhombic'
loop_
_space_group_symop_operation_xyz
x,y,z
-x,1/2-y,z
x,-y,-z
-x,1/2+y,-z
-x,-y,-z
x,1/2+y,-z
-x,y,z
x,1/2-y,z
1/2+x,1/2+y,z
1/2-x,-y,z
1/2+x,1/2-y,-z
1/2-x,y,-z
1/2-x,1/2-y,-z
1/2+x,y,-z
1/2-x,1/2+y,z
1/2+x,-y,z
loop_
_atom_site_type_symbol
_atom_site_label
_atom_site_fract_x
_atom_site_fract_y
_atom_site_fract_z
Si Si1 0.886124 0.828215 0.187699
Si Si2 0.731971 0.168115 0.684263
Si Si3 0.500000 0.960761 0.278543
Si Si4 0.637640 0.567653 0.092654
Si Si5 0.500000 0.382508 0.416635
O O1 0.905277 0.750000 0.134641
O O2 0.806119 0.829839 0.232425
O O3 0.933033 0.847140 0.339474
O O4 0.892613 0.881544 0.043276
O O5 0.704702 0.250000 0.684811
O O6 0.750000 0.148396 0.500000
O O7 0.685497 0.112927 0.785140
O O8 0.428980 0.959419 0.184779
O O9 0.500000 0.892116 0.394151
O O10 0.500000 0.036785 0.360680
O O11 0.670023 0.500000 0.000000
#
# Coordination Sequence:
#
# PCOD9504632 Si02
#       5
#    16  16   8  16   8
#     4  11  23  41  66  95 130 171 217 272 332 393
#     4  10  23  44  67  95 132 173 219 276 334 391
#     4  11  24  42  64  91 132 164 219 269 337 376
#     4  12  23  42  66  96 132 175 217 275 331 398
#     4  11  22  43  65  94 125 174 214 274 323 395
#
# _framework density 20.756736
#
# number of rings (size 3 to 8) (size 9 to 14) (size 15 to 20)
#    0.000    1.000    2.500    4.500    0.000    4.000 
#    0.000    6.875    0.000    0.000    0.000    0.000 
#    0.000    0.000    0.000    0.000    0.000    0.000 
#
# Total GULP energy -178635.407676 kJ/mol
# GULP energy per Si atom -5582.356490 kJ/mol
# Density = 2.070949 g / cm^3
# Si number density = 20.756736 Si / 1000 Ang^3
#
#
#
# Elastic Constant Matrix: (Units=GPa)
#
#
# Indices 1 2 3 4 5 6 
#
# 1 97.6414 31.2100 13.4031 0.0000 0.0000 0.0000
# 2 31.2100 130.9719 42.8557 0.0000 0.0000 0.0000
# 3 13.4031 42.8557 75.7776 0.0000 0.0000 0.0000
# 4 0.0000 0.0000 0.0000 40.1891 0.0000 0.0000
# 5 0.0000 0.0000 0.0000 0.0000 23.5450 0.0000
# 6 0.0000 0.0000 0.0000 0.0000 0.0000 36.1177
#
#
#
# Elastic Compliance Matrix: (Units=1/GPa)
#
#
# Indices 1 2 3 4 5 6 
#
# 1 0.011106 -0.002459 -0.000574 0.000000 0.000000 0.000000
# 2 -0.002459 0.009913 -0.005172 0.000000 0.000000 0.000000
# 3 -0.000574 -0.005172 0.016223 0.000000 0.000000 0.000000
# 4 0.000000 0.000000 0.000000 0.024882 0.000000 0.000000
# 5 0.000000 0.000000 0.000000 0.000000 0.042472 0.000000
# 6 0.000000 0.000000 0.000000 0.000000 0.000000 0.027687
#
#
# Mechanical properties :
#
#
# Convention : Reuss Voigt Hill
#
# Bulk Modulus (GPa) = 47.99852 53.25871 50.62861
# Shear Modulus (GPa) = 32.12605 34.43183 33.27894
#
# Velocity S-wave (km/s) = 3.93840 4.07729 4.00845
# Velocity P-wave (km/s) = 6.62238 6.91953 6.77258
#
# Compressibility (1/GPa) = 0.02083398
#
# Stress axis : x y z
#
# Youngs Moduli (GPa) = 90.03937 100.87415 61.64174
#
# Poissons Ratio (x) = 0.24803 0.03537
# Poissons Ratio (y) = 0.22139 0.31878
# Poissons Ratio (z) = 0.05167 0.52168
#
# Static dielectric constant tensor:
#      x y z
#    x 1.971220 0.000000 0.000000 
#    y 0.000000 1.767980 0.000000 
#    z 0.000000 0.000000 1.934670 
# 
# From -- ./inp_files/10719.got.cif
#   From: 2010.05.17/outbox.cif.g08.bks.cpg/sg67_6_cif.got.tgz:10719.got - 2010.06.03 18:28:57.
