data_PCOD9504252
_publ_section_title
;
Structure prediction by ZEFSAII (Michael W. Deem and Ramdas Pophale) SiO2 
 PCOD9504252
Probable space group: C M M A
;
_chemical_formula_sum "Si O2"
_cell_formula_units_Z 96
_cell_length_a 20.241262
_cell_length_b 17.704092
_cell_length_c 11.350207
_cell_angle_alpha 90.000000
_cell_angle_beta 90.000000
_cell_angle_gamma 90.000000
_cell_volume 4067.382598
_symmetry_space_group_name_H-M "C M M A"
_symmetry_group_IT_number 67
_symmetry_cell_setting 'orthorhombic'
loop_
_space_group_symop_operation_xyz
x,y,z
-x,1/2-y,z
x,-y,-z
-x,1/2+y,-z
-x,-y,-z
x,1/2+y,-z
-x,y,z
x,1/2-y,z
1/2+x,1/2+y,z
1/2-x,-y,z
1/2+x,1/2-y,-z
1/2-x,y,-z
1/2-x,1/2-y,-z
1/2+x,y,-z
1/2-x,1/2+y,z
1/2+x,-y,z
loop_
_atom_site_type_symbol
_atom_site_label
_atom_site_fract_x
_atom_site_fract_y
_atom_site_fract_z
Si Si1 0.609979 0.047263 0.110050
Si Si2 0.694754 0.564609 0.251612
Si Si3 0.000000 0.163438 0.364566
Si Si4 0.925580 0.662854 0.301875
Si Si5 0.872793 0.411670 0.477757
Si Si6 0.155834 0.161134 0.044281
Si Si7 0.000000 0.332414 0.082724
O O1 0.573386 0.109263 0.188388
O O2 0.632245 0.984094 0.203700
O O3 0.670283 0.096667 0.053528
O O4 0.580062 0.000000 0.000000
O O5 0.750000 0.500000 0.245194
O O6 0.687043 0.592566 0.385383
O O7 0.692888 0.635585 0.162912
O O8 0.934811 0.122368 0.408270
O O9 0.000000 0.250000 0.406228
O O10 0.000000 0.165635 0.223734
O O11 0.912067 0.750000 0.271793
O O12 0.873776 0.631424 0.397588
O O13 0.000000 0.658828 0.353297
O O14 0.883422 0.500000 0.500000
O O15 0.166786 0.250000 0.018801
O O16 0.076217 0.146585 0.054784
O O17 0.000000 0.250000 0.026715
#
# Coordination Sequence:
#
# PCOD9504252 Si02
#       7
#    16  16   8  16  16  16   8
#     4  10  23  43  63  98 136 183 224 272 329 408
#     4  11  25  46  68  91 130 174 233 292 338 388
#     4  11  21  37  65 101 138 166 208 275 338 412
#     4  11  24  41  65 100 144 182 217 273 342 414
#     4  12  23  40  65  97 128 177 223 268 341 418
#     4  10  21  40  69 101 135 174 219 271 338 409
#     4   9  18  33  60  98 132 162 200 263 332 404
#
# _framework density 23.602404
#
# number of rings (size 3 to 8) (size 9 to 14) (size 15 to 20)
#    0.000    1.333    4.167    1.250    1.167    4.333 
#    4.500    2.500    0.000    1.000    0.000    0.000 
#    0.000    0.000    0.000    0.000    0.000    0.000 
#
# Total GULP energy -267603.467346 kJ/mol
# GULP energy per Si atom -5575.072236 kJ/mol
# Density = 2.354868 g / cm^3
# Si number density = 23.602404 Si / 1000 Ang^3
#
#
#
# Elastic Constant Matrix: (Units=GPa)
#
#
# Indices 1 2 3 4 5 6 
#
# 1 55.6605 -2.5903 18.4276 0.0000 0.0000 0.0000
# 2 -2.5903 130.3425 25.4996 0.0000 0.0000 0.0000
# 3 18.4276 25.4996 125.0411 0.0000 0.0000 0.0000
# 4 0.0000 0.0000 0.0000 37.8471 0.0000 0.0000
# 5 0.0000 0.0000 0.0000 0.0000 8.4443 0.0000
# 6 0.0000 0.0000 0.0000 0.0000 0.0000 29.5484
#
#
#
# Elastic Compliance Matrix: (Units=1/GPa)
#
#
# Indices 1 2 3 4 5 6 
#
# 1 0.019003 0.000964 -0.002997 0.000000 0.000000 0.000000
# 2 0.000964 0.008040 -0.001782 0.000000 0.000000 0.000000
# 3 -0.002997 -0.001782 0.008802 0.000000 0.000000 0.000000
# 4 0.000000 0.000000 0.000000 0.026422 0.000000 0.000000
# 5 0.000000 0.000000 0.000000 0.000000 0.118424 0.000000
# 6 0.000000 0.000000 0.000000 0.000000 0.000000 0.033843
#
#
# Mechanical properties :
#
#
# Convention : Reuss Voigt Hill
#
# Bulk Modulus (GPa) = 35.44106 43.74642 39.59374
# Shear Modulus (GPa) = 21.59187 33.14843 27.37015
#
# Velocity S-wave (km/s) = 3.02788 3.75167 3.40903
# Velocity P-wave (km/s) = 5.22231 6.11078 5.68393
#
# Compressibility (1/GPa) = 0.02821586
#
# Stress axis : x y z
#
# Youngs Moduli (GPa) = 52.62277 124.38118 113.60554
#
# Poissons Ratio (x) = -0.11990 0.34049
# Poissons Ratio (y) = -0.05073 0.20240
# Poissons Ratio (z) = 0.15772 0.22160
#
# Static dielectric constant tensor:
#      x y z
#    x 1.964480 0.000000 0.000000 
#    y 0.000000 1.894990 0.000000 
#    z 0.000000 0.000000 1.960690 
# 
# From -- ./inp_files/21976.got.cif
#   From: 2010.05.17/outbox.cif.g08.bks.cpg/sg67_11_cif.got.tgz:21976.got - 2010.06.03 18:28:57.
