data_PCOD9504729
_publ_section_title
;
Structure prediction by ZEFSAII (Michael W. Deem and Ramdas Pophale) SiO2 
 PCOD9504729
Probable space group: C M M A
;
_chemical_formula_sum "Si O2"
_cell_formula_units_Z 68
_cell_length_a 15.957548
_cell_length_b 16.801443
_cell_length_c 12.989452
_cell_angle_alpha 90.000000
_cell_angle_beta 90.000000
_cell_angle_gamma 90.000000
_cell_volume 3482.599808
_symmetry_space_group_name_H-M "C M M A"
_symmetry_group_IT_number 67
_symmetry_cell_setting 'orthorhombic'
loop_
_space_group_symop_operation_xyz
x,y,z
-x,1/2-y,z
x,-y,-z
-x,1/2+y,-z
-x,-y,-z
x,1/2+y,-z
-x,y,z
x,1/2-y,z
1/2+x,1/2+y,z
1/2-x,-y,z
1/2+x,1/2-y,-z
1/2-x,y,-z
1/2-x,1/2-y,-z
1/2+x,y,-z
1/2-x,1/2+y,z
1/2+x,-y,z
loop_
_atom_site_type_symbol
_atom_site_label
_atom_site_fract_x
_atom_site_fract_y
_atom_site_fract_z
Si Si1 0.666995 0.593152 0.811666
Si Si2 0.151587 0.156600 0.254011
Si Si3 0.000000 0.585319 0.875954
Si Si4 0.250000 0.500000 0.000000
Si Si5 0.151429 0.484563 0.388377
Si Si6 0.500000 0.391558 0.113511
O O1 0.753226 0.636229 0.780651
O O2 0.691682 0.547666 0.918548
O O3 0.637479 0.537665 0.714930
O O4 0.584839 0.642505 0.838901
O O5 0.140797 0.250000 0.264789
O O6 0.136626 0.106395 0.357401
O O7 0.083291 0.120692 0.176225
O O8 0.000000 0.488868 0.869641
O O9 0.000000 0.615030 0.992023
O O10 0.111296 0.500000 0.500000
O O11 0.250000 0.500000 0.400143
#
# Coordination Sequence:
#
# PCOD9504729 Si02
#       6
#    16  16   8   4  16   8
#     4  11  20  36  60  88 118 160 211 249 293 352
#     4  11  22  39  59  90 128 157 191 251 317 363
#     4  11  21  36  60  91 119 159 206 250 294 349
#     4  12  16  34  60  80 120 158 206 260 280 344
#     4   9  18  37  61  87 117 153 209 252 291 358
#     4  11  20  34  62  87 117 162 214 251 275 340
#
# _framework density 19.525642999999999
#
# number of rings (size 3 to 8) (size 9 to 14) (size 15 to 20)
#    0.000    1.412    5.882    3.176    0.000    0.000 
#    0.000   18.824    0.000    0.000    0.000    0.000 
#    0.000    0.000    0.000    0.000    0.000    0.000 
#
# Total GULP energy -189366.273379 kJ/mol
# GULP energy per Si atom -5569.596276 kJ/mol
# Density = 1.948120 g / cm^3
# Si number density = 19.525643 Si / 1000 Ang^3
#
#
#
# Elastic Constant Matrix: (Units=GPa)
#
#
# Indices 1 2 3 4 5 6 
#
# 1 117.7746 15.9578 38.3248 0.0000 0.0000 0.0000
# 2 15.9578 93.7605 47.2883 0.0000 0.0000 0.0000
# 3 38.3248 47.2883 153.7282 0.0000 0.0000 0.0000
# 4 0.0000 0.0000 0.0000 -394.9479 0.0000 0.0000
# 5 0.0000 0.0000 0.0000 0.0000 674.3517 0.0000
# 6 0.0000 0.0000 0.0000 0.0000 0.0000 -0.5130
#
#
#
# Elastic Compliance Matrix: (Units=1/GPa)
#
#
# Indices 1 2 3 4 5 6 
#
# 1 0.009259 -0.000487 -0.002158 0.000000 0.000000 0.000000
# 2 -0.000487 0.012650 -0.003770 0.000000 0.000000 0.000000
# 3 -0.002158 -0.003770 0.008203 0.000000 0.000000 0.000000
# 4 0.000000 0.000000 0.000000 -0.002532 0.000000 0.000000
# 5 0.000000 0.000000 0.000000 0.000000 0.001483 0.000000
# 6 0.000000 0.000000 0.000000 0.000000 0.000000 -1.949150
#
#
# Mechanical properties :
#
#
# Convention : Reuss Voigt Hill
#
# Bulk Modulus (GPa) = 57.86792 63.15611 60.51201
# Shear Modulus (GPa) = -2.62951 73.35764 35.36407
#
# Velocity S-wave (km/s) = -1.16173 6.13608 4.26039
# Velocity P-wave (km/s) = 5.28221 9.08941 7.43368
#
# Compressibility (1/GPa) = 0.01728073
#
# Stress axis : x y z
#
# Youngs Moduli (GPa) = 108.00075 79.05356 121.91132
#
# Poissons Ratio (x) = 0.03852 0.26314
# Poissons Ratio (y) = 0.05263 0.45957
# Poissons Ratio (z) = 0.23311 0.29801
#
# Static dielectric constant tensor:
#      x y z
#    x 1.733080 0.000000 0.000000 
#    y 0.000000 1.687070 0.000000 
#    z 0.000000 0.000000 1.758330 
# 
# From -- ./inp_files/19198.got.cif
#   From: 2010.05.17/outbox.cif.g08.bks.cpg/sg67_10_cif.got.tgz:19198.got - 2010.06.03 18:28:57.
