data_PCOD9504421
_publ_section_title
;
Structure prediction by ZEFSAII (Michael W. Deem and Ramdas Pophale) SiO2 
 PCOD9504421
Probable space group: C M M A
;
_chemical_formula_sum "Si O2"
_cell_formula_units_Z 52
_cell_length_a 14.772187
_cell_length_b 14.651780
_cell_length_c 11.882099
_cell_angle_alpha 90.000000
_cell_angle_beta 90.000000
_cell_angle_gamma 90.000000
_cell_volume 2571.747654
_symmetry_space_group_name_H-M "C M M A"
_symmetry_group_IT_number 67
_symmetry_cell_setting 'orthorhombic'
loop_
_space_group_symop_operation_xyz
x,y,z
-x,1/2-y,z
x,-y,-z
-x,1/2+y,-z
-x,-y,-z
x,1/2+y,-z
-x,y,z
x,1/2-y,z
1/2+x,1/2+y,z
1/2-x,-y,z
1/2+x,1/2-y,-z
1/2-x,y,-z
1/2-x,1/2-y,-z
1/2+x,y,-z
1/2-x,1/2+y,z
1/2+x,-y,z
loop_
_atom_site_type_symbol
_atom_site_label
_atom_site_fract_x
_atom_site_fract_y
_atom_site_fract_z
Si Si1 0.649661 0.250000 0.951586
Si Si2 0.104981 0.429114 0.674730
Si Si3 0.750000 0.000000 0.500000
Si Si4 0.601798 0.250000 0.202450
Si Si5 0.148089 0.543065 0.883110
O O1 0.596664 0.250000 0.068845
O O2 0.750000 0.250000 0.000000
O O3 0.639766 0.152761 0.890571
O O4 0.179714 0.445849 0.579649
O O5 0.140321 0.341863 0.746126
O O6 0.104370 0.508490 0.768266
O O7 0.000000 0.419070 0.634131
O O8 0.500000 0.250000 0.245192
O O9 0.250000 0.500000 0.879414
O O10 0.109811 0.500000 0.000000
#
# Coordination Sequence:
#
# PCOD9504421 Si02
#       5
#     8  16   4   8  16
#     4  12  20  32  62  97 138 170 209 250 321 404
#     4  11  24  44  68  95 130 172 220 272 326 384
#     4  12  26  46  66  90 128 174 230 276 328 366
#     4  10  22  39  64  96 128 167 214 266 326 393
#     4  11  20  36  61  97 133 171 208 260 324 389
#
# _framework density 20.219714
#
# number of rings (size 3 to 8) (size 9 to 14) (size 15 to 20)
#    0.000    0.923    7.692    0.462    0.000    2.462 
#    0.000    1.538    0.000    0.000    0.000    0.000 
#    0.000    0.000    0.000    0.000    0.000    0.000 
#
# Total GULP energy -144869.145986 kJ/mol
# GULP energy per Si atom -5571.890230 kJ/mol
# Density = 2.017369 g / cm^3
# Si number density = 20.219714 Si / 1000 Ang^3
#
#
#
# Elastic Constant Matrix: (Units=GPa)
#
#
# Indices 1 2 3 4 5 6 
#
# 1 111.0893 24.7429 47.6702 0.0000 0.0000 0.0000
# 2 24.7429 201.3660 61.1505 0.0000 0.0000 0.0000
# 3 47.6702 61.1505 95.0820 0.0000 0.0000 0.0000
# 4 0.0000 0.0000 0.0000 -16.2548 0.0000 0.0000
# 5 0.0000 0.0000 0.0000 0.0000 -103.3192 0.0000
# 6 0.0000 0.0000 0.0000 0.0000 0.0000 12.4837
#
#
#
# Elastic Compliance Matrix: (Units=1/GPa)
#
#
# Indices 1 2 3 4 5 6 
#
# 1 0.011498 0.000420 -0.006034 0.000000 0.000000 0.000000
# 2 0.000420 0.006187 -0.004189 0.000000 0.000000 0.000000
# 3 -0.006034 -0.004189 0.016237 0.000000 0.000000 0.000000
# 4 0.000000 0.000000 0.000000 -0.061520 0.000000 0.000000
# 5 0.000000 0.000000 0.000000 0.000000 -0.009679 0.000000
# 6 0.000000 0.000000 0.000000 0.000000 0.000000 0.080105
#
#
# Mechanical properties :
#
#
# Convention : Reuss Voigt Hill
#
# Bulk Modulus (GPa) = 69.86480 74.96272 72.41376
# Shear Modulus (GPa) = 74.39803 -3.15315 35.62244
#
# Velocity S-wave (km/s) = 6.07245 -1.25013 4.20190
# Velocity P-wave (km/s) = 9.15391 5.92206 7.70924
#
# Compressibility (1/GPa) = 0.01431336
#
# Stress axis : x y z
#
# Youngs Moduli (GPa) = 86.97347 161.63666 61.58788
#
# Poissons Ratio (x) = -0.06785 0.37165
# Poissons Ratio (y) = -0.03651 0.25801
# Poissons Ratio (z) = 0.52484 0.67715
#
# Static dielectric constant tensor:
#      x y z
#    x 1.761830 0.000000 0.000000 
#    y 0.000000 1.755810 0.000000 
#    z 0.000000 0.000000 1.711330 
# 
# From -- ./inp_files/17260.got.cif
#   From: 2010.05.17/outbox.cif.g08.bks.cpg/sg67_9_cif.got.tgz:17260.got - 2010.06.03 18:28:57.
