data_PCOD9504195
_publ_section_title
;
Structure prediction by ZEFSAII (Michael W. Deem and Ramdas Pophale) SiO2 
 PCOD9504195
Probable space group: C M M A
;
_chemical_formula_sum "Si O2"
_cell_formula_units_Z 104
_cell_length_a 21.014022
_cell_length_b 29.227262
_cell_length_c 8.502663
_cell_angle_alpha 90.000000
_cell_angle_beta 90.000000
_cell_angle_gamma 90.000000
_cell_volume 5222.185344
_symmetry_space_group_name_H-M "C M M A"
_symmetry_group_IT_number 67
_symmetry_cell_setting 'orthorhombic'
loop_
_space_group_symop_operation_xyz
x,y,z
-x,1/2-y,z
x,-y,-z
-x,1/2+y,-z
-x,-y,-z
x,1/2+y,-z
-x,y,z
x,1/2-y,z
1/2+x,1/2+y,z
1/2-x,-y,z
1/2+x,1/2-y,-z
1/2-x,y,-z
1/2-x,1/2-y,-z
1/2+x,y,-z
1/2-x,1/2+y,z
1/2+x,-y,z
loop_
_atom_site_type_symbol
_atom_site_label
_atom_site_fract_x
_atom_site_fract_y
_atom_site_fract_z
Si Si1 0.261357 0.250000 0.753030
Si Si2 0.928602 0.132167 0.920609
Si Si3 0.071608 0.842382 0.434493
Si Si4 0.816132 0.599003 0.572307
Si Si5 0.076128 0.525920 0.160736
Si Si6 0.360041 0.000000 0.500000
Si Si7 0.305850 0.347196 0.890437
Si Si8 0.644516 0.250000 0.460495
O O1 0.281011 0.297023 0.838606
O O2 0.304268 0.250000 0.598020
O O3 0.187350 0.250000 0.698900
O O4 0.930760 0.156949 0.753505
O O5 0.912926 0.079445 0.877202
O O6 0.000000 0.133222 0.991483
O O7 0.873376 0.154272 0.022948
O O8 0.121553 0.880099 0.490671
O O9 0.100906 0.794091 0.480083
O O10 0.000000 0.850392 0.494141
O O11 0.750000 0.616711 0.500000
O O12 0.820861 0.544965 0.547714
O O13 0.815534 0.618199 0.747204
O O14 0.103221 0.512088 0.333942
O O15 0.000000 0.518619 0.171182
O O16 0.098635 0.500000 0.000000
O O17 0.250000 0.366331 0.000000
#
# Coordination Sequence:
#
# PCOD9504195 Si02
#       8
#     8  16  16  16  16   8  16   8
#     4  11  23  40  69 101 131 181 224 284 340 429
#     4  10  22  42  63  93 136 177 220 283 346 411
#     4  11  23  42  70  97 134 178 225 278 340 408
#     4  12  25  44  66  98 137 182 226 284 342 414
#     4  10  21  39  65  98 135 179 233 291 354 422
#     4  12  24  40  72 100 141 182 239 290 359 414
#     4  12  25  42  69  99 133 180 232 284 349 416
#     4  11  21  42  67 101 137 167 225 280 346 404
#
# _framework density 19.915033999999999
#
# number of rings (size 3 to 8) (size 9 to 14) (size 15 to 20)
#    0.000    0.923    3.077    4.615    0.000    1.846 
#    0.000    1.154    0.000    0.000    0.000    0.000 
#    0.000    0.000    0.000    0.000    0.000    0.000 
#
# Total GULP energy -290236.678338 kJ/mol
# GULP energy per Si atom -5581.474583 kJ/mol
# Density = 1.986971 g / cm^3
# Si number density = 19.915034 Si / 1000 Ang^3
#
#
#
# Elastic Constant Matrix: (Units=GPa)
#
#
# Indices 1 2 3 4 5 6 
#
# 1 141.1721 29.0978 40.5899 0.0000 0.0000 0.0000
# 2 29.0978 74.8756 12.7931 0.0000 0.0000 0.0000
# 3 40.5899 12.7931 98.9466 0.0000 0.0000 0.0000
# 4 0.0000 0.0000 0.0000 324.4243 0.0000 0.0000
# 5 0.0000 0.0000 0.0000 0.0000 31.1111 0.0000
# 6 0.0000 0.0000 0.0000 0.0000 0.0000 62.6081
#
#
#
# Elastic Compliance Matrix: (Units=1/GPa)
#
#
# Indices 1 2 3 4 5 6 
#
# 1 0.008565 -0.002790 -0.003153 0.000000 0.000000 0.000000
# 2 -0.002790 0.014566 -0.000739 0.000000 0.000000 0.000000
# 3 -0.003153 -0.000739 0.011495 0.000000 0.000000 0.000000
# 4 0.000000 0.000000 0.000000 0.003082 0.000000 0.000000
# 5 0.000000 0.000000 0.000000 0.000000 0.032143 0.000000
# 6 0.000000 0.000000 0.000000 0.000000 0.000000 0.015972
#
#
# Mechanical properties :
#
#
# Convention : Reuss Voigt Hill
#
# Bulk Modulus (GPa) = 47.02941 53.32844 50.17892
# Shear Modulus (GPa) = 47.04786 99.12960 73.08873
#
# Velocity S-wave (km/s) = 4.86576 7.06288 6.06465
# Velocity P-wave (km/s) = 7.43194 9.66171 8.61923
#
# Compressibility (1/GPa) = 0.02126329
#
# Stress axis : x y z
#
# Youngs Moduli (GPa) = 116.75297 68.65349 86.99168
#
# Poissons Ratio (x) = 0.19153 0.27427
# Poissons Ratio (y) = 0.32572 0.06427
# Poissons Ratio (z) = 0.36811 0.05072
#
# Static dielectric constant tensor:
#      x y z
#    x 1.735710 0.000000 0.000000 
#    y 0.000000 1.688830 0.000000 
#    z 0.000000 0.000000 1.724790 
# 
# From -- ./inp_files/11616.got.cif
#   From: 2010.05.17/outbox.cif.g08.bks.cpg/sg67_6_cif.got.tgz:11616.got - 2010.06.03 18:28:57.
