data_PCOD9504233
_publ_section_title
;
Structure prediction by ZEFSAII (Michael W. Deem and Ramdas Pophale) SiO2 
 PCOD9504233
Probable space group: C M M A
;
_chemical_formula_sum "Si O2"
_cell_formula_units_Z 64
_cell_length_a 16.164719
_cell_length_b 32.516190
_cell_length_c 5.235655
_cell_angle_alpha 90.000000
_cell_angle_beta 90.000000
_cell_angle_gamma 90.000000
_cell_volume 2751.939192
_symmetry_space_group_name_H-M "C M M A"
_symmetry_group_IT_number 67
_symmetry_cell_setting 'orthorhombic'
loop_
_space_group_symop_operation_xyz
x,y,z
-x,1/2-y,z
x,-y,-z
-x,1/2+y,-z
-x,-y,-z
x,1/2+y,-z
-x,y,z
x,1/2-y,z
1/2+x,1/2+y,z
1/2-x,-y,z
1/2+x,1/2-y,-z
1/2-x,y,-z
1/2-x,1/2-y,-z
1/2+x,y,-z
1/2-x,1/2+y,z
1/2+x,-y,z
loop_
_atom_site_type_symbol
_atom_site_label
_atom_site_fract_x
_atom_site_fract_y
_atom_site_fract_z
Si Si1 0.843626 0.549178 0.006487
Si Si2 0.599326 0.616122 0.656945
Si Si3 0.000000 0.470768 0.251523
Si Si4 0.100359 0.335301 0.170026
Si Si5 0.192653 0.750000 0.752321
O O1 0.917022 0.555954 0.798107
O O2 0.835393 0.500000 0.000000
O O3 0.750000 0.565345 0.000000
O O4 0.876566 0.570178 0.262632
O O5 0.500000 0.616738 0.644531
O O6 0.632269 0.635634 0.398296
O O7 0.624164 0.645099 0.897582
O O8 0.000000 0.500000 0.500000
O O9 0.000000 0.500000 0.000000
O O10 0.136494 0.290577 0.226083
O O11 0.000000 0.333740 0.175582
O O12 0.250000 0.750000 0.500000
O O13 0.250000 0.750000 0.000000
#
# Coordination Sequence:
#
# PCOD9504233 Si02
#       5
#    16  16   8  16   8
#     4  10  22  42  66  99 138 184 238 295 361 429
#     4  10  21  40  65  96 131 175 228 283 345 411
#     4  10  22  42  66  92 130 179 230 293 354 426
#     4  10  23  43  68  95 131 176 224 275 339 419
#     4  12  25  42  67 100 136 174 222 280 349 416
#
# _framework density 23.256326000000001
#
# number of rings (size 3 to 8) (size 9 to 14) (size 15 to 20)
#    0.000    1.750    1.250    1.875    0.000    7.000 
#    0.000   22.500    0.000    0.000    0.000    0.000 
#    0.000    0.000    0.000    0.000    0.000    0.000 
#
# Total GULP energy -178798.963988 kJ/mol
# GULP energy per Si atom -5587.467625 kJ/mol
# Density = 2.320339 g / cm^3
# Si number density = 23.256326 Si / 1000 Ang^3
#
#
#
# Elastic Constant Matrix: (Units=GPa)
#
#
# Indices 1 2 3 4 5 6 
#
# 1 108.7444 14.8991 44.1607 0.0000 0.0000 0.0000
# 2 14.8991 142.9122 40.1880 0.0000 0.0000 0.0000
# 3 44.1607 40.1880 150.7210 0.0000 0.0000 0.0000
# 4 0.0000 0.0000 0.0000 34.0219 0.0000 0.0000
# 5 0.0000 0.0000 0.0000 0.0000 11.6844 0.0000
# 6 0.0000 0.0000 0.0000 0.0000 0.0000 -42.4309
#
#
#
# Elastic Compliance Matrix: (Units=1/GPa)
#
#
# Indices 1 2 3 4 5 6 
#
# 1 0.010446 -0.000247 -0.002995 0.000000 0.000000 0.000000
# 2 -0.000247 0.007570 -0.001946 0.000000 0.000000 0.000000
# 3 -0.002995 -0.001946 0.008031 0.000000 0.000000 0.000000
# 4 0.000000 0.000000 0.000000 0.029393 0.000000 0.000000
# 5 0.000000 0.000000 0.000000 0.000000 0.085584 0.000000
# 6 0.000000 0.000000 0.000000 0.000000 0.000000 -0.023568
#
#
# Mechanical properties :
#
#
# Convention : Reuss Voigt Hill
#
# Bulk Modulus (GPa) = 63.80943 66.76368 65.28655
# Shear Modulus (GPa) = 37.57810 20.86372 29.22091
#
# Velocity S-wave (km/s) = 4.02409 2.99845 3.54852
# Velocity P-wave (km/s) = 7.00629 6.38417 6.70245
#
# Compressibility (1/GPa) = 0.01567167
#
# Stress axis : x y z
#
# Youngs Moduli (GPa) = 95.73161 132.09464 124.51487
#
# Poissons Ratio (x) = 0.03261 0.37289
# Poissons Ratio (y) = 0.02363 0.24233
# Poissons Ratio (z) = 0.28669 0.25708
#
# Static dielectric constant tensor:
#      x y z
#    x 1.914210 0.000000 0.000000 
#    y 0.000000 1.983590 0.000000 
#    z 0.000000 0.000000 2.067580 
# 
# From -- ./inp_files/2240.got.cif
#   From: 2010.05.17/outbox.cif.g08.bks.cpg/sg67_2_cif.got.tgz:2240.got - 2010.06.03 18:28:57.
