data_PCOD9504341
_publ_section_title
;
Structure prediction by ZEFSAII (Michael W. Deem and Ramdas Pophale) SiO2 
 PCOD9504341
Probable space group: C M M A
;
_chemical_formula_sum "Si O2"
_cell_formula_units_Z 88
_cell_length_a 14.969024
_cell_length_b 7.483119
_cell_length_c 33.253067
_cell_angle_alpha 90.000000
_cell_angle_beta 90.000000
_cell_angle_gamma 90.000000
_cell_volume 3724.841898
_symmetry_space_group_name_H-M "C M M A"
_symmetry_group_IT_number 67
_symmetry_cell_setting 'orthorhombic'
loop_
_space_group_symop_operation_xyz
x,y,z
-x,1/2-y,z
x,-y,-z
-x,1/2+y,-z
-x,-y,-z
x,1/2+y,-z
-x,y,z
x,1/2-y,z
1/2+x,1/2+y,z
1/2-x,-y,z
1/2+x,1/2-y,-z
1/2-x,y,-z
1/2-x,1/2-y,-z
1/2+x,y,-z
1/2-x,1/2+y,z
1/2+x,-y,z
loop_
_atom_site_type_symbol
_atom_site_label
_atom_site_fract_x
_atom_site_fract_y
_atom_site_fract_z
Si Si1 0.893202 0.554119 0.544082
Si Si2 0.142920 0.964702 0.717056
Si Si3 0.000000 0.535851 0.952897
Si Si4 0.143285 0.964061 0.803520
Si Si5 0.355019 0.464367 0.891137
Si Si6 0.855149 0.535948 0.630750
O O1 0.860006 0.500000 0.500000
O O2 0.852702 0.750000 0.549936
O O3 0.880776 0.459753 0.587020
O O4 0.000000 0.564815 0.539985
O O5 0.130368 0.750000 0.716872
O O6 0.108960 0.032323 0.760327
O O7 0.108373 0.031746 0.673770
O O8 0.250000 0.000000 0.717378
O O9 0.913918 0.468950 0.928144
O O10 0.000000 0.750000 0.949665
O O11 0.000000 0.500000 0.000000
O O12 0.128941 0.750000 0.803160
O O13 0.113090 0.031910 0.847146
O O14 0.250000 0.000000 0.803617
O O15 0.364695 0.250000 0.889577
O O16 0.250000 0.500000 0.895986
O O17 0.875201 0.750000 0.630363
O O18 0.750000 0.500000 0.632896
#
# Coordination Sequence:
#
# PCOD9504341 Si02
#       6
#    16  16   8  16  16  16
#     4   9  18  32  47  60  78 108 144 180 218 262
#     4   8  13  22  38  61  88 115 143 174 214 266
#     4  10  22  38  54  74 104 138 170 210 257 300
#     4   8  13  23  42  66  91 119 152 186 222 269
#     4   9  18  33  53  76 102 133 169 209 251 296
#     4   9  17  28  43  64  89 113 139 176 220 264
#
# _framework density 23.625163000000001
#
# number of rings (size 3 to 8) (size 9 to 14) (size 15 to 20)
#    0.000    3.273    0.000    0.000    0.000    2.182 
#    0.000    3.636    2.000    0.000    0.000    0.000 
#    0.000    0.000    0.000    0.000    0.000    0.000 
#
# Total GULP energy -244946.988786 kJ/mol
# GULP energy per Si atom -5566.977018 kJ/mol
# Density = 2.357139 g / cm^3
# Si number density = 23.625163 Si / 1000 Ang^3
#
#
#
# Elastic Constant Matrix: (Units=GPa)
#
#
# Indices 1 2 3 4 5 6 
#
# 1 69.0334 -5.3607 65.1733 0.0000 0.0000 0.0000
# 2 -5.3607 68.8508 19.6581 0.0000 0.0000 0.0000
# 3 65.1733 19.6581 347.1660 0.0000 0.0000 0.0000
# 4 0.0000 0.0000 0.0000 7.3562 0.0000 0.0000
# 5 0.0000 0.0000 0.0000 0.0000 50.8344 0.0000
# 6 0.0000 0.0000 0.0000 0.0000 0.0000 -2.5316
#
#
#
# Elastic Compliance Matrix: (Units=1/GPa)
#
#
# Indices 1 2 3 4 5 6 
#
# 1 0.017989 0.002404 -0.003513 0.000000 0.000000 0.000000
# 2 0.002404 0.015084 -0.001305 0.000000 0.000000 0.000000
# 3 -0.003513 -0.001305 0.003614 0.000000 0.000000 0.000000
# 4 0.000000 0.000000 0.000000 0.135939 0.000000 0.000000
# 5 0.000000 0.000000 0.000000 0.000000 0.019672 0.000000
# 6 0.000000 0.000000 0.000000 0.000000 0.000000 -0.395003
#
#
# Mechanical properties :
#
#
# Convention : Reuss Voigt Hill
#
# Bulk Modulus (GPa) = 31.38990 71.55462 51.47226
# Shear Modulus (GPa) = -26.70141 38.17043 5.73451
#
# Velocity S-wave (km/s) = -3.36551 4.02390 1.55967
# Velocity P-wave (km/s) = 1.33668 7.20710 5.00777
#
# Compressibility (1/GPa) = 0.03185738
#
# Stress axis : x y z
#
# Youngs Moduli (GPa) = 55.58903 66.29529 276.70828
#
# Poissons Ratio (x) = -0.15936 0.97213
# Poissons Ratio (y) = -0.13362 0.36121
# Poissons Ratio (z) = 0.19530 0.08654
#
# Static dielectric constant tensor:
#      x y z
#    x 1.850430 0.000000 0.000000 
#    y 0.000000 2.151550 0.000000 
#    z 0.000000 0.000000 1.991780 
# 
# From -- ./inp_files/45788.got.cif
#   From: 2010.05.17/outbox.cif.g08.bks.cpg/sg67_23_cif.got.tgz:45788.got - 2010.06.03 18:28:57.
