data_PCOD9504556
_publ_section_title
;
Structure prediction by ZEFSAII (Michael W. Deem and Ramdas Pophale) SiO2 
 PCOD9504556
Probable space group: C M M A
;
_chemical_formula_sum "Si O2"
_cell_formula_units_Z 56
_cell_length_a 14.207757
_cell_length_b 29.111186
_cell_length_c 5.789396
_cell_angle_alpha 90.000000
_cell_angle_beta 90.000000
_cell_angle_gamma 90.000000
_cell_volume 2394.521145
_symmetry_space_group_name_H-M "C M M A"
_symmetry_group_IT_number 67
_symmetry_cell_setting 'orthorhombic'
loop_
_space_group_symop_operation_xyz
x,y,z
-x,1/2-y,z
x,-y,-z
-x,1/2+y,-z
-x,-y,-z
x,1/2+y,-z
-x,y,z
x,1/2-y,z
1/2+x,1/2+y,z
1/2-x,-y,z
1/2+x,1/2-y,-z
1/2-x,y,-z
1/2-x,1/2-y,-z
1/2+x,y,-z
1/2-x,1/2+y,z
1/2+x,-y,z
loop_
_atom_site_type_symbol
_atom_site_label
_atom_site_fract_x
_atom_site_fract_y
_atom_site_fract_z
Si Si1 0.212501 0.053174 0.250202
Si Si2 0.000000 0.297210 0.307716
Si Si3 0.850280 0.198138 0.917829
Si Si4 0.500000 0.050999 0.595539
Si Si5 0.000000 0.635424 0.325511
O O1 0.250000 0.072781 0.500000
O O2 0.098628 0.057193 0.266732
O O3 0.250000 0.000000 0.253204
O O4 0.250000 0.071215 0.000000
O O5 0.000000 0.250000 0.456582
O O6 0.000000 0.346625 0.414939
O O7 0.910431 0.295515 0.147105
O O8 0.841382 0.250000 0.811659
O O9 0.908942 0.160887 0.776697
O O10 0.750000 0.181997 0.000000
O O11 0.500000 0.081876 0.360742
O O12 0.500000 0.000000 0.500000
#
# Coordination Sequence:
#
# PCOD9504556 Si02
#       5
#    16   8  16   8   8
#     4  10  22  45  73 103 134 187 255 314 390 464
#     4   9  18  37  61  92 130 168 216 279 354 438
#     4   9  19  40  67  99 138 177 225 292 368 454
#     4  12  25  49  69 100 149 194 254 328 397 449
#     4  11  23  41  63  98 135 184 241 293 366 455
#
# _framework density 23.386721000000001
#
# number of rings (size 3 to 8) (size 9 to 14) (size 15 to 20)
#    0.000    2.000    2.857    2.143    0.000    4.571 
#   15.429    5.714    0.000    0.000    0.000    0.000 
#    0.000    0.000    0.000    0.000    0.000    0.000 
#
# Total GULP energy -156046.682007 kJ/mol
# GULP energy per Si atom -5573.095786 kJ/mol
# Density = 2.333349 g / cm^3
# Si number density = 23.386721 Si / 1000 Ang^3
#
#
#
# Elastic Constant Matrix: (Units=GPa)
#
#
# Indices 1 2 3 4 5 6 
#
# 1 243.1998 35.1825 62.4822 0.0000 0.0000 0.0000
# 2 35.1825 137.9069 24.7153 0.0000 0.0000 0.0000
# 3 62.4822 24.7153 113.0516 0.0000 0.0000 0.0000
# 4 0.0000 0.0000 0.0000 18.1922 0.0000 0.0000
# 5 0.0000 0.0000 0.0000 0.0000 -220.7133 0.0000
# 6 0.0000 0.0000 0.0000 0.0000 0.0000 7.8368
#
#
#
# Elastic Compliance Matrix: (Units=1/GPa)
#
#
# Indices 1 2 3 4 5 6 
#
# 1 0.004874 -0.000792 -0.002521 0.000000 0.000000 0.000000
# 2 -0.000792 0.007676 -0.001240 0.000000 0.000000 0.000000
# 3 -0.002521 -0.001240 0.010510 0.000000 0.000000 0.000000
# 4 0.000000 0.000000 0.000000 0.054969 0.000000 0.000000
# 5 0.000000 0.000000 0.000000 0.000000 -0.004531 0.000000
# 6 0.000000 0.000000 0.000000 0.000000 0.000000 0.127603
#
#
# Mechanical properties :
#
#
# Convention : Reuss Voigt Hill
#
# Bulk Modulus (GPa) = 71.66568 82.10203 76.88386
# Shear Modulus (GPa) = 23.27121 -14.15165 4.55978
#
# Velocity S-wave (km/s) = 3.15788 -2.46258 1.39784
# Velocity P-wave (km/s) = 6.63374 5.20545 5.96252
#
# Compressibility (1/GPa) = 0.01395368
#
# Stress axis : x y z
#
# Youngs Moduli (GPa) = 205.17073 130.28370 95.14857
#
# Poissons Ratio (x) = 0.10314 0.23984
# Poissons Ratio (y) = 0.16243 0.11803
# Poissons Ratio (z) = 0.51718 0.16161
#
# Static dielectric constant tensor:
#      x y z
#    x 1.874020 0.000000 0.000000 
#    y 0.000000 2.014210 0.000000 
#    z 0.000000 0.000000 1.936530 
# 
# From -- ./inp_files/1458.got.cif
#   From: 2010.05.17/outbox.cif.g08.bks.cpg/sg67_1_cif.got.tgz:1458.got - 2010.06.03 18:28:57.
