data_PCOD9504654
_publ_section_title
;
Structure prediction by ZEFSAII (Michael W. Deem and Ramdas Pophale) SiO2 
 PCOD9504654
Probable space group: C M M A
;
_chemical_formula_sum "Si O2"
_cell_formula_units_Z 56
_cell_length_a 15.966592
_cell_length_b 7.566842
_cell_length_c 24.101977
_cell_angle_alpha 90.000000
_cell_angle_beta 90.000000
_cell_angle_gamma 90.000000
_cell_volume 2911.920817
_symmetry_space_group_name_H-M "C M M A"
_symmetry_group_IT_number 67
_symmetry_cell_setting 'orthorhombic'
loop_
_space_group_symop_operation_xyz
x,y,z
-x,1/2-y,z
x,-y,-z
-x,1/2+y,-z
-x,-y,-z
x,1/2+y,-z
-x,y,z
x,1/2-y,z
1/2+x,1/2+y,z
1/2-x,-y,z
1/2+x,1/2-y,-z
1/2-x,y,-z
1/2-x,1/2-y,-z
1/2+x,y,-z
1/2-x,1/2+y,z
1/2+x,-y,z
loop_
_atom_site_type_symbol
_atom_site_label
_atom_site_fract_x
_atom_site_fract_y
_atom_site_fract_z
Si Si1 0.651390 0.956002 0.438585
Si Si2 0.097734 0.750000 0.353031
Si Si3 0.500000 0.039823 0.935149
Si Si4 0.601905 0.250000 0.227909
Si Si5 0.654598 0.538987 0.141172
O O1 0.638828 0.750000 0.427463
O O2 0.616372 0.000000 0.500000
O O3 0.750000 0.000000 0.441395
O O4 0.618325 0.080405 0.390305
O O5 0.134667 0.750000 0.291201
O O6 0.000000 0.750000 0.343577
O O7 0.500000 0.250000 0.929783
O O8 0.415590 0.980470 0.903656
O O9 0.500000 0.000000 0.000000
O O10 0.500000 0.250000 0.225361
O O11 0.635064 0.422223 0.195377
O O12 0.646649 0.750000 0.150972
O O13 0.750000 0.500000 0.123190
#
# Coordination Sequence:
#
# PCOD9504654 Si02
#       5
#    16   8   8   8  16
#     4  11  20  40  66  88 124 167 206 261 321 384
#     4  11  26  41  59  99 122 160 219 254 324 385
#     4  10  24  40  66 100 132 170 214 262 317 379
#     4  11  24  44  67  83 132 177 203 269 326 383
#     4  11  23  42  66  96 128 172 219 261 321 380
#
# _framework density 19.231292
#
# number of rings (size 3 to 8) (size 9 to 14) (size 15 to 20)
#    0.000    1.143    5.714    0.857    2.000    4.000 
#    0.000    5.714    0.000    0.000    0.000    0.000 
#    0.000    0.000    0.000    0.000    0.000    0.000 
#
# Total GULP energy -156315.203306 kJ/mol
# GULP energy per Si atom -5582.685832 kJ/mol
# Density = 1.918752 g / cm^3
# Si number density = 19.231292 Si / 1000 Ang^3
#
#
#
# Elastic Constant Matrix: (Units=GPa)
#
#
# Indices 1 2 3 4 5 6 
#
# 1 108.3678 28.1818 61.4559 0.0000 0.0000 0.0000
# 2 28.1818 163.9559 75.6273 0.0000 0.0000 0.0000
# 3 61.4559 75.6273 189.0090 0.0000 0.0000 0.0000
# 4 0.0000 0.0000 0.0000 31.5057 0.0000 0.0000
# 5 0.0000 0.0000 0.0000 0.0000 47.7807 0.0000
# 6 0.0000 0.0000 0.0000 0.0000 0.0000 10.3003
#
#
#
# Elastic Compliance Matrix: (Units=1/GPa)
#
#
# Indices 1 2 3 4 5 6 
#
# 1 0.011326 -0.000304 -0.003561 0.000000 0.000000 0.000000
# 2 -0.000304 0.007488 -0.002897 0.000000 0.000000 0.000000
# 3 -0.003561 -0.002897 0.007608 0.000000 0.000000 0.000000
# 4 0.000000 0.000000 0.000000 0.031740 0.000000 0.000000
# 5 0.000000 0.000000 0.000000 0.000000 0.020929 0.000000
# 6 0.000000 0.000000 0.000000 0.000000 0.000000 0.097085
#
#
# Mechanical properties :
#
#
# Convention : Reuss Voigt Hill
#
# Bulk Modulus (GPa) = 77.53601 87.98476 82.76038
# Shear Modulus (GPa) = 25.77316 37.65518 31.71417
#
# Velocity S-wave (km/s) = 3.66480 4.42975 4.06531
# Velocity P-wave (km/s) = 7.63629 8.48609 8.07238
#
# Compressibility (1/GPa) = 0.01289723
#
# Stress axis : x y z
#
# Youngs Moduli (GPa) = 88.28902 133.54954 131.44340
#
# Poissons Ratio (x) = 0.04064 0.46807
# Poissons Ratio (y) = 0.02686 0.38081
# Poissons Ratio (z) = 0.31440 0.38691
#
# Static dielectric constant tensor:
#      x y z
#    x 1.687960 0.000000 0.000000 
#    y 0.000000 1.657280 0.000000 
#    z 0.000000 0.000000 1.689420 
# 
# From -- ./inp_files/38224.got.cif
#   From: 2010.05.17/outbox.cif.g08.bks.cpg/sg67_20_cif.got.tgz:38224.got - 2010.06.03 18:28:57.
