data_PCOD9504644
_publ_section_title
;
Structure prediction by ZEFSAII (Michael W. Deem and Ramdas Pophale) SiO2 
 PCOD9504644
Probable space group: C M M A
;
_chemical_formula_sum "Si O2"
_cell_formula_units_Z 84
_cell_length_a 14.027719
_cell_length_b 18.832705
_cell_length_c 12.954682
_cell_angle_alpha 90.000000
_cell_angle_beta 90.000000
_cell_angle_gamma 90.000000
_cell_volume 3422.366514
_symmetry_space_group_name_H-M "C M M A"
_symmetry_group_IT_number 67
_symmetry_cell_setting 'orthorhombic'
loop_
_space_group_symop_operation_xyz
x,y,z
-x,1/2-y,z
x,-y,-z
-x,1/2+y,-z
-x,-y,-z
x,1/2+y,-z
-x,y,z
x,1/2-y,z
1/2+x,1/2+y,z
1/2-x,-y,z
1/2+x,1/2-y,-z
1/2-x,y,-z
1/2-x,1/2-y,-z
1/2+x,y,-z
1/2-x,1/2+y,z
1/2+x,-y,z
loop_
_atom_site_type_symbol
_atom_site_label
_atom_site_fract_x
_atom_site_fract_y
_atom_site_fract_z
Si Si1 0.109865 0.469549 0.800331
Si Si2 0.643259 0.142112 0.036988
Si Si3 0.102010 0.860312 0.807458
Si Si4 0.240783 0.871429 0.332687
Si Si5 0.889578 0.668607 0.511892
Si Si6 0.500000 0.750000 0.873036
O O1 0.136383 0.435610 0.911477
O O2 0.114116 0.554402 0.801266
O O3 0.182769 0.435212 0.719253
O O4 0.000000 0.451331 0.775870
O O5 0.750000 0.157271 0.000000
O O6 0.594238 0.155492 0.927394
O O7 0.584963 0.189237 0.117946
O O8 0.199064 0.832476 0.756891
O O9 0.000000 0.839933 0.757590
O O10 0.162098 0.832020 0.401130
O O11 0.327987 0.882759 0.414208
O O12 0.881981 0.750000 0.551076
O O13 0.000000 0.649192 0.504217
#
# Coordination Sequence:
#
# PCOD9504644 Si02
#       6
#    16  16  16  16  16   4
#     4  11  23  41  67  99 134 177 223 270 326 391
#     4  12  24  44  66  93 137 184 226 270 325 381
#     4  11  23  41  67  99 134 177 223 270 326 391
#     4  11  21  39  68 101 126 161 221 280 331 397
#     4  10  23  47  68  93 130 177 223 270 331 406
#     4  12  26  48  58  94 136 186 230 286 308 386
#
# _framework density 24.544419000000001
#
# number of rings (size 3 to 8) (size 9 to 14) (size 15 to 20)
#    0.000    0.952    3.810    3.714    0.000    2.286 
#    6.857    7.619    0.000   13.714    0.000    0.000 
#    0.000    0.000    0.000    0.000    0.000    0.000 
#
# Total GULP energy -234000.546257 kJ/mol
# GULP energy per Si atom -5571.441578 kJ/mol
# Density = 2.448855 g / cm^3
# Si number density = 24.544419 Si / 1000 Ang^3
#
#
#
# Elastic Constant Matrix: (Units=GPa)
#
#
# Indices 1 2 3 4 5 6 
#
# 1 243.6286 23.1229 26.1638 0.0000 0.0000 0.0000
# 2 23.1229 73.8533 4.6769 0.0000 0.0000 0.0000
# 3 26.1638 4.6769 77.2197 0.0000 0.0000 0.0000
# 4 0.0000 0.0000 0.0000 -3.3341 0.0000 0.0000
# 5 0.0000 0.0000 0.0000 0.0000 29.3108 0.0000
# 6 0.0000 0.0000 0.0000 0.0000 0.0000 15.2868
#
#
#
# Elastic Compliance Matrix: (Units=1/GPa)
#
#
# Indices 1 2 3 4 5 6 
#
# 1 0.004377 -0.001281 -0.001405 0.000000 0.000000 0.000000
# 2 -0.001281 0.013968 -0.000412 0.000000 0.000000 0.000000
# 3 -0.001405 -0.000412 0.013451 0.000000 0.000000 0.000000
# 4 0.000000 0.000000 0.000000 -0.299928 0.000000 0.000000
# 5 0.000000 0.000000 0.000000 0.000000 0.034117 0.000000
# 6 0.000000 0.000000 0.000000 0.000000 0.000000 0.065416
#
#
# Mechanical properties :
#
#
# Convention : Reuss Voigt Hill
#
# Bulk Modulus (GPa) = 39.06461 55.84765 47.45613
# Shear Modulus (GPa) = -32.49531 30.96856 -0.76338
#
# Velocity S-wave (km/s) = -3.64254 3.55594 -0.55830
# Velocity P-wave (km/s) = 1.31924 6.29784 4.35444
#
# Compressibility (1/GPa) = 0.02559861
#
# Stress axis : x y z
#
# Youngs Moduli (GPa) = 228.45816 71.59400 74.34275
#
# Poissons Ratio (x) = 0.09174 0.10449
# Poissons Ratio (y) = 0.29276 0.03061
# Poissons Ratio (z) = 0.32109 0.02948
#
# Static dielectric constant tensor:
#      x y z
#    x 2.001680 0.000000 0.000000 
#    y 0.000000 2.151210 0.000000 
#    z 0.000000 0.000000 2.041950 
# 
# From -- ./inp_files/18105.got.cif
#   From: 2010.05.17/outbox.cif.g08.bks.cpg/sg67_10_cif.got.tgz:18105.got - 2010.06.03 18:28:57.
