data_PCOD9504963
_publ_section_title
;
Structure prediction by ZEFSAII (Michael W. Deem and Ramdas Pophale) SiO2 
 PCOD9504963
Probable space group: C M M A
;
_chemical_formula_sum "Si O2"
_cell_formula_units_Z 48
_cell_length_a 15.159902
_cell_length_b 20.973382
_cell_length_c 6.892702
_cell_angle_alpha 90.000000
_cell_angle_beta 90.000000
_cell_angle_gamma 90.000000
_cell_volume 2191.565037
_symmetry_space_group_name_H-M "C M M A"
_symmetry_group_IT_number 67
_symmetry_cell_setting 'orthorhombic'
loop_
_space_group_symop_operation_xyz
x,y,z
-x,1/2-y,z
x,-y,-z
-x,1/2+y,-z
-x,-y,-z
x,1/2+y,-z
-x,y,z
x,1/2-y,z
1/2+x,1/2+y,z
1/2-x,-y,z
1/2+x,1/2-y,-z
1/2-x,y,-z
1/2-x,1/2-y,-z
1/2+x,y,-z
1/2-x,1/2+y,z
1/2+x,-y,z
loop_
_atom_site_type_symbol
_atom_site_label
_atom_site_fract_x
_atom_site_fract_y
_atom_site_fract_z
Si Si1 0.000000 0.925527 0.496218
Si Si2 0.500000 0.640252 0.130198
Si Si3 0.645163 0.116166 0.188726
Si Si4 0.750000 0.000000 0.000000
Si Si5 0.500000 0.250000 0.546092
Si Si6 0.814748 0.750000 0.322714
O O1 0.915632 0.897876 0.378147
O O2 0.000000 0.917992 0.726919
O O3 0.000000 0.000000 0.500000
O O4 0.500000 0.693134 0.298384
O O5 0.417283 0.636895 0.989273
O O6 0.699970 0.181251 0.222215
O O7 0.694273 0.050536 0.130616
O O8 0.415206 0.250000 0.405902
O O9 0.750000 0.750000 0.500000
#
# Coordination Sequence:
#
# PCOD9504963 Si02
#       6
#     8   8  16   4   4   8
#     4  11  22  42  73  98 137 189 251 299 370 450
#     4  11  22  44  78  97 137 191 239 312 372 441
#     4  11  26  47  68 109 145 189 254 303 375 459
#     4  12  28  44  70 100 160 202 236 312 390 444
#     4  12  22  46  78 108 136 196 234 310 392 418
#     4  12  27  46  77 111 148 193 255 315 372 459
#
# _framework density 21.902156000000002
#
# number of rings (size 3 to 8) (size 9 to 14) (size 15 to 20)
#    0.000    0.667    3.333    4.000    4.667    6.000 
#    0.000    1.667    0.000    0.000    0.000    0.000 
#    0.000    0.000    0.000    0.000    0.000    0.000 
#
# Total GULP energy -133854.129323 kJ/mol
# GULP energy per Si atom -5577.255388 kJ/mol
# Density = 2.185231 g / cm^3
# Si number density = 21.902156 Si / 1000 Ang^3
#
#
#
# Elastic Constant Matrix: (Units=GPa)
#
#
# Indices 1 2 3 4 5 6 
#
# 1 63.2835 12.3657 10.3846 0.0000 0.0000 0.0000
# 2 12.3657 171.5906 8.9948 0.0000 0.0000 0.0000
# 3 10.3846 8.9948 94.9723 0.0000 0.0000 0.0000
# 4 0.0000 0.0000 0.0000 -198.6604 0.0000 0.0000
# 5 0.0000 0.0000 0.0000 0.0000 33.5710 0.0000
# 6 0.0000 0.0000 0.0000 0.0000 0.0000 36.3422
#
#
#
# Elastic Compliance Matrix: (Units=1/GPa)
#
#
# Indices 1 2 3 4 5 6 
#
# 1 0.016289 -0.001086 -0.001678 0.000000 0.000000 0.000000
# 2 -0.001086 0.005929 -0.000443 0.000000 0.000000 0.000000
# 3 -0.001678 -0.000443 0.010755 0.000000 0.000000 0.000000
# 4 0.000000 0.000000 0.000000 -0.005034 0.000000 0.000000
# 5 0.000000 0.000000 0.000000 0.000000 0.029788 0.000000
# 6 0.000000 0.000000 0.000000 0.000000 0.000000 0.027516
#
#
# Mechanical properties :
#
#
# Convention : Reuss Voigt Hill
#
# Bulk Modulus (GPa) = 37.65130 43.70409 40.67769
# Shear Modulus (GPa) = 49.74580 -5.87602 21.93489
#
# Velocity S-wave (km/s) = 4.77096 -1.63972 3.16807
# Velocity P-wave (km/s) = 6.89764 4.05125 5.65641
#
# Compressibility (1/GPa) = 0.02655951
#
# Stress axis : x y z
#
# Youngs Moduli (GPa) = 61.38926 168.65408 92.98142
#
# Poissons Ratio (x) = 0.18315 0.15605
# Poissons Ratio (y) = 0.06666 0.04117
# Poissons Ratio (z) = 0.10303 0.07468
#
# Static dielectric constant tensor:
#      x y z
#    x 1.886840 0.000000 0.000000 
#    y 0.000000 1.679240 0.000000 
#    z 0.000000 0.000000 1.769340 
# 
# From -- ./inp_files/1922.got.cif
#   From: 2010.05.17/outbox.cif.g08.bks.cpg/sg67_1_cif.got.tgz:1922.got - 2010.06.03 18:28:57.
