data_PCOD9504689
_publ_section_title
;
Structure prediction by ZEFSAII (Michael W. Deem and Ramdas Pophale) SiO2 
 PCOD9504689
Probable space group: C M M A
;
_chemical_formula_sum "Si O2"
_cell_formula_units_Z 64
_cell_length_a 17.753779
_cell_length_b 27.660069
_cell_length_c 5.371949
_cell_angle_alpha 90.000000
_cell_angle_beta 90.000000
_cell_angle_gamma 90.000000
_cell_volume 2638.007036
_symmetry_space_group_name_H-M "C M M A"
_symmetry_group_IT_number 67
_symmetry_cell_setting 'orthorhombic'
loop_
_space_group_symop_operation_xyz
x,y,z
-x,1/2-y,z
x,-y,-z
-x,1/2+y,-z
-x,-y,-z
x,1/2+y,-z
-x,y,z
x,1/2-y,z
1/2+x,1/2+y,z
1/2-x,-y,z
1/2+x,1/2-y,-z
1/2-x,y,-z
1/2-x,1/2-y,-z
1/2+x,y,-z
1/2-x,1/2+y,z
1/2+x,-y,z
loop_
_atom_site_type_symbol
_atom_site_label
_atom_site_fract_x
_atom_site_fract_y
_atom_site_fract_z
Si Si1 0.687788 0.250000 0.207834
Si Si2 0.084550 0.250000 0.178747
Si Si3 0.369477 0.000000 0.500000
Si Si4 0.854558 0.662788 0.508781
Si Si5 0.500000 0.049547 0.779123
Si Si6 0.500000 0.114251 0.284640
Si Si7 0.750000 0.921140 0.500000
O O1 0.693926 0.300895 0.340925
O O2 0.750000 0.250000 0.000000
O O3 0.602373 0.250000 0.109812
O O4 0.117206 0.200140 0.284163
O O5 0.000000 0.250000 0.251036
O O6 0.424687 0.017974 0.722447
O O7 0.313151 0.041697 0.395932
O O8 0.923019 0.644088 0.332537
O O9 0.807857 0.617804 0.622193
O O10 0.500000 0.082040 0.532698
O O11 0.500000 0.082322 0.029514
#
# Coordination Sequence:
#
# PCOD9504689 Si02
#       7
#     8   8   8  16   8   8   8
#     4  11  26  42  67 105 147 198 243 319 380 461
#     4  11  24  43  72  99 152 196 254 308 382 463
#     4  10  24  46  78 106 150 198 254 322 394 460
#     4  11  25  43  71 108 147 196 254 313 382 463
#     4  11  26  50  78 112 148 197 255 316 374 456
#     4  12  26  46  82 113 148 200 253 314 376 453
#     4  11  22  47  74 104 152 197 254 317 396 466
#
# _framework density 24.260738
#
# number of rings (size 3 to 8) (size 9 to 14) (size 15 to 20)
#    0.000    1.000    3.750    1.500    5.250    6.000 
#    0.000    0.000    5.500    0.000    0.000    0.000 
#    0.000    0.000    0.000    0.000    0.000    0.000 
#
# Total GULP energy -178245.628342 kJ/mol
# GULP energy per Si atom -5570.175886 kJ/mol
# Density = 2.420552 g / cm^3
# Si number density = 24.260738 Si / 1000 Ang^3
#
#
#
# Elastic Constant Matrix: (Units=GPa)
#
#
# Indices 1 2 3 4 5 6 
#
# 1 165.9952 90.9263 39.2875 0.0000 0.0000 0.0000
# 2 90.9263 190.2187 54.6652 0.0000 0.0000 0.0000
# 3 39.2875 54.6652 106.5909 0.0000 0.0000 0.0000
# 4 0.0000 0.0000 0.0000 44.5135 0.0000 0.0000
# 5 0.0000 0.0000 0.0000 0.0000 26.3670 0.0000
# 6 0.0000 0.0000 0.0000 0.0000 0.0000 77.8795
#
#
#
# Elastic Compliance Matrix: (Units=1/GPa)
#
#
# Indices 1 2 3 4 5 6 
#
# 1 0.008290 -0.003618 -0.001200 0.000000 0.000000 0.000000
# 2 -0.003618 0.007745 -0.002638 0.000000 0.000000 0.000000
# 3 -0.001200 -0.002638 0.011177 0.000000 0.000000 0.000000
# 4 0.000000 0.000000 0.000000 0.022465 0.000000 0.000000
# 5 0.000000 0.000000 0.000000 0.000000 0.037926 0.000000
# 6 0.000000 0.000000 0.000000 0.000000 0.000000 0.012840
#
#
# Mechanical properties :
#
#
# Convention : Reuss Voigt Hill
#
# Bulk Modulus (GPa) = 81.30681 92.50697 86.90689
# Shear Modulus (GPa) = 41.85646 48.28038 45.06842
#
# Velocity S-wave (km/s) = 4.15815 4.46585 4.31474
# Velocity P-wave (km/s) = 7.52596 8.05015 7.79246
#
# Compressibility (1/GPa) = 0.01229909
#
# Stress axis : x y z
#
# Youngs Moduli (GPa) = 120.62686 129.12093 89.46844
#
# Poissons Ratio (x) = 0.46713 0.10738
# Poissons Ratio (y) = 0.43640 0.23605
# Poissons Ratio (z) = 0.14477 0.34067
#
# Static dielectric constant tensor:
#      x y z
#    x 2.076950 0.000000 0.000000 
#    y 0.000000 2.009030 0.000000 
#    z 0.000000 0.000000 1.953850 
# 
# From -- ./inp_files/2278.got.cif
#   From: 2010.05.17/outbox.cif.g08.bks.cpg/sg67_2_cif.got.tgz:2278.got - 2010.06.03 18:28:57.
