data_PCOD9504249
_publ_section_title
;
Structure prediction by ZEFSAII (Michael W. Deem and Ramdas Pophale) SiO2 
 PCOD9504249
Probable space group: C M M A
;
_chemical_formula_sum "Si O2"
_cell_formula_units_Z 116
_cell_length_a 14.941640
_cell_length_b 27.113693
_cell_length_c 12.044655
_cell_angle_alpha 90.000000
_cell_angle_beta 90.000000
_cell_angle_gamma 90.000000
_cell_volume 4879.567248
_symmetry_space_group_name_H-M "C M M A"
_symmetry_group_IT_number 67
_symmetry_cell_setting 'orthorhombic'
loop_
_space_group_symop_operation_xyz
x,y,z
-x,1/2-y,z
x,-y,-z
-x,1/2+y,-z
-x,-y,-z
x,1/2+y,-z
-x,y,z
x,1/2-y,z
1/2+x,1/2+y,z
1/2-x,-y,z
1/2+x,1/2-y,-z
1/2-x,y,-z
1/2-x,1/2-y,-z
1/2+x,y,-z
1/2-x,1/2+y,z
1/2+x,-y,z
loop_
_atom_site_type_symbol
_atom_site_label
_atom_site_fract_x
_atom_site_fract_y
_atom_site_fract_z
Si Si1 0.108501 0.952362 0.933060
Si Si2 0.500000 0.250000 0.264749
Si Si3 0.391508 0.473463 0.678102
Si Si4 0.400137 0.585315 0.689984
Si Si5 0.604253 0.342594 0.978126
Si Si6 0.336996 0.179047 0.205828
Si Si7 0.151396 0.119231 0.459407
Si Si8 0.636989 0.694904 0.269346
O O1 0.128513 0.957827 0.803624
O O2 0.137736 0.898858 0.973794
O O3 0.000000 0.951987 0.942261
O O4 0.141116 0.000000 0.000000
O O5 0.420925 0.207295 0.257620
O O6 0.500000 0.470614 0.658915
O O7 0.364533 0.530481 0.668327
O O8 0.346371 0.434501 0.597246
O O9 0.500000 0.578973 0.737344
O O10 0.345732 0.620641 0.770434
O O11 0.402832 0.612852 0.572261
O O12 0.500000 0.341448 0.014268
O O13 0.606848 0.322057 0.853208
O O14 0.657485 0.313676 0.073091
O O15 0.244384 0.195308 0.258136
O O16 0.250000 0.134615 0.500000
O O17 0.114303 0.156630 0.366972
O O18 0.605054 0.750000 0.293418
#
# Coordination Sequence:
#
# PCOD9504249 Si02
#       8
#    16   4  16  16  16  16  16  16
#     4   9  17  33  62  99 136 177 215 266 332 404
#     4  12  24  44  78  98 136 180 246 290 340 408
#     4  10  21  40  68 100 137 176 227 276 337 411
#     4  11  23  42  70 102 135 176 233 290 339 410
#     4  11  23  41  71 102 142 179 226 280 340 424
#     4  12  24  45  69 104 135 178 232 289 347 409
#     4  12  25  45  65  95 133 183 229 285 344 415
#     4  12  28  47  69  97 137 185 229 291 357 411
#
# _framework density 23.772599
#
# number of rings (size 3 to 8) (size 9 to 14) (size 15 to 20)
#    0.000    0.966    4.828    2.069    0.966    6.069 
#    1.241    0.000    0.000    0.828    0.000    0.000 
#    0.000    0.000    0.000    0.000    0.000    0.000 
#
# Total GULP energy -324207.345619 kJ/mol
# GULP energy per Si atom -5589.781821 kJ/mol
# Density = 2.371849 g / cm^3
# Si number density = 23.772599 Si / 1000 Ang^3
#
#
#
# Elastic Constant Matrix: (Units=GPa)
#
#
# Indices 1 2 3 4 5 6 
#
# 1 71.5257 1.9038 0.6189 0.0000 0.0000 0.0000
# 2 1.9038 142.1880 32.4970 0.0000 0.0000 0.0000
# 3 0.6189 32.4970 105.0353 0.0000 0.0000 0.0000
# 4 0.0000 0.0000 0.0000 5.4447 0.0000 0.0000
# 5 0.0000 0.0000 0.0000 0.0000 23.8019 0.0000
# 6 0.0000 0.0000 0.0000 0.0000 0.0000 2.7185
#
#
#
# Elastic Compliance Matrix: (Units=1/GPa)
#
#
# Indices 1 2 3 4 5 6 
#
# 1 0.013986 -0.000181 -0.000026 0.000000 0.000000 0.000000
# 2 -0.000181 0.007570 -0.002341 0.000000 0.000000 0.000000
# 3 -0.000026 -0.002341 0.010245 0.000000 0.000000 0.000000
# 4 0.000000 0.000000 0.000000 0.183664 0.000000 0.000000
# 5 0.000000 0.000000 0.000000 0.000000 0.042013 0.000000
# 6 0.000000 0.000000 0.000000 0.000000 0.000000 0.367851
#
#
# Mechanical properties :
#
#
# Convention : Reuss Voigt Hill
#
# Bulk Modulus (GPa) = 37.44743 43.19871 40.32307
# Shear Modulus (GPa) = 7.82070 25.30831 16.56451
#
# Velocity S-wave (km/s) = 1.81575 3.26636 2.64254
# Velocity P-wave (km/s) = 4.49249 5.69531 5.12928
#
# Compressibility (1/GPa) = 0.02670410
#
# Stress axis : x y z
#
# Youngs Moduli (GPa) = 71.49986 132.09280 97.60772
#
# Poissons Ratio (x) = 0.02394 0.00257
# Poissons Ratio (y) = 0.01296 0.22851
# Poissons Ratio (z) = 0.00188 0.30925
#
# Static dielectric constant tensor:
#      x y z
#    x 1.917050 0.000000 0.000000 
#    y 0.000000 1.910590 0.000000 
#    z 0.000000 0.000000 1.872960 
# 
# From -- ./inp_files/19976.got.cif
#   From: 2010.05.17/outbox.cif.g08.bks.cpg/sg67_10_cif.got.tgz:19976.got - 2010.06.03 18:28:57.
