data_PCOD9504329
_publ_section_title
;
Structure prediction by ZEFSAII (Michael W. Deem and Ramdas Pophale) SiO2 
 PCOD9504329
Probable space group: C M M A
;
_chemical_formula_sum "Si O2"
_cell_formula_units_Z 112
_cell_length_a 16.122217
_cell_length_b 15.144297
_cell_length_c 22.889540
_cell_angle_alpha 90.000000
_cell_angle_beta 90.000000
_cell_angle_gamma 90.000000
_cell_volume 5588.701904
_symmetry_space_group_name_H-M "C M M A"
_symmetry_group_IT_number 67
_symmetry_cell_setting 'orthorhombic'
loop_
_space_group_symop_operation_xyz
x,y,z
-x,1/2-y,z
x,-y,-z
-x,1/2+y,-z
-x,-y,-z
x,1/2+y,-z
-x,y,z
x,1/2-y,z
1/2+x,1/2+y,z
1/2-x,-y,z
1/2+x,1/2-y,-z
1/2-x,y,-z
1/2-x,1/2-y,-z
1/2+x,y,-z
1/2-x,1/2+y,z
1/2+x,-y,z
loop_
_atom_site_type_symbol
_atom_site_label
_atom_site_fract_x
_atom_site_fract_y
_atom_site_fract_z
Si Si1 0.852510 0.846661 0.837643
Si Si2 0.271690 0.647370 0.620933
Si Si3 0.720944 0.901005 0.747606
Si Si4 0.908452 0.849694 0.599527
Si Si5 0.904812 0.051103 0.849645
Si Si6 0.226428 0.103429 0.935459
Si Si7 0.592024 0.096309 0.471219
O O1 0.895525 0.750000 0.838938
O O2 0.799545 0.854063 0.777977
O O3 0.784541 0.848270 0.889232
O O4 0.896531 0.942717 0.846754
O O5 0.263438 0.750000 0.604053
O O6 0.304464 0.641176 0.686777
O O7 0.177797 0.608173 0.620624
O O8 0.334781 0.606729 0.574619
O O9 0.649999 0.911067 0.796444
O O10 0.750000 0.000000 0.734569
O O11 0.911232 0.750000 0.623584
O O12 0.900318 0.845053 0.529342
O O13 0.000000 0.890693 0.611883
O O14 0.865693 0.095518 0.908284
O O15 0.000000 0.073701 0.844021
O O16 0.250000 0.000000 0.934302
O O17 0.250000 0.135741 0.000000
O O18 0.500000 0.111524 0.445358
O O19 0.594221 0.000000 0.500000
#
# Coordination Sequence:
#
# PCOD9504329 Si02
#       7
#    16  16  16  16  16  16  16
#     4   9  17  32  53  76 108 145 181 225 274 321
#     4  11  22  35  58  86 107 140 187 231 281 339
#     4   9  20  36  54  77 105 143 187 228 269 333
#     4   9  19  36  54  75 107 139 170 217 275 335
#     4   9  18  34  55  80 111 146 184 231 285 330
#     4   8  15  30  51  77 107 146 192 223 260 322
#     4  10  22  37  53  77 108 143 182 226 276 333
#
# _framework density 20.040431999999999
#
# number of rings (size 3 to 8) (size 9 to 14) (size 15 to 20)
#    0.000    2.714    0.000    3.000    2.000    3.714 
#    0.000    8.571    0.000   13.714    0.000    0.000 
#    0.000    0.000    0.000    0.000    0.000    0.000 
#
# Total GULP energy -311738.548778 kJ/mol
# GULP energy per Si atom -5566.759800 kJ/mol
# Density = 1.999482 g / cm^3
# Si number density = 20.040432 Si / 1000 Ang^3
#
#
#
# Elastic Constant Matrix: (Units=GPa)
#
#
# Indices 1 2 3 4 5 6 
#
# 1 128.7032 14.4432 37.7144 0.0000 0.0000 0.0000
# 2 14.4432 48.2558 12.3411 0.0000 0.0000 0.0000
# 3 37.7144 12.3411 76.4261 0.0000 0.0000 0.0000
# 4 0.0000 0.0000 0.0000 -46.8578 0.0000 0.0000
# 5 0.0000 0.0000 0.0000 0.0000 9.7374 0.0000
# 6 0.0000 0.0000 0.0000 0.0000 0.0000 6.6519
#
#
#
# Elastic Compliance Matrix: (Units=1/GPa)
#
#
# Indices 1 2 3 4 5 6 
#
# 1 0.009209 -0.001663 -0.004276 0.000000 0.000000 0.000000
# 2 -0.001663 0.021916 -0.002718 0.000000 0.000000 0.000000
# 3 -0.004276 -0.002718 0.015634 0.000000 0.000000 0.000000
# 4 0.000000 0.000000 0.000000 -0.021341 0.000000 0.000000
# 5 0.000000 0.000000 0.000000 0.000000 0.102697 0.000000
# 6 0.000000 0.000000 0.000000 0.000000 0.000000 0.150333
#
#
# Mechanical properties :
#
#
# Convention : Reuss Voigt Hill
#
# Bulk Modulus (GPa) = 33.96244 42.48696 38.22470
# Shear Modulus (GPa) = 16.36252 6.49874 11.43063
#
# Velocity S-wave (km/s) = 2.86050 1.80273 2.39085
# Velocity P-wave (km/s) = 5.28145 5.05765 5.17076
#
# Compressibility (1/GPa) = 0.02944429
#
# Stress axis : x y z
#
# Youngs Moduli (GPa) = 108.58381 45.62918 63.96459
#
# Poissons Ratio (x) = 0.07587 0.27352
# Poissons Ratio (y) = 0.18056 0.17388
# Poissons Ratio (z) = 0.46432 0.12403
#
# Static dielectric constant tensor:
#      x y z
#    x 1.725550 0.000000 0.000000 
#    y 0.000000 1.804220 0.000000 
#    z 0.000000 0.000000 1.714050 
# 
# From -- ./inp_files/41996.got.cif
#   From: 2010.05.17/outbox.cif.g08.bks.cpg/sg67_21_cif.got.tgz:41996.got - 2010.06.03 18:28:57.
