data_PCOD9504537
_publ_section_title
;
Structure prediction by ZEFSAII (Michael W. Deem and Ramdas Pophale) SiO2 
 PCOD9504537
Probable space group: C M M A
;
_chemical_formula_sum "Si O2"
_cell_formula_units_Z 56
_cell_length_a 23.045428
_cell_length_b 19.171198
_cell_length_c 6.293028
_cell_angle_alpha 90.000000
_cell_angle_beta 90.000000
_cell_angle_gamma 90.000000
_cell_volume 2780.313029
_symmetry_space_group_name_H-M "C M M A"
_symmetry_group_IT_number 67
_symmetry_cell_setting 'orthorhombic'
loop_
_space_group_symop_operation_xyz
x,y,z
-x,1/2-y,z
x,-y,-z
-x,1/2+y,-z
-x,-y,-z
x,1/2+y,-z
-x,y,z
x,1/2-y,z
1/2+x,1/2+y,z
1/2-x,-y,z
1/2+x,1/2-y,-z
1/2-x,y,-z
1/2-x,1/2-y,-z
1/2+x,y,-z
1/2-x,1/2+y,z
1/2+x,-y,z
loop_
_atom_site_type_symbol
_atom_site_label
_atom_site_fract_x
_atom_site_fract_y
_atom_site_fract_z
Si Si1 0.065393 0.417764 0.545906
Si Si2 0.854715 0.829473 0.755083
Si Si3 0.750000 0.381369 0.500000
Si Si4 0.330694 0.072116 0.132376
O O1 0.062875 0.500000 0.500000
O O2 0.094429 0.376334 0.349494
O O3 0.109324 0.414980 0.742569
O O4 0.000000 0.392665 0.588012
O O5 0.872730 0.750000 0.787910
O O6 0.801856 0.835176 0.590088
O O7 0.829169 0.865132 0.965378
O O8 0.720092 0.425132 0.309121
O O9 0.330331 0.000000 0.000000
#
# Coordination Sequence:
#
# PCOD9504537 Si02
#       4
#    16  16   8  16
#     4  10  22  43  68  93 126 167 215 268 320 381
#     4  11  24  42  64  94 131 171 216 266 327 386
#     4  10  25  41  62  92 136 172 216 266 322 388
#     4  11  23  41  64  99 128 172 221 267 325 387
#
# _framework density 20.141617
#
# number of rings (size 3 to 8) (size 9 to 14) (size 15 to 20)
#    0.000    1.429    2.857    1.286    0.000   12.571 
#    0.000    0.000    0.000    0.000    0.000    0.000 
#    0.000    0.000    0.000    0.000    0.000    0.000 
#
# Total GULP energy -156377.224690 kJ/mol
# GULP energy per Si atom -5584.900882 kJ/mol
# Density = 2.009577 g / cm^3
# Si number density = 20.141617 Si / 1000 Ang^3
#
#
#
# Elastic Constant Matrix: (Units=GPa)
#
#
# Indices 1 2 3 4 5 6 
#
# 1 129.4101 33.2453 38.2098 0.0000 0.0000 0.0000
# 2 33.2453 132.7032 59.0228 0.0000 0.0000 0.0000
# 3 38.2098 59.0228 111.2377 0.0000 0.0000 0.0000
# 4 0.0000 0.0000 0.0000 20.2490 0.0000 0.0000
# 5 0.0000 0.0000 0.0000 0.0000 18.4954 0.0000
# 6 0.0000 0.0000 0.0000 0.0000 0.0000 -15.7779
#
#
#
# Elastic Compliance Matrix: (Units=1/GPa)
#
#
# Indices 1 2 3 4 5 6 
#
# 1 0.008724 -0.001116 -0.002404 0.000000 0.000000 0.000000
# 2 -0.001116 0.010006 -0.004926 0.000000 0.000000 0.000000
# 3 -0.002404 -0.004926 0.012429 0.000000 0.000000 0.000000
# 4 0.000000 0.000000 0.000000 0.049385 0.000000 0.000000
# 5 0.000000 0.000000 0.000000 0.000000 0.054068 0.000000
# 6 0.000000 0.000000 0.000000 0.000000 0.000000 -0.063380
#
#
# Mechanical properties :
#
#
# Convention : Reuss Voigt Hill
#
# Bulk Modulus (GPa) = 70.09380 70.47852 70.28616
# Shear Modulus (GPa) = 53.83250 20.78485 37.30868
#
# Velocity S-wave (km/s) = 5.17542 3.21586 4.30853
# Velocity P-wave (km/s) = 8.40175 6.98974 7.72806
#
# Compressibility (1/GPa) = 0.01426660
#
# Stress axis : x y z
#
# Youngs Moduli (GPa) = 114.62562 99.93888 80.45480
#
# Poissons Ratio (x) = 0.11155 0.19345
# Poissons Ratio (y) = 0.12794 0.39631
# Poissons Ratio (z) = 0.27561 0.49228
#
# Static dielectric constant tensor:
#      x y z
#    x 1.732000 0.000000 0.000000 
#    y 0.000000 1.698080 0.000000 
#    z 0.000000 0.000000 1.748260 
# 
# From -- ./inp_files/2044.got.cif
#   From: 2010.05.17/outbox.cif.g08.bks.cpg/sg67_2_cif.got.tgz:2044.got - 2010.06.03 18:28:57.
