data_PCOD9504015
_publ_section_title
;
Structure prediction by ZEFSAII (Michael W. Deem and Ramdas Pophale) SiO2 
 PCOD9504015
Probable space group: C M M A
;
_chemical_formula_sum "Si O2"
_cell_formula_units_Z 64
_cell_length_a 11.285131
_cell_length_b 14.801561
_cell_length_c 17.282061
_cell_angle_alpha 90.000000
_cell_angle_beta 90.000000
_cell_angle_gamma 90.000000
_cell_volume 2886.753213
_symmetry_space_group_name_H-M "C M M A"
_symmetry_group_IT_number 67
_symmetry_cell_setting 'orthorhombic'
loop_
_space_group_symop_operation_xyz
x,y,z
-x,1/2-y,z
x,-y,-z
-x,1/2+y,-z
-x,-y,-z
x,1/2+y,-z
-x,y,z
x,1/2-y,z
1/2+x,1/2+y,z
1/2-x,-y,z
1/2+x,1/2-y,-z
1/2-x,y,-z
1/2-x,1/2-y,-z
1/2+x,y,-z
1/2-x,1/2+y,z
1/2+x,-y,z
loop_
_atom_site_type_symbol
_atom_site_label
_atom_site_fract_x
_atom_site_fract_y
_atom_site_fract_z
Si Si1 0.639958 0.750000 0.740234
Si Si2 0.129310 0.943910 0.636428
Si Si3 0.625404 0.144558 0.970823
Si Si4 0.793681 0.750000 0.586973
Si Si5 0.201659 0.594930 0.808474
O O1 0.500000 0.750000 0.741086
O O2 0.691149 0.750000 0.652840
O O3 0.694162 0.837191 0.782939
O O4 0.138197 0.843844 0.600906
O O5 0.134461 0.928311 0.729006
O O6 0.000000 0.985202 0.616375
O O7 0.250000 0.000000 0.616500
O O8 0.500000 0.105485 0.999024
O O9 0.625065 0.250000 0.994340
O O10 0.630326 0.138909 0.877969
O O11 0.750000 0.106305 0.000000
O O12 0.750000 0.750000 0.500000
O O13 0.250000 0.500000 0.837916
#
# Coordination Sequence:
#
# PCOD9504015 Si02
#       5
#     8  16  16   8  16
#     4  10  22  39  61  92 127 159 197 259 320 364
#     4  10  22  41  65  93 126 164 209 258 310 367
#     4  10  21  38  59  85 118 158 201 249 305 365
#     4  10  23  41  62  92 126 167 212 253 304 374
#     4  10  21  38  62  90 119 158 207 254 305 369
#
# _framework density 22.170235000000002
#
# number of rings (size 3 to 8) (size 9 to 14) (size 15 to 20)
#    0.000    2.000    1.250    1.125    0.000   13.000 
#    0.000    2.500    0.000    0.000    0.000    0.000 
#    0.000    0.000    0.000    0.000    0.000    0.000 
#
# Total GULP energy -178600.284345 kJ/mol
# GULP energy per Si atom -5581.258886 kJ/mol
# Density = 2.211977 g / cm^3
# Si number density = 22.170235 Si / 1000 Ang^3
#
#
#
# Elastic Constant Matrix: (Units=GPa)
#
#
# Indices 1 2 3 4 5 6 
#
# 1 242.0343 56.7034 33.0621 0.0000 0.0000 0.0000
# 2 56.7034 109.3589 8.9208 0.0000 0.0000 0.0000
# 3 33.0621 8.9208 60.1774 0.0000 0.0000 0.0000
# 4 0.0000 0.0000 0.0000 31.0782 0.0000 0.0000
# 5 0.0000 0.0000 0.0000 0.0000 -59.8597 0.0000
# 6 0.0000 0.0000 0.0000 0.0000 0.0000 -0.6360
#
#
#
# Elastic Compliance Matrix: (Units=1/GPa)
#
#
# Indices 1 2 3 4 5 6 
#
# 1 0.005024 -0.002409 -0.002403 0.000000 0.000000 0.000000
# 2 -0.002409 0.010411 -0.000220 0.000000 0.000000 0.000000
# 3 -0.002403 -0.000220 0.017971 0.000000 0.000000 0.000000
# 4 0.000000 0.000000 0.000000 0.032177 0.000000 0.000000
# 5 0.000000 0.000000 0.000000 0.000000 -0.016706 0.000000
# 6 0.000000 0.000000 0.000000 0.000000 0.000000 -1.572371
#
#
# Mechanical properties :
#
#
# Convention : Reuss Voigt Hill
#
# Bulk Modulus (GPa) = 42.84173 67.66036 55.25104
# Shear Modulus (GPa) = -3.32083 14.97545 5.82731
#
# Velocity S-wave (km/s) = -1.22521 2.60181 1.62300
# Velocity P-wave (km/s) = 4.16707 6.29370 5.33737
#
# Compressibility (1/GPa) = 0.02334173
#
# Stress axis : x y z
#
# Youngs Moduli (GPa) = 199.03100 96.04967 55.64672
#
# Poissons Ratio (x) = 0.23139 0.13374
# Poissons Ratio (y) = 0.47949 0.01223
# Poissons Ratio (z) = 0.47833 0.02111
#
# Static dielectric constant tensor:
#      x y z
#    x 1.868220 0.000000 0.000000 
#    y 0.000000 1.816770 0.000000 
#    z 0.000000 0.000000 1.786100 
# 
# From -- ./inp_files/32696.got.cif
#   From: 2010.05.17/outbox.cif.g08.bks.cpg/sg67_17_cif.got.tgz:32696.got - 2010.06.03 18:28:57.
