data_PCOD9504347
_publ_section_title
;
Structure prediction by ZEFSAII (Michael W. Deem and Ramdas Pophale) SiO2 
 PCOD9504347
Probable space group: C M M A
;
_chemical_formula_sum "Si O2"
_cell_formula_units_Z 56
_cell_length_a 7.789739
_cell_length_b 14.804825
_cell_length_c 21.732596
_cell_angle_alpha 90.000000
_cell_angle_beta 90.000000
_cell_angle_gamma 90.000000
_cell_volume 2506.327340
_symmetry_space_group_name_H-M "C M M A"
_symmetry_group_IT_number 67
_symmetry_cell_setting 'orthorhombic'
loop_
_space_group_symop_operation_xyz
x,y,z
-x,1/2-y,z
x,-y,-z
-x,1/2+y,-z
-x,-y,-z
x,1/2+y,-z
-x,y,z
x,1/2-y,z
1/2+x,1/2+y,z
1/2-x,-y,z
1/2+x,1/2-y,-z
1/2-x,y,-z
1/2-x,1/2-y,-z
1/2+x,y,-z
1/2-x,1/2+y,z
1/2+x,-y,z
loop_
_atom_site_type_symbol
_atom_site_label
_atom_site_fract_x
_atom_site_fract_y
_atom_site_fract_z
Si Si1 0.793350 0.750000 0.428625
Si Si2 0.796742 0.393351 0.933321
Si Si3 0.293026 0.893059 0.801527
Si Si4 0.793130 0.605131 0.332506
O O1 0.750000 0.750000 0.500000
O O2 0.730160 0.663753 0.389701
O O3 0.000000 0.750000 0.425587
O O4 0.750000 0.500000 0.934908
O O5 0.727291 0.357836 0.867664
O O6 0.000000 0.386209 0.929768
O O7 0.750000 0.354873 0.000000
O O8 0.500000 0.881455 0.801436
O O9 0.230068 0.861041 0.734757
O O10 0.250000 0.000000 0.801685
O O11 0.750000 0.500000 0.338986
O O12 0.000000 0.612584 0.330983
#
# Coordination Sequence:
#
# PCOD9504347 Si02
#       4
#     8  16  16  16
#     4  10  22  38  56  78 105 132 162 200 245 298
#     4   9  14  19  29  49  79 114 149 189 232 275
#     4   8  14  24  39  59  85 117 156 196 235 278
#     4   9  18  34  54  76 101 132 167 205 246 291
#
# _framework density 22.343451999999999
#
# number of rings (size 3 to 8) (size 9 to 14) (size 15 to 20)
#    0.000    3.143    0.000    1.714    0.000    2.857 
#    0.000    2.857    0.000    0.000    0.000    1.000 
#    0.000    0.000    0.000    0.857    0.000    0.000 
#
# Total GULP energy -155988.715254 kJ/mol
# GULP energy per Si atom -5571.025545 kJ/mol
# Density = 2.229260 g / cm^3
# Si number density = 22.343452 Si / 1000 Ang^3
#
#
#
# Elastic Constant Matrix: (Units=GPa)
#
#
# Indices 1 2 3 4 5 6 
#
# 1 33.4307 -1.8225 18.8508 0.0000 0.0000 0.0000
# 2 -1.8225 92.8593 81.7534 0.0000 0.0000 0.0000
# 3 18.8508 81.7534 318.5947 0.0000 0.0000 0.0000
# 4 0.0000 0.0000 0.0000 95.8411 0.0000 0.0000
# 5 0.0000 0.0000 0.0000 0.0000 21.5020 0.0000
# 6 0.0000 0.0000 0.0000 0.0000 0.0000 -2.8863
#
#
#
# Elastic Compliance Matrix: (Units=1/GPa)
#
#
# Indices 1 2 3 4 5 6 
#
# 1 0.031547 0.002923 -0.002617 0.000000 0.000000 0.000000
# 2 0.002923 0.014183 -0.003812 0.000000 0.000000 0.000000
# 3 -0.002617 -0.003812 0.004272 0.000000 0.000000 0.000000
# 4 0.000000 0.000000 0.000000 0.010434 0.000000 0.000000
# 5 0.000000 0.000000 0.000000 0.000000 0.046507 0.000000
# 6 0.000000 0.000000 0.000000 0.000000 0.000000 -0.346460
#
#
# Mechanical properties :
#
#
# Convention : Reuss Voigt Hill
#
# Bulk Modulus (GPa) = 23.26134 71.38314 47.32224
# Shear Modulus (GPa) = -22.91743 45.96489 11.52373
#
# Velocity S-wave (km/s) = -3.20611 4.54055 2.27349
# Velocity P-wave (km/s) = 1.80890 7.71403 5.30256
#
# Compressibility (1/GPa) = 0.04298978
#
# Stress axis : x y z
#
# Youngs Moduli (GPa) = 31.69832 70.50841 234.08952
#
# Poissons Ratio (x) = -0.20609 0.61253
# Poissons Ratio (y) = -0.09265 0.89242
# Poissons Ratio (z) = 0.08294 0.26880
#
# Static dielectric constant tensor:
#      x y z
#    x 1.834900 0.000000 0.000000 
#    y 0.000000 1.834890 0.000000 
#    z 0.000000 0.000000 1.901340 
# 
# From -- ./inp_files/36515.got.cif
#   From: 2010.05.17/outbox.cif.g08.bks.cpg/sg67_19_cif.got.tgz:36515.got - 2010.06.03 18:28:57.
