data_PCOD9504392
_publ_section_title
;
Structure prediction by ZEFSAII (Michael W. Deem and Ramdas Pophale) SiO2 
 PCOD9504392
Probable space group: C M M A
;
_chemical_formula_sum "Si O2"
_cell_formula_units_Z 64
_cell_length_a 14.126011
_cell_length_b 12.402420
_cell_length_c 14.109747
_cell_angle_alpha 90.000000
_cell_angle_beta 90.000000
_cell_angle_gamma 90.000000
_cell_volume 2471.981413
_symmetry_space_group_name_H-M "C M M A"
_symmetry_group_IT_number 67
_symmetry_cell_setting 'orthorhombic'
loop_
_space_group_symop_operation_xyz
x,y,z
-x,1/2-y,z
x,-y,-z
-x,1/2+y,-z
-x,-y,-z
x,1/2+y,-z
-x,y,z
x,1/2-y,z
1/2+x,1/2+y,z
1/2-x,-y,z
1/2+x,1/2-y,-z
1/2-x,y,-z
1/2-x,1/2-y,-z
1/2+x,y,-z
1/2-x,1/2+y,z
1/2+x,-y,z
loop_
_atom_site_type_symbol
_atom_site_label
_atom_site_fract_x
_atom_site_fract_y
_atom_site_fract_z
Si Si1 0.614968 0.750000 0.281434
Si Si2 0.888826 0.047614 0.897876
Si Si3 0.614624 0.123668 0.457650
Si Si4 0.887799 0.977555 0.695985
Si Si5 0.238579 0.750000 0.113573
O O1 0.500000 0.750000 0.266086
O O2 0.638814 0.858531 0.339661
O O3 0.671377 0.750000 0.182307
O O4 0.825529 0.146903 0.870212
O O5 0.000000 0.076197 0.903152
O O6 0.874550 0.970417 0.808653
O O7 0.862815 0.000000 0.000000
O O8 0.500000 0.130040 0.468851
O O9 0.645378 0.250000 0.472009
O O10 0.637386 0.000000 0.500000
O O11 0.647467 0.087440 0.350951
O O12 0.000000 0.984759 0.681787
O O13 0.250000 0.750000 0.000000
#
# Coordination Sequence:
#
# PCOD9504392 Si02
#       5
#     8  16  16  16   8
#     4  10  22  39  58  86 125 171 219 272 333 388
#     4  10  22  40  62  90 126 169 214 267 330 393
#     4   9  18  31  54  91 130 167 213 273 337 404
#     4   9  19  35  58  85 124 169 213 265 325 395
#     4  12  25  37  60  90 122 169 220 278 324 396
#
# _framework density 25.890162
#
# number of rings (size 3 to 8) (size 9 to 14) (size 15 to 20)
#    0.000    2.250    0.000    1.875    3.500    6.500 
#    0.000    0.000    0.000    0.750    0.000    5.250 
#    0.000    0.000    0.000    0.000    0.000    0.000 
#
# Total GULP energy -178330.607459 kJ/mol
# GULP energy per Si atom -5572.831483 kJ/mol
# Density = 2.583124 g / cm^3
# Si number density = 25.890162 Si / 1000 Ang^3
#
#
#
# Elastic Constant Matrix: (Units=GPa)
#
#
# Indices 1 2 3 4 5 6 
#
# 1 126.8758 76.2278 3.9320 0.0000 0.0000 0.0000
# 2 76.2278 241.2566 91.3685 0.0000 0.0000 0.0000
# 3 3.9320 91.3685 93.6186 0.0000 0.0000 0.0000
# 4 0.0000 0.0000 0.0000 36.4207 0.0000 0.0000
# 5 0.0000 0.0000 0.0000 0.0000 -0.1802 0.0000
# 6 0.0000 0.0000 0.0000 0.0000 0.0000 13.3327
#
#
#
# Elastic Compliance Matrix: (Units=1/GPa)
#
#
# Indices 1 2 3 4 5 6 
#
# 1 0.010840 -0.005160 0.004580 0.000000 0.000000 0.000000
# 2 -0.005160 0.009031 -0.008597 0.000000 0.000000 0.000000
# 3 0.004580 -0.008597 0.018880 0.000000 0.000000 0.000000
# 4 0.000000 0.000000 0.000000 0.027457 0.000000 0.000000
# 5 0.000000 0.000000 0.000000 0.000000 -5.550337 0.000000
# 6 0.000000 0.000000 0.000000 0.000000 0.000000 0.075003
#
#
# Mechanical properties :
#
#
# Convention : Reuss Voigt Hill
#
# Bulk Modulus (GPa) = 49.02562 89.42308 69.22435
# Shear Modulus (GPa) = -0.92868 29.26285 14.16708
#
# Velocity S-wave (km/s) = -0.59957 3.36559 2.34177
# Velocity P-wave (km/s) = 4.30091 7.05105 5.84017
#
# Compressibility (1/GPa) = 0.02039750
#
# Stress axis : x y z
#
# Youngs Moduli (GPa) = 92.25373 110.72736 52.96600
#
# Poissons Ratio (x) = 0.57130 -0.24260
# Poissons Ratio (y) = 0.47599 0.45537
# Poissons Ratio (z) = -0.42255 0.95197
#
# Static dielectric constant tensor:
#      x y z
#    x 1.996590 0.000000 0.000000 
#    y 0.000000 1.997890 0.000000 
#    z 0.000000 0.000000 2.400270 
# 
# From -- ./inp_files/28169.got.cif
#   From: 2010.05.17/outbox.cif.g08.bks.cpg/sg67_15_cif.got.tgz:28169.got - 2010.06.03 18:28:57.
