data_PCOD9504521
_publ_section_title
;
Structure prediction by ZEFSAII (Michael W. Deem and Ramdas Pophale) SiO2 
 PCOD9504521
Probable space group: C M M A
;
_chemical_formula_sum "Si O2"
_cell_formula_units_Z 64
_cell_length_a 15.754233
_cell_length_b 18.088397
_cell_length_c 10.479323
_cell_angle_alpha 90.000000
_cell_angle_beta 90.000000
_cell_angle_gamma 90.000000
_cell_volume 2986.280320
_symmetry_space_group_name_H-M "C M M A"
_symmetry_group_IT_number 67
_symmetry_cell_setting 'orthorhombic'
loop_
_space_group_symop_operation_xyz
x,y,z
-x,1/2-y,z
x,-y,-z
-x,1/2+y,-z
-x,-y,-z
x,1/2+y,-z
-x,y,z
x,1/2-y,z
1/2+x,1/2+y,z
1/2-x,-y,z
1/2+x,1/2-y,-z
1/2-x,y,-z
1/2-x,1/2-y,-z
1/2+x,y,-z
1/2-x,1/2+y,z
1/2+x,-y,z
loop_
_atom_site_type_symbol
_atom_site_label
_atom_site_fract_x
_atom_site_fract_y
_atom_site_fract_z
Si Si1 0.500000 0.839694 0.321242
Si Si2 0.500000 0.535674 0.143524
Si Si3 0.332103 0.031140 0.142756
Si Si4 0.353191 0.088969 0.501395
Si Si5 0.401112 0.835365 0.764466
O O1 0.500000 0.750000 0.320406
O O2 0.500000 0.878080 0.179563
O O3 0.414929 0.871277 0.393290
O O4 0.583833 0.501617 0.203596
O O5 0.500000 0.500000 0.000000
O O6 0.250000 0.000000 0.212219
O O7 0.341874 0.118314 0.140734
O O8 0.330363 0.000000 0.000000
O O9 0.250000 0.102096 0.500000
O O10 0.385917 0.126572 0.371119
O O11 0.366041 0.000000 0.500000
O O12 0.500000 0.842323 0.801717
O O13 0.379609 0.750000 0.758436
#
# Coordination Sequence:
#
# PCOD9504521 Si02
#       5
#     8   8  16  16  16
#     4  12  25  43  66 101 143 178 222 282 342 404
#     4  10  22  43  66  91 130 176 227 276 331 400
#     4  10  22  42  67  93 124 174 230 277 330 401
#     4  11  25  42  67  97 132 181 226 266 328 409
#     4  11  23  40  64  96 131 170 218 279 337 388
#
# _framework density 21.431342999999998
#
# number of rings (size 3 to 8) (size 9 to 14) (size 15 to 20)
#    0.000    1.250    2.500    2.625    7.000    2.000 
#    0.000    7.500    0.000    0.000    0.000    0.000 
#    0.000    0.000    0.000    0.000    0.000    0.000 
#
# Total GULP energy -178370.127586 kJ/mol
# GULP energy per Si atom -5574.066487 kJ/mol
# Density = 2.138256 g / cm^3
# Si number density = 21.431343 Si / 1000 Ang^3
#
#
#
# Elastic Constant Matrix: (Units=GPa)
#
#
# Indices 1 2 3 4 5 6 
#
# 1 169.9859 72.7997 8.4809 0.0000 0.0000 0.0000
# 2 72.7997 231.7705 58.6915 0.0000 0.0000 0.0000
# 3 8.4809 58.6915 90.3266 0.0000 0.0000 0.0000
# 4 0.0000 0.0000 0.0000 32.2260 0.0000 0.0000
# 5 0.0000 0.0000 0.0000 0.0000 -37.1116 0.0000
# 6 0.0000 0.0000 0.0000 0.0000 0.0000 54.2698
#
#
#
# Elastic Compliance Matrix: (Units=1/GPa)
#
#
# Indices 1 2 3 4 5 6 
#
# 1 0.006858 -0.002383 0.000905 0.000000 0.000000 0.000000
# 2 -0.002383 0.005993 -0.003670 0.000000 0.000000 0.000000
# 3 0.000905 -0.003670 0.013371 0.000000 0.000000 0.000000
# 4 0.000000 0.000000 0.000000 0.031031 0.000000 0.000000
# 5 0.000000 0.000000 0.000000 0.000000 -0.026946 0.000000
# 6 0.000000 0.000000 0.000000 0.000000 0.000000 0.018426
#
#
# Mechanical properties :
#
#
# Convention : Reuss Voigt Hill
#
# Bulk Modulus (GPa) = 62.79714 85.78080 74.28897
# Shear Modulus (GPa) = 77.71373 33.35090 55.53231
#
# Velocity S-wave (km/s) = 6.02830 3.94912 5.09588
# Velocity P-wave (km/s) = 8.82151 7.80428 8.32844
#
# Compressibility (1/GPa) = 0.01592429
#
# Stress axis : x y z
#
# Youngs Moduli (GPa) = 145.80623 166.87276 74.79060
#
# Poissons Ratio (x) = 0.39771 -0.06766
# Poissons Ratio (y) = 0.34751 0.27448
# Poissons Ratio (z) = -0.13191 0.61243
#
# Static dielectric constant tensor:
#      x y z
#    x 1.842660 0.000000 0.000000 
#    y 0.000000 1.796810 0.000000 
#    z 0.000000 0.000000 1.761850 
# 
# From -- ./inp_files/19006.got.cif
#   From: 2010.05.17/outbox.cif.g08.bks.cpg/sg67_10_cif.got.tgz:19006.got - 2010.06.03 18:28:57.
