data_PCOD9504753
_publ_section_title
;
Structure prediction by ZEFSAII (Michael W. Deem and Ramdas Pophale) SiO2 
 PCOD9504753
Probable space group: C M M A
;
_chemical_formula_sum "Si O2"
_cell_formula_units_Z 64
_cell_length_a 17.246004
_cell_length_b 14.862175
_cell_length_c 10.906209
_cell_angle_alpha 90.000000
_cell_angle_beta 90.000000
_cell_angle_gamma 90.000000
_cell_volume 2795.404560
_symmetry_space_group_name_H-M "C M M A"
_symmetry_group_IT_number 67
_symmetry_cell_setting 'orthorhombic'
loop_
_space_group_symop_operation_xyz
x,y,z
-x,1/2-y,z
x,-y,-z
-x,1/2+y,-z
-x,-y,-z
x,1/2+y,-z
-x,y,z
x,1/2-y,z
1/2+x,1/2+y,z
1/2-x,-y,z
1/2+x,1/2-y,-z
1/2-x,y,-z
1/2-x,1/2-y,-z
1/2+x,y,-z
1/2-x,1/2+y,z
1/2+x,-y,z
loop_
_atom_site_type_symbol
_atom_site_label
_atom_site_fract_x
_atom_site_fract_y
_atom_site_fract_z
Si Si1 0.159192 0.750000 0.532542
Si Si2 0.358768 0.403106 0.937139
Si Si3 0.699940 0.854420 0.809632
Si Si4 0.580420 0.250000 0.777459
Si Si5 0.908649 0.078521 0.598951
O O1 0.250000 0.750000 0.500000
O O2 0.146785 0.750000 0.677335
O O3 0.115155 0.665722 0.476704
O O4 0.281315 0.400518 0.851082
O O5 0.415128 0.340828 0.857639
O O6 0.377571 0.500000 0.000000
O O7 0.341826 0.348329 0.059885
O O8 0.704635 0.750000 0.766694
O O9 0.649143 0.914484 0.715787
O O10 0.500000 0.250000 0.706608
O O11 0.000000 0.077102 0.635111
O O12 0.895185 0.000000 0.500000
#
# Coordination Sequence:
#
# PCOD9504753 Si02
#       5
#     8  16  16   8  16
#     4  12  26  49  74 103 146 203 254 307 372 443
#     4  11  24  45  73 104 146 193 245 309 369 441
#     4  11  20  43  74 104 138 192 250 309 363 432
#     4  12  26  44  70 108 150 191 248 314 381 445
#     4  11  26  47  73 111 155 196 245 308 376 449
#
# _framework density 22.894718000000001
#
# number of rings (size 3 to 8) (size 9 to 14) (size 15 to 20)
#    0.000    0.750    3.750    4.875    3.500    2.000 
#    4.500    0.000    0.000    2.250    0.000    0.000 
#    0.000    0.000    0.000    0.000    0.000    0.000 
#
# Total GULP energy -178458.025534 kJ/mol
# GULP energy per Si atom -5576.813298 kJ/mol
# Density = 2.284261 g / cm^3
# Si number density = 22.894718 Si / 1000 Ang^3
#
#
#
# Elastic Constant Matrix: (Units=GPa)
#
#
# Indices 1 2 3 4 5 6 
#
# 1 127.4443 49.3498 87.4977 0.0000 0.0000 0.0000
# 2 49.3498 165.1879 47.2211 0.0000 0.0000 0.0000
# 3 87.4977 47.2211 138.7410 0.0000 0.0000 0.0000
# 4 0.0000 0.0000 0.0000 38.9922 0.0000 0.0000
# 5 0.0000 0.0000 0.0000 0.0000 36.0636 0.0000
# 6 0.0000 0.0000 0.0000 0.0000 0.0000 -21.6294
#
#
#
# Elastic Compliance Matrix: (Units=1/GPa)
#
#
# Indices 1 2 3 4 5 6 
#
# 1 0.014348 -0.001883 -0.008408 0.000000 0.000000 0.000000
# 2 -0.001883 0.006953 -0.001179 0.000000 0.000000 0.000000
# 3 -0.008408 -0.001179 0.012911 0.000000 0.000000 0.000000
# 4 0.000000 0.000000 0.000000 0.025646 0.000000 0.000000
# 5 0.000000 0.000000 0.000000 0.000000 0.027729 0.000000
# 6 0.000000 0.000000 0.000000 0.000000 0.000000 -0.046233
#
#
# Mechanical properties :
#
#
# Convention : Reuss Voigt Hill
#
# Bulk Modulus (GPa) = 88.70706 88.83449 88.77077
# Shear Modulus (GPa) = 73.47308 27.17225 50.32266
#
# Velocity S-wave (km/s) = 5.67110 3.44878 4.69337
# Velocity P-wave (km/s) = 9.03945 7.39894 8.26002
#
# Compressibility (1/GPa) = 0.01127306
#
# Stress axis : x y z
#
# Youngs Moduli (GPa) = 69.69511 143.81637 77.45069
#
# Poissons Ratio (x) = 0.27081 0.65120
# Poissons Ratio (y) = 0.13124 0.09132
# Poissons Ratio (z) = 0.58599 0.16957
#
# Static dielectric constant tensor:
#      x y z
#    x 1.852600 0.000000 0.000000 
#    y 0.000000 1.914330 0.000000 
#    z 0.000000 0.000000 1.841610 
# 
# From -- ./inp_files/18989.got.cif
#   From: 2010.05.17/outbox.cif.g08.bks.cpg/sg67_10_cif.got.tgz:18989.got - 2010.06.03 18:28:57.
