data_PCOD9504636
_publ_section_title
;
Structure prediction by ZEFSAII (Michael W. Deem and Ramdas Pophale) SiO2 
 PCOD9504636
Probable space group: C M M A
;
_chemical_formula_sum "Si O2"
_cell_formula_units_Z 64
_cell_length_a 18.373738
_cell_length_b 19.939920
_cell_length_c 8.251425
_cell_angle_alpha 90.000000
_cell_angle_beta 90.000000
_cell_angle_gamma 90.000000
_cell_volume 3023.081722
_symmetry_space_group_name_H-M "C M M A"
_symmetry_group_IT_number 67
_symmetry_cell_setting 'orthorhombic'
loop_
_space_group_symop_operation_xyz
x,y,z
-x,1/2-y,z
x,-y,-z
-x,1/2+y,-z
-x,-y,-z
x,1/2+y,-z
-x,y,z
x,1/2-y,z
1/2+x,1/2+y,z
1/2-x,-y,z
1/2+x,1/2-y,-z
1/2-x,y,-z
1/2-x,1/2-y,-z
1/2+x,y,-z
1/2-x,1/2+y,z
1/2+x,-y,z
loop_
_atom_site_type_symbol
_atom_site_label
_atom_site_fract_x
_atom_site_fract_y
_atom_site_fract_z
Si Si1 0.087350 0.632292 0.184479
Si Si2 0.706055 0.750000 0.331334
Si Si3 0.838181 0.998220 0.688168
Si Si4 0.085898 0.750000 0.431626
Si Si5 0.182883 0.372527 0.108260
O O1 0.123349 0.560811 0.226282
O O2 0.106255 0.684726 0.326419
O O3 0.000000 0.627828 0.172737
O O4 0.123830 0.655775 0.017124
O O5 0.750000 0.750000 0.500000
O O6 0.623757 0.750000 0.395961
O O7 0.716576 0.815615 0.223282
O O8 0.860641 0.000000 0.500000
O O9 0.750000 0.000000 0.690568
O O10 0.854026 0.929759 0.783286
O O11 0.000000 0.750000 0.448747
O O12 0.250000 0.399959 0.000000
#
# Coordination Sequence:
#
# PCOD9504636 Si02
#       5
#    16   8  16   8  16
#     4  11  24  44  70 100 134 177 224 273 334 400
#     4  12  26  41  68  99 132 173 232 276 329 398
#     4  11  24  41  65  95 135 178 220 271 330 392
#     4  10  23  45  69  97 136 173 217 273 333 391
#     4  12  24  41  65  96 133 175 221 279 332 386
#
# _framework density 21.170449999999999
#
# number of rings (size 3 to 8) (size 9 to 14) (size 15 to 20)
#    0.000    0.750    2.500    4.875    3.500    3.500 
#    0.000    0.000    0.000    0.000    0.000    0.000 
#    0.000    0.000    0.000    0.000    0.000    0.000 
#
# Total GULP energy -178997.044591 kJ/mol
# GULP energy per Si atom -5593.657643 kJ/mol
# Density = 2.112226 g / cm^3
# Si number density = 21.170450 Si / 1000 Ang^3
#
#
#
# Elastic Constant Matrix: (Units=GPa)
#
#
# Indices 1 2 3 4 5 6 
#
# 1 75.3597 9.8848 23.7220 0.0000 0.0000 0.0000
# 2 9.8848 99.4549 25.0110 0.0000 0.0000 0.0000
# 3 23.7220 25.0110 111.7146 0.0000 0.0000 0.0000
# 4 0.0000 0.0000 0.0000 41.5325 0.0000 0.0000
# 5 0.0000 0.0000 0.0000 0.0000 37.3709 0.0000
# 6 0.0000 0.0000 0.0000 0.0000 0.0000 21.4436
#
#
#
# Elastic Compliance Matrix: (Units=1/GPa)
#
#
# Indices 1 2 3 4 5 6 
#
# 1 0.014265 -0.000695 -0.002874 0.000000 0.000000 0.000000
# 2 -0.000695 0.010689 -0.002245 0.000000 0.000000 0.000000
# 3 -0.002874 -0.002245 0.010064 0.000000 0.000000 0.000000
# 4 0.000000 0.000000 0.000000 0.024078 0.000000 0.000000
# 5 0.000000 0.000000 0.000000 0.000000 0.026759 0.000000
# 6 0.000000 0.000000 0.000000 0.000000 0.000000 0.046634
#
#
# Mechanical properties :
#
#
# Convention : Reuss Voigt Hill
#
# Bulk Modulus (GPa) = 42.75324 44.86276 43.80800
# Shear Modulus (GPa) = 32.91348 35.26348 34.08848
#
# Velocity S-wave (km/s) = 3.94723 4.08572 4.01707
# Velocity P-wave (km/s) = 6.40412 6.59505 6.50029
#
# Compressibility (1/GPa) = 0.02339004
#
# Stress axis : x y z
#
# Youngs Moduli (GPa) = 70.09957 93.55783 99.36144
#
# Poissons Ratio (x) = 0.06504 0.28552
# Poissons Ratio (y) = 0.04873 0.22310
# Poissons Ratio (z) = 0.20143 0.21007
#
# Static dielectric constant tensor:
#      x y z
#    x 1.772270 0.000000 0.000000 
#    y 0.000000 1.755310 0.000000 
#    z 0.000000 0.000000 1.756370 
# 
# From -- ./inp_files/10731.got.cif
#   From: 2010.05.17/outbox.cif.g08.bks.cpg/sg67_6_cif.got.tgz:10731.got - 2010.06.03 18:28:57.
