data_PCOD9504555
_publ_section_title
;
Structure prediction by ZEFSAII (Michael W. Deem and Ramdas Pophale) SiO2 
 PCOD9504555
Probable space group: C M M A
;
_chemical_formula_sum "Si O2"
_cell_formula_units_Z 64
_cell_length_a 14.558243
_cell_length_b 17.104713
_cell_length_c 10.897498
_cell_angle_alpha 90.000000
_cell_angle_beta 90.000000
_cell_angle_gamma 90.000000
_cell_volume 2713.635760
_symmetry_space_group_name_H-M "C M M A"
_symmetry_group_IT_number 67
_symmetry_cell_setting 'orthorhombic'
loop_
_space_group_symop_operation_xyz
x,y,z
-x,1/2-y,z
x,-y,-z
-x,1/2+y,-z
-x,-y,-z
x,1/2+y,-z
-x,y,z
x,1/2-y,z
1/2+x,1/2+y,z
1/2-x,-y,z
1/2+x,1/2-y,-z
1/2-x,y,-z
1/2-x,1/2-y,-z
1/2+x,y,-z
1/2-x,1/2+y,z
1/2+x,-y,z
loop_
_atom_site_type_symbol
_atom_site_label
_atom_site_fract_x
_atom_site_fract_y
_atom_site_fract_z
Si Si1 0.838050 0.250000 0.585472
Si Si2 0.260581 0.250000 0.847637
Si Si3 0.109321 0.438471 0.840564
Si Si4 0.891408 0.575489 0.424084
Si Si5 0.608884 0.880140 0.093070
O O1 0.750000 0.250000 0.500000
O O2 0.814497 0.250000 0.734788
O O3 0.884417 0.332447 0.545675
O O4 0.327560 0.324550 0.828876
O O5 0.250000 0.250000 0.000000
O O6 0.153508 0.426814 0.710069
O O7 0.118457 0.529519 0.870793
O O8 0.000000 0.422849 0.835786
O O9 0.140305 0.382840 0.950191
O O10 0.856811 0.500000 0.500000
O O11 0.000000 0.559597 0.411498
O O12 0.500000 0.859744 0.100282
#
# Coordination Sequence:
#
# PCOD9504555 Si02
#       5
#     8   8  16  16  16
#     4  12  29  46  59 100 146 174 208 276 343 398
#     4  12  25  40  59  92 132 176 218 256 339 420
#     4   8  16  34  63  95 119 152 215 280 323 365
#     4  10  22  44  73  94 119 174 233 271 319 394
#     4   9  18  36  62  92 125 162 214 276 326 387
#
# _framework density 23.584593999999999
#
# number of rings (size 3 to 8) (size 9 to 14) (size 15 to 20)
#    0.000    2.250    0.000    3.750    3.500    0.500 
#    0.000   13.750    0.000    0.000    0.000    0.000 
#    0.000    0.000    0.000    0.000    0.000    0.000 
#
# Total GULP energy -178223.527052 kJ/mol
# GULP energy per Si atom -5569.485220 kJ/mol
# Density = 2.353091 g / cm^3
# Si number density = 23.584594 Si / 1000 Ang^3
#
#
#
# Elastic Constant Matrix: (Units=GPa)
#
#
# Indices 1 2 3 4 5 6 
#
# 1 55.4537 25.2862 10.5127 0.0000 0.0000 0.0000
# 2 25.2862 110.7551 36.8699 0.0000 0.0000 0.0000
# 3 10.5127 36.8699 58.8996 0.0000 0.0000 0.0000
# 4 0.0000 0.0000 0.0000 6.2315 0.0000 0.0000
# 5 0.0000 0.0000 0.0000 0.0000 19.1202 0.0000
# 6 0.0000 0.0000 0.0000 0.0000 0.0000 73.0213
#
#
#
# Elastic Compliance Matrix: (Units=1/GPa)
#
#
# Indices 1 2 3 4 5 6 
#
# 1 0.020167 -0.004303 -0.000906 0.000000 0.000000 0.000000
# 2 -0.004303 0.012324 -0.006946 0.000000 0.000000 0.000000
# 3 -0.000906 -0.006946 0.021488 0.000000 0.000000 0.000000
# 4 0.000000 0.000000 0.000000 0.160476 0.000000 0.000000
# 5 0.000000 0.000000 0.000000 0.000000 0.052301 0.000000
# 6 0.000000 0.000000 0.000000 0.000000 0.000000 0.013695
#
#
# Mechanical properties :
#
#
# Convention : Reuss Voigt Hill
#
# Bulk Modulus (GPa) = 33.70603 41.16066 37.43334
# Shear Modulus (GPa) = 15.89071 29.83725 22.86398
#
# Velocity S-wave (km/s) = 2.59853 3.56071 3.11697
# Velocity P-wave (km/s) = 4.82967 5.86473 5.37219
#
# Compressibility (1/GPa) = 0.02966828
#
# Stress axis : x y z
#
# Youngs Moduli (GPa) = 49.58655 81.14470 46.53740
#
# Poissons Ratio (x) = 0.34913 0.04217
# Poissons Ratio (y) = 0.21335 0.32327
# Poissons Ratio (z) = 0.04493 0.56367
#
# Static dielectric constant tensor:
#      x y z
#    x 1.900190 0.000000 0.000000 
#    y 0.000000 1.936620 0.000000 
#    z 0.000000 0.000000 1.991320 
# 
# From -- ./inp_files/19011.got.cif
#   From: 2010.05.17/outbox.cif.g08.bks.cpg/sg67_10_cif.got.tgz:19011.got - 2010.06.03 18:28:57.
