data_PCOD9504493
_publ_section_title
;
Structure prediction by ZEFSAII (Michael W. Deem and Ramdas Pophale) SiO2 
 PCOD9504493
Probable space group: C M M A
;
_chemical_formula_sum "Si O2"
_cell_formula_units_Z 96
_cell_length_a 15.629645
_cell_length_b 14.353650
_cell_length_c 19.542285
_cell_angle_alpha 90.000000
_cell_angle_beta 90.000000
_cell_angle_gamma 90.000000
_cell_volume 4384.164173
_symmetry_space_group_name_H-M "C M M A"
_symmetry_group_IT_number 67
_symmetry_cell_setting 'orthorhombic'
loop_
_space_group_symop_operation_xyz
x,y,z
-x,1/2-y,z
x,-y,-z
-x,1/2+y,-z
-x,-y,-z
x,1/2+y,-z
-x,y,z
x,1/2-y,z
1/2+x,1/2+y,z
1/2-x,-y,z
1/2+x,1/2-y,-z
1/2-x,y,-z
1/2-x,1/2-y,-z
1/2+x,y,-z
1/2-x,1/2+y,z
1/2+x,-y,z
loop_
_atom_site_type_symbol
_atom_site_label
_atom_site_fract_x
_atom_site_fract_y
_atom_site_fract_z
Si Si1 0.903681 0.061083 0.682519
Si Si2 0.731015 0.143436 0.424422
Si Si3 0.594579 0.349727 0.658608
Si Si4 0.399723 0.138050 0.050571
Si Si5 0.398410 0.146137 0.898117
Si Si6 0.842981 0.967971 0.179372
O O1 0.834684 0.090128 0.625459
O O2 0.883371 0.092874 0.759469
O O3 0.000000 0.087424 0.661552
O O4 0.901313 0.949277 0.694007
O O5 0.698302 0.250000 0.431745
O O6 0.750000 0.105452 0.500000
O O7 0.824013 0.148681 0.390003
O O8 0.500000 0.349857 0.624480
O O9 0.598803 0.250000 0.697541
O O10 0.500000 0.107241 0.058788
O O11 0.398894 0.250000 0.055512
O O12 0.344805 0.092804 0.110485
O O13 0.368087 0.115894 0.973881
O O14 0.500000 0.155687 0.906509
O O15 0.364195 0.250000 0.881357
O O16 0.384976 0.065345 0.843782
O O17 0.750000 0.000000 0.203016
#
# Coordination Sequence:
#
# PCOD9504493 Si02
#       6
#    16  16  16  16  16  16
#     4  11  24  41  62  89 123 165 210 257 312 376
#     4  10  22  41  65  92 123 157 194 244 302 365
#     4   9  19  37  60  86 118 156 196 240 296 361
#     4   9  19  37  59  82 113 158 211 265 321 382
#     4   9  19  37  60  84 113 156 211 265 315 375
#     4  12  24  36  55  85 122 163 204 257 321 381
#
# _framework density 21.896989999999999
#
# number of rings (size 3 to 8) (size 9 to 14) (size 15 to 20)
#    0.000    2.000    0.000    4.500    0.000    7.000 
#    0.000    6.667    0.000    0.000    0.000    0.000 
#    0.000    0.000    0.000    0.000    0.000    0.000 
#
# Total GULP energy -267634.469886 kJ/mol
# GULP energy per Si atom -5575.718123 kJ/mol
# Density = 2.184715 g / cm^3
# Si number density = 21.896990 Si / 1000 Ang^3
#
#
#
# Elastic Constant Matrix: (Units=GPa)
#
#
# Indices 1 2 3 4 5 6 
#
# 1 100.2350 16.3073 49.2786 0.0000 0.0000 0.0000
# 2 16.3073 75.2885 39.4207 0.0000 0.0000 0.0000
# 3 49.2786 39.4207 132.4803 0.0000 0.0000 0.0000
# 4 0.0000 0.0000 0.0000 9.0034 0.0000 0.0000
# 5 0.0000 0.0000 0.0000 0.0000 3.6291 0.0000
# 6 0.0000 0.0000 0.0000 0.0000 0.0000 4.9625
#
#
#
# Elastic Compliance Matrix: (Units=1/GPa)
#
#
# Indices 1 2 3 4 5 6 
#
# 1 0.012216 -0.000316 -0.004450 0.000000 0.000000 0.000000
# 2 -0.000316 0.015742 -0.004567 0.000000 0.000000 0.000000
# 3 -0.004450 -0.004567 0.010562 0.000000 0.000000 0.000000
# 4 0.000000 0.000000 0.000000 0.111069 0.000000 0.000000
# 5 0.000000 0.000000 0.000000 0.000000 0.275549 0.000000
# 6 0.000000 0.000000 0.000000 0.000000 0.000000 0.201511
#
#
# Mechanical properties :
#
#
# Convention : Reuss Voigt Hill
#
# Bulk Modulus (GPa) = 50.36524 57.55744 53.96134
# Shear Modulus (GPa) = 7.66952 17.05215 12.36084
#
# Velocity S-wave (km/s) = 1.87354 2.79363 2.37850
# Velocity P-wave (km/s) = 5.26603 6.06205 5.67801
#
# Compressibility (1/GPa) = 0.01985496
#
# Stress axis : x y z
#
# Youngs Moduli (GPa) = 81.86232 63.52545 94.67625
#
# Poissons Ratio (x) = 0.02007 0.42129
# Poissons Ratio (y) = 0.02587 0.43235
# Poissons Ratio (z) = 0.36427 0.29009
#
# Static dielectric constant tensor:
#      x y z
#    x 1.840030 0.000000 0.000000 
#    y 0.000000 1.875080 0.000000 
#    z 0.000000 0.000000 1.812210 
# 
# From -- ./inp_files/38437.got.cif
#   From: 2010.05.17/outbox.cif.g08.bks.cpg/sg67_20_cif.got.tgz:38437.got - 2010.06.03 18:28:57.
