data_PCOD9504685
_publ_section_title
;
Structure prediction by ZEFSAII (Michael W. Deem and Ramdas Pophale) SiO2 
 PCOD9504685
Probable space group: C M M A
;
_chemical_formula_sum "Si O2"
_cell_formula_units_Z 64
_cell_length_a 14.160503
_cell_length_b 26.963652
_cell_length_c 8.464625
_cell_angle_alpha 90.000000
_cell_angle_beta 90.000000
_cell_angle_gamma 90.000000
_cell_volume 3231.953595
_symmetry_space_group_name_H-M "C M M A"
_symmetry_group_IT_number 67
_symmetry_cell_setting 'orthorhombic'
loop_
_space_group_symop_operation_xyz
x,y,z
-x,1/2-y,z
x,-y,-z
-x,1/2+y,-z
-x,-y,-z
x,1/2+y,-z
-x,y,z
x,1/2-y,z
1/2+x,1/2+y,z
1/2-x,-y,z
1/2+x,1/2-y,-z
1/2-x,y,-z
1/2-x,1/2-y,-z
1/2+x,y,-z
1/2-x,1/2+y,z
1/2+x,-y,z
loop_
_atom_site_type_symbol
_atom_site_label
_atom_site_fract_x
_atom_site_fract_y
_atom_site_fract_z
Si Si1 0.000000 0.750000 0.072606
Si Si2 0.500000 0.351447 0.879397
Si Si3 0.146871 0.917049 0.065461
Si Si4 0.000000 0.000000 0.000000
Si Si5 0.000000 0.308813 0.466149
Si Si6 0.313846 0.345848 0.357464
Si Si7 0.288408 0.250000 0.178646
O O1 0.097613 0.750000 0.167341
O O2 0.000000 0.700789 0.968397
O O3 0.500000 0.339975 0.695461
O O4 0.590345 0.382533 0.939353
O O5 0.158755 0.885661 0.225560
O O6 0.250000 0.928416 0.000000
O O7 0.082382 0.965107 0.081826
O O8 0.092008 0.323674 0.564932
O O9 0.000000 0.250000 0.432609
O O10 0.250000 0.365754 0.500000
O O11 0.260562 0.299772 0.271202
O O12 0.250000 0.250000 0.000000
#
# Coordination Sequence:
#
# PCOD9504685 Si02
#       7
#     4   8  16   4   8  16   8
#     4  12  22  36  60  88 138 186 234 276 306 356
#     4  11  23  37  64  95 132 187 235 273 319 390
#     4  11  23  45  70  98 127 167 226 287 343 414
#     4  10  24  44  80  98 112 156 222 294 350 408
#     4  12  24  37  57  89 139 187 228 268 320 381
#     4  12  25  40  62  97 145 183 219 272 341 406
#     4  12  25  38  61  93 137 194 242 271 313 396
#
# _framework density 19.802264999999998
#
# number of rings (size 3 to 8) (size 9 to 14) (size 15 to 20)
#    0.000    0.500    4.375    5.250    3.500    0.000 
#    0.000    0.000    0.000   34.500    0.000    0.000 
#    0.000    0.000    0.000    0.000    0.000    0.000 
#
# Total GULP energy -178542.717675 kJ/mol
# GULP energy per Si atom -5579.459927 kJ/mol
# Density = 1.975719 g / cm^3
# Si number density = 19.802265 Si / 1000 Ang^3
#
#
#
# Elastic Constant Matrix: (Units=GPa)
#
#
# Indices 1 2 3 4 5 6 
#
# 1 137.3711 21.4969 45.3848 0.0000 0.0000 0.0000
# 2 21.4969 58.2998 36.4549 0.0000 0.0000 0.0000
# 3 45.3848 36.4549 143.7569 0.0000 0.0000 0.0000
# 4 0.0000 0.0000 0.0000 3.3485 0.0000 0.0000
# 5 0.0000 0.0000 0.0000 0.0000 23.4693 0.0000
# 6 0.0000 0.0000 0.0000 0.0000 0.0000 21.0179
#
#
#
# Elastic Compliance Matrix: (Units=1/GPa)
#
#
# Indices 1 2 3 4 5 6 
#
# 1 0.008264 -0.001683 -0.002182 0.000000 0.000000 0.000000
# 2 -0.001683 0.020728 -0.004725 0.000000 0.000000 0.000000
# 3 -0.002182 -0.004725 0.008843 0.000000 0.000000 0.000000
# 4 0.000000 0.000000 0.000000 0.298640 0.000000 0.000000
# 5 0.000000 0.000000 0.000000 0.000000 0.042609 0.000000
# 6 0.000000 0.000000 0.000000 0.000000 0.000000 0.047578
#
#
# Mechanical properties :
#
#
# Convention : Reuss Voigt Hill
#
# Bulk Modulus (GPa) = 48.41418 60.67787 54.54603
# Shear Modulus (GPa) = 11.09319 25.30657 18.19988
#
# Velocity S-wave (km/s) = 2.36942 3.57874 3.03492
# Velocity P-wave (km/s) = 5.65574 6.91266 6.31555
#
# Compressibility (1/GPa) = 0.02065510
#
# Stress axis : x y z
#
# Youngs Moduli (GPa) = 121.00934 48.24460 113.07921
#
# Poissons Ratio (x) = 0.08117 0.24677
# Poissons Ratio (y) = 0.20360 0.53431
# Poissons Ratio (z) = 0.26407 0.22796
#
# Static dielectric constant tensor:
#      x y z
#    x 1.718560 0.000000 0.000000 
#    y 0.000000 1.696550 0.000000 
#    z 0.000000 0.000000 1.686800 
# 
# From -- ./inp_files/8119.got.cif
#   From: 2010.05.17/outbox.cif.g08.bks.cpg/sg67_5_cif.got.tgz:8119.got - 2010.06.03 18:28:57.
