data_PCOD9504117
_publ_section_title
;
Structure prediction by ZEFSAII (Michael W. Deem and Ramdas Pophale) SiO2 
 PCOD9504117
Probable space group: C M M A
;
_chemical_formula_sum "Si O2"
_cell_formula_units_Z 112
_cell_length_a 28.092508
_cell_length_b 32.043919
_cell_length_c 5.391070
_cell_angle_alpha 90.000000
_cell_angle_beta 90.000000
_cell_angle_gamma 90.000000
_cell_volume 4853.009142
_symmetry_space_group_name_H-M "C M M A"
_symmetry_group_IT_number 67
_symmetry_cell_setting 'orthorhombic'
loop_
_space_group_symop_operation_xyz
x,y,z
-x,1/2-y,z
x,-y,-z
-x,1/2+y,-z
-x,-y,-z
x,1/2+y,-z
-x,y,z
x,1/2-y,z
1/2+x,1/2+y,z
1/2-x,-y,z
1/2+x,1/2-y,-z
1/2-x,y,-z
1/2-x,1/2-y,-z
1/2+x,y,-z
1/2-x,1/2+y,z
1/2+x,-y,z
loop_
_atom_site_type_symbol
_atom_site_label
_atom_site_fract_x
_atom_site_fract_y
_atom_site_fract_z
Si Si1 0.880624 0.704565 0.574045
Si Si2 0.447523 0.152666 0.839771
Si Si3 0.867062 0.525027 0.748390
Si Si4 0.376234 0.621567 0.765944
Si Si5 0.798467 0.407396 0.429364
Si Si6 0.778663 0.314993 0.251886
Si Si7 0.947829 0.570225 0.513951
O O1 0.882089 0.750000 0.451479
O O2 0.877821 0.664272 0.397112
O O3 0.832193 0.702753 0.736702
O O4 0.929368 0.695685 0.722876
O O5 0.500000 0.155830 0.964501
O O6 0.401137 0.137519 0.988467
O O7 0.452534 0.115423 0.642535
O O8 0.852981 0.500000 0.500000
O O9 0.834915 0.566394 0.735244
O O10 0.921688 0.538847 0.699962
O O11 0.860915 0.500000 0.000000
O O12 0.324764 0.604988 0.687039
O O13 0.410233 0.582028 0.697701
O O14 0.750000 0.430366 0.500000
O O15 0.784973 0.364904 0.287061
O O16 0.750000 0.301128 0.500000
O O17 0.750000 0.305680 0.000000
O O18 0.000000 0.556468 0.432605
#
# Coordination Sequence:
#
# PCOD9504117 Si02
#       7
#    16  16  16  16  16  16  16
#     4  10  23  39  58  90 135 174 209 266 333 396
#     4  10  21  38  65  94 122 167 224 274 323 383
#     4  11  26  43  62  93 137 169 204 259 323 395
#     4   9  19  38  63  90 123 161 220 273 317 382
#     4   9  21  41  66  91 121 170 216 267 318 384
#     4  10  23  42  68  99 127 167 225 275 323 381
#     4   9  20  39  64  91 119 162 213 269 320 374
#
# _framework density 23.078462999999999
#
# number of rings (size 3 to 8) (size 9 to 14) (size 15 to 20)
#    0.000    2.286    0.000    1.286   10.000    5.143 
#    0.000    0.714    0.000    0.000    0.000    0.000 
#    0.000    0.000    0.000    0.000    0.000    0.000 
#
# Total GULP energy -312286.177149 kJ/mol
# GULP energy per Si atom -5576.538878 kJ/mol
# Density = 2.302594 g / cm^3
# Si number density = 23.078463 Si / 1000 Ang^3
#
#
#
# Elastic Constant Matrix: (Units=GPa)
#
#
# Indices 1 2 3 4 5 6 
#
# 1 130.9900 24.0381 17.3705 0.0000 0.0000 0.0000
# 2 24.0381 69.7359 16.8367 0.0000 0.0000 0.0000
# 3 17.3705 16.8367 59.1766 0.0000 0.0000 0.0000
# 4 0.0000 0.0000 0.0000 8.3082 0.0000 0.0000
# 5 0.0000 0.0000 0.0000 0.0000 6.4027 0.0000
# 6 0.0000 0.0000 0.0000 0.0000 0.0000 6.2899
#
#
#
# Elastic Compliance Matrix: (Units=1/GPa)
#
#
# Indices 1 2 3 4 5 6 
#
# 1 0.008314 -0.002445 -0.001745 0.000000 0.000000 0.000000
# 2 -0.002445 0.016116 -0.003868 0.000000 0.000000 0.000000
# 3 -0.001745 -0.003868 0.018511 0.000000 0.000000 0.000000
# 4 0.000000 0.000000 0.000000 0.120363 0.000000 0.000000
# 5 0.000000 0.000000 0.000000 0.000000 0.156184 0.000000
# 6 0.000000 0.000000 0.000000 0.000000 0.000000 0.158985
#
#
# Mechanical properties :
#
#
# Convention : Reuss Voigt Hill
#
# Bulk Modulus (GPa) = 37.27590 41.82147 39.54868
# Shear Modulus (GPa) = 9.92989 17.64398 13.78693
#
# Velocity S-wave (km/s) = 2.07654 2.76800 2.44682
# Velocity P-wave (km/s) = 4.68361 5.32696 5.01561
#
# Compressibility (1/GPa) = 0.02682698
#
# Stress axis : x y z
#
# Youngs Moduli (GPa) = 120.27636 62.04898 54.02131
#
# Poissons Ratio (x) = 0.15169 0.09427
# Poissons Ratio (y) = 0.29403 0.20894
# Poissons Ratio (z) = 0.20988 0.23999
#
# Static dielectric constant tensor:
#      x y z
#    x 1.924640 0.000000 0.000000 
#    y 0.000000 1.873260 0.000000 
#    z 0.000000 0.000000 1.972750 
# 
# From -- ./inp_files/4956.got.cif
#   From: 2010.05.17/outbox.cif.g08.bks.cpg/sg67_3_cif.got.tgz:4956.got - 2010.06.03 18:28:57.
