data_PCOD9504662
_publ_section_title
;
Structure prediction by ZEFSAII (Michael W. Deem and Ramdas Pophale) SiO2 
 PCOD9504662
Probable space group: C M M A
;
_chemical_formula_sum "Si O2"
_cell_formula_units_Z 56
_cell_length_a 24.496787
_cell_length_b 8.225752
_cell_length_c 14.073179
_cell_angle_alpha 90.000000
_cell_angle_beta 90.000000
_cell_angle_gamma 90.000000
_cell_volume 2835.808823
_symmetry_space_group_name_H-M "C M M A"
_symmetry_group_IT_number 67
_symmetry_cell_setting 'orthorhombic'
loop_
_space_group_symop_operation_xyz
x,y,z
-x,1/2-y,z
x,-y,-z
-x,1/2+y,-z
-x,-y,-z
x,1/2+y,-z
-x,y,z
x,1/2-y,z
1/2+x,1/2+y,z
1/2-x,-y,z
1/2+x,1/2-y,-z
1/2-x,y,-z
1/2-x,1/2-y,-z
1/2+x,y,-z
1/2-x,1/2+y,z
1/2+x,-y,z
loop_
_atom_site_type_symbol
_atom_site_label
_atom_site_fract_x
_atom_site_fract_y
_atom_site_fract_z
Si Si1 0.500000 0.948080 0.386448
Si Si2 0.189863 0.944878 0.392535
Si Si3 0.689190 0.057833 0.108631
Si Si4 0.398401 0.065824 0.743627
O O1 0.500000 0.750000 0.390448
O O2 0.448855 0.002876 0.319719
O O3 0.500000 0.000000 0.500000
O O4 0.182576 0.750000 0.380761
O O5 0.181896 0.000000 0.500000
O O6 0.250000 0.000000 0.365534
O O7 0.149321 0.051374 0.332288
O O8 0.691834 0.250000 0.112276
O O9 0.750000 0.000000 0.142665
O O10 0.634291 0.007655 0.166085
O O11 0.684305 0.000000 0.000000
O O12 0.413562 0.250000 0.768776
#
# Coordination Sequence:
#
# PCOD9504662 Si02
#       4
#     8  16  16  16
#     4  10  24  42  63  86 117 158 203 250 298 348
#     4  11  21  34  52  79 111 147 186 234 291 352
#     4  11  22  39  63  93 124 158 194 241 297 357
#     4  11  22  39  59  84 115 153 197 244 293 350
#
# _framework density 19.747453
#
# number of rings (size 3 to 8) (size 9 to 14) (size 15 to 20)
#    0.000    1.143    0.000    9.429    0.000    4.571 
#    0.000    0.714    0.000    0.000    0.000    0.000 
#    0.000    0.000    0.000    0.000    0.000    0.000 
#
# Total GULP energy -155870.166949 kJ/mol
# GULP energy per Si atom -5566.791677 kJ/mol
# Density = 1.970251 g / cm^3
# Si number density = 19.747453 Si / 1000 Ang^3
#
#
#
# Elastic Constant Matrix: (Units=GPa)
#
#
# Indices 1 2 3 4 5 6 
#
# 1 243.2700 9.1244 65.9024 0.0000 0.0000 0.0000
# 2 9.1244 96.7436 19.8415 0.0000 0.0000 0.0000
# 3 65.9024 19.8415 135.1445 0.0000 0.0000 0.0000
# 4 0.0000 0.0000 0.0000 27.7547 0.0000 0.0000
# 5 0.0000 0.0000 0.0000 0.0000 32.9215 0.0000
# 6 0.0000 0.0000 0.0000 0.0000 0.0000 17.2849
#
#
#
# Elastic Compliance Matrix: (Units=1/GPa)
#
#
# Indices 1 2 3 4 5 6 
#
# 1 0.004736 0.000028 -0.002314 0.000000 0.000000 0.000000
# 2 0.000028 0.010658 -0.001578 0.000000 0.000000 0.000000
# 3 -0.002314 -0.001578 0.008760 0.000000 0.000000 0.000000
# 4 0.000000 0.000000 0.000000 0.036030 0.000000 0.000000
# 5 0.000000 0.000000 0.000000 0.000000 0.030375 0.000000
# 6 0.000000 0.000000 0.000000 0.000000 0.000000 0.057854
#
#
# Mechanical properties :
#
#
# Convention : Reuss Voigt Hill
#
# Bulk Modulus (GPa) = 60.88238 73.87720 67.37979
# Shear Modulus (GPa) = 30.93750 40.94488 35.94119
#
# Velocity S-wave (km/s) = 3.96240 4.55843 4.27082
# Velocity P-wave (km/s) = 7.19941 8.07452 7.64949
#
# Compressibility (1/GPa) = 0.01642511
#
# Stress axis : x y z
#
# Youngs Moduli (GPa) = 211.12980 93.82913 114.16176
#
# Poissons Ratio (x) = -0.00261 0.26414
# Poissons Ratio (y) = -0.00587 0.18018
# Poissons Ratio (z) = 0.48851 0.14809
#
# Static dielectric constant tensor:
#      x y z
#    x 1.687230 0.000000 0.000000 
#    y 0.000000 1.718000 0.000000 
#    z 0.000000 0.000000 1.814780 
# 
# From -- ./inp_files/24602.got.cif
#   From: 2010.05.17/outbox.cif.g08.bks.cpg/sg67_13_cif.got.tgz:24602.got - 2010.06.03 18:28:57.
