data_PCOD9504637
_publ_section_title
;
Structure prediction by ZEFSAII (Michael W. Deem and Ramdas Pophale) SiO2 
 PCOD9504637
Probable space group: C M M A
;
_chemical_formula_sum "Si O2"
_cell_formula_units_Z 68
_cell_length_a 26.574785
_cell_length_b 20.703036
_cell_length_c 5.297636
_cell_angle_alpha 90.000000
_cell_angle_beta 90.000000
_cell_angle_gamma 90.000000
_cell_volume 2914.646649
_symmetry_space_group_name_H-M "C M M A"
_symmetry_group_IT_number 67
_symmetry_cell_setting 'orthorhombic'
loop_
_space_group_symop_operation_xyz
x,y,z
-x,1/2-y,z
x,-y,-z
-x,1/2+y,-z
-x,-y,-z
x,1/2+y,-z
-x,y,z
x,1/2-y,z
1/2+x,1/2+y,z
1/2-x,-y,z
1/2+x,1/2-y,-z
1/2-x,y,-z
1/2-x,1/2-y,-z
1/2+x,y,-z
1/2-x,1/2+y,z
1/2+x,-y,z
loop_
_atom_site_type_symbol
_atom_site_label
_atom_site_fract_x
_atom_site_fract_y
_atom_site_fract_z
Si Si1 0.192364 0.924092 0.046832
Si Si2 0.750000 0.750000 0.500000
Si Si3 0.339237 0.855986 0.443403
Si Si4 0.943700 0.820568 0.357640
Si Si5 0.940690 0.967215 0.244480
O O1 0.162024 0.889497 0.826276
O O2 0.250000 0.901122 0.000000
O O3 0.172076 0.904635 0.322242
O O4 0.193023 0.000000 0.000000
O O5 0.706044 0.694623 0.463938
O O6 0.394078 0.824238 0.472952
O O7 0.941580 0.750000 0.224156
O O8 0.939518 0.889707 0.219593
O O9 0.000000 0.823004 0.478220
O O10 0.000000 0.984314 0.248409
O O11 0.919853 0.000000 0.500000
O O12 0.917621 0.000000 0.000000
#
# Coordination Sequence:
#
# PCOD9504637 Si02
#       5
#    16   4  16  16  16
#     4  11  24  45  72 105 140 180 234 296 357 416
#     4  12  24  46  68 106 136 186 236 290 344 430
#     4  12  25  44  73 103 141 184 231 291 352 424
#     4  10  23  45  70 104 145 189 236 291 354 424
#     4   9  19  38  64  91 127 176 226 274 328 398
#
# _framework density 23.330442999999999
#
# number of rings (size 3 to 8) (size 9 to 14) (size 15 to 20)
#    0.000    1.412    3.529    0.706    0.000    8.471 
#    0.000    7.059    0.000   16.235    0.000    0.000 
#    0.000    0.000    0.000    0.000    0.000    0.000 
#
# Total GULP energy -189301.479185 kJ/mol
# GULP energy per Si atom -5567.690564 kJ/mol
# Density = 2.327734 g / cm^3
# Si number density = 23.330443 Si / 1000 Ang^3
#
#
#
# Elastic Constant Matrix: (Units=GPa)
#
#
# Indices 1 2 3 4 5 6 
#
# 1 175.4207 20.4886 2.2312 0.0000 0.0000 0.0000
# 2 20.4886 172.5618 69.6237 0.0000 0.0000 0.0000
# 3 2.2312 69.6237 103.4341 0.0000 0.0000 0.0000
# 4 0.0000 0.0000 0.0000 -9.8722 0.0000 0.0000
# 5 0.0000 0.0000 0.0000 0.0000 11.2018 0.0000
# 6 0.0000 0.0000 0.0000 0.0000 0.0000 77.7882
#
#
#
# Elastic Compliance Matrix: (Units=1/GPa)
#
#
# Indices 1 2 3 4 5 6 
#
# 1 0.005797 -0.000876 0.000464 0.000000 0.000000 0.000000
# 2 -0.000876 0.008088 -0.005425 0.000000 0.000000 0.000000
# 3 0.000464 -0.005425 0.013310 0.000000 0.000000 0.000000
# 4 0.000000 0.000000 0.000000 -0.101294 0.000000 0.000000
# 5 0.000000 0.000000 0.000000 0.000000 0.089272 0.000000
# 6 0.000000 0.000000 0.000000 0.000000 0.000000 0.012855
#
#
# Mechanical properties :
#
#
# Convention : Reuss Voigt Hill
#
# Bulk Modulus (GPa) = 64.42622 70.67816 67.55219
# Shear Modulus (GPa) = 111.42239 39.76176 75.59208
#
# Velocity S-wave (km/s) = 6.91824 4.13278 5.69833
# Velocity P-wave (km/s) = 9.56508 7.28926 8.50365
#
# Compressibility (1/GPa) = 0.01552163
#
# Stress axis : x y z
#
# Youngs Moduli (GPa) = 172.50459 123.64103 75.13242
#
# Poissons Ratio (x) = 0.10827 -0.03489
# Poissons Ratio (y) = 0.15105 0.40761
# Poissons Ratio (z) = -0.08011 0.67079
#
# Static dielectric constant tensor:
#      x y z
#    x 1.912210 0.000000 0.000000 
#    y 0.000000 1.878750 0.000000 
#    z 0.000000 0.000000 1.867870 
# 
# From -- ./inp_files/4638.got.cif
#   From: 2010.05.17/outbox.cif.g08.bks.cpg/sg67_3_cif.got.tgz:4638.got - 2010.06.03 18:28:57.
