data_PCOD9504700
_publ_section_title
;
Structure prediction by ZEFSAII (Michael W. Deem and Ramdas Pophale) SiO2 
 PCOD9504700
Probable space group: C M M A
;
_chemical_formula_sum "Si O2"
_cell_formula_units_Z 80
_cell_length_a 17.218936
_cell_length_b 22.596823
_cell_length_c 9.433464
_cell_angle_alpha 90.000000
_cell_angle_beta 90.000000
_cell_angle_gamma 90.000000
_cell_volume 3670.497157
_symmetry_space_group_name_H-M "C M M A"
_symmetry_group_IT_number 67
_symmetry_cell_setting 'orthorhombic'
loop_
_space_group_symop_operation_xyz
x,y,z
-x,1/2-y,z
x,-y,-z
-x,1/2+y,-z
-x,-y,-z
x,1/2+y,-z
-x,y,z
x,1/2-y,z
1/2+x,1/2+y,z
1/2-x,-y,z
1/2+x,1/2-y,-z
1/2-x,y,-z
1/2-x,1/2-y,-z
1/2+x,y,-z
1/2-x,1/2+y,z
1/2+x,-y,z
loop_
_atom_site_type_symbol
_atom_site_label
_atom_site_fract_x
_atom_site_fract_y
_atom_site_fract_z
Si Si1 0.410373 0.524256 0.339507
Si Si2 0.822656 0.250000 0.401824
Si Si3 0.592309 0.750000 0.689751
Si Si4 0.177113 0.950266 0.125874
Si Si5 0.675650 0.865169 0.209775
Si Si6 0.410372 0.840916 0.927212
O O1 0.410899 0.500000 0.500000
O O2 0.500000 0.517761 0.288867
O O3 0.344327 0.485279 0.265330
O O4 0.382220 0.590117 0.294084
O O5 0.750000 0.250000 0.500000
O O6 0.888696 0.250000 0.523573
O O7 0.814532 0.190554 0.311288
O O8 0.500000 0.750000 0.696200
O O9 0.618060 0.694449 0.787944
O O10 0.249979 0.905399 0.157071
O O11 0.102376 0.909872 0.099487
O O12 0.178914 0.000000 0.000000
O O13 0.639406 0.834825 0.069205
O O14 0.500000 0.825724 0.952859
#
# Coordination Sequence:
#
# PCOD9504700 Si02
#       6
#    16   8   8  16  16  16
#     4  11  27  46  70 106 147 189 241 298 367 441
#     4  12  29  50  70 106 146 194 245 300 372 447
#     4  10  25  48  75 106 145 190 245 312 368 431
#     4  12  26  45  71 107 145 187 242 301 362 434
#     4  12  27  45  76 103 148 196 245 299 369 447
#     4  11  24  44  73 105 141 188 243 299 361 426
#
# _framework density 21.795414000000001
#
# number of rings (size 3 to 8) (size 9 to 14) (size 15 to 20)
#    0.000    0.600    2.000    4.200    8.400    3.200 
#    0.000    3.000    0.000    0.000    0.000    0.000 
#    0.000    0.000    0.000    0.000    0.000    0.000 
#
# Total GULP energy -222775.677131 kJ/mol
# GULP energy per Si atom -5569.391928 kJ/mol
# Density = 2.174581 g / cm^3
# Si number density = 21.795414 Si / 1000 Ang^3
#
#
#
# Elastic Constant Matrix: (Units=GPa)
#
#
# Indices 1 2 3 4 5 6 
#
# 1 116.6096 54.7000 56.1237 0.0000 0.0000 0.0000
# 2 54.7000 138.6472 76.1116 0.0000 0.0000 0.0000
# 3 56.1237 76.1116 138.1668 0.0000 0.0000 0.0000
# 4 0.0000 0.0000 0.0000 5.4444 0.0000 0.0000
# 5 0.0000 0.0000 0.0000 0.0000 21.6181 0.0000
# 6 0.0000 0.0000 0.0000 0.0000 0.0000 23.1053
#
#
#
# Elastic Compliance Matrix: (Units=1/GPa)
#
#
# Indices 1 2 3 4 5 6 
#
# 1 0.011368 -0.002795 -0.003078 0.000000 0.000000 0.000000
# 2 -0.002795 0.011027 -0.004939 0.000000 0.000000 0.000000
# 3 -0.003078 -0.004939 0.011208 0.000000 0.000000 0.000000
# 4 0.000000 0.000000 0.000000 0.183674 0.000000 0.000000
# 5 0.000000 0.000000 0.000000 0.000000 0.046258 0.000000
# 6 0.000000 0.000000 0.000000 0.000000 0.000000 0.043280
#
#
# Mechanical properties :
#
#
# Convention : Reuss Voigt Hill
#
# Bulk Modulus (GPa) = 83.47760 85.25491 84.36626
# Shear Modulus (GPa) = 15.04067 23.79944 19.42006
#
# Velocity S-wave (km/s) = 2.62979 3.30805 2.98823
# Velocity P-wave (km/s) = 6.89962 7.33429 7.12027
#
# Compressibility (1/GPa) = 0.01197926
#
# Stress axis : x y z
#
# Youngs Moduli (GPa) = 87.96377 90.69025 89.21854
#
# Poissons Ratio (x) = 0.25352 0.27461
# Poissons Ratio (y) = 0.24590 0.44062
# Poissons Ratio (z) = 0.27075 0.44789
#
# Static dielectric constant tensor:
#      x y z
#    x 1.776050 0.000000 0.000000 
#    y 0.000000 2.522150 0.000000 
#    z 0.000000 0.000000 1.640800 
# 
# From -- ./inp_files/10015.got.cif
#   From: 2010.05.17/outbox.cif.g08.bks.cpg/sg67_6_cif.got.tgz:10015.got - 2010.06.03 18:28:57.
