data_PCOD9504025
_publ_section_title
;
Structure prediction by ZEFSAII (Michael W. Deem and Ramdas Pophale) SiO2 
 PCOD9504025
Probable space group: C M M A
;
_chemical_formula_sum "Si O2"
_cell_formula_units_Z 64
_cell_length_a 8.577315
_cell_length_b 15.840494
_cell_length_c 24.407307
_cell_angle_alpha 90.000000
_cell_angle_beta 90.000000
_cell_angle_gamma 90.000000
_cell_volume 3316.194120
_symmetry_space_group_name_H-M "C M M A"
_symmetry_group_IT_number 67
_symmetry_cell_setting 'orthorhombic'
loop_
_space_group_symop_operation_xyz
x,y,z
-x,1/2-y,z
x,-y,-z
-x,1/2+y,-z
-x,-y,-z
x,1/2+y,-z
-x,y,z
x,1/2-y,z
1/2+x,1/2+y,z
1/2-x,-y,z
1/2+x,1/2-y,-z
1/2-x,y,-z
1/2-x,1/2-y,-z
1/2+x,y,-z
1/2-x,1/2+y,z
1/2+x,-y,z
loop_
_atom_site_type_symbol
_atom_site_label
_atom_site_fract_x
_atom_site_fract_y
_atom_site_fract_z
Si Si1 0.685880 0.750000 0.870805
Si Si2 0.810898 0.750000 0.748081
Si Si3 0.186678 0.091715 0.061631
Si Si4 0.312105 0.410797 0.675335
Si Si5 0.312501 0.849143 0.442218
O O1 0.500000 0.750000 0.876089
O O2 0.736403 0.750000 0.807651
O O3 0.754091 0.667072 0.900329
O O4 0.765544 0.832665 0.713417
O O5 0.000000 0.750000 0.753176
O O6 0.000000 0.089994 0.060448
O O7 0.250000 0.000000 0.079629
O O8 0.250000 0.105649 0.000000
O O9 0.500000 0.412152 0.674277
O O10 0.250000 0.500000 0.695490
O O11 0.257042 0.394681 0.612861
O O12 0.500000 0.852579 0.443355
O O13 0.267746 0.750000 0.437967
O O14 0.250000 0.882423 0.500000
#
# Coordination Sequence:
#
# PCOD9504025 Si02
#       5
#     8   8  16  16  16
#     4  12  25  41  62  91 124 162 208 254 299 358
#     4  10  22  43  62  79 111 156 198 244 299 352
#     4  11  22  40  65  96 131 167 204 248 300 354
#     4  10  21  38  60  82 110 147 190 237 292 353
#     4   9  17  32  54  80 109 144 182 226 283 347
#
# _framework density 19.299233000000001
#
# number of rings (size 3 to 8) (size 9 to 14) (size 15 to 20)
#    0.000    1.750    1.250    4.500    0.000    3.500 
#    0.000    5.000    0.000    0.000    0.000    0.000 
#    0.000    0.000    0.000    0.000    0.000    0.000 
#
# Total GULP energy -178827.147792 kJ/mol
# GULP energy per Si atom -5588.348369 kJ/mol
# Density = 1.925531 g / cm^3
# Si number density = 19.299233 Si / 1000 Ang^3
#
#
#
# Elastic Constant Matrix: (Units=GPa)
#
#
# Indices 1 2 3 4 5 6 
#
# 1 92.7116 56.4389 53.7018 0.0000 0.0000 0.0000
# 2 56.4389 176.3160 105.4553 0.0000 0.0000 0.0000
# 3 53.7018 105.4553 134.1742 0.0000 0.0000 0.0000
# 4 0.0000 0.0000 0.0000 -1.1999 0.0000 0.0000
# 5 0.0000 0.0000 0.0000 0.0000 33.8028 0.0000
# 6 0.0000 0.0000 0.0000 0.0000 0.0000 30.3127
#
#
#
# Elastic Compliance Matrix: (Units=1/GPa)
#
#
# Indices 1 2 3 4 5 6 
#
# 1 0.014482 -0.002206 -0.004063 0.000000 0.000000 0.000000
# 2 -0.002206 0.011039 -0.007793 0.000000 0.000000 0.000000
# 3 -0.004063 -0.007793 0.015204 0.000000 0.000000 0.000000
# 4 0.000000 0.000000 0.000000 -0.833390 0.000000 0.000000
# 5 0.000000 0.000000 0.000000 0.000000 0.029583 0.000000
# 6 0.000000 0.000000 0.000000 0.000000 0.000000 0.032989
#
#
# Mechanical properties :
#
#
# Convention : Reuss Voigt Hill
#
# Bulk Modulus (GPa) = 79.35374 92.71043 86.03208
# Shear Modulus (GPa) = -7.16571 25.09017 8.96223
#
# Velocity S-wave (km/s) = -1.92899 3.60955 2.15729
# Velocity P-wave (km/s) = 6.02042 8.09410 7.13302
#
# Compressibility (1/GPa) = 0.01260180
#
# Stress axis : x y z
#
# Youngs Moduli (GPa) = 69.05028 90.58857 65.77140
#
# Poissons Ratio (x) = 0.19983 0.26720
# Poissons Ratio (y) = 0.15232 0.51257
# Poissons Ratio (z) = 0.28052 0.70598
#
# Static dielectric constant tensor:
#      x y z
#    x 1.655580 0.000000 0.000000 
#    y 0.000000 1.667580 0.000000 
#    z 0.000000 0.000000 1.653100 
# 
# From -- ./inp_files/40441.got.cif
#   From: 2010.05.17/outbox.cif.g08.bks.cpg/sg67_21_cif.got.tgz:40441.got - 2010.06.03 18:28:57.
