data_PCOD9504471
_publ_section_title
;
Structure prediction by ZEFSAII (Michael W. Deem and Ramdas Pophale) SiO2 
 PCOD9504471
Probable space group: C M M A
;
_chemical_formula_sum "Si O2"
_cell_formula_units_Z 92
_cell_length_a 22.323133
_cell_length_b 21.369569
_cell_length_c 8.736193
_cell_angle_alpha 90.000000
_cell_angle_beta 90.000000
_cell_angle_gamma 90.000000
_cell_volume 4167.476213
_symmetry_space_group_name_H-M "C M M A"
_symmetry_group_IT_number 67
_symmetry_cell_setting 'orthorhombic'
loop_
_space_group_symop_operation_xyz
x,y,z
-x,1/2-y,z
x,-y,-z
-x,1/2+y,-z
-x,-y,-z
x,1/2+y,-z
-x,y,z
x,1/2-y,z
1/2+x,1/2+y,z
1/2-x,-y,z
1/2+x,1/2-y,-z
1/2-x,y,-z
1/2-x,1/2-y,-z
1/2+x,y,-z
1/2-x,1/2+y,z
1/2+x,-y,z
loop_
_atom_site_type_symbol
_atom_site_label
_atom_site_fract_x
_atom_site_fract_y
_atom_site_fract_z
Si Si1 0.629538 0.477948 0.178181
Si Si2 0.569953 0.750000 0.767968
Si Si3 0.000000 0.010454 0.821234
Si Si4 0.667954 0.645439 0.683581
Si Si5 0.500000 0.631933 0.297611
Si Si6 0.368187 0.892619 0.353353
Si Si7 0.000000 0.250000 0.068904
Si Si8 0.781628 0.679706 0.850353
O O1 0.561382 0.456145 0.216409
O O2 0.668281 0.418042 0.215988
O O3 0.637511 0.535985 0.294585
O O4 0.633905 0.500000 0.000000
O O5 0.500000 0.750000 0.704184
O O6 0.611427 0.690513 0.722785
O O7 0.556000 0.750000 0.950508
O O8 0.000000 0.939389 0.763919
O O9 0.000000 0.000000 0.000000
O O10 0.665136 0.622554 0.509512
O O11 0.729653 0.679559 0.723284
O O12 0.564005 0.631713 0.380043
O O13 0.500000 0.687624 0.173021
O O14 0.338749 0.855279 0.213652
O O15 0.799590 0.750000 0.890407
O O16 0.750000 0.652039 0.000000
#
# Coordination Sequence:
#
# PCOD9504471 Si02
#       8
#    16   8   8  16   8  16   4  16
#     4  10  22  40  70  98 134 178 232 284 333 403
#     4  10  28  39  67 101 141 185 228 278 339 402
#     4   8  18  33  60  90 127 168 217 268 337 375
#     4  12  25  45  68 100 146 174 231 275 354 410
#     4  10  24  40  64 102 134 173 225 280 335 401
#     4  11  26  44  69 103 139 179 225 280 356 403
#     4  10  26  38  66  98 144 172 242 278 334 382
#     4  11  26  45  72  97 134 184 236 281 332 408
#
# _framework density 22.075710000000001
#
# number of rings (size 3 to 8) (size 9 to 14) (size 15 to 20)
#    0.261    1.217    0.870    2.087   14.609    1.391 
#    0.000    6.087    0.000    0.000    0.000    0.000 
#    0.000    0.000    0.000    0.000    0.000    0.000 
#
# Total GULP energy -256636.752477 kJ/mol
# GULP energy per Si atom -5579.059836 kJ/mol
# Density = 2.202546 g / cm^3
# Si number density = 22.075710 Si / 1000 Ang^3
#
#
#
# Elastic Constant Matrix: (Units=GPa)
#
#
# Indices 1 2 3 4 5 6 
#
# 1 54.9411 13.3762 -2.7329 0.0000 0.0000 0.0000
# 2 13.3762 83.6961 19.2757 0.0000 0.0000 0.0000
# 3 -2.7329 19.2757 87.1725 0.0000 0.0000 0.0000
# 4 0.0000 0.0000 0.0000 15.4330 0.0000 0.0000
# 5 0.0000 0.0000 0.0000 0.0000 29.3569 0.0000
# 6 0.0000 0.0000 0.0000 0.0000 0.0000 20.4667
#
#
#
# Elastic Compliance Matrix: (Units=1/GPa)
#
#
# Indices 1 2 3 4 5 6 
#
# 1 0.019086 -0.003359 0.001341 0.000000 0.000000 0.000000
# 2 -0.003359 0.013180 -0.003020 0.000000 0.000000 0.000000
# 3 0.001341 -0.003020 0.012181 0.000000 0.000000 0.000000
# 4 0.000000 0.000000 0.000000 0.064796 0.000000 0.000000
# 5 0.000000 0.000000 0.000000 0.000000 0.034063 0.000000
# 6 0.000000 0.000000 0.000000 0.000000 0.000000 0.048860
#
#
# Mechanical properties :
#
#
# Convention : Reuss Voigt Hill
#
# Bulk Modulus (GPa) = 29.09354 31.73864 30.41609
# Shear Modulus (GPa) = 23.39729 26.11071 24.75400
#
# Velocity S-wave (km/s) = 3.25909 3.44289 3.35225
# Velocity P-wave (km/s) = 5.23162 5.49664 5.36576
#
# Compressibility (1/GPa) = 0.03437189
#
# Stress axis : x y z
#
# Youngs Moduli (GPa) = 52.39487 75.87081 82.09316
#
# Poissons Ratio (x) = 0.25486 -0.11010
# Poissons Ratio (y) = 0.17600 0.24790
# Poissons Ratio (z) = -0.07027 0.22911
#
# Static dielectric constant tensor:
#      x y z
#    x 1.867760 0.000000 0.000000 
#    y 0.000000 1.756590 0.000000 
#    z 0.000000 0.000000 1.798570 
# 
# From -- ./inp_files/11349.got.cif
#   From: 2010.05.17/outbox.cif.g08.bks.cpg/sg67_6_cif.got.tgz:11349.got - 2010.06.03 18:28:57.
