data_PCOD9504506
_publ_section_title
;
Structure prediction by ZEFSAII (Michael W. Deem and Ramdas Pophale) SiO2 
 PCOD9504506
Probable space group: C M M A
;
_chemical_formula_sum "Si O2"
_cell_formula_units_Z 60
_cell_length_a 21.676471
_cell_length_b 15.659139
_cell_length_c 8.502087
_cell_angle_alpha 90.000000
_cell_angle_beta 90.000000
_cell_angle_gamma 90.000000
_cell_volume 2885.904816
_symmetry_space_group_name_H-M "C M M A"
_symmetry_group_IT_number 67
_symmetry_cell_setting 'orthorhombic'
loop_
_space_group_symop_operation_xyz
x,y,z
-x,1/2-y,z
x,-y,-z
-x,1/2+y,-z
-x,-y,-z
x,1/2+y,-z
-x,y,z
x,1/2-y,z
1/2+x,1/2+y,z
1/2-x,-y,z
1/2+x,1/2-y,-z
1/2-x,y,-z
1/2-x,1/2-y,-z
1/2+x,y,-z
1/2-x,1/2+y,z
1/2+x,-y,z
loop_
_atom_site_type_symbol
_atom_site_label
_atom_site_fract_x
_atom_site_fract_y
_atom_site_fract_z
Si Si1 0.183918 0.250000 0.419845
Si Si2 0.135147 0.411949 0.596655
Si Si3 0.819057 0.907598 0.064299
Si Si4 0.000000 0.903056 0.437366
Si Si5 0.000000 0.250000 0.307288
Si Si6 0.125285 0.250000 0.102176
O O1 0.250000 0.250000 0.500000
O O2 0.150674 0.334700 0.481355
O O3 0.179585 0.250000 0.233242
O O4 0.139664 0.500000 0.500000
O O5 0.179119 0.410692 0.747124
O O6 0.064677 0.396216 0.652333
O O7 0.750000 0.892636 0.000000
O O8 0.863573 0.833654 0.001720
O O9 0.839002 0.000000 0.000000
O O10 0.000000 0.833246 0.578247
O O11 0.000000 0.000000 0.500000
O O12 0.938900 0.250000 0.198102
#
# Coordination Sequence:
#
# PCOD9504506 Si02
#       6
#     8  16  16   8   4   8
#     4  12  23  38  66  95 126 181 235 271 334 411
#     4  11  23  43  69  97 133 183 234 278 336 409
#     4  11  25  44  66 101 145 180 226 290 352 414
#     4  10  22  41  70  98 135 173 239 286 331 398
#     4  12  24  44  70 106 138 180 232 296 340 416
#     4  12  24  43  67  99 141 179 224 295 357 395
#
# _framework density 20.790707000000001
#
# number of rings (size 3 to 8) (size 9 to 14) (size 15 to 20)
#    0.000    0.800    2.667    4.400    3.733    3.733 
#    0.000    1.333    0.000    0.000    0.000    0.000 
#    0.000    0.000    0.000    0.000    0.000    0.000 
#
# Total GULP energy -167730.927314 kJ/mol
# GULP energy per Si atom -5591.030910 kJ/mol
# Density = 2.074339 g / cm^3
# Si number density = 20.790707 Si / 1000 Ang^3
#
#
#
# Elastic Constant Matrix: (Units=GPa)
#
#
# Indices 1 2 3 4 5 6 
#
# 1 105.0229 23.4093 19.8040 0.0000 0.0000 0.0000
# 2 23.4093 181.6372 45.5073 0.0000 0.0000 0.0000
# 3 19.8040 45.5073 115.3754 0.0000 0.0000 0.0000
# 4 0.0000 0.0000 0.0000 33.4669 0.0000 0.0000
# 5 0.0000 0.0000 0.0000 0.0000 37.8614 0.0000
# 6 0.0000 0.0000 0.0000 0.0000 0.0000 4.2746
#
#
#
# Elastic Compliance Matrix: (Units=1/GPa)
#
#
# Indices 1 2 3 4 5 6 
#
# 1 0.009986 -0.000952 -0.001339 0.000000 0.000000 0.000000
# 2 -0.000952 0.006200 -0.002282 0.000000 0.000000 0.000000
# 3 -0.001339 -0.002282 0.009797 0.000000 0.000000 0.000000
# 4 0.000000 0.000000 0.000000 0.029880 0.000000 0.000000
# 5 0.000000 0.000000 0.000000 0.000000 0.026412 0.000000
# 6 0.000000 0.000000 0.000000 0.000000 0.000000 0.233941
#
#
# Mechanical properties :
#
#
# Convention : Reuss Voigt Hill
#
# Bulk Modulus (GPa) = 59.38767 64.38631 61.88699
# Shear Modulus (GPa) = 15.10690 36.00823 25.55756
#
# Velocity S-wave (km/s) = 2.69851 4.16617 3.50991
# Velocity P-wave (km/s) = 6.19159 7.36062 6.80127
#
# Compressibility (1/GPa) = 0.01683851
#
# Stress axis : x y z
#
# Youngs Moduli (GPa) = 100.13716 161.29368 102.06923
#
# Poissons Ratio (x) = 0.15349 0.13665
# Poissons Ratio (y) = 0.09529 0.23293
# Poissons Ratio (z) = 0.13406 0.36808
#
# Static dielectric constant tensor:
#      x y z
#    x 1.796900 0.000000 0.000000 
#    y 0.000000 1.733570 0.000000 
#    z 0.000000 0.000000 1.731880 
# 
# From -- ./inp_files/7933.got.cif
#   From: 2010.05.17/outbox.cif.g08.bks.cpg/sg67_4_cif.got.tgz:7933.got - 2010.06.03 18:28:57.
