data_PCOD9504966
_publ_section_title
;
Structure prediction by ZEFSAII (Michael W. Deem and Ramdas Pophale) SiO2 
 PCOD9504966
Probable space group: C M M A
;
_chemical_formula_sum "Si O2"
_cell_formula_units_Z 72
_cell_length_a 9.618359
_cell_length_b 18.157787
_cell_length_c 19.995256
_cell_angle_alpha 90.000000
_cell_angle_beta 90.000000
_cell_angle_gamma 90.000000
_cell_volume 3492.133750
_symmetry_space_group_name_H-M "C M M A"
_symmetry_group_IT_number 67
_symmetry_cell_setting 'orthorhombic'
loop_
_space_group_symop_operation_xyz
x,y,z
-x,1/2-y,z
x,-y,-z
-x,1/2+y,-z
-x,-y,-z
x,1/2+y,-z
-x,y,z
x,1/2-y,z
1/2+x,1/2+y,z
1/2-x,-y,z
1/2+x,1/2-y,-z
1/2-x,y,-z
1/2-x,1/2-y,-z
1/2+x,y,-z
1/2-x,1/2+y,z
1/2+x,-y,z
loop_
_atom_site_type_symbol
_atom_site_label
_atom_site_fract_x
_atom_site_fract_y
_atom_site_fract_z
Si Si1 0.250000 0.500000 0.697179
Si Si2 0.658749 0.372019 0.788146
Si Si3 0.500000 0.035149 0.393677
Si Si4 0.835315 0.250000 0.714819
Si Si5 0.851206 0.750000 0.591185
Si Si6 0.500000 0.878670 0.470162
Si Si7 0.163687 0.162482 0.064522
O O1 0.333645 0.445708 0.745252
O O2 0.361394 0.541401 0.650445
O O3 0.500000 0.342993 0.786330
O O4 0.767525 0.318667 0.752831
O O5 0.695658 0.378764 0.866313
O O6 0.500000 0.092151 0.454701
O O7 0.500000 0.951744 0.424312
O O8 0.777902 0.250000 0.639250
O O9 0.000000 0.250000 0.716982
O O10 0.872364 0.824145 0.548319
O O11 0.000000 0.750000 0.632596
O O12 0.191630 0.250000 0.076233
O O13 0.000000 0.154942 0.050600
O O14 0.250000 0.138832 0.000000
#
# Coordination Sequence:
#
# PCOD9504966 Si02
#       7
#     8  16   8   8   8   8  16
#     4  12  26  41  69  98 130 174 226 274 324 398
#     4  11  23  44  66  96 136 186 219 264 335 402
#     4  11  22  44  66  96 123 169 219 273 326 395
#     4  12  24  36  69 106 134 164 225 286 333 382
#     4   8  18  40  68  95 123 177 200 266 338 414
#     4   8  20  40  74  88 122 171 215 255 332 418
#     4   9  18  36  63  95 129 175 217 265 323 390
#
# _framework density 20.617767000000001
#
# number of rings (size 3 to 8) (size 9 to 14) (size 15 to 20)
#    0.667    1.111    2.222    2.333    1.556    2.667 
#    0.000    2.778    2.444    9.333    0.000    0.000 
#    0.000    0.000    0.000    0.000    0.000    0.000 
#
# Total GULP energy -201045.177259 kJ/mol
# GULP energy per Si atom -5584.588257 kJ/mol
# Density = 2.057084 g / cm^3
# Si number density = 20.617767 Si / 1000 Ang^3
#
#
#
# Elastic Constant Matrix: (Units=GPa)
#
#
# Indices 1 2 3 4 5 6 
#
# 1 126.6680 24.4239 74.7866 0.0000 0.0000 0.0000
# 2 24.4239 62.6539 55.6082 0.0000 0.0000 0.0000
# 3 74.7866 55.6082 180.5578 0.0000 0.0000 0.0000
# 4 0.0000 0.0000 0.0000 15.3472 0.0000 0.0000
# 5 0.0000 0.0000 0.0000 0.0000 31.0479 0.0000
# 6 0.0000 0.0000 0.0000 0.0000 0.0000 -11.4053
#
#
#
# Elastic Compliance Matrix: (Units=1/GPa)
#
#
# Indices 1 2 3 4 5 6 
#
# 1 0.010455 -0.000319 -0.004232 0.000000 0.000000 0.000000
# 2 -0.000319 0.021974 -0.006635 0.000000 0.000000 0.000000
# 3 -0.004232 -0.006635 0.009335 0.000000 0.000000 0.000000
# 4 0.000000 0.000000 0.000000 0.065159 0.000000 0.000000
# 5 0.000000 0.000000 0.000000 0.000000 0.032208 0.000000
# 6 0.000000 0.000000 0.000000 0.000000 0.000000 -0.087679
#
#
# Mechanical properties :
#
#
# Convention : Reuss Voigt Hill
#
# Bulk Modulus (GPa) = 51.57163 75.50191 63.53677
# Shear Modulus (GPa) = 62.27453 21.33535 41.80494
#
# Velocity S-wave (km/s) = 5.50181 3.22033 4.50779
# Velocity P-wave (km/s) = 8.08872 7.10821 7.61426
#
# Compressibility (1/GPa) = 0.01939051
#
# Stress axis : x y z
#
# Youngs Moduli (GPa) = 95.64903 45.50741 107.12545
#
# Poissons Ratio (x) = 0.01454 0.45336
# Poissons Ratio (y) = 0.03055 0.71082
# Poissons Ratio (z) = 0.40479 0.30196
#
# Static dielectric constant tensor:
#      x y z
#    x 1.731350 0.000000 0.000000 
#    y 0.000000 1.769220 0.000000 
#    z 0.000000 0.000000 1.722370 
# 
# From -- ./inp_files/36813.got.cif
#   From: 2010.05.17/outbox.cif.g08.bks.cpg/sg67_19_cif.got.tgz:36813.got - 2010.06.03 18:28:57.
