data_PCOD9504009
_publ_section_title
;
Structure prediction by ZEFSAII (Michael W. Deem and Ramdas Pophale) SiO2 
 PCOD9504009
Probable space group: C M M A
;
_chemical_formula_sum "Si O2"
_cell_formula_units_Z 64
_cell_length_a 28.442735
_cell_length_b 8.510058
_cell_length_c 14.444293
_cell_angle_alpha 90.000000
_cell_angle_beta 90.000000
_cell_angle_gamma 90.000000
_cell_volume 3496.231364
_symmetry_space_group_name_H-M "C M M A"
_symmetry_group_IT_number 67
_symmetry_cell_setting 'orthorhombic'
loop_
_space_group_symop_operation_xyz
x,y,z
-x,1/2-y,z
x,-y,-z
-x,1/2+y,-z
-x,-y,-z
x,1/2+y,-z
-x,y,z
x,1/2-y,z
1/2+x,1/2+y,z
1/2-x,-y,z
1/2+x,1/2-y,-z
1/2-x,y,-z
1/2-x,1/2-y,-z
1/2+x,y,-z
1/2-x,1/2+y,z
1/2+x,-y,z
loop_
_atom_site_type_symbol
_atom_site_label
_atom_site_fract_x
_atom_site_fract_y
_atom_site_fract_z
Si Si1 0.800888 0.562634 0.604806
Si Si2 0.697115 0.438910 0.903007
Si Si3 0.444609 0.562841 0.102917
Si Si4 0.371021 0.434007 0.248844
O O1 0.803783 0.500000 0.500000
O O2 0.798146 0.750000 0.606233
O O3 0.750000 0.500000 0.642693
O O4 0.847914 0.510091 0.659455
O O5 0.694511 0.250000 0.895761
O O6 0.750000 0.500000 0.899782
O O7 0.669822 0.526355 0.823519
O O8 0.677185 0.500000 0.000000
O O9 0.500000 0.526987 0.114035
O O10 0.437784 0.750000 0.100941
O O11 0.416018 0.498459 0.191646
O O12 0.431181 0.500000 0.000000
O O13 0.377280 0.250000 0.264694
#
# Coordination Sequence:
#
# PCOD9504009 Si02
#       4
#    16  16  16  16
#     4  11  22  39  60  85 115 148 187 230 279 331
#     4  11  21  34  49  71 104 141 179 219 266 321
#     4  10  21  38  59  84 114 148 187 232 281 333
#     4  12  23  36  55  80 109 144 185 227 274 327
#
# _framework density 18.305425
#
# number of rings (size 3 to 8) (size 9 to 14) (size 15 to 20)
#    0.000    1.000    0.000   10.500    0.000    1.500 
#    0.000    0.000    0.000    0.750    0.000    0.000 
#    0.000    0.000    0.000    0.000    0.000    0.000 
#
# Total GULP energy -178562.980859 kJ/mol
# GULP energy per Si atom -5580.093152 kJ/mol
# Density = 1.826376 g / cm^3
# Si number density = 18.305425 Si / 1000 Ang^3
#
#
#
# Elastic Constant Matrix: (Units=GPa)
#
#
# Indices 1 2 3 4 5 6 
#
# 1 115.2911 59.6841 48.2339 0.0000 0.0000 0.0000
# 2 59.6841 100.0270 29.2375 0.0000 0.0000 0.0000
# 3 48.2339 29.2375 87.0008 0.0000 0.0000 0.0000
# 4 0.0000 0.0000 0.0000 30.8370 0.0000 0.0000
# 5 0.0000 0.0000 0.0000 0.000048040.7256 0.0000
# 6 0.0000 0.0000 0.0000 0.0000 0.0000 30.1591
#
#
#
# Elastic Compliance Matrix: (Units=1/GPa)
#
#
# Indices 1 2 3 4 5 6 
#
# 1 0.014794 -0.007130 -0.005806 0.000000 0.000000 0.000000
# 2 -0.007130 0.014523 -0.000928 0.000000 0.000000 0.000000
# 3 -0.005806 -0.000928 0.015025 0.000000 0.000000 0.000000
# 4 0.000000 0.000000 0.000000 0.032429 0.000000 0.000000
# 5 0.000000 0.000000 0.000000 0.000000 0.000021 0.000000
# 6 0.000000 0.000000 0.000000 0.000000 0.000000 0.033157
#
#
# Mechanical properties :
#
#
# Convention : Reuss Voigt Hill
#
# Bulk Modulus (GPa) = 60.18837 64.06999 62.12918
# Shear Modulus (GPa) = 34.91313 9631.35524 4833.13419
#
# Velocity S-wave (km/s) = 4.37195 72.61472 51.43934
# Velocity P-wave (km/s) = 7.64439 84.05717 59.68268
#
# Compressibility (1/GPa) = 0.01661451
#
# Stress axis : x y z
#
# Youngs Moduli (GPa) = 67.59632 68.85712 66.55792
#
# Poissons Ratio (x) = 0.49096 0.38641
# Poissons Ratio (y) = 0.48197 0.06174
# Poissons Ratio (z) = 0.39244 0.06387
#
# Static dielectric constant tensor:
#      x y z
#    x 1.636420 0.000000 0.000000 
#    y 0.000000 1.619870 0.000000 
#    z 0.000000 0.000000 1.625510 
# 
# From -- ./inp_files/30962.got.cif
#   From: 2010.05.17/outbox.cif.g08.bks.cpg/sg67_16_cif.got.tgz:30962.got - 2010.06.03 18:28:57.
