data_PCOD9504020
_publ_section_title
;
Structure prediction by ZEFSAII (Michael W. Deem and Ramdas Pophale) SiO2 
 PCOD9504020
Probable space group: C M M A
;
_chemical_formula_sum "Si O2"
_cell_formula_units_Z 64
_cell_length_a 9.420911
_cell_length_b 30.707031
_cell_length_c 11.074242
_cell_angle_alpha 90.000000
_cell_angle_beta 90.000000
_cell_angle_gamma 90.000000
_cell_volume 3203.647602
_symmetry_space_group_name_H-M "C M M A"
_symmetry_group_IT_number 67
_symmetry_cell_setting 'orthorhombic'
loop_
_space_group_symop_operation_xyz
x,y,z
-x,1/2-y,z
x,-y,-z
-x,1/2+y,-z
-x,-y,-z
x,1/2+y,-z
-x,y,z
x,1/2-y,z
1/2+x,1/2+y,z
1/2-x,-y,z
1/2+x,1/2-y,-z
1/2-x,y,-z
1/2-x,1/2-y,-z
1/2+x,y,-z
1/2-x,1/2+y,z
1/2+x,-y,z
loop_
_atom_site_type_symbol
_atom_site_label
_atom_site_fract_x
_atom_site_fract_y
_atom_site_fract_z
Si Si1 0.830718 0.832568 0.747838
Si Si2 0.833151 0.590235 0.117222
Si Si3 0.175717 0.250000 0.864969
Si Si4 0.250000 0.121827 0.500000
Si Si5 0.848624 0.539807 0.356589
O O1 0.760160 0.870241 0.829095
O O2 0.738760 0.790882 0.789353
O O3 0.812372 0.848097 0.607477
O O4 0.000000 0.826832 0.770694
O O5 0.829502 0.553766 0.218905
O O6 0.000000 0.602098 0.096787
O O7 0.750000 0.575381 0.000000
O O8 0.000000 0.250000 0.872878
O O9 0.250000 0.250000 0.000000
O O10 0.157157 0.085610 0.571165
O O11 0.750000 0.500000 0.383782
O O12 0.000000 0.520115 0.374352
#
# Coordination Sequence:
#
# PCOD9504020 Si02
#       5
#    16  16   8   8  16
#     4  11  23  41  66  93 123 161 204 249 301 358
#     4  10  21  38  59  86 121 160 205 254 309 367
#     4  12  26  45  68  95 128 161 199 245 297 358
#     4  10  23  41  64  90 122 160 202 249 299 360
#     4  10  22  38  58  86 119 158 203 252 304 359
#
# _framework density 19.977229000000001
#
# number of rings (size 3 to 8) (size 9 to 14) (size 15 to 20)
#    0.000    1.500    0.000    4.500    0.000   11.000 
#    0.000    2.500    0.000    0.000    0.000    0.000 
#    0.000    0.000    0.000    0.000    0.000    0.000 
#
# Total GULP energy -178153.966622 kJ/mol
# GULP energy per Si atom -5567.311457 kJ/mol
# Density = 1.993176 g / cm^3
# Si number density = 19.977229 Si / 1000 Ang^3
#
#
#
# Elastic Constant Matrix: (Units=GPa)
#
#
# Indices 1 2 3 4 5 6 
#
# 1 212.2669 76.0385 80.4168 0.0000 0.0000 0.0000
# 2 76.0385 105.4754 44.7234 0.0000 0.0000 0.0000
# 3 80.4168 44.7234 153.5116 0.0000 0.0000 0.0000
# 4 0.0000 0.0000 0.0000 21.1814 0.0000 0.0000
# 5 0.0000 0.0000 0.0000 0.0000 57.7125 0.0000
# 6 0.0000 0.0000 0.0000 0.0000 0.0000 14.2528
#
#
#
# Elastic Compliance Matrix: (Units=1/GPa)
#
#
# Indices 1 2 3 4 5 6 
#
# 1 0.007133 -0.004059 -0.002554 0.000000 0.000000 0.000000
# 2 -0.004059 0.013127 -0.001698 0.000000 0.000000 0.000000
# 3 -0.002554 -0.001698 0.008347 0.000000 0.000000 0.000000
# 4 0.000000 0.000000 0.000000 0.047211 0.000000 0.000000
# 5 0.000000 0.000000 0.000000 0.000000 0.017327 0.000000
# 6 0.000000 0.000000 0.000000 0.000000 0.000000 0.070162
#
#
# Mechanical properties :
#
#
# Convention : Reuss Voigt Hill
#
# Bulk Modulus (GPa) = 83.44145 97.06790 90.25467
# Shear Modulus (GPa) = 27.18520 36.63435 31.90977
#
# Velocity S-wave (km/s) = 3.69292 4.28694 4.00097
# Velocity P-wave (km/s) = 7.74871 8.55562 8.16214
#
# Compressibility (1/GPa) = 0.01198445
#
# Stress axis : x y z
#
# Youngs Moduli (GPa) = 140.20066 76.17800 119.80791
#
# Poissons Ratio (x) = 0.30922 0.30597
# Poissons Ratio (y) = 0.56909 0.20344
# Poissons Ratio (z) = 0.35805 0.12935
#
# Static dielectric constant tensor:
#      x y z
#    x 1.710130 0.000000 0.000000 
#    y 0.000000 1.700460 0.000000 
#    z 0.000000 0.000000 1.762860 
# 
# From -- ./inp_files/15823.got.cif
#   From: 2010.05.17/outbox.cif.g08.bks.cpg/sg67_8_cif.got.tgz:15823.got - 2010.06.03 18:28:57.
