data_PCOD9504153
_publ_section_title
;
Structure prediction by ZEFSAII (Michael W. Deem and Ramdas Pophale) SiO2 
 PCOD9504153
Probable space group: C M M A
;
_chemical_formula_sum "Si O2"
_cell_formula_units_Z 72
_cell_length_a 14.755590
_cell_length_b 8.674330
_cell_length_c 26.839853
_cell_angle_alpha 90.000000
_cell_angle_beta 90.000000
_cell_angle_gamma 90.000000
_cell_volume 3435.363147
_symmetry_space_group_name_H-M "C M M A"
_symmetry_group_IT_number 67
_symmetry_cell_setting 'orthorhombic'
loop_
_space_group_symop_operation_xyz
x,y,z
-x,1/2-y,z
x,-y,-z
-x,1/2+y,-z
-x,-y,-z
x,1/2+y,-z
-x,y,z
x,1/2-y,z
1/2+x,1/2+y,z
1/2-x,-y,z
1/2+x,1/2-y,-z
1/2-x,y,-z
1/2-x,1/2-y,-z
1/2+x,y,-z
1/2-x,1/2+y,z
1/2+x,-y,z
loop_
_atom_site_type_symbol
_atom_site_label
_atom_site_fract_x
_atom_site_fract_y
_atom_site_fract_z
Si Si1 0.647116 0.565182 0.949233
Si Si2 0.000000 0.566375 0.444496
Si Si3 0.352877 0.434704 0.159386
Si Si4 0.352435 0.434277 0.739342
Si Si5 0.851768 0.935296 0.628893
O O1 0.649784 0.750000 0.952642
O O2 0.750000 0.500000 0.948248
O O3 0.607265 0.523989 0.894916
O O4 0.605158 0.500000 0.000000
O O5 0.000000 0.500000 0.500000
O O6 0.086288 0.506242 0.413630
O O7 0.000000 0.750000 0.446246
O O8 0.349969 0.250000 0.162575
O O9 0.250000 0.500000 0.158535
O O10 0.395021 0.498889 0.210245
O O11 0.350044 0.250000 0.743642
O O12 0.250000 0.500000 0.738156
O O13 0.389214 0.473566 0.684509
O O14 0.850358 0.750000 0.624842
O O15 0.750000 0.000000 0.625397
#
# Coordination Sequence:
#
# PCOD9504153 Si02
#       5
#    16   8  16  16  16
#     4   9  15  20  26  38  60  97 144 196 251 308
#     4  12  26  44  66  92 122 158 197 238 285 336
#     4   9  15  21  31  49  75 108 152 204 257 314
#     4   9  16  26  44  68  95 128 167 213 266 321
#     4  10  21  39  62  90 122 156 196 241 288 342
#
# _framework density 20.958482
#
# number of rings (size 3 to 8) (size 9 to 14) (size 15 to 20)
#    0.000    2.444    0.000    5.667    0.000    5.778 
#    0.000    2.222    0.000    0.000    0.000    0.000 
#    0.000    0.000    0.000    1.000    0.000   15.556 
#
# Total GULP energy -200834.441362 kJ/mol
# GULP energy per Si atom -5578.734482 kJ/mol
# Density = 2.091078 g / cm^3
# Si number density = 20.958482 Si / 1000 Ang^3
#
#
#
# Elastic Constant Matrix: (Units=GPa)
#
#
# Indices 1 2 3 4 5 6 
#
# 1 88.1202 25.1894 62.3753 0.0000 0.0000 0.0000
# 2 25.1894 104.6071 96.0475 0.0000 0.0000 0.0000
# 3 62.3753 96.0475 281.8280 0.0000 0.0000 0.0000
# 4 0.0000 0.0000 0.0000 40.9124 0.0000 0.0000
# 5 0.0000 0.0000 0.0000 0.0000 -31.1215 0.0000
# 6 0.0000 0.0000 0.0000 0.0000 0.0000 6.2811
#
#
#
# Elastic Compliance Matrix: (Units=1/GPa)
#
#
# Indices 1 2 3 4 5 6 
#
# 1 0.013495 -0.000738 -0.002735 0.000000 0.000000 0.000000
# 2 -0.000738 0.013954 -0.004592 0.000000 0.000000 0.000000
# 3 -0.002735 -0.004592 0.005719 0.000000 0.000000 0.000000
# 4 0.000000 0.000000 0.000000 0.024442 0.000000 0.000000
# 5 0.000000 0.000000 0.000000 0.000000 -0.032132 0.000000
# 6 0.000000 0.000000 0.000000 0.000000 0.000000 0.159208
#
#
# Mechanical properties :
#
#
# Convention : Reuss Voigt Hill
#
# Bulk Modulus (GPa) = 58.69750 93.53106 76.11428
# Shear Modulus (GPa) = 24.21355 22.61061 23.41208
#
# Velocity S-wave (km/s) = 3.40267 3.28812 3.34588
# Velocity P-wave (km/s) = 6.59583 7.69021 7.16395
#
# Compressibility (1/GPa) = 0.01703650
#
# Stress axis : x y z
#
# Youngs Moduli (GPa) = 74.09997 71.66594 174.86773
#
# Poissons Ratio (x) = 0.05291 0.47830
# Poissons Ratio (y) = 0.05470 0.80300
# Poissons Ratio (z) = 0.20268 0.32909
#
# Static dielectric constant tensor:
#      x y z
#    x 1.777560 0.000000 0.000000 
#    y 0.000000 1.691820 0.000000 
#    z 0.000000 0.000000 1.813930 
# 
# From -- ./inp_files/44239.got.cif
#   From: 2010.05.17/outbox.cif.g08.bks.cpg/sg67_23_cif.got.tgz:44239.got - 2010.06.03 18:28:57.
