data_PCOD9504404
_publ_section_title
;
Structure prediction by ZEFSAII (Michael W. Deem and Ramdas Pophale) SiO2 
 PCOD9504404
Probable space group: C M M A
;
_chemical_formula_sum "Si O2"
_cell_formula_units_Z 112
_cell_length_a 15.342822
_cell_length_b 28.311685
_cell_length_c 12.961787
_cell_angle_alpha 90.000000
_cell_angle_beta 90.000000
_cell_angle_gamma 90.000000
_cell_volume 5630.355859
_symmetry_space_group_name_H-M "C M M A"
_symmetry_group_IT_number 67
_symmetry_cell_setting 'orthorhombic'
loop_
_space_group_symop_operation_xyz
x,y,z
-x,1/2-y,z
x,-y,-z
-x,1/2+y,-z
-x,-y,-z
x,1/2+y,-z
-x,y,z
x,1/2-y,z
1/2+x,1/2+y,z
1/2-x,-y,z
1/2+x,1/2-y,-z
1/2-x,y,-z
1/2-x,1/2-y,-z
1/2+x,y,-z
1/2-x,1/2+y,z
1/2+x,-y,z
loop_
_atom_site_type_symbol
_atom_site_label
_atom_site_fract_x
_atom_site_fract_y
_atom_site_fract_z
Si Si1 0.102548 0.195754 0.224996
Si Si2 0.096317 0.627728 0.315408
Si Si3 0.101582 0.490083 0.231053
Si Si4 0.746107 0.694492 0.617832
Si Si5 0.651129 0.100674 0.880889
Si Si6 0.660398 0.538725 0.567746
Si Si7 0.644245 0.575714 0.892113
O O1 0.118046 0.250000 0.188851
O O2 0.161486 0.188679 0.326166
O O3 0.131766 0.154597 0.147707
O O4 0.000000 0.190999 0.245852
O O5 0.172458 0.665718 0.322739
O O6 0.117330 0.587904 0.401680
O O7 0.100100 0.602849 0.203480
O O8 0.000000 0.647302 0.332636
O O9 0.114430 0.435297 0.205024
O O10 0.160685 0.511408 0.322266
O O11 0.128609 0.520650 0.131145
O O12 0.000000 0.499189 0.254903
O O13 0.724563 0.750000 0.618096
O O14 0.750000 0.678151 0.500000
O O15 0.753965 0.089325 0.884540
O O16 0.613775 0.089272 0.993995
O O17 0.609627 0.500000 0.500000
O O18 0.750000 0.546814 0.500000
#
# Coordination Sequence:
#
# PCOD9504404 Si02
#       7
#    16  16  16  16  16  16  16
#     4  10  22  41  65  94 126 159 206 263 312 368
#     4  11  23  40  63  90 125 161 203 254 307 368
#     4  11  24  38  58  91 127 162 210 259 306 370
#     4  10  22  42  66  90 122 162 202 253 315 366
#     4  11  22  39  65  92 119 168 210 251 311 378
#     4  10  23  37  59  84 116 167 203 248 301 363
#     4  10  22  39  61  91 126 164 204 252 308 371
#
# _framework density 19.89217
#
# number of rings (size 3 to 8) (size 9 to 14) (size 15 to 20)
#    0.000    1.571    1.429    3.429    8.000    7.143 
#    0.000    3.571    0.000    0.000    0.000    0.000 
#    0.000    0.000    0.000    0.000    0.000    0.000 
#
# Total GULP energy -312445.795851 kJ/mol
# GULP energy per Si atom -5579.389212 kJ/mol
# Density = 1.984689 g / cm^3
# Si number density = 19.892170 Si / 1000 Ang^3
#
#
#
# Elastic Constant Matrix: (Units=GPa)
#
#
# Indices 1 2 3 4 5 6 
#
# 1 112.8284 26.2661 10.2490 0.0000 0.0000 0.0000
# 2 26.2661 82.7024 25.7065 0.0000 0.0000 0.0000
# 3 10.2490 25.7065 78.4084 0.0000 0.0000 0.0000
# 4 0.0000 0.0000 0.0000 29.1588 0.0000 0.0000
# 5 0.0000 0.0000 0.0000 0.0000 -14.0729 0.0000
# 6 0.0000 0.0000 0.0000 0.0000 0.0000 13.5420
#
#
#
# Elastic Compliance Matrix: (Units=1/GPa)
#
#
# Indices 1 2 3 4 5 6 
#
# 1 0.009576 -0.002953 -0.000283 0.000000 0.000000 0.000000
# 2 -0.002953 0.014374 -0.004327 0.000000 0.000000 0.000000
# 3 -0.000283 -0.004327 0.014209 0.000000 0.000000 0.000000
# 4 0.000000 0.000000 0.000000 0.034295 0.000000 0.000000
# 5 0.000000 0.000000 0.000000 0.000000 -0.071059 0.000000
# 6 0.000000 0.000000 0.000000 0.000000 0.000000 0.073844
#
#
# Mechanical properties :
#
#
# Convention : Reuss Voigt Hill
#
# Bulk Modulus (GPa) = 43.41584 44.26470 43.84027
# Shear Modulus (GPa) = 50.99703 19.84010 35.41856
#
# Velocity S-wave (km/s) = 5.06877 3.16156 4.22421
# Velocity P-wave (km/s) = 7.49196 5.96891 6.77338
#
# Compressibility (1/GPa) = 0.02303307
#
# Stress axis : x y z
#
# Youngs Moduli (GPa) = 104.42465 69.56822 70.37637
#
# Poissons Ratio (x) = 0.20545 0.01995
# Poissons Ratio (y) = 0.30840 0.30450
# Poissons Ratio (z) = 0.02960 0.30100
#
# Static dielectric constant tensor:
#      x y z
#    x 1.725910 0.000000 0.000000 
#    y 0.000000 1.699930 0.000000 
#    z 0.000000 0.000000 1.733140 
# 
# From -- ./inp_files/18576.got.cif
#   From: 2010.05.17/outbox.cif.g08.bks.cpg/sg67_10_cif.got.tgz:18576.got - 2010.06.03 18:28:57.
