data_PCOD9504122
_publ_section_title
;
Structure prediction by ZEFSAII (Michael W. Deem and Ramdas Pophale) SiO2 
 PCOD9504122
Probable space group: C M M A
;
_chemical_formula_sum "Si O2"
_cell_formula_units_Z 88
_cell_length_a 24.975589
_cell_length_b 14.990231
_cell_length_c 12.547327
_cell_angle_alpha 90.000000
_cell_angle_beta 90.000000
_cell_angle_gamma 90.000000
_cell_volume 4697.591854
_symmetry_space_group_name_H-M "C M M A"
_symmetry_group_IT_number 67
_symmetry_cell_setting 'orthorhombic'
loop_
_space_group_symop_operation_xyz
x,y,z
-x,1/2-y,z
x,-y,-z
-x,1/2+y,-z
-x,-y,-z
x,1/2+y,-z
-x,y,z
x,1/2-y,z
1/2+x,1/2+y,z
1/2-x,-y,z
1/2+x,1/2-y,-z
1/2-x,y,-z
1/2-x,1/2-y,-z
1/2+x,y,-z
1/2-x,1/2+y,z
1/2+x,-y,z
loop_
_atom_site_type_symbol
_atom_site_label
_atom_site_fract_x
_atom_site_fract_y
_atom_site_fract_z
Si Si1 0.564438 0.855064 0.860059
Si Si2 0.441377 0.353241 0.376747
Si Si3 0.293124 0.644251 0.095603
Si Si4 0.872730 0.000000 0.000000
Si Si5 0.162493 0.899465 0.487420
Si Si6 0.254792 0.646477 0.331579
O O1 0.500000 0.855105 0.873668
O O2 0.582338 0.750000 0.875291
O O3 0.575454 0.888829 0.739145
O O4 0.592060 0.927890 0.935082
O O5 0.500000 0.389433 0.409937
O O6 0.449094 0.250000 0.351609
O O7 0.392992 0.354358 0.458635
O O8 0.311643 0.750000 0.100696
O O9 0.266861 0.622574 0.210256
O O10 0.250000 0.640755 0.000000
O O11 0.336007 0.566869 0.070880
O O12 0.205385 0.899424 0.390838
O O13 0.194020 0.865412 0.591054
O O14 0.146207 0.000000 0.500000
O O15 0.239721 0.750000 0.332645
#
# Coordination Sequence:
#
# PCOD9504122 Si02
#       6
#    16  16  16   8  16  16
#     4   9  20  38  60  87 116 151 199 247 292 351
#     4   9  19  37  59  82 110 149 196 240 288 347
#     4  10  24  40  56  84 120 160 198 237 288 354
#     4  12  22  34  62  86 118 154 194 246 300 344
#     4  11  22  33  58  86 114 146 186 241 292 341
#     4  10  21  39  57  79 115 154 196 230 281 351
#
# _framework density 18.733001999999999
#
# number of rings (size 3 to 8) (size 9 to 14) (size 15 to 20)
#    0.000    2.000    0.000    5.455    5.091    1.818 
#    0.000    0.000    0.000    0.000    0.000    5.091 
#    0.000    0.000    0.000    0.000    0.000    0.000 
#
# Total GULP energy -245020.404866 kJ/mol
# GULP energy per Si atom -5568.645565 kJ/mol
# Density = 1.869037 g / cm^3
# Si number density = 18.733002 Si / 1000 Ang^3
#
#
#
# Elastic Constant Matrix: (Units=GPa)
#
#
# Indices 1 2 3 4 5 6 
#
# 1 65.0054 11.4792 43.7881 0.0000 0.0000 0.0000
# 2 11.4792 71.8730 17.3779 0.0000 0.0000 0.0000
# 3 43.7881 17.3779 109.8926 0.0000 0.0000 0.0000
# 4 0.0000 0.0000 0.0000 49.0194 0.0000 0.0000
# 5 0.0000 0.0000 0.0000 0.0000 11.5607 0.0000
# 6 0.0000 0.0000 0.0000 0.0000 0.0000 44.9021
#
#
#
# Elastic Compliance Matrix: (Units=1/GPa)
#
#
# Indices 1 2 3 4 5 6 
#
# 1 0.021161 -0.001394 -0.008211 0.000000 0.000000 0.000000
# 2 -0.001394 0.014558 -0.001747 0.000000 0.000000 0.000000
# 3 -0.008211 -0.001747 0.012648 0.000000 0.000000 0.000000
# 4 0.000000 0.000000 0.000000 0.020400 0.000000 0.000000
# 5 0.000000 0.000000 0.000000 0.000000 0.086500 0.000000
# 6 0.000000 0.000000 0.000000 0.000000 0.000000 0.022271
#
#
# Mechanical properties :
#
#
# Convention : Reuss Voigt Hill
#
# Bulk Modulus (GPa) = 38.96716 43.56236 41.26476
# Shear Modulus (GPa) = 23.94674 32.70481 28.32578
#
# Velocity S-wave (km/s) = 3.57924 4.18286 3.89276
# Velocity P-wave (km/s) = 6.15855 6.82885 6.50234
#
# Compressibility (1/GPa) = 0.02566263
#
# Stress axis : x y z
#
# Youngs Moduli (GPa) = 47.25739 68.68872 79.06472
#
# Poissons Ratio (x) = 0.09577 0.64922
# Poissons Ratio (y) = 0.06589 0.13810
# Poissons Ratio (z) = 0.38804 0.11997
#
# Static dielectric constant tensor:
#      x y z
#    x 1.820770 0.000000 0.000000 
#    y 0.000000 1.662950 0.000000 
#    z 0.000000 0.000000 1.680650 
# 
# From -- ./inp_files/21751.got.cif
#   From: 2010.05.17/outbox.cif.g08.bks.cpg/sg67_11_cif.got.tgz:21751.got - 2010.06.03 18:28:57.
