data_PCOD9504960
_publ_section_title
;
Structure prediction by ZEFSAII (Michael W. Deem and Ramdas Pophale) SiO2 
 PCOD9504960
Probable space group: C M M A
;
_chemical_formula_sum "Si O2"
_cell_formula_units_Z 84
_cell_length_a 14.896925
_cell_length_b 12.273488
_cell_length_c 24.554867
_cell_angle_alpha 90.000000
_cell_angle_beta 90.000000
_cell_angle_gamma 90.000000
_cell_volume 4489.543871
_symmetry_space_group_name_H-M "C M M A"
_symmetry_group_IT_number 67
_symmetry_cell_setting 'orthorhombic'
loop_
_space_group_symop_operation_xyz
x,y,z
-x,1/2-y,z
x,-y,-z
-x,1/2+y,-z
-x,-y,-z
x,1/2+y,-z
-x,y,z
x,1/2-y,z
1/2+x,1/2+y,z
1/2-x,-y,z
1/2+x,1/2-y,-z
1/2-x,y,-z
1/2-x,1/2-y,-z
1/2+x,y,-z
1/2-x,1/2+y,z
1/2+x,-y,z
loop_
_atom_site_type_symbol
_atom_site_label
_atom_site_fract_x
_atom_site_fract_y
_atom_site_fract_z
Si Si1 0.897912 0.880614 0.073373
Si Si2 0.391327 0.250000 0.262812
Si Si3 0.352645 0.036033 0.193251
Si Si4 0.250000 0.500000 0.000000
Si Si5 0.000000 0.620903 0.757093
Si Si6 0.644407 0.018493 0.437153
Si Si7 0.893920 0.250000 0.613836
Si Si8 0.000000 0.379052 0.373274
O O1 0.889548 0.750000 0.076681
O O2 0.887339 0.930205 0.133641
O O3 0.000000 0.904867 0.053651
O O4 0.817945 0.928297 0.036596
O O5 0.500000 0.250000 0.262176
O O6 0.361135 0.141623 0.231728
O O7 0.356022 0.250000 0.324799
O O8 0.250000 0.000000 0.189582
O O9 0.414059 0.940258 0.217757
O O10 0.000000 0.605813 0.691790
O O11 0.000000 0.750000 0.768622
O O12 0.629012 0.141844 0.418771
O O13 0.618236 0.000000 0.500000
O O14 0.750000 0.000000 0.431809
O O15 0.585870 0.938581 0.399645
O O16 0.000000 0.250000 0.621149
O O17 0.000000 0.250000 0.385023
#
# Coordination Sequence:
#
# PCOD9504960 Si02
#       8
#    16   8  16   4   8  16   8   8
#     4  11  23  43  69  99 132 176 223 273 326 381
#     4  11  22  42  69  95 127 173 222 281 323 381
#     4  12  24  42  69  98 134 173 227 268 326 397
#     4  12  24  44  68 100 140 172 220 280 322 392
#     4  11  26  44  62  97 139 173 208 273 335 395
#     4  11  26  43  66  94 127 170 217 272 330 395
#     4  11  24  41  67  98 127 166 226 274 323 393
#     4  11  25  44  66  94 133 170 212 264 338 399
#
# _framework density 18.710141
#
# number of rings (size 3 to 8) (size 9 to 14) (size 15 to 20)
#    0.000    0.762    4.762    2.000    4.000    3.810 
#    0.000    0.000    0.000    0.000    0.000    0.000 
#    0.000    0.000    0.000    0.000    0.000    0.000 
#
# Total GULP energy -234806.767953 kJ/mol
# GULP energy per Si atom -5590.637332 kJ/mol
# Density = 1.866756 g / cm^3
# Si number density = 18.710141 Si / 1000 Ang^3
#
#
#
# Elastic Constant Matrix: (Units=GPa)
#
#
# Indices 1 2 3 4 5 6 
#
# 1 142.2895 72.1123 57.0865 0.0000 0.0000 0.0000
# 2 72.1123 168.6523 90.7558 0.0000 0.0000 0.0000
# 3 57.0865 90.7558 139.2571 0.0000 0.0000 0.0000
# 4 0.0000 0.0000 0.0000 35.2018 0.0000 0.0000
# 5 0.0000 0.0000 0.0000 0.0000 75.3982 0.0000
# 6 0.0000 0.0000 0.0000 0.0000 0.0000 19.9487
#
#
#
# Elastic Compliance Matrix: (Units=1/GPa)
#
#
# Indices 1 2 3 4 5 6 
#
# 1 0.009280 -0.002958 -0.001876 0.000000 0.000000 0.000000
# 2 -0.002958 0.010075 -0.005353 0.000000 0.000000 0.000000
# 3 -0.001876 -0.005353 0.011439 0.000000 0.000000 0.000000
# 4 0.000000 0.000000 0.000000 0.028408 0.000000 0.000000
# 5 0.000000 0.000000 0.000000 0.000000 0.013263 0.000000
# 6 0.000000 0.000000 0.000000 0.000000 0.000000 0.050129
#
#
# Mechanical properties :
#
#
# Convention : Reuss Voigt Hill
#
# Bulk Modulus (GPa) = 95.98570 98.90091 97.44331
# Shear Modulus (GPa) = 34.14339 41.45938 37.80138
#
# Velocity S-wave (km/s) = 4.27647 4.71242 4.49973
# Velocity P-wave (km/s) = 8.70615 9.08754 8.89889
#
# Compressibility (1/GPa) = 0.01041822
#
# Stress axis : x y z
#
# Youngs Moduli (GPa) = 107.75961 99.25563 87.42079
#
# Poissons Ratio (x) = 0.29362 0.16402
# Poissons Ratio (y) = 0.31878 0.46799
# Poissons Ratio (z) = 0.20218 0.53135
#
# Static dielectric constant tensor:
#      x y z
#    x 1.629400 0.000000 0.000000 
#    y 0.000000 1.609880 0.000000 
#    z 0.000000 0.000000 1.641000 
# 
# From -- ./inp_files/41883.got.cif
#   From: 2010.05.17/outbox.cif.g08.bks.cpg/sg67_21_cif.got.tgz:41883.got - 2010.06.03 18:28:57.
