data_PCOD9504253
_publ_section_title
;
Structure prediction by ZEFSAII (Michael W. Deem and Ramdas Pophale) SiO2 
 PCOD9504253
Probable space group: C M M A
;
_chemical_formula_sum "Si O2"
_cell_formula_units_Z 100
_cell_length_a 24.777452
_cell_length_b 14.597042
_cell_length_c 13.685079
_cell_angle_alpha 90.000000
_cell_angle_beta 90.000000
_cell_angle_gamma 90.000000
_cell_volume 4949.585263
_symmetry_space_group_name_H-M "C M M A"
_symmetry_group_IT_number 67
_symmetry_cell_setting 'orthorhombic'
loop_
_space_group_symop_operation_xyz
x,y,z
-x,1/2-y,z
x,-y,-z
-x,1/2+y,-z
-x,-y,-z
x,1/2+y,-z
-x,y,z
x,1/2-y,z
1/2+x,1/2+y,z
1/2-x,-y,z
1/2+x,1/2-y,-z
1/2-x,y,-z
1/2-x,1/2-y,-z
1/2+x,y,-z
1/2-x,1/2+y,z
1/2+x,-y,z
loop_
_atom_site_type_symbol
_atom_site_label
_atom_site_fract_x
_atom_site_fract_y
_atom_site_fract_z
Si Si1 0.705214 0.361053 0.421316
Si Si2 0.436718 0.012994 0.214244
Si Si3 0.917511 0.584458 0.432357
Si Si4 0.633262 0.641342 0.919468
Si Si5 0.141331 0.358712 0.151623
Si Si6 0.237551 0.138742 0.796379
Si Si7 0.000000 0.250000 0.535306
O O1 0.703754 0.250000 0.420473
O O2 0.750000 0.389086 0.500000
O O3 0.645854 0.395605 0.445750
O O4 0.721016 0.391192 0.311980
O O5 0.500000 0.997110 0.198341
O O6 0.427884 0.059098 0.319438
O O7 0.411951 0.081556 0.133578
O O8 0.402476 0.919705 0.206856
O O9 0.932857 0.500000 0.500000
O O10 0.953115 0.670658 0.460149
O O11 0.625440 0.750000 0.898974
O O12 0.691119 0.613589 0.873499
O O13 0.633436 0.629057 0.035502
O O14 0.136366 0.250000 0.173537
O O15 0.201973 0.390135 0.177667
O O16 0.238871 0.250000 0.797209
#
# Coordination Sequence:
#
# PCOD9504253 Si02
#       7
#    16  16  16  16  16  16   4
#     4  10  21  40  69 104 139 179 219 280 352 414
#     4  12  27  44  67  97 134 175 235 281 329 404
#     4  12  27  48  73 106 136 178 232 279 341 407
#     4  10  21  40  70  98 132 177 229 286 345 400
#     4  10  23  43  64  97 138 183 224 281 349 405
#     4   9  18  37  67  98 132 176 228 275 340 413
#     4  12  26  52  82  94 138 184 236 288 322 400
#
# _framework density 20.203714000000002
#
# number of rings (size 3 to 8) (size 9 to 14) (size 15 to 20)
#    0.000    1.440    3.200    1.200    3.360    4.800 
#    1.440    3.200    0.000    0.000    0.000    0.000 
#    0.000    0.000    0.000    0.000    0.000    0.000 
#
# Total GULP energy -279190.637441 kJ/mol
# GULP energy per Si atom -5583.812749 kJ/mol
# Density = 2.015773 g / cm^3
# Si number density = 20.203714 Si / 1000 Ang^3
#
#
#
# Elastic Constant Matrix: (Units=GPa)
#
#
# Indices 1 2 3 4 5 6 
#
# 1 165.7048 42.5196 17.5062 0.0000 0.0000 0.0000
# 2 42.5196 104.4774 24.8445 0.0000 0.0000 0.0000
# 3 17.5062 24.8445 16.8013 0.0000 0.0000 0.0000
# 4 0.0000 0.0000 0.0000 -7.2448 0.0000 0.0000
# 5 0.0000 0.0000 0.0000 0.0000 -16.9224 0.0000
# 6 0.0000 0.0000 0.0000 0.0000 0.0000 92.6456
#
#
#
# Elastic Compliance Matrix: (Units=1/GPa)
#
#
# Indices 1 2 3 4 5 6 
#
# 1 0.006974 -0.001713 -0.004735 0.000000 0.000000 0.000000
# 2 -0.001713 0.015183 -0.020667 0.000000 0.000000 0.000000
# 3 -0.004735 -0.020667 0.095014 0.000000 0.000000 0.000000
# 4 0.000000 0.000000 0.000000 -0.138030 0.000000 0.000000
# 5 0.000000 0.000000 0.000000 0.000000 -0.059093 0.000000
# 6 0.000000 0.000000 0.000000 0.000000 0.000000 0.010794
#
#
# Mechanical properties :
#
#
# Convention : Reuss Voigt Hill
#
# Bulk Modulus (GPa) = 15.88756 50.74713 33.31734
# Shear Modulus (GPa) = 826.36542 27.16991 426.76766
#
# Velocity S-wave (km/s) = 20.24610 3.67113 14.54960
# Velocity P-wave (km/s) = 23.54613 6.56824 17.28528
#
# Compressibility (1/GPa) = 0.06294232
#
# Stress axis : x y z
#
# Youngs Moduli (GPa) = 143.38017 65.86318 10.52481
#
# Poissons Ratio (x) = 0.11279 0.04983
# Poissons Ratio (y) = 0.24554 0.21752
# Poissons Ratio (z) = 0.67887 1.36120
#
# Static dielectric constant tensor:
#      x y z
#    x 1.678270 0.000000 0.000000 
#    y 0.000000 1.733880 0.000000 
#    z 0.000000 0.000000 1.694460 
# 
# From -- ./inp_files/30089.got.cif
#   From: 2010.05.17/outbox.cif.g08.bks.cpg/sg67_16_cif.got.tgz:30089.got - 2010.06.03 18:28:57.
