data_PCOD9504996
_publ_section_title
;
Structure prediction by ZEFSAII (Michael W. Deem and Ramdas Pophale) SiO2 
 PCOD9504996
Probable space group: C M M A
;
_chemical_formula_sum "Si O2"
_cell_formula_units_Z 96
_cell_length_a 15.222618
_cell_length_b 15.777985
_cell_length_c 21.134489
_cell_angle_alpha 90.000000
_cell_angle_beta 90.000000
_cell_angle_gamma 90.000000
_cell_volume 5076.128877
_symmetry_space_group_name_H-M "C M M A"
_symmetry_group_IT_number 67
_symmetry_cell_setting 'orthorhombic'
loop_
_space_group_symop_operation_xyz
x,y,z
-x,1/2-y,z
x,-y,-z
-x,1/2+y,-z
-x,-y,-z
x,1/2+y,-z
-x,y,z
x,1/2-y,z
1/2+x,1/2+y,z
1/2-x,-y,z
1/2+x,1/2-y,-z
1/2-x,y,-z
1/2-x,1/2-y,-z
1/2+x,y,-z
1/2-x,1/2+y,z
1/2+x,-y,z
loop_
_atom_site_type_symbol
_atom_site_label
_atom_site_fract_x
_atom_site_fract_y
_atom_site_fract_z
Si Si1 0.750000 0.599804 0.744512
Si Si2 0.399564 0.654989 0.162752
Si Si3 0.399564 0.654989 0.837248
Si Si4 0.601838 0.353352 0.500000
Si Si5 0.855548 0.500000 0.927704
Si Si6 0.750000 0.647433 0.401202
O O1 0.750000 0.500000 0.757701
O O2 0.834259 0.638697 0.779355
O O3 0.665741 0.638697 0.779355
O O4 0.750000 0.615525 0.670062
O O5 0.500000 0.649718 0.184480
O O6 0.383727 0.750000 0.137524
O O7 0.384831 0.583271 0.110264
O O8 0.500000 0.649718 0.815520
O O9 0.383727 0.750000 0.862476
O O10 0.384831 0.583271 0.889736
O O11 0.500000 0.382283 0.500000
O O12 0.599288 0.250000 0.500000
O O13 0.662378 0.378861 0.560013
O O14 0.662378 0.378861 0.439987
O O15 0.750000 0.500000 0.927937
O O16 0.886921 0.500000 0.000000
O O17 0.750000 0.750000 0.400382
#
# Coordination Sequence:
#
# PCOD9504996 Si02
#       6
#    16  16  16  16  16  16
#     4  12  23  39  59  84 122 160 199 249 303 357
#     4  11  23  40  63  88 118 159 203 249 301 356
#     4  11  23  40  63  88 118 159 203 249 301 356
#     4   8  15  31  54  80 112 148 190 241 292 345
#     4  11  23  41  65  92 123 159 196 244 303 359
#     4   9  18  32  54  82 111 148 194 243 292 347
#
# _framework density 18.912050000000001
#
# number of rings (size 3 to 8) (size 9 to 14) (size 15 to 20)
#    0.000    1.667    3.333    3.000    0.000    3.333 
#    0.000    8.333    0.000    1.000    0.000    0.000 
#    0.000    0.000    0.000    0.000    0.000    0.000 
#
# Total GULP energy -268019.202581 kJ/mol
# GULP energy per Si atom -5583.733387 kJ/mol
# Density = 1.886901 g / cm^3
# Si number density = 18.912050 Si / 1000 Ang^3
#
#
#
# Elastic Constant Matrix: (Units=GPa)
#
#
# Indices 1 2 3 4 5 6 
#
# 1 161.6581 49.8329 74.2573 0.0000 0.0000 0.0000
# 2 49.8329 118.3469 53.0496 0.0000 0.0000 0.0000
# 3 74.2573 53.0496 155.7019 0.0000 0.0000 0.0000
# 4 0.0000 0.0000 0.0000 50.0008 0.0000 0.0000
# 5 0.0000 0.0000 0.0000 0.0000 -42.7781 0.0000
# 6 0.0000 0.0000 0.0000 0.0000 0.0000 20.6935
#
#
#
# Elastic Compliance Matrix: (Units=1/GPa)
#
#
# Indices 1 2 3 4 5 6 
#
# 1 0.008317 -0.002035 -0.003273 0.000000 0.000000 0.000000
# 2 -0.002035 0.010471 -0.002597 0.000000 0.000000 0.000000
# 3 -0.003273 -0.002597 0.008868 0.000000 0.000000 0.000000
# 4 0.000000 0.000000 0.000000 0.020000 0.000000 0.000000
# 5 0.000000 0.000000 0.000000 0.000000 -0.023376 0.000000
# 6 0.000000 0.000000 0.000000 0.000000 0.000000 0.048324
#
#
# Mechanical properties :
#
#
# Convention : Reuss Voigt Hill
#
# Bulk Modulus (GPa) = 84.41780 87.77629 86.09704
# Shear Modulus (GPa) = 54.13504 22.82105 38.47804
#
# Velocity S-wave (km/s) = 5.35600 3.47752 4.51552
# Velocity P-wave (km/s) = 9.10950 7.91441 8.53290
#
# Compressibility (1/GPa) = 0.01184584
#
# Stress axis : x y z
#
# Youngs Moduli (GPa) = 120.24123 95.50490 112.76001
#
# Poissons Ratio (x) = 0.19433 0.36907
# Poissons Ratio (y) = 0.24466 0.29285
# Poissons Ratio (z) = 0.39356 0.24803
#
# Static dielectric constant tensor:
#      x y z
#    x 1.658880 0.000000 0.000000 
#    y 0.000000 1.670350 0.000000 
#    z 0.000000 0.000000 1.618750 
# 
# From -- ./inp_files/38446.got.cif
#   From: 2010.05.17/outbox.cif.g08.bks.cpg/sg67_20_cif.got.tgz:38446.got - 2010.06.03 18:28:57.
