data_PCOD9504705
_publ_section_title
;
Structure prediction by ZEFSAII (Michael W. Deem and Ramdas Pophale) SiO2 
 PCOD9504705
Probable space group: C M M A
;
_chemical_formula_sum "Si O2"
_cell_formula_units_Z 68
_cell_length_a 25.428074
_cell_length_b 9.532157
_cell_length_c 13.948683
_cell_angle_alpha 90.000000
_cell_angle_beta 90.000000
_cell_angle_gamma 90.000000
_cell_volume 3380.943070
_symmetry_space_group_name_H-M "C M M A"
_symmetry_group_IT_number 67
_symmetry_cell_setting 'orthorhombic'
loop_
_space_group_symop_operation_xyz
x,y,z
-x,1/2-y,z
x,-y,-z
-x,1/2+y,-z
-x,-y,-z
x,1/2+y,-z
-x,y,z
x,1/2-y,z
1/2+x,1/2+y,z
1/2-x,-y,z
1/2+x,1/2-y,-z
1/2-x,y,-z
1/2-x,1/2-y,-z
1/2+x,y,-z
1/2-x,1/2+y,z
1/2+x,-y,z
loop_
_atom_site_type_symbol
_atom_site_label
_atom_site_fract_x
_atom_site_fract_y
_atom_site_fract_z
Si Si1 0.232858 0.750000 0.320130
Si Si2 0.593245 0.482713 0.709700
Si Si3 0.615008 0.250000 0.403965
Si Si4 0.859372 0.080981 0.908035
Si Si5 0.658313 0.750000 0.385511
Si Si6 0.000000 0.250000 0.285181
Si Si7 0.250000 0.500000 0.173886
O O1 0.174047 0.750000 0.359681
O O2 0.279112 0.750000 0.398524
O O3 0.242485 0.624944 0.247484
O O4 0.586870 0.610572 0.635083
O O5 0.606909 0.549044 0.812763
O O6 0.642184 0.388432 0.673169
O O7 0.545770 0.373714 0.714245
O O8 0.624477 0.250000 0.517352
O O9 0.854673 0.250000 0.921288
O O10 0.802498 0.009110 0.889421
O O11 0.882452 0.000000 0.000000
#
# Coordination Sequence:
#
# PCOD9504705 Si02
#       7
#     8  16   8  16   8   4   8
#     4  12  20  37  62 100 143 187 218 261 319 395
#     4  11  23  48  65  97 135 168 230 285 339 400
#     4  12  22  42  67 103 138 182 226 268 334 395
#     4  12  26  42  69 100 137 180 222 271 339 404
#     4  11  23  37  71  99 141 186 218 267 320 403
#     4  10  28  46  78  96 120 186 218 292 366 384
#     4  12  21  38  61  98 140 186 221 260 323 398
#
# _framework density 20.112732000000001
#
# number of rings (size 3 to 8) (size 9 to 14) (size 15 to 20)
#    0.000    0.471    7.059    1.412    4.941    1.412 
#    0.000   13.529    0.000    0.000    0.000    0.000 
#    0.000    0.000    0.000    0.000    0.000    0.000 
#
# Total GULP energy -189355.996942 kJ/mol
# GULP energy per Si atom -5569.294028 kJ/mol
# Density = 2.006696 g / cm^3
# Si number density = 20.112732 Si / 1000 Ang^3
#
#
#
# Elastic Constant Matrix: (Units=GPa)
#
#
# Indices 1 2 3 4 5 6 
#
# 1 82.3009 2.0818 -6.2720 0.0000 0.0000 0.0000
# 2 2.0818 106.9879 14.4936 0.0000 0.0000 0.0000
# 3 -6.2720 14.4936 105.0294 0.0000 0.0000 0.0000
# 4 0.0000 0.0000 0.0000 18.4737 0.0000 0.0000
# 5 0.0000 0.0000 0.0000 0.0000 -4.0074 0.0000
# 6 0.0000 0.0000 0.0000 0.0000 0.0000 -12.5805
#
#
#
# Elastic Compliance Matrix: (Units=1/GPa)
#
#
# Indices 1 2 3 4 5 6 
#
# 1 0.012218 -0.000343 0.000777 0.000000 0.000000 0.000000
# 2 -0.000343 0.009535 -0.001336 0.000000 0.000000 0.000000
# 3 0.000777 -0.001336 0.009752 0.000000 0.000000 0.000000
# 4 0.000000 0.000000 0.000000 0.054131 0.000000 0.000000
# 5 0.000000 0.000000 0.000000 0.000000 -0.249540 0.000000
# 6 0.000000 0.000000 0.000000 0.000000 0.000000 -0.079488
#
#
# Mechanical properties :
#
#
# Convention : Reuss Voigt Hill
#
# Bulk Modulus (GPa) = 33.66954 34.99165 34.33059
# Shear Modulus (GPa) = -21.58083 19.31149 -1.13467
#
# Velocity S-wave (km/s) = -3.27921 3.10201 -0.75192
# Velocity P-wave (km/s) = 1.56177 5.50141 4.04380
#
# Compressibility (1/GPa) = 0.02970044
#
# Stress axis : x y z
#
# Youngs Moduli (GPa) = 81.84359 104.88183 102.54379
#
# Poissons Ratio (x) = 0.03597 -0.07967
# Poissons Ratio (y) = 0.02807 0.13702
# Poissons Ratio (z) = -0.06359 0.14014
#
# Static dielectric constant tensor:
#      x y z
#    x 1.733430 0.000000 0.000000 
#    y 0.000000 1.683310 0.000000 
#    z 0.000000 0.000000 1.742450 
# 
# From -- ./inp_files/30516.got.cif
#   From: 2010.05.17/outbox.cif.g08.bks.cpg/sg67_16_cif.got.tgz:30516.got - 2010.06.03 18:28:57.
