data_PCOD9504758
_publ_section_title
;
Structure prediction by ZEFSAII (Michael W. Deem and Ramdas Pophale) SiO2 
 PCOD9504758
Probable space group: C M M A
;
_chemical_formula_sum "Si O2"
_cell_formula_units_Z 88
_cell_length_a 22.701552
_cell_length_b 15.024881
_cell_length_c 11.848021
_cell_angle_alpha 90.000000
_cell_angle_beta 90.000000
_cell_angle_gamma 90.000000
_cell_volume 4041.219177
_symmetry_space_group_name_H-M "C M M A"
_symmetry_group_IT_number 67
_symmetry_cell_setting 'orthorhombic'
loop_
_space_group_symop_operation_xyz
x,y,z
-x,1/2-y,z
x,-y,-z
-x,1/2+y,-z
-x,-y,-z
x,1/2+y,-z
-x,y,z
x,1/2-y,z
1/2+x,1/2+y,z
1/2-x,-y,z
1/2+x,1/2-y,-z
1/2-x,y,-z
1/2-x,1/2-y,-z
1/2+x,y,-z
1/2-x,1/2+y,z
1/2+x,-y,z
loop_
_atom_site_type_symbol
_atom_site_label
_atom_site_fract_x
_atom_site_fract_y
_atom_site_fract_z
Si Si1 0.883113 0.601015 0.229304
Si Si2 0.118161 0.907462 0.694832
Si Si3 0.500000 0.357269 0.829065
Si Si4 0.068032 0.852098 0.467200
Si Si5 0.159080 0.250000 0.172755
Si Si6 0.000000 0.141122 0.908180
Si Si7 0.319881 0.604166 0.984434
O O1 0.862099 0.503160 0.263942
O O2 0.900056 0.646136 0.346809
O O3 0.942895 0.603591 0.155075
O O4 0.835679 0.636937 0.141163
O O5 0.057086 0.887370 0.761142
O O6 0.101287 0.906064 0.563599
O O7 0.160861 0.828561 0.730604
O O8 0.500000 0.250000 0.828582
O O9 0.500000 0.384236 0.959966
O O10 0.065785 0.750000 0.508265
O O11 0.000000 0.882573 0.452756
O O12 0.152699 0.328560 0.074646
O O13 0.000000 0.250000 0.899393
O O14 0.338320 0.500000 0.000000
O O15 0.250000 0.608536 0.000000
#
# Coordination Sequence:
#
# PCOD9504758 Si02
#       7
#    16  16   8  16   8   8  16
#     4  12  25  41  65  98 136 174 230 282 337 407
#     4  12  23  39  63  94 135 183 228 271 327 408
#     4  11  21  32  53  84 130 180 214 252 316 397
#     4  11  23  41  62  92 138 190 230 270 330 405
#     4  12  23  43  68 101 132 172 229 280 347 408
#     4  11  25  38  59  97 143 179 217 280 342 410
#     4  11  26  48  74 102 133 175 228 291 354 409
#
# _framework density 21.775604999999999
#
# number of rings (size 3 to 8) (size 9 to 14) (size 15 to 20)
#    0.000    0.545    5.455    3.000    5.091    1.455 
#    0.000    0.000    0.000    2.182    0.000    0.000 
#    0.000    0.000    0.000    0.000    0.000    0.000 
#
# Total GULP energy -245073.180041 kJ/mol
# GULP energy per Si atom -5569.845001 kJ/mol
# Density = 2.172604 g / cm^3
# Si number density = 21.775605 Si / 1000 Ang^3
#
#
#
# Elastic Constant Matrix: (Units=GPa)
#
#
# Indices 1 2 3 4 5 6 
#
# 1 36.1235 2.0637 29.2542 0.0000 0.0000 0.0000
# 2 2.0637 99.8630 11.8994 0.0000 0.0000 0.0000
# 3 29.2542 11.8994 178.7782 0.0000 0.0000 0.0000
# 4 0.0000 0.0000 0.0000 39.0109 0.0000 0.0000
# 5 0.0000 0.0000 0.0000 0.0000 -1.5726 0.0000
# 6 0.0000 0.0000 0.0000 0.0000 0.0000 82.4412
#
#
#
# Elastic Compliance Matrix: (Units=1/GPa)
#
#
# Indices 1 2 3 4 5 6 
#
# 1 0.031912 -0.000038 -0.005219 0.000000 0.000000 0.000000
# 2 -0.000038 0.010094 -0.000666 0.000000 0.000000 0.000000
# 3 -0.005219 -0.000666 0.006492 0.000000 0.000000 0.000000
# 4 0.000000 0.000000 0.000000 0.025634 0.000000 0.000000
# 5 0.000000 0.000000 0.000000 0.000000 -0.635908 0.000000
# 6 0.000000 0.000000 0.000000 0.000000 0.000000 0.012130
#
#
# Mechanical properties :
#
#
# Convention : Reuss Voigt Hill
#
# Bulk Modulus (GPa) = 27.28344 44.57771 35.93057
# Shear Modulus (GPa) = -9.51323 42.07907 16.28292
#
# Velocity S-wave (km/s) = -2.09242 4.40067 2.73749
# Velocity P-wave (km/s) = 2.59208 6.80713 5.15053
#
# Compressibility (1/GPa) = 0.03665228
#
# Stress axis : x y z
#
# Youngs Moduli (GPa) = 31.33639 99.07057 154.03817
#
# Poissons Ratio (x) = 0.00372 0.80398
# Poissons Ratio (y) = 0.00118 0.10254
# Poissons Ratio (z) = 0.16356 0.06595
#
# Static dielectric constant tensor:
#      x y z
#    x 1.811760 0.000000 0.000000 
#    y 0.000000 1.817960 0.000000 
#    z 0.000000 0.000000 1.776170 
# 
# From -- ./inp_files/21779.got.cif
#   From: 2010.05.17/outbox.cif.g08.bks.cpg/sg67_11_cif.got.tgz:21779.got - 2010.06.03 18:28:57.
