data_PCOD9504839
_publ_section_title
;
Structure prediction by ZEFSAII (Michael W. Deem and Ramdas Pophale) SiO2 
 PCOD9504839
Probable space group: C M M A
;
_chemical_formula_sum "Si O2"
_cell_formula_units_Z 64
_cell_length_a 14.772078
_cell_length_b 29.271263
_cell_length_c 7.187802
_cell_angle_alpha 90.000000
_cell_angle_beta 90.000000
_cell_angle_gamma 90.000000
_cell_volume 3107.986754
_symmetry_space_group_name_H-M "C M M A"
_symmetry_group_IT_number 67
_symmetry_cell_setting 'orthorhombic'
loop_
_space_group_symop_operation_xyz
x,y,z
-x,1/2-y,z
x,-y,-z
-x,1/2+y,-z
-x,-y,-z
x,1/2+y,-z
-x,y,z
x,1/2-y,z
1/2+x,1/2+y,z
1/2-x,-y,z
1/2+x,1/2-y,-z
1/2-x,y,-z
1/2-x,1/2-y,-z
1/2+x,y,-z
1/2-x,1/2+y,z
1/2+x,-y,z
loop_
_atom_site_type_symbol
_atom_site_label
_atom_site_fract_x
_atom_site_fract_y
_atom_site_fract_z
Si Si1 0.110410 0.925847 0.983183
Si Si2 0.610202 0.676295 0.089312
Si Si3 0.110366 0.492345 0.708861
Si Si4 0.897516 0.750000 0.191523
Si Si5 0.653866 0.750000 0.399812
O O1 0.142586 0.875634 0.928457
O O2 0.000000 0.924601 0.984379
O O3 0.136693 0.964410 0.834572
O O4 0.138445 0.946213 0.183662
O O5 0.500000 0.673724 0.095601
O O6 0.638607 0.706206 0.267971
O O7 0.642038 0.705011 0.907219
O O8 0.141888 0.500000 0.500000
O O9 0.000000 0.491568 0.705432
O O10 0.903503 0.750000 0.411814
O O11 0.000000 0.750000 0.121013
O O12 0.750000 0.750000 0.500000
#
# Coordination Sequence:
#
# PCOD9504839 Si02
#       5
#    16  16  16   8   8
#     4   8  14  24  38  60  92 125 154 188 234 286
#     4   9  18  32  49  70  97 129 167 208 250 303
#     4   8  13  21  35  59  93 127 152 181 228 284
#     4   9  18  33  52  71  92 121 158 200 248 297
#     4  11  22  34  49  69  97 129 165 213 258 296
#
# _framework density 20.592108
#
# number of rings (size 3 to 8) (size 9 to 14) (size 15 to 20)
#    0.000    3.250    0.000    3.375    0.000    4.000 
#    0.000    7.500    0.000    0.000    0.000    0.000 
#    0.000   41.000    0.000    1.000    0.000    0.000 
#
# Total GULP energy -178298.180429 kJ/mol
# GULP energy per Si atom -5571.818138 kJ/mol
# Density = 2.054524 g / cm^3
# Si number density = 20.592108 Si / 1000 Ang^3
#
#
#
# Elastic Constant Matrix: (Units=GPa)
#
#
# Indices 1 2 3 4 5 6 
#
# 1 55.3041 6.5506 -0.5842 0.0000 0.0000 0.0000
# 2 6.5506 202.1733 99.3028 0.0000 0.0000 0.0000
# 3 -0.5842 99.3028 185.0769 0.0000 0.0000 0.0000
# 4 0.0000 0.0000 0.0000 13.4903 0.0000 0.0000
# 5 0.0000 0.0000 0.0000 0.0000 11.6043 0.0000
# 6 0.0000 0.0000 0.0000 0.0000 0.0000 -11.2114
#
#
#
# Elastic Compliance Matrix: (Units=1/GPa)
#
#
# Indices 1 2 3 4 5 6 
#
# 1 0.018187 -0.000838 0.000507 0.000000 0.000000 0.000000
# 2 -0.000838 0.006755 -0.003627 0.000000 0.000000 0.000000
# 3 0.000507 -0.003627 0.007351 0.000000 0.000000 0.000000
# 4 0.000000 0.000000 0.000000 0.074127 0.000000 0.000000
# 5 0.000000 0.000000 0.000000 0.000000 0.086175 0.000000
# 6 0.000000 0.000000 0.000000 0.000000 0.000000 -0.089195
#
#
# Mechanical properties :
#
#
# Convention : Reuss Voigt Hill
#
# Bulk Modulus (GPa) = 41.02403 72.56586 56.79494
# Shear Modulus (GPa) = 41.86156 25.26231 33.56193
#
# Velocity S-wave (km/s) = 4.51365 3.50636 4.04151
# Velocity P-wave (km/s) = 6.86510 7.19089 7.02988
#
# Compressibility (1/GPa) = 0.02437596
#
# Stress axis : x y z
#
# Youngs Moduli (GPa) = 54.98577 148.04053 136.03939
#
# Poissons Ratio (x) = 0.12412 -0.06901
# Poissons Ratio (y) = 0.04610 0.49341
# Poissons Ratio (z) = -0.02789 0.53694
#
# Static dielectric constant tensor:
#      x y z
#    x 1.650020 0.000000 0.000000 
#    y 0.000000 1.722750 0.000000 
#    z 0.000000 0.000000 1.720550 
# 
# From -- ./inp_files/2256.got.cif
#   From: 2010.05.17/outbox.cif.g08.bks.cpg/sg67_2_cif.got.tgz:2256.got - 2010.06.03 18:28:57.
