data_PCOD9504100
_publ_section_title
;
Structure prediction by ZEFSAII (Michael W. Deem and Ramdas Pophale) SiO2 
 PCOD9504100
Probable space group: C M M A
;
_chemical_formula_sum "Si O2"
_cell_formula_units_Z 56
_cell_length_a 22.422107
_cell_length_b 21.528831
_cell_length_c 5.204729
_cell_angle_alpha 90.000000
_cell_angle_beta 90.000000
_cell_angle_gamma 90.000000
_cell_volume 2512.435903
_symmetry_space_group_name_H-M "C M M A"
_symmetry_group_IT_number 67
_symmetry_cell_setting 'orthorhombic'
loop_
_space_group_symop_operation_xyz
x,y,z
-x,1/2-y,z
x,-y,-z
-x,1/2+y,-z
-x,-y,-z
x,1/2+y,-z
-x,y,z
x,1/2-y,z
1/2+x,1/2+y,z
1/2-x,-y,z
1/2+x,1/2-y,-z
1/2-x,y,-z
1/2-x,1/2-y,-z
1/2+x,y,-z
1/2-x,1/2+y,z
1/2+x,-y,z
loop_
_atom_site_type_symbol
_atom_site_label
_atom_site_fract_x
_atom_site_fract_y
_atom_site_fract_z
Si Si1 0.375345 0.370060 0.637076
Si Si2 0.000000 0.822911 0.402336
Si Si3 0.896095 0.500000 0.500000
Si Si4 0.688063 0.323838 0.128931
Si Si5 0.000000 0.058128 0.816644
O O1 0.440523 0.343255 0.557250
O O2 0.367026 0.445245 0.665411
O O3 0.331307 0.351570 0.402476
O O4 0.359404 0.339777 0.908565
O O5 0.000000 0.750000 0.348730
O O6 0.000000 0.868166 0.149837
O O7 0.939681 0.457103 0.666165
O O8 0.692343 0.250000 0.166416
O O9 0.750000 0.345855 0.000000
O O10 0.000000 0.000000 0.000000
#
# Coordination Sequence:
#
# PCOD9504100 Si02
#       5
#    16   8   8  16   8
#     4  11  24  41  66  96 131 168 211 268 329 382
#     4  10  21  38  62  99 134 163 209 272 328 385
#     4   9  22  38  57  92 126 170 213 257 314 396
#     4  11  24  44  67  91 125 172 221 266 319 383
#     4   9  19  36  61  84 127 182 212 244 315 401
#
# _framework density 22.289124000000001
#
# number of rings (size 3 to 8) (size 9 to 14) (size 15 to 20)
#    0.000    1.714    0.000    4.286    8.000    3.429 
#    0.000    7.143    0.000    0.000    0.000    0.000 
#    0.000    0.000    0.000    0.000    0.000    0.000 
#
# Total GULP energy -156021.193718 kJ/mol
# GULP energy per Si atom -5572.185490 kJ/mol
# Density = 2.223839 g / cm^3
# Si number density = 22.289124 Si / 1000 Ang^3
#
#
#
# Elastic Constant Matrix: (Units=GPa)
#
#
# Indices 1 2 3 4 5 6 
#
# 1 59.4354 16.5272 -4.6476 0.0000 0.0000 0.0000
# 2 16.5272 164.6434 14.1572 0.0000 0.0000 0.0000
# 3 -4.6476 14.1572 64.2801 0.0000 0.0000 0.0000
# 4 0.0000 0.0000 0.0000 31.9292 0.0000 0.0000
# 5 0.0000 0.0000 0.0000 0.0000 25.9171 0.0000
# 6 0.0000 0.0000 0.0000 0.0000 0.0000 22.2097
#
#
#
# Elastic Compliance Matrix: (Units=1/GPa)
#
#
# Indices 1 2 3 4 5 6 
#
# 1 0.017485 -0.001900 0.001683 0.000000 0.000000 0.000000
# 2 -0.001900 0.006397 -0.001546 0.000000 0.000000 0.000000
# 3 0.001683 -0.001546 0.016019 0.000000 0.000000 0.000000
# 4 0.000000 0.000000 0.000000 0.031319 0.000000 0.000000
# 5 0.000000 0.000000 0.000000 0.000000 0.038585 0.000000
# 6 0.000000 0.000000 0.000000 0.000000 0.000000 0.045025
#
#
# Mechanical properties :
#
#
# Convention : Reuss Voigt Hill
#
# Bulk Modulus (GPa) = 27.49195 37.82582 32.65889
# Shear Modulus (GPa) = 29.32853 33.49935 31.41394
#
# Velocity S-wave (km/s) = 3.63136 3.88099 3.75825
# Velocity P-wave (km/s) = 5.47206 6.09017 5.78937
#
# Compressibility (1/GPa) = 0.03637428
#
# Stress axis : x y z
#
# Youngs Moduli (GPa) = 57.19239 156.31332 62.42530
#
# Poissons Ratio (x) = 0.29697 -0.10504
# Poissons Ratio (y) = 0.10866 0.09653
# Poissons Ratio (z) = -0.09623 0.24171
#
# Static dielectric constant tensor:
#      x y z
#    x 1.958790 0.000000 0.000000 
#    y 0.000000 0.982240 0.000000 
#    z 0.000000 0.000000 1.804330 
# 
# From -- ./inp_files/2702.got.cif
#   From: 2010.05.17/outbox.cif.g08.bks.cpg/sg67_2_cif.got.tgz:2702.got - 2010.06.03 18:28:57.
