data_PCOD9504816
_publ_section_title
;
Structure prediction by ZEFSAII (Michael W. Deem and Ramdas Pophale) SiO2 
 PCOD9504816
Probable space group: C M M A
;
_chemical_formula_sum "Si O2"
_cell_formula_units_Z 68
_cell_length_a 21.147066
_cell_length_b 7.786979
_cell_length_c 20.116219
_cell_angle_alpha 90.000000
_cell_angle_beta 90.000000
_cell_angle_gamma 90.000000
_cell_volume 3312.573164
_symmetry_space_group_name_H-M "C M M A"
_symmetry_group_IT_number 67
_symmetry_cell_setting 'orthorhombic'
loop_
_space_group_symop_operation_xyz
x,y,z
-x,1/2-y,z
x,-y,-z
-x,1/2+y,-z
-x,-y,-z
x,1/2+y,-z
-x,y,z
x,1/2-y,z
1/2+x,1/2+y,z
1/2-x,-y,z
1/2+x,1/2-y,-z
1/2-x,y,-z
1/2-x,1/2-y,-z
1/2+x,y,-z
1/2-x,1/2+y,z
1/2+x,-y,z
loop_
_atom_site_type_symbol
_atom_site_label
_atom_site_fract_x
_atom_site_fract_y
_atom_site_fract_z
Si Si1 0.500000 0.250000 0.218558
Si Si2 0.102388 0.941412 0.797752
Si Si3 0.429594 0.956613 0.577131
Si Si4 0.320856 0.544472 0.676548
Si Si5 0.676827 0.547199 0.923454
O O1 0.554770 0.402904 0.217202
O O2 0.075862 0.750000 0.788508
O O3 0.160860 0.964728 0.747106
O O4 0.129847 0.958839 0.871967
O O5 0.500000 0.019935 0.596238
O O6 0.431136 0.750000 0.583059
O O7 0.373567 0.018647 0.624069
O O8 0.419268 0.000000 0.500000
O O9 0.325649 0.750000 0.681397
O O10 0.250000 0.500000 0.656021
O O11 0.669732 0.750000 0.915048
O O12 0.750000 0.500000 0.910254
O O13 0.663692 0.500000 0.000000
#
# Coordination Sequence:
#
# PCOD9504816 Si02
#       5
#     4  16  16  16  16
#     4  12  26  48  66  96 132 174 220 270 326 392
#     4  12  25  44  69  97 132 172 220 268 332 391
#     4   9  20  38  62  88 124 168 216 270 325 388
#     4  11  23  40  64  95 132 170 216 276 334 389
#     4  11  21  39  66  99 133 171 221 276 329 391
#
# _framework density 20.527847999999999
#
# number of rings (size 3 to 8) (size 9 to 14) (size 15 to 20)
#    0.000    1.176    2.353    4.588    1.647    2.353 
#    0.000    2.941    0.000    0.000    0.000    0.000 
#    0.000    0.000    0.000    0.000    0.000    0.000 
#
# Total GULP energy -189551.795213 kJ/mol
# GULP energy per Si atom -5575.052800 kJ/mol
# Density = 2.048113 g / cm^3
# Si number density = 20.527848 Si / 1000 Ang^3
#
#
#
# Elastic Constant Matrix: (Units=GPa)
#
#
# Indices 1 2 3 4 5 6 
#
# 1 125.7258 29.2933 55.3577 0.0000 0.0000 0.0000
# 2 29.2933 144.0959 10.3413 0.0000 0.0000 0.0000
# 3 55.3577 10.3413 65.9720 0.0000 0.0000 0.0000
# 4 0.0000 0.0000 0.0000 19.1953 0.0000 0.0000
# 5 0.0000 0.0000 0.0000 0.0000 -9.8684 0.0000
# 6 0.0000 0.0000 0.0000 0.0000 0.0000 32.1571
#
#
#
# Elastic Compliance Matrix: (Units=1/GPa)
#
#
# Indices 1 2 3 4 5 6 
#
# 1 0.013108 -0.001897 -0.010701 0.000000 0.000000 0.000000
# 2 -0.001897 0.007293 0.000448 0.000000 0.000000 0.000000
# 3 -0.010701 0.000448 0.024067 0.000000 0.000000 0.000000
# 4 0.000000 0.000000 0.000000 0.052096 0.000000 0.000000
# 5 0.000000 0.000000 0.000000 0.000000 -0.101333 0.000000
# 6 0.000000 0.000000 0.000000 0.000000 0.000000 0.031097
#
#
# Mechanical properties :
#
#
# Convention : Reuss Voigt Hill
#
# Bulk Modulus (GPa) = 49.58210 58.41980 54.00095
# Shear Modulus (GPa) = 87.18287 24.35021 55.76654
#
# Velocity S-wave (km/s) = 6.52401 3.44787 5.21778
# Velocity P-wave (km/s) = 8.99757 6.66115 7.91604
#
# Compressibility (1/GPa) = 0.02016857
#
# Stress axis : x y z
#
# Youngs Moduli (GPa) = 76.29169 137.11362 41.55015
#
# Poissons Ratio (x) = 0.26005 0.44464
# Poissons Ratio (y) = 0.14470 -0.01862
# Poissons Ratio (z) = 0.81643 -0.06146
#
# Static dielectric constant tensor:
#      x y z
#    x 1.726140 0.000000 0.000000 
#    y 0.000000 1.738770 0.000000 
#    z 0.000000 0.000000 1.733680 
# 
# From -- ./inp_files/31808.got.cif
#   From: 2010.05.17/outbox.cif.g08.bks.cpg/sg67_16_cif.got.tgz:31808.got - 2010.06.03 18:28:57.
