data_PCOD9504838
_publ_section_title
;
Structure prediction by ZEFSAII (Michael W. Deem and Ramdas Pophale) SiO2 
 PCOD9504838
Probable space group: C M M A
;
_chemical_formula_sum "Si O2"
_cell_formula_units_Z 80
_cell_length_a 35.327200
_cell_length_b 26.618343
_cell_length_c 5.198458
_cell_angle_alpha 90.000000
_cell_angle_beta 90.000000
_cell_angle_gamma 90.000000
_cell_volume 4888.377917
_symmetry_space_group_name_H-M "C M M A"
_symmetry_group_IT_number 67
_symmetry_cell_setting 'orthorhombic'
loop_
_space_group_symop_operation_xyz
x,y,z
-x,1/2-y,z
x,-y,-z
-x,1/2+y,-z
-x,-y,-z
x,1/2+y,-z
-x,y,z
x,1/2-y,z
1/2+x,1/2+y,z
1/2-x,-y,z
1/2+x,1/2-y,-z
1/2-x,y,-z
1/2-x,1/2-y,-z
1/2+x,y,-z
1/2-x,1/2+y,z
1/2+x,-y,z
loop_
_atom_site_type_symbol
_atom_site_label
_atom_site_fract_x
_atom_site_fract_y
_atom_site_fract_z
Si Si1 0.920145 0.190501 0.872910
Si Si2 0.663112 0.311041 0.939786
Si Si3 0.544762 0.855510 0.360059
Si Si4 0.292699 0.188781 0.440038
Si Si5 0.453976 0.030479 0.751715
O O1 0.918828 0.250000 0.817769
O O2 0.878701 0.173738 0.971744
O O3 0.933557 0.162913 0.614382
O O4 0.947403 0.179459 0.114022
O O5 0.662367 0.250000 0.931840
O O6 0.692623 0.326295 0.160440
O O7 0.678059 0.327610 0.661946
O O8 0.500000 0.856435 0.419684
O O9 0.557042 0.911503 0.274864
O O10 0.292438 0.250000 0.442841
O O11 0.250000 0.172493 0.500000
O O12 0.500000 0.030678 0.762568
O O13 0.442615 0.000000 0.500000
O O14 0.440447 0.000000 0.000000
#
# Coordination Sequence:
#
# PCOD9504838 Si02
#       5
#    16  16  16  16  16
#     4  11  22  34  46  62  91 129 163 194 226 264
#     4   9  17  28  40  56  81 114 149 182 220 263
#     4  11  22  34  49  68  87 115 160 202 236 276
#     4   9  15  24  40  60  79 102 141 190 226 255
#     4   9  17  31  50  69  87 105 133 185 247 296
#
# _framework density 16.365347
#
# number of rings (size 3 to 8) (size 9 to 14) (size 15 to 20)
#    0.000    2.200    0.000    4.200    0.000   11.200 
#    0.000    0.000    0.000    0.000    0.000    0.000 
#    0.000    0.000    0.000    0.000    0.000  210.000 
#
# Total GULP energy -223034.197062 kJ/mol
# GULP energy per Si atom -5575.854927 kJ/mol
# Density = 1.632810 g / cm^3
# Si number density = 16.365347 Si / 1000 Ang^3
#
#
#
# Elastic Constant Matrix: (Units=GPa)
#
#
# Indices 1 2 3 4 5 6 
#
# 1 35.1835 11.1544 -5.3323 0.0000 0.0000 0.0000
# 2 11.1544 41.2061 12.8581 0.0000 0.0000 0.0000
# 3 -5.3323 12.8581 83.7915 0.0000 0.0000 0.0000
# 4 0.0000 0.0000 0.0000 21.9275 0.0000 0.0000
# 5 0.0000 0.0000 0.0000 0.0000 25.5591 0.0000
# 6 0.0000 0.0000 0.0000 0.0000 0.0000 -1.0465
#
#
#
# Elastic Compliance Matrix: (Units=1/GPa)
#
#
# Indices 1 2 3 4 5 6 
#
# 1 0.032061 -0.009784 0.003542 0.000000 0.000000 0.000000
# 2 -0.009784 0.028475 -0.004992 0.000000 0.000000 0.000000
# 3 0.003542 -0.004992 0.012926 0.000000 0.000000 0.000000
# 4 0.000000 0.000000 0.000000 0.045605 0.000000 0.000000
# 5 0.000000 0.000000 0.000000 0.000000 0.039125 0.000000
# 6 0.000000 0.000000 0.000000 0.000000 0.000000 -0.955546
#
#
# Mechanical properties :
#
#
# Convention : Reuss Voigt Hill
#
# Bulk Modulus (GPa) = 19.61075 21.94907 20.77991
# Shear Modulus (GPa) = -6.59728 18.72140 6.06206
#
# Velocity S-wave (km/s) = -2.00998 3.38593 1.92672
# Velocity P-wave (km/s) = 2.57341 5.35976 4.20413
#
# Compressibility (1/GPa) = 0.05099245
#
# Stress axis : x y z
#
# Youngs Moduli (GPa) = 31.19049 35.11911 77.36451
#
# Poissons Ratio (x) = 0.34361 -0.27400
# Poissons Ratio (y) = 0.30517 0.38622
# Poissons Ratio (z) = -0.11047 0.17532
#
# Static dielectric constant tensor:
#      x y z
#    x 1.564050 0.000000 0.000000 
#    y 0.000000 1.535090 0.000000 
#    z 0.000000 0.000000 1.549030 
# 
# From -- ./inp_files/4821.got.cif
#   From: 2010.05.17/outbox.cif.g08.bks.cpg/sg67_3_cif.got.tgz:4821.got - 2010.06.03 18:28:57.
