data_PCOD9504571
_publ_section_title
;
Structure prediction by ZEFSAII (Michael W. Deem and Ramdas Pophale) SiO2 
 PCOD9504571
Probable space group: C M M A
;
_chemical_formula_sum "Si O2"
_cell_formula_units_Z 116
_cell_length_a 26.469727
_cell_length_b 18.882879
_cell_length_c 11.901997
_cell_angle_alpha 90.000000
_cell_angle_beta 90.000000
_cell_angle_gamma 90.000000
_cell_volume 5948.911510
_symmetry_space_group_name_H-M "C M M A"
_symmetry_group_IT_number 67
_symmetry_cell_setting 'orthorhombic'
loop_
_space_group_symop_operation_xyz
x,y,z
-x,1/2-y,z
x,-y,-z
-x,1/2+y,-z
-x,-y,-z
x,1/2+y,-z
-x,y,z
x,1/2-y,z
1/2+x,1/2+y,z
1/2-x,-y,z
1/2+x,1/2-y,-z
1/2-x,y,-z
1/2-x,1/2-y,-z
1/2+x,y,-z
1/2-x,1/2+y,z
1/2+x,-y,z
loop_
_atom_site_type_symbol
_atom_site_label
_atom_site_fract_x
_atom_site_fract_y
_atom_site_fract_z
Si Si1 0.939933 0.829519 0.494468
Si Si2 0.614526 0.101832 0.296119
Si Si3 0.923904 0.370799 0.160331
Si Si4 0.000000 0.250000 0.225957
Si Si5 0.558616 0.068656 0.066133
Si Si6 0.558042 0.533107 0.351275
Si Si7 0.297870 0.664043 0.840751
Si Si8 0.184626 0.835032 0.899715
O O1 0.930271 0.750000 0.540258
O O2 0.908672 0.840614 0.380589
O O3 0.930335 0.896439 0.576383
O O4 0.000000 0.832374 0.471028
O O5 0.584821 0.094582 0.178628
O O6 0.670281 0.123470 0.254324
O O7 0.599686 0.028294 0.359241
O O8 0.956158 0.310889 0.219102
O O9 0.940136 0.442022 0.222507
O O10 0.863807 0.363638 0.164736
O O11 0.938027 0.371188 0.029562
O O12 0.500000 0.055036 0.089151
O O13 0.580959 0.000000 0.000000
O O14 0.500000 0.509420 0.375912
O O15 0.303412 0.750000 0.828626
O O16 0.238312 0.646301 0.844645
O O17 0.316036 0.644582 0.967891
O O18 0.181715 0.750000 0.899448
#
# Coordination Sequence:
#
# PCOD9504571 Si02
#       8
#    16  16  16   4  16  16  16  16
#     4  10  23  40  59  85 118 160 211 265 313 366
#     4  12  21  36  59  85 119 160 206 253 306 364
#     4  12  21  35  55  87 118 156 202 249 302 361
#     4  12  24  32  54  90 120 158 204 256 294 364
#     4  11  21  34  51  79 123 162 192 237 305 384
#     4  11  23  38  59  82 120 164 205 247 306 382
#     4   9  19  35  56  81 115 160 202 249 296 363
#     4   9  18  34  55  81 117 160 203 240 300 364
#
# _framework density 19.499365000000001
#
# number of rings (size 3 to 8) (size 9 to 14) (size 15 to 20)
#    0.000    1.379    4.828    2.897    0.966    1.103 
#    1.241    0.690    0.000    3.310    0.000    4.828 
#    0.000    0.000    0.000    0.000    0.000    0.000 
#
# Total GULP energy -322960.896812 kJ/mol
# GULP energy per Si atom -5568.291324 kJ/mol
# Density = 1.945498 g / cm^3
# Si number density = 19.499365 Si / 1000 Ang^3
#
#
#
# Elastic Constant Matrix: (Units=GPa)
#
#
# Indices 1 2 3 4 5 6 
#
# 1 137.4176 47.1570 38.6018 0.0000 0.0000 0.0000
# 2 47.1570 81.6592 28.6057 0.0000 0.0000 0.0000
# 3 38.6018 28.6057 96.9604 0.0000 0.0000 0.0000
# 4 0.0000 0.0000 0.0000 24.9229 0.0000 0.0000
# 5 0.0000 0.0000 0.0000 0.0000 21.3696 0.0000
# 6 0.0000 0.0000 0.0000 0.0000 0.0000 23.7297
#
#
#
# Elastic Compliance Matrix: (Units=1/GPa)
#
#
# Indices 1 2 3 4 5 6 
#
# 1 0.009562 -0.004671 -0.002429 0.000000 0.000000 0.000000
# 2 -0.004671 0.015939 -0.002843 0.000000 0.000000 0.000000
# 3 -0.002429 -0.002843 0.012119 0.000000 0.000000 0.000000
# 4 0.000000 0.000000 0.000000 0.040124 0.000000 0.000000
# 5 0.000000 0.000000 0.000000 0.000000 0.046795 0.000000
# 6 0.000000 0.000000 0.000000 0.000000 0.000000 0.042141
#
#
# Mechanical properties :
#
#
# Convention : Reuss Voigt Hill
#
# Bulk Modulus (GPa) = 56.38520 60.52958 58.45739
# Shear Modulus (GPa) = 25.97686 27.44929 26.71308
#
# Velocity S-wave (km/s) = 3.65388 3.75601 3.70529
# Velocity P-wave (km/s) = 6.83961 7.06536 6.95340
#
# Compressibility (1/GPa) = 0.01773515
#
# Stress axis : x y z
#
# Youngs Moduli (GPa) = 104.57624 62.73725 82.51410
#
# Poissons Ratio (x) = 0.29307 0.20041
# Poissons Ratio (y) = 0.48851 0.23457
# Poissons Ratio (z) = 0.25400 0.17835
#
# Static dielectric constant tensor:
#      x y z
#    x 1.708880 0.000000 0.000000 
#    y 0.000000 1.767670 0.000000 
#    z 0.000000 0.000000 1.738460 
# 
# From -- ./inp_files/23054.got.cif
#   From: 2010.05.17/outbox.cif.g08.bks.cpg/sg67_12_cif.got.tgz:23054.got - 2010.06.03 18:28:57.
