data_PCOD9504664
_publ_section_title
;
Structure prediction by ZEFSAII (Michael W. Deem and Ramdas Pophale) SiO2 
 PCOD9504664
Probable space group: C M M A
;
_chemical_formula_sum "Si O2"
_cell_formula_units_Z 60
_cell_length_a 8.913193
_cell_length_b 19.403782
_cell_length_c 17.192415
_cell_angle_alpha 90.000000
_cell_angle_beta 90.000000
_cell_angle_gamma 90.000000
_cell_volume 2973.422224
_symmetry_space_group_name_H-M "C M M A"
_symmetry_group_IT_number 67
_symmetry_cell_setting 'orthorhombic'
loop_
_space_group_symop_operation_xyz
x,y,z
-x,1/2-y,z
x,-y,-z
-x,1/2+y,-z
-x,-y,-z
x,1/2+y,-z
-x,y,z
x,1/2-y,z
1/2+x,1/2+y,z
1/2-x,-y,z
1/2+x,1/2-y,-z
1/2-x,y,-z
1/2-x,1/2-y,-z
1/2+x,y,-z
1/2-x,1/2+y,z
1/2+x,-y,z
loop_
_atom_site_type_symbol
_atom_site_label
_atom_site_fract_x
_atom_site_fract_y
_atom_site_fract_z
Si Si1 0.680527 0.572832 0.414226
Si Si2 0.000000 0.250000 0.956190
Si Si3 0.250000 0.639562 0.000000
Si Si4 0.178940 0.831690 0.285697
Si Si5 0.826833 0.926642 0.840732
O O1 0.500000 0.568733 0.417714
O O2 0.750000 0.500000 0.385718
O O3 0.750000 0.583417 0.500000
O O4 0.736496 0.632784 0.357634
O O5 0.871366 0.189653 0.961502
O O6 0.317471 0.593634 0.068900
O O7 0.206148 0.750000 0.282123
O O8 0.241355 0.869192 0.209412
O O9 0.000000 0.842589 0.292495
O O10 0.000000 0.928949 0.815752
O O11 0.750000 0.000000 0.827672
#
# Coordination Sequence:
#
# PCOD9504664 Si02
#       5
#    16   4   8  16  16
#     4  11  22  41  69  98 133 171 214 262 315 380
#     4  10  24  42  66 102 128 166 208 274 320 390
#     4  11  25  42  70  94 132 170 216 264 326 386
#     4  11  26  44  67  95 129 170 214 265 323 383
#     4  12  27  44  66  94 129 169 217 269 322 382
#
# _framework density 20.178768999999999
#
# number of rings (size 3 to 8) (size 9 to 14) (size 15 to 20)
#    0.000    0.800    1.333    6.000    7.467    3.733 
#    0.000    0.000    0.000    0.000    0.000    0.000 
#    0.000    0.000    0.000    0.000    0.000    0.000 
#
# Total GULP energy -167327.499186 kJ/mol
# GULP energy per Si atom -5577.583306 kJ/mol
# Density = 2.013284 g / cm^3
# Si number density = 20.178769 Si / 1000 Ang^3
#
#
#
# Elastic Constant Matrix: (Units=GPa)
#
#
# Indices 1 2 3 4 5 6 
#
# 1 183.6504 89.0637 39.1760 0.0000 0.0000 0.0000
# 2 89.0637 144.6460 60.8958 0.0000 0.0000 0.0000
# 3 39.1760 60.8958 86.4281 0.0000 0.0000 0.0000
# 4 0.0000 0.0000 0.0000 39.2500 0.0000 0.0000
# 5 0.0000 0.0000 0.0000 0.0000 14.0471 0.0000
# 6 0.0000 0.0000 0.0000 0.0000 0.0000 42.2603
#
#
#
# Elastic Compliance Matrix: (Units=1/GPa)
#
#
# Indices 1 2 3 4 5 6 
#
# 1 0.007766 -0.004692 -0.000215 0.000000 0.000000 0.000000
# 2 -0.004692 0.012663 -0.006796 0.000000 0.000000 0.000000
# 3 -0.000215 -0.006796 0.016456 0.000000 0.000000 0.000000
# 4 0.000000 0.000000 0.000000 0.025478 0.000000 0.000000
# 5 0.000000 0.000000 0.000000 0.000000 0.071189 0.000000
# 6 0.000000 0.000000 0.000000 0.000000 0.000000 0.023663
#
#
# Mechanical properties :
#
#
# Convention : Reuss Voigt Hill
#
# Bulk Modulus (GPa) = 74.17680 88.11061 81.14370
# Shear Modulus (GPa) = 27.01063 34.15073 30.58068
#
# Velocity S-wave (km/s) = 3.66261 4.11835 3.89715
# Velocity P-wave (km/s) = 7.39770 8.14704 7.78139
#
# Compressibility (1/GPa) = 0.01348131
#
# Stress axis : x y z
#
# Youngs Moduli (GPa) = 128.76421 78.96946 60.76916
#
# Poissons Ratio (x) = 0.37049 0.01304
# Poissons Ratio (y) = 0.60410 0.41297
# Poissons Ratio (z) = 0.02764 0.53665
#
# Static dielectric constant tensor:
#      x y z
#    x 1.681410 0.000000 0.000000 
#    y 0.000000 1.669140 0.000000 
#    z 0.000000 0.000000 1.727600 
# 
# From -- ./inp_files/31642.got.cif
#   From: 2010.05.17/outbox.cif.g08.bks.cpg/sg67_16_cif.got.tgz:31642.got - 2010.06.03 18:28:57.
