data_PCOD9504351
_publ_section_title
;
Structure prediction by ZEFSAII (Michael W. Deem and Ramdas Pophale) SiO2 
 PCOD9504351
Probable space group: C M M A
;
_chemical_formula_sum "Si O2"
_cell_formula_units_Z 88
_cell_length_a 20.100587
_cell_length_b 7.797484
_cell_length_c 25.552079
_cell_angle_alpha 90.000000
_cell_angle_beta 90.000000
_cell_angle_gamma 90.000000
_cell_volume 4004.879691
_symmetry_space_group_name_H-M "C M M A"
_symmetry_group_IT_number 67
_symmetry_cell_setting 'orthorhombic'
loop_
_space_group_symop_operation_xyz
x,y,z
-x,1/2-y,z
x,-y,-z
-x,1/2+y,-z
-x,-y,-z
x,1/2+y,-z
-x,y,z
x,1/2-y,z
1/2+x,1/2+y,z
1/2-x,-y,z
1/2+x,1/2-y,-z
1/2-x,y,-z
1/2-x,1/2-y,-z
1/2+x,y,-z
1/2-x,1/2+y,z
1/2+x,-y,z
loop_
_atom_site_type_symbol
_atom_site_label
_atom_site_fract_x
_atom_site_fract_y
_atom_site_fract_z
Si Si1 0.075844 0.455488 0.246793
Si Si2 0.925077 0.956390 0.060621
Si Si3 0.680320 0.043464 0.670639
Si Si4 0.646084 0.043083 0.560496
Si Si5 0.000000 0.045789 0.439325
Si Si6 0.171968 0.454549 0.849554
O O1 0.070492 0.250000 0.252196
O O2 0.116440 0.520248 0.297507
O O3 0.124968 0.489230 0.198386
O O4 0.000000 0.521956 0.241076
O O5 0.926576 0.750000 0.064837
O O6 0.866617 0.020559 0.098509
O O7 0.000000 0.018748 0.075181
O O8 0.913793 0.000000 0.000000
O O9 0.675445 0.250000 0.668429
O O10 0.684201 0.975630 0.611064
O O11 0.750000 0.000000 0.698015
O O12 0.647384 0.250000 0.560603
O O13 0.571782 0.982010 0.576173
O O14 0.662702 0.000000 0.500000
O O15 0.000000 0.250000 0.430073
O O16 0.000000 0.000000 0.500000
O O17 0.169913 0.250000 0.850608
O O18 0.250000 0.500000 0.846000
#
# Coordination Sequence:
#
# PCOD9504351 Si02
#       6
#    16  16  16  16   8  16
#     4  10  22  40  63  88 112 145 192 240 290 350
#     4   9  19  36  58  85 118 158 201 245 291 339
#     4  10  22  38  56  80 111 146 182 227 280 337
#     4   9  18  32  52  77 105 139 177 220 272 329
#     4   8  14  26  46  70  96 126 162 206 255 306
#     4  11  23  39  60  87 122 159 197 242 294 346
#
# _framework density 21.973195
#
# number of rings (size 3 to 8) (size 9 to 14) (size 15 to 20)
#    0.000    2.364    0.000    1.636    1.273    6.182 
#    0.000    5.455    0.000    0.000    0.000    0.000 
#    0.000    0.000    0.000    0.000    0.000    0.000 
#
# Total GULP energy -245169.689113 kJ/mol
# GULP energy per Si atom -5572.038389 kJ/mol
# Density = 2.192318 g / cm^3
# Si number density = 21.973195 Si / 1000 Ang^3
#
#
#
# Elastic Constant Matrix: (Units=GPa)
#
#
# Indices 1 2 3 4 5 6 
#
# 1 224.3764 6.1184 100.5742 0.0000 0.0000 0.0000
# 2 6.1184 33.3046 5.4540 0.0000 0.0000 0.0000
# 3 100.5742 5.4540 136.9389 0.0000 0.0000 0.0000
# 4 0.0000 0.0000 0.0000 9.7985 0.0000 0.0000
# 5 0.0000 0.0000 0.0000 0.0000 24.3712 0.0000
# 6 0.0000 0.0000 0.0000 0.0000 0.0000 18.8229
#
#
#
# Elastic Compliance Matrix: (Units=1/GPa)
#
#
# Indices 1 2 3 4 5 6 
#
# 1 0.006650 -0.000425 -0.004867 0.000000 0.000000 0.000000
# 2 -0.000425 0.030250 -0.000893 0.000000 0.000000 0.000000
# 3 -0.004867 -0.000893 0.010913 0.000000 0.000000 0.000000
# 4 0.000000 0.000000 0.000000 0.102057 0.000000 0.000000
# 5 0.000000 0.000000 0.000000 0.000000 0.041032 0.000000
# 6 0.000000 0.000000 0.000000 0.000000 0.000000 0.053127
#
#
# Mechanical properties :
#
#
# Convention : Reuss Voigt Hill
#
# Bulk Modulus (GPa) = 28.21398 68.76813 48.49105
# Shear Modulus (GPa) = 18.64196 29.43008 24.03602
#
# Velocity S-wave (km/s) = 2.91588 3.66370 3.31097
# Velocity P-wave (km/s) = 4.91981 7.01864 6.06077
#
# Compressibility (1/GPa) = 0.03544342
#
# Stress axis : x y z
#
# Youngs Moduli (GPa) = 150.37516 33.05775 91.63579
#
# Poissons Ratio (x) = 0.01404 0.44601
# Poissons Ratio (y) = 0.06385 0.08182
# Poissons Ratio (z) = 0.73190 0.02952
#
# Static dielectric constant tensor:
#      x y z
#    x 0.391340 0.000000 0.000000 
#    y 0.000000 1.691190 0.000000 
#    z 0.000000 0.000000 1.815310 
# 
# From -- ./inp_files/42386.got.cif
#   From: 2010.05.17/outbox.cif.g08.bks.cpg/sg67_22_cif.got.tgz:42386.got - 2010.06.03 18:28:57.
