data_PCOD9504235
_publ_section_title
;
Structure prediction by ZEFSAII (Michael W. Deem and Ramdas Pophale) SiO2 
 PCOD9504235
Probable space group: C M M A
;
_chemical_formula_sum "Si O2"
_cell_formula_units_Z 116
_cell_length_a 17.735660
_cell_length_b 17.652431
_cell_length_c 18.230176
_cell_angle_alpha 90.000000
_cell_angle_beta 90.000000
_cell_angle_gamma 90.000000
_cell_volume 5707.458189
_symmetry_space_group_name_H-M "C M M A"
_symmetry_group_IT_number 67
_symmetry_cell_setting 'orthorhombic'
loop_
_space_group_symop_operation_xyz
x,y,z
-x,1/2-y,z
x,-y,-z
-x,1/2+y,-z
-x,-y,-z
x,1/2+y,-z
-x,y,z
x,1/2-y,z
1/2+x,1/2+y,z
1/2-x,-y,z
1/2+x,1/2-y,-z
1/2-x,y,-z
1/2-x,1/2-y,-z
1/2+x,y,-z
1/2-x,1/2+y,z
1/2+x,-y,z
loop_
_atom_site_type_symbol
_atom_site_label
_atom_site_fract_x
_atom_site_fract_y
_atom_site_fract_z
Si Si1 0.410360 0.659510 0.496339
Si Si2 0.915446 0.979091 0.266348
Si Si3 0.762958 0.341226 0.916969
Si Si4 0.585006 0.838012 0.834819
Si Si5 0.322195 0.836942 0.348072
Si Si6 0.309739 0.940775 0.605686
Si Si7 0.000000 0.750000 0.853144
Si Si8 0.125618 0.874883 0.814040
O O1 0.500000 0.645622 0.501621
O O2 0.398007 0.750000 0.511792
O O3 0.379591 0.644186 0.414278
O O4 0.363002 0.605203 0.550256
O O5 0.909064 0.895250 0.232718
O O6 0.858242 0.984550 0.333290
O O7 0.000000 0.991086 0.293990
O O8 0.901371 0.039581 0.201823
O O9 0.752405 0.250000 0.915030
O O10 0.847999 0.356111 0.890646
O O11 0.701949 0.374755 0.861118
O O12 0.750000 0.367181 0.000000
O O13 0.500000 0.846422 0.865759
O O14 0.593530 0.750000 0.812471
O O15 0.302458 0.750000 0.359494
O O16 0.244856 0.882017 0.353648
O O17 0.359001 0.845824 0.268655
O O18 0.250000 0.000000 0.573430
O O19 0.934145 0.682728 0.849235
#
# Coordination Sequence:
#
# PCOD9504235 Si02
#       8
#    16  16  16  16  16  16   4  16
#     4  10  24  44  67  90 124 170 226 286 343 404
#     4  11  24  41  64  94 132 167 219 279 326 387
#     4  10  21  40  65  99 134 172 219 267 324 395
#     4   9  20  40  64  91 125 171 216 264 326 396
#     4  11  23  40  67  92 124 167 218 277 331 395
#     4  12  24  41  60  93 128 171 213 268 343 401
#     4  12  24  40  70  96 134 176 232 266 342 396
#     4  12  23  41  65  98 130 171 221 277 327 397
#
# _framework density 20.324283999999999
#
# number of rings (size 3 to 8) (size 9 to 14) (size 15 to 20)
#    0.000    1.241    3.448    2.069    0.966    4.414 
#    1.241    3.448    0.000    1.655    0.000    0.000 
#    0.000    0.000    0.000    0.000    0.000    0.000 
#
# Total GULP energy -323457.036906 kJ/mol
# GULP energy per Si atom -5576.845464 kJ/mol
# Density = 2.027802 g / cm^3
# Si number density = 20.324284 Si / 1000 Ang^3
#
#
#
# Elastic Constant Matrix: (Units=GPa)
#
#
# Indices 1 2 3 4 5 6 
#
# 1 155.8302 53.8880 47.4549 0.0000 0.0000 0.0000
# 2 53.8880 77.2338 17.7604 0.0000 0.0000 0.0000
# 3 47.4549 17.7604 55.2477 0.0000 0.0000 0.0000
# 4 0.0000 0.0000 0.0000 15.4057 0.0000 0.0000
# 5 0.0000 0.0000 0.0000 0.0000 20.8422 0.0000
# 6 0.0000 0.0000 0.0000 0.0000 0.0000 37.4851
#
#
#
# Elastic Compliance Matrix: (Units=1/GPa)
#
#
# Indices 1 2 3 4 5 6 
#
# 1 0.010615 -0.005734 -0.007275 0.000000 0.000000 0.000000
# 2 -0.005734 0.017078 -0.000565 0.000000 0.000000 0.000000
# 3 -0.007275 -0.000565 0.024531 0.000000 0.000000 0.000000
# 4 0.000000 0.000000 0.000000 0.064911 0.000000 0.000000
# 5 0.000000 0.000000 0.000000 0.000000 0.047980 0.000000
# 6 0.000000 0.000000 0.000000 0.000000 0.000000 0.026677
#
#
# Mechanical properties :
#
#
# Convention : Reuss Voigt Hill
#
# Bulk Modulus (GPa) = 39.87739 58.50203 49.18971
# Shear Modulus (GPa) = 21.99749 26.02718 24.01234
#
# Velocity S-wave (km/s) = 3.29344 3.58242 3.44097
# Velocity P-wave (km/s) = 5.84170 6.77927 6.32787
#
# Compressibility (1/GPa) = 0.02507687
#
# Stress axis : x y z
#
# Youngs Moduli (GPa) = 94.20210 58.55404 40.76523
#
# Poissons Ratio (x) = 0.33574 0.29656
# Poissons Ratio (y) = 0.54013 0.02304
# Poissons Ratio (z) = 0.68531 0.03309
#
# Static dielectric constant tensor:
#      x y z
#    x 1.708410 0.000000 0.000000 
#    y 0.000000 1.764590 0.000000 
#    z 0.000000 0.000000 1.695950 
# 
# From -- ./inp_files/34364.got.cif
#   From: 2010.05.17/outbox.cif.g08.bks.cpg/sg67_18_cif.got.tgz:34364.got - 2010.06.03 18:28:57.
