data_PCOD9504872
_publ_section_title
;
Structure prediction by ZEFSAII (Michael W. Deem and Ramdas Pophale) SiO2 
 PCOD9504872
Probable space group: C M M A
;
_chemical_formula_sum "Si O2"
_cell_formula_units_Z 80
_cell_length_a 18.595768
_cell_length_b 8.705303
_cell_length_c 26.801414
_cell_angle_alpha 90.000000
_cell_angle_beta 90.000000
_cell_angle_gamma 90.000000
_cell_volume 4338.661006
_symmetry_space_group_name_H-M "C M M A"
_symmetry_group_IT_number 67
_symmetry_cell_setting 'orthorhombic'
loop_
_space_group_symop_operation_xyz
x,y,z
-x,1/2-y,z
x,-y,-z
-x,1/2+y,-z
-x,-y,-z
x,1/2+y,-z
-x,y,z
x,1/2-y,z
1/2+x,1/2+y,z
1/2-x,-y,z
1/2+x,1/2-y,-z
1/2-x,y,-z
1/2-x,1/2-y,-z
1/2+x,y,-z
1/2-x,1/2+y,z
1/2+x,-y,z
loop_
_atom_site_type_symbol
_atom_site_label
_atom_site_fract_x
_atom_site_fract_y
_atom_site_fract_z
Si Si1 0.087539 0.427979 0.948313
Si Si2 0.169872 0.435052 0.741211
Si Si3 0.670037 0.933852 0.553772
Si Si4 0.585050 0.066777 0.646721
Si Si5 0.916714 0.062465 0.839421
O O1 0.107532 0.250000 0.949452
O O2 0.108958 0.493024 0.894113
O O3 0.000000 0.436702 0.948138
O O4 0.113199 0.500000 0.000000
O O5 0.171186 0.250000 0.739214
O O6 0.250000 0.500000 0.738516
O O7 0.124203 0.498189 0.694991
O O8 0.132069 0.483468 0.793070
O O9 0.673268 0.750000 0.551734
O O10 0.647155 0.000000 0.500000
O O11 0.750000 0.000000 0.563442
O O12 0.618481 0.990170 0.597593
O O13 0.500000 0.037897 0.649601
O O14 0.596993 0.250000 0.644660
O O15 0.916874 0.250000 0.841404
O O16 0.000000 0.015834 0.831793
#
# Coordination Sequence:
#
# PCOD9504872 Si02
#       5
#    16  16  16  16  16
#     4   8  13  23  41  67  97 127 162 206 257 312
#     4  11  22  37  57  79 106 141 182 224 271 327
#     4  11  22  39  63  89 119 153 190 227 267 317
#     4  11  24  41  60  84 114 145 181 227 275 322
#     4   8  15  29  50  74 100 133 173 216 263 318
#
# _framework density 18.438869
#
# number of rings (size 3 to 8) (size 9 to 14) (size 15 to 20)
#    0.000    2.200    0.000    6.000    0.000    2.800 
#    0.000    2.000    0.000    5.400    0.000    4.200 
#    0.000    0.000    0.000    0.000    0.000    0.000 
#
# Total GULP energy -223224.857224 kJ/mol
# GULP energy per Si atom -5580.621431 kJ/mol
# Density = 1.839690 g / cm^3
# Si number density = 18.438869 Si / 1000 Ang^3
#
#
#
# Elastic Constant Matrix: (Units=GPa)
#
#
# Indices 1 2 3 4 5 6 
#
# 1 82.9799 57.8848 98.9623 0.0000 0.0000 0.0000
# 2 57.8848 88.9724 79.9897 0.0000 0.0000 0.0000
# 3 98.9623 79.9897 206.4633 0.0000 0.0000 0.0000
# 4 0.0000 0.0000 0.0000 30.2981 0.0000 0.0000
# 5 0.0000 0.0000 0.0000 0.0000 798.4534 0.0000
# 6 0.0000 0.0000 0.0000 0.0000 0.0000 11.2908
#
#
#
# Elastic Compliance Matrix: (Units=1/GPa)
#
#
# Indices 1 2 3 4 5 6 
#
# 1 0.034533 -0.011640 -0.012043 0.000000 0.000000 0.000000
# 2 -0.011640 0.021170 -0.002623 0.000000 0.000000 0.000000
# 3 -0.012043 -0.002623 0.011632 0.000000 0.000000 0.000000
# 4 0.000000 0.000000 0.000000 0.033005 0.000000 0.000000
# 5 0.000000 0.000000 0.000000 0.000000 0.001252 0.000000
# 6 0.000000 0.000000 0.000000 0.000000 0.000000 0.088568
#
#
# Mechanical properties :
#
#
# Convention : Reuss Voigt Hill
#
# Bulk Modulus (GPa) = 67.91461 94.67658 81.29560
# Shear Modulus (GPa) = 20.18730 177.44706 98.81718
#
# Velocity S-wave (km/s) = 3.31240 9.82060 7.32858
# Velocity P-wave (km/s) = 7.17925 13.41827 10.76085
#
# Compressibility (1/GPa) = 0.01472437
#
# Stress axis : x y z
#
# Youngs Moduli (GPa) = 28.95745 47.23613 85.97016
#
# Poissons Ratio (x) = 0.54984 1.03533
# Poissons Ratio (y) = 0.33707 0.22546
# Poissons Ratio (z) = 0.34873 0.12388
#
# Static dielectric constant tensor:
#      x y z
#    x 1.606460 0.000000 0.000000 
#    y 0.000000 1.627760 0.000000 
#    z 0.000000 0.000000 1.647470 
# 
# From -- ./inp_files/44416.got.cif
#   From: 2010.05.17/outbox.cif.g08.bks.cpg/sg67_23_cif.got.tgz:44416.got - 2010.06.03 18:28:57.
