data_PCOD9504274
_publ_section_title
;
Structure prediction by ZEFSAII (Michael W. Deem and Ramdas Pophale) SiO2 
 PCOD9504274
Probable space group: C M M A
;
_chemical_formula_sum "Si O2"
_cell_formula_units_Z 72
_cell_length_a 14.715746
_cell_length_b 9.603425
_cell_length_c 27.402616
_cell_angle_alpha 90.000000
_cell_angle_beta 90.000000
_cell_angle_gamma 90.000000
_cell_volume 3872.580524
_symmetry_space_group_name_H-M "C M M A"
_symmetry_group_IT_number 67
_symmetry_cell_setting 'orthorhombic'
loop_
_space_group_symop_operation_xyz
x,y,z
-x,1/2-y,z
x,-y,-z
-x,1/2+y,-z
-x,-y,-z
x,1/2+y,-z
-x,y,z
x,1/2-y,z
1/2+x,1/2+y,z
1/2-x,-y,z
1/2+x,1/2-y,-z
1/2-x,y,-z
1/2-x,1/2-y,-z
1/2+x,y,-z
1/2-x,1/2+y,z
1/2+x,-y,z
loop_
_atom_site_type_symbol
_atom_site_label
_atom_site_fract_x
_atom_site_fract_y
_atom_site_fract_z
Si Si1 0.611087 0.750000 0.547580
Si Si2 0.500000 0.910038 0.702567
Si Si3 0.500000 0.075366 0.052622
Si Si4 0.650930 0.517127 0.624330
Si Si5 0.000000 0.589273 0.799604
Si Si6 0.348204 0.421400 0.881814
Si Si7 0.894403 0.750000 0.562714
O O1 0.500000 0.750000 0.550324
O O2 0.647110 0.623103 0.579291
O O3 0.644791 0.750000 0.491952
O O4 0.500000 0.750000 0.716709
O O5 0.415838 0.940230 0.667027
O O6 0.500000 0.999024 0.751243
O O7 0.500000 0.250000 0.052030
O O8 0.588914 0.008480 0.079721
O O9 0.500000 0.000000 0.000000
O O10 0.750000 0.500000 0.645685
O O11 0.625611 0.377930 0.596916
O O12 0.910004 0.566350 0.832858
O O13 0.000000 0.750000 0.785046
O O14 0.340936 0.250000 0.891749
O O15 0.250000 0.500000 0.878622
O O16 0.000000 0.750000 0.551903
#
# Coordination Sequence:
#
# PCOD9504274 Si02
#       7
#     8   8   8  16   8  16   8
#     4  11  21  43  61  82 121 147 186 229 291 350
#     4  12  25  45  61  84 120 154 191 246 307 369
#     4  11  22  38  62  97 142 193 234 279 332 379
#     4  12  24  40  60  86 115 149 188 236 290 358
#     4   9  23  43  67  90 121 159 205 264 319 378
#     4  10  21  41  66  98 133 171 223 279 328 389
#     4  11  23  37  65  88 109 153 186 233 285 356
#
# _framework density 18.592254000000001
#
# number of rings (size 3 to 8) (size 9 to 14) (size 15 to 20)
#    0.000    1.111    3.333    3.667    1.556    8.444 
#    0.000    4.444    0.000    0.000    0.000    0.000 
#    0.000    0.000    0.000    0.000    0.000    0.000 
#
# Total GULP energy -200604.256153 kJ/mol
# GULP energy per Si atom -5572.340449 kJ/mol
# Density = 1.854994 g / cm^3
# Si number density = 18.592254 Si / 1000 Ang^3
#
#
#
# Elastic Constant Matrix: (Units=GPa)
#
#
# Indices 1 2 3 4 5 6 
#
# 1 128.3673 18.6967 27.3614 0.0000 0.0000 0.0000
# 2 18.6967 155.8037 62.3969 0.0000 0.0000 0.0000
# 3 27.3614 62.3969 126.1590 0.0000 0.0000 0.0000
# 4 0.0000 0.0000 0.0000 43.3155 0.0000 0.0000
# 5 0.0000 0.0000 0.0000 0.0000 27.3482 0.0000
# 6 0.0000 0.0000 0.0000 0.0000 0.0000 31.7913
#
#
#
# Elastic Compliance Matrix: (Units=1/GPa)
#
#
# Indices 1 2 3 4 5 6 
#
# 1 0.008182 -0.000338 -0.001607 0.000000 0.000000 0.000000
# 2 -0.000338 0.008018 -0.003892 0.000000 0.000000 0.000000
# 3 -0.001607 -0.003892 0.010200 0.000000 0.000000 0.000000
# 4 0.000000 0.000000 0.000000 0.023086 0.000000 0.000000
# 5 0.000000 0.000000 0.000000 0.000000 0.036566 0.000000
# 6 0.000000 0.000000 0.000000 0.000000 0.000000 0.031455
#
#
# Mechanical properties :
#
#
# Convention : Reuss Voigt Hill
#
# Bulk Modulus (GPa) = 67.91332 69.69334 68.80333
# Shear Modulus (GPa) = 37.28835 40.61598 38.95217
#
# Velocity S-wave (km/s) = 4.48323 4.67900 4.58216
# Velocity P-wave (km/s) = 7.96280 8.17051 8.06733
#
# Compressibility (1/GPa) = 0.01472465
#
# Stress axis : x y z
#
# Youngs Moduli (GPa) = 122.21972 124.72500 98.03847
#
# Poissons Ratio (x) = 0.04218 0.15757
# Poissons Ratio (y) = 0.04133 0.38158
# Poissons Ratio (z) = 0.19644 0.48544
#
# Static dielectric constant tensor:
#      x y z
#    x 1.784120 0.000000 0.000000 
#    y 0.000000 1.580750 0.000000 
#    z 0.000000 0.000000 1.606470 
# 
# From -- ./inp_files/43176.got.cif
#   From: 2010.05.17/outbox.cif.g08.bks.cpg/sg67_22_cif.got.tgz:43176.got - 2010.06.03 18:28:57.
