data_PCOD9504383
_publ_section_title
;
Structure prediction by ZEFSAII (Michael W. Deem and Ramdas Pophale) SiO2 
 PCOD9504383
Probable space group: C M M A
;
_chemical_formula_sum "Si O2"
_cell_formula_units_Z 68
_cell_length_a 15.456011
_cell_length_b 22.427738
_cell_length_c 9.356636
_cell_angle_alpha 90.000000
_cell_angle_beta 90.000000
_cell_angle_gamma 90.000000
_cell_volume 3243.415790
_symmetry_space_group_name_H-M "C M M A"
_symmetry_group_IT_number 67
_symmetry_cell_setting 'orthorhombic'
loop_
_space_group_symop_operation_xyz
x,y,z
-x,1/2-y,z
x,-y,-z
-x,1/2+y,-z
-x,-y,-z
x,1/2+y,-z
-x,y,z
x,1/2-y,z
1/2+x,1/2+y,z
1/2-x,-y,z
1/2+x,1/2-y,-z
1/2-x,y,-z
1/2-x,1/2-y,-z
1/2+x,y,-z
1/2-x,1/2+y,z
1/2+x,-y,z
loop_
_atom_site_type_symbol
_atom_site_label
_atom_site_fract_x
_atom_site_fract_y
_atom_site_fract_z
Si Si1 0.500000 0.000000 0.500000
Si Si2 0.352587 0.498219 0.276454
Si Si3 0.737557 0.318295 0.661060
Si Si4 0.595640 0.137221 0.197850
Si Si5 0.160498 0.106436 0.089287
O O1 0.577653 0.978844 0.389653
O O2 0.250000 0.500000 0.316047
O O3 0.379317 0.430124 0.245104
O O4 0.362352 0.540370 0.138869
O O5 0.707466 0.250000 0.651295
O O6 0.750000 0.342290 0.500000
O O7 0.831243 0.321267 0.736210
O O8 0.677203 0.356590 0.765887
O O9 0.500000 0.150876 0.250954
O O10 0.598610 0.136720 0.025883
O O11 0.250000 0.103572 0.000000
#
# Coordination Sequence:
#
# PCOD9504383 Si02
#       5
#     4  16  16  16  16
#     4  12  30  36  58 106 134 180 208 264 312 396
#     4  12  23  41  64  95 137 171 210 257 325 382
#     4  10  23  43  67  92 122 168 221 269 321 383
#     4  11  24  40  63 100 130 167 213 264 324 386
#     4  10  22  38  67  93 123 172 211 265 315 387
#
# _framework density 20.965551000000001
#
# number of rings (size 3 to 8) (size 9 to 14) (size 15 to 20)
#    0.000    1.176    5.882    1.059    4.941    5.647 
#    0.000    1.176    0.000    1.412    0.000    0.000 
#    0.000    0.000    0.000    0.000    0.000    0.000 
#
# Total GULP energy -189289.033714 kJ/mol
# GULP energy per Si atom -5567.324521 kJ/mol
# Density = 2.091783 g / cm^3
# Si number density = 20.965551 Si / 1000 Ang^3
#
#
#
# Elastic Constant Matrix: (Units=GPa)
#
#
# Indices 1 2 3 4 5 6 
#
# 1 103.6855 -19.8552 25.6042 0.0000 0.0000 0.0000
# 2 -19.8552 38.9601 6.6416 0.0000 0.0000 0.0000
# 3 25.6042 6.6416 100.3592 0.0000 0.0000 0.0000
# 4 0.0000 0.0000 0.0000 22.3250 0.0000 0.0000
# 5 0.0000 0.0000 0.0000 0.0000 8.9821 0.0000
# 6 0.0000 0.0000 0.0000 0.0000 0.0000 -7.1993
#
#
#
# Elastic Compliance Matrix: (Units=1/GPa)
#
#
# Indices 1 2 3 4 5 6 
#
# 1 0.011751 0.006574 -0.003433 0.000000 0.000000 0.000000
# 2 0.006574 0.029638 -0.003639 0.000000 0.000000 0.000000
# 3 -0.003433 -0.003639 0.011081 0.000000 0.000000 0.000000
# 4 0.000000 0.000000 0.000000 0.044793 0.000000 0.000000
# 5 0.000000 0.000000 0.000000 0.000000 0.111333 0.000000
# 6 0.000000 0.000000 0.000000 0.000000 0.000000 -0.138902
#
#
# Mechanical properties :
#
#
# Convention : Reuss Voigt Hill
#
# Bulk Modulus (GPa) = 19.42708 29.75402 24.59055
# Shear Modulus (GPa) = 56.91687 20.19584 38.55635
#
# Velocity S-wave (km/s) = 5.21601 3.10705 4.29305
# Velocity P-wave (km/s) = 6.74996 5.20523 6.02729
#
# Compressibility (1/GPa) = 0.05147454
#
# Stress axis : x y z
#
# Youngs Moduli (GPa) = 85.09775 33.74067 90.24564
#
# Poissons Ratio (x) = -0.22181 0.30982
# Poissons Ratio (y) = -0.55943 0.32837
# Poissons Ratio (z) = 0.29215 0.12277
#
# Static dielectric constant tensor:
#      x y z
#    x 1.773490 0.000000 0.000000 
#    y 0.000000 1.742400 0.000000 
#    z 0.000000 0.000000 1.804720 
# 
# From -- ./inp_files/9737.got.cif
#   From: 2010.05.17/outbox.cif.g08.bks.cpg/sg67_5_cif.got.tgz:9737.got - 2010.06.03 18:28:57.
