data_PCOD9504635
_publ_section_title
;
Structure prediction by ZEFSAII (Michael W. Deem and Ramdas Pophale) SiO2 
 PCOD9504635
Probable space group: C M M A
;
_chemical_formula_sum "Si O2"
_cell_formula_units_Z 72
_cell_length_a 14.969532
_cell_length_b 10.062231
_cell_length_c 25.880877
_cell_angle_alpha 90.000000
_cell_angle_beta 90.000000
_cell_angle_gamma 90.000000
_cell_volume 3898.355986
_symmetry_space_group_name_H-M "C M M A"
_symmetry_group_IT_number 67
_symmetry_cell_setting 'orthorhombic'
loop_
_space_group_symop_operation_xyz
x,y,z
-x,1/2-y,z
x,-y,-z
-x,1/2+y,-z
-x,-y,-z
x,1/2+y,-z
-x,y,z
x,1/2-y,z
1/2+x,1/2+y,z
1/2-x,-y,z
1/2+x,1/2-y,-z
1/2-x,y,-z
1/2-x,1/2-y,-z
1/2+x,y,-z
1/2-x,1/2+y,z
1/2+x,-y,z
loop_
_atom_site_type_symbol
_atom_site_label
_atom_site_fract_x
_atom_site_fract_y
_atom_site_fract_z
Si Si1 0.106218 0.750000 0.292615
Si Si2 0.896547 0.750000 0.700828
Si Si3 0.000000 0.089716 0.551099
Si Si4 0.606131 0.591837 0.050440
Si Si5 0.252728 0.750000 0.792164
Si Si6 0.352091 0.991614 0.633240
Si Si7 0.250000 0.500000 0.132673
O O1 0.154778 0.750000 0.238544
O O2 0.138427 0.623382 0.324503
O O3 0.000000 0.750000 0.289481
O O4 0.826911 0.750000 0.748968
O O5 0.880340 0.624069 0.663591
O O6 0.000000 0.750000 0.718728
O O7 0.000000 0.250000 0.542165
O O8 0.000000 0.000000 0.500000
O O9 0.915571 0.048192 0.586150
O O10 0.500000 0.586358 0.062019
O O11 0.628696 0.750000 0.043076
O O12 0.665559 0.527541 0.095482
O O13 0.621560 0.500000 0.000000
O O14 0.251801 0.624391 0.829280
O O15 0.250000 0.000000 0.615967
#
# Coordination Sequence:
#
# PCOD9504635 Si02
#       7
#     8   8   8  16   8  16   8
#     4  12  22  44  68  94 129 176 229 272 320 386
#     4  12  24  40  70 100 127 174 231 272 320 388
#     4  12  28  48  70 104 140 172 218 276 345 402
#     4  10  23  44  71  98 129 175 228 275 335 412
#     4  12  26  40  63 102 137 174 228 278 328 398
#     4  12  22  43  72  98 131 172 219 275 327 388
#     4  12  25  42  64  96 146 176 209 282 350 386
#
# _framework density 18.469324
#
# number of rings (size 3 to 8) (size 9 to 14) (size 15 to 20)
#    0.000    0.444    6.667    1.667    3.111    3.111 
#    0.000    1.111    0.000    0.000    0.000    0.000 
#    0.000    0.000    0.000    0.000    0.000    0.000 
#
# Total GULP energy -201142.322650 kJ/mol
# GULP energy per Si atom -5587.286740 kJ/mol
# Density = 1.842729 g / cm^3
# Si number density = 18.469324 Si / 1000 Ang^3
#
#
#
# Elastic Constant Matrix: (Units=GPa)
#
#
# Indices 1 2 3 4 5 6 
#
# 1 129.9725 46.1851 55.7066 0.0000 0.0000 0.0000
# 2 46.1851 191.4785 84.0344 0.0000 0.0000 0.0000
# 3 55.7066 84.0344 137.9388 0.0000 0.0000 0.0000
# 4 0.0000 0.0000 0.0000 49.6064 0.0000 0.0000
# 5 0.0000 0.0000 0.0000 0.0000 10.0173 0.0000
# 6 0.0000 0.0000 0.0000 0.0000 0.0000 23.3633
#
#
#
# Elastic Compliance Matrix: (Units=1/GPa)
#
#
# Indices 1 2 3 4 5 6 
#
# 1 0.009398 -0.000821 -0.003296 0.000000 0.000000 0.000000
# 2 -0.000821 0.007200 -0.004055 0.000000 0.000000 0.000000
# 3 -0.003296 -0.004055 0.011051 0.000000 0.000000 0.000000
# 4 0.000000 0.000000 0.000000 0.020159 0.000000 0.000000
# 5 0.000000 0.000000 0.000000 0.000000 0.099827 0.000000
# 6 0.000000 0.000000 0.000000 0.000000 0.000000 0.042802
#
#
# Mechanical properties :
#
#
# Convention : Reuss Voigt Hill
#
# Bulk Modulus (GPa) = 88.44223 92.36021 90.40122
# Shear Modulus (GPa) = 23.74756 34.82831 29.28793
#
# Velocity S-wave (km/s) = 3.58967 4.34722 3.98648
# Velocity P-wave (km/s) = 8.07285 8.67835 8.38107
#
# Compressibility (1/GPa) = 0.01130682
#
# Stress axis : x y z
#
# Youngs Moduli (GPa) = 106.40607 138.88772 90.49070
#
# Poissons Ratio (x) = 0.11396 0.29821
# Poissons Ratio (y) = 0.08731 0.36694
# Poissons Ratio (z) = 0.35066 0.56319
#
# Static dielectric constant tensor:
#      x y z
#    x 1.634750 0.000000 0.000000 
#    y 0.000000 1.640660 0.000000 
#    z 0.000000 0.000000 1.608290 
# 
# From -- ./inp_files/44280.got.cif
#   From: 2010.05.17/outbox.cif.g08.bks.cpg/sg67_23_cif.got.tgz:44280.got - 2010.06.03 18:28:57.
