data_PCOD9504090
_publ_section_title
;
Structure prediction by ZEFSAII (Michael W. Deem and Ramdas Pophale) SiO2 
 PCOD9504090
Probable space group: C M M A
;
_chemical_formula_sum "Si O2"
_cell_formula_units_Z 64
_cell_length_a 24.306703
_cell_length_b 8.587226
_cell_length_c 15.840845
_cell_angle_alpha 90.000000
_cell_angle_beta 90.000000
_cell_angle_gamma 90.000000
_cell_volume 3306.414462
_symmetry_space_group_name_H-M "C M M A"
_symmetry_group_IT_number 67
_symmetry_cell_setting 'orthorhombic'
loop_
_space_group_symop_operation_xyz
x,y,z
-x,1/2-y,z
x,-y,-z
-x,1/2+y,-z
-x,-y,-z
x,1/2+y,-z
-x,y,z
x,1/2-y,z
1/2+x,1/2+y,z
1/2-x,-y,z
1/2+x,1/2-y,-z
1/2-x,y,-z
1/2-x,1/2-y,-z
1/2+x,y,-z
1/2-x,1/2+y,z
1/2+x,-y,z
loop_
_atom_site_type_symbol
_atom_site_label
_atom_site_fract_x
_atom_site_fract_y
_atom_site_fract_z
Si Si1 0.883047 0.064302 0.409780
Si Si2 0.311736 0.937371 0.745496
Si Si3 0.118504 0.437850 0.909492
Si Si4 0.500000 0.060888 0.154043
Si Si5 0.000000 0.437438 0.647543
O O1 0.882686 0.250000 0.410532
O O2 0.863767 0.000000 0.500000
O O3 0.845612 0.001662 0.333873
O O4 0.944919 0.003479 0.393774
O O5 0.311917 0.750000 0.741636
O O6 0.342754 0.985056 0.831781
O O7 0.250000 0.000000 0.744679
O O8 0.117823 0.250000 0.911753
O O9 0.056211 0.493174 0.889486
O O10 0.136643 0.500000 0.000000
O O11 0.500000 0.250000 0.150917
O O12 0.500000 0.019813 0.253013
O O13 0.000000 0.250000 0.641143
#
# Coordination Sequence:
#
# PCOD9504090 Si02
#       5
#    16  16  16   8   8
#     4  12  25  42  65  96 128 164 209 255 311 375
#     4  11  24  44  66  90 123 165 211 264 316 368
#     4  10  21  38  62  91 125 164 205 252 311 370
#     4   9  17  35  61  89 123 163 199 246 308 369
#     4  11  20  39  66  93 130 168 206 253 312 371
#
# _framework density 19.356314000000001
#
# number of rings (size 3 to 8) (size 9 to 14) (size 15 to 20)
#    0.000    1.250    2.500    4.125    0.000    3.000 
#    0.000    5.000    0.000    0.000    0.000    0.000 
#    0.000    0.000    0.000    0.000    0.000    0.000 
#
# Total GULP energy -178976.468149 kJ/mol
# GULP energy per Si atom -5593.014630 kJ/mol
# Density = 1.931226 g / cm^3
# Si number density = 19.356314 Si / 1000 Ang^3
#
#
#
# Elastic Constant Matrix: (Units=GPa)
#
#
# Indices 1 2 3 4 5 6 
#
# 1 156.7269 47.3293 90.6496 0.0000 0.0000 0.0000
# 2 47.3293 85.1491 58.4829 0.0000 0.0000 0.0000
# 3 90.6496 58.4829 204.8416 0.0000 0.0000 0.0000
# 4 0.0000 0.0000 0.0000 32.6311 0.0000 0.0000
# 5 0.0000 0.0000 0.0000 0.0000 -76.9538 0.0000
# 6 0.0000 0.0000 0.0000 0.0000 0.0000 23.9869
#
#
#
# Elastic Compliance Matrix: (Units=1/GPa)
#
#
# Indices 1 2 3 4 5 6 
#
# 1 0.009100 -0.002851 -0.003213 0.000000 0.000000 0.000000
# 2 -0.002851 0.015502 -0.003164 0.000000 0.000000 0.000000
# 3 -0.003213 -0.003164 0.007207 0.000000 0.000000 0.000000
# 4 0.000000 0.000000 0.000000 0.030646 0.000000 0.000000
# 5 0.000000 0.000000 0.000000 0.000000 -0.012995 0.000000
# 6 0.000000 0.000000 0.000000 0.000000 0.000000 0.041689
#
#
# Mechanical properties :
#
#
# Convention : Reuss Voigt Hill
#
# Bulk Modulus (GPa) = 74.89330 93.29346 84.09338
# Shear Modulus (GPa) = 43.83769 12.61655 28.22712
#
# Velocity S-wave (km/s) = 4.76413 2.55582 3.82290
# Velocity P-wave (km/s) = 8.30894 7.55064 7.93885
#
# Compressibility (1/GPa) = 0.01335233
#
# Stress axis : x y z
#
# Youngs Moduli (GPa) = 109.89064 64.50697 138.75319
#
# Poissons Ratio (x) = 0.18393 0.44581
# Poissons Ratio (y) = 0.31334 0.43903
# Poissons Ratio (z) = 0.35308 0.20411
#
# Static dielectric constant tensor:
#      x y z
#    x 1.671940 0.000000 0.000000 
#    y 0.000000 1.655640 0.000000 
#    z 0.000000 0.000000 1.663160 
# 
# From -- ./inp_files/29774.got.cif
#   From: 2010.05.17/outbox.cif.g08.bks.cpg/sg67_15_cif.got.tgz:29774.got - 2010.06.03 18:28:57.
