data_PCOD9504613
_publ_section_title
;
Structure prediction by ZEFSAII (Michael W. Deem and Ramdas Pophale) SiO2 
 PCOD9504613
Probable space group: C M M A
;
_chemical_formula_sum "Si O2"
_cell_formula_units_Z 64
_cell_length_a 13.781600
_cell_length_b 14.245538
_cell_length_c 14.770703
_cell_angle_alpha 90.000000
_cell_angle_beta 90.000000
_cell_angle_gamma 90.000000
_cell_volume 2899.877564
_symmetry_space_group_name_H-M "C M M A"
_symmetry_group_IT_number 67
_symmetry_cell_setting 'orthorhombic'
loop_
_space_group_symop_operation_xyz
x,y,z
-x,1/2-y,z
x,-y,-z
-x,1/2+y,-z
-x,-y,-z
x,1/2+y,-z
-x,y,z
x,1/2-y,z
1/2+x,1/2+y,z
1/2-x,-y,z
1/2+x,1/2-y,-z
1/2-x,y,-z
1/2-x,1/2-y,-z
1/2+x,y,-z
1/2-x,1/2+y,z
1/2+x,-y,z
loop_
_atom_site_type_symbol
_atom_site_label
_atom_site_fract_x
_atom_site_fract_y
_atom_site_fract_z
Si Si1 0.190050 0.635756 0.363822
Si Si2 0.394498 0.135486 0.553344
Si Si3 0.611282 0.750000 0.162502
Si Si4 0.773903 0.897528 0.169304
Si Si5 0.889092 0.750000 0.055129
O O1 0.187776 0.750000 0.357612
O O2 0.298911 0.605766 0.392838
O O3 0.122175 0.609432 0.448011
O O4 0.168921 0.597836 0.264426
O O5 0.500000 0.104227 0.585635
O O6 0.392977 0.250000 0.556427
O O7 0.500000 0.750000 0.194735
O O8 0.675317 0.839499 0.190501
O O9 0.611657 0.750000 0.053091
O O10 0.833519 0.838641 0.096464
O O11 0.750000 0.000000 0.135739
O O12 0.000000 0.750000 0.085941
#
# Coordination Sequence:
#
# PCOD9504613 Si02
#       5
#    16  16   8  16   8
#     4   9  16  31  50  78 112 146 194 238 279 337
#     4   8  15  27  48  74 106 150 193 235 282 329
#     4  10  23  43  64  87 117 153 192 237 293 355
#     4  11  22  38  62  91 121 153 193 241 292 346
#     4  10  23  43  64  87 117 153 192 237 293 355
#
# _framework density 22.069897000000001
#
# number of rings (size 3 to 8) (size 9 to 14) (size 15 to 20)
#    0.000    2.500    2.500    3.000    0.000    5.000 
#    0.000    5.000    0.000    1.500    0.000    0.000 
#    0.000    0.000    0.000    0.000    0.000    0.000 
#
# Total GULP energy -178911.847436 kJ/mol
# GULP energy per Si atom -5590.995232 kJ/mol
# Density = 2.201966 g / cm^3
# Si number density = 22.069897 Si / 1000 Ang^3
#
#
#
# Elastic Constant Matrix: (Units=GPa)
#
#
# Indices 1 2 3 4 5 6 
#
# 1 83.2307 17.5229 -15.6635 0.0000 0.0000 0.0000
# 2 17.5229 110.2993 2.9784 0.0000 0.0000 0.0000
# 3 -15.6635 2.9784 70.8472 0.0000 0.0000 0.0000
# 4 0.0000 0.0000 0.0000 -8.3351 0.0000 0.0000
# 5 0.0000 0.0000 0.0000 0.0000 9.6343 0.0000
# 6 0.0000 0.0000 0.0000 0.0000 0.0000 4.3255
#
#
#
# Elastic Compliance Matrix: (Units=1/GPa)
#
#
# Indices 1 2 3 4 5 6 
#
# 1 0.013026 -0.002150 0.002970 0.000000 0.000000 0.000000
# 2 -0.002150 0.009431 -0.000872 0.000000 0.000000 0.000000
# 3 0.002970 -0.000872 0.014808 0.000000 0.000000 0.000000
# 4 0.000000 0.000000 0.000000 -0.119975 0.000000 0.000000
# 5 0.000000 0.000000 0.000000 0.000000 0.103796 0.000000
# 6 0.000000 0.000000 0.000000 0.000000 0.000000 0.231188
#
#
# Mechanical properties :
#
#
# Convention : Reuss Voigt Hill
#
# Bulk Modulus (GPa) = 26.90792 30.45031 28.67912
# Shear Modulus (GPa) = 18.88468 18.42757 18.65612
#
# Velocity S-wave (km/s) = 2.92837 2.89271 2.91059
# Velocity P-wave (km/s) = 4.86337 4.99842 4.93136
#
# Compressibility (1/GPa) = 0.03716378
#
# Stress axis : x y z
#
# Youngs Moduli (GPa) = 76.76726 106.03004 67.52995
#
# Poissons Ratio (x) = 0.22793 -0.20059
# Poissons Ratio (y) = 0.16502 0.05887
# Poissons Ratio (z) = -0.22803 0.09243
#
# Static dielectric constant tensor:
#      x y z
#    x 1.805020 0.000000 0.000000 
#    y 0.000000 1.802600 0.000000 
#    z 0.000000 0.000000 1.786860 
# 
# From -- ./inp_files/26810.got.cif
#   From: 2010.05.17/outbox.cif.g08.bks.cpg/sg67_14_cif.got.tgz:26810.got - 2010.06.03 18:28:57.
