data_PCOD9504004
_publ_section_title
;
Structure prediction by ZEFSAII (Michael W. Deem and Ramdas Pophale) SiO2 
 PCOD9504004
Probable space group: C M M A
;
_chemical_formula_sum "Si O2"
_cell_formula_units_Z 96
_cell_length_a 17.371175
_cell_length_b 14.199027
_cell_length_c 19.254746
_cell_angle_alpha 90.000000
_cell_angle_beta 90.000000
_cell_angle_gamma 90.000000
_cell_volume 4749.255939
_symmetry_space_group_name_H-M "C M M A"
_symmetry_group_IT_number 67
_symmetry_cell_setting 'orthorhombic'
loop_
_space_group_symop_operation_xyz
x,y,z
-x,1/2-y,z
x,-y,-z
-x,1/2+y,-z
-x,-y,-z
x,1/2+y,-z
-x,y,z
x,1/2-y,z
1/2+x,1/2+y,z
1/2-x,-y,z
1/2+x,1/2-y,-z
1/2-x,y,-z
1/2-x,1/2-y,-z
1/2+x,y,-z
1/2-x,1/2+y,z
1/2+x,-y,z
loop_
_atom_site_type_symbol
_atom_site_label
_atom_site_fract_x
_atom_site_fract_y
_atom_site_fract_z
Si Si1 0.162639 0.635788 0.484578
Si Si2 0.087879 0.136549 0.371959
Si Si3 0.591513 0.140537 0.338751
Si Si4 0.340172 0.359862 0.018668
Si Si5 0.339760 0.479879 0.747773
Si Si6 0.908616 0.525774 0.894541
O O1 0.160627 0.750000 0.482809
O O2 0.250000 0.607572 0.500000
O O3 0.110959 0.607507 0.550057
O O4 0.132390 0.606206 0.409499
O O5 0.092200 0.250000 0.369131
O O6 0.143417 0.092483 0.314638
O O7 0.000000 0.107636 0.357005
O O8 0.500000 0.134717 0.348406
O O9 0.611634 0.250000 0.327478
O O10 0.618613 0.075805 0.276162
O O11 0.353724 0.250000 0.033865
O O12 0.387569 0.395871 0.951824
O O13 0.250000 0.372388 0.000000
O O14 0.365973 0.430335 0.079769
O O15 0.250000 0.500000 0.755907
O O16 0.376772 0.446372 0.819522
O O17 0.000000 0.510784 0.893013
#
# Coordination Sequence:
#
# PCOD9504004 Si02
#       6
#    16  16  16  16  16  16
#     4   9  17  32  55  82 112 147 191 242 293 346
#     4  10  21  38  59  83 113 150 194 244 296 348
#     4  10  21  38  59  83 113 150 194 244 296 348
#     4  10  21  40  67  95 122 154 191 231 278 333
#     4  12  25  40  59  84 118 156 194 238 289 346
#     4  11  23  40  62  89 123 156 191 237 282 334
#
# _framework density 20.213692000000002
#
# number of rings (size 3 to 8) (size 9 to 14) (size 15 to 20)
#    0.000    1.667    0.000    6.000    0.000    7.333 
#    0.000    3.333    0.000    0.000    0.000    0.000 
#    0.000    0.000    0.000    0.000    0.000    0.000 
#
# Total GULP energy -268414.699270 kJ/mol
# GULP energy per Si atom -5591.972901 kJ/mol
# Density = 2.016768 g / cm^3
# Si number density = 20.213692 Si / 1000 Ang^3
#
#
#
# Elastic Constant Matrix: (Units=GPa)
#
#
# Indices 1 2 3 4 5 6 
#
# 1 84.7841 -14.1550 -12.1771 0.0000 0.0000 0.0000
# 2 -14.1550 49.1951 -27.8869 0.0000 0.0000 0.0000
# 3 -12.1771 -27.8869 54.5823 0.0000 0.0000 0.0000
# 4 0.0000 0.0000 0.0000 12.5513 0.0000 0.0000
# 5 0.0000 0.0000 0.0000 0.0000 34.0241 0.0000
# 6 0.0000 0.0000 0.0000 0.0000 0.0000 17.7204
#
#
#
# Elastic Compliance Matrix: (Units=1/GPa)
#
#
# Indices 1 2 3 4 5 6 
#
# 1 0.014248 0.008307 0.007423 0.000000 0.000000 0.000000
# 2 0.008307 0.033458 0.018948 0.000000 0.000000 0.000000
# 3 0.007423 0.018948 0.029658 0.000000 0.000000 0.000000
# 4 0.000000 0.000000 0.000000 0.079673 0.000000 0.000000
# 5 0.000000 0.000000 0.000000 0.000000 0.029391 0.000000
# 6 0.000000 0.000000 0.000000 0.000000 0.000000 0.056432
#
#
# Mechanical properties :
#
#
# Convention : Reuss Voigt Hill
#
# Bulk Modulus (GPa) = 6.81572 8.90260 7.85916
# Shear Modulus (GPa) = 22.48098 29.04451 25.76274
#
# Velocity S-wave (km/s) = 3.33853 3.79472 3.57391
# Velocity P-wave (km/s) = 4.27086 4.85939 4.57460
#
# Compressibility (1/GPa) = 0.14671957
#
# Stress axis : x y z
#
# Youngs Moduli (GPa) = 70.18661 29.88797 33.71812
#
# Poissons Ratio (x) = -0.24829 -0.25029
# Poissons Ratio (y) = -0.58306 -0.63888
# Poissons Ratio (z) = -0.52099 -0.56631
#
# Static dielectric constant tensor:
#      x y z
#    x 1.691810 0.000000 0.000000 
#    y 0.000000 1.738280 0.000000 
#    z 0.000000 0.000000 1.672010 
# 
# From -- ./inp_files/38394.got.cif
#   From: 2010.05.17/outbox.cif.g08.bks.cpg/sg67_20_cif.got.tgz:38394.got - 2010.06.03 18:28:57.
