data_PCOD9504319
_publ_section_title
;
Structure prediction by ZEFSAII (Michael W. Deem and Ramdas Pophale) SiO2 
 PCOD9504319
Probable space group: C M M A
;
_chemical_formula_sum "Si O2"
_cell_formula_units_Z 68
_cell_length_a 24.835181
_cell_length_b 10.003082
_cell_length_c 12.517735
_cell_angle_alpha 90.000000
_cell_angle_beta 90.000000
_cell_angle_gamma 90.000000
_cell_volume 3109.760277
_symmetry_space_group_name_H-M "C M M A"
_symmetry_group_IT_number 67
_symmetry_cell_setting 'orthorhombic'
loop_
_space_group_symop_operation_xyz
x,y,z
-x,1/2-y,z
x,-y,-z
-x,1/2+y,-z
-x,-y,-z
x,1/2+y,-z
-x,y,z
x,1/2-y,z
1/2+x,1/2+y,z
1/2-x,-y,z
1/2+x,1/2-y,-z
1/2-x,y,-z
1/2-x,1/2-y,-z
1/2+x,y,-z
1/2-x,1/2+y,z
1/2+x,-y,z
loop_
_atom_site_type_symbol
_atom_site_label
_atom_site_fract_x
_atom_site_fract_y
_atom_site_fract_z
Si Si1 0.000000 0.750000 0.678557
Si Si2 0.436983 0.899948 0.832671
Si Si3 0.582480 0.020230 0.620996
Si Si4 0.297514 0.403041 0.668684
Si Si5 0.341953 0.408536 0.905201
O O1 0.046871 0.635752 0.672345
O O2 0.500000 0.924904 0.854325
O O3 0.423865 0.750000 0.872455
O O4 0.426578 0.901595 0.704864
O O5 0.398581 0.015492 0.879179
O O6 0.644964 0.059614 0.619199
O O7 0.564205 0.000000 0.500000
O O8 0.284232 0.250000 0.644385
O O9 0.250000 0.500000 0.635231
O O10 0.307758 0.416306 0.796371
O O11 0.347700 0.250000 0.929622
O O12 0.318480 0.500000 0.000000
#
# Coordination Sequence:
#
# PCOD9504319 Si02
#       5
#     4  16  16  16  16
#     4  12  22  40  66  94 138 162 230 264 332 382
#     4  10  22  36  57  88 126 168 214 263 321 385
#     4  11  24  39  65  95 129 175 217 269 323 381
#     4  10  23  44  65  92 127 170 216 264 321 383
#     4  10  22  40  64  90 122 159 211 264 324 388
#
# _framework density 21.866637000000001
#
# number of rings (size 3 to 8) (size 9 to 14) (size 15 to 20)
#    0.000    1.647    2.353    1.059    3.294    6.588 
#    0.000    3.529    0.000    0.000    0.000    0.000 
#    0.000    0.000    0.000    0.000    0.000    0.000 
#
# Total GULP energy -189402.655969 kJ/mol
# GULP energy per Si atom -5570.666352 kJ/mol
# Density = 2.181687 g / cm^3
# Si number density = 21.866637 Si / 1000 Ang^3
#
#
#
# Elastic Constant Matrix: (Units=GPa)
#
#
# Indices 1 2 3 4 5 6 
#
# 1 145.6071 62.3091 -14.4866 0.0000 0.0000 0.0000
# 2 62.3091 162.2846 3.8469 0.0000 0.0000 0.0000
# 3 -14.4866 3.8469 69.2944 0.0000 0.0000 0.0000
# 4 0.0000 0.0000 0.0000 -3.0851 0.0000 0.0000
# 5 0.0000 0.0000 0.0000 0.0000 1.2580 0.0000
# 6 0.0000 0.0000 0.0000 0.0000 0.0000 60.7856
#
#
#
# Elastic Compliance Matrix: (Units=1/GPa)
#
#
# Indices 1 2 3 4 5 6 
#
# 1 0.008474 -0.003300 0.001955 0.000000 0.000000 0.000000
# 2 -0.003300 0.007455 -0.001104 0.000000 0.000000 0.000000
# 3 0.001955 -0.001104 0.014901 0.000000 0.000000 0.000000
# 4 0.000000 0.000000 0.000000 -0.324141 0.000000 0.000000
# 5 0.000000 0.000000 0.000000 0.000000 0.794924 0.000000
# 6 0.000000 0.000000 0.000000 0.000000 0.000000 0.016451
#
#
# Mechanical properties :
#
#
# Convention : Reuss Voigt Hill
#
# Bulk Modulus (GPa) = 38.56120 53.39167 45.97643
# Shear Modulus (GPa) = 9.40542 33.49281 21.44912
#
# Velocity S-wave (km/s) = 2.07620 3.91792 3.13534
# Velocity P-wave (km/s) = 4.83947 6.70349 5.84625
#
# Compressibility (1/GPa) = 0.02593280
#
# Stress axis : x y z
#
# Youngs Moduli (GPa) = 118.00113 134.13347 67.10895
#
# Poissons Ratio (x) = 0.44266 -0.13119
# Poissons Ratio (y) = 0.38942 0.07408
# Poissons Ratio (z) = -0.23068 0.14806
#
# Static dielectric constant tensor:
#      x y z
#    x 1.770940 0.000000 0.000000 
#    y 0.000000 1.838620 0.000000 
#    z 0.000000 0.000000 1.858830 
# 
# From -- ./inp_files/30487.got.cif
#   From: 2010.05.17/outbox.cif.g08.bks.cpg/sg67_16_cif.got.tgz:30487.got - 2010.06.03 18:28:57.
