data_PCOD9504931
_publ_section_title
;
Structure prediction by ZEFSAII (Michael W. Deem and Ramdas Pophale) SiO2 
 PCOD9504931
Probable space group: C M M A
;
_chemical_formula_sum "Si O2"
_cell_formula_units_Z 80
_cell_length_a 24.112843
_cell_length_b 8.608045
_cell_length_c 20.641730
_cell_angle_alpha 90.000000
_cell_angle_beta 90.000000
_cell_angle_gamma 90.000000
_cell_volume 4284.489079
_symmetry_space_group_name_H-M "C M M A"
_symmetry_group_IT_number 67
_symmetry_cell_setting 'orthorhombic'
loop_
_space_group_symop_operation_xyz
x,y,z
-x,1/2-y,z
x,-y,-z
-x,1/2+y,-z
-x,-y,-z
x,1/2+y,-z
-x,y,z
x,1/2-y,z
1/2+x,1/2+y,z
1/2-x,-y,z
1/2+x,1/2-y,-z
1/2-x,y,-z
1/2-x,1/2-y,-z
1/2+x,y,-z
1/2-x,1/2+y,z
1/2+x,-y,z
loop_
_atom_site_type_symbol
_atom_site_label
_atom_site_fract_x
_atom_site_fract_y
_atom_site_fract_z
Si Si1 0.310791 0.436036 0.072067
Si Si2 0.500000 0.435897 0.383993
Si Si3 0.812264 0.436174 0.690361
Si Si4 0.000000 0.435607 0.770798
Si Si5 0.382224 0.064198 0.570371
Si Si6 0.382108 0.564284 0.188300
O O1 0.309166 0.250000 0.070989
O O2 0.250000 0.500000 0.091387
O O3 0.355463 0.496445 0.123096
O O4 0.321861 0.500000 0.000000
O O5 0.500000 0.250000 0.394408
O O6 0.500000 0.464961 0.306681
O O7 0.555262 0.508608 0.414064
O O8 0.812330 0.250000 0.692120
O O9 0.750000 0.500000 0.692485
O O10 0.842928 0.494800 0.625816
O O11 0.846326 0.500140 0.751583
O O12 0.944778 0.507885 0.800979
O O13 0.000000 0.250000 0.779826
O O14 0.379662 0.250000 0.571408
O O15 0.366376 0.000000 0.500000
O O16 0.379555 0.750000 0.187535
#
# Coordination Sequence:
#
# PCOD9504931 Si02
#       6
#    16   8  16   8  16  16
#     4  11  22  40  65  96 132 170 212 258 308 363
#     4  11  22  40  65  92 124 160 204 257 311 368
#     4  12  25  43  64  91 123 161 207 257 311 371
#     4  11  23  40  65  94 126 164 206 256 312 367
#     4  12  25  42  64  91 123 161 205 256 313 373
#     4  12  24  41  65  95 128 166 209 256 310 368
#
# _framework density 18.672004999999999
#
# number of rings (size 3 to 8) (size 9 to 14) (size 15 to 20)
#    0.000    0.400    2.000    9.300    0.000    1.200 
#    0.000    2.500    0.000    0.000    0.000    0.000 
#    0.000    0.000    0.000    0.000    0.000    0.000 
#
# Total GULP energy -224015.011695 kJ/mol
# GULP energy per Si atom -5600.375292 kJ/mol
# Density = 1.862951 g / cm^3
# Si number density = 18.672005 Si / 1000 Ang^3
#
#
#
# Elastic Constant Matrix: (Units=GPa)
#
#
# Indices 1 2 3 4 5 6 
#
# 1 153.5628 63.8920 72.7011 0.0000 0.0000 0.0000
# 2 63.8920 201.3888 64.6199 0.0000 0.0000 0.0000
# 3 72.7011 64.6199 106.6360 0.0000 0.0000 0.0000
# 4 0.0000 0.0000 0.0000 33.8360 0.0000 0.0000
# 5 0.0000 0.0000 0.0000 0.0000 66.9015 0.0000
# 6 0.0000 0.0000 0.0000 0.0000 0.0000 38.1243
#
#
#
# Elastic Compliance Matrix: (Units=1/GPa)
#
#
# Indices 1 2 3 4 5 6 
#
# 1 0.009845 -0.001204 -0.005983 0.000000 0.000000 0.000000
# 2 -0.001204 0.006311 -0.003004 0.000000 0.000000 0.000000
# 3 -0.005983 -0.003004 0.015277 0.000000 0.000000 0.000000
# 4 0.000000 0.000000 0.000000 0.029554 0.000000 0.000000
# 5 0.000000 0.000000 0.000000 0.000000 0.014947 0.000000
# 6 0.000000 0.000000 0.000000 0.000000 0.000000 0.026230
#
#
# Mechanical properties :
#
#
# Convention : Reuss Voigt Hill
#
# Bulk Modulus (GPa) = 90.47596 96.00150 93.23873
# Shear Modulus (GPa) = 39.61028 45.13066 42.37047
#
# Velocity S-wave (km/s) = 4.61083 4.92166 4.76878
# Velocity P-wave (km/s) = 8.76966 9.15550 8.96466
#
# Compressibility (1/GPa) = 0.01105266
#
# Stress axis : x y z
#
# Youngs Moduli (GPa) = 101.57200 158.44653 65.45872
#
# Poissons Ratio (x) = 0.19074 0.39162
# Poissons Ratio (y) = 0.12227 0.19663
# Poissons Ratio (z) = 0.60767 0.47595
#
# Static dielectric constant tensor:
#      x y z
#    x 1.614980 0.000000 0.000000 
#    y 0.000000 1.618840 0.000000 
#    z 0.000000 0.000000 1.623460 
# 
# From -- ./inp_files/39533.got.cif
#   From: 2010.05.17/outbox.cif.g08.bks.cpg/sg67_20_cif.got.tgz:39533.got - 2010.06.03 18:28:57.
