data_PCOD9504224
_publ_section_title
;
Structure prediction by ZEFSAII (Michael W. Deem and Ramdas Pophale) SiO2 
 PCOD9504224
Probable space group: C M M A
;
_chemical_formula_sum "Si O2"
_cell_formula_units_Z 72
_cell_length_a 10.329442
_cell_length_b 25.461300
_cell_length_c 14.859790
_cell_angle_alpha 90.000000
_cell_angle_beta 90.000000
_cell_angle_gamma 90.000000
_cell_volume 3908.139951
_symmetry_space_group_name_H-M "C M M A"
_symmetry_group_IT_number 67
_symmetry_cell_setting 'orthorhombic'
loop_
_space_group_symop_operation_xyz
x,y,z
-x,1/2-y,z
x,-y,-z
-x,1/2+y,-z
-x,-y,-z
x,1/2+y,-z
-x,y,z
x,1/2-y,z
1/2+x,1/2+y,z
1/2-x,-y,z
1/2+x,1/2-y,-z
1/2-x,y,-z
1/2-x,1/2-y,-z
1/2+x,y,-z
1/2-x,1/2+y,z
1/2+x,-y,z
loop_
_atom_site_type_symbol
_atom_site_label
_atom_site_fract_x
_atom_site_fract_y
_atom_site_fract_z
Si Si1 0.750000 0.368466 0.500000
Si Si2 0.500000 0.449294 0.123961
Si Si3 0.263393 0.402367 0.795788
Si Si4 0.000000 0.073702 0.084569
Si Si5 0.358335 0.457581 0.616186
Si Si6 0.845975 0.811228 0.322119
O O1 0.651593 0.408302 0.549111
O O2 0.811377 0.334003 0.579286
O O3 0.369432 0.430146 0.172967
O O4 0.500000 0.512236 0.113708
O O5 0.500000 0.425825 0.023111
O O6 0.370138 0.400998 0.874152
O O7 0.327696 0.435554 0.715099
O O8 0.226292 0.346616 0.751851
O O9 0.500000 0.481928 0.612876
O O10 0.250000 0.500000 0.595722
O O11 0.811212 0.750000 0.316897
O O12 0.000000 0.816578 0.308643
#
# Coordination Sequence:
#
# PCOD9504224 Si02
#       6
#     8   8  16   8  16  16
#     4  10  22  36  58  86 118 148 202 252 300 336
#     4  11  22  38  61  92 121 162 191 230 287 359
#     4  11  22  38  60  89 120 157 199 242 290 348
#     4  11  22  38  61  90 129 154 191 234 289 351
#     4  11  23  36  55  83 123 165 200 237 287 354
#     4  10  21  40  64  85 113 155 203 251 299 350
#
# _framework density 18.423086000000001
#
# number of rings (size 3 to 8) (size 9 to 14) (size 15 to 20)
#    0.000    1.333    2.222    4.000    1.556    4.444 
#    0.000    0.556    0.000    4.000    0.000    0.000 
#    0.000    0.000    0.000    0.000    0.000    0.000 
#
# Total GULP energy -201200.529397 kJ/mol
# GULP energy per Si atom -5588.903594 kJ/mol
# Density = 1.838115 g / cm^3
# Si number density = 18.423086 Si / 1000 Ang^3
#
#
#
# Elastic Constant Matrix: (Units=GPa)
#
#
# Indices 1 2 3 4 5 6 
#
# 1 140.0003 43.6962 38.0872 0.0000 0.0000 0.0000
# 2 43.6962 101.1431 35.7451 0.0000 0.0000 0.0000
# 3 38.0872 35.7451 97.8638 0.0000 0.0000 0.0000
# 4 0.0000 0.0000 0.0000 19.9466 0.0000 0.0000
# 5 0.0000 0.0000 0.0000 0.0000 -20.2400 0.0000
# 6 0.0000 0.0000 0.0000 0.0000 0.0000 24.4219
#
#
#
# Elastic Compliance Matrix: (Units=1/GPa)
#
#
# Indices 1 2 3 4 5 6 
#
# 1 0.008688 -0.002938 -0.002308 0.000000 0.000000 0.000000
# 2 -0.002938 0.012346 -0.003366 0.000000 0.000000 0.000000
# 3 -0.002308 -0.003366 0.012346 0.000000 0.000000 0.000000
# 4 0.000000 0.000000 0.000000 0.050134 0.000000 0.000000
# 5 0.000000 0.000000 0.000000 0.000000 -0.049407 0.000000
# 6 0.000000 0.000000 0.000000 0.000000 0.000000 0.040947
#
#
# Mechanical properties :
#
#
# Convention : Reuss Voigt Hill
#
# Bulk Modulus (GPa) = 61.89704 63.78491 62.84098
# Shear Modulus (GPa) = 51.19718 19.59095 35.39407
#
# Velocity S-wave (km/s) = 5.27731 3.26451 4.38788
# Velocity P-wave (km/s) = 8.41450 6.99334 7.73662
#
# Compressibility (1/GPa) = 0.01615586
#
# Stress axis : x y z
#
# Youngs Moduli (GPa) = 115.10620 81.00006 80.99756
#
# Poissons Ratio (x) = 0.23794 0.18696
# Poissons Ratio (y) = 0.33813 0.27264
# Poissons Ratio (z) = 0.26568 0.27265
#
# Static dielectric constant tensor:
#      x y z
#    x 1.629950 0.000000 0.000000 
#    y 0.000000 1.609150 0.000000 
#    z 0.000000 0.000000 1.647460 
# 
# From -- ./inp_files/26064.got.cif
#   From: 2010.05.17/outbox.cif.g08.bks.cpg/sg67_14_cif.got.tgz:26064.got - 2010.06.03 18:28:57.
