data_PCOD9504483
_publ_section_title
;
Structure prediction by ZEFSAII (Michael W. Deem and Ramdas Pophale) SiO2 
 PCOD9504483
Probable space group: C M M A
;
_chemical_formula_sum "Si O2"
_cell_formula_units_Z 56
_cell_length_a 11.359767
_cell_length_b 29.901236
_cell_length_c 7.087038
_cell_angle_alpha 90.000000
_cell_angle_beta 90.000000
_cell_angle_gamma 90.000000
_cell_volume 2407.261809
_symmetry_space_group_name_H-M "C M M A"
_symmetry_group_IT_number 67
_symmetry_cell_setting 'orthorhombic'
loop_
_space_group_symop_operation_xyz
x,y,z
-x,1/2-y,z
x,-y,-z
-x,1/2+y,-z
-x,-y,-z
x,1/2+y,-z
-x,y,z
x,1/2-y,z
1/2+x,1/2+y,z
1/2-x,-y,z
1/2+x,1/2-y,-z
1/2-x,y,-z
1/2-x,1/2-y,-z
1/2+x,y,-z
1/2-x,1/2+y,z
1/2+x,-y,z
loop_
_atom_site_type_symbol
_atom_site_label
_atom_site_fract_x
_atom_site_fract_y
_atom_site_fract_z
Si Si1 0.127397 0.847538 0.708847
Si Si2 0.867310 0.250000 0.133175
Si Si3 0.624625 0.485622 0.219997
Si Si4 0.874642 0.620514 0.273490
O O1 0.134626 0.794336 0.738300
O O2 0.127007 0.863750 0.492052
O O3 0.247114 0.865270 0.799465
O O4 0.000000 0.863049 0.784946
O O5 0.000000 0.250000 0.039261
O O6 0.750000 0.250000 0.000000
O O7 0.500000 0.504831 0.294351
O O8 0.750000 0.500000 0.299583
O O9 0.621236 0.432561 0.247686
O O10 0.626138 0.500000 0.000000
O O11 0.000000 0.638972 0.198053
#
# Coordination Sequence:
#
# PCOD9504483 Si02
#       4
#    16   8  16  16
#     4   9  19  37  60  87 119 155 197 247 301 362
#     4  10  22  41  62  88 122 160 200 246 307 371
#     4   9  18  34  55  82 118 159 202 247 298 356
#     4   9  18  34  58  89 120 154 200 249 299 355
#
# _framework density 23.262945999999999
#
# number of rings (size 3 to 8) (size 9 to 14) (size 15 to 20)
#    0.000    2.857    0.000    0.000    0.000    4.571 
#    5.143    4.286    0.000   15.429    0.000    0.000 
#    0.000    0.000    0.000    0.000    0.000    0.000 
#
# Total GULP energy -155941.914560 kJ/mol
# GULP energy per Si atom -5569.354091 kJ/mol
# Density = 2.321000 g / cm^3
# Si number density = 23.262946 Si / 1000 Ang^3
#
#
#
# Elastic Constant Matrix: (Units=GPa)
#
#
# Indices 1 2 3 4 5 6 
#
# 1 334.5974 54.8751 26.6612 0.0000 0.0000 0.0000
# 2 54.8751 99.4993 34.6997 0.0000 0.0000 0.0000
# 3 26.6612 34.6997 161.9246 0.0000 0.0000 0.0000
# 4 0.0000 0.0000 0.0000 42.5949 0.0000 0.0000
# 5 0.0000 0.0000 0.0000 0.0000 314.4187 0.0000
# 6 0.0000 0.0000 0.0000 0.0000 0.0000 51.0923
#
#
#
# Elastic Compliance Matrix: (Units=1/GPa)
#
#
# Indices 1 2 3 4 5 6 
#
# 1 0.003290 -0.001757 -0.000165 0.000000 0.000000 0.000000
# 2 -0.001757 0.011800 -0.002239 0.000000 0.000000 0.000000
# 3 -0.000165 -0.002239 0.006683 0.000000 0.000000 0.000000
# 4 0.000000 0.000000 0.000000 0.023477 0.000000 0.000000
# 5 0.000000 0.000000 0.000000 0.000000 0.003180 0.000000
# 6 0.000000 0.000000 0.000000 0.000000 0.000000 0.019572
#
#
# Mechanical properties :
#
#
# Convention : Reuss Voigt Hill
#
# Bulk Modulus (GPa) = 74.34957 92.05482 83.20220
# Shear Modulus (GPa) = 61.87408 113.60686 87.74047
#
# Velocity S-wave (km/s) = 5.16289 6.99586 6.14807
# Velocity P-wave (km/s) = 8.22013 10.24272 9.28665
#
# Compressibility (1/GPa) = 0.01344998
#
# Stress axis : x y z
#
# Youngs Moduli (GPa) = 303.95532 84.74407 149.63727
#
# Poissons Ratio (x) = 0.14888 0.02472
# Poissons Ratio (y) = 0.53400 0.33511
# Poissons Ratio (z) = 0.05022 0.18978
#
# Static dielectric constant tensor:
#      x y z
#    x 2.019430 0.000000 0.000000 
#    y 0.000000 1.825280 0.000000 
#    z 0.000000 0.000000 1.782460 
# 
# From -- ./inp_files/6512.got.cif
#   From: 2010.05.17/outbox.cif.g08.bks.cpg/sg67_4_cif.got.tgz:6512.got - 2010.06.03 18:28:57.
