data_PCOD9504663
_publ_section_title
;
Structure prediction by ZEFSAII (Michael W. Deem and Ramdas Pophale) SiO2 
 PCOD9504663
Probable space group: C M M A
;
_chemical_formula_sum "Si O2"
_cell_formula_units_Z 48
_cell_length_a 15.889190
_cell_length_b 9.881723
_cell_length_c 13.761079
_cell_angle_alpha 90.000000
_cell_angle_beta 90.000000
_cell_angle_gamma 90.000000
_cell_volume 2160.662439
_symmetry_space_group_name_H-M "C M M A"
_symmetry_group_IT_number 67
_symmetry_cell_setting 'orthorhombic'
loop_
_space_group_symop_operation_xyz
x,y,z
-x,1/2-y,z
x,-y,-z
-x,1/2+y,-z
-x,-y,-z
x,1/2+y,-z
-x,y,z
x,1/2-y,z
1/2+x,1/2+y,z
1/2-x,-y,z
1/2+x,1/2-y,-z
1/2-x,y,-z
1/2-x,1/2-y,-z
1/2+x,y,-z
1/2-x,1/2+y,z
1/2+x,-y,z
loop_
_atom_site_type_symbol
_atom_site_label
_atom_site_fract_x
_atom_site_fract_y
_atom_site_fract_z
Si Si1 0.403940 0.250000 0.158107
Si Si2 0.899648 0.461798 0.204087
Si Si3 0.159717 0.750000 0.949875
Si Si4 0.164269 0.410320 0.414408
O O1 0.500000 0.250000 0.193343
O O2 0.364334 0.113456 0.196650
O O3 0.402302 0.250000 0.041736
O O4 0.855984 0.375910 0.120316
O O5 0.883571 0.411531 0.312346
O O6 0.000000 0.459487 0.184005
O O7 0.250000 0.750000 0.000000
O O8 0.121242 0.500000 0.500000
O O9 0.175737 0.250000 0.439628
O O10 0.250000 0.500000 0.399361
#
# Coordination Sequence:
#
# PCOD9504663 Si02
#       4
#     8  16   8  16
#     4  10  24  42  65  95 139 186 228 284 348 418
#     4  11  25  45  70 101 143 185 233 294 357 421
#     4  12  26  42  67 103 136 185 236 293 348 418
#     4  11  25  44  72 102 140 183 231 293 356 422
#
# _framework density 22.215409000000001
#
# number of rings (size 3 to 8) (size 9 to 14) (size 15 to 20)
#    0.000    1.000    1.667    4.500    9.333    4.667 
#    0.000    0.000    0.000    0.000    0.000    0.000 
#    0.000    0.000    0.000    0.000    0.000    0.000 
#
# Total GULP energy -134052.693956 kJ/mol
# GULP energy per Si atom -5585.528915 kJ/mol
# Density = 2.216485 g / cm^3
# Si number density = 22.215409 Si / 1000 Ang^3
#
#
#
# Elastic Constant Matrix: (Units=GPa)
#
#
# Indices 1 2 3 4 5 6 
#
# 1 66.0974 25.0054 18.3725 0.0000 0.0000 0.0000
# 2 25.0054 235.5299 68.9296 0.0000 0.0000 0.0000
# 3 18.3725 68.9296 138.6578 0.0000 0.0000 0.0000
# 4 0.0000 0.0000 0.0000 159.0149 0.0000 0.0000
# 5 0.0000 0.0000 0.0000 0.0000 41.5077 0.0000
# 6 0.0000 0.0000 0.0000 0.0000 0.0000 -210.3066
#
#
#
# Elastic Compliance Matrix: (Units=1/GPa)
#
#
# Indices 1 2 3 4 5 6 
#
# 1 0.016023 -0.001264 -0.001495 0.000000 0.000000 0.000000
# 2 -0.001264 0.005068 -0.002352 0.000000 0.000000 0.000000
# 3 -0.001495 -0.002352 0.008579 0.000000 0.000000 0.000000
# 4 0.000000 0.000000 0.000000 0.006289 0.000000 0.000000
# 5 0.000000 0.000000 0.000000 0.000000 0.024092 0.000000
# 6 0.000000 0.000000 0.000000 0.000000 0.000000 -0.004755
#
#
# Mechanical properties :
#
#
# Convention : Reuss Voigt Hill
#
# Bulk Modulus (GPa) = 51.41608 73.87780 62.64694
# Shear Modulus (GPa) = 69.44419 19.90837 44.67628
#
# Velocity S-wave (km/s) = 5.59708 2.99683 4.48934
# Velocity P-wave (km/s) = 8.06005 6.73068 7.42517
#
# Compressibility (1/GPa) = 0.01944917
#
# Stress axis : x y z
#
# Youngs Moduli (GPa) = 62.41130 197.30648 116.55885
#
# Poissons Ratio (x) = 0.24931 0.17424
# Poissons Ratio (y) = 0.07886 0.27416
# Poissons Ratio (z) = 0.09330 0.46409
#
# Static dielectric constant tensor:
#      x y z
#    x 1.850080 0.000000 0.000000 
#    y 0.000000 1.844250 0.000000 
#    z 0.000000 0.000000 1.776300 
# 
# From -- ./inp_files/28007.got.cif
#   From: 2010.05.17/outbox.cif.g08.bks.cpg/sg67_15_cif.got.tgz:28007.got - 2010.06.03 18:28:57.
