data_PCOD9504747
_publ_section_title
;
Structure prediction by ZEFSAII (Michael W. Deem and Ramdas Pophale) SiO2 
 PCOD9504747
Probable space group: C M M A
;
_chemical_formula_sum "Si O2"
_cell_formula_units_Z 64
_cell_length_a 7.855934
_cell_length_b 14.986610
_cell_length_c 25.193700
_cell_angle_alpha 90.000000
_cell_angle_beta 90.000000
_cell_angle_gamma 90.000000
_cell_volume 2966.150517
_symmetry_space_group_name_H-M "C M M A"
_symmetry_group_IT_number 67
_symmetry_cell_setting 'orthorhombic'
loop_
_space_group_symop_operation_xyz
x,y,z
-x,1/2-y,z
x,-y,-z
-x,1/2+y,-z
-x,-y,-z
x,1/2+y,-z
-x,y,z
x,1/2-y,z
1/2+x,1/2+y,z
1/2-x,-y,z
1/2+x,1/2-y,-z
1/2-x,y,-z
1/2-x,1/2-y,-z
1/2+x,y,-z
1/2-x,1/2+y,z
1/2+x,-y,z
loop_
_atom_site_type_symbol
_atom_site_label
_atom_site_fract_x
_atom_site_fract_y
_atom_site_fract_z
Si Si1 0.000000 0.851995 0.861102
Si Si2 0.797770 0.895834 0.058048
Si Si3 0.813729 0.359177 0.671404
Si Si4 0.202133 0.855369 0.557498
Si Si5 0.500000 0.360147 0.743251
O O1 0.831039 0.865278 0.896353
O O2 0.000000 0.897372 0.803347
O O3 0.000000 0.750000 0.846852
O O4 0.000000 0.883882 0.067829
O O5 0.750000 0.000000 0.054604
O O6 0.750000 0.857119 0.000000
O O7 0.806153 0.250000 0.669543
O O8 0.787028 0.391217 0.610910
O O9 0.665414 0.388616 0.710368
O O10 0.000000 0.384876 0.690560
O O11 0.250904 0.750000 0.555457
O O12 0.250000 0.893454 0.500000
O O13 0.000000 0.860383 0.564452
O O14 0.500000 0.250000 0.741683
#
# Coordination Sequence:
#
# PCOD9504747 Si02
#       5
#     8  16  16  16   8
#     4  11  24  37  55  89 120 147 191 243 280 327
#     4  11  20  39  65  87 114 154 192 228 281 346
#     4   9  15  24  38  51  72 115 160 200 253 313
#     4   9  14  19  28  46  69  95 142 207 255 294
#     4   9  18  32  43  59  95 132 167 209 261 320
#
# _framework density 21.576789000000002
#
# number of rings (size 3 to 8) (size 9 to 14) (size 15 to 20)
#    0.000    2.250    3.750    1.500    0.000    5.000 
#    0.000    2.500    0.000    0.000    0.000    0.000 
#    0.000    0.000    0.000    0.000    0.000    3.750 
#
# Total GULP energy -178525.670415 kJ/mol
# GULP energy per Si atom -5578.927200 kJ/mol
# Density = 2.152768 g / cm^3
# Si number density = 21.576789 Si / 1000 Ang^3
#
#
#
# Elastic Constant Matrix: (Units=GPa)
#
#
# Indices 1 2 3 4 5 6 
#
# 1 196.7883 8.0295 131.1167 0.0000 0.0000 0.0000
# 2 8.0295 29.5923 -4.8815 0.0000 0.0000 0.0000
# 3 131.1167 -4.8815 188.6602 0.0000 0.0000 0.0000
# 4 0.0000 0.0000 0.0000 50.8051 0.0000 0.0000
# 5 0.0000 0.0000 0.0000 0.0000 31.6823 0.0000
# 6 0.0000 0.0000 0.0000 0.0000 0.0000 -3.3581
#
#
#
# Elastic Compliance Matrix: (Units=1/GPa)
#
#
# Indices 1 2 3 4 5 6 
#
# 1 0.009878 -0.003829 -0.006964 0.000000 0.000000 0.000000
# 2 -0.003829 0.035422 0.003578 0.000000 0.000000 0.000000
# 3 -0.006964 0.003578 0.010233 0.000000 0.000000 0.000000
# 4 0.000000 0.000000 0.000000 0.019683 0.000000 0.000000
# 5 0.000000 0.000000 0.000000 0.000000 0.031563 0.000000
# 6 0.000000 0.000000 0.000000 0.000000 0.000000 -0.297790
#
#
# Mechanical properties :
#
#
# Convention : Reuss Voigt Hill
#
# Bulk Modulus (GPa) = 24.32988 75.95223 50.14106
# Shear Modulus (GPa) = -30.69757 34.54428 1.92335
#
# Velocity S-wave (km/s) = -3.77598 4.00558 0.94516
# Velocity P-wave (km/s) = 2.77673 7.52796 4.94773
#
# Compressibility (1/GPa) = 0.04110172
#
# Stress axis : x y z
#
# Youngs Moduli (GPa) = 101.23602 28.23128 97.72226
#
# Poissons Ratio (x) = 0.10810 0.68055
# Poissons Ratio (y) = 0.38764 -0.34962
# Poissons Ratio (z) = 0.70502 -0.10100
#
# Static dielectric constant tensor:
#      x y z
#    x 1.731490 0.000000 0.000000 
#    y 0.000000 1.527980 0.000000 
#    z 0.000000 0.000000 1.825900 
# 
# From -- ./inp_files/40561.got.cif
#   From: 2010.05.17/outbox.cif.g08.bks.cpg/sg67_21_cif.got.tgz:40561.got - 2010.06.03 18:28:57.
