data_PCOD9504694
_publ_section_title
;
Structure prediction by ZEFSAII (Michael W. Deem and Ramdas Pophale) SiO2 
 PCOD9504694
Probable space group: C M M A
;
_chemical_formula_sum "Si O2"
_cell_formula_units_Z 80
_cell_length_a 14.796916
_cell_length_b 24.734334
_cell_length_c 11.500935
_cell_angle_alpha 90.000000
_cell_angle_beta 90.000000
_cell_angle_gamma 90.000000
_cell_volume 4209.248621
_symmetry_space_group_name_H-M "C M M A"
_symmetry_group_IT_number 67
_symmetry_cell_setting 'orthorhombic'
loop_
_space_group_symop_operation_xyz
x,y,z
-x,1/2-y,z
x,-y,-z
-x,1/2+y,-z
-x,-y,-z
x,1/2+y,-z
-x,y,z
x,1/2-y,z
1/2+x,1/2+y,z
1/2-x,-y,z
1/2+x,1/2-y,-z
1/2-x,y,-z
1/2-x,1/2-y,-z
1/2+x,y,-z
1/2-x,1/2+y,z
1/2+x,-y,z
loop_
_atom_site_type_symbol
_atom_site_label
_atom_site_fract_x
_atom_site_fract_y
_atom_site_fract_z
Si Si1 0.000000 0.814771 0.770306
Si Si2 0.861495 0.892510 0.875898
Si Si3 0.000000 0.591731 0.291408
Si Si4 0.850348 0.750000 0.443059
Si Si5 0.389221 0.250000 0.171869
Si Si6 0.500000 0.838338 0.492931
Si Si7 0.340624 0.132761 0.136701
Si Si8 0.500000 0.484181 0.860679
O O1 0.085329 0.838829 0.838008
O O2 0.000000 0.843637 0.645025
O O3 0.000000 0.750000 0.758685
O O4 0.759716 0.885870 0.833254
O O5 0.913925 0.945770 0.836288
O O6 0.863955 0.895806 0.015707
O O7 0.088014 0.619726 0.235926
O O8 0.000000 0.532932 0.231482
O O9 0.000000 0.608062 0.427182
O O10 0.750000 0.750000 0.500000
O O11 0.851040 0.750000 0.303377
O O12 0.911418 0.698217 0.478771
O O13 0.500000 0.250000 0.173633
O O14 0.351167 0.196304 0.113390
O O15 0.500000 0.500000 0.000000
#
# Coordination Sequence:
#
# PCOD9504694 Si02
#       8
#     8  16   8   8   8   8  16   8
#     4  11  24  39  60  85 136 172 206 253 322 387
#     4  10  25  40  55  96 127 159 216 258 319 395
#     4  12  21  41  66  88 119 164 214 273 318 363
#     4  11  21  36  60  86 127 163 212 259 301 373
#     4  12  22  36  60  93 135 167 209 253 326 394
#     4  11  23  40  56  98 117 164 217 255 310 378
#     4  11  22  37  62  92 130 162 204 261 322 390
#     4  11  21  43  69  88 120 164 214 269 331 364
#
# _framework density 19.005766999999999
#
# number of rings (size 3 to 8) (size 9 to 14) (size 15 to 20)
#    0.000    1.000    7.000    0.600    5.600    1.600 
#    0.000    2.000    0.000    0.000    0.000    5.600 
#    0.000    0.000    0.000    0.000    0.000    0.000 
#
# Total GULP energy -223192.848543 kJ/mol
# GULP energy per Si atom -5579.821214 kJ/mol
# Density = 1.896251 g / cm^3
# Si number density = 19.005767 Si / 1000 Ang^3
#
#
#
# Elastic Constant Matrix: (Units=GPa)
#
#
# Indices 1 2 3 4 5 6 
#
# 1 127.1415 47.2048 45.3584 0.0000 0.0000 0.0000
# 2 47.2048 118.0523 7.2089 0.0000 0.0000 0.0000
# 3 45.3584 7.2089 46.9094 0.0000 0.0000 0.0000
# 4 0.0000 0.0000 0.0000 28.8195 0.0000 0.0000
# 5 0.0000 0.0000 0.0000 0.0000 56.3175 0.0000
# 6 0.0000 0.0000 0.0000 0.0000 0.0000 5.2868
#
#
#
# Elastic Compliance Matrix: (Units=1/GPa)
#
#
# Indices 1 2 3 4 5 6 
#
# 1 0.014401 -0.004955 -0.013163 0.000000 0.000000 0.000000
# 2 -0.004955 0.010256 0.003215 0.000000 0.000000 0.000000
# 3 -0.013163 0.003215 0.033552 0.000000 0.000000 0.000000
# 4 0.000000 0.000000 0.000000 0.034699 0.000000 0.000000
# 5 0.000000 0.000000 0.000000 0.000000 0.017756 0.000000
# 6 0.000000 0.000000 0.000000 0.000000 0.000000 0.189149
#
#
# Mechanical properties :
#
#
# Convention : Reuss Voigt Hill
#
# Bulk Modulus (GPa) = 35.20888 54.62748 44.91818
# Shear Modulus (GPa) = 14.74552 30.90685 22.82619
#
# Velocity S-wave (km/s) = 2.78842 4.03697 3.46932
# Velocity P-wave (km/s) = 5.37891 7.10876 6.30346
#
# Compressibility (1/GPa) = 0.02840192
#
# Stress axis : x y z
#
# Youngs Moduli (GPa) = 69.44040 97.50712 29.80471
#
# Poissons Ratio (x) = 0.48310 0.39233
# Poissons Ratio (y) = 0.34405 -0.09581
# Poissons Ratio (z) = 0.91406 -0.31345
#
# Static dielectric constant tensor:
#      x y z
#    x 1.663810 0.000000 0.000000 
#    y 0.000000 1.689250 0.000000 
#    z 0.000000 0.000000 1.664960 
# 
# From -- ./inp_files/18075.got.cif
#   From: 2010.05.17/outbox.cif.g08.bks.cpg/sg67_10_cif.got.tgz:18075.got - 2010.06.03 18:28:57.
