data_PCOD9504072
_publ_section_title
;
Structure prediction by ZEFSAII (Michael W. Deem and Ramdas Pophale) SiO2 
 PCOD9504072
Probable space group: C M M A
;
_chemical_formula_sum "Si O2"
_cell_formula_units_Z 56
_cell_length_a 14.799895
_cell_length_b 10.200638
_cell_length_c 18.640106
_cell_angle_alpha 90.000000
_cell_angle_beta 90.000000
_cell_angle_gamma 90.000000
_cell_volume 2814.066444
_symmetry_space_group_name_H-M "C M M A"
_symmetry_group_IT_number 67
_symmetry_cell_setting 'orthorhombic'
loop_
_space_group_symop_operation_xyz
x,y,z
-x,1/2-y,z
x,-y,-z
-x,1/2+y,-z
-x,-y,-z
x,1/2+y,-z
-x,y,z
x,1/2-y,z
1/2+x,1/2+y,z
1/2-x,-y,z
1/2+x,1/2-y,-z
1/2-x,y,-z
1/2-x,1/2-y,-z
1/2+x,y,-z
1/2-x,1/2+y,z
1/2+x,-y,z
loop_
_atom_site_type_symbol
_atom_site_label
_atom_site_fract_x
_atom_site_fract_y
_atom_site_fract_z
Si Si1 0.892106 0.902012 0.298059
Si Si2 0.153638 0.610962 0.458002
Si Si3 0.831433 0.593052 0.828597
Si Si4 0.000000 0.398148 0.064150
O O1 0.875712 0.750000 0.273070
O O2 0.841295 0.917457 0.373852
O O3 0.000000 0.913149 0.309657
O O4 0.861782 0.015232 0.243406
O O5 0.102590 0.500000 0.500000
O O6 0.107862 0.750000 0.463892
O O7 0.250000 0.621329 0.500000
O O8 0.811552 0.750000 0.817672
O O9 0.750000 0.500000 0.855619
O O10 0.913059 0.586520 0.884957
O O11 0.000000 0.250000 0.035023
O O12 0.000000 0.500000 0.000000
#
# Coordination Sequence:
#
# PCOD9504072 Si02
#       4
#    16  16  16   8
#     4  10  21  38  61  89 124 170 223 277 334 397
#     4   9  19  34  51  76 112 156 208 263 323 383
#     4  11  24  43  67 101 137 175 222 271 329 396
#     4  10  24  46  72 102 141 178 217 266 325 392
#
# _framework density 19.900029
#
# number of rings (size 3 to 8) (size 9 to 14) (size 15 to 20)
#    0.000    2.000    1.429    0.857    4.000    4.571 
#    0.000    2.857    0.000    0.000    0.000    0.000 
#    0.000    0.000    0.000    0.000    0.000    0.000 
#
# Total GULP energy -155951.624891 kJ/mol
# GULP energy per Si atom -5569.700889 kJ/mol
# Density = 1.985474 g / cm^3
# Si number density = 19.900029 Si / 1000 Ang^3
#
#
#
# Elastic Constant Matrix: (Units=GPa)
#
#
# Indices 1 2 3 4 5 6 
#
# 1 129.0833 52.8566 40.2436 0.0000 0.0000 0.0000
# 2 52.8566 223.0535 97.8297 0.0000 0.0000 0.0000
# 3 40.2436 97.8297 109.5715 0.0000 0.0000 0.0000
# 4 0.0000 0.0000 0.0000 43.5784 0.0000 0.0000
# 5 0.0000 0.0000 0.0000 0.0000 18.6449 0.0000
# 6 0.0000 0.0000 0.0000 0.0000 0.0000 44.4046
#
#
#
# Elastic Compliance Matrix: (Units=1/GPa)
#
#
# Indices 1 2 3 4 5 6 
#
# 1 0.008913 -0.001112 -0.002281 0.000000 0.000000 0.000000
# 2 -0.001112 0.007507 -0.006295 0.000000 0.000000 0.000000
# 3 -0.002281 -0.006295 0.015584 0.000000 0.000000 0.000000
# 4 0.000000 0.000000 0.000000 0.022947 0.000000 0.000000
# 5 0.000000 0.000000 0.000000 0.000000 0.053634 0.000000
# 6 0.000000 0.000000 0.000000 0.000000 0.000000 0.022520
#
#
# Mechanical properties :
#
#
# Convention : Reuss Voigt Hill
#
# Bulk Modulus (GPa) = 79.17523 93.72980 86.45252
# Shear Modulus (GPa) = 32.32240 39.37748 35.84994
#
# Velocity S-wave (km/s) = 4.03456 4.45316 4.24902
# Velocity P-wave (km/s) = 7.84706 8.58157 8.22252
#
# Compressibility (1/GPa) = 0.01263021
#
# Stress axis : x y z
#
# Youngs Moduli (GPa) = 112.19162 133.20105 64.16682
#
# Poissons Ratio (x) = 0.14808 0.14637
# Poissons Ratio (y) = 0.12472 0.40391
# Poissons Ratio (z) = 0.25593 0.83845
#
# Static dielectric constant tensor:
#      x y z
#    x 1.730870 0.000000 0.000000 
#    y 0.000000 1.582560 0.000000 
#    z 0.000000 0.000000 1.675680 
# 
# From -- ./inp_files/28079.got.cif
#   From: 2010.05.17/outbox.cif.g08.bks.cpg/sg67_15_cif.got.tgz:28079.got - 2010.06.03 18:28:57.
