data_PCOD9504568
_publ_section_title
;
Structure prediction by ZEFSAII (Michael W. Deem and Ramdas Pophale) SiO2 
 PCOD9504568
Probable space group: C M M A
;
_chemical_formula_sum "Si O2"
_cell_formula_units_Z 64
_cell_length_a 29.501994
_cell_length_b 21.705519
_cell_length_c 5.194147
_cell_angle_alpha 90.000000
_cell_angle_beta 90.000000
_cell_angle_gamma 90.000000
_cell_volume 3326.103671
_symmetry_space_group_name_H-M "C M M A"
_symmetry_group_IT_number 67
_symmetry_cell_setting 'orthorhombic'
loop_
_space_group_symop_operation_xyz
x,y,z
-x,1/2-y,z
x,-y,-z
-x,1/2+y,-z
-x,-y,-z
x,1/2+y,-z
-x,y,z
x,1/2-y,z
1/2+x,1/2+y,z
1/2-x,-y,z
1/2+x,1/2-y,-z
1/2-x,y,-z
1/2-x,1/2-y,-z
1/2+x,y,-z
1/2-x,1/2+y,z
1/2+x,-y,z
loop_
_atom_site_type_symbol
_atom_site_label
_atom_site_fract_x
_atom_site_fract_y
_atom_site_fract_z
Si Si1 0.840281 0.000000 0.500000
Si Si2 0.500000 0.956604 0.749555
Si Si3 0.595631 0.607699 0.686996
Si Si4 0.629532 0.323160 0.808858
Si Si5 0.780893 0.601720 0.749016
O O1 0.871931 0.048097 0.651579
O O2 0.808777 0.039340 0.309861
O O3 0.454859 0.915712 0.738590
O O4 0.500000 0.000000 0.500000
O O5 0.500000 0.000000 0.000000
O O6 0.601419 0.645829 0.423601
O O7 0.612538 0.648627 0.923261
O O8 0.625754 0.250000 0.803707
O O9 0.681413 0.345351 0.776089
O O10 0.750000 0.613176 0.500000
O O11 0.750000 0.597062 0.000000
#
# Coordination Sequence:
#
# PCOD9504568 Si02
#       5
#     8   8  16  16  16
#     4  10  23  39  64  92 134 164 204 267 335 394
#     4  12  24  42  69 104 137 158 204 261 319 398
#     4  11  24  42  67  98 128 171 208 262 331 383
#     4  11  25  45  65  89 130 176 222 264 311 378
#     4  11  24  39  61  92 125 168 215 268 324 374
#
# _framework density 19.241734000000001
#
# number of rings (size 3 to 8) (size 9 to 14) (size 15 to 20)
#    0.000    1.000    1.250    5.625    3.500    9.000 
#    0.000    3.750    0.000    0.000    0.000    0.000 
#    0.000    0.000    0.000    0.000    0.000    0.000 
#
# Total GULP energy -179153.920239 kJ/mol
# GULP energy per Si atom -5598.560007 kJ/mol
# Density = 1.919794 g / cm^3
# Si number density = 19.241734 Si / 1000 Ang^3
#
#
#
# Elastic Constant Matrix: (Units=GPa)
#
#
# Indices 1 2 3 4 5 6 
#
# 1 129.9948 50.6669 38.3521 0.0000 0.0000 0.0000
# 2 50.6669 133.5363 42.6830 0.0000 0.0000 0.0000
# 3 38.3521 42.6830 129.9166 0.0000 0.0000 0.0000
# 4 0.0000 0.0000 0.0000 -16.7035 0.0000 0.0000
# 5 0.0000 0.0000 0.0000 0.0000 21.4343 0.0000
# 6 0.0000 0.0000 0.0000 0.0000 0.0000 9.5617
#
#
#
# Elastic Compliance Matrix: (Units=1/GPa)
#
#
# Indices 1 2 3 4 5 6 
#
# 1 0.009385 -0.002989 -0.001788 0.000000 0.000000 0.000000
# 2 -0.002989 0.009319 -0.002179 0.000000 0.000000 0.000000
# 3 -0.001788 -0.002179 0.008941 0.000000 0.000000 0.000000
# 4 0.000000 0.000000 0.000000 -0.059868 0.000000 0.000000
# 5 0.000000 0.000000 0.000000 0.000000 0.046654 0.000000
# 6 0.000000 0.000000 0.000000 0.000000 0.000000 0.104584
#
#
# Mechanical properties :
#
#
# Convention : Reuss Voigt Hill
#
# Bulk Modulus (GPa) = 72.82449 72.98353 72.90401
# Shear Modulus (GPa) = 36.36142 20.30821 28.33481
#
# Velocity S-wave (km/s) = 4.35180 3.25226 3.84157
# Velocity P-wave (km/s) = 7.94860 7.21907 7.59260
#
# Compressibility (1/GPa) = 0.01373164
#
# Stress axis : x y z
#
# Youngs Moduli (GPa) = 106.54822 107.30256 111.84155
#
# Poissons Ratio (x) = 0.32077 0.20003
# Poissons Ratio (y) = 0.31851 0.24374
# Poissons Ratio (z) = 0.19056 0.23385
#
# Static dielectric constant tensor:
#      x y z
#    x 1.620470 0.000000 0.000000 
#    y 0.000000 1.643510 0.000000 
#    z 0.000000 0.000000 1.653700 
# 
# From -- ./inp_files/4034.got.cif
#   From: 2010.05.17/outbox.cif.g08.bks.cpg/sg67_3_cif.got.tgz:4034.got - 2010.06.03 18:28:57.
