data_PCOD9504860
_publ_section_title
;
Structure prediction by ZEFSAII (Michael W. Deem and Ramdas Pophale) SiO2 
 PCOD9504860
Probable space group: C M M A
;
_chemical_formula_sum "Si O2"
_cell_formula_units_Z 112
_cell_length_a 24.773892
_cell_length_b 15.340026
_cell_length_c 14.089058
_cell_angle_alpha 90.000000
_cell_angle_beta 90.000000
_cell_angle_gamma 90.000000
_cell_volume 5354.294967
_symmetry_space_group_name_H-M "C M M A"
_symmetry_group_IT_number 67
_symmetry_cell_setting 'orthorhombic'
loop_
_space_group_symop_operation_xyz
x,y,z
-x,1/2-y,z
x,-y,-z
-x,1/2+y,-z
-x,-y,-z
x,1/2+y,-z
-x,y,z
x,1/2-y,z
1/2+x,1/2+y,z
1/2-x,-y,z
1/2+x,1/2-y,-z
1/2-x,y,-z
1/2-x,1/2-y,-z
1/2+x,y,-z
1/2-x,1/2+y,z
1/2+x,-y,z
loop_
_atom_site_type_symbol
_atom_site_label
_atom_site_fract_x
_atom_site_fract_y
_atom_site_fract_z
Si Si1 0.063059 0.351408 0.578211
Si Si2 0.439616 0.009670 0.716729
Si Si3 0.679430 0.345520 0.227773
Si Si4 0.750338 0.599915 0.386409
Si Si5 0.371141 0.651457 0.387523
Si Si6 0.270598 0.600413 0.102396
Si Si7 0.875852 0.993313 0.887166
O O1 0.067997 0.250000 0.605489
O O2 0.071097 0.416420 0.666527
O O3 0.105556 0.368461 0.493576
O O4 0.000000 0.364268 0.545782
O O5 0.500000 0.034593 0.690223
O O6 0.430743 0.013761 0.829136
O O7 0.397867 0.078013 0.675698
O O8 0.654726 0.250000 0.214650
O O9 0.696249 0.360668 0.337495
O O10 0.739257 0.347767 0.181621
O O11 0.650086 0.422178 0.168162
O O12 0.750000 0.500000 0.350653
O O13 0.750000 0.598421 0.500000
O O14 0.692729 0.644838 0.370094
O O15 0.389146 0.750000 0.366833
O O16 0.250000 0.500000 0.104380
O O17 0.333810 0.587576 0.120814
O O18 0.250000 0.633670 0.000000
O O19 0.881897 0.000000 0.000000
#
# Coordination Sequence:
#
# PCOD9504860 Si02
#       7
#    16  16  16  16  16  16  16
#     4   9  20  39  65  95 125 161 212 269 321 386
#     4  11  24  40  65  93 121 162 214 271 331 392
#     4  11  22  36  59  89 122 160 204 255 312 373
#     4  11  25  40  59  89 131 178 209 246 304 378
#     4  11  23  40  63  92 129 170 212 260 316 381
#     4   9  15  34  58  80 110 154 193 241 298 364
#     4  11  22  41  62  84 119 162 210 263 325 384
#
# _framework density 20.917786
#
# number of rings (size 3 to 8) (size 9 to 14) (size 15 to 20)
#    0.000    1.571    2.857    4.286    6.000    4.286 
#    0.000    0.714    0.000    0.000    0.000    2.000 
#    0.000    0.000    0.000    0.000    0.000    0.000 
#
# Total GULP energy -312281.228015 kJ/mol
# GULP energy per Si atom -5576.450500 kJ/mol
# Density = 2.087018 g / cm^3
# Si number density = 20.917786 Si / 1000 Ang^3
#
#
#
# Elastic Constant Matrix: (Units=GPa)
#
#
# Indices 1 2 3 4 5 6 
#
# 1 59.4239 17.5420 21.3794 0.0000 0.0000 0.0000
# 2 17.5420 61.9522 22.2032 0.0000 0.0000 0.0000
# 3 21.3794 22.2032 104.1211 0.0000 0.0000 0.0000
# 4 0.0000 0.0000 0.0000 -11.0628 0.0000 0.0000
# 5 0.0000 0.0000 0.0000 0.0000 29.3459 0.0000
# 6 0.0000 0.0000 0.0000 0.0000 0.0000 17.4515
#
#
#
# Elastic Compliance Matrix: (Units=1/GPa)
#
#
# Indices 1 2 3 4 5 6 
#
# 1 0.019198 -0.004356 -0.003013 0.000000 0.000000 0.000000
# 2 -0.004356 0.018466 -0.003043 0.000000 0.000000 0.000000
# 3 -0.003013 -0.003043 0.010872 0.000000 0.000000 0.000000
# 4 0.000000 0.000000 0.000000 -0.090393 0.000000 0.000000
# 5 0.000000 0.000000 0.000000 0.000000 0.034076 0.000000
# 6 0.000000 0.000000 0.000000 0.000000 0.000000 0.057302
#
#
# Mechanical properties :
#
#
# Convention : Reuss Voigt Hill
#
# Bulk Modulus (GPa) = 36.08712 38.63849 37.36280
# Shear Modulus (GPa) = 62.82761 18.10509 40.46635
#
# Velocity S-wave (km/s) = 5.48641 2.94519 4.40312
# Velocity P-wave (km/s) = 7.57784 5.48427 6.61441
#
# Compressibility (1/GPa) = 0.02771072
#
# Stress axis : x y z
#
# Youngs Moduli (GPa) = 52.08810 54.15469 91.98083
#
# Poissons Ratio (x) = 0.23591 0.27715
# Poissons Ratio (y) = 0.22691 0.27992
# Poissons Ratio (z) = 0.15695 0.16480
#
# Static dielectric constant tensor:
#      x y z
#    x 1.776530 0.000000 0.000000 
#    y 0.000000 1.763910 0.000000 
#    z 0.000000 0.000000 1.820340 
# 
# From -- ./inp_files/30168.got.cif
#   From: 2010.05.17/outbox.cif.g08.bks.cpg/sg67_16_cif.got.tgz:30168.got - 2010.06.03 18:28:57.
