data_PCOD9504614
_publ_section_title
;
Structure prediction by ZEFSAII (Michael W. Deem and Ramdas Pophale) SiO2 
 PCOD9504614
Probable space group: C M M A
;
_chemical_formula_sum "Si O2"
_cell_formula_units_Z 116
_cell_length_a 17.035957
_cell_length_b 26.826833
_cell_length_c 11.805245
_cell_angle_alpha 90.000000
_cell_angle_beta 90.000000
_cell_angle_gamma 90.000000
_cell_volume 5395.242200
_symmetry_space_group_name_H-M "C M M A"
_symmetry_group_IT_number 67
_symmetry_cell_setting 'orthorhombic'
loop_
_space_group_symop_operation_xyz
x,y,z
-x,1/2-y,z
x,-y,-z
-x,1/2+y,-z
-x,-y,-z
x,1/2+y,-z
-x,y,z
x,1/2-y,z
1/2+x,1/2+y,z
1/2-x,-y,z
1/2+x,1/2-y,-z
1/2-x,y,-z
1/2-x,1/2-y,-z
1/2+x,y,-z
1/2-x,1/2+y,z
1/2+x,-y,z
loop_
_atom_site_type_symbol
_atom_site_label
_atom_site_fract_x
_atom_site_fract_y
_atom_site_fract_z
Si Si1 0.372678 0.339828 0.174495
Si Si2 0.409971 0.887280 0.056597
Si Si3 0.405438 0.466588 0.763913
Si Si4 0.300394 0.695380 0.163394
Si Si5 0.158854 0.585397 0.541498
Si Si6 0.331363 0.803373 0.431466
Si Si7 0.592018 0.072585 0.313223
Si Si8 0.500000 0.750000 0.802125
O O1 0.289401 0.317470 0.140118
O O2 0.363609 0.376471 0.281702
O O3 0.431945 0.294529 0.194445
O O4 0.401110 0.377839 0.076505
O O5 0.500000 0.876321 0.086216
O O6 0.391167 0.939839 0.115745
O O7 0.355306 0.846419 0.113347
O O8 0.500000 0.463463 0.740501
O O9 0.358373 0.438428 0.663791
O O10 0.384238 0.524689 0.760050
O O11 0.321362 0.750000 0.118118
O O12 0.311744 0.696314 0.298602
O O13 0.250000 0.582929 0.500000
O O14 0.130846 0.643255 0.544391
O O15 0.109693 0.559200 0.442897
O O16 0.372347 0.750000 0.457967
O O17 0.250000 0.802876 0.500000
O O18 0.500000 0.082398 0.297159
#
# Coordination Sequence:
#
# PCOD9504614 Si02
#       8
#    16  16  16  16  16  16  16   4
#     4  12  24  44  64  99 127 168 213 268 326 379
#     4  11  24  42  65  92 131 167 211 264 316 383
#     4  10  23  43  64  90 127 171 213 266 320 380
#     4  11  23  39  66  93 129 170 211 261 320 387
#     4  11  21  39  64  93 127 165 215 270 319 381
#     4   9  18  35  57  89 125 166 207 256 320 386
#     4  11  24  42  65  92 124 169 220 262 321 385
#     4  12  24  44  70  94 140 164 216 272 316 386
#
# _framework density 21.500425
#
# number of rings (size 3 to 8) (size 9 to 14) (size 15 to 20)
#    0.000    1.241    3.448    2.897    0.966    3.586 
#    1.241    2.069    0.000    2.897    0.000    0.000 
#    0.000    0.000    0.000    0.000    0.000    0.000 
#
# Total GULP energy -323429.755547 kJ/mol
# GULP energy per Si atom -5576.375096 kJ/mol
# Density = 2.145149 g / cm^3
# Si number density = 21.500425 Si / 1000 Ang^3
#
#
#
# Elastic Constant Matrix: (Units=GPa)
#
#
# Indices 1 2 3 4 5 6 
#
# 1 34.8586 10.7648 -4.1808 0.0000 0.0000 0.0000
# 2 10.7648 129.2843 16.6970 0.0000 0.0000 0.0000
# 3 -4.1808 16.6970 52.2279 0.0000 0.0000 0.0000
# 4 0.0000 0.0000 0.0000 25.4867 0.0000 0.0000
# 5 0.0000 0.0000 0.0000 0.0000 20.3168 0.0000
# 6 0.0000 0.0000 0.0000 0.0000 0.0000 22.9014
#
#
#
# Elastic Compliance Matrix: (Units=1/GPa)
#
#
# Indices 1 2 3 4 5 6 
#
# 1 0.029992 -0.002928 0.003337 0.000000 0.000000 0.000000
# 2 -0.002928 0.008354 -0.002905 0.000000 0.000000 0.000000
# 3 0.003337 -0.002905 0.020343 0.000000 0.000000 0.000000
# 4 0.000000 0.000000 0.000000 0.039236 0.000000 0.000000
# 5 0.000000 0.000000 0.000000 0.000000 0.049220 0.000000
# 6 0.000000 0.000000 0.000000 0.000000 0.000000 0.043665
#
#
# Mechanical properties :
#
#
# Convention : Reuss Voigt Hill
#
# Bulk Modulus (GPa) = 18.62348 29.21478 23.91913
# Shear Modulus (GPa) = 23.39711 26.61364 25.00537
#
# Velocity S-wave (km/s) = 3.30239 3.52208 3.41400
# Velocity P-wave (km/s) = 4.81890 5.49159 5.16620
#
# Compressibility (1/GPa) = 0.05369565
#
# Stress axis : x y z
#
# Youngs Moduli (GPa) = 33.34245 119.70450 49.15763
#
# Poissons Ratio (x) = 0.35052 -0.16404
# Poissons Ratio (y) = 0.09763 0.14281
# Poissons Ratio (z) = -0.11126 0.34775
#
# Static dielectric constant tensor:
#      x y z
#    x 1.749820 0.000000 0.000000 
#    y 0.000000 1.790220 0.000000 
#    z 0.000000 0.000000 1.848560 
# 
# From -- ./inp_files/19971.got.cif
#   From: 2010.05.17/outbox.cif.g08.bks.cpg/sg67_10_cif.got.tgz:19971.got - 2010.06.03 18:28:57.
