data_PCOD9504680
_publ_section_title
;
Structure prediction by ZEFSAII (Michael W. Deem and Ramdas Pophale) SiO2 
 PCOD9504680
Probable space group: C M M A
;
_chemical_formula_sum "Si O2"
_cell_formula_units_Z 72
_cell_length_a 16.068424
_cell_length_b 8.865123
_cell_length_c 25.558840
_cell_angle_alpha 90.000000
_cell_angle_beta 90.000000
_cell_angle_gamma 90.000000
_cell_volume 3640.819830
_symmetry_space_group_name_H-M "C M M A"
_symmetry_group_IT_number 67
_symmetry_cell_setting 'orthorhombic'
loop_
_space_group_symop_operation_xyz
x,y,z
-x,1/2-y,z
x,-y,-z
-x,1/2+y,-z
-x,-y,-z
x,1/2+y,-z
-x,y,z
x,1/2-y,z
1/2+x,1/2+y,z
1/2-x,-y,z
1/2+x,1/2-y,-z
1/2-x,y,-z
1/2-x,1/2-y,-z
1/2+x,y,-z
1/2-x,1/2+y,z
1/2+x,-y,z
loop_
_atom_site_type_symbol
_atom_site_label
_atom_site_fract_x
_atom_site_fract_y
_atom_site_fract_z
Si Si1 0.336644 0.430645 0.876642
Si Si2 0.000000 0.431946 0.057591
Si Si3 0.841852 0.571501 0.551900
Si Si4 0.599404 0.579126 0.655645
Si Si5 0.098482 0.431970 0.771217
O O1 0.331438 0.250000 0.876766
O O2 0.250000 0.500000 0.896076
O O3 0.416761 0.477323 0.910962
O O4 0.353300 0.489391 0.817978
O O5 0.000000 0.250000 0.054622
O O6 0.000000 0.500000 0.000000
O O7 0.883300 0.500000 0.500000
O O8 0.837903 0.750000 0.545807
O O9 0.750000 0.500000 0.554185
O O10 0.882122 0.525089 0.606599
O O11 0.500000 0.590031 0.661014
O O12 0.631373 0.750000 0.645580
O O13 0.628958 0.525899 0.712826
O O14 0.105296 0.250000 0.775110
O O15 0.000000 0.470058 0.776149
#
# Coordination Sequence:
#
# PCOD9504680 Si02
#       5
#    16   8  16  16  16
#     4  11  23  40  62  93 127 163 208 255 303 361
#     4  10  24  44  66  92 126 166 207 254 307 356
#     4  11  22  37  56  76 103 142 187 236 292 351
#     4   9  19  36  57  83 114 146 186 235 286 345
#     4   9  18  35  60  87 117 156 196 240 299 357
#
# _framework density 19.775766000000001
#
# number of rings (size 3 to 8) (size 9 to 14) (size 15 to 20)
#    0.000    2.000    1.111    4.667    0.000    4.889 
#    0.000    4.444    0.000    0.000    0.000    0.000 
#    0.000    0.000    0.000    0.000    0.000    0.000 
#
# Total GULP energy -201015.196315 kJ/mol
# GULP energy per Si atom -5583.755453 kJ/mol
# Density = 1.973076 g / cm^3
# Si number density = 19.775766 Si / 1000 Ang^3
#
#
#
# Elastic Constant Matrix: (Units=GPa)
#
#
# Indices 1 2 3 4 5 6 
#
# 1 93.4404 33.0164 58.1647 0.0000 0.0000 0.0000
# 2 33.0164 80.2962 58.1545 0.0000 0.0000 0.0000
# 3 58.1647 58.1545 158.5223 0.0000 0.0000 0.0000
# 4 0.0000 0.0000 0.0000 39.5094 0.0000 0.0000
# 5 0.0000 0.0000 0.0000 0.0000 69.7762 0.0000
# 6 0.0000 0.0000 0.0000 0.0000 0.0000 24.2140
#
#
#
# Elastic Compliance Matrix: (Units=1/GPa)
#
#
# Indices 1 2 3 4 5 6 
#
# 1 0.014330 -0.002838 -0.004217 0.000000 0.000000 0.000000
# 2 -0.002838 0.017522 -0.005387 0.000000 0.000000 0.000000
# 3 -0.004217 -0.005387 0.009832 0.000000 0.000000 0.000000
# 4 0.000000 0.000000 0.000000 0.025310 0.000000 0.000000
# 5 0.000000 0.000000 0.000000 0.000000 0.014332 0.000000
# 6 0.000000 0.000000 0.000000 0.000000 0.000000 0.041298
#
#
# Mechanical properties :
#
#
# Convention : Reuss Voigt Hill
#
# Bulk Modulus (GPa) = 59.52254 70.10332 64.81293
# Shear Modulus (GPa) = 32.65695 38.89482 35.77588
#
# Velocity S-wave (km/s) = 4.06810 4.43966 4.25794
# Velocity P-wave (km/s) = 7.22703 7.86174 7.55106
#
# Compressibility (1/GPa) = 0.01680036
#
# Stress axis : x y z
#
# Youngs Moduli (GPa) = 69.78559 57.07040 101.71361
#
# Poissons Ratio (x) = 0.16198 0.42888
# Poissons Ratio (y) = 0.19807 0.54790
# Poissons Ratio (z) = 0.29426 0.30742
#
# Static dielectric constant tensor:
#      x y z
#    x 1.719840 0.000000 0.000000 
#    y 0.000000 1.686050 0.000000 
#    z 0.000000 0.000000 1.711120 
# 
# From -- ./inp_files/40486.got.cif
#   From: 2010.05.17/outbox.cif.g08.bks.cpg/sg67_21_cif.got.tgz:40486.got - 2010.06.03 18:28:57.
