data_PCOD9504721
_publ_section_title
;
Structure prediction by ZEFSAII (Michael W. Deem and Ramdas Pophale) SiO2 
 PCOD9504721
Probable space group: C M M A
;
_chemical_formula_sum "Si O2"
_cell_formula_units_Z 112
_cell_length_a 17.566775
_cell_length_b 24.892441
_cell_length_c 15.262479
_cell_angle_alpha 90.000000
_cell_angle_beta 90.000000
_cell_angle_gamma 90.000000
_cell_volume 6673.975447
_symmetry_space_group_name_H-M "C M M A"
_symmetry_group_IT_number 67
_symmetry_cell_setting 'orthorhombic'
loop_
_space_group_symop_operation_xyz
x,y,z
-x,1/2-y,z
x,-y,-z
-x,1/2+y,-z
-x,-y,-z
x,1/2+y,-z
-x,y,z
x,1/2-y,z
1/2+x,1/2+y,z
1/2-x,-y,z
1/2+x,1/2-y,-z
1/2-x,y,-z
1/2-x,1/2-y,-z
1/2+x,y,-z
1/2-x,1/2+y,z
1/2+x,-y,z
loop_
_atom_site_type_symbol
_atom_site_label
_atom_site_fract_x
_atom_site_fract_y
_atom_site_fract_z
Si Si1 0.846976 0.810588 0.132541
Si Si2 0.686392 0.689437 0.232081
Si Si3 0.089890 0.411084 0.168563
Si Si4 0.660965 0.585587 0.979411
Si Si5 0.408644 0.971046 0.812285
Si Si6 0.216880 0.186770 0.594305
Si Si7 0.411851 0.632383 0.700918
O O1 0.864564 0.750000 0.105379
O O2 0.760766 0.812543 0.169573
O O3 0.852508 0.854236 0.056840
O O4 0.898306 0.828955 0.214775
O O5 0.653810 0.750000 0.224830
O O6 0.632734 0.640682 0.205539
O O7 0.719417 0.682089 0.329903
O O8 0.111102 0.468077 0.212999
O O9 0.000000 0.403437 0.176113
O O10 0.113155 0.420013 0.067537
O O11 0.633834 0.546995 0.900961
O O12 0.750000 0.577598 0.000000
O O13 0.500000 0.968674 0.828726
O O14 0.391803 0.926660 0.738407
O O15 0.194816 0.250000 0.591894
O O16 0.250000 0.171904 0.500000
O O17 0.145198 0.152274 0.626375
O O18 0.500000 0.633595 0.675069
#
# Coordination Sequence:
#
# PCOD9504721 Si02
#       7
#    16  16  16  16  16  16  16
#     4   9  18  32  48  69 101 136 168 212 262 296
#     4   9  18  35  54  72  98 132 168 206 251 306
#     4  11  22  35  50  70 100 139 175 210 256 303
#     4  11  20  32  47  74  98 133 178 219 252 299
#     4   9  20  36  51  70 101 134 169 220 266 292
#     4   9  18  34  56  82 110 134 158 199 255 305
#     4   9  17  32  54  79 103 132 171 211 252 301
#
# _framework density 16.781601999999999
#
# number of rings (size 3 to 8) (size 9 to 14) (size 15 to 20)
#    0.000    2.429    1.429    2.143    0.000    5.143 
#    0.000    0.714    0.000    4.286    0.000    3.000 
#    0.000    0.000    0.000    0.000    0.000    0.000 
#
# Total GULP energy -312357.694999 kJ/mol
# GULP energy per Si atom -5577.815982 kJ/mol
# Density = 1.674341 g / cm^3
# Si number density = 16.781602 Si / 1000 Ang^3
#
#
#
# Elastic Constant Matrix: (Units=GPa)
#
#
# Indices 1 2 3 4 5 6 
#
# 1 54.9589 56.0568 39.0536 0.0000 0.0000 0.0000
# 2 56.0568 144.0380 45.0683 0.0000 0.0000 0.0000
# 3 39.0536 45.0683 62.2434 0.0000 0.0000 0.0000
# 4 0.0000 0.0000 0.0000 10.7970 0.0000 0.0000
# 5 0.0000 0.0000 0.0000 0.0000 19.1164 0.0000
# 6 0.0000 0.0000 0.0000 0.0000 0.0000 24.8667
#
#
#
# Elastic Compliance Matrix: (Units=1/GPa)
#
#
# Indices 1 2 3 4 5 6 
#
# 1 0.042502 -0.010598 -0.018993 0.000000 0.000000 0.000000
# 2 -0.010598 0.011619 -0.001763 0.000000 0.000000 0.000000
# 3 -0.018993 -0.001763 0.029260 0.000000 0.000000 0.000000
# 4 0.000000 0.000000 0.000000 0.092619 0.000000 0.000000
# 5 0.000000 0.000000 0.000000 0.000000 0.052311 0.000000
# 6 0.000000 0.000000 0.000000 0.000000 0.000000 0.040214
#
#
# Mechanical properties :
#
#
# Convention : Reuss Voigt Hill
#
# Bulk Modulus (GPa) = 48.37675 60.17751 54.27713
# Shear Modulus (GPa) = 14.78747 19.02678 16.90713
#
# Velocity S-wave (km/s) = 2.97167 3.37083 3.17753
# Velocity P-wave (km/s) = 6.37686 7.14752 6.77316
#
# Compressibility (1/GPa) = 0.02067109
#
# Stress axis : x y z
#
# Youngs Moduli (GPa) = 23.52847 86.06695 34.17663
#
# Poissons Ratio (x) = 0.91213 0.64913
# Poissons Ratio (y) = 0.24935 0.06026
# Poissons Ratio (z) = 0.44688 0.15176
#
# Static dielectric constant tensor:
#      x y z
#    x 1.557760 0.000000 0.000000 
#    y 0.000000 1.592500 0.000000 
#    z 0.000000 0.000000 1.539130 
# 
# From -- ./inp_files/27685.got.cif
#   From: 2010.05.17/outbox.cif.g08.bks.cpg/sg67_14_cif.got.tgz:27685.got - 2010.06.03 18:28:57.
