data_PCOD9504507
_publ_section_title
;
Structure prediction by ZEFSAII (Michael W. Deem and Ramdas Pophale) SiO2 
 PCOD9504507
Probable space group: C M M A
;
_chemical_formula_sum "Si O2"
_cell_formula_units_Z 36
_cell_length_a 10.412625
_cell_length_b 14.491774
_cell_length_c 11.313750
_cell_angle_alpha 90.000000
_cell_angle_beta 90.000000
_cell_angle_gamma 90.000000
_cell_volume 1707.215553
_symmetry_space_group_name_H-M "C M M A"
_symmetry_group_IT_number 67
_symmetry_cell_setting 'orthorhombic'
loop_
_space_group_symop_operation_xyz
x,y,z
-x,1/2-y,z
x,-y,-z
-x,1/2+y,-z
-x,-y,-z
x,1/2+y,-z
-x,y,z
x,1/2-y,z
1/2+x,1/2+y,z
1/2-x,-y,z
1/2+x,1/2-y,-z
1/2-x,y,-z
1/2-x,1/2-y,-z
1/2+x,y,-z
1/2-x,1/2+y,z
1/2+x,-y,z
loop_
_atom_site_type_symbol
_atom_site_label
_atom_site_fract_x
_atom_site_fract_y
_atom_site_fract_z
Si Si1 0.142667 0.078457 0.223616
Si Si2 0.000000 0.889690 0.989877
Si Si3 0.000000 0.250000 0.796929
Si Si4 0.743585 0.250000 0.640468
O O1 0.121831 0.127961 0.095924
O O2 0.173660 0.157412 0.316511
O O3 0.000000 0.039290 0.250335
O O4 0.250000 0.000000 0.218784
O O5 0.000000 0.836172 0.111617
O O6 0.000000 0.000000 0.000000
O O7 0.877530 0.250000 0.711885
O O8 0.750000 0.250000 0.500000
#
# Coordination Sequence:
#
# PCOD9504507 Si02
#       4
#    16   8   4   8
#     4  10  24  46  73 104 144 184 230 292 365 416
#     4  10  22  41  71 107 141 172 223 296 356 430
#     4  12  26  40  74 106 134 192 238 282 358 426
#     4  12  28  46  70  99 145 191 248 291 339 409
#
# _framework density 21.086967999999999
#
# number of rings (size 3 to 8) (size 9 to 14) (size 15 to 20)
#    1.333    0.000    0.000    4.667    6.222    8.889 
#    0.000    2.222    0.000    0.000    0.000    0.000 
#    0.000    0.000    0.000    0.000    0.000    0.000 
#
# Total GULP energy -100464.364370 kJ/mol
# GULP energy per Si atom -5581.353576 kJ/mol
# Density = 2.103897 g / cm^3
# Si number density = 21.086968 Si / 1000 Ang^3
#
#
#
# Elastic Constant Matrix: (Units=GPa)
#
#
# Indices 1 2 3 4 5 6 
#
# 1 169.0070 67.8015 69.5133 0.0000 0.0000 0.0000
# 2 67.8015 119.4559 81.8337 0.0000 0.0000 0.0000
# 3 69.5133 81.8337 209.4033 0.0000 0.0000 0.0000
# 4 0.0000 0.0000 0.0000 25.5295 0.0000 0.0000
# 5 0.0000 0.0000 0.0000 0.0000 17.7388 0.0000
# 6 0.0000 0.0000 0.0000 0.0000 0.0000 33.3975
#
#
#
# Elastic Compliance Matrix: (Units=1/GPa)
#
#
# Indices 1 2 3 4 5 6 
#
# 1 0.007871 -0.003656 -0.001184 0.000000 0.000000 0.000000
# 2 -0.003656 0.013130 -0.003918 0.000000 0.000000 0.000000
# 3 -0.001184 -0.003918 0.006699 0.000000 0.000000 0.000000
# 4 0.000000 0.000000 0.000000 0.039170 0.000000 0.000000
# 5 0.000000 0.000000 0.000000 0.000000 0.056374 0.000000
# 6 0.000000 0.000000 0.000000 0.000000 0.000000 0.029942
#
#
# Mechanical properties :
#
#
# Convention : Reuss Voigt Hill
#
# Bulk Modulus (GPa) = 98.18339 104.01811 101.10075
# Shear Modulus (GPa) = 28.71962 33.91433 31.31698
#
# Velocity S-wave (km/s) = 3.69448 4.01472 3.85792
# Velocity P-wave (km/s) = 8.05364 8.42175 8.23975
#
# Compressibility (1/GPa) = 0.01018502
#
# Stress axis : x y z
#
# Youngs Moduli (GPa) = 127.05431 76.16015 149.26671
#
# Poissons Ratio (x) = 0.27846 0.17672
# Poissons Ratio (y) = 0.46454 0.58475
# Poissons Ratio (z) = 0.15042 0.29836
#
# Static dielectric constant tensor:
#      x y z
#    x 1.802870 0.000000 0.000000 
#    y 0.000000 1.745340 0.000000 
#    z 0.000000 0.000000 1.774860 
# 
# From -- ./inp_files/16001.got.cif
#   From: 2010.05.17/outbox.cif.g08.bks.cpg/sg67_9_cif.got.tgz:16001.got - 2010.06.03 18:28:57.
