data_PCOD9504242
_publ_section_title
;
Structure prediction by ZEFSAII (Michael W. Deem and Ramdas Pophale) SiO2 
 PCOD9504242
Probable space group: C M M A
;
_chemical_formula_sum "Si O2"
_cell_formula_units_Z 104
_cell_length_a 9.631810
_cell_length_b 29.304824
_cell_length_c 18.870882
_cell_angle_alpha 90.000000
_cell_angle_beta 90.000000
_cell_angle_gamma 90.000000
_cell_volume 5326.466788
_symmetry_space_group_name_H-M "C M M A"
_symmetry_group_IT_number 67
_symmetry_cell_setting 'orthorhombic'
loop_
_space_group_symop_operation_xyz
x,y,z
-x,1/2-y,z
x,-y,-z
-x,1/2+y,-z
-x,-y,-z
x,1/2+y,-z
-x,y,z
x,1/2-y,z
1/2+x,1/2+y,z
1/2-x,-y,z
1/2+x,1/2-y,-z
1/2-x,y,-z
1/2-x,1/2-y,-z
1/2+x,y,-z
1/2-x,1/2+y,z
1/2+x,-y,z
loop_
_atom_site_type_symbol
_atom_site_label
_atom_site_fract_x
_atom_site_fract_y
_atom_site_fract_z
Si Si1 0.739062 0.896721 0.844357
Si Si2 0.500000 0.452222 0.899901
Si Si3 0.339319 0.803170 0.199209
Si Si4 0.500000 0.941107 0.931336
Si Si5 0.663836 0.331725 0.636718
Si Si6 0.166634 0.250000 0.572840
Si Si7 0.332273 0.416930 0.428758
Si Si8 0.842948 0.541361 0.278513
O O1 0.872328 0.926941 0.863070
O O2 0.761707 0.842392 0.844854
O O3 0.629488 0.913737 0.901306
O O4 0.690677 0.913426 0.766323
O O5 0.500000 0.507401 0.899217
O O6 0.500000 0.442778 0.984198
O O7 0.500000 0.802185 0.175939
O O8 0.290021 0.750000 0.199146
O O9 0.340228 0.823969 0.278857
O O10 0.500000 0.327758 0.613251
O O11 0.770434 0.293116 0.612247
O O12 0.737066 0.375853 0.602742
O O13 0.250000 0.250000 0.500000
O O14 0.000000 0.250000 0.566147
O O15 0.500000 0.406736 0.440989
O O16 0.250000 0.431460 0.500000
O O17 0.328767 0.451405 0.362623
O O18 0.750000 0.500000 0.253690
O O19 0.000000 0.529034 0.263881
#
# Coordination Sequence:
#
# PCOD9504242 Si02
#       8
#    16   8  16   8  16   8  16  16
#     4  12  22  41  67 101 134 176 221 272 327 382
#     4  11  24  42  69 103 138 190 210 251 325 395
#     4  10  21  40  66  95 128 171 225 274 327 393
#     4  11  24  42  67 103 150 170 216 263 317 399
#     4  11  21  38  60  87 117 160 214 273 337 397
#     4  12  24  38  56  82 116 158 203 268 343 405
#     4  11  24  42  60  86 124 169 218 276 338 398
#     4  11  25  41  64  94 130 171 221 276 331 397
#
# _framework density 19.525138999999999
#
# number of rings (size 3 to 8) (size 9 to 14) (size 15 to 20)
#    0.000    0.923    3.846    3.923    1.077    2.769 
#    1.385    1.923    0.000    2.769    0.000    0.000 
#    0.000    0.000    0.000    0.000    0.000    0.000 
#
# Total GULP energy -289869.035242 kJ/mol
# GULP energy per Si atom -5574.404524 kJ/mol
# Density = 1.948070 g / cm^3
# Si number density = 19.525139 Si / 1000 Ang^3
#
#
#
# Elastic Constant Matrix: (Units=GPa)
#
#
# Indices 1 2 3 4 5 6 
#
# 1 158.4495 44.2906 26.2941 0.0000 0.0000 0.0000
# 2 44.2906 85.8147 17.8369 0.0000 0.0000 0.0000
# 3 26.2941 17.8369 82.4172 0.0000 0.0000 0.0000
# 4 0.0000 0.0000 0.0000 26.3798 0.0000 0.0000
# 5 0.0000 0.0000 0.0000 0.0000 16.4372 0.0000
# 6 0.0000 0.0000 0.0000 0.0000 0.0000 18.9305
#
#
#
# Elastic Compliance Matrix: (Units=1/GPa)
#
#
# Indices 1 2 3 4 5 6 
#
# 1 0.007583 -0.003571 -0.001646 0.000000 0.000000 0.000000
# 2 -0.003571 0.013884 -0.001865 0.000000 0.000000 0.000000
# 3 -0.001646 -0.001865 0.013062 0.000000 0.000000 0.000000
# 4 0.000000 0.000000 0.000000 0.037908 0.000000 0.000000
# 5 0.000000 0.000000 0.000000 0.000000 0.060838 0.000000
# 6 0.000000 0.000000 0.000000 0.000000 0.000000 0.052825
#
#
# Mechanical properties :
#
#
# Convention : Reuss Voigt Hill
#
# Bulk Modulus (GPa) = 49.10878 55.94717 52.52797
# Shear Modulus (GPa) = 24.14843 28.23348 26.19095
#
# Velocity S-wave (km/s) = 3.52061 3.80676 3.66648
# Velocity P-wave (km/s) = 6.46007 6.93095 6.69965
#
# Compressibility (1/GPa) = 0.02036296
#
# Stress axis : x y z
#
# Youngs Moduli (GPa) = 131.88043 72.02531 76.55618
#
# Poissons Ratio (x) = 0.25723 0.12603
# Poissons Ratio (y) = 0.47099 0.14281
# Poissons Ratio (z) = 0.21710 0.13436
#
# Static dielectric constant tensor:
#      x y z
#    x 1.726180 0.000000 0.000000 
#    y 0.000000 2.073730 0.000000 
#    z 0.000000 0.000000 1.743320 
# 
# From -- ./inp_files/37365.got.cif
#   From: 2010.05.17/outbox.cif.g08.bks.cpg/sg67_19_cif.got.tgz:37365.got - 2010.06.03 18:28:57.
