data_PCOD9504266
_publ_section_title
;
Structure prediction by ZEFSAII (Michael W. Deem and Ramdas Pophale) SiO2 
 PCOD9504266
Probable space group: C M M A
;
_chemical_formula_sum "Si O2"
_cell_formula_units_Z 112
_cell_length_a 28.963714
_cell_length_b 29.359822
_cell_length_c 6.222392
_cell_angle_alpha 90.000000
_cell_angle_beta 90.000000
_cell_angle_gamma 90.000000
_cell_volume 5291.332296
_symmetry_space_group_name_H-M "C M M A"
_symmetry_group_IT_number 67
_symmetry_cell_setting 'orthorhombic'
loop_
_space_group_symop_operation_xyz
x,y,z
-x,1/2-y,z
x,-y,-z
-x,1/2+y,-z
-x,-y,-z
x,1/2+y,-z
-x,y,z
x,1/2-y,z
1/2+x,1/2+y,z
1/2-x,-y,z
1/2+x,1/2-y,-z
1/2-x,y,-z
1/2-x,1/2-y,-z
1/2+x,y,-z
1/2-x,1/2+y,z
1/2+x,-y,z
loop_
_atom_site_type_symbol
_atom_site_label
_atom_site_fract_x
_atom_site_fract_y
_atom_site_fract_z
Si Si1 0.263846 0.446355 0.755276
Si Si2 0.447832 0.545433 0.141263
Si Si3 0.139096 0.139251 0.625281
Si Si4 0.298595 0.699055 0.888742
Si Si5 0.141861 0.950484 0.581424
Si Si6 0.052631 0.644982 0.071904
Si Si7 0.616562 0.198597 0.776607
O O1 0.250000 0.500000 0.758176
O O2 0.250000 0.431794 0.500000
O O3 0.318935 0.438192 0.752083
O O4 0.250000 0.429155 0.000000
O O5 0.500000 0.541943 0.229431
O O6 0.445567 0.592531 0.008203
O O7 0.439667 0.500000 0.000000
O O8 0.408857 0.548868 0.320016
O O9 0.184662 0.161556 0.723031
O O10 0.143837 0.085498 0.609335
O O11 0.092115 0.150362 0.750898
O O12 0.131592 0.161647 0.395611
O O13 0.295264 0.750000 0.790561
O O14 0.250000 0.689431 0.000000
O O15 0.340834 0.700475 0.057016
O O16 0.153809 0.000000 0.500000
O O17 0.000000 0.654505 0.138041
O O18 0.070378 0.679334 0.887577
O O19 0.610156 0.250000 0.691000
#
# Coordination Sequence:
#
# PCOD9504266 Si02
#       7
#    16  16  16  16  16  16  16
#     4  10  22  44  64  94 129 182 232 285 349 406
#     4  10  22  40  64  93 127 171 219 276 340 405
#     4  11  23  40  62  99 128 172 224 273 338 404
#     4   9  20  42  68  94 129 170 213 276 343 409
#     4  12  24  41  65  96 131 179 228 282 348 411
#     4  10  22  42  64  93 131 170 214 271 334 406
#     4  10  21  41  65  94 128 165 216 272 332 407
#
# _framework density 21.166691
#
# number of rings (size 3 to 8) (size 9 to 14) (size 15 to 20)
#    0.000    1.714    2.857    1.286    2.000    4.000 
#    2.571    2.857    0.000    0.000    0.000    0.000 
#    0.000    0.000    0.000    0.000    0.000    0.000 
#
# Total GULP energy -312331.581627 kJ/mol
# GULP energy per Si atom -5577.349672 kJ/mol
# Density = 2.111851 g / cm^3
# Si number density = 21.166691 Si / 1000 Ang^3
#
#
#
# Elastic Constant Matrix: (Units=GPa)
#
#
# Indices 1 2 3 4 5 6 
#
# 1 125.2441 28.1560 26.0891 0.0000 0.0000 0.0000
# 2 28.1560 87.8487 16.3015 0.0000 0.0000 0.0000
# 3 26.0891 16.3015 62.3628 0.0000 0.0000 0.0000
# 4 0.0000 0.0000 0.0000 21.4025 0.0000 0.0000
# 5 0.0000 0.0000 0.0000 0.0000 26.7255 0.0000
# 6 0.0000 0.0000 0.0000 0.0000 0.0000 3.7160
#
#
#
# Elastic Compliance Matrix: (Units=1/GPa)
#
#
# Indices 1 2 3 4 5 6 
#
# 1 0.009184 -0.002344 -0.003229 0.000000 0.000000 0.000000
# 2 -0.002344 0.012562 -0.002303 0.000000 0.000000 0.000000
# 3 -0.003229 -0.002303 0.017988 0.000000 0.000000 0.000000
# 4 0.000000 0.000000 0.000000 0.046723 0.000000 0.000000
# 5 0.000000 0.000000 0.000000 0.000000 0.037417 0.000000
# 6 0.000000 0.000000 0.000000 0.000000 0.000000 0.269103
#
#
# Mechanical properties :
#
#
# Convention : Reuss Voigt Hill
#
# Bulk Modulus (GPa) = 41.69958 46.28320 43.99139
# Shear Modulus (GPa) = 11.99832 24.02941 18.01387
#
# Velocity S-wave (km/s) = 2.38344 3.37300 2.92044
# Velocity P-wave (km/s) = 5.22664 6.08958 5.67454
#
# Compressibility (1/GPa) = 0.02398106
#
# Stress axis : x y z
#
# Youngs Moduli (GPa) = 108.88357 79.60573 55.59217
#
# Poissons Ratio (x) = 0.18662 0.17952
# Poissons Ratio (y) = 0.25526 0.12802
# Poissons Ratio (z) = 0.35162 0.18333
#
# Static dielectric constant tensor:
#      x y z
#    x 1.744440 0.000000 0.000000 
#    y 0.000000 1.773750 0.000000 
#    z 0.000000 0.000000 1.801590 
# 
# From -- ./inp_files/4913.got.cif
#   From: 2010.05.17/outbox.cif.g08.bks.cpg/sg67_3_cif.got.tgz:4913.got - 2010.06.03 18:28:57.
