data_PCOD9504444
_publ_section_title
;
Structure prediction by ZEFSAII (Michael W. Deem and Ramdas Pophale) SiO2 
 PCOD9504444
Probable space group: C M M A
;
_chemical_formula_sum "Si O2"
_cell_formula_units_Z 80
_cell_length_a 8.683092
_cell_length_b 18.627834
_cell_length_c 26.112337
_cell_angle_alpha 90.000000
_cell_angle_beta 90.000000
_cell_angle_gamma 90.000000
_cell_volume 4223.597301
_symmetry_space_group_name_H-M "C M M A"
_symmetry_group_IT_number 67
_symmetry_cell_setting 'orthorhombic'
loop_
_space_group_symop_operation_xyz
x,y,z
-x,1/2-y,z
x,-y,-z
-x,1/2+y,-z
-x,-y,-z
x,1/2+y,-z
-x,y,z
x,1/2-y,z
1/2+x,1/2+y,z
1/2-x,-y,z
1/2+x,1/2-y,-z
1/2-x,y,-z
1/2-x,1/2-y,-z
1/2+x,y,-z
1/2-x,1/2+y,z
1/2+x,-y,z
loop_
_atom_site_type_symbol
_atom_site_label
_atom_site_fract_x
_atom_site_fract_y
_atom_site_fract_z
Si Si1 0.316506 0.579621 0.444870
Si Si2 0.185296 0.833610 0.350415
Si Si3 0.184249 0.920434 0.055678
Si Si4 0.684362 0.834276 0.150460
Si Si5 0.814899 0.419687 0.752485
O O1 0.500000 0.575438 0.447804
O O2 0.250000 0.500000 0.434469
O O3 0.250000 0.602513 0.500000
O O4 0.263902 0.631915 0.399844
O O5 0.225578 0.750000 0.344473
O O6 0.227506 0.877953 0.299621
O O7 0.000000 0.838644 0.356487
O O8 0.240708 0.867044 0.099512
O O9 0.000000 0.923670 0.053730
O O10 0.250000 0.000000 0.067100
O O11 0.250000 0.899757 0.000000
O O12 0.500000 0.842635 0.147612
O O13 0.720394 0.750000 0.155452
O O14 0.747989 0.877354 0.199088
O O15 0.750000 0.500000 0.751307
O O16 0.000000 0.421690 0.756220
#
# Coordination Sequence:
#
# PCOD9504444 Si02
#       5
#    16  16  16  16  16
#     4  11  22  38  61  87 117 154 197 243 291 345
#     4  10  22  40  61  87 120 155 193 240 293 348
#     4  11  22  39  63  89 120 156 198 244 291 346
#     4  11  24  41  61  87 120 156 196 243 294 348
#     4  11  23  40  63  89 118 154 196 241 291 347
#
# _framework density 18.941199000000001
#
# number of rings (size 3 to 8) (size 9 to 14) (size 15 to 20)
#    0.000    1.200    0.000    7.800    0.000    6.800 
#    0.000    0.000    0.000    0.000    0.000    0.000 
#    0.000    0.000    0.000    0.000    0.000    0.000 
#
# Total GULP energy -223805.948011 kJ/mol
# GULP energy per Si atom -5595.148700 kJ/mol
# Density = 1.889809 g / cm^3
# Si number density = 18.941199 Si / 1000 Ang^3
#
#
#
# Elastic Constant Matrix: (Units=GPa)
#
#
# Indices 1 2 3 4 5 6 
#
# 1 119.4140 90.9005 85.4998 0.0000 0.0000 0.0000
# 2 90.9005 164.0725 131.3529 0.0000 0.0000 0.0000
# 3 85.4998 131.3529 162.1938 0.0000 0.0000 0.0000
# 4 0.0000 0.0000 0.0000 144.1393 0.0000 0.0000
# 5 0.0000 0.0000 0.0000 0.0000 43.8942 0.0000
# 6 0.0000 0.0000 0.0000 0.0000 0.0000 -45.2475
#
#
#
# Elastic Compliance Matrix: (Units=1/GPa)
#
#
# Indices 1 2 3 4 5 6 
#
# 1 0.015103 -0.005669 -0.003370 0.000000 0.000000 0.000000
# 2 -0.005669 0.019460 -0.012771 0.000000 0.000000 0.000000
# 3 -0.003370 -0.012771 0.018285 0.000000 0.000000 0.000000
# 4 0.000000 0.000000 0.000000 0.006938 0.000000 0.000000
# 5 0.000000 0.000000 0.000000 0.000000 0.022782 0.000000
# 6 0.000000 0.000000 0.000000 0.000000 0.000000 -0.022101
#
#
# Mechanical properties :
#
#
# Convention : Reuss Voigt Hill
#
# Bulk Modulus (GPa) = 108.38419 117.90961 113.14690
# Shear Modulus (GPa) = 46.65732 37.75233 42.20482
#
# Velocity S-wave (km/s) = 4.96852 4.46930 4.72550
# Velocity P-wave (km/s) = 9.50055 9.43495 9.46781
#
# Compressibility (1/GPa) = 0.00922644
#
# Stress axis : x y z
#
# Youngs Moduli (GPa) = 66.21288 51.38650 54.68989
#
# Poissons Ratio (x) = 0.29133 0.18431
# Poissons Ratio (y) = 0.37539 0.69847
# Poissons Ratio (z) = 0.22314 0.65628
#
# Static dielectric constant tensor:
#      x y z
#    x 1.760020 0.000000 0.000000 
#    y 0.000000 1.626320 0.000000 
#    z 0.000000 0.000000 1.625740 
# 
# From -- ./inp_files/43202.got.cif
#   From: 2010.05.17/outbox.cif.g08.bks.cpg/sg67_22_cif.got.tgz:43202.got - 2010.06.03 18:28:57.
