data_PCOD9504285
_publ_section_title
;
Structure prediction by ZEFSAII (Michael W. Deem and Ramdas Pophale) SiO2 
 PCOD9504285
Probable space group: C M M A
;
_chemical_formula_sum "Si O2"
_cell_formula_units_Z 96
_cell_length_a 17.670765
_cell_length_b 25.546994
_cell_length_c 10.231331
_cell_angle_alpha 90.000000
_cell_angle_beta 90.000000
_cell_angle_gamma 90.000000
_cell_volume 4618.780168
_symmetry_space_group_name_H-M "C M M A"
_symmetry_group_IT_number 67
_symmetry_cell_setting 'orthorhombic'
loop_
_space_group_symop_operation_xyz
x,y,z
-x,1/2-y,z
x,-y,-z
-x,1/2+y,-z
-x,-y,-z
x,1/2+y,-z
-x,y,z
x,1/2-y,z
1/2+x,1/2+y,z
1/2-x,-y,z
1/2+x,1/2-y,-z
1/2-x,y,-z
1/2-x,1/2-y,-z
1/2+x,y,-z
1/2-x,1/2+y,z
1/2+x,-y,z
loop_
_atom_site_type_symbol
_atom_site_label
_atom_site_fract_x
_atom_site_fract_y
_atom_site_fract_z
Si Si1 0.298687 0.189396 0.295340
Si Si2 0.587058 0.537947 0.611988
Si Si3 0.658277 0.809229 0.982261
Si Si4 0.646218 0.127981 0.766921
Si Si5 0.583367 0.844677 0.503683
Si Si6 0.339539 0.491444 0.852534
O O1 0.271966 0.250000 0.280567
O O2 0.228903 0.149488 0.279947
O O3 0.347282 0.184623 0.426718
O O4 0.352783 0.178244 0.170063
O O5 0.620659 0.500000 0.500000
O O6 0.500000 0.521070 0.631119
O O7 0.588190 0.596702 0.561079
O O8 0.627836 0.532110 0.749096
O O9 0.633320 0.750000 0.006631
O O10 0.627219 0.846549 0.093359
O O11 0.750000 0.811084 0.000000
O O12 0.593291 0.147946 0.650917
O O13 0.645236 0.066048 0.792560
O O14 0.500000 0.822644 0.533427
O O15 0.250000 0.500000 0.858437
O O16 0.369183 0.500000 0.000000
#
# Coordination Sequence:
#
# PCOD9504285 Si02
#       6
#    16  16  16  16  16  16
#     4  10  22  40  65  91 118 157 201 244 300 367
#     4  10  21  42  62  80 117 164 206 241 291 359
#     4   8  17  34  59  85 111 147 190 238 291 349
#     4  11  21  37  61  88 121 154 199 244 298 364
#     4  11  24  40  60  87 119 159 202 250 296 349
#     4  11  25  36  56  93 124 153 193 254 305 348
#
# _framework density 20.784708999999999
#
# number of rings (size 3 to 8) (size 9 to 14) (size 15 to 20)
#    0.000    1.833    1.667    3.000    9.333    3.000 
#    0.000    0.833    0.000    1.000    0.000    0.000 
#    0.000    0.000    0.000    0.000    0.000    0.000 
#
# Total GULP energy -267961.030793 kJ/mol
# GULP energy per Si atom -5582.521475 kJ/mol
# Density = 2.073740 g / cm^3
# Si number density = 20.784709 Si / 1000 Ang^3
#
#
#
# Elastic Constant Matrix: (Units=GPa)
#
#
# Indices 1 2 3 4 5 6 
#
# 1 29.9194 -1.1979 7.8367 0.0000 0.0000 0.0000
# 2 -1.1979 43.0907 0.6563 0.0000 0.0000 0.0000
# 3 7.8367 0.6563 102.8467 0.0000 0.0000 0.0000
# 4 0.0000 0.0000 0.0000 150.6575 0.0000 0.0000
# 5 0.0000 0.0000 0.0000 0.0000 69.7939 0.0000
# 6 0.0000 0.0000 0.0000 0.0000 0.0000 4.7121
#
#
#
# Elastic Compliance Matrix: (Units=1/GPa)
#
#
# Indices 1 2 3 4 5 6 
#
# 1 0.034146 0.000989 -0.002608 0.000000 0.000000 0.000000
# 2 0.000989 0.023238 -0.000224 0.000000 0.000000 0.000000
# 3 -0.002608 -0.000224 0.009923 0.000000 0.000000 0.000000
# 4 0.000000 0.000000 0.000000 0.006638 0.000000 0.000000
# 5 0.000000 0.000000 0.000000 0.000000 0.014328 0.000000
# 6 0.000000 0.000000 0.000000 0.000000 0.000000 0.212218
#
#
# Mechanical properties :
#
#
# Convention : Reuss Voigt Hill
#
# Bulk Modulus (GPa) = 15.71799 21.16078 18.43939
# Shear Modulus (GPa) = 15.36648 56.27015 35.81831
#
# Velocity S-wave (km/s) = 2.72199 5.20880 4.15577
# Velocity P-wave (km/s) = 4.17824 6.81018 5.64961
#
# Compressibility (1/GPa) = 0.06362135
#
# Stress axis : x y z
#
# Youngs Moduli (GPa) = 29.28611 43.03339 100.77217
#
# Poissons Ratio (x) = -0.04256 0.26283
# Poissons Ratio (y) = -0.02896 0.02254
# Poissons Ratio (z) = 0.07638 0.00962
#
# Static dielectric constant tensor:
#      x y z
#    x 1.779650 0.000000 0.000000 
#    y 0.000000 1.764320 0.000000 
#    z 0.000000 0.000000 1.778470 
# 
# From -- ./inp_files/11458.got.cif
#   From: 2010.05.17/outbox.cif.g08.bks.cpg/sg67_6_cif.got.tgz:11458.got - 2010.06.03 18:28:57.
