data_PCOD9504565
_publ_section_title
;
Structure prediction by ZEFSAII (Michael W. Deem and Ramdas Pophale) SiO2 
 PCOD9504565
Probable space group: C M M A
;
_chemical_formula_sum "Si O2"
_cell_formula_units_Z 96
_cell_length_a 8.752533
_cell_length_b 29.437139
_cell_length_c 20.871772
_cell_angle_alpha 90.000000
_cell_angle_beta 90.000000
_cell_angle_gamma 90.000000
_cell_volume 5377.602257
_symmetry_space_group_name_H-M "C M M A"
_symmetry_group_IT_number 67
_symmetry_cell_setting 'orthorhombic'
loop_
_space_group_symop_operation_xyz
x,y,z
-x,1/2-y,z
x,-y,-z
-x,1/2+y,-z
-x,-y,-z
x,1/2+y,-z
-x,y,z
x,1/2-y,z
1/2+x,1/2+y,z
1/2-x,-y,z
1/2+x,1/2-y,-z
1/2-x,y,-z
1/2-x,1/2-y,-z
1/2+x,y,-z
1/2-x,1/2+y,z
1/2+x,-y,z
loop_
_atom_site_type_symbol
_atom_site_label
_atom_site_fract_x
_atom_site_fract_y
_atom_site_fract_z
Si Si1 0.684265 0.550389 0.807897
Si Si2 0.817509 0.451027 0.429460
Si Si3 0.682913 0.301558 0.734385
Si Si4 0.682468 0.391938 0.317848
Si Si5 0.817614 0.606118 0.066720
Si Si6 0.183266 0.698836 0.886630
O O1 0.500000 0.548192 0.808873
O O2 0.750000 0.500000 0.805381
O O3 0.728491 0.579064 0.745119
O O4 0.734627 0.576763 0.872055
O O5 0.750000 0.500000 0.408874
O O6 0.750000 0.441902 0.500000
O O7 0.764076 0.413583 0.378994
O O8 0.000000 0.453933 0.432730
O O9 0.500000 0.306828 0.726902
O O10 0.723553 0.250000 0.715649
O O11 0.768709 0.340431 0.695944
O O12 0.715531 0.306009 0.810500
O O13 0.500000 0.395304 0.325355
O O14 0.763991 0.657861 0.077535
O O15 0.000000 0.604767 0.064150
O O16 0.750000 0.588920 0.000000
O O17 0.229717 0.750000 0.905997
O O18 0.000000 0.695337 0.894809
#
# Coordination Sequence:
#
# PCOD9504565 Si02
#       6
#    16  16  16  16  16  16
#     4  10  23  39  56  79 107 139 182 230 278 330
#     4  11  22  38  59  87 121 158 194 233 279 331
#     4   9  18  33  55  84 115 147 185 229 279 333
#     4  11  21  36  58  87 118 150 189 232 277 331
#     4  11  23  39  55  77 105 141 183 229 282 338
#     4   9  18  34  56  81 108 140 179 224 277 334
#
# _framework density 17.851821999999999
#
# number of rings (size 3 to 8) (size 9 to 14) (size 15 to 20)
#    0.000    1.833    1.667    4.500    0.000    5.333 
#    0.000    3.333    0.000    0.500    0.000    0.000 
#    0.000    0.000    0.000    0.000    0.000    0.000 
#
# Total GULP energy -268152.451062 kJ/mol
# GULP energy per Si atom -5586.509397 kJ/mol
# Density = 1.781119 g / cm^3
# Si number density = 17.851822 Si / 1000 Ang^3
#
#
#
# Elastic Constant Matrix: (Units=GPa)
#
#
# Indices 1 2 3 4 5 6 
#
# 1 62.8995 36.4806 37.8064 0.0000 0.0000 0.0000
# 2 36.4806 108.9322 49.7929 0.0000 0.0000 0.0000
# 3 37.8064 49.7929 73.1266 0.0000 0.0000 0.0000
# 4 0.0000 0.0000 0.0000 13.1398 0.0000 0.0000
# 5 0.0000 0.0000 0.0000 0.0000 23.3972 0.0000
# 6 0.0000 0.0000 0.0000 0.0000 0.0000 34.6315
#
#
#
# Elastic Compliance Matrix: (Units=1/GPa)
#
#
# Indices 1 2 3 4 5 6 
#
# 1 0.023914 -0.003422 -0.010033 0.000000 0.000000 0.000000
# 2 -0.003422 0.013818 -0.007640 0.000000 0.000000 0.000000
# 3 -0.010033 -0.007640 0.024064 0.000000 0.000000 0.000000
# 4 0.000000 0.000000 0.000000 0.076105 0.000000 0.000000
# 5 0.000000 0.000000 0.000000 0.000000 0.042740 0.000000
# 6 0.000000 0.000000 0.000000 0.000000 0.000000 0.028875
#
#
# Mechanical properties :
#
#
# Convention : Reuss Voigt Hill
#
# Bulk Modulus (GPa) = 51.00548 54.79091 52.89820
# Shear Modulus (GPa) = 19.36170 22.29225 20.82698
#
# Velocity S-wave (km/s) = 3.29687 3.53758 3.41934
# Velocity P-wave (km/s) = 6.56704 6.88801 6.72944
#
# Compressibility (1/GPa) = 0.01960574
#
# Stress axis : x y z
#
# Youngs Moduli (GPa) = 41.81684 72.36810 41.55598
#
# Poissons Ratio (x) = 0.24768 0.41693
# Poissons Ratio (y) = 0.14312 0.31747
# Poissons Ratio (z) = 0.41955 0.55286
#
# Static dielectric constant tensor:
#      x y z
#    x 1.599300 0.000000 0.000000 
#    y 0.000000 1.591980 0.000000 
#    z 0.000000 0.000000 1.602600 
# 
# From -- ./inp_files/37179.got.cif
#   From: 2010.05.17/outbox.cif.g08.bks.cpg/sg67_19_cif.got.tgz:37179.got - 2010.06.03 18:28:57.
