data_PCOD9504013
_publ_section_title
;
Structure prediction by ZEFSAII (Michael W. Deem and Ramdas Pophale) SiO2 
 PCOD9504013
Probable space group: C M M A
;
_chemical_formula_sum "Si O2"
_cell_formula_units_Z 112
_cell_length_a 14.343488
_cell_length_b 23.205918
_cell_length_c 16.687028
_cell_angle_alpha 90.000000
_cell_angle_beta 90.000000
_cell_angle_gamma 90.000000
_cell_volume 5554.340787
_symmetry_space_group_name_H-M "C M M A"
_symmetry_group_IT_number 67
_symmetry_cell_setting 'orthorhombic'
loop_
_space_group_symop_operation_xyz
x,y,z
-x,1/2-y,z
x,-y,-z
-x,1/2+y,-z
-x,-y,-z
x,1/2+y,-z
-x,y,z
x,1/2-y,z
1/2+x,1/2+y,z
1/2-x,-y,z
1/2+x,1/2-y,-z
1/2-x,y,-z
1/2-x,1/2-y,-z
1/2+x,y,-z
1/2-x,1/2+y,z
1/2+x,-y,z
loop_
_atom_site_type_symbol
_atom_site_label
_atom_site_fract_x
_atom_site_fract_y
_atom_site_fract_z
Si Si1 0.760106 0.817665 0.728980
Si Si2 0.604441 0.000324 0.597585
Si Si3 0.612211 0.857346 0.854433
Si Si4 0.612924 0.687832 0.025496
Si Si5 0.387805 0.896723 0.164701
Si Si6 0.113263 0.986004 0.091846
Si Si7 0.251753 0.903258 0.595954
O O1 0.780973 0.750000 0.731689
O O2 0.667639 0.832122 0.779965
O O3 0.839273 0.857800 0.768912
O O4 0.747951 0.842920 0.640270
O O5 0.500000 0.001868 0.629331
O O6 0.663887 0.056460 0.619566
O O7 0.601859 0.000000 0.500000
O O8 0.659707 0.942620 0.620283
O O9 0.500000 0.854423 0.844236
O O10 0.638943 0.923341 0.875162
O O11 0.639284 0.821995 0.934018
O O12 0.500000 0.688315 0.026611
O O13 0.645852 0.750000 0.055597
O O14 0.639055 0.635321 0.081759
O O15 0.500000 0.895127 0.173716
O O16 0.358462 0.962790 0.151971
O O17 0.000000 0.986458 0.088947
O O18 0.142736 0.000000 0.000000
O O19 0.250000 0.897546 0.500000
#
# Coordination Sequence:
#
# PCOD9504013 Si02
#       7
#    16  16  16  16  16  16  16
#     4  12  27  41  55  81 116 156 205 251 289 338
#     4   8  15  33  65  98 121 141 173 227 292 355
#     4  10  21  38  59  84 115 150 190 241 297 349
#     4   9  16  30  54  77 105 151 192 222 272 340
#     4  10  21  38  59  84 115 150 190 241 297 349
#     4   9  16  33  60  86 114 149 186 231 291 351
#     4   9  20  39  62  89 121 155 193 238 291 355
#
# _framework density 20.164408999999999
#
# number of rings (size 3 to 8) (size 9 to 14) (size 15 to 20)
#    0.000    2.429    1.429    1.714    0.000    6.571 
#    0.000    3.571    0.000    0.000    0.000    6.000 
#    0.000    0.000    0.000    0.000    0.000    0.000 
#
# Total GULP energy -312790.607964 kJ/mol
# GULP energy per Si atom -5585.546571 kJ/mol
# Density = 2.011851 g / cm^3
# Si number density = 20.164409 Si / 1000 Ang^3
#
#
#
# Elastic Constant Matrix: (Units=GPa)
#
#
# Indices 1 2 3 4 5 6 
#
# 1 82.3476 8.8607 11.3033 0.0000 0.0000 0.0000
# 2 8.8607 130.2833 34.5604 0.0000 0.0000 0.0000
# 3 11.3033 34.5604 57.4254 0.0000 0.0000 0.0000
# 4 0.0000 0.0000 0.0000 26.9659 0.0000 0.0000
# 5 0.0000 0.0000 0.0000 0.0000 17.5290 0.0000
# 6 0.0000 0.0000 0.0000 0.0000 0.0000 15.5839
#
#
#
# Elastic Compliance Matrix: (Units=1/GPa)
#
#
# Indices 1 2 3 4 5 6 
#
# 1 0.012487 -0.000235 -0.002317 0.000000 0.000000 0.000000
# 2 -0.000235 0.009138 -0.005453 0.000000 0.000000 0.000000
# 3 -0.002317 -0.005453 0.021152 0.000000 0.000000 0.000000
# 4 0.000000 0.000000 0.000000 0.037084 0.000000 0.000000
# 5 0.000000 0.000000 0.000000 0.000000 0.057048 0.000000
# 6 0.000000 0.000000 0.000000 0.000000 0.000000 0.064169
#
#
# Mechanical properties :
#
#
# Convention : Reuss Voigt Hill
#
# Bulk Modulus (GPa) = 37.35874 42.16725 39.76300
# Shear Modulus (GPa) = 22.12293 26.37123 24.24708
#
# Velocity S-wave (km/s) = 3.31588 3.62029 3.47143
# Velocity P-wave (km/s) = 5.76432 6.19939 5.98581
#
# Compressibility (1/GPa) = 0.02676750
#
# Stress axis : x y z
#
# Youngs Moduli (GPa) = 80.08406 109.43090 47.27702
#
# Poissons Ratio (x) = 0.02569 0.10952
# Poissons Ratio (y) = 0.01880 0.25782
# Poissons Ratio (z) = 0.18552 0.59678
#
# Static dielectric constant tensor:
#      x y z
#    x 1.761160 0.000000 0.000000 
#    y 0.000000 1.683730 0.000000 
#    z 0.000000 0.000000 1.716720 
# 
# From -- ./inp_files/27470.got.cif
#   From: 2010.05.17/outbox.cif.g08.bks.cpg/sg67_14_cif.got.tgz:27470.got - 2010.06.03 18:28:57.
