data_PCOD9504808
_publ_section_title
;
Structure prediction by ZEFSAII (Michael W. Deem and Ramdas Pophale) SiO2 
 PCOD9504808
Probable space group: C M M A
;
_chemical_formula_sum "Si O2"
_cell_formula_units_Z 64
_cell_length_a 18.128366
_cell_length_b 15.020543
_cell_length_c 11.429596
_cell_angle_alpha 90.000000
_cell_angle_beta 90.000000
_cell_angle_gamma 90.000000
_cell_volume 3112.255000
_symmetry_space_group_name_H-M "C M M A"
_symmetry_group_IT_number 67
_symmetry_cell_setting 'orthorhombic'
loop_
_space_group_symop_operation_xyz
x,y,z
-x,1/2-y,z
x,-y,-z
-x,1/2+y,-z
-x,-y,-z
x,1/2+y,-z
-x,y,z
x,1/2-y,z
1/2+x,1/2+y,z
1/2-x,-y,z
1/2+x,1/2-y,-z
1/2-x,y,-z
1/2-x,1/2-y,-z
1/2+x,y,-z
1/2-x,1/2+y,z
1/2+x,-y,z
loop_
_atom_site_type_symbol
_atom_site_label
_atom_site_fract_x
_atom_site_fract_y
_atom_site_fract_z
Si Si1 0.197531 0.750000 0.668140
Si Si2 0.175557 0.940205 0.789137
Si Si3 0.660564 0.649425 0.986492
Si Si4 0.134567 0.250000 0.578175
Si Si5 0.085739 0.595358 0.257758
O O1 0.190333 0.842195 0.738620
O O2 0.139597 0.750000 0.561392
O O3 0.280517 0.750000 0.619847
O O4 0.250000 0.000000 0.799275
O O5 0.120310 0.999583 0.713296
O O6 0.138518 0.921048 0.914890
O O7 0.636221 0.750000 0.014419
O O8 0.630869 0.628368 0.857431
O O9 0.750000 0.648263 0.000000
O O10 0.098115 0.335932 0.637255
O O11 0.000000 0.590719 0.228592
#
# Coordination Sequence:
#
# PCOD9504808 Si02
#       5
#     8  16  16   8  16
#     4  11  24  45  72 103 125 179 245 287 341 385
#     4  12  23  42  69 103 142 177 225 291 342 413
#     4  11  21  37  67 101 140 180 222 278 343 417
#     4  11  23  45  70  99 137 174 237 298 328 409
#     4  12  26  44  68 103 144 187 223 277 361 423
#
# _framework density 20.563866999999998
#
# number of rings (size 3 to 8) (size 9 to 14) (size 15 to 20)
#    0.000    0.500    7.500    1.125    0.000    3.000 
#    0.000    4.375    0.000    0.000    0.000    0.000 
#    0.000    0.000    0.000    0.000    0.000    0.000 
#
# Total GULP energy -178735.069429 kJ/mol
# GULP energy per Si atom -5585.470920 kJ/mol
# Density = 2.051706 g / cm^3
# Si number density = 20.563867 Si / 1000 Ang^3
#
#
#
# Elastic Constant Matrix: (Units=GPa)
#
#
# Indices 1 2 3 4 5 6 
#
# 1 87.0386 27.6597 16.5352 0.0000 0.0000 0.0000
# 2 27.6597 171.2863 46.7006 0.0000 0.0000 0.0000
# 3 16.5352 46.7006 81.8689 0.0000 0.0000 0.0000
# 4 0.0000 0.0000 0.0000 12.6483 0.0000 0.0000
# 5 0.0000 0.0000 0.0000 0.0000 20.7122 0.0000
# 6 0.0000 0.0000 0.0000 0.0000 0.0000 10.4743
#
#
#
# Elastic Compliance Matrix: (Units=1/GPa)
#
#
# Indices 1 2 3 4 5 6 
#
# 1 0.012285 -0.001548 -0.001598 0.000000 0.000000 0.000000
# 2 -0.001548 0.007108 -0.003742 0.000000 0.000000 0.000000
# 3 -0.001598 -0.003742 0.014672 0.000000 0.000000 0.000000
# 4 0.000000 0.000000 0.000000 0.079062 0.000000 0.000000
# 5 0.000000 0.000000 0.000000 0.000000 0.048281 0.000000
# 6 0.000000 0.000000 0.000000 0.000000 0.000000 0.095472
#
#
# Mechanical properties :
#
#
# Convention : Reuss Voigt Hill
#
# Bulk Modulus (GPa) = 49.28898 57.99833 53.64365
# Shear Modulus (GPa) = 18.02325 25.38684 21.70504
#
# Velocity S-wave (km/s) = 2.96371 3.51741 3.25236
# Velocity P-wave (km/s) = 5.97764 6.69040 6.34404
#
# Compressibility (1/GPa) = 0.02028851
#
# Stress axis : x y z
#
# Youngs Moduli (GPa) = 81.40201 140.67731 68.15648
#
# Poissons Ratio (x) = 0.21777 0.10892
# Poissons Ratio (y) = 0.12601 0.25506
# Poissons Ratio (z) = 0.13009 0.52645
#
# Static dielectric constant tensor:
#      x y z
#    x 1.730540 0.000000 0.000000 
#    y 0.000000 1.770850 0.000000 
#    z 0.000000 0.000000 1.767830 
# 
# From -- ./inp_files/17534.got.cif
#   From: 2010.05.17/outbox.cif.g08.bks.cpg/sg67_9_cif.got.tgz:17534.got - 2010.06.03 18:28:57.
