data_PCOD9504795
_publ_section_title
;
Structure prediction by ZEFSAII (Michael W. Deem and Ramdas Pophale) SiO2 
 PCOD9504795
Probable space group: C M M A
;
_chemical_formula_sum "Si O2"
_cell_formula_units_Z 64
_cell_length_a 16.055346
_cell_length_b 10.456961
_cell_length_c 19.896288
_cell_angle_alpha 90.000000
_cell_angle_beta 90.000000
_cell_angle_gamma 90.000000
_cell_volume 3340.390318
_symmetry_space_group_name_H-M "C M M A"
_symmetry_group_IT_number 67
_symmetry_cell_setting 'orthorhombic'
loop_
_space_group_symop_operation_xyz
x,y,z
-x,1/2-y,z
x,-y,-z
-x,1/2+y,-z
-x,-y,-z
x,1/2+y,-z
-x,y,z
x,1/2-y,z
1/2+x,1/2+y,z
1/2-x,-y,z
1/2+x,1/2-y,-z
1/2-x,y,-z
1/2-x,1/2-y,-z
1/2+x,y,-z
1/2-x,1/2+y,z
1/2+x,-y,z
loop_
_atom_site_type_symbol
_atom_site_label
_atom_site_fract_x
_atom_site_fract_y
_atom_site_fract_z
Si Si1 0.637542 0.250000 0.927680
Si Si2 0.898536 0.398173 0.293618
Si Si3 0.898230 0.397919 0.444921
Si Si4 0.902343 0.504907 0.154802
Si Si5 0.336404 0.750000 0.920972
O O1 0.607265 0.375793 0.888773
O O2 0.737336 0.250000 0.927807
O O3 0.617128 0.250000 0.006878
O O4 0.875110 0.250000 0.283091
O O5 0.872659 0.435088 0.368970
O O6 0.869154 0.479047 0.230077
O O7 0.000000 0.401850 0.292610
O O8 0.869499 0.500000 0.500000
O O9 0.873332 0.250000 0.457618
O O10 0.000000 0.398328 0.445882
O O11 0.859416 0.622489 0.118721
O O12 0.000000 0.534525 0.159928
#
# Coordination Sequence:
#
# PCOD9504795 Si02
#       5
#     8  16  16  16   8
#     4  11  23  41  59  73 104 149 180 208 269 339
#     4   8  14  27  46  68  98 136 174 210 254 312
#     4   8  13  22  37  60  93 132 169 202 246 306
#     4  11  21  36  58  82 107 139 180 222 266 318
#     4  11  25  39  53  81 112 135 170 232 279 305
#
# _framework density 19.159437
#
# number of rings (size 3 to 8) (size 9 to 14) (size 15 to 20)
#    0.000    2.500    1.250    3.750    0.000    5.000 
#    2.250    0.000    0.000    0.000    0.000    0.000 
#    0.000    6.000    0.000    0.000    0.000    0.000 
#
# Total GULP energy -178499.944751 kJ/mol
# GULP energy per Si atom -5578.123273 kJ/mol
# Density = 1.911583 g / cm^3
# Si number density = 19.159437 Si / 1000 Ang^3
#
#
#
# Elastic Constant Matrix: (Units=GPa)
#
#
# Indices 1 2 3 4 5 6 
#
# 1 18.9830 -0.5200 2.9325 0.0000 0.0000 0.0000
# 2 -0.5200 116.9642 90.1894 0.0000 0.0000 0.0000
# 3 2.9325 90.1894 187.3606 0.0000 0.0000 0.0000
# 4 0.0000 0.0000 0.0000 35.9218 0.0000 0.0000
# 5 0.0000 0.0000 0.0000 0.0000 -108.5073 0.0000
# 6 0.0000 0.0000 0.0000 0.0000 0.0000 25.7023
#
#
#
# Elastic Compliance Matrix: (Units=1/GPa)
#
#
# Indices 1 2 3 4 5 6 
#
# 1 0.052948 0.001391 -0.001498 0.000000 0.000000 0.000000
# 2 0.001391 0.013633 -0.006584 0.000000 0.000000 0.000000
# 3 -0.001498 -0.006584 0.008530 0.000000 0.000000 0.000000
# 4 0.000000 0.000000 0.000000 0.027838 0.000000 0.000000
# 5 0.000000 0.000000 0.000000 0.000000 -0.009216 0.000000
# 6 0.000000 0.000000 0.000000 0.000000 0.000000 0.038907
#
#
# Mechanical properties :
#
#
# Convention : Reuss Voigt Hill
#
# Bulk Modulus (GPa) = 16.20020 56.50128 36.35074
# Shear Modulus (GPa) = 30.01209 6.00376 18.00793
#
# Velocity S-wave (km/s) = 3.96212 1.77211 3.06910
# Velocity P-wave (km/s) = 5.42264 5.80872 5.61900
#
# Compressibility (1/GPa) = 0.06172765
#
# Stress axis : x y z
#
# Youngs Moduli (GPa) = 18.88642 73.35285 117.23143
#
# Poissons Ratio (x) = -0.10200 0.17562
# Poissons Ratio (y) = -0.02626 0.77187
# Poissons Ratio (z) = 0.02829 0.48296
#
# Static dielectric constant tensor:
#      x y z
#    x 1.671940 0.000000 0.000000 
#    y 0.000000 1.640330 0.000000 
#    z 0.000000 0.000000 1.696970 
# 
# From -- ./inp_files/33438.got.cif
#   From: 2010.05.17/outbox.cif.g08.bks.cpg/sg67_17_cif.got.tgz:33438.got - 2010.06.03 18:28:57.
