data_PCOD9504665
_publ_section_title
;
Structure prediction by ZEFSAII (Michael W. Deem and Ramdas Pophale) SiO2 
 PCOD9504665
Probable space group: C M M A
;
_chemical_formula_sum "Si O2"
_cell_formula_units_Z 60
_cell_length_a 15.504455
_cell_length_b 26.171105
_cell_length_c 7.168941
_cell_angle_alpha 90.000000
_cell_angle_beta 90.000000
_cell_angle_gamma 90.000000
_cell_volume 2908.932012
_symmetry_space_group_name_H-M "C M M A"
_symmetry_group_IT_number 67
_symmetry_cell_setting 'orthorhombic'
loop_
_space_group_symop_operation_xyz
x,y,z
-x,1/2-y,z
x,-y,-z
-x,1/2+y,-z
-x,-y,-z
x,1/2+y,-z
-x,y,z
x,1/2-y,z
1/2+x,1/2+y,z
1/2-x,-y,z
1/2+x,1/2-y,-z
1/2-x,y,-z
1/2-x,1/2-y,-z
1/2+x,y,-z
1/2-x,1/2+y,z
1/2+x,-y,z
loop_
_atom_site_type_symbol
_atom_site_label
_atom_site_fract_x
_atom_site_fract_y
_atom_site_fract_z
Si Si1 0.250000 0.905999 0.000000
Si Si2 0.151880 0.750000 0.925061
Si Si3 0.821285 0.842612 0.657915
Si Si4 0.000000 0.750000 0.229850
Si Si5 0.500000 0.860472 0.552803
Si Si6 0.127465 0.500000 0.000000
Si Si7 0.000000 0.972978 0.305854
O O1 0.233572 0.875117 0.810031
O O2 0.327000 0.945795 0.994927
O O3 0.142456 0.702294 0.788091
O O4 0.250000 0.750000 0.000000
O O5 0.084082 0.750000 0.094620
O O6 0.750000 0.827812 0.500000
O O7 0.908855 0.864414 0.561497
O O8 0.000000 0.696303 0.347948
O O9 0.500000 0.911242 0.683483
O O10 0.077924 0.496471 0.808590
O O11 0.000000 0.000000 0.500000
#
# Coordination Sequence:
#
# PCOD9504665 Si02
#       7
#     8   8  16   4   8   8   8
#     4  11  24  43  68 100 136 185 230 299 356 430
#     4  12  24  44  70 100 143 189 242 291 362 434
#     4  12  25  45  70 106 141 191 241 296 366 431
#     4  12  28  46  72 112 144 196 240 304 368 432
#     4  12  26  45  74 106 154 191 248 302 363 445
#     4  10  24  42  66  98 136 174 238 292 364 425
#     4  11  23  43  68 100 134 185 233 298 362 433
#
# _framework density 20.626128999999999
#
# number of rings (size 3 to 8) (size 9 to 14) (size 15 to 20)
#    0.000    0.533    1.333    6.800    3.733    1.067 
#    0.000    2.667    0.000    0.000    0.000    0.000 
#    0.000    0.000    0.000    0.000    0.000    0.000 
#
# Total GULP energy -167092.278986 kJ/mol
# GULP energy per Si atom -5569.742633 kJ/mol
# Density = 2.057918 g / cm^3
# Si number density = 20.626129 Si / 1000 Ang^3
#
#
#
# Elastic Constant Matrix: (Units=GPa)
#
#
# Indices 1 2 3 4 5 6 
#
# 1 79.9556 43.7085 58.6809 0.0000 0.0000 0.0000
# 2 43.7085 108.1795 64.4276 0.0000 0.0000 0.0000
# 3 58.6809 64.4276 155.8607 0.0000 0.0000 0.0000
# 4 0.0000 0.0000 0.0000 105.9029 0.0000 0.0000
# 5 0.0000 0.0000 0.0000 0.0000 55.9069 0.0000
# 6 0.0000 0.0000 0.0000 0.0000 0.0000 32.0466
#
#
#
# Elastic Compliance Matrix: (Units=1/GPa)
#
#
# Indices 1 2 3 4 5 6 
#
# 1 0.018789 -0.004482 -0.005221 0.000000 0.000000 0.000000
# 2 -0.004482 0.013332 -0.003824 0.000000 0.000000 0.000000
# 3 -0.005221 -0.003824 0.009962 0.000000 0.000000 0.000000
# 4 0.000000 0.000000 0.000000 0.009443 0.000000 0.000000
# 5 0.000000 0.000000 0.000000 0.000000 0.017887 0.000000
# 6 0.000000 0.000000 0.000000 0.000000 0.000000 0.031205
#
#
# Mechanical properties :
#
#
# Convention : Reuss Voigt Hill
#
# Bulk Modulus (GPa) = 66.53466 75.29221 70.91344
# Shear Modulus (GPa) = 37.68444 50.58319 44.13381
#
# Velocity S-wave (km/s) = 4.27901 4.95753 4.63071
# Velocity P-wave (km/s) = 7.53264 8.32778 7.94017
#
# Compressibility (1/GPa) = 0.01502976
#
# Stress axis : x y z
#
# Youngs Moduli (GPa) = 53.22256 75.00809 100.37799
#
# Poissons Ratio (x) = 0.33617 0.52411
# Poissons Ratio (y) = 0.23853 0.38380
# Poissons Ratio (z) = 0.27789 0.28680
#
# Static dielectric constant tensor:
#      x y z
#    x 1.646530 0.000000 0.000000 
#    y 0.000000 1.712020 0.000000 
#    z 0.000000 0.000000 2.128170 
# 
# From -- ./inp_files/2113.got.cif
#   From: 2010.05.17/outbox.cif.g08.bks.cpg/sg67_2_cif.got.tgz:2113.got - 2010.06.03 18:28:57.
