data_PCOD9504659
_publ_section_title
;
Structure prediction by ZEFSAII (Michael W. Deem and Ramdas Pophale) SiO2 
 PCOD9504659
Probable space group: C M M A
;
_chemical_formula_sum "Si O2"
_cell_formula_units_Z 80
_cell_length_a 14.214576
_cell_length_b 23.626635
_cell_length_c 12.163818
_cell_angle_alpha 90.000000
_cell_angle_beta 90.000000
_cell_angle_gamma 90.000000
_cell_volume 4085.128249
_symmetry_space_group_name_H-M "C M M A"
_symmetry_group_IT_number 67
_symmetry_cell_setting 'orthorhombic'
loop_
_space_group_symop_operation_xyz
x,y,z
-x,1/2-y,z
x,-y,-z
-x,1/2+y,-z
-x,-y,-z
x,1/2+y,-z
-x,y,z
x,1/2-y,z
1/2+x,1/2+y,z
1/2-x,-y,z
1/2+x,1/2-y,-z
1/2-x,y,-z
1/2-x,1/2-y,-z
1/2+x,y,-z
1/2-x,1/2+y,z
1/2+x,-y,z
loop_
_atom_site_type_symbol
_atom_site_label
_atom_site_fract_x
_atom_site_fract_y
_atom_site_fract_z
Si Si1 0.278579 0.684425 0.131910
Si Si2 0.219037 0.104886 0.674081
Si Si3 0.613952 0.966488 0.839133
Si Si4 0.889546 0.415696 0.063963
Si Si5 0.612226 0.067023 0.530827
O O1 0.294456 0.750000 0.157815
O O2 0.221878 0.655825 0.235319
O O3 0.365643 0.641900 0.122602
O O4 0.250000 0.683785 0.000000
O O5 0.167252 0.053759 0.734341
O O6 0.322309 0.085920 0.632831
O O7 0.152870 0.108193 0.565665
O O8 0.500000 0.964770 0.824733
O O9 0.644131 0.028945 0.873142
O O10 0.642707 0.924141 0.938437
O O11 0.000000 0.422449 0.056749
O O12 0.500000 0.073431 0.547680
O O13 0.628441 0.000000 0.500000
#
# Coordination Sequence:
#
# PCOD9504659 Si02
#       5
#    16  16  16  16  16
#     4  11  24  40  58  89 130 171 214 257 304 373
#     4  11  21  39  66  89 123 172 206 250 326 374
#     4   9  18  33  58  95 128 157 201 252 311 386
#     4   9  19  35  55  87 128 163 200 252 309 372
#     4  10  24  42  61  94 130 159 207 266 323 389
#
# _framework density 19.583228999999999
#
# number of rings (size 3 to 8) (size 9 to 14) (size 15 to 20)
#    0.000    2.000    2.000    3.000    5.600    1.200 
#    0.000    2.000    0.000    3.600    0.000    2.800 
#    0.000    0.000    0.000    0.000    0.000    0.000 
#
# Total GULP energy -222719.125065 kJ/mol
# GULP energy per Si atom -5567.978127 kJ/mol
# Density = 1.953866 g / cm^3
# Si number density = 19.583229 Si / 1000 Ang^3
#
#
#
# Elastic Constant Matrix: (Units=GPa)
#
#
# Indices 1 2 3 4 5 6 
#
# 1 94.1151 34.7292 41.5016 0.0000 0.0000 0.0000
# 2 34.7292 123.9381 50.9127 0.0000 0.0000 0.0000
# 3 41.5016 50.9127 122.2369 0.0000 0.0000 0.0000
# 4 0.0000 0.0000 0.0000 26.3083 0.0000 0.0000
# 5 0.0000 0.0000 0.0000 0.0000 17.7998 0.0000
# 6 0.0000 0.0000 0.0000 0.0000 0.0000 12.2227
#
#
#
# Elastic Compliance Matrix: (Units=1/GPa)
#
#
# Indices 1 2 3 4 5 6 
#
# 1 0.012976 -0.002203 -0.003488 0.000000 0.000000 0.000000
# 2 -0.002203 0.010108 -0.003462 0.000000 0.000000 0.000000
# 3 -0.003488 -0.003462 0.010807 0.000000 0.000000 0.000000
# 4 0.000000 0.000000 0.000000 0.038011 0.000000 0.000000
# 5 0.000000 0.000000 0.000000 0.000000 0.056180 0.000000
# 6 0.000000 0.000000 0.000000 0.000000 0.000000 0.081815
#
#
# Mechanical properties :
#
#
# Convention : Reuss Voigt Hill
#
# Bulk Modulus (GPa) = 64.16501 66.06409 65.11455
# Shear Modulus (GPa) = 21.42252 25.47596 23.44924
#
# Velocity S-wave (km/s) = 3.31104 3.61072 3.46412
# Velocity P-wave (km/s) = 6.88867 7.15481 7.02300
#
# Compressibility (1/GPa) = 0.01558482
#
# Stress axis : x y z
#
# Youngs Moduli (GPa) = 77.06276 98.93029 92.53214
#
# Poissons Ratio (x) = 0.21798 0.32275
# Poissons Ratio (y) = 0.16979 0.32035
# Poissons Ratio (z) = 0.26880 0.34250
#
# Static dielectric constant tensor:
#      x y z
#    x 1.713780 0.000000 0.000000 
#    y 0.000000 1.660740 0.000000 
#    z 0.000000 0.000000 1.835970 
# 
# From -- ./inp_files/17941.got.cif
#   From: 2010.05.17/outbox.cif.g08.bks.cpg/sg67_9_cif.got.tgz:17941.got - 2010.06.03 18:28:57.
