data_PCOD9504824
_publ_section_title
;
Structure prediction by ZEFSAII (Michael W. Deem and Ramdas Pophale) SiO2 
 PCOD9504824
Probable space group: C M M A
;
_chemical_formula_sum "Si O2"
_cell_formula_units_Z 64
_cell_length_a 14.549508
_cell_length_b 22.252499
_cell_length_c 8.995865
_cell_angle_alpha 90.000000
_cell_angle_beta 90.000000
_cell_angle_gamma 90.000000
_cell_volume 2912.527450
_symmetry_space_group_name_H-M "C M M A"
_symmetry_group_IT_number 67
_symmetry_cell_setting 'orthorhombic'
loop_
_space_group_symop_operation_xyz
x,y,z
-x,1/2-y,z
x,-y,-z
-x,1/2+y,-z
-x,-y,-z
x,1/2+y,-z
-x,y,z
x,1/2-y,z
1/2+x,1/2+y,z
1/2-x,-y,z
1/2+x,1/2-y,-z
1/2-x,y,-z
1/2-x,1/2-y,-z
1/2+x,y,-z
1/2-x,1/2+y,z
1/2+x,-y,z
loop_
_atom_site_type_symbol
_atom_site_label
_atom_site_fract_x
_atom_site_fract_y
_atom_site_fract_z
Si Si1 0.000000 0.178848 0.495874
Si Si2 0.684522 0.624053 0.359459
Si Si3 0.607906 0.499349 0.319802
Si Si4 0.000000 0.322061 0.848504
Si Si5 0.815537 0.386671 0.865493
O O1 0.091959 0.154480 0.418008
O O2 0.000000 0.250000 0.487218
O O3 0.000000 0.162160 0.670794
O O4 0.750000 0.612148 0.500000
O O5 0.652382 0.562747 0.280204
O O6 0.752222 0.655192 0.241693
O O7 0.617806 0.500000 0.500000
O O8 0.500000 0.498881 0.287422
O O9 0.652050 0.443677 0.233645
O O10 0.092423 0.351720 0.912425
O O11 0.000000 0.250000 0.863879
O O12 0.750000 0.404265 0.000000
#
# Coordination Sequence:
#
# PCOD9504824 Si02
#       5
#     8  16  16   8  16
#     4  11  24  44  74 112 142 184 256 316 345 408
#     4  12  23  41  71 107 141 189 240 292 357 428
#     4  11  21  40  72 100 137 186 238 291 354 426
#     4  11  24  48  76 100 140 199 252 303 359 420
#     4  12  27  45  70 109 152 188 237 300 367 443
#
# _framework density 21.974039999999999
#
# number of rings (size 3 to 8) (size 9 to 14) (size 15 to 20)
#    0.000    0.500    7.500    0.750    0.000    5.000 
#    0.000    2.500    0.000    0.000    0.000    0.000 
#    0.000    0.000    0.000    0.000    0.000    0.000 
#
# Total GULP energy -178879.756550 kJ/mol
# GULP energy per Si atom -5589.992392 kJ/mol
# Density = 2.192403 g / cm^3
# Si number density = 21.974040 Si / 1000 Ang^3
#
#
#
# Elastic Constant Matrix: (Units=GPa)
#
#
# Indices 1 2 3 4 5 6 
#
# 1 219.8344 58.1528 62.1369 0.0000 0.0000 0.0000
# 2 58.1528 83.0414 21.1482 0.0000 0.0000 0.0000
# 3 62.1369 21.1482 77.8806 0.0000 0.0000 0.0000
# 4 0.0000 0.0000 0.0000 9.4452 0.0000 0.0000
# 5 0.0000 0.0000 0.0000 0.0000 35.0636 0.0000
# 6 0.0000 0.0000 0.0000 0.0000 0.0000 -11.0069
#
#
#
# Elastic Compliance Matrix: (Units=1/GPa)
#
#
# Indices 1 2 3 4 5 6 
#
# 1 0.006747 -0.003603 -0.004405 0.000000 0.000000 0.000000
# 2 -0.003603 0.014861 -0.001161 0.000000 0.000000 0.000000
# 3 -0.004405 -0.001161 0.016670 0.000000 0.000000 0.000000
# 4 0.000000 0.000000 0.000000 0.105874 0.000000 0.000000
# 5 0.000000 0.000000 0.000000 0.000000 0.028520 0.000000
# 6 0.000000 0.000000 0.000000 0.000000 0.000000 -0.090853
#
#
# Mechanical properties :
#
#
# Convention : Reuss Voigt Hill
#
# Bulk Modulus (GPa) = 50.14890 73.73692 61.94291
# Shear Modulus (GPa) = 46.81551 22.65496 34.73524
#
# Velocity S-wave (km/s) = 4.62073 3.21438 3.98016
# Velocity P-wave (km/s) = 7.16517 6.88517 7.02656
#
# Compressibility (1/GPa) = 0.01994062
#
# Stress axis : x y z
#
# Youngs Moduli (GPa) = 148.21395 67.29030 59.98939
#
# Poissons Ratio (x) = 0.24245 0.26423
# Poissons Ratio (y) = 0.53403 0.06963
# Poissons Ratio (z) = 0.65283 0.07811
#
# Static dielectric constant tensor:
#      x y z
#    x 1.871370 0.000000 0.000000 
#    y 0.000000 1.811910 0.000000 
#    z 0.000000 0.000000 1.869520 
# 
# From -- ./inp_files/8034.got.cif
#   From: 2010.05.17/outbox.cif.g08.bks.cpg/sg67_5_cif.got.tgz:8034.got - 2010.06.03 18:28:57.
