data_PCOD9504487
_publ_section_title
;
Structure prediction by ZEFSAII (Michael W. Deem and Ramdas Pophale) SiO2 
 PCOD9504487
Probable space group: C M M A
;
_chemical_formula_sum "Si O2"
_cell_formula_units_Z 64
_cell_length_a 14.847885
_cell_length_b 9.794888
_cell_length_c 19.869945
_cell_angle_alpha 90.000000
_cell_angle_beta 90.000000
_cell_angle_gamma 90.000000
_cell_volume 2889.753075
_symmetry_space_group_name_H-M "C M M A"
_symmetry_group_IT_number 67
_symmetry_cell_setting 'orthorhombic'
loop_
_space_group_symop_operation_xyz
x,y,z
-x,1/2-y,z
x,-y,-z
-x,1/2+y,-z
-x,-y,-z
x,1/2+y,-z
-x,y,z
x,1/2-y,z
1/2+x,1/2+y,z
1/2-x,-y,z
1/2+x,1/2-y,-z
1/2-x,y,-z
1/2-x,1/2-y,-z
1/2+x,y,-z
1/2-x,1/2+y,z
1/2+x,-y,z
loop_
_atom_site_type_symbol
_atom_site_label
_atom_site_fract_x
_atom_site_fract_y
_atom_site_fract_z
Si Si1 0.105121 0.407050 0.440228
Si Si2 0.641925 0.250000 0.067368
Si Si3 0.359691 0.513282 0.834467
Si Si4 0.655975 0.084011 0.313685
Si Si5 0.638349 0.750000 0.086368
O O1 0.145947 0.500000 0.500000
O O2 0.142049 0.250000 0.432510
O O3 0.109163 0.503414 0.374477
O O4 0.000000 0.388664 0.456275
O O5 0.612777 0.121994 0.110317
O O6 0.752086 0.250000 0.074646
O O7 0.608918 0.250000 0.991070
O O8 0.250000 0.500000 0.832397
O O9 0.387228 0.555552 0.759506
O O10 0.390029 0.374392 0.867408
O O11 0.664075 0.250000 0.322756
O O12 0.750000 0.000000 0.311726
#
# Coordination Sequence:
#
# PCOD9504487 Si02
#       5
#    16   8  16  16   8
#     4  10  22  41  64  87 112 141 177 222 270 323
#     4   9  14  26  36  60  92 135 182 218 267 315
#     4   9  17  26  40  64  98 139 178 221 267 318
#     4  11  22  35  55  81 115 152 185 226 273 326
#     4   9  16  22  40  58  92 137 180 222 265 319
#
# _framework density 22.147220999999998
#
# number of rings (size 3 to 8) (size 9 to 14) (size 15 to 20)
#    0.000    2.250    1.250    2.250    7.000    5.000 
#    0.000    2.500    0.000    0.000    0.000    0.000 
#    0.000    6.000    0.000    0.000    0.000    0.000 
#
# Total GULP energy -178275.428543 kJ/mol
# GULP energy per Si atom -5571.107142 kJ/mol
# Density = 2.209681 g / cm^3
# Si number density = 22.147221 Si / 1000 Ang^3
#
#
#
# Elastic Constant Matrix: (Units=GPa)
#
#
# Indices 1 2 3 4 5 6 
#
# 1 57.8657 10.6548 7.3783 0.0000 0.0000 0.0000
# 2 10.6548 280.5555 116.6409 0.0000 0.0000 0.0000
# 3 7.3783 116.6409 183.2716 0.0000 0.0000 0.0000
# 4 0.0000 0.0000 0.0000 35.1741 0.0000 0.0000
# 5 0.0000 0.0000 0.0000 0.0000 20.6149 0.0000
# 6 0.0000 0.0000 0.0000 0.0000 0.0000 7.6393
#
#
#
# Elastic Compliance Matrix: (Units=1/GPa)
#
#
# Indices 1 2 3 4 5 6 
#
# 1 0.017423 -0.000503 -0.000381 0.000000 0.000000 0.000000
# 2 -0.000503 0.004861 -0.003074 0.000000 0.000000 0.000000
# 3 -0.000381 -0.003074 0.007428 0.000000 0.000000 0.000000
# 4 0.000000 0.000000 0.000000 0.028430 0.000000 0.000000
# 5 0.000000 0.000000 0.000000 0.000000 0.048509 0.000000
# 6 0.000000 0.000000 0.000000 0.000000 0.000000 0.130901
#
#
# Mechanical properties :
#
#
# Convention : Reuss Voigt Hill
#
# Bulk Modulus (GPa) = 45.88032 87.89343 66.88688
# Shear Modulus (GPa) = 19.78369 38.48691 29.13530
#
# Velocity S-wave (km/s) = 2.99202 4.17319 3.63096
# Velocity P-wave (km/s) = 5.71816 7.93680 6.91701
#
# Compressibility (1/GPa) = 0.02179584
#
# Stress axis : x y z
#
# Youngs Moduli (GPa) = 57.39657 205.70399 134.62684
#
# Poissons Ratio (x) = 0.10351 0.05131
# Poissons Ratio (y) = 0.02888 0.41380
# Poissons Ratio (z) = 0.02188 0.63227
#
# Static dielectric constant tensor:
#      x y z
#    x 1.909150 0.000000 0.000000 
#    y 0.000000 1.733830 0.000000 
#    z 0.000000 0.000000 1.793610 
# 
# From -- ./inp_files/31776.got.cif
#   From: 2010.05.17/outbox.cif.g08.bks.cpg/sg67_16_cif.got.tgz:31776.got - 2010.06.03 18:28:57.
