data_PCOD9504559
_publ_section_title
;
Structure prediction by ZEFSAII (Michael W. Deem and Ramdas Pophale) SiO2 
 PCOD9504559
Probable space group: C M M A
;
_chemical_formula_sum "Si O2"
_cell_formula_units_Z 64
_cell_length_a 15.086321
_cell_length_b 23.233175
_cell_length_c 7.799096
_cell_angle_alpha 90.000000
_cell_angle_beta 90.000000
_cell_angle_gamma 90.000000
_cell_volume 2733.607605
_symmetry_space_group_name_H-M "C M M A"
_symmetry_group_IT_number 67
_symmetry_cell_setting 'orthorhombic'
loop_
_space_group_symop_operation_xyz
x,y,z
-x,1/2-y,z
x,-y,-z
-x,1/2+y,-z
-x,-y,-z
x,1/2+y,-z
-x,y,z
x,1/2-y,z
1/2+x,1/2+y,z
1/2-x,-y,z
1/2+x,1/2-y,-z
1/2-x,y,-z
1/2-x,1/2-y,-z
1/2+x,y,-z
1/2-x,1/2+y,z
1/2+x,-y,z
loop_
_atom_site_type_symbol
_atom_site_label
_atom_site_fract_x
_atom_site_fract_y
_atom_site_fract_z
Si Si1 0.750000 0.649821 0.500000
Si Si2 0.103295 0.435179 0.563962
Si Si3 0.500000 0.642361 0.141431
Si Si4 0.661988 0.250000 0.338208
Si Si5 0.000000 0.750000 0.603748
Si Si6 0.647518 0.931942 0.968024
Si Si7 0.000000 0.750000 0.096539
O O1 0.832640 0.608723 0.532143
O O2 0.722358 0.693782 0.649459
O O3 0.123304 0.500000 0.500000
O O4 0.121046 0.425368 0.767061
O O5 0.000000 0.424460 0.528764
O O6 0.500000 0.688422 0.297525
O O7 0.415783 0.602066 0.099032
O O8 0.500000 0.689384 0.993196
O O9 0.591230 0.250000 0.495762
O O10 0.594697 0.250000 0.186240
O O11 0.750000 0.916370 0.000000
O O12 0.637503 0.000000 0.000000
#
# Coordination Sequence:
#
# PCOD9504559 Si02
#       7
#     8  16   8   8   4  16   4
#     4  11  25  42  72  98 135 177 232 290 348 403
#     4  11  26  46  72 106 140 185 232 285 346 415
#     4  11  23  46  69  95 138 183 229 277 353 413
#     4  10  24  44  67  99 131 176 237 292 346 401
#     4  10  26  40  66 100 132 176 232 290 332 418
#     4  11  26  44  68 102 139 183 224 280 348 422
#     4  10  22  48  70  94 132 182 236 292 352 402
#
# _framework density 23.412282999999999
#
# number of rings (size 3 to 8) (size 9 to 14) (size 15 to 20)
#    0.000    1.250    1.250    2.250   14.000    0.000 
#    0.000    1.250    0.000    0.000    0.000    0.000 
#    0.000    0.000    0.000    0.000    0.000    0.000 
#
# Total GULP energy -178995.420960 kJ/mol
# GULP energy per Si atom -5593.606905 kJ/mol
# Density = 2.335900 g / cm^3
# Si number density = 23.412283 Si / 1000 Ang^3
#
#
#
# Elastic Constant Matrix: (Units=GPa)
#
#
# Indices 1 2 3 4 5 6 
#
# 1 153.8107 96.8998 21.8502 0.0000 0.0000 0.0000
# 2 96.8998 160.6397 21.6634 0.0000 0.0000 0.0000
# 3 21.8502 21.6634 56.9499 0.0000 0.0000 0.0000
# 4 0.0000 0.0000 0.0000 12.1029 0.0000 0.0000
# 5 0.0000 0.0000 0.0000 0.0000 -5.7469 0.0000
# 6 0.0000 0.0000 0.0000 0.0000 0.0000 35.3516
#
#
#
# Elastic Compliance Matrix: (Units=1/GPa)
#
#
# Indices 1 2 3 4 5 6 
#
# 1 0.010646 -0.006188 -0.001731 0.000000 0.000000 0.000000
# 2 -0.006188 0.010159 -0.001490 0.000000 0.000000 0.000000
# 3 -0.001731 -0.001490 0.018790 0.000000 0.000000 0.000000
# 4 0.000000 0.000000 0.000000 0.082625 0.000000 0.000000
# 5 0.000000 0.000000 0.000000 0.000000 -0.174008 0.000000
# 6 0.000000 0.000000 0.000000 0.000000 0.000000 0.028287
#
#
# Mechanical properties :
#
#
# Convention : Reuss Voigt Hill
#
# Bulk Modulus (GPa) = 48.13025 72.46970 60.29997
# Shear Modulus (GPa) = 2228.93092 23.74065 1126.33579
#
# Velocity S-wave (km/s) = 30.88854 3.18783 21.95750
# Velocity P-wave (km/s) = 35.95466 6.67612 25.85835
#
# Compressibility (1/GPa) = 0.02077695
#
# Stress axis : x y z
#
# Youngs Moduli (GPa) = 93.93189 98.43494 53.21955
#
# Poissons Ratio (x) = 0.60916 0.09210
# Poissons Ratio (y) = 0.58129 0.07930
# Poissons Ratio (z) = 0.16255 0.14668
#
# Static dielectric constant tensor:
#      x y z
#    x 1.827920 0.000000 0.000000 
#    y 0.000000 1.827940 0.000000 
#    z 0.000000 0.000000 1.978950 
# 
# From -- ./inp_files/8113.got.cif
#   From: 2010.05.17/outbox.cif.g08.bks.cpg/sg67_5_cif.got.tgz:8113.got - 2010.06.03 18:28:57.
