data_PCOD9504545
_publ_section_title
;
Structure prediction by ZEFSAII (Michael W. Deem and Ramdas Pophale) SiO2 
 PCOD9504545
Probable space group: C M M A
;
_chemical_formula_sum "Si O2"
_cell_formula_units_Z 76
_cell_length_a 24.137147
_cell_length_b 9.972467
_cell_length_c 14.097848
_cell_angle_alpha 90.000000
_cell_angle_beta 90.000000
_cell_angle_gamma 90.000000
_cell_volume 3393.449316
_symmetry_space_group_name_H-M "C M M A"
_symmetry_group_IT_number 67
_symmetry_cell_setting 'orthorhombic'
loop_
_space_group_symop_operation_xyz
x,y,z
-x,1/2-y,z
x,-y,-z
-x,1/2+y,-z
-x,-y,-z
x,1/2+y,-z
-x,y,z
x,1/2-y,z
1/2+x,1/2+y,z
1/2-x,-y,z
1/2+x,1/2-y,-z
1/2-x,y,-z
1/2-x,1/2-y,-z
1/2+x,y,-z
1/2-x,1/2+y,z
1/2+x,-y,z
loop_
_atom_site_type_symbol
_atom_site_label
_atom_site_fract_x
_atom_site_fract_y
_atom_site_fract_z
Si Si1 0.809307 0.750000 0.450889
Si Si2 0.874861 0.250000 0.365069
Si Si3 0.422380 0.101701 0.239072
Si Si4 0.000000 0.083276 0.580472
Si Si5 0.563505 0.600739 0.075500
Si Si6 0.187303 0.518217 0.299613
Si Si7 0.000000 0.750000 0.579896
O O1 0.750000 0.750000 0.500000
O O2 0.860075 0.750000 0.523251
O O3 0.810229 0.885724 0.390877
O O4 0.843512 0.379185 0.323336
O O5 0.941406 0.250000 0.361193
O O6 0.439926 0.250000 0.206232
O O7 0.446794 0.085191 0.345858
O O8 0.356108 0.095192 0.234712
O O9 0.439842 0.979199 0.173766
O O10 0.000000 0.250000 0.548904
O O11 0.000000 0.917644 0.548522
O O12 0.500000 0.618564 0.043224
O O13 0.588040 0.750000 0.084479
O O14 0.591117 0.500000 0.000000
O O15 0.250000 0.500000 0.265683
#
# Coordination Sequence:
#
# PCOD9504545 Si02
#       7
#     8   8  16   8  16  16   4
#     4  12  22  44  64  88 125 176 257 313 356 398
#     4  12  26  40  68  88 126 181 242 325 345 426
#     4  12  24  44  68  96 139 185 229 291 353 426
#     4  12  24  44  59  89 137 191 241 283 340 422
#     4  10  22  43  74 109 140 178 226 285 355 434
#     4  12  25  43  63  93 126 179 239 299 361 404
#     4  12  24  44  56  90 130 180 246 298 378 414
#
# _framework density 22.396091999999999
#
# number of rings (size 3 to 8) (size 9 to 14) (size 15 to 20)
#    0.000    0.421    5.263    3.789    1.474    0.842 
#    1.895    0.000    0.000    0.632    0.000    2.947 
#    0.000    0.000    0.000    0.000    0.000    0.000 
#
# Total GULP energy -212160.591203 kJ/mol
# GULP energy per Si atom -5583.173453 kJ/mol
# Density = 2.234512 g / cm^3
# Si number density = 22.396092 Si / 1000 Ang^3
#
#
#
# Elastic Constant Matrix: (Units=GPa)
#
#
# Indices 1 2 3 4 5 6 
#
# 1 166.0854 37.7861 11.3840 0.0000 0.0000 0.0000
# 2 37.7861 245.2362 59.6209 0.0000 0.0000 0.0000
# 3 11.3840 59.6209 65.2748 0.0000 0.0000 0.0000
# 4 0.0000 0.0000 0.0000 29.3630 0.0000 0.0000
# 5 0.0000 0.0000 0.0000 0.0000 11.3256 0.0000
# 6 0.0000 0.0000 0.0000 0.0000 0.0000 38.0304
#
#
#
# Elastic Compliance Matrix: (Units=1/GPa)
#
#
# Indices 1 2 3 4 5 6 
#
# 1 0.006243 -0.000896 -0.000270 0.000000 0.000000 0.000000
# 2 -0.000896 0.005370 -0.004749 0.000000 0.000000 0.000000
# 3 -0.000270 -0.004749 0.019704 0.000000 0.000000 0.000000
# 4 0.000000 0.000000 0.000000 0.034056 0.000000 0.000000
# 5 0.000000 0.000000 0.000000 0.000000 0.088296 0.000000
# 6 0.000000 0.000000 0.000000 0.000000 0.000000 0.026295
#
#
# Mechanical properties :
#
#
# Convention : Reuss Voigt Hill
#
# Bulk Modulus (GPa) = 51.31484 77.13095 64.22289
# Shear Modulus (GPa) = 25.21537 40.26416 32.73976
#
# Velocity S-wave (km/s) = 3.35906 4.24467 3.82756
# Velocity P-wave (km/s) = 6.16494 7.65096 6.94780
#
# Compressibility (1/GPa) = 0.01948754
#
# Stress axis : x y z
#
# Youngs Moduli (GPa) = 160.16822 186.20839 50.74988
#
# Poissons Ratio (x) = 0.16690 0.01371
# Poissons Ratio (y) = 0.14356 0.24100
# Poissons Ratio (z) = 0.04328 0.88428
#
# Static dielectric constant tensor:
#      x y z
#    x 2.082500 0.000000 0.000000 
#    y 0.000000 1.854730 0.000000 
#    z 0.000000 0.000000 1.878570 
# 
# From -- ./inp_files/32210.got.cif
#   From: 2010.05.17/outbox.cif.g08.bks.cpg/sg67_17_cif.got.tgz:32210.got - 2010.06.03 18:28:57.
