data_PCOD9504642
_publ_section_title
;
Structure prediction by ZEFSAII (Michael W. Deem and Ramdas Pophale) SiO2 
 PCOD9504642
Probable space group: C M M A
;
_chemical_formula_sum "Si O2"
_cell_formula_units_Z 48
_cell_length_a 22.839653
_cell_length_b 10.751208
_cell_length_c 9.263769
_cell_angle_alpha 90.000000
_cell_angle_beta 90.000000
_cell_angle_gamma 90.000000
_cell_volume 2274.754237
_symmetry_space_group_name_H-M "C M M A"
_symmetry_group_IT_number 67
_symmetry_cell_setting 'orthorhombic'
loop_
_space_group_symop_operation_xyz
x,y,z
-x,1/2-y,z
x,-y,-z
-x,1/2+y,-z
-x,-y,-z
x,1/2+y,-z
-x,y,z
x,1/2-y,z
1/2+x,1/2+y,z
1/2-x,-y,z
1/2+x,1/2-y,-z
1/2-x,y,-z
1/2-x,1/2-y,-z
1/2+x,y,-z
1/2-x,1/2+y,z
1/2+x,-y,z
loop_
_atom_site_type_symbol
_atom_site_label
_atom_site_fract_x
_atom_site_fract_y
_atom_site_fract_z
Si Si1 0.623695 0.888640 0.888201
Si Si2 0.793064 0.250000 0.703335
Si Si3 0.340430 0.250000 0.625565
Si Si4 0.063927 0.956193 0.664734
O O1 0.611327 0.750000 0.950325
O O2 0.682275 0.866460 0.793891
O O3 0.575025 0.930084 0.772961
O O4 0.628865 0.000000 0.000000
O O5 0.723790 0.250000 0.693601
O O6 0.824919 0.250000 0.546637
O O7 0.380505 0.134330 0.671541
O O8 0.000000 0.900009 0.697621
O O9 0.062573 0.000000 0.500000
#
# Coordination Sequence:
#
# PCOD9504642 Si02
#       4
#    16   8   8  16
#     4  10  23  46  68 105 138 183 231 282 352 408
#     4   9  22  43  68 103 139 180 225 293 342 422
#     4  11  21  43  68 103 140 172 235 282 359 414
#     4  11  23  41  69  99 136 180 235 292 343 410
#
# _framework density 21.101181
#
# number of rings (size 3 to 8) (size 9 to 14) (size 15 to 20)
#    1.000    0.667    3.333    0.500    2.333    2.667 
#    0.000    5.000    0.000    0.000    0.000    0.000 
#    0.000    0.000    0.000    0.000    0.000    0.000 
#
# Total GULP energy -133796.258629 kJ/mol
# GULP energy per Si atom -5574.844110 kJ/mol
# Density = 2.105315 g / cm^3
# Si number density = 21.101181 Si / 1000 Ang^3
#
#
#
# Elastic Constant Matrix: (Units=GPa)
#
#
# Indices 1 2 3 4 5 6 
#
# 1 162.8786 59.9185 46.3285 0.0000 0.0000 0.0000
# 2 59.9185 142.5018 59.5547 0.0000 0.0000 0.0000
# 3 46.3285 59.5547 99.0640 0.0000 0.0000 0.0000
# 4 0.0000 0.0000 0.0000 -5.5872 0.0000 0.0000
# 5 0.0000 0.0000 0.0000 0.0000 -88.6988 0.0000
# 6 0.0000 0.0000 0.0000 0.0000 0.0000 35.9677
#
#
#
# Elastic Compliance Matrix: (Units=1/GPa)
#
#
# Indices 1 2 3 4 5 6 
#
# 1 0.007600 -0.002284 -0.002181 0.000000 0.000000 0.000000
# 2 -0.002284 0.010059 -0.004979 0.000000 0.000000 0.000000
# 3 -0.002181 -0.004979 0.014108 0.000000 0.000000 0.000000
# 4 0.000000 0.000000 0.000000 -0.178981 0.000000 0.000000
# 5 0.000000 0.000000 0.000000 0.000000 -0.011274 0.000000
# 6 0.000000 0.000000 0.000000 0.000000 0.000000 0.027803
#
#
# Mechanical properties :
#
#
# Convention : Reuss Voigt Hill
#
# Bulk Modulus (GPa) = 77.64994 81.78310 79.71652
# Shear Modulus (GPa) = -46.50963 4.24585 -21.13189
#
# Velocity S-wave (km/s) = -4.69990 1.42004 -3.16801
# Velocity P-wave (km/s) = 2.72518 6.44441 4.94758
#
# Compressibility (1/GPa) = 0.01287831
#
# Stress axis : x y z
#
# Youngs Moduli (GPa) = 131.57513 99.41711 70.88356
#
# Poissons Ratio (x) = 0.22708 0.15461
# Poissons Ratio (y) = 0.30054 0.35291
# Poissons Ratio (z) = 0.28699 0.49498
#
# Static dielectric constant tensor:
#      x y z
#    x 1.729670 0.000000 0.000000 
#    y 0.000000 1.802740 0.000000 
#    z 0.000000 0.000000 1.788090 
# 
# From -- ./inp_files/11895.got.cif
#   From: 2010.05.17/outbox.cif.g08.bks.cpg/sg67_6_cif.got.tgz:11895.got - 2010.06.03 18:28:57.
