data_PCOD9504104
_publ_section_title
;
Structure prediction by ZEFSAII (Michael W. Deem and Ramdas Pophale) SiO2 
 PCOD9504104
Probable space group: C M M A
;
_chemical_formula_sum "Si O2"
_cell_formula_units_Z 116
_cell_length_a 17.294482
_cell_length_b 31.031945
_cell_length_c 10.789889
_cell_angle_alpha 90.000000
_cell_angle_beta 90.000000
_cell_angle_gamma 90.000000
_cell_volume 5790.732888
_symmetry_space_group_name_H-M "C M M A"
_symmetry_group_IT_number 67
_symmetry_cell_setting 'orthorhombic'
loop_
_space_group_symop_operation_xyz
x,y,z
-x,1/2-y,z
x,-y,-z
-x,1/2+y,-z
-x,-y,-z
x,1/2+y,-z
-x,y,z
x,1/2-y,z
1/2+x,1/2+y,z
1/2-x,-y,z
1/2+x,1/2-y,-z
1/2-x,y,-z
1/2-x,1/2-y,-z
1/2+x,y,-z
1/2-x,1/2+y,z
1/2+x,-y,z
loop_
_atom_site_type_symbol
_atom_site_label
_atom_site_fract_x
_atom_site_fract_y
_atom_site_fract_z
Si Si1 0.591472 0.618871 0.968350
Si Si2 0.907493 0.075003 0.221272
Si Si3 0.591134 0.987549 0.644314
Si Si4 0.329814 0.299458 0.923415
Si Si5 0.185995 0.151867 0.332002
Si Si6 0.153667 0.603577 0.301338
Si Si7 0.500000 0.750000 0.654103
Si Si8 0.081586 0.826802 0.456835
O O1 0.500000 0.614021 0.945578
O O2 0.638115 0.610108 0.843760
O O3 0.615158 0.586776 0.080255
O O4 0.610585 0.666919 0.016025
O O5 0.873937 0.113101 0.305095
O O6 0.000000 0.076588 0.226664
O O7 0.884399 0.028453 0.272777
O O8 0.500000 0.977665 0.672686
O O9 0.644210 0.946377 0.668570
O O10 0.594877 0.000000 0.500000
O O11 0.356514 0.250000 0.924595
O O12 0.313833 0.316333 0.784994
O O13 0.250000 0.302196 0.000000
O O14 0.266942 0.126899 0.339234
O O15 0.153323 0.176651 0.451106
O O16 0.090550 0.629596 0.380471
O O17 0.566961 0.712067 0.638567
O O18 0.000000 0.826330 0.531022
#
# Coordination Sequence:
#
# PCOD9504104 Si02
#       8
#    16  16  16  16  16  16   4  16
#     4  10  21  39  61  90 124 168 212 255 318 378
#     4   9  20  38  60  91 122 162 213 263 303 375
#     4  10  21  38  63  91 123 165 214 258 314 373
#     4  10  21  40  60  88 122 160 202 257 308 369
#     4  11  22  38  66  90 124 162 203 257 322 377
#     4  12  23  39  62  92 130 165 199 260 327 387
#     4   8  24  44  62  84 122 160 222 270 298 384
#     4  10  22  42  60  88 119 162 211 262 309 368
#
# _framework density 20.032005999999999
#
# number of rings (size 3 to 8) (size 9 to 14) (size 15 to 20)
#    0.414    1.379    1.379    2.897    0.966    3.034 
#    2.483    3.448    0.000    1.655    0.000    0.000 
#    0.000    0.000    0.000    0.000    0.000    0.000 
#
# Total GULP energy -323103.614563 kJ/mol
# GULP energy per Si atom -5570.751975 kJ/mol
# Density = 1.998641 g / cm^3
# Si number density = 20.032006 Si / 1000 Ang^3
#
#
#
# Elastic Constant Matrix: (Units=GPa)
#
#
# Indices 1 2 3 4 5 6 
#
# 1 36.0696 9.0897 7.8734 0.0000 0.0000 0.0000
# 2 9.0897 106.2936 24.9723 0.0000 0.0000 0.0000
# 3 7.8734 24.9723 49.9050 0.0000 0.0000 0.0000
# 4 0.0000 0.0000 0.0000 1.5152 0.0000 0.0000
# 5 0.0000 0.0000 0.0000 0.0000 17.3629 0.0000
# 6 0.0000 0.0000 0.0000 0.0000 0.0000 31.6376
#
#
#
# Elastic Compliance Matrix: (Units=1/GPa)
#
#
# Indices 1 2 3 4 5 6 
#
# 1 0.028948 -0.001589 -0.003772 0.000000 0.000000 0.000000
# 2 -0.001589 0.010749 -0.005128 0.000000 0.000000 0.000000
# 3 -0.003772 -0.005128 0.023199 0.000000 0.000000 0.000000
# 4 0.000000 0.000000 0.000000 0.659991 0.000000 0.000000
# 5 0.000000 0.000000 0.000000 0.000000 0.057594 0.000000
# 6 0.000000 0.000000 0.000000 0.000000 0.000000 0.031608
#
#
# Mechanical properties :
#
#
# Convention : Reuss Voigt Hill
#
# Bulk Modulus (GPa) = 23.85623 30.68212 27.26918
# Shear Modulus (GPa) = 5.90291 20.12532 13.01412
#
# Velocity S-wave (km/s) = 1.71847 3.17307 2.55162
# Velocity P-wave (km/s) = 3.98402 5.36417 4.72476
#
# Compressibility (1/GPa) = 0.04191777
#
# Stress axis : x y z
#
# Youngs Moduli (GPa) = 34.54471 93.03602 43.10519
#
# Poissons Ratio (x) = 0.14787 0.16258
# Poissons Ratio (y) = 0.05490 0.22103
# Poissons Ratio (z) = 0.13029 0.47707
#
# Static dielectric constant tensor:
#      x y z
#    x 1.741040 0.000000 0.000000 
#    y 0.000000 1.676450 0.000000 
#    z 0.000000 0.000000 1.726160 
# 
# From -- ./inp_files/20082.got.cif
#   From: 2010.05.17/outbox.cif.g08.bks.cpg/sg67_11_cif.got.tgz:20082.got - 2010.06.03 18:28:57.
