data_PCOD9504956
_publ_section_title
;
Structure prediction by ZEFSAII (Michael W. Deem and Ramdas Pophale) SiO2 
 PCOD9504956
Probable space group: C M M A
;
_chemical_formula_sum "Si O2"
_cell_formula_units_Z 68
_cell_length_a 25.583645
_cell_length_b 20.539004
_cell_length_c 4.949622
_cell_angle_alpha 90.000000
_cell_angle_beta 90.000000
_cell_angle_gamma 90.000000
_cell_volume 2600.841181
_symmetry_space_group_name_H-M "C M M A"
_symmetry_group_IT_number 67
_symmetry_cell_setting 'orthorhombic'
loop_
_space_group_symop_operation_xyz
x,y,z
-x,1/2-y,z
x,-y,-z
-x,1/2+y,-z
-x,-y,-z
x,1/2+y,-z
-x,y,z
x,1/2-y,z
1/2+x,1/2+y,z
1/2-x,-y,z
1/2+x,1/2-y,-z
1/2-x,y,-z
1/2-x,1/2-y,-z
1/2+x,y,-z
1/2-x,1/2+y,z
1/2+x,-y,z
loop_
_atom_site_type_symbol
_atom_site_label
_atom_site_fract_x
_atom_site_fract_y
_atom_site_fract_z
Si Si1 0.888117 0.956007 0.741560
Si Si2 0.591347 0.250000 0.006160
Si Si3 0.000000 0.159325 0.795651
Si Si4 0.705826 0.626701 0.213065
Si Si5 0.500000 0.093074 0.710939
Si Si6 0.336207 0.750000 0.498357
Si Si7 0.750000 0.500000 0.500000
O O1 0.854067 0.894491 0.846478
O O2 0.944370 0.935274 0.630881
O O3 0.864015 0.000000 0.500000
O O4 0.894326 0.000000 0.000000
O O5 0.552504 0.308294 0.089021
O O6 0.642231 0.250000 0.198851
O O7 0.613433 0.250000 0.703637
O O8 0.000000 0.158500 0.474046
O O9 0.000000 0.092493 0.963167
O O10 0.695852 0.684711 0.425987
O O11 0.725231 0.555073 0.304329
O O12 0.750000 0.648334 0.000000
#
# Coordination Sequence:
#
# PCOD9504956 Si02
#       7
#    16   8   8  16   8   8   4
#     4  12  25  45  72 109 154 205 259 319 390 469
#     4  11  24  46  70 112 151 211 253 320 393 466
#     4  11  22  41  70 103 156 204 261 307 385 478
#     4  12  28  50  77 114 152 210 260 326 391 472
#     4  12  24  42  72 111 152 202 256 325 388 462
#     4  12  29  48  80 112 155 194 264 330 396 457
#     4  12  26  50  80 104 152 202 258 308 394 468
#
# _framework density 26.145385999999998
#
# number of rings (size 3 to 8) (size 9 to 14) (size 15 to 20)
#    0.000    0.235    1.176    8.471    3.294    2.353 
#    0.000    0.000    0.000    0.000    0.000    0.000 
#    0.000    0.000    0.000    0.000    0.000    0.000 
#
# Total GULP energy -189809.011934 kJ/mol
# GULP energy per Si atom -5582.617998 kJ/mol
# Density = 2.608588 g / cm^3
# Si number density = 26.145386 Si / 1000 Ang^3
#
#
#
# Elastic Constant Matrix: (Units=GPa)
#
#
# Indices 1 2 3 4 5 6 
#
# 1 106.4499 13.4371 13.7901 0.0000 0.0000 0.0000
# 2 13.4371 93.3429 -8.6036 0.0000 0.0000 0.0000
# 3 13.7901 -8.6036 90.1035 0.0000 0.0000 0.0000
# 4 0.0000 0.0000 0.0000 584.3715 0.0000 0.0000
# 5 0.0000 0.0000 0.0000 0.0000 52.9414 0.0000
# 6 0.0000 0.0000 0.0000 0.0000 0.0000 530.8558
#
#
#
# Elastic Compliance Matrix: (Units=1/GPa)
#
#
# Indices 1 2 3 4 5 6 
#
# 1 0.009805 -0.001564 -0.001650 0.000000 0.000000 0.000000
# 2 -0.001564 0.011058 0.001295 0.000000 0.000000 0.000000
# 3 -0.001650 0.001295 0.011475 0.000000 0.000000 0.000000
# 4 0.000000 0.000000 0.000000 0.001711 0.000000 0.000000
# 5 0.000000 0.000000 0.000000 0.000000 0.018889 0.000000
# 6 0.000000 0.000000 0.000000 0.000000 0.000000 0.001884
#
#
# Mechanical properties :
#
#
# Convention : Reuss Voigt Hill
#
# Bulk Modulus (GPa) = 35.08698 36.34928 35.71813
# Shear Modulus (GPa) = 73.35876 251.71858 162.53867
#
# Velocity S-wave (km/s) = 5.30273 9.82270 7.89317
# Velocity P-wave (km/s) = 7.13730 11.94070 9.83670
#
# Compressibility (1/GPa) = 0.02850060
#
# Stress axis : x y z
#
# Youngs Moduli (GPa) = 101.98661 90.43514 87.14944
#
# Poissons Ratio (x) = 0.14140 0.14379
# Poissons Ratio (y) = 0.15946 -0.11287
# Poissons Ratio (z) = 0.16827 -0.11713
#
# Static dielectric constant tensor:
#      x y z
#    x 2.171670 0.000000 0.000000 
#    y 0.000000 2.091460 0.000000 
#    z 0.000000 0.000000 2.000450 
# 
# From -- ./inp_files/4101.got.cif
#   From: 2010.05.17/outbox.cif.g08.bks.cpg/sg67_3_cif.got.tgz:4101.got - 2010.06.03 18:28:57.
