data_PCOD9504118
_publ_section_title
;
Structure prediction by ZEFSAII (Michael W. Deem and Ramdas Pophale) SiO2 
 PCOD9504118
Probable space group: C M M A
;
_chemical_formula_sum "Si O2"
_cell_formula_units_Z 68
_cell_length_a 17.433765
_cell_length_b 10.153061
_cell_length_c 19.143762
_cell_angle_alpha 90.000000
_cell_angle_beta 90.000000
_cell_angle_gamma 90.000000
_cell_volume 3388.562259
_symmetry_space_group_name_H-M "C M M A"
_symmetry_group_IT_number 67
_symmetry_cell_setting 'orthorhombic'
loop_
_space_group_symop_operation_xyz
x,y,z
-x,1/2-y,z
x,-y,-z
-x,1/2+y,-z
-x,-y,-z
x,1/2+y,-z
-x,y,z
x,1/2-y,z
1/2+x,1/2+y,z
1/2-x,-y,z
1/2+x,1/2-y,-z
1/2-x,y,-z
1/2-x,1/2-y,-z
1/2+x,y,-z
1/2-x,1/2+y,z
1/2+x,-y,z
loop_
_atom_site_type_symbol
_atom_site_label
_atom_site_fract_x
_atom_site_fract_y
_atom_site_fract_z
Si Si1 0.909974 0.750000 0.612213
Si Si2 0.405882 0.043132 0.359778
Si Si3 0.664353 0.750000 0.534782
Si Si4 0.185619 0.599362 0.863478
Si Si5 0.750000 0.000000 0.000000
Si Si6 0.090696 0.389851 0.798625
O O1 0.881443 0.609961 0.639862
O O2 0.893417 0.750000 0.530199
O O3 0.000000 0.750000 0.627113
O O4 0.500000 0.053655 0.372068
O O5 0.358398 0.124561 0.417308
O O6 0.388846 0.096909 0.282800
O O7 0.750000 0.750000 0.500000
O O8 0.188206 0.750000 0.841145
O O9 0.250000 0.500000 0.832109
O O10 0.200325 0.587043 0.946579
O O11 0.111515 0.520039 0.840784
O O12 0.123138 0.250000 0.826975
O O13 0.000000 0.380958 0.800246
#
# Coordination Sequence:
#
# PCOD9504118 Si02
#       6
#     8  16   8  16   4  16
#     4  10  22  38  62  86 110 156 211 257 309 382
#     4  10  21  41  64  84 117 162 206 254 317 379
#     4  12  24  40  58  86 120 158 203 255 311 379
#     4  10  21  38  65  94 126 168 212 255 303 373
#     4   8  22  40  64  88 130 176 210 240 306 384
#     4  10  21  39  63  92 126 167 212 261 314 370
#
# _framework density 20.067509000000001
#
# number of rings (size 3 to 8) (size 9 to 14) (size 15 to 20)
#    0.706    1.176    1.176    2.824    1.647    4.235 
#    4.235    0.588    0.000    0.000    0.000    0.000 
#    0.000    0.000    0.000    0.000    0.000    0.000 
#
# Total GULP energy -189322.291036 kJ/mol
# GULP energy per Si atom -5568.302678 kJ/mol
# Density = 2.002183 g / cm^3
# Si number density = 20.067509 Si / 1000 Ang^3
#
#
#
# Elastic Constant Matrix: (Units=GPa)
#
#
# Indices 1 2 3 4 5 6 
#
# 1 33.6174 38.7962 27.3098 0.0000 0.0000 0.0000
# 2 38.7962 215.9133 41.8876 0.0000 0.0000 0.0000
# 3 27.3098 41.8876 56.3111 0.0000 0.0000 0.0000
# 4 0.0000 0.0000 0.0000 -17.4534 0.0000 0.0000
# 5 0.0000 0.0000 0.0000 0.0000 28.5561 0.0000
# 6 0.0000 0.0000 0.0000 0.0000 0.0000 104.4608
#
#
#
# Elastic Compliance Matrix: (Units=1/GPa)
#
#
# Indices 1 2 3 4 5 6 
#
# 1 0.053984 -0.005400 -0.022164 0.000000 0.000000 0.000000
# 2 -0.005400 0.005953 -0.001809 0.000000 0.000000 0.000000
# 3 -0.022164 -0.001809 0.029853 0.000000 0.000000 0.000000
# 4 0.000000 0.000000 0.000000 -0.057295 0.000000 0.000000
# 5 0.000000 0.000000 0.000000 0.000000 0.035019 0.000000
# 6 0.000000 0.000000 0.000000 0.000000 0.000000 0.009573
#
#
# Mechanical properties :
#
#
# Convention : Reuss Voigt Hill
#
# Bulk Modulus (GPa) = 32.21305 57.98099 45.09702
# Shear Modulus (GPa) = 34.20410 36.30259 35.25334
#
# Velocity S-wave (km/s) = 4.13298 4.25788 4.19589
# Velocity P-wave (km/s) = 6.23398 7.28892 6.78200
#
# Compressibility (1/GPa) = 0.03104332
#
# Stress axis : x y z
#
# Youngs Moduli (GPa) = 18.52398 167.98889 33.49705
#
# Poissons Ratio (x) = 0.90717 0.74244
# Poissons Ratio (y) = 0.10003 0.06060
# Poissons Ratio (z) = 0.41057 0.30390
#
# Static dielectric constant tensor:
#      x y z
#    x 1.807300 0.000000 0.000000 
#    y 0.000000 1.772800 0.000000 
#    z 0.000000 0.000000 1.676290 
# 
# From -- ./inp_files/38825.got.cif
#   From: 2010.05.17/outbox.cif.g08.bks.cpg/sg67_20_cif.got.tgz:38825.got - 2010.06.03 18:28:57.
