data_PCOD9504877
_publ_section_title
;
Structure prediction by ZEFSAII (Michael W. Deem and Ramdas Pophale) SiO2 
 PCOD9504877
Probable space group: C M M A
;
_chemical_formula_sum "Si O2"
_cell_formula_units_Z 80
_cell_length_a 15.221266
_cell_length_b 10.336423
_cell_length_c 24.614246
_cell_angle_alpha 90.000000
_cell_angle_beta 90.000000
_cell_angle_gamma 90.000000
_cell_volume 3872.644094
_symmetry_space_group_name_H-M "C M M A"
_symmetry_group_IT_number 67
_symmetry_cell_setting 'orthorhombic'
loop_
_space_group_symop_operation_xyz
x,y,z
-x,1/2-y,z
x,-y,-z
-x,1/2+y,-z
-x,-y,-z
x,1/2+y,-z
-x,y,z
x,1/2-y,z
1/2+x,1/2+y,z
1/2-x,-y,z
1/2+x,1/2-y,-z
1/2-x,y,-z
1/2-x,1/2-y,-z
1/2+x,y,-z
1/2-x,1/2+y,z
1/2+x,-y,z
loop_
_atom_site_type_symbol
_atom_site_label
_atom_site_fract_x
_atom_site_fract_y
_atom_site_fract_z
Si Si1 0.607230 0.897576 0.668249
Si Si2 0.165534 0.250000 0.929917
Si Si3 0.399821 0.005897 0.874675
Si Si4 0.371395 0.250000 0.949906
Si Si5 0.892320 0.896507 0.757554
Si Si6 0.392682 0.897654 0.544502
O O1 0.500000 0.898612 0.668846
O O2 0.634019 0.750000 0.680913
O O3 0.633994 0.928695 0.606378
O O4 0.636779 0.001670 0.712242
O O5 0.148249 0.380604 0.897055
O O6 0.266976 0.250000 0.944634
O O7 0.109600 0.250000 0.985930
O O8 0.500000 0.964816 0.864484
O O9 0.401141 0.121562 0.918501
O O10 0.364240 0.060601 0.817812
O O11 0.863667 0.750000 0.746347
O O12 0.000000 0.895288 0.757711
O O13 0.500000 0.899509 0.543991
O O14 0.366290 0.750000 0.532135
O O15 0.362055 0.000000 0.500000
#
# Coordination Sequence:
#
# PCOD9504877 Si02
#       6
#    16   8  16   8  16  16
#     4   8  14  23  36  54  80 115 155 203 254 300
#     4  11  25  39  59  83 107 141 178 211 262 328
#     4  11  22  37  58  84 109 136 177 225 265 310
#     4  11  23  43  59  77 111 145 172 211 266 326
#     4   9  17  29  44  65  93 123 158 205 260 308
#     4   8  13  20  29  45  71 107 153 200 242 289
#
# _framework density 20.657720999999999
#
# number of rings (size 3 to 8) (size 9 to 14) (size 15 to 20)
#    0.000    2.600    1.000    3.000    1.400    4.800 
#    0.000    4.000    0.000    0.000    0.000    0.000 
#    0.000    0.000    0.000    0.000    0.000    6.000 
#
# Total GULP energy -223327.838506 kJ/mol
# GULP energy per Si atom -5583.195963 kJ/mol
# Density = 2.061070 g / cm^3
# Si number density = 20.657721 Si / 1000 Ang^3
#
#
#
# Elastic Constant Matrix: (Units=GPa)
#
#
# Indices 1 2 3 4 5 6 
#
# 1 34.2580 8.8921 3.2965 0.0000 0.0000 0.0000
# 2 8.8921 178.5559 121.6097 0.0000 0.0000 0.0000
# 3 3.2965 121.6097 163.1660 0.0000 0.0000 0.0000
# 4 0.0000 0.0000 0.0000 34.4282 0.0000 0.0000
# 5 0.0000 0.0000 0.0000 0.0000 -58.4980 0.0000
# 6 0.0000 0.0000 0.0000 0.0000 0.0000 16.0765
#
#
#
# Elastic Compliance Matrix: (Units=1/GPa)
#
#
# Indices 1 2 3 4 5 6 
#
# 1 0.029656 -0.002171 0.001019 0.000000 0.000000 0.000000
# 2 -0.002171 0.011533 -0.008552 0.000000 0.000000 0.000000
# 3 0.001019 -0.008552 0.012482 0.000000 0.000000 0.000000
# 4 0.000000 0.000000 0.000000 0.029046 0.000000 0.000000
# 5 0.000000 0.000000 0.000000 0.000000 -0.017095 0.000000
# 6 0.000000 0.000000 0.000000 0.000000 0.000000 0.062203
#
#
# Mechanical properties :
#
#
# Convention : Reuss Voigt Hill
#
# Bulk Modulus (GPa) = 29.18603 71.50850 50.34726
# Shear Modulus (GPa) = 31.51525 14.54679 23.03102
#
# Velocity S-wave (km/s) = 3.91012 2.65652 3.34261
# Velocity P-wave (km/s) = 5.87745 6.64082 6.27076
#
# Compressibility (1/GPa) = 0.03426297
#
# Stress axis : x y z
#
# Youngs Moduli (GPa) = 33.72038 86.70755 80.11572
#
# Poissons Ratio (x) = 0.18821 -0.08161
# Poissons Ratio (y) = 0.07319 0.68514
# Poissons Ratio (z) = -0.03435 0.74151
#
# Static dielectric constant tensor:
#      x y z
#    x 1.763670 0.000000 0.000000 
#    y 0.000000 1.690450 0.000000 
#    z 0.000000 0.000000 1.729290 
# 
# From -- ./inp_files/44456.got.cif
#   From: 2010.05.17/outbox.cif.g08.bks.cpg/sg67_23_cif.got.tgz:44456.got - 2010.06.03 18:28:57.
