data_PCOD9504448
_publ_section_title
;
Structure prediction by ZEFSAII (Michael W. Deem and Ramdas Pophale) SiO2 
 PCOD9504448
Probable space group: C M M A
;
_chemical_formula_sum "Si O2"
_cell_formula_units_Z 72
_cell_length_a 10.304413
_cell_length_b 14.444188
_cell_length_c 24.522449
_cell_angle_alpha 90.000000
_cell_angle_beta 90.000000
_cell_angle_gamma 90.000000
_cell_volume 3649.893810
_symmetry_space_group_name_H-M "C M M A"
_symmetry_group_IT_number 67
_symmetry_cell_setting 'orthorhombic'
loop_
_space_group_symop_operation_xyz
x,y,z
-x,1/2-y,z
x,-y,-z
-x,1/2+y,-z
-x,-y,-z
x,1/2+y,-z
-x,y,z
x,1/2-y,z
1/2+x,1/2+y,z
1/2-x,-y,z
1/2+x,1/2-y,-z
1/2-x,y,-z
1/2-x,1/2-y,-z
1/2+x,y,-z
1/2-x,1/2+y,z
1/2+x,-y,z
loop_
_atom_site_type_symbol
_atom_site_label
_atom_site_fract_x
_atom_site_fract_y
_atom_site_fract_z
Si Si1 0.000000 0.111909 0.056735
Si Si2 0.649944 0.084511 0.634363
Si Si3 0.348594 0.250000 0.549930
Si Si4 0.000000 0.113230 0.931404
Si Si5 0.846554 0.912068 0.756160
Si Si6 0.258787 0.886949 0.129411
O O1 0.872710 0.141281 0.088911
O O2 0.000000 0.999238 0.061945
O O3 0.000000 0.142808 0.994290
O O4 0.500000 0.051266 0.630518
O O5 0.671426 0.160565 0.588180
O O6 0.661543 0.128367 0.695233
O O7 0.750000 0.000000 0.629161
O O8 0.500000 0.250000 0.532197
O O9 0.250000 0.250000 0.500000
O O10 0.875559 0.142314 0.896972
O O11 0.795188 0.858525 0.809177
O O12 0.000000 0.935352 0.766081
O O13 0.750000 0.000000 0.752929
O O14 0.250000 0.000000 0.130789
#
# Coordination Sequence:
#
# PCOD9504448 Si02
#       6
#     8  16   8   8  16  16
#     4   9  14  22  28  42  68 107 155 202 251 309
#     4   9  19  36  57  84 113 150 189 231 276 325
#     4  10  22  40  62  86 120 154 187 225 272 322
#     4   9  16  20  28  42  70 109 153 204 249 315
#     4   9  16  26  42  62  88 121 166 213 261 311
#     4   9  15  21  31  47  71 109 156 202 256 305
#
# _framework density 19.726600999999999
#
# number of rings (size 3 to 8) (size 9 to 14) (size 15 to 20)
#    0.000    2.889    1.111    0.667    4.667    4.000 
#    0.000    2.222    0.000    0.000    0.000    0.000 
#    0.000    0.000    0.000    6.000    0.000   14.778 
#
# Total GULP energy -200692.845205 kJ/mol
# GULP energy per Si atom -5574.801256 kJ/mol
# Density = 1.968170 g / cm^3
# Si number density = 19.726601 Si / 1000 Ang^3
#
#
#
# Elastic Constant Matrix: (Units=GPa)
#
#
# Indices 1 2 3 4 5 6 
#
# 1 186.8403 43.1875 122.4075 0.0000 0.0000 0.0000
# 2 43.1875 82.5932 38.4224 0.0000 0.0000 0.0000
# 3 122.4075 38.4224 200.1827 0.0000 0.0000 0.0000
# 4 0.0000 0.0000 0.0000 84.0235 0.0000 0.0000
# 5 0.0000 0.0000 0.0000 0.0000 41.8914 0.0000
# 6 0.0000 0.0000 0.0000 0.0000 0.0000 -1.7717
#
#
#
# Elastic Compliance Matrix: (Units=1/GPa)
#
#
# Indices 1 2 3 4 5 6 
#
# 1 0.009360 -0.002451 -0.005253 0.000000 0.000000 0.000000
# 2 -0.002451 0.013936 -0.001176 0.000000 0.000000 0.000000
# 3 -0.005253 -0.001176 0.008433 0.000000 0.000000 0.000000
# 4 0.000000 0.000000 0.000000 0.011901 0.000000 0.000000
# 5 0.000000 0.000000 0.000000 0.000000 0.023871 0.000000
# 6 0.000000 0.000000 0.000000 0.000000 0.000000 -0.564437
#
#
# Mechanical properties :
#
#
# Convention : Reuss Voigt Hill
#
# Bulk Modulus (GPa) = 71.58461 97.51679 84.55070
# Shear Modulus (GPa) = -10.53703 42.53522 15.99910
#
# Velocity S-wave (km/s) = -2.31368 4.64857 2.85097
# Velocity P-wave (km/s) = 5.40644 8.85176 7.33428
#
# Compressibility (1/GPa) = 0.01396948
#
# Stress axis : x y z
#
# Youngs Moduli (GPa) = 106.83485 71.75557 118.57519
#
# Poissons Ratio (x) = 0.17584 0.62290
# Poissons Ratio (y) = 0.26181 0.13949
# Poissons Ratio (z) = 0.56123 0.08441
#
# Static dielectric constant tensor:
#      x y z
#    x 1.684080 0.000000 0.000000 
#    y 0.000000 1.755240 0.000000 
#    z 0.000000 0.000000 1.693250 
# 
# From -- ./inp_files/43143.got.cif
#   From: 2010.05.17/outbox.cif.g08.bks.cpg/sg67_22_cif.got.tgz:43143.got - 2010.06.03 18:28:57.
