data_PCOD9504509
_publ_section_title
;
Structure prediction by ZEFSAII (Michael W. Deem and Ramdas Pophale) SiO2 
 PCOD9504509
Probable space group: C M M A
;
_chemical_formula_sum "Si O2"
_cell_formula_units_Z 116
_cell_length_a 17.084178
_cell_length_b 16.941455
_cell_length_c 18.968624
_cell_angle_alpha 90.000000
_cell_angle_beta 90.000000
_cell_angle_gamma 90.000000
_cell_volume 5490.104641
_symmetry_space_group_name_H-M "C M M A"
_symmetry_group_IT_number 67
_symmetry_cell_setting 'orthorhombic'
loop_
_space_group_symop_operation_xyz
x,y,z
-x,1/2-y,z
x,-y,-z
-x,1/2+y,-z
-x,-y,-z
x,1/2+y,-z
-x,y,z
x,1/2-y,z
1/2+x,1/2+y,z
1/2-x,-y,z
1/2+x,1/2-y,-z
1/2-x,y,-z
1/2-x,1/2-y,-z
1/2+x,y,-z
1/2-x,1/2+y,z
1/2+x,-y,z
loop_
_atom_site_type_symbol
_atom_site_label
_atom_site_fract_x
_atom_site_fract_y
_atom_site_fract_z
Si Si1 0.838189 0.415705 0.174145
Si Si2 0.729786 0.906186 0.421667
Si Si3 0.910139 0.560853 0.670102
Si Si4 0.378594 0.624886 0.659058
Si Si5 0.170016 0.839407 0.187427
Si Si6 0.500000 0.250000 0.393107
Si Si7 0.405731 0.163100 0.955364
Si Si8 0.407674 0.441677 0.082493
O O1 0.875539 0.423721 0.251702
O O2 0.746937 0.395131 0.184396
O O3 0.875232 0.349219 0.123679
O O4 0.861264 0.492736 0.127552
O O5 0.750000 0.877610 0.500000
O O6 0.643280 0.898984 0.390049
O O7 0.790168 0.868388 0.367796
O O8 0.750000 0.000000 0.421421
O O9 0.904128 0.466538 0.657024
O O10 0.000000 0.585526 0.667166
O O11 0.376513 0.650598 0.739918
O O12 0.432753 0.680846 0.613692
O O13 0.197200 0.750000 0.179970
O O14 0.109079 0.863244 0.127448
O O15 0.500000 0.161700 0.955893
O O16 0.379693 0.250000 0.980668
O O17 0.381723 0.088929 0.005107
O O18 0.500000 0.462508 0.081194
#
# Coordination Sequence:
#
# PCOD9504509 Si02
#       8
#    16  16  16  16  16   4  16  16
#     4  12  23  39  63  92 128 170 221 276 332 388
#     4   9  20  41  65  95 139 175 209 271 339 391
#     4  11  21  37  66 102 132 169 226 279 328 396
#     4  11  22  39  61  96 133 171 218 266 334 393
#     4  12  25  39  61  91 130 171 210 264 331 401
#     4  12  24  40  66  98 134 176 214 270 330 392
#     4  10  22  42  62  89 128 174 217 270 335 405
#     4  11  24  40  65  94 123 163 219 278 334 385
#
# _framework density 21.128924000000001
#
# number of rings (size 3 to 8) (size 9 to 14) (size 15 to 20)
#    0.000    1.103    4.138    2.897    0.966    2.483 
#    1.241    4.483    0.000    0.000    0.000    0.000 
#    0.000    0.000    0.000    0.000    0.000    0.000 
#
# Total GULP energy -323237.501258 kJ/mol
# GULP energy per Si atom -5573.060367 kJ/mol
# Density = 2.108083 g / cm^3
# Si number density = 21.128924 Si / 1000 Ang^3
#
#
#
# Elastic Constant Matrix: (Units=GPa)
#
#
# Indices 1 2 3 4 5 6 
#
# 1 79.9903 27.1318 8.6249 0.0000 0.0000 0.0000
# 2 27.1318 61.9834 5.3167 0.0000 0.0000 0.0000
# 3 8.6249 5.3167 92.3614 0.0000 0.0000 0.0000
# 4 0.0000 0.0000 0.0000 -3.0082 0.0000 0.0000
# 5 0.0000 0.0000 0.0000 0.0000 14.0724 0.0000
# 6 0.0000 0.0000 0.0000 0.0000 0.0000 7.9977
#
#
#
# Elastic Compliance Matrix: (Units=1/GPa)
#
#
# Indices 1 2 3 4 5 6 
#
# 1 0.014775 -0.006381 -0.001012 0.000000 0.000000 0.000000
# 2 -0.006381 0.018969 -0.000496 0.000000 0.000000 0.000000
# 3 -0.001012 -0.000496 0.010950 0.000000 0.000000 0.000000
# 4 0.000000 0.000000 0.000000 -0.332427 0.000000 0.000000
# 5 0.000000 0.000000 0.000000 0.000000 0.071061 0.000000
# 6 0.000000 0.000000 0.000000 0.000000 0.000000 0.125037
#
#
# Mechanical properties :
#
#
# Convention : Reuss Voigt Hill
#
# Bulk Modulus (GPa) = 34.58324 35.16468 34.87396
# Shear Modulus (GPa) = -75.50732 16.69648 -29.40542
#
# Velocity S-wave (km/s) = -5.98448 2.81413 -3.73462
# Velocity P-wave (km/s) = 5.59900 5.21902 1.43364
#
# Compressibility (1/GPa) = 0.02891574
#
# Stress axis : x y z
#
# Youngs Moduli (GPa) = 67.68242 52.71809 91.32312
#
# Poissons Ratio (x) = 0.33637 0.09246
# Poissons Ratio (y) = 0.43185 0.04531
# Poissons Ratio (z) = 0.06852 0.02615
#
# Static dielectric constant tensor:
#      x y z
#    x 1.968390 0.000000 0.000000 
#    y 0.000000 1.810440 0.000000 
#    z 0.000000 0.000000 1.804100 
# 
# From -- ./inp_files/34354.got.cif
#   From: 2010.05.17/outbox.cif.g08.bks.cpg/sg67_18_cif.got.tgz:34354.got - 2010.06.03 18:28:57.
