data_PCOD9504937
_publ_section_title
;
Structure prediction by ZEFSAII (Michael W. Deem and Ramdas Pophale) SiO2 
 PCOD9504937
Probable space group: C M M A
;
_chemical_formula_sum "Si O2"
_cell_formula_units_Z 96
_cell_length_a 16.071956
_cell_length_b 20.710083
_cell_length_c 13.360324
_cell_angle_alpha 90.000000
_cell_angle_beta 90.000000
_cell_angle_gamma 90.000000
_cell_volume 4447.004455
_symmetry_space_group_name_H-M "C M M A"
_symmetry_group_IT_number 67
_symmetry_cell_setting 'orthorhombic'
loop_
_space_group_symop_operation_xyz
x,y,z
-x,1/2-y,z
x,-y,-z
-x,1/2+y,-z
-x,-y,-z
x,1/2+y,-z
-x,y,z
x,1/2-y,z
1/2+x,1/2+y,z
1/2-x,-y,z
1/2+x,1/2-y,-z
1/2-x,y,-z
1/2-x,1/2-y,-z
1/2+x,y,-z
1/2-x,1/2+y,z
1/2+x,-y,z
loop_
_atom_site_type_symbol
_atom_site_label
_atom_site_fract_x
_atom_site_fract_y
_atom_site_fract_z
Si Si1 0.599779 0.750000 0.527643
Si Si2 0.000000 0.960996 0.894604
Si Si3 0.897427 0.750000 0.232237
Si Si4 0.346672 0.105028 0.528859
Si Si5 0.337096 0.468325 0.154948
Si Si6 0.500000 0.315880 0.924614
Si Si7 0.162106 0.662948 0.056492
Si Si8 0.097478 0.985635 0.353737
O O1 0.500000 0.750000 0.521630
O O2 0.620803 0.750000 0.648448
O O3 0.630290 0.681657 0.477750
O O4 0.087313 0.983073 0.851951
O O5 0.000000 0.885107 0.877723
O O6 0.000000 0.000000 0.000000
O O7 0.855190 0.807595 0.167176
O O8 0.000000 0.750000 0.221195
O O9 0.250000 0.099788 0.500000
O O10 0.396990 0.063624 0.446616
O O11 0.365681 0.057601 0.623799
O O12 0.250000 0.500000 0.138139
O O13 0.346119 0.412649 0.074479
O O14 0.347960 0.448909 0.270165
O O15 0.500000 0.250000 0.862180
O O16 0.416688 0.315886 0.991533
O O17 0.250000 0.677036 0.000000
O O18 0.000000 0.991246 0.329077
#
# Coordination Sequence:
#
# PCOD9504937 Si02
#       8
#     8   8   8  16  16   8  16  16
#     4  11  23  40  66 100 135 177 225 272 336 404
#     4  12  24  42  66  93 125 173 222 274 335 389
#     4  11  23  40  64  97 134 172 226 282 326 399
#     4  11  22  40  67  98 134 173 216 271 340 407
#     4  12  25  41  65  97 132 167 224 280 331 399
#     4  12  24  42  64  86 125 162 223 265 325 392
#     4  12  23  39  65  94 127 174 219 280 339 389
#     4  11  22  41  67  98 131 173 219 274 338 401
#
# _framework density 21.587565000000001
#
# number of rings (size 3 to 8) (size 9 to 14) (size 15 to 20)
#    0.000    0.500    4.167    6.500    0.000    1.333 
#    0.000    0.000    1.833    0.000    0.000    0.000 
#    0.000    0.000    0.000    0.000    0.000    0.000 
#
# Total GULP energy -267465.246016 kJ/mol
# GULP energy per Si atom -5572.192625 kJ/mol
# Density = 2.153843 g / cm^3
# Si number density = 21.587565 Si / 1000 Ang^3
#
#
#
# Elastic Constant Matrix: (Units=GPa)
#
#
# Indices 1 2 3 4 5 6 
#
# 1 164.4881 64.2193 14.3741 0.0000 0.0000 0.0000
# 2 64.2193 151.5416 13.6285 0.0000 0.0000 0.0000
# 3 14.3741 13.6285 35.9252 0.0000 0.0000 0.0000
# 4 0.0000 0.0000 0.0000 31.5213 0.0000 0.0000
# 5 0.0000 0.0000 0.0000 0.0000 32.0605 0.0000
# 6 0.0000 0.0000 0.0000 0.0000 0.0000 50.8317
#
#
#
# Elastic Compliance Matrix: (Units=1/GPa)
#
#
# Indices 1 2 3 4 5 6 
#
# 1 0.007400 -0.002971 -0.001834 0.000000 0.000000 0.000000
# 2 -0.002971 0.008025 -0.001856 0.000000 0.000000 0.000000
# 3 -0.001834 -0.001856 0.029273 0.000000 0.000000 0.000000
# 4 0.000000 0.000000 0.000000 0.031725 0.000000 0.000000
# 5 0.000000 0.000000 0.000000 0.000000 0.031191 0.000000
# 6 0.000000 0.000000 0.000000 0.000000 0.000000 0.019673
#
#
# Mechanical properties :
#
#
# Convention : Reuss Voigt Hill
#
# Bulk Modulus (GPa) = 31.87008 59.59986 45.73497
# Shear Modulus (GPa) = 33.09832 40.19824 36.64828
#
# Velocity S-wave (km/s) = 3.91987 4.31989 4.12473
# Velocity P-wave (km/s) = 5.93990 7.24916 6.62694
#
# Compressibility (1/GPa) = 0.03137739
#
# Stress axis : x y z
#
# Youngs Moduli (GPa) = 135.14284 124.61548 34.16089
#
# Poissons Ratio (x) = 0.37021 0.06264
# Poissons Ratio (y) = 0.40149 0.06339
# Poissons Ratio (z) = 0.24781 0.23123
#
# Static dielectric constant tensor:
#      x y z
#    x 1.730200 0.000000 0.000000 
#    y 0.000000 1.834720 0.000000 
#    z 0.000000 0.000000 1.923970 
# 
# From -- ./inp_files/27313.got.cif
#   From: 2010.05.17/outbox.cif.g08.bks.cpg/sg67_14_cif.got.tgz:27313.got - 2010.06.03 18:28:57.
