data_PCOD9504158
_publ_section_title
;
Structure prediction by ZEFSAII (Michael W. Deem and Ramdas Pophale) SiO2 
 PCOD9504158
Probable space group: C M M A
;
_chemical_formula_sum "Si O2"
_cell_formula_units_Z 80
_cell_length_a 16.309981
_cell_length_b 9.064989
_cell_length_c 27.360119
_cell_angle_alpha 90.000000
_cell_angle_beta 90.000000
_cell_angle_gamma 90.000000
_cell_volume 4045.188077
_symmetry_space_group_name_H-M "C M M A"
_symmetry_group_IT_number 67
_symmetry_cell_setting 'orthorhombic'
loop_
_space_group_symop_operation_xyz
x,y,z
-x,1/2-y,z
x,-y,-z
-x,1/2+y,-z
-x,-y,-z
x,1/2+y,-z
-x,y,z
x,1/2-y,z
1/2+x,1/2+y,z
1/2-x,-y,z
1/2+x,1/2-y,-z
1/2-x,y,-z
1/2-x,1/2-y,-z
1/2+x,y,-z
1/2-x,1/2+y,z
1/2+x,-y,z
loop_
_atom_site_type_symbol
_atom_site_label
_atom_site_fract_x
_atom_site_fract_y
_atom_site_fract_z
Si Si1 0.600157 0.077335 0.049201
Si Si2 0.404182 0.570170 0.845351
Si Si3 0.901021 0.079788 0.739073
Si Si4 0.597954 0.583045 0.547960
Si Si5 0.338404 0.425549 0.643046
O O1 0.500000 0.065019 0.050148
O O2 0.619213 0.250000 0.045993
O O3 0.630353 0.020135 0.102210
O O4 0.629632 0.000000 0.000000
O O5 0.500000 0.525577 0.845223
O O6 0.403162 0.750000 0.845856
O O7 0.369324 0.527581 0.792427
O O8 0.873942 0.250000 0.730549
O O9 0.000000 0.083536 0.742020
O O10 0.876409 0.978635 0.694207
O O11 0.631143 0.500000 0.500000
O O12 0.500000 0.594289 0.542042
O O13 0.630916 0.750000 0.552283
O O14 0.613720 0.491003 0.596749
O O15 0.334673 0.250000 0.640570
O O16 0.250000 0.500000 0.640405
#
# Coordination Sequence:
#
# PCOD9504158 Si02
#       5
#    16  16  16  16  16
#     4   8  12  18  29  48  77 114 153 191 234 285
#     4   7  11  21  38  59  84 118 159 198 239 293
#     4   9  17  32  54  76  99 131 171 213 257 306
#     4  10  21  39  63  89 115 142 173 208 247 294
#     4  12  25  39  55  77 107 140 175 214 257 304
#
# _framework density 19.776582999999999
#
# number of rings (size 3 to 8) (size 9 to 14) (size 15 to 20)
#    0.000    2.800    0.000    5.400    0.000    4.400 
#    0.000    3.000    0.000    3.600    0.000    0.000 
#    0.000    0.800    0.000    9.200    0.000   10.800 
#
# Total GULP energy -222880.767731 kJ/mol
# GULP energy per Si atom -5572.019193 kJ/mol
# Density = 1.973157 g / cm^3
# Si number density = 19.776583 Si / 1000 Ang^3
#
#
#
# Elastic Constant Matrix: (Units=GPa)
#
#
# Indices 1 2 3 4 5 6 
#
# 1 7.9771 9.0575 4.8608 0.0000 0.0000 0.0000
# 2 9.0575 118.0463 88.0524 0.0000 0.0000 0.0000
# 3 4.8608 88.0524 212.6275 0.0000 0.0000 0.0000
# 4 0.0000 0.0000 0.0000 23.6238 0.0000 0.0000
# 5 0.0000 0.0000 0.0000 0.0000 -32.3638 0.0000
# 6 0.0000 0.0000 0.0000 0.0000 0.0000 13.7772
#
#
#
# Elastic Compliance Matrix: (Units=1/GPa)
#
#
# Indices 1 2 3 4 5 6 
#
# 1 0.137785 -0.011898 0.001777 0.000000 0.000000 0.000000
# 2 -0.011898 0.013285 -0.005229 0.000000 0.000000 0.000000
# 3 0.001777 -0.005229 0.006828 0.000000 0.000000 0.000000
# 4 0.000000 0.000000 0.000000 0.042330 0.000000 0.000000
# 5 0.000000 0.000000 0.000000 0.000000 -0.030899 0.000000
# 6 0.000000 0.000000 0.000000 0.000000 0.000000 0.072584
#
#
# Mechanical properties :
#
#
# Convention : Reuss Voigt Hill
#
# Bulk Modulus (GPa) = 7.86178 60.28804 34.07491
# Shear Modulus (GPa) = 15.87242 16.78612 16.32927
#
# Velocity S-wave (km/s) = 2.83607 2.91656 2.87659
# Velocity P-wave (km/s) = 3.83514 6.47244 5.31981
#
# Compressibility (1/GPa) = 0.12719772
#
# Stress axis : x y z
#
# Youngs Moduli (GPa) = 7.25771 75.27354 146.45467
#
# Poissons Ratio (x) = 0.89557 -0.26027
# Poissons Ratio (y) = 0.08635 0.76588
# Poissons Ratio (z) = -0.01290 0.39364
#
# Static dielectric constant tensor:
#      x y z
#    x 1.731380 0.000000 0.000000 
#    y 0.000000 1.676960 0.000000 
#    z 0.000000 0.000000 1.766370 
# 
# From -- ./inp_files/43235.got.cif
#   From: 2010.05.17/outbox.cif.g08.bks.cpg/sg67_22_cif.got.tgz:43235.got - 2010.06.03 18:28:57.
