data_PCOD9504344
_publ_section_title
;
Structure prediction by ZEFSAII (Michael W. Deem and Ramdas Pophale) SiO2 
 PCOD9504344
Probable space group: C M M A
;
_chemical_formula_sum "Si O2"
_cell_formula_units_Z 128
_cell_length_a 28.615035
_cell_length_b 23.310064
_cell_length_c 10.714928
_cell_angle_alpha 90.000000
_cell_angle_beta 90.000000
_cell_angle_gamma 90.000000
_cell_volume 7147.053029
_symmetry_space_group_name_H-M "C M M A"
_symmetry_group_IT_number 67
_symmetry_cell_setting 'orthorhombic'
loop_
_space_group_symop_operation_xyz
x,y,z
-x,1/2-y,z
x,-y,-z
-x,1/2+y,-z
-x,-y,-z
x,1/2+y,-z
-x,y,z
x,1/2-y,z
1/2+x,1/2+y,z
1/2-x,-y,z
1/2+x,1/2-y,-z
1/2-x,y,-z
1/2-x,1/2-y,-z
1/2+x,y,-z
1/2-x,1/2+y,z
1/2+x,-y,z
loop_
_atom_site_type_symbol
_atom_site_label
_atom_site_fract_x
_atom_site_fract_y
_atom_site_fract_z
Si Si1 0.818435 0.681576 0.801225
Si Si2 0.946086 0.590538 0.062931
Si Si3 0.139997 0.423315 0.314950
Si Si4 0.052576 0.973822 0.795748
Si Si5 0.713020 0.817036 0.707716
Si Si6 0.156338 0.870978 0.067038
Si Si7 0.196629 0.983998 0.177878
Si Si8 0.199769 0.921754 0.445304
O O1 0.825764 0.750000 0.796159
O O2 0.853306 0.643324 0.718169
O O3 0.765899 0.668993 0.752425
O O4 0.824857 0.658295 0.941506
O O5 0.938773 0.539519 0.163603
O O6 0.900171 0.629791 0.070920
O O7 0.000000 0.612199 0.077975
O O8 0.944055 0.561458 0.925804
O O9 0.088591 0.447713 0.300632
O O10 0.168183 0.458279 0.207057
O O11 0.162119 0.434679 0.449507
O O12 0.000000 0.969402 0.749690
O O13 0.710058 0.750000 0.684162
O O14 0.678694 0.836367 0.818286
O O15 0.700724 0.854533 0.587666
O O16 0.174025 0.937362 0.084375
O O17 0.194847 0.952725 0.313004
O O18 0.250000 0.000000 0.147488
O O19 0.250000 0.936933 0.500000
#
# Coordination Sequence:
#
# PCOD9504344 Si02
#       8
#    16  16  16  16  16  16  16  16
#     4  11  23  37  54  79 113 150 189 226 266 323
#     4   9  17  32  55  82 113 143 178 221 276 341
#     4  12  20  34  58  81 110 146 181 226 277 323
#     4   9  18  33  54  83 113 143 175 219 276 340
#     4  10  22  38  54  76 109 154 196 226 262 321
#     4  11  20  35  55  82 114 147 178 224 286 329
#     4  11  22  34  52  80 117 149 177 221 272 341
#     4  11  21  35  54  78 109 148 182 229 271 317
#
# _framework density 17.909479000000001
#
# number of rings (size 3 to 8) (size 9 to 14) (size 15 to 20)
#    0.000    1.500    5.000    2.625    0.000    2.250 
#    0.000    1.875    0.000    7.125    0.000    0.000 
#    0.000    0.000    0.000    0.000    0.000    0.000 
#
# Total GULP energy -357391.033068 kJ/mol
# GULP energy per Si atom -5584.234892 kJ/mol
# Density = 1.786872 g / cm^3
# Si number density = 17.909479 Si / 1000 Ang^3
#
#
#
# Elastic Constant Matrix: (Units=GPa)
#
#
# Indices 1 2 3 4 5 6 
#
# 1 108.3494 27.4525 28.9219 0.0000 0.0000 0.0000
# 2 27.4525 76.3501 20.6485 0.0000 0.0000 0.0000
# 3 28.9219 20.6485 79.4498 0.0000 0.0000 0.0000
# 4 0.0000 0.0000 0.0000 21.6117 0.0000 0.0000
# 5 0.0000 0.0000 0.0000 0.0000 22.1640 0.0000
# 6 0.0000 0.0000 0.0000 0.0000 0.0000 20.2870
#
#
#
# Elastic Compliance Matrix: (Units=1/GPa)
#
#
# Indices 1 2 3 4 5 6 
#
# 1 0.010843 -0.003045 -0.003156 0.000000 0.000000 0.000000
# 2 -0.003045 0.014943 -0.002775 0.000000 0.000000 0.000000
# 3 -0.003156 -0.002775 0.014457 0.000000 0.000000 0.000000
# 4 0.000000 0.000000 0.000000 0.046271 0.000000 0.000000
# 5 0.000000 0.000000 0.000000 0.000000 0.045118 0.000000
# 6 0.000000 0.000000 0.000000 0.000000 0.000000 0.049293
#
#
# Mechanical properties :
#
#
# Convention : Reuss Voigt Hill
#
# Bulk Modulus (GPa) = 44.86192 46.46611 45.66401
# Shear Modulus (GPa) = 24.23563 25.28762 24.76162
#
# Velocity S-wave (km/s) = 3.68262 3.76169 3.72237
# Velocity P-wave (km/s) = 6.57159 6.69839 6.63530
#
# Compressibility (1/GPa) = 0.02229062
#
# Stress axis : x y z
#
# Youngs Moduli (GPa) = 92.22197 66.92074 69.17267
#
# Poissons Ratio (x) = 0.20380 0.21830
# Poissons Ratio (y) = 0.28085 0.19195
# Poissons Ratio (z) = 0.29104 0.18570
#
# Static dielectric constant tensor:
#      x y z
#    x 1.618800 0.000000 0.000000 
#    y 0.000000 1.649380 0.000000 
#    z 0.000000 0.000000 1.618940 
# 
# From -- ./inp_files/23263.got.cif
#   From: 2010.05.17/outbox.cif.g08.bks.cpg/sg67_12_cif.got.tgz:23263.got - 2010.06.03 18:28:57.
