data_PCOD9504389
_publ_section_title
;
Structure prediction by ZEFSAII (Michael W. Deem and Ramdas Pophale) SiO2 
 PCOD9504389
Probable space group: C M M A
;
_chemical_formula_sum "Si O2"
_cell_formula_units_Z 112
_cell_length_a 18.480255
_cell_length_b 19.791975
_cell_length_c 17.968014
_cell_angle_alpha 90.000000
_cell_angle_beta 90.000000
_cell_angle_gamma 90.000000
_cell_volume 6571.994186
_symmetry_space_group_name_H-M "C M M A"
_symmetry_group_IT_number 67
_symmetry_cell_setting 'orthorhombic'
loop_
_space_group_symop_operation_xyz
x,y,z
-x,1/2-y,z
x,-y,-z
-x,1/2+y,-z
-x,-y,-z
x,1/2+y,-z
-x,y,z
x,1/2-y,z
1/2+x,1/2+y,z
1/2-x,-y,z
1/2+x,1/2-y,-z
1/2-x,y,-z
1/2-x,1/2-y,-z
1/2+x,y,-z
1/2-x,1/2+y,z
1/2+x,-y,z
loop_
_atom_site_type_symbol
_atom_site_label
_atom_site_fract_x
_atom_site_fract_y
_atom_site_fract_z
Si Si1 0.698383 0.934760 0.307270
Si Si2 0.915898 0.619858 0.133841
Si Si3 0.915742 0.669678 0.410913
Si Si4 0.818978 0.671012 0.266373
Si Si5 0.916269 0.038879 0.179763
Si Si6 0.912030 0.924857 0.978391
Si Si7 0.333121 0.923272 0.475982
O O1 0.749054 0.875616 0.275475
O O2 0.636302 0.951494 0.248466
O O3 0.665135 0.916656 0.387262
O O4 0.750000 0.000000 0.318443
O O5 0.863398 0.656480 0.191131
O O6 0.914750 0.539915 0.154847
O O7 0.000000 0.642251 0.140899
O O8 0.892348 0.623494 0.046997
O O9 0.908799 0.750000 0.424361
O O10 0.871180 0.653652 0.336141
O O11 0.883256 0.627698 0.478913
O O12 0.000000 0.653995 0.399620
O O13 0.800893 0.750000 0.270961
O O14 0.892153 0.083303 0.107860
O O15 0.000000 0.054875 0.197068
O O16 0.000000 0.926885 0.979372
O O17 0.885960 0.000000 0.000000
O O18 0.250000 0.910782 0.500000
O O19 0.350869 0.000000 0.500000
#
# Coordination Sequence:
#
# PCOD9504389 Si02
#       7
#    16  16  16  16  16  16  16
#     4  12  21  36  57  79 110 146 186 225 270 334
#     4   9  16  29  53  80 109 142 175 218 270 323
#     4  10  22  39  58  81 108 141 184 229 271 325
#     4  11  22  35  53  80 113 149 180 218 276 334
#     4   9  18  32  55  82 107 137 179 228 270 310
#     4   7  12  26  48  76 105 135 173 216 262 312
#     4  11  21  37  55  78 108 143 183 223 272 325
#
# _framework density 17.042012
#
# number of rings (size 3 to 8) (size 9 to 14) (size 15 to 20)
#    0.000    2.143    4.286    2.143    0.000    2.571 
#    0.000    0.714    0.000    2.143    0.000    2.000 
#    0.000    0.000    0.000    0.000    0.000    0.000 
#
# Total GULP energy -312173.341887 kJ/mol
# GULP energy per Si atom -5574.523962 kJ/mol
# Density = 1.700322 g / cm^3
# Si number density = 17.042012 Si / 1000 Ang^3
#
#
#
# Elastic Constant Matrix: (Units=GPa)
#
#
# Indices 1 2 3 4 5 6 
#
# 1 36.9724 11.4785 7.4904 0.0000 0.0000 0.0000
# 2 11.4785 22.9287 -4.8170 0.0000 0.0000 0.0000
# 3 7.4904 -4.8170 78.0325 0.0000 0.0000 0.0000
# 4 0.0000 0.0000 0.0000 23.1960 0.0000 0.0000
# 5 0.0000 0.0000 0.0000 0.0000 24.4677 0.0000
# 6 0.0000 0.0000 0.0000 0.0000 0.0000 17.8225
#
#
#
# Elastic Compliance Matrix: (Units=1/GPa)
#
#
# Indices 1 2 3 4 5 6 
#
# 1 0.033386 -0.017615 -0.004292 0.000000 0.000000 0.000000
# 2 -0.017615 0.053481 0.004992 0.000000 0.000000 0.000000
# 3 -0.004292 0.004992 0.013535 0.000000 0.000000 0.000000
# 4 0.000000 0.000000 0.000000 0.043111 0.000000 0.000000
# 5 0.000000 0.000000 0.000000 0.000000 0.040870 0.000000
# 6 0.000000 0.000000 0.000000 0.000000 0.000000 0.056109
#
#
# Mechanical properties :
#
#
# Convention : Reuss Voigt Hill
#
# Bulk Modulus (GPa) = 15.02138 18.47081 16.74609
# Shear Modulus (GPa) = 16.86272 21.34935 19.10603
#
# Velocity S-wave (km/s) = 3.14901 3.54326 3.35194
# Velocity P-wave (km/s) = 4.69629 5.25371 4.98280
#
# Compressibility (1/GPa) = 0.06657179
#
# Stress axis : x y z
#
# Youngs Moduli (GPa) = 29.95304 18.69834 73.88059
#
# Poissons Ratio (x) = 0.32937 0.31710
# Poissons Ratio (y) = 0.52763 -0.36883
# Poissons Ratio (z) = 0.12856 -0.09335
#
# Static dielectric constant tensor:
#      x y z
#    x 1.556080 0.000000 0.000000 
#    y 0.000000 1.570670 0.000000 
#    z 0.000000 0.000000 1.599330 
# 
# From -- ./inp_files/34434.got.cif
#   From: 2010.05.17/outbox.cif.g08.bks.cpg/sg67_18_cif.got.tgz:34434.got - 2010.06.03 18:28:57.
