data_PCOD9504417
_publ_section_title
;
Structure prediction by ZEFSAII (Michael W. Deem and Ramdas Pophale) SiO2 
 PCOD9504417
Probable space group: C M M A
;
_chemical_formula_sum "Si O2"
_cell_formula_units_Z 128
_cell_length_a 23.964461
_cell_length_b 23.163513
_cell_length_c 10.354774
_cell_angle_alpha 90.000000
_cell_angle_beta 90.000000
_cell_angle_gamma 90.000000
_cell_volume 5747.946478
_symmetry_space_group_name_H-M "C M M A"
_symmetry_group_IT_number 67
_symmetry_cell_setting 'orthorhombic'
loop_
_space_group_symop_operation_xyz
x,y,z
-x,1/2-y,z
x,-y,-z
-x,1/2+y,-z
-x,-y,-z
x,1/2+y,-z
-x,y,z
x,1/2-y,z
1/2+x,1/2+y,z
1/2-x,-y,z
1/2+x,1/2-y,-z
1/2-x,y,-z
1/2-x,1/2-y,-z
1/2+x,y,-z
1/2-x,1/2+y,z
1/2+x,-y,z
loop_
_atom_site_type_symbol
_atom_site_label
_atom_site_fract_x
_atom_site_fract_y
_atom_site_fract_z
Si Si1 0.137250 0.980452 0.860441
Si Si2 0.937264 0.419863 0.746822
Si Si3 0.841964 0.653632 0.184815
Si Si4 0.933561 0.617311 0.790818
Si Si5 0.185048 0.814200 0.465143
Si Si6 0.113142 0.430631 0.478675
Si Si7 0.758040 0.918799 0.846945
Si Si8 0.836064 0.313657 0.115010
O O1 0.097085 0.925927 0.890048
O O2 0.196070 0.963507 0.792841
O O3 0.098321 0.026058 0.793456
O O4 0.155020 0.000000 0.000000
O O5 0.906084 0.363930 0.800069
O O6 0.931083 0.420014 0.592760
O O7 0.000000 0.424530 0.790250
O O8 0.824565 0.688315 0.310831
O O9 0.803450 0.595688 0.200997
O O10 0.834664 0.678154 0.041130
O O11 0.916067 0.584882 0.657482
O O12 0.896405 0.673823 0.820104
O O13 0.000000 0.623192 0.801349
O O14 0.165207 0.750000 0.515896
O O15 0.250000 0.818357 0.500000
O O16 0.156824 0.876230 0.506210
O O17 0.129932 0.500000 0.500000
O O18 0.792157 0.859330 0.830927
O O19 0.750000 0.927941 0.000000
O O20 0.817192 0.250000 0.145729
#
# Coordination Sequence:
#
# PCOD9504417 Si02
#       8
#    16  16  16  16  16  16  16  16
#     4  11  22  35  58  91 127 168 210 269 333 400
#     4  11  23  39  62  91 124 171 226 272 330 403
#     4  10  22  40  65  96 131 173 221 276 338 404
#     4  11  24  41  63  92 128 170 224 281 339 405
#     4  10  24  43  69 102 138 180 227 281 342 412
#     4  11  24  44  68  96 132 178 228 285 344 409
#     4   9  20  37  57  89 128 166 212 262 330 403
#     4  10  22  39  63  94 129 170 221 277 339 411
#
# _framework density 22.268822
#
# number of rings (size 3 to 8) (size 9 to 14) (size 15 to 20)
#    0.000    1.625    1.250    3.375    3.500    8.500 
#    0.000    2.500    0.000   12.000    0.000    0.000 
#    0.000    0.000    0.000    0.000    0.000    0.000 
#
# Total GULP energy -356671.817551 kJ/mol
# GULP energy per Si atom -5572.997149 kJ/mol
# Density = 2.221814 g / cm^3
# Si number density = 22.268822 Si / 1000 Ang^3
#
#
#
# Elastic Constant Matrix: (Units=GPa)
#
#
# Indices 1 2 3 4 5 6 
#
# 1 166.1338 47.5868 12.8872 0.0000 0.0000 0.0000
# 2 47.5868 106.6152 20.8929 0.0000 0.0000 0.0000
# 3 12.8872 20.8929 49.5884 0.0000 0.0000 0.0000
# 4 0.0000 0.0000 0.0000 12.1020 0.0000 0.0000
# 5 0.0000 0.0000 0.0000 0.0000 18.6860 0.0000
# 6 0.0000 0.0000 0.0000 0.0000 0.0000 -4.0813
#
#
#
# Elastic Compliance Matrix: (Units=1/GPa)
#
#
# Indices 1 2 3 4 5 6 
#
# 1 0.006915 -0.002980 -0.000541 0.000000 0.000000 0.000000
# 2 -0.002980 0.011508 -0.004074 0.000000 0.000000 0.000000
# 3 -0.000541 -0.004074 0.022023 0.000000 0.000000 0.000000
# 4 0.000000 0.000000 0.000000 0.082631 0.000000 0.000000
# 5 0.000000 0.000000 0.000000 0.000000 0.053516 0.000000
# 6 0.000000 0.000000 0.000000 0.000000 0.000000 -0.245018
#
#
# Mechanical properties :
#
#
# Convention : Reuss Voigt Hill
#
# Bulk Modulus (GPa) = 39.59675 53.89680 46.74678
# Shear Modulus (GPa) = -111.56953 21.40604 -45.08175
#
# Velocity S-wave (km/s) = -7.08590 3.10378 -4.50425
# Velocity P-wave (km/s) = 7.00905 6.09097 2.45223
#
# Compressibility (1/GPa) = 0.02525460
#
# Stress axis : x y z
#
# Youngs Moduli (GPa) = 144.61497 86.89488 45.40659
#
# Poissons Ratio (x) = 0.25897 0.02458
# Poissons Ratio (y) = 0.43100 0.18499
# Poissons Ratio (z) = 0.07829 0.35402
#
# Static dielectric constant tensor:
#      x y z
#    x 1.796380 0.000000 0.000000 
#    y 0.000000 1.933160 0.000000 
#    z 0.000000 0.000000 1.891450 
# 
# From -- ./inp_files/22327.got.cif
#   From: 2010.05.17/outbox.cif.g08.bks.cpg/sg67_12_cif.got.tgz:22327.got - 2010.06.03 18:28:57.
