data_PCOD9504259
_publ_section_title
;
Structure prediction by ZEFSAII (Michael W. Deem and Ramdas Pophale) SiO2 
 PCOD9504259
Probable space group: C M M A
;
_chemical_formula_sum "Si O2"
_cell_formula_units_Z 84
_cell_length_a 20.677105
_cell_length_b 29.061303
_cell_length_c 7.544741
_cell_angle_alpha 90.000000
_cell_angle_beta 90.000000
_cell_angle_gamma 90.000000
_cell_volume 4533.662130
_symmetry_space_group_name_H-M "C M M A"
_symmetry_group_IT_number 67
_symmetry_cell_setting 'orthorhombic'
loop_
_space_group_symop_operation_xyz
x,y,z
-x,1/2-y,z
x,-y,-z
-x,1/2+y,-z
-x,-y,-z
x,1/2+y,-z
-x,y,z
x,1/2-y,z
1/2+x,1/2+y,z
1/2-x,-y,z
1/2+x,1/2-y,-z
1/2-x,y,-z
1/2-x,1/2-y,-z
1/2+x,y,-z
1/2-x,1/2+y,z
1/2+x,-y,z
loop_
_atom_site_type_symbol
_atom_site_label
_atom_site_fract_x
_atom_site_fract_y
_atom_site_fract_z
Si Si1 0.000000 0.170772 0.296696
Si Si2 0.750000 0.302896 0.714859
Si Si3 0.861062 0.874571 0.292091
Si Si4 0.500000 0.329228 0.296696
Si Si5 0.500000 0.750000 0.000000
Si Si6 0.138938 0.874571 0.707908
Si Si7 0.827543 0.947601 1.000000
O O1 0.934747 0.141496 0.274580
O O2 0.000000 0.188315 0.500000
O O3 0.000000 0.210416 0.154328
O O4 0.750000 0.250000 0.779694
O O5 0.750000 0.300287 0.500000
O O6 0.812955 0.332870 0.765180
O O7 0.687045 0.332870 0.765179
O O8 0.847477 0.883649 0.500000
O O9 0.848572 0.918512 0.171163
O O10 0.934747 0.858504 0.274580
O O11 0.500000 0.289584 0.154328
O O12 0.151428 0.918512 0.828837
O O13 0.750000 0.948749 0.000000
O O14 0.851772 0.000000 0.000000
#
# Coordination Sequence:
#
# PCOD9504259 Si02
#       7
#     8  16  16   8   4  16  16
#     4  10  23  39  61  86 122 162 200 245 296 354
#     4   9  18  33  57  84 115 155 198 238 282 340
#     4  10  21  41  61  86 121 157 197 247 299 351
#     4  10  23  39  61  86 122 162 200 245 296 354
#     4  12  22  36  56  88 126 164 206 234 288 346
#     4  10  21  41  61  86 121 157 197 247 299 351
#     4  11  23  39  62  92 118 149 199 250 305 364
#
# _framework density 18.528067
#
# number of rings (size 3 to 8) (size 9 to 14) (size 15 to 20)
#    0.000    1.905    1.905    1.429    2.667    0.762 
#    0.000    4.762    0.000    3.429    0.000    0.000 
#    0.000    0.000    0.000    0.000    0.000    0.000 
#
# Total GULP energy -234007.477782 kJ/mol
# GULP energy per Si atom -5571.606614 kJ/mol
# Density = 1.848590 g / cm^3
# Si number density = 18.528067 Si / 1000 Ang^3
#
#
#
# Elastic Constant Matrix: (Units=GPa)
#
#
# Indices 1 2 3 4 5 6 
#
# 1 123.2280 62.4133 45.1106 0.0000 0.0000 0.0000
# 2 62.4133 193.0348 102.1039 0.0000 0.0000 0.0000
# 3 45.1106 102.1039 123.5044 0.0000 0.0000 0.0000
# 4 0.0000 0.0000 0.0000 22.5837 0.0000 0.0000
# 5 0.0000 0.0000 0.0000 0.0000 10.4452 0.0000
# 6 0.0000 0.0000 0.0000 0.0000 0.0000 -202.1548
#
#
#
# Elastic Compliance Matrix: (Units=1/GPa)
#
#
# Indices 1 2 3 4 5 6 
#
# 1 0.009907 -0.002291 -0.001724 0.000000 0.000000 0.000000
# 2 -0.002291 0.009736 -0.007212 0.000000 0.000000 0.000000
# 3 -0.001724 -0.007212 0.014689 0.000000 0.000000 0.000000
# 4 0.000000 0.000000 0.000000 0.044280 0.000000 0.000000
# 5 0.000000 0.000000 0.000000 0.000000 0.095738 0.000000
# 6 0.000000 0.000000 0.000000 0.000000 0.000000 -0.004947
#
#
# Mechanical properties :
#
#
# Convention : Reuss Voigt Hill
#
# Bulk Modulus (GPa) = 84.19878 95.44698 89.82288
# Shear Modulus (GPa) = 25.53409 -18.48257 3.52576
#
# Velocity S-wave (km/s) = 3.71634 -3.16182 1.38096
# Velocity P-wave (km/s) = 7.99734 6.18847 7.15034
#
# Compressibility (1/GPa) = 0.01187666
#
# Stress axis : x y z
#
# Youngs Moduli (GPa) = 100.94216 102.71245 68.07732
#
# Poissons Ratio (x) = 0.23531 0.11740
# Poissons Ratio (y) = 0.23125 0.49098
# Poissons Ratio (z) = 0.17407 0.74078
#
# Static dielectric constant tensor:
#      x y z
#    x 1.633750 0.000000 0.000000 
#    y 0.000000 1.602510 0.000000 
#    z 0.000000 0.000000 1.656660 
# 
# From -- ./inp_files/11190.got.cif
#   From: 2010.05.17/outbox.cif.g08.bks.cpg/sg67_6_cif.got.tgz:11190.got - 2010.06.03 18:28:57.
