data_PCOD9504045
_publ_section_title
;
Structure prediction by ZEFSAII (Michael W. Deem and Ramdas Pophale) SiO2 
 PCOD9504045
Probable space group: C M M A
;
_chemical_formula_sum "Si O2"
_cell_formula_units_Z 104
_cell_length_a 8.622810
_cell_length_b 21.934952
_cell_length_c 28.790452
_cell_angle_alpha 90.000000
_cell_angle_beta 90.000000
_cell_angle_gamma 90.000000
_cell_volume 5445.452678
_symmetry_space_group_name_H-M "C M M A"
_symmetry_group_IT_number 67
_symmetry_cell_setting 'orthorhombic'
loop_
_space_group_symop_operation_xyz
x,y,z
-x,1/2-y,z
x,-y,-z
-x,1/2+y,-z
-x,-y,-z
x,1/2+y,-z
-x,y,z
x,1/2-y,z
1/2+x,1/2+y,z
1/2-x,-y,z
1/2+x,1/2-y,-z
1/2-x,y,-z
1/2-x,1/2-y,-z
1/2+x,y,-z
1/2-x,1/2+y,z
1/2+x,-y,z
loop_
_atom_site_type_symbol
_atom_site_label
_atom_site_fract_x
_atom_site_fract_y
_atom_site_fract_z
Si Si1 0.685739 0.065407 0.390892
Si Si2 0.683987 0.432645 0.952591
Si Si3 0.813439 0.180889 0.447552
Si Si4 0.315116 0.750000 0.949007
Si Si5 0.812918 0.065035 0.286035
Si Si6 0.685940 0.354519 0.122499
Si Si7 0.187207 0.819365 0.776849
O O1 0.500000 0.063232 0.391284
O O2 0.744473 0.124673 0.418621
O O3 0.747553 0.070605 0.338153
O O4 0.750000 0.000000 0.409089
O O5 0.500000 0.429716 0.955585
O O6 0.750000 0.500000 0.955555
O O7 0.740196 0.412636 0.901604
O O8 0.750000 0.400742 0.000000
O O9 0.773742 0.250000 0.430407
O O10 0.750000 0.176751 0.500000
O O11 0.000000 0.176151 0.447641
O O12 0.500000 0.750000 0.952500
O O13 0.268552 0.806212 0.917084
O O14 0.250000 0.750000 0.000000
O O15 0.765758 0.125038 0.256937
O O16 0.000000 0.062277 0.287559
O O17 0.750000 0.000000 0.267146
O O18 0.500000 0.358569 0.125074
O O19 0.750186 0.334684 0.172005
O O20 0.236491 0.750000 0.763754
O O21 0.000000 0.819349 0.777914
#
# Coordination Sequence:
#
# PCOD9504045 Si02
#       7
#    16  16  16   8  16  16  16
#     4  11  22  38  61  89 122 160 206 257 310 367
#     4  11  22  38  58  82 110 144 181 224 272 327
#     4  10  21  38  60  88 125 167 210 258 311 367
#     4  10  22  36  54  80 108 142 180 220 269 324
#     4  10  21  39  62  88 118 154 199 249 306 365
#     4  11  22  38  57  82 112 145 183 226 277 334
#     4  10  22  40  61  85 115 153 196 243 296 352
#
# _framework density 19.098503999999998
#
# number of rings (size 3 to 8) (size 9 to 14) (size 15 to 20)
#    0.000    1.538    0.769    6.000    0.000    6.154 
#    0.000    4.615    0.000    0.000    0.000    0.000 
#    0.000    0.000    0.000    0.000    0.000    0.000 
#
# Total GULP energy -290075.728878 kJ/mol
# GULP energy per Si atom -5578.379402 kJ/mol
# Density = 1.905504 g / cm^3
# Si number density = 19.098504 Si / 1000 Ang^3
#
#
#
# Elastic Constant Matrix: (Units=GPa)
#
#
# Indices 1 2 3 4 5 6 
#
# 1 57.6731 58.9095 33.5856 0.0000 0.0000 0.0000
# 2 58.9095 175.0427 83.8268 0.0000 0.0000 0.0000
# 3 33.5856 83.8268 86.6398 0.0000 0.0000 0.0000
# 4 0.0000 0.0000 0.0000 -103.2196 0.0000 0.0000
# 5 0.0000 0.0000 0.0000 0.0000 35.4663 0.0000
# 6 0.0000 0.0000 0.0000 0.0000 0.0000 21.6497
#
#
#
# Elastic Compliance Matrix: (Units=1/GPa)
#
#
# Indices 1 2 3 4 5 6 
#
# 1 0.026863 -0.007554 -0.003105 0.000000 0.000000 0.000000
# 2 -0.007554 0.012769 -0.009427 0.000000 0.000000 0.000000
# 3 -0.003105 -0.009427 0.021866 0.000000 0.000000 0.000000
# 4 0.000000 0.000000 0.000000 -0.009688 0.000000 0.000000
# 5 0.000000 0.000000 0.000000 0.000000 0.028196 0.000000
# 6 0.000000 0.000000 0.000000 0.000000 0.000000 0.046190
#
#
# Mechanical properties :
#
#
# Convention : Reuss Voigt Hill
#
# Bulk Modulus (GPa) = 46.88666 74.66661 60.77664
# Shear Modulus (GPa) = 28.82250 0.31487 14.56869
#
# Velocity S-wave (km/s) = 3.88899 0.40648 2.76491
# Velocity P-wave (km/s) = 6.69096 6.27700 6.48728
#
# Compressibility (1/GPa) = 0.02132803
#
# Stress axis : x y z
#
# Youngs Moduli (GPa) = 37.22638 78.31256 45.73255
#
# Poissons Ratio (x) = 0.59153 0.14200
# Poissons Ratio (y) = 0.28119 0.43111
# Poissons Ratio (z) = 0.11559 0.73823
#
# Static dielectric constant tensor:
#      x y z
#    x 1.630840 0.000000 0.000000 
#    y 0.000000 1.844390 0.000000 
#    z 0.000000 0.000000 1.633250 
# 
# From -- ./inp_files/43564.got.cif
#   From: 2010.05.17/outbox.cif.g08.bks.cpg/sg67_22_cif.got.tgz:43564.got - 2010.06.03 18:28:57.
