data_PCOD9504596
_publ_section_title
;
Structure prediction by ZEFSAII (Michael W. Deem and Ramdas Pophale) SiO2 
 PCOD9504596
Probable space group: C M M A
;
_chemical_formula_sum "Si O2"
_cell_formula_units_Z 96
_cell_length_a 17.854038
_cell_length_b 19.770772
_cell_length_c 15.072794
_cell_angle_alpha 90.000000
_cell_angle_beta 90.000000
_cell_angle_gamma 90.000000
_cell_volume 5320.517135
_symmetry_space_group_name_H-M "C M M A"
_symmetry_group_IT_number 67
_symmetry_cell_setting 'orthorhombic'
loop_
_space_group_symop_operation_xyz
x,y,z
-x,1/2-y,z
x,-y,-z
-x,1/2+y,-z
-x,-y,-z
x,1/2+y,-z
-x,y,z
x,1/2-y,z
1/2+x,1/2+y,z
1/2-x,-y,z
1/2+x,1/2-y,-z
1/2-x,y,-z
1/2-x,1/2-y,-z
1/2+x,y,-z
1/2-x,1/2+y,z
1/2+x,-y,z
loop_
_atom_site_type_symbol
_atom_site_label
_atom_site_fract_x
_atom_site_fract_y
_atom_site_fract_z
Si Si1 0.308021 0.329028 0.294533
Si Si2 0.164638 0.594498 0.467326
Si Si3 0.088920 0.536068 0.622320
Si Si4 0.307470 0.936059 0.218643
Si Si5 0.587339 0.330030 0.126638
Si Si6 0.161754 0.076123 0.020066
O O1 0.288389 0.250000 0.288921
O O2 0.335024 0.346918 0.393824
O O3 0.240014 0.378198 0.268159
O O4 0.370175 0.343785 0.219108
O O5 0.250000 0.584683 0.500000
O O6 0.113919 0.596525 0.555637
O O7 0.132115 0.529637 0.415349
O O8 0.123630 0.545341 0.718645
O O9 0.000000 0.527102 0.620386
O O10 0.340223 0.911969 0.124975
O O11 0.250000 0.000000 0.205528
O O12 0.500000 0.345394 0.136447
O O13 0.596013 0.250000 0.108443
O O14 0.621385 0.372551 0.045834
O O15 0.250000 0.078878 0.000000
O O16 0.134802 0.000000 0.000000
#
# Coordination Sequence:
#
# PCOD9504596 Si02
#       6
#    16  16  16  16  16  16
#     4  11  23  38  63  91 117 157 202 247 302 353
#     4  11  20  38  62  85 118 152 197 248 294 350
#     4  11  23  37  60  92 120 155 199 243 299 360
#     4  12  20  40  63  87 123 158 202 249 292 351
#     4  10  23  42  61  87 123 160 200 246 297 356
#     4  11  21  36  61  92 120 154 198 249 296 349
#
# _framework density 18.043358999999999
#
# number of rings (size 3 to 8) (size 9 to 14) (size 15 to 20)
#    0.000    1.000    6.667    2.000    0.000    3.667 
#    0.000    0.000    0.000    1.500    0.000    0.000 
#    0.000    0.000    0.000    0.000    0.000    0.000 
#
# Total GULP energy -267849.025940 kJ/mol
# GULP energy per Si atom -5580.188040 kJ/mol
# Density = 1.800229 g / cm^3
# Si number density = 18.043359 Si / 1000 Ang^3
#
#
#
# Elastic Constant Matrix: (Units=GPa)
#
#
# Indices 1 2 3 4 5 6 
#
# 1 110.5987 36.2800 45.9951 0.0000 0.0000 0.0000
# 2 36.2800 53.0041 17.4228 0.0000 0.0000 0.0000
# 3 45.9951 17.4228 115.1855 0.0000 0.0000 0.0000
# 4 0.0000 0.0000 0.0000 30.4132 0.0000 0.0000
# 5 0.0000 0.0000 0.0000 0.0000 17.0585 0.0000
# 6 0.0000 0.0000 0.0000 0.0000 0.0000 14.2733
#
#
#
# Elastic Compliance Matrix: (Units=1/GPa)
#
#
# Indices 1 2 3 4 5 6 
#
# 1 0.013305 -0.007745 -0.004141 0.000000 0.000000 0.000000
# 2 -0.007745 0.024363 -0.000592 0.000000 0.000000 0.000000
# 3 -0.004141 -0.000592 0.010425 0.000000 0.000000 0.000000
# 4 0.000000 0.000000 0.000000 0.032880 0.000000 0.000000
# 5 0.000000 0.000000 0.000000 0.000000 0.058622 0.000000
# 6 0.000000 0.000000 0.000000 0.000000 0.000000 0.070061
#
#
# Mechanical properties :
#
#
# Convention : Reuss Voigt Hill
#
# Bulk Modulus (GPa) = 43.22540 53.13155 48.17847
# Shear Modulus (GPa) = 20.63347 24.28836 22.46091
#
# Velocity S-wave (km/s) = 3.38531 3.67292 3.53204
# Velocity P-wave (km/s) = 6.26808 6.89185 6.58735
#
# Compressibility (1/GPa) = 0.02313455
#
# Stress axis : x y z
#
# Youngs Moduli (GPa) = 75.16161 41.04637 95.92473
#
# Poissons Ratio (x) = 0.31792 0.39724
# Poissons Ratio (y) = 0.58216 0.05681
# Poissons Ratio (z) = 0.31126 0.02431
#
# Static dielectric constant tensor:
#      x y z
#    x 1.591590 0.000000 0.000000 
#    y 0.000000 1.631230 0.000000 
#    z 0.000000 0.000000 1.660160 
# 
# From -- ./inp_files/27207.got.cif
#   From: 2010.05.17/outbox.cif.g08.bks.cpg/sg67_14_cif.got.tgz:27207.got - 2010.06.03 18:28:57.
