data_PCOD9504300
_publ_section_title
;
Structure prediction by ZEFSAII (Michael W. Deem and Ramdas Pophale) SiO2 
 PCOD9504300
Probable space group: C M M A
;
_chemical_formula_sum "Si O2"
_cell_formula_units_Z 64
_cell_length_a 20.403029
_cell_length_b 26.328477
_cell_length_c 5.616076
_cell_angle_alpha 90.000000
_cell_angle_beta 90.000000
_cell_angle_gamma 90.000000
_cell_volume 3016.847523
_symmetry_space_group_name_H-M "C M M A"
_symmetry_group_IT_number 67
_symmetry_cell_setting 'orthorhombic'
loop_
_space_group_symop_operation_xyz
x,y,z
-x,1/2-y,z
x,-y,-z
-x,1/2+y,-z
-x,-y,-z
x,1/2+y,-z
-x,y,z
x,1/2-y,z
1/2+x,1/2+y,z
1/2-x,-y,z
1/2+x,1/2-y,-z
1/2-x,y,-z
1/2-x,1/2-y,-z
1/2+x,y,-z
1/2-x,1/2+y,z
1/2+x,-y,z
loop_
_atom_site_type_symbol
_atom_site_label
_atom_site_fract_x
_atom_site_fract_y
_atom_site_fract_z
Si Si1 0.500000 0.553996 0.800738
Si Si2 0.292198 0.750000 0.241761
Si Si3 0.145013 0.640737 0.815028
Si Si4 0.000000 0.888155 0.691804
Si Si5 0.250000 0.082478 0.500000
Si Si6 0.644246 0.545259 0.836903
O O1 0.500000 0.591669 0.577303
O O2 0.570587 0.528307 0.769597
O O3 0.500000 0.574869 0.073384
O O4 0.250000 0.750000 0.500000
O O5 0.335798 0.699652 0.201847
O O6 0.250000 0.750000 0.000000
O O7 0.206329 0.616303 0.675543
O O8 0.071030 0.637998 0.714692
O O9 0.141388 0.601959 0.043438
O O10 0.305215 0.050618 0.371775
O O11 0.669223 0.500000 0.000000
#
# Coordination Sequence:
#
# PCOD9504300 Si02
#       6
#     8   8  16   8   8  16
#     4  10  21  46  70 100 139 191 238 288 353 433
#     4  12  26  45  74 105 140 191 237 295 365 429
#     4  11  25  44  69 103 142 184 243 297 360 430
#     4  10  22  43  73 101 141 184 239 296 350 430
#     4  12  22  42  68  92 146 183 236 297 364 424
#     4  11  25  43  69 105 143 193 240 301 362 433
#
# _framework density 21.214196999999999
#
# number of rings (size 3 to 8) (size 9 to 14) (size 15 to 20)
#    0.000    1.000    3.750    2.625    0.000    4.500 
#    0.000    2.500    0.000    3.000    0.000    0.875 
#    0.000    0.000    0.000    0.000    0.000    0.000 
#
# Total GULP energy -178193.209968 kJ/mol
# GULP energy per Si atom -5568.537811 kJ/mol
# Density = 2.116591 g / cm^3
# Si number density = 21.214197 Si / 1000 Ang^3
#
#
#
# Elastic Constant Matrix: (Units=GPa)
#
#
# Indices 1 2 3 4 5 6 
#
# 1 166.8990 28.2188 30.5947 0.0000 0.0000 0.0000
# 2 28.2188 122.5311 42.5199 0.0000 0.0000 0.0000
# 3 30.5947 42.5199 63.7024 0.0000 0.0000 0.0000
# 4 0.0000 0.0000 0.0000 15.2827 0.0000 0.0000
# 5 0.0000 0.0000 0.0000 0.0000 42.3109 0.0000
# 6 0.0000 0.0000 0.0000 0.0000 0.0000 144.6456
#
#
#
# Elastic Compliance Matrix: (Units=1/GPa)
#
#
# Indices 1 2 3 4 5 6 
#
# 1 0.006598 -0.000546 -0.002804 0.000000 0.000000 0.000000
# 2 -0.000546 0.010667 -0.006857 0.000000 0.000000 0.000000
# 3 -0.002804 -0.006857 0.021622 0.000000 0.000000 0.000000
# 4 0.000000 0.000000 0.000000 0.065434 0.000000 0.000000
# 5 0.000000 0.000000 0.000000 0.000000 0.023635 0.000000
# 6 0.000000 0.000000 0.000000 0.000000 0.000000 0.006913
#
#
# Mechanical properties :
#
#
# Convention : Reuss Voigt Hill
#
# Bulk Modulus (GPa) = 54.13962 61.75549 57.94755
# Shear Modulus (GPa) = 30.97113 57.23443 44.10278
#
# Velocity S-wave (km/s) = 3.82504 5.19980 4.56447
# Velocity P-wave (km/s) = 6.71445 8.07615 7.42657
#
# Compressibility (1/GPa) = 0.01847076
#
# Stress axis : x y z
#
# Youngs Moduli (GPa) = 151.55930 93.75054 46.24959
#
# Poissons Ratio (x) = 0.05123 0.12969
# Poissons Ratio (y) = 0.08282 0.31715
# Poissons Ratio (z) = 0.42499 0.64287
#
# Static dielectric constant tensor:
#      x y z
#    x 1.783400 0.000000 0.000000 
#    y 0.000000 1.828100 0.000000 
#    z 0.000000 0.000000 1.892410 
# 
# From -- ./inp_files/2888.got.cif
#   From: 2010.05.17/outbox.cif.g08.bks.cpg/sg67_2_cif.got.tgz:2888.got - 2010.06.03 18:28:57.
