data_PCOD9504227
_publ_section_title
;
Structure prediction by ZEFSAII (Michael W. Deem and Ramdas Pophale) SiO2 
 PCOD9504227
Probable space group: C M M A
;
_chemical_formula_sum "Si O2"
_cell_formula_units_Z 116
_cell_length_a 26.341928
_cell_length_b 17.085639
_cell_length_c 11.817965
_cell_angle_alpha 90.000000
_cell_angle_beta 90.000000
_cell_angle_gamma 90.000000
_cell_volume 5318.895818
_symmetry_space_group_name_H-M "C M M A"
_symmetry_group_IT_number 67
_symmetry_cell_setting 'orthorhombic'
loop_
_space_group_symop_operation_xyz
x,y,z
-x,1/2-y,z
x,-y,-z
-x,1/2+y,-z
-x,-y,-z
x,1/2+y,-z
-x,y,z
x,1/2-y,z
1/2+x,1/2+y,z
1/2-x,-y,z
1/2+x,1/2-y,-z
1/2-x,y,-z
1/2-x,1/2-y,-z
1/2+x,y,-z
1/2-x,1/2+y,z
1/2+x,-y,z
loop_
_atom_site_type_symbol
_atom_site_label
_atom_site_fract_x
_atom_site_fract_y
_atom_site_fract_z
Si Si1 0.593527 0.375590 0.673299
Si Si2 0.500000 0.250000 0.693617
Si Si3 0.942732 0.418832 0.936876
Si Si4 0.206122 0.601520 0.251718
Si Si5 0.943165 0.550754 0.331563
Si Si6 0.816646 0.075402 0.177513
Si Si7 0.840404 0.836480 0.032922
Si Si8 0.359205 0.159207 0.439515
O O1 0.545727 0.318438 0.690326
O O2 0.573853 0.462592 0.643404
O O3 0.630875 0.386993 0.779768
O O4 0.630721 0.348680 0.572319
O O5 0.942381 0.437532 0.803766
O O6 0.900071 0.355845 0.963354
O O7 0.000000 0.395158 0.970289
O O8 0.930519 0.500000 0.000000
O O9 0.186017 0.515967 0.210951
O O10 0.266160 0.607817 0.236794
O O11 0.179906 0.657762 0.160450
O O12 0.188622 0.618835 0.378959
O O13 0.906435 0.614294 0.384226
O O14 0.000000 0.563570 0.373342
O O15 0.814159 0.098032 0.045680
O O16 0.830368 0.750000 0.986561
O O17 0.358767 0.250000 0.409680
#
# Coordination Sequence:
#
# PCOD9504227 Si02
#       8
#    16   4  16  16  16  16  16  16
#     4  12  25  48  68 103 139 183 237 286 356 418
#     4  12  28  48  74 102 152 188 236 304 344 428
#     4  10  21  40  64  95 134 178 230 286 348 418
#     4  11  24  47  73 101 135 186 236 297 352 418
#     4  11  23  40  71  97 135 185 229 286 344 425
#     4  11  26  46  73 101 134 184 246 286 350 430
#     4  12  24  41  67 101 142 182 229 292 354 421
#     4  12  26  43  68 101 142 178 226 295 352 420
#
# _framework density 21.809037
#
# number of rings (size 3 to 8) (size 9 to 14) (size 15 to 20)
#    0.000    0.690    4.138    3.310    1.931    4.414 
#    1.241    3.448    0.000    0.000    0.000    0.000 
#    0.000    0.000    0.000    0.000    0.000    0.000 
#
# Total GULP energy -323861.985008 kJ/mol
# GULP energy per Si atom -5583.827328 kJ/mol
# Density = 2.175940 g / cm^3
# Si number density = 21.809037 Si / 1000 Ang^3
#
#
#
# Elastic Constant Matrix: (Units=GPa)
#
#
# Indices 1 2 3 4 5 6 
#
# 1 102.3753 18.3559 8.3648 0.0000 0.0000 0.0000
# 2 18.3559 89.6898 2.0051 0.0000 0.0000 0.0000
# 3 8.3648 2.0051 49.9083 0.0000 0.0000 0.0000
# 4 0.0000 0.0000 0.0000 12.5489 0.0000 0.0000
# 5 0.0000 0.0000 0.0000 0.0000 21.3547 0.0000
# 6 0.0000 0.0000 0.0000 0.0000 0.0000 14.7648
#
#
#
# Elastic Compliance Matrix: (Units=1/GPa)
#
#
# Indices 1 2 3 4 5 6 
#
# 1 0.010272 -0.002066 -0.001639 0.000000 0.000000 0.000000
# 2 -0.002066 0.011575 -0.000119 0.000000 0.000000 0.000000
# 3 -0.001639 -0.000119 0.020316 0.000000 0.000000 0.000000
# 4 0.000000 0.000000 0.000000 0.079688 0.000000 0.000000
# 5 0.000000 0.000000 0.000000 0.000000 0.046828 0.000000
# 6 0.000000 0.000000 0.000000 0.000000 0.000000 0.067729
#
#
# Mechanical properties :
#
#
# Convention : Reuss Voigt Hill
#
# Bulk Modulus (GPa) = 28.97120 33.26944 31.12032
# Shear Modulus (GPa) = 19.56484 23.95018 21.75751
#
# Velocity S-wave (km/s) = 2.99841 3.31747 3.16197
# Velocity P-wave (km/s) = 5.02993 5.47377 5.25653
#
# Compressibility (1/GPa) = 0.03451703
#
# Stress axis : x y z
#
# Youngs Moduli (GPa) = 97.34967 86.39344 49.22187
#
# Poissons Ratio (x) = 0.17846 0.08066
# Poissons Ratio (y) = 0.20109 0.00585
# Poissons Ratio (z) = 0.15952 0.01027
#
# Static dielectric constant tensor:
#      x y z
#    x 1.785280 0.000000 0.000000 
#    y 0.000000 1.778160 0.000000 
#    z 0.000000 0.000000 1.835490 
# 
# From -- ./inp_files/23060.got.cif
#   From: 2010.05.17/outbox.cif.g08.bks.cpg/sg67_12_cif.got.tgz:23060.got - 2010.06.03 18:28:57.
