data_PCOD9504182
_publ_section_title
;
Structure prediction by ZEFSAII (Michael W. Deem and Ramdas Pophale) SiO2 
 PCOD9504182
Probable space group: C M M A
;
_chemical_formula_sum "Si O2"
_cell_formula_units_Z 88
_cell_length_a 14.916023
_cell_length_b 24.178846
_cell_length_c 10.082641
_cell_angle_alpha 90.000000
_cell_angle_beta 90.000000
_cell_angle_gamma 90.000000
_cell_volume 3636.326891
_symmetry_space_group_name_H-M "C M M A"
_symmetry_group_IT_number 67
_symmetry_cell_setting 'orthorhombic'
loop_
_space_group_symop_operation_xyz
x,y,z
-x,1/2-y,z
x,-y,-z
-x,1/2+y,-z
-x,-y,-z
x,1/2+y,-z
-x,y,z
x,1/2-y,z
1/2+x,1/2+y,z
1/2-x,-y,z
1/2+x,1/2-y,-z
1/2-x,y,-z
1/2-x,1/2-y,-z
1/2+x,y,-z
1/2-x,1/2+y,z
1/2+x,-y,z
loop_
_atom_site_type_symbol
_atom_site_label
_atom_site_fract_x
_atom_site_fract_y
_atom_site_fract_z
Si Si1 0.844917 0.814281 0.636248
Si Si2 0.860164 0.148677 0.641407
Si Si3 0.605862 0.166613 0.936734
Si Si4 0.371858 0.750000 0.835301
Si Si5 0.607896 0.979495 0.642402
Si Si6 0.390581 0.455151 0.892209
O O1 0.835380 0.750000 0.599537
O O2 0.891070 0.844211 0.512232
O O3 0.746328 0.840030 0.646655
O O4 0.886166 0.815785 0.782793
O O5 0.895517 0.199546 0.729901
O O6 0.875815 0.084814 0.678283
O O7 0.500000 0.170364 0.971012
O O8 0.640677 0.104561 0.935901
O O9 0.650054 0.203029 0.049387
O O10 0.500000 0.984696 0.640970
O O11 0.641619 0.000000 0.500000
O O12 0.642035 0.022542 0.751850
O O13 0.500000 0.451105 0.886633
O O14 0.366888 0.500000 0.000000
#
# Coordination Sequence:
#
# PCOD9504182 Si02
#       6
#    16  16  16   8  16  16
#     4  11  22  44  65  87 130 176 210 251 326 402
#     4  11  23  41  66  96 124 165 219 266 317 381
#     4  11  24  40  62  94 128 167 214 260 319 391
#     4  12  23  38  62  93 127 159 212 274 319 367
#     4  10  21  39  64  93 126 165 209 262 323 380
#     4   9  18  36  58  82 120 165 201 246 312 375
#
# _framework density 24.200244999999999
#
# number of rings (size 3 to 8) (size 9 to 14) (size 15 to 20)
#    0.000    1.455    2.727    3.000    0.000    6.545 
#    0.000    6.364    0.000    1.091    0.000    0.000 
#    0.000    0.000    0.000    0.000    0.000    0.000 
#
# Total GULP energy -245022.643269 kJ/mol
# GULP energy per Si atom -5568.696438 kJ/mol
# Density = 2.414516 g / cm^3
# Si number density = 24.200245 Si / 1000 Ang^3
#
#
#
# Elastic Constant Matrix: (Units=GPa)
#
#
# Indices 1 2 3 4 5 6 
#
# 1 56.0504 -2.1816 -1.2927 0.0000 0.0000 0.0000
# 2 -2.1816 194.6930 56.7224 0.0000 0.0000 0.0000
# 3 -1.2927 56.7224 151.9811 0.0000 0.0000 0.0000
# 4 0.0000 0.0000 0.0000 -66.8368 0.0000 0.0000
# 5 0.0000 0.0000 0.0000 0.0000 3.4522 0.0000
# 6 0.0000 0.0000 0.0000 0.0000 0.0000 2.7320
#
#
#
# Elastic Compliance Matrix: (Units=1/GPa)
#
#
# Indices 1 2 3 4 5 6 
#
# 1 0.017850 0.000175 0.000087 0.000000 0.000000 0.000000
# 2 0.000175 0.005765 -0.002150 0.000000 0.000000 0.000000
# 3 0.000087 -0.002150 0.007383 0.000000 0.000000 0.000000
# 4 0.000000 0.000000 0.000000 -0.014962 0.000000 0.000000
# 5 0.000000 0.000000 0.000000 0.000000 0.289672 0.000000
# 6 0.000000 0.000000 0.000000 0.000000 0.000000 0.366030
#
#
# Mechanical properties :
#
#
# Convention : Reuss Voigt Hill
#
# Bulk Modulus (GPa) = 36.73739 56.58008 46.65873
# Shear Modulus (GPa) = 7.30366 11.16791 9.23578
#
# Velocity S-wave (km/s) = 1.73913 2.15054 1.95568
# Velocity P-wave (km/s) = 4.38706 5.44032 4.94183
#
# Compressibility (1/GPa) = 0.02722022
#
# Stress axis : x y z
#
# Youngs Moduli (GPa) = 56.02274 173.47153 135.44778
#
# Poissons Ratio (x) = -0.03032 -0.01173
# Poissons Ratio (y) = -0.00979 0.29121
# Poissons Ratio (z) = -0.00485 0.37296
#
# Static dielectric constant tensor:
#      x y z
#    x 1.990640 0.000000 0.000000 
#    y 0.000000 1.910730 0.000000 
#    z 0.000000 0.000000 1.982860 
# 
# From -- ./inp_files/11246.got.cif
#   From: 2010.05.17/outbox.cif.g08.bks.cpg/sg67_6_cif.got.tgz:11246.got - 2010.06.03 18:28:57.
