data_PCOD9504140
_publ_section_title
;
Structure prediction by ZEFSAII (Michael W. Deem and Ramdas Pophale) SiO2 
 PCOD9504140
Probable space group: C M M A
;
_chemical_formula_sum "Si O2"
_cell_formula_units_Z 96
_cell_length_a 18.822413
_cell_length_b 19.031841
_cell_length_c 14.737975
_cell_angle_alpha 90.000000
_cell_angle_beta 90.000000
_cell_angle_gamma 90.000000
_cell_volume 5279.513621
_symmetry_space_group_name_H-M "C M M A"
_symmetry_group_IT_number 67
_symmetry_cell_setting 'orthorhombic'
loop_
_space_group_symop_operation_xyz
x,y,z
-x,1/2-y,z
x,-y,-z
-x,1/2+y,-z
-x,-y,-z
x,1/2+y,-z
-x,y,z
x,1/2-y,z
1/2+x,1/2+y,z
1/2-x,-y,z
1/2+x,1/2-y,-z
1/2-x,y,-z
1/2-x,1/2-y,-z
1/2+x,y,-z
1/2-x,1/2+y,z
1/2+x,-y,z
loop_
_atom_site_type_symbol
_atom_site_label
_atom_site_fract_x
_atom_site_fract_y
_atom_site_fract_z
Si Si1 0.668646 0.080531 0.467191
Si Si2 0.676630 0.399601 0.763782
Si Si3 0.667930 0.432682 0.253865
Si Si4 0.918061 0.166192 0.393146
Si Si5 0.081538 0.667295 0.914593
Si Si6 0.418285 0.560613 0.930088
O O1 0.750000 0.098056 0.500000
O O2 0.656091 0.086460 0.359348
O O3 0.612602 0.129594 0.517641
O O4 0.658218 0.000000 0.500000
O O5 0.673819 0.482427 0.742918
O O6 0.760739 0.389685 0.770825
O O7 0.635596 0.358675 0.685077
O O8 0.635355 0.376360 0.853142
O O9 0.616499 0.425993 0.167362
O O10 0.916261 0.250000 0.400136
O O11 0.000000 0.145097 0.374663
O O12 0.097708 0.750000 0.913562
O O13 0.000000 0.658747 0.880659
O O14 0.083890 0.632545 0.013249
O O15 0.500000 0.539120 0.913874
O O16 0.388683 0.500000 0.000000
#
# Coordination Sequence:
#
# PCOD9504140 Si02
#       6
#    16  16  16  16  16  16
#     4  11  20  42  65  87 123 163 202 250 315 377
#     4  11  20  38  59  89 123 158 198 261 310 362
#     4  11  22  37  63  93 120 157 205 257 305 373
#     4  11  24  40  60  91 126 162 210 262 310 367
#     4  10  21  39  62  88 123 165 206 253 308 366
#     4  10  21  39  61  88 125 165 208 256 309 369
#
# _framework density 18.183492999999999
#
# number of rings (size 3 to 8) (size 9 to 14) (size 15 to 20)
#    0.000    1.333    5.000    2.000    0.000    4.000 
#    0.000    3.333    0.000    2.000    0.000    0.000 
#    0.000    0.000    0.000    0.000    0.000    0.000 
#
# Total GULP energy -267430.932674 kJ/mol
# GULP energy per Si atom -5571.477764 kJ/mol
# Density = 1.814211 g / cm^3
# Si number density = 18.183493 Si / 1000 Ang^3
#
#
#
# Elastic Constant Matrix: (Units=GPa)
#
#
# Indices 1 2 3 4 5 6 
#
# 1 99.9467 42.5970 67.0210 0.0000 0.0000 0.0000
# 2 42.5970 60.3768 21.5497 0.0000 0.0000 0.0000
# 3 67.0210 21.5497 149.6690 0.0000 0.0000 0.0000
# 4 0.0000 0.0000 0.0000 41.4963 0.0000 0.0000
# 5 0.0000 0.0000 0.0000 0.0000 31.1628 0.0000
# 6 0.0000 0.0000 0.0000 0.0000 0.0000 29.0847
#
#
#
# Elastic Compliance Matrix: (Units=1/GPa)
#
#
# Indices 1 2 3 4 5 6 
#
# 1 0.019615 -0.011284 -0.007159 0.000000 0.000000 0.000000
# 2 -0.011284 0.023951 0.001604 0.000000 0.000000 0.000000
# 3 -0.007159 0.001604 0.009656 0.000000 0.000000 0.000000
# 4 0.000000 0.000000 0.000000 0.024099 0.000000 0.000000
# 5 0.000000 0.000000 0.000000 0.000000 0.032090 0.000000
# 6 0.000000 0.000000 0.000000 0.000000 0.000000 0.034382
#
#
# Mechanical properties :
#
#
# Convention : Reuss Voigt Hill
#
# Bulk Modulus (GPa) = 51.16254 63.59197 57.37725
# Shear Modulus (GPa) = 27.17637 32.27043 29.72340
#
# Velocity S-wave (km/s) = 3.87015 4.21730 4.04745
# Velocity P-wave (km/s) = 6.94036 7.66567 7.31201
#
# Compressibility (1/GPa) = 0.01954555
#
# Stress axis : x y z
#
# Youngs Moduli (GPa) = 50.98201 41.75221 103.56158
#
# Poissons Ratio (x) = 0.47111 0.74137
# Poissons Ratio (y) = 0.57526 -0.16613
# Poissons Ratio (z) = 0.36497 -0.06698
#
# Static dielectric constant tensor:
#      x y z
#    x 1.655120 0.000000 0.000000 
#    y 0.000000 1.610970 0.000000 
#    z 0.000000 0.000000 1.656940 
# 
# From -- ./inp_files/27164.got.cif
#   From: 2010.05.17/outbox.cif.g08.bks.cpg/sg67_14_cif.got.tgz:27164.got - 2010.06.03 18:28:57.
