data_PCOD9504043
_publ_section_title
;
Structure prediction by ZEFSAII (Michael W. Deem and Ramdas Pophale) SiO2 
 PCOD9504043
Probable space group: C M M A
;
_chemical_formula_sum "Si O2"
_cell_formula_units_Z 88
_cell_length_a 9.128246
_cell_length_b 16.248841
_cell_length_c 30.772915
_cell_angle_alpha 90.000000
_cell_angle_beta 90.000000
_cell_angle_gamma 90.000000
_cell_volume 4564.343930
_symmetry_space_group_name_H-M "C M M A"
_symmetry_group_IT_number 67
_symmetry_cell_setting 'orthorhombic'
loop_
_space_group_symop_operation_xyz
x,y,z
-x,1/2-y,z
x,-y,-z
-x,1/2+y,-z
-x,-y,-z
x,1/2+y,-z
-x,y,z
x,1/2-y,z
1/2+x,1/2+y,z
1/2-x,-y,z
1/2+x,1/2-y,-z
1/2-x,y,-z
1/2-x,1/2-y,-z
1/2+x,y,-z
1/2-x,1/2+y,z
1/2+x,-y,z
loop_
_atom_site_type_symbol
_atom_site_label
_atom_site_fract_x
_atom_site_fract_y
_atom_site_fract_z
Si Si1 0.170576 0.348967 0.280763
Si Si2 0.676654 0.250000 0.046915
Si Si3 0.335037 0.847560 0.541794
Si Si4 0.176834 0.085104 0.899545
Si Si5 0.824352 0.153174 0.806796
Si Si6 0.176447 0.087845 0.375653
O O1 0.182497 0.250000 0.282218
O O2 0.257805 0.377695 0.238418
O O3 0.219660 0.381547 0.327522
O O4 0.000000 0.370563 0.275274
O O5 0.500000 0.250000 0.043163
O O6 0.716680 0.333522 0.072841
O O7 0.750000 0.250000 0.000000
O O8 0.500000 0.881902 0.546151
O O9 0.349174 0.750000 0.534638
O O10 0.250000 0.882858 0.500000
O O11 0.241998 0.858896 0.585379
O O12 0.221531 0.104128 0.849682
O O13 0.000000 0.077379 0.900984
O O14 0.250000 0.000000 0.914344
O O15 0.783648 0.250000 0.812332
O O16 0.000000 0.150168 0.804263
O O17 0.000000 0.086235 0.377845
O O18 0.250000 0.000000 0.381899
#
# Coordination Sequence:
#
# PCOD9504043 Si02
#       6
#    16   8  16  16  16  16
#     4   9  19  35  55  80 110 146 187 233 282 332
#     4  10  22  42  64  86 120 160 200 248 301 356
#     4  10  21  38  61  86 109 136 176 224 275 335
#     4  10  21  38  60  87 120 157 198 246 299 355
#     4   9  17  33  57  81 109 149 192 234 284 342
#     4  11  23  38  55  77 111 149 185 228 280 333
#
# _framework density 19.279879000000001
#
# number of rings (size 3 to 8) (size 9 to 14) (size 15 to 20)
#    0.000    2.182    0.909    1.636    0.000    6.182 
#    0.000    9.091    0.000    0.000    0.000    0.000 
#    0.000    0.000    0.000    0.000    0.000    0.000 
#
# Total GULP energy -245535.489847 kJ/mol
# GULP energy per Si atom -5580.352042 kJ/mol
# Density = 1.923600 g / cm^3
# Si number density = 19.279879 Si / 1000 Ang^3
#
#
#
# Elastic Constant Matrix: (Units=GPa)
#
#
# Indices 1 2 3 4 5 6 
#
# 1 54.0546 32.5665 49.3134 0.0000 0.0000 0.0000
# 2 32.5665 73.7770 44.6102 0.0000 0.0000 0.0000
# 3 49.3134 44.6102 136.5677 0.0000 0.0000 0.0000
# 4 0.0000 0.0000 0.0000 -20.9459 0.0000 0.0000
# 5 0.0000 0.0000 0.0000 0.0000 29.5174 0.0000
# 6 0.0000 0.0000 0.0000 0.0000 0.0000 24.9049
#
#
#
# Elastic Compliance Matrix: (Units=1/GPa)
#
#
# Indices 1 2 3 4 5 6 
#
# 1 0.031573 -0.008777 -0.008534 0.000000 0.000000 0.000000
# 2 -0.008777 0.019330 -0.003145 0.000000 0.000000 0.000000
# 3 -0.008534 -0.003145 0.011431 0.000000 0.000000 0.000000
# 4 0.000000 0.000000 0.000000 -0.047742 0.000000 0.000000
# 5 0.000000 0.000000 0.000000 0.000000 0.033878 0.000000
# 6 0.000000 0.000000 0.000000 0.000000 0.000000 0.040153
#
#
# Mechanical properties :
#
#
# Convention : Reuss Voigt Hill
#
# Bulk Modulus (GPa) = 46.67849 57.48662 52.08255
# Shear Modulus (GPa) = 36.58292 15.88921 26.23607
#
# Velocity S-wave (km/s) = 4.36072 2.87389 3.69290
# Velocity P-wave (km/s) = 7.04401 6.39484 6.72726
#
# Compressibility (1/GPa) = 0.02142315
#
# Stress axis : x y z
#
# Youngs Moduli (GPa) = 31.67275 51.73226 87.48015
#
# Poissons Ratio (x) = 0.45404 0.74653
# Poissons Ratio (y) = 0.27799 0.27513
# Poissons Ratio (z) = 0.27029 0.16270
#
# Static dielectric constant tensor:
#      x y z
#    x 1.661490 0.000000 0.000000 
#    y 0.000000 1.695980 0.000000 
#    z 0.000000 0.000000 1.673860 
# 
# From -- ./inp_files/45214.got.cif
#   From: 2010.05.17/outbox.cif.g08.bks.cpg/sg67_23_cif.got.tgz:45214.got - 2010.06.03 18:28:57.
