data_PCOD9504394
_publ_section_title
;
Structure prediction by ZEFSAII (Michael W. Deem and Ramdas Pophale) SiO2 
 PCOD9504394
Probable space group: C M M A
;
_chemical_formula_sum "Si O2"
_cell_formula_units_Z 68
_cell_length_a 20.710182
_cell_length_b 14.644125
_cell_length_c 10.855371
_cell_angle_alpha 90.000000
_cell_angle_beta 90.000000
_cell_angle_gamma 90.000000
_cell_volume 3292.243990
_symmetry_space_group_name_H-M "C M M A"
_symmetry_group_IT_number 67
_symmetry_cell_setting 'orthorhombic'
loop_
_space_group_symop_operation_xyz
x,y,z
-x,1/2-y,z
x,-y,-z
-x,1/2+y,-z
-x,-y,-z
x,1/2+y,-z
-x,y,z
x,1/2-y,z
1/2+x,1/2+y,z
1/2-x,-y,z
1/2+x,1/2-y,-z
1/2-x,y,-z
1/2-x,1/2-y,-z
1/2+x,y,-z
1/2-x,1/2+y,z
1/2+x,-y,z
loop_
_atom_site_type_symbol
_atom_site_label
_atom_site_fract_x
_atom_site_fract_y
_atom_site_fract_z
Si Si1 0.750000 0.500000 0.500000
Si Si2 0.854845 0.147692 0.073365
Si Si3 0.725033 0.859486 0.305992
Si Si4 0.366365 0.858822 0.796509
Si Si5 0.000000 0.578497 0.190895
Si Si6 0.000000 0.123343 0.082420
O O1 0.709752 0.429330 0.584716
O O2 0.828001 0.250000 0.054673
O O3 0.812146 0.108881 0.182878
O O4 0.928760 0.155189 0.119046
O O5 0.855921 0.104536 0.937111
O O6 0.712287 0.750000 0.328254
O O7 0.801312 0.870207 0.279647
O O8 0.377871 0.750000 0.806235
O O9 0.432115 0.902162 0.744751
O O10 0.000000 0.479001 0.132479
O O11 0.000000 0.638685 0.065285
#
# Coordination Sequence:
#
# PCOD9504394 Si02
#       6
#     4  16  16  16   8   8
#     4  12  26  40  58  76 104 148 190 232 280 314
#     4   9  17  32  55  83 113 143 172 212 270 329
#     4  10  22  39  59  81 107 140 185 232 270 320
#     4   9  17  32  55  83 113 143 172 212 270 329
#     4   9  17  27  45  79 120 147 168 202 256 330
#     4   9  17  27  45  79 120 147 168 202 256 330
#
# _framework density 20.654605
#
# number of rings (size 3 to 8) (size 9 to 14) (size 15 to 20)
#    0.000    2.588    0.000    1.765    3.294    5.647 
#    0.000    1.176    0.000    2.824    0.000    6.588 
#    0.000    0.000    0.000    0.000    0.000    0.000 
#
# Total GULP energy -189375.833436 kJ/mol
# GULP energy per Si atom -5569.877454 kJ/mol
# Density = 2.060759 g / cm^3
# Si number density = 20.654605 Si / 1000 Ang^3
#
#
#
# Elastic Constant Matrix: (Units=GPa)
#
#
# Indices 1 2 3 4 5 6 
#
# 1 103.4058 17.0226 15.5269 0.0000 0.0000 0.0000
# 2 17.0226 80.0330 24.0531 0.0000 0.0000 0.0000
# 3 15.5269 24.0531 45.2969 0.0000 0.0000 0.0000
# 4 0.0000 0.0000 0.0000 29.9476 0.0000 0.0000
# 5 0.0000 0.0000 0.0000 0.0000 -0.4963 0.0000
# 6 0.0000 0.0000 0.0000 0.0000 0.0000 -180.2407
#
#
#
# Elastic Compliance Matrix: (Units=1/GPa)
#
#
# Indices 1 2 3 4 5 6 
#
# 1 0.010316 -0.001346 -0.002821 0.000000 0.000000 0.000000
# 2 -0.001346 0.015043 -0.007527 0.000000 0.000000 0.000000
# 3 -0.002821 -0.007527 0.027040 0.000000 0.000000 0.000000
# 4 0.000000 0.000000 0.000000 0.033392 0.000000 0.000000
# 5 0.000000 0.000000 0.000000 0.000000 -2.015067 0.000000
# 6 0.000000 0.000000 0.000000 0.000000 0.000000 -0.005548
#
#
# Mechanical properties :
#
#
# Convention : Reuss Voigt Hill
#
# Bulk Modulus (GPa) = 34.46939 37.99345 36.23142
# Shear Modulus (GPa) = -2.62914 -18.68234 -10.65574
#
# Velocity S-wave (km/s) = -1.12946 -3.01077 -2.27381
# Velocity P-wave (km/s) = 3.87606 2.51957 3.26895
#
# Compressibility (1/GPa) = 0.02901125
#
# Stress axis : x y z
#
# Youngs Moduli (GPa) = 96.93795 66.47508 36.98180
#
# Poissons Ratio (x) = 0.08949 0.10433
# Poissons Ratio (y) = 0.13050 0.27835
# Poissons Ratio (z) = 0.27348 0.50033
#
# Static dielectric constant tensor:
#      x y z
#    x 1.762040 0.000000 0.000000 
#    y 0.000000 1.828630 0.000000 
#    z 0.000000 0.000000 1.756340 
# 
# From -- ./inp_files/9753.got.cif
#   From: 2010.05.17/outbox.cif.g08.bks.cpg/sg67_5_cif.got.tgz:9753.got - 2010.06.03 18:28:57.
