data_PCOD9504376
_publ_section_title
;
Structure prediction by ZEFSAII (Michael W. Deem and Ramdas Pophale) SiO2 
 PCOD9504376
Probable space group: C M M A
;
_chemical_formula_sum "Si O2"
_cell_formula_units_Z 96
_cell_length_a 17.592115
_cell_length_b 14.742763
_cell_length_c 16.256047
_cell_angle_alpha 90.000000
_cell_angle_beta 90.000000
_cell_angle_gamma 90.000000
_cell_volume 4216.109537
_symmetry_space_group_name_H-M "C M M A"
_symmetry_group_IT_number 67
_symmetry_cell_setting 'orthorhombic'
loop_
_space_group_symop_operation_xyz
x,y,z
-x,1/2-y,z
x,-y,-z
-x,1/2+y,-z
-x,-y,-z
x,1/2+y,-z
-x,y,z
x,1/2-y,z
1/2+x,1/2+y,z
1/2-x,-y,z
1/2+x,1/2-y,-z
1/2-x,y,-z
1/2-x,1/2-y,-z
1/2+x,y,-z
1/2-x,1/2+y,z
1/2+x,-y,z
loop_
_atom_site_type_symbol
_atom_site_label
_atom_site_fract_x
_atom_site_fract_y
_atom_site_fract_z
Si Si1 0.217516 0.250000 0.592769
Si Si2 0.089389 0.250000 0.486992
Si Si3 0.907773 0.911770 0.635838
Si Si4 0.913342 0.596337 0.167339
Si Si5 0.585481 0.882584 0.186228
Si Si6 0.309640 0.924502 0.688923
Si Si7 0.413150 0.355657 0.990641
O O1 0.250000 0.250000 0.500000
O O2 0.127239 0.250000 0.575317
O O3 0.231183 0.154665 0.637796
O O4 0.109688 0.341401 0.436594
O O5 0.000000 0.250000 0.493495
O O6 0.886647 0.861939 0.722575
O O7 0.000000 0.925366 0.637673
O O8 0.865826 0.009506 0.635515
O O9 0.920100 0.490528 0.186903
O O10 0.856132 0.625828 0.238563
O O11 0.881728 0.602681 0.074430
O O12 0.000000 0.634545 0.169206
O O13 0.500000 0.844608 0.180245
O O14 0.624746 0.862078 0.099175
O O15 0.250000 0.000000 0.722501
O O16 0.500000 0.393241 0.982394
O O17 0.418313 0.250000 0.008948
#
# Coordination Sequence:
#
# PCOD9504376 Si02
#       7
#     8   8  16  16  16  16  16
#     4  12  28  46  64  89 116 148 192 247 302 372
#     4  10  22  38  62  95 126 157 190 239 300 353
#     4   9  19  37  61  92 127 160 199 243 288 341
#     4   9  18  34  55  84 120 155 192 237 286 337
#     4   8  14  26  47  76 114 158 197 231 271 320
#     4  11  24  42  65  87 112 153 198 245 300 360
#     4   9  16  24  44  82 122 158 192 230 276 327
#
# _framework density 22.769805999999999
#
# number of rings (size 3 to 8) (size 9 to 14) (size 15 to 20)
#    0.000    2.500    0.000    3.000    2.333    5.667 
#    0.000    1.667    0.000    8.000    0.000    4.667 
#    0.000    0.000    0.000    0.000    0.000    0.000 
#
# Total GULP energy -267374.682171 kJ/mol
# GULP energy per Si atom -5570.305879 kJ/mol
# Density = 2.271798 g / cm^3
# Si number density = 22.769806 Si / 1000 Ang^3
#
#
#
# Elastic Constant Matrix: (Units=GPa)
#
#
# Indices 1 2 3 4 5 6 
#
# 1 67.0843 5.8915 23.1164 0.0000 0.0000 0.0000
# 2 5.8915 77.1539 9.9662 0.0000 0.0000 0.0000
# 3 23.1164 9.9662 72.3124 0.0000 0.0000 0.0000
# 4 0.0000 0.0000 0.0000 27.5032 0.0000 0.0000
# 5 0.0000 0.0000 0.0000 0.0000 26.7380 0.0000
# 6 0.0000 0.0000 0.0000 0.0000 0.0000 14.6742
#
#
#
# Elastic Compliance Matrix: (Units=1/GPa)
#
#
# Indices 1 2 3 4 5 6 
#
# 1 0.016779 -0.000599 -0.005281 0.000000 0.000000 0.000000
# 2 -0.000599 0.013217 -0.001630 0.000000 0.000000 0.000000
# 3 -0.005281 -0.001630 0.015742 0.000000 0.000000 0.000000
# 4 0.000000 0.000000 0.000000 0.036359 0.000000 0.000000
# 5 0.000000 0.000000 0.000000 0.000000 0.037400 0.000000
# 6 0.000000 0.000000 0.000000 0.000000 0.000000 0.068147
#
#
# Mechanical properties :
#
#
# Convention : Reuss Voigt Hill
#
# Bulk Modulus (GPa) = 32.55485 32.72210 32.63848
# Shear Modulus (GPa) = 23.48471 25.62152 24.55312
#
# Velocity S-wave (km/s) = 3.21502 3.35810 3.28734
# Velocity P-wave (km/s) = 5.30191 5.42566 5.36414
#
# Compressibility (1/GPa) = 0.03071739
#
# Stress axis : x y z
#
# Youngs Moduli (GPa) = 59.59792 75.65776 63.52490
#
# Poissons Ratio (x) = 0.04532 0.33549
# Poissons Ratio (y) = 0.03570 0.10355
# Poissons Ratio (z) = 0.31475 0.12333
#
# Static dielectric constant tensor:
#      x y z
#    x 1.950750 0.000000 0.000000 
#    y 0.000000 1.816410 0.000000 
#    z 0.000000 0.000000 1.906540 
# 
# From -- ./inp_files/29356.got.cif
#   From: 2010.05.17/outbox.cif.g08.bks.cpg/sg67_15_cif.got.tgz:29356.got - 2010.06.03 18:28:57.
