data_PCOD9504699
_publ_section_title
;
Structure prediction by ZEFSAII (Michael W. Deem and Ramdas Pophale) SiO2 
 PCOD9504699
Probable space group: C M M A
;
_chemical_formula_sum "Si O2"
_cell_formula_units_Z 52
_cell_length_a 27.702504
_cell_length_b 16.027808
_cell_length_c 4.841627
_cell_angle_alpha 90.000000
_cell_angle_beta 90.000000
_cell_angle_gamma 90.000000
_cell_volume 2149.732815
_symmetry_space_group_name_H-M "C M M A"
_symmetry_group_IT_number 67
_symmetry_cell_setting 'orthorhombic'
loop_
_space_group_symop_operation_xyz
x,y,z
-x,1/2-y,z
x,-y,-z
-x,1/2+y,-z
-x,-y,-z
x,1/2+y,-z
-x,y,z
x,1/2-y,z
1/2+x,1/2+y,z
1/2-x,-y,z
1/2+x,1/2-y,-z
1/2-x,y,-z
1/2-x,1/2-y,-z
1/2+x,y,-z
1/2-x,1/2+y,z
1/2+x,-y,z
loop_
_atom_site_type_symbol
_atom_site_label
_atom_site_fract_x
_atom_site_fract_y
_atom_site_fract_z
Si Si1 0.205330 0.343307 0.787684
Si Si2 0.250000 0.000000 0.500000
Si Si3 0.444234 0.924933 0.198272
Si Si4 0.096586 0.657807 0.273082
O O1 0.206133 0.250000 0.646694
O O2 0.215704 0.431968 0.645050
O O3 0.149426 0.351016 0.868633
O O4 0.250000 0.339262 0.000000
O O5 0.500000 0.940042 0.270062
O O6 0.414933 0.904152 0.474237
O O7 0.440425 0.851069 0.976743
O O8 0.426099 0.000000 0.000000
O O9 0.094022 0.750000 0.396610
#
# Coordination Sequence:
#
# PCOD9504699 Si02
#       4
#    16   4  16  16
#     4  10  25  45  67 102 144 185 238 297 359 434
#     4  12  24  40  72  96 130 188 228 292 362 418
#     4  11  25  44  69 104 145 188 239 300 359 426
#     4  11  25  44  72 103 139 189 241 296 359 429
#
# _framework density 24.189055
#
# number of rings (size 3 to 8) (size 9 to 14) (size 15 to 20)
#    0.000    1.231    0.000    3.692    8.615    6.154 
#    0.000    0.000    0.000    0.000    0.000    0.000 
#    0.000    0.000    0.000    0.000    0.000    0.000 
#
# Total GULP energy -144787.301380 kJ/mol
# GULP energy per Si atom -5568.742361 kJ/mol
# Density = 2.413400 g / cm^3
# Si number density = 24.189055 Si / 1000 Ang^3
#
#
#
# Elastic Constant Matrix: (Units=GPa)
#
#
# Indices 1 2 3 4 5 6 
#
# 1 117.0021 24.2059 51.1603 0.0000 0.0000 0.0000
# 2 24.2059 183.8589 39.9170 0.0000 0.0000 0.0000
# 3 51.1603 39.9170 111.5465 0.0000 0.0000 0.0000
# 4 0.0000 0.0000 0.0000 42.1704 0.0000 0.0000
# 5 0.0000 0.0000 0.0000 0.0000 26.3458 0.0000
# 6 0.0000 0.0000 0.0000 0.0000 0.0000 10.8662
#
#
#
# Elastic Compliance Matrix: (Units=1/GPa)
#
#
# Indices 1 2 3 4 5 6 
#
# 1 0.010714 -0.000373 -0.004781 0.000000 0.000000 0.000000
# 2 -0.000373 0.005910 -0.001944 0.000000 0.000000 0.000000
# 3 -0.004781 -0.001944 0.011853 0.000000 0.000000 0.000000
# 4 0.000000 0.000000 0.000000 0.023713 0.000000 0.000000
# 5 0.000000 0.000000 0.000000 0.000000 0.037957 0.000000
# 6 0.000000 0.000000 0.000000 0.000000 0.000000 0.092029
#
#
# Mechanical properties :
#
#
# Convention : Reuss Voigt Hill
#
# Bulk Modulus (GPa) = 70.01414 71.44155 70.72785
# Shear Modulus (GPa) = 24.85930 35.68477 30.27204
#
# Velocity S-wave (km/s) = 3.20927 3.84506 3.54146
# Velocity P-wave (km/s) = 6.53758 7.02221 6.78422
#
# Compressibility (1/GPa) = 0.01428283
#
# Stress axis : x y z
#
# Youngs Moduli (GPa) = 93.33247 169.20266 84.36537
#
# Poissons Ratio (x) = 0.06306 0.40333
# Poissons Ratio (y) = 0.03478 0.16401
# Poissons Ratio (z) = 0.44620 0.32893
#
# Static dielectric constant tensor:
#      x y z
#    x 1.964970 0.000000 0.000000 
#    y 0.000000 2.128260 0.000000 
#    z 0.000000 0.000000 1.981080 
# 
# From -- ./inp_files/4452.got.cif
#   From: 2010.05.17/outbox.cif.g08.bks.cpg/sg67_3_cif.got.tgz:4452.got - 2010.06.03 18:28:57.
