data_PCOD9504579
_publ_section_title
;
Structure prediction by ZEFSAII (Michael W. Deem and Ramdas Pophale) SiO2 
 PCOD9504579
Probable space group: C M M A
;
_chemical_formula_sum "Si O2"
_cell_formula_units_Z 96
_cell_length_a 21.119428
_cell_length_b 15.010013
_cell_length_c 15.178153
_cell_angle_alpha 90.000000
_cell_angle_beta 90.000000
_cell_angle_gamma 90.000000
_cell_volume 4811.518348
_symmetry_space_group_name_H-M "C M M A"
_symmetry_group_IT_number 67
_symmetry_cell_setting 'orthorhombic'
loop_
_space_group_symop_operation_xyz
x,y,z
-x,1/2-y,z
x,-y,-z
-x,1/2+y,-z
-x,-y,-z
x,1/2+y,-z
-x,y,z
x,1/2-y,z
1/2+x,1/2+y,z
1/2-x,-y,z
1/2+x,1/2-y,-z
1/2-x,y,-z
1/2-x,1/2-y,-z
1/2+x,y,-z
1/2-x,1/2+y,z
1/2+x,-y,z
loop_
_atom_site_type_symbol
_atom_site_label
_atom_site_fract_x
_atom_site_fract_y
_atom_site_fract_z
Si Si1 0.619378 0.952866 0.764598
Si Si2 0.856685 0.250000 0.514152
Si Si3 0.000000 0.349158 0.834345
Si Si4 0.621670 0.145539 0.847737
Si Si5 0.000000 0.396421 0.029992
Si Si6 0.074395 0.923946 0.427106
Si Si7 0.236927 0.250000 0.354444
Si Si8 0.249404 0.604589 0.205886
O O1 0.558416 0.906940 0.803617
O O2 0.616400 0.940819 0.659671
O O3 0.674767 0.894411 0.811964
O O4 0.616531 0.059326 0.783122
O O5 0.900307 0.334740 0.529018
O O6 0.822046 0.250000 0.420237
O O7 0.800295 0.250000 0.586679
O O8 0.000000 0.250000 0.795204
O O9 0.000000 0.344103 0.939176
O O10 0.614700 0.250000 0.819569
O O11 0.564543 0.127011 0.916380
O O12 0.697862 0.132076 0.866716
O O13 0.000000 0.500000 0.000000
O O14 0.000000 0.918011 0.402099
O O15 0.080979 0.000000 0.500000
O O16 0.236409 0.334501 0.289779
O O17 0.250000 0.500000 0.229642
#
# Coordination Sequence:
#
# PCOD9504579 Si02
#       8
#    16   8   8  16   8  16   8  16
#     4  11  23  43  67 104 133 183 232 284 342 408
#     4  11  25  38  64  90 127 182 228 291 338 398
#     4  12  26  41  75  99 134 178 228 270 344 418
#     4  11  23  42  73  99 135 175 220 283 344 406
#     4  12  24  49  69 104 140 173 219 277 340 421
#     4  11  25  42  61  90 136 178 228 286 343 396
#     4  11  22  40  62  96 125 176 239 277 340 416
#     4  10  23  40  66  99 135 173 225 285 340 407
#
# _framework density 19.952121999999999
#
# number of rings (size 3 to 8) (size 9 to 14) (size 15 to 20)
#    0.000    1.000    5.000    1.000    7.000    0.000 
#    0.000    2.500    1.833    2.000    0.000    0.000 
#    0.000    0.000    0.000    0.000    0.000    0.000 
#
# Total GULP energy -267263.047647 kJ/mol
# GULP energy per Si atom -5567.980159 kJ/mol
# Density = 1.990671 g / cm^3
# Si number density = 19.952122 Si / 1000 Ang^3
#
#
#
# Elastic Constant Matrix: (Units=GPa)
#
#
# Indices 1 2 3 4 5 6 
#
# 1 142.5620 46.4620 36.5787 0.0000 0.0000 0.0000
# 2 46.4620 161.8622 31.3363 0.0000 0.0000 0.0000
# 3 36.5787 31.3363 50.1625 0.0000 0.0000 0.0000
# 4 0.0000 0.0000 0.0000 18.9065 0.0000 0.0000
# 5 0.0000 0.0000 0.0000 0.0000 22.2535 0.0000
# 6 0.0000 0.0000 0.0000 0.0000 0.0000 22.5889
#
#
#
# Elastic Compliance Matrix: (Units=1/GPa)
#
#
# Indices 1 2 3 4 5 6 
#
# 1 0.008931 -0.001482 -0.005587 0.000000 0.000000 0.000000
# 2 -0.001482 0.007274 -0.003463 0.000000 0.000000 0.000000
# 3 -0.005587 -0.003463 0.026173 0.000000 0.000000 0.000000
# 4 0.000000 0.000000 0.000000 0.052892 0.000000 0.000000
# 5 0.000000 0.000000 0.000000 0.000000 0.044937 0.000000
# 6 0.000000 0.000000 0.000000 0.000000 0.000000 0.044269
#
#
# Mechanical properties :
#
#
# Convention : Reuss Voigt Hill
#
# Bulk Modulus (GPa) = 46.91873 64.81564 55.86719
# Shear Modulus (GPa) = 23.51347 28.76377 26.13862
#
# Velocity S-wave (km/s) = 3.43665 3.80101 3.62341
# Velocity P-wave (km/s) = 6.27009 7.19859 6.75033
#
# Compressibility (1/GPa) = 0.02131345
#
# Stress axis : x y z
#
# Youngs Moduli (GPa) = 111.97044 137.47595 38.20793
#
# Poissons Ratio (x) = 0.20374 0.21345
# Poissons Ratio (y) = 0.16594 0.13233
# Poissons Ratio (z) = 0.62554 0.47613
#
# Static dielectric constant tensor:
#      x y z
#    x 0.617910 0.000000 0.000000 
#    y 0.000000 1.674910 0.000000 
#    z 0.000000 0.000000 1.673330 
# 
# From -- ./inp_files/29395.got.cif
#   From: 2010.05.17/outbox.cif.g08.bks.cpg/sg67_15_cif.got.tgz:29395.got - 2010.06.03 18:28:57.
