data_PCOD9504969
_publ_section_title
;
Structure prediction by ZEFSAII (Michael W. Deem and Ramdas Pophale) SiO2 
 PCOD9504969
Probable space group: C M M A
;
_chemical_formula_sum "Si O2"
_cell_formula_units_Z 56
_cell_length_a 21.940295
_cell_length_b 14.430576
_cell_length_c 9.737616
_cell_angle_alpha 90.000000
_cell_angle_beta 90.000000
_cell_angle_gamma 90.000000
_cell_volume 3083.037259
_symmetry_space_group_name_H-M "C M M A"
_symmetry_group_IT_number 67
_symmetry_cell_setting 'orthorhombic'
loop_
_space_group_symop_operation_xyz
x,y,z
-x,1/2-y,z
x,-y,-z
-x,1/2+y,-z
-x,-y,-z
x,1/2+y,-z
-x,y,z
x,1/2-y,z
1/2+x,1/2+y,z
1/2-x,-y,z
1/2+x,1/2-y,-z
1/2-x,y,-z
1/2-x,1/2-y,-z
1/2+x,y,-z
1/2-x,1/2+y,z
1/2+x,-y,z
loop_
_atom_site_type_symbol
_atom_site_label
_atom_site_fract_x
_atom_site_fract_y
_atom_site_fract_z
Si Si1 0.500000 0.860601 0.113953
Si Si2 0.331599 0.250000 0.228604
Si Si3 0.000000 0.901741 0.574131
Si Si4 0.633435 0.607145 0.001823
Si Si5 0.398278 0.250000 0.519095
Si Si6 0.312712 0.750000 0.215969
O O1 0.500000 0.750000 0.143754
O O2 0.500000 0.911007 0.260773
O O3 0.438651 0.883543 0.032519
O O4 0.364338 0.250000 0.374385
O O5 0.258871 0.250000 0.242503
O O6 0.351066 0.161142 0.137799
O O7 0.058412 0.839746 0.533809
O O8 0.000000 0.000000 0.500000
O O9 0.667841 0.662209 0.123049
O O10 0.650566 0.500000 0.000000
O O11 0.351197 0.250000 0.644971
#
# Coordination Sequence:
#
# PCOD9504969 Si02
#       6
#     8   8   8  16   8   8
#     4  12  19  42  66  90 124 165 196 252 324 368
#     4  11  26  38  63  96 119 164 214 255 289 361
#     4  11  23  39  66  90 124 161 198 251 320 370
#     4  11  23  40  65  92 125 160 204 253 310 366
#     4  11  23  43  64  91 124 158 207 254 302 372
#     4  11  22  45  63  83 130 170 202 247 310 359
#
# _framework density 18.163906000000001
#
# number of rings (size 3 to 8) (size 9 to 14) (size 15 to 20)
#    0.000    0.857    7.143    2.571    4.000    4.571 
#    0.000    0.000    0.000    5.143    0.000    0.000 
#    0.000    0.000    0.000    0.000    0.000    0.000 
#
# Total GULP energy -156579.794896 kJ/mol
# GULP energy per Si atom -5592.135532 kJ/mol
# Density = 1.812256 g / cm^3
# Si number density = 18.163906 Si / 1000 Ang^3
#
#
#
# Elastic Constant Matrix: (Units=GPa)
#
#
# Indices 1 2 3 4 5 6 
#
# 1 171.6940 52.8071 90.3994 0.0000 0.0000 0.0000
# 2 52.8071 163.3605 70.2553 0.0000 0.0000 0.0000
# 3 90.3994 70.2553 169.1301 0.0000 0.0000 0.0000
# 4 0.0000 0.0000 0.0000 10.6231 0.0000 0.0000
# 5 0.0000 0.0000 0.0000 0.0000 -42.9026 0.0000
# 6 0.0000 0.0000 0.0000 0.0000 0.0000 -52.2294
#
#
#
# Elastic Compliance Matrix: (Units=1/GPa)
#
#
# Indices 1 2 3 4 5 6 
#
# 1 0.008221 -0.000935 -0.004006 0.000000 0.000000 0.000000
# 2 -0.000935 0.007559 -0.002640 0.000000 0.000000 0.000000
# 3 -0.004006 -0.002640 0.009150 0.000000 0.000000 0.000000
# 4 0.000000 0.000000 0.000000 0.094135 0.000000 0.000000
# 5 0.000000 0.000000 0.000000 0.000000 -0.023309 0.000000
# 6 0.000000 0.000000 0.000000 0.000000 0.000000 -0.019146
#
#
# Mechanical properties :
#
#
# Convention : Reuss Voigt Hill
#
# Bulk Modulus (GPa) = 102.36739 103.45647 102.91193
# Shear Modulus (GPa) = 52.61588 2.47973 27.54780
#
# Velocity S-wave (km/s) = 5.38796 1.16968 3.89861
# Velocity P-wave (km/s) = 9.75637 7.67496 8.77758
#
# Compressibility (1/GPa) = 0.00976874
#
# Stress axis : x y z
#
# Youngs Moduli (GPa) = 121.64123 132.29059 109.28393
#
# Poissons Ratio (x) = 0.12365 0.43777
# Poissons Ratio (y) = 0.11370 0.28855
# Poissons Ratio (z) = 0.48727 0.34930
#
# Static dielectric constant tensor:
#      x y z
#    x 1.612130 0.000000 0.000000 
#    y 0.000000 1.613010 0.000000 
#    z 0.000000 0.000000 1.594700 
# 
# From -- ./inp_files/7745.got.cif
#   From: 2010.05.17/outbox.cif.g08.bks.cpg/sg67_4_cif.got.tgz:7745.got - 2010.06.03 18:28:57.
