data_PCOD9504085
_publ_section_title
;
Structure prediction by ZEFSAII (Michael W. Deem and Ramdas Pophale) SiO2 
 PCOD9504085
Probable space group: C M M A
;
_chemical_formula_sum "Si O2"
_cell_formula_units_Z 112
_cell_length_a 14.214604
_cell_length_b 24.809882
_cell_length_c 14.381173
_cell_angle_alpha 90.000000
_cell_angle_beta 90.000000
_cell_angle_gamma 90.000000
_cell_volume 5071.702550
_symmetry_space_group_name_H-M "C M M A"
_symmetry_group_IT_number 67
_symmetry_cell_setting 'orthorhombic'
loop_
_space_group_symop_operation_xyz
x,y,z
-x,1/2-y,z
x,-y,-z
-x,1/2+y,-z
-x,-y,-z
x,1/2+y,-z
-x,y,z
x,1/2-y,z
1/2+x,1/2+y,z
1/2-x,-y,z
1/2+x,1/2-y,-z
1/2-x,y,-z
1/2-x,1/2-y,-z
1/2+x,y,-z
1/2-x,1/2+y,z
1/2+x,-y,z
loop_
_atom_site_type_symbol
_atom_site_label
_atom_site_fract_x
_atom_site_fract_y
_atom_site_fract_z
Si Si1 0.193102 0.150053 0.382226
Si Si2 0.889455 0.899350 0.928299
Si Si3 0.389910 0.889216 0.852705
Si Si4 0.778464 0.314170 0.179575
Si Si5 0.606363 0.997304 0.199374
Si Si6 0.648045 0.972658 0.407043
Si Si7 0.107102 0.688424 0.438785
O O1 0.175965 0.165325 0.276182
O O2 0.161621 0.091083 0.414537
O O3 0.136703 0.188255 0.452693
O O4 0.306037 0.156104 0.394665
O O5 0.835562 0.845530 0.899455
O O6 0.000000 0.893494 0.906053
O O7 0.854035 0.950823 0.868164
O O8 0.880536 0.905021 0.038656
O O9 0.500000 0.879003 0.831747
O O10 0.326627 0.838196 0.827899
O O11 0.351964 0.942679 0.801135
O O12 0.780567 0.250000 0.173605
O O13 0.500000 0.005542 0.163277
O O14 0.602598 0.980344 0.306388
O O15 0.605785 0.000000 0.500000
O O16 0.750000 0.000000 0.398766
O O17 0.111418 0.750000 0.403951
O O18 0.000000 0.668343 0.426292
#
# Coordination Sequence:
#
# PCOD9504085 Si02
#       7
#    16  16  16  16  16  16  16
#     4  11  22  41  62  88 129 169 212 271 331 386
#     4  10  22  42  66  95 130 170 220 280 342 399
#     4  10  23  42  66  96 130 169 217 280 343 403
#     4  12  25  41  64  94 132 180 227 270 329 401
#     4  10  21  40  66  96 128 165 216 271 333 407
#     4  11  22  38  60  89 128 169 204 253 328 393
#     4  10  21  38  62  89 118 162 220 271 317 375
#
# _framework density 22.083314000000001
#
# number of rings (size 3 to 8) (size 9 to 14) (size 15 to 20)
#    0.000    1.429    1.429    5.143    0.000    5.429 
#    0.000    6.429    0.000    0.429    0.000    0.000 
#    0.000    0.000    0.000    0.000    0.000    0.000 
#
# Total GULP energy -312822.236853 kJ/mol
# GULP energy per Si atom -5586.111372 kJ/mol
# Density = 2.203305 g / cm^3
# Si number density = 22.083314 Si / 1000 Ang^3
#
#
#
# Elastic Constant Matrix: (Units=GPa)
#
#
# Indices 1 2 3 4 5 6 
#
# 1 58.5948 9.6086 -8.0287 0.0000 0.0000 0.0000
# 2 9.6086 141.8160 14.1272 0.0000 0.0000 0.0000
# 3 -8.0287 14.1272 68.9945 0.0000 0.0000 0.0000
# 4 0.0000 0.0000 0.0000 29.9286 0.0000 0.0000
# 5 0.0000 0.0000 0.0000 0.0000 37.2708 0.0000
# 6 0.0000 0.0000 0.0000 0.0000 0.0000 17.2516
#
#
#
# Elastic Compliance Matrix: (Units=1/GPa)
#
#
# Indices 1 2 3 4 5 6 
#
# 1 0.017621 -0.001427 0.002343 0.000000 0.000000 0.000000
# 2 -0.001427 0.007314 -0.001664 0.000000 0.000000 0.000000
# 3 0.002343 -0.001664 0.015107 0.000000 0.000000 0.000000
# 4 0.000000 0.000000 0.000000 0.033413 0.000000 0.000000
# 5 0.000000 0.000000 0.000000 0.000000 0.026831 0.000000
# 6 0.000000 0.000000 0.000000 0.000000 0.000000 0.057966
#
#
# Mechanical properties :
#
#
# Convention : Reuss Voigt Hill
#
# Bulk Modulus (GPa) = 25.94294 33.42440 29.68367
# Shear Modulus (GPa) = 28.96928 33.80342 31.38635
#
# Velocity S-wave (km/s) = 3.62583 3.91669 3.77406
# Velocity P-wave (km/s) = 5.41314 5.96845 5.69757
#
# Compressibility (1/GPa) = 0.03854614
#
# Stress axis : x y z
#
# Youngs Moduli (GPa) = 56.74905 136.72741 66.19364
#
# Poissons Ratio (x) = 0.19515 -0.15508
# Poissons Ratio (y) = 0.08100 0.11012
# Poissons Ratio (z) = -0.13295 0.22747
#
# Static dielectric constant tensor:
#      x y z
#    x 1.703830 0.000000 0.000000 
#    y 0.000000 1.821330 0.000000 
#    z 0.000000 0.000000 1.759970 
# 
# From -- ./inp_files/27497.got.cif
#   From: 2010.05.17/outbox.cif.g08.bks.cpg/sg67_14_cif.got.tgz:27497.got - 2010.06.03 18:28:57.
