data_PCOD9504575
_publ_section_title
;
Structure prediction by ZEFSAII (Michael W. Deem and Ramdas Pophale) SiO2 
 PCOD9504575
Probable space group: C M M A
;
_chemical_formula_sum "Si O2"
_cell_formula_units_Z 92
_cell_length_a 21.831012
_cell_length_b 7.524159
_cell_length_c 24.887641
_cell_angle_alpha 90.000000
_cell_angle_beta 90.000000
_cell_angle_gamma 90.000000
_cell_volume 4088.044046
_symmetry_space_group_name_H-M "C M M A"
_symmetry_group_IT_number 67
_symmetry_cell_setting 'orthorhombic'
loop_
_space_group_symop_operation_xyz
x,y,z
-x,1/2-y,z
x,-y,-z
-x,1/2+y,-z
-x,-y,-z
x,1/2+y,-z
-x,y,z
x,1/2-y,z
1/2+x,1/2+y,z
1/2-x,-y,z
1/2+x,1/2-y,-z
1/2-x,y,-z
1/2-x,1/2-y,-z
1/2+x,y,-z
1/2-x,1/2+y,z
1/2+x,-y,z
loop_
_atom_site_type_symbol
_atom_site_label
_atom_site_fract_x
_atom_site_fract_y
_atom_site_fract_z
Si Si1 0.680100 0.037944 0.135658
Si Si2 0.134391 0.036525 0.437335
Si Si3 0.682950 0.462008 0.671213
Si Si4 0.000000 0.250000 0.791945
Si Si5 0.500000 0.538599 0.436674
Si Si6 0.897300 0.544629 0.767220
Si Si7 0.432403 0.537079 0.936695
O O1 0.674841 0.250000 0.139260
O O2 0.627285 0.971730 0.094648
O O3 0.750000 0.000000 0.120087
O O4 0.660717 0.958356 0.192704
O O5 0.132680 0.250000 0.435286
O O6 0.178005 0.969847 0.390084
O O7 0.066412 0.969733 0.420271
O O8 0.147806 0.000000 0.500000
O O9 0.676636 0.250000 0.669772
O O10 0.750000 0.500000 0.693296
O O11 0.628296 0.521830 0.709816
O O12 0.946750 0.407214 0.789595
O O13 0.500000 0.750000 0.426345
O O14 0.500000 0.500000 0.500000
O O15 0.919012 0.750000 0.762973
O O16 0.500000 0.469650 0.919022
O O17 0.434405 0.750000 0.929162
O O18 0.426918 0.500000 0.000000
#
# Coordination Sequence:
#
# PCOD9504575 Si02
#       7
#    16  16  16   4   8  16  16
#     4  11  23  40  66  97 136 182 233 287 339 407
#     4   9  18  34  55  84 115 155 204 258 317 384
#     4  10  23  40  62  87 123 169 215 265 323 390
#     4  12  26  46  72 104 140 166 216 284 336 400
#     4   8  14  27  50  71 102 139 178 234 296 357
#     4  11  25  45  70 101 135 176 219 271 342 404
#     4   9  20  38  62  91 130 177 228 289 352 406
#
# _framework density 22.504648
#
# number of rings (size 3 to 8) (size 9 to 14) (size 15 to 20)
#    0.000    2.087    0.870    1.304    2.435    4.870 
#    0.000    6.087    7.652    0.000    0.000    0.000 
#    0.000    0.000    0.000    0.000    0.000    0.000 
#
# Total GULP energy -256166.772436 kJ/mol
# GULP energy per Si atom -5568.842879 kJ/mol
# Density = 2.245343 g / cm^3
# Si number density = 22.504648 Si / 1000 Ang^3
#
#
#
# Elastic Constant Matrix: (Units=GPa)
#
#
# Indices 1 2 3 4 5 6 
#
# 1 144.4110 18.9361 47.2913 0.0000 0.0000 0.0000
# 2 18.9361 94.0879 3.4436 0.0000 0.0000 0.0000
# 3 47.2913 3.4436 89.4664 0.0000 0.0000 0.0000
# 4 0.0000 0.0000 0.0000 13.3257 0.0000 0.0000
# 5 0.0000 0.0000 0.0000 0.0000 12.7380 0.0000
# 6 0.0000 0.0000 0.0000 0.0000 0.0000 33.9883
#
#
#
# Elastic Compliance Matrix: (Units=1/GPa)
#
#
# Indices 1 2 3 4 5 6 
#
# 1 0.008599 -0.001566 -0.004485 0.000000 0.000000 0.000000
# 2 -0.001566 0.010929 0.000407 0.000000 0.000000 0.000000
# 3 -0.004485 0.000407 0.013532 0.000000 0.000000 0.000000
# 4 0.000000 0.000000 0.000000 0.075043 0.000000 0.000000
# 5 0.000000 0.000000 0.000000 0.000000 0.078505 0.000000
# 6 0.000000 0.000000 0.000000 0.000000 0.000000 0.029422
#
#
# Mechanical properties :
#
#
# Convention : Reuss Voigt Hill
#
# Bulk Modulus (GPa) = 45.93091 51.92304 48.92697
# Shear Modulus (GPa) = 21.31513 29.23003 25.27258
#
# Velocity S-wave (km/s) = 3.08091 3.60786 3.35475
# Velocity P-wave (km/s) = 5.75411 6.36221 6.06579
#
# Compressibility (1/GPa) = 0.02177183
#
# Stress axis : x y z
#
# Youngs Moduli (GPa) = 116.29517 91.50212 73.89656
#
# Poissons Ratio (x) = 0.14333 0.33142
# Poissons Ratio (y) = 0.18217 -0.03010
# Poissons Ratio (z) = 0.52158 -0.03728
#
# Static dielectric constant tensor:
#      x y z
#    x 1.868670 0.000000 0.000000 
#    y 0.000000 1.854150 0.000000 
#    z 0.000000 0.000000 1.860300 
# 
# From -- ./inp_files/44637.got.cif
#   From: 2010.05.17/outbox.cif.g08.bks.cpg/sg67_23_cif.got.tgz:44637.got - 2010.06.03 18:28:57.
