data_PCOD9504522
_publ_section_title
;
Structure prediction by ZEFSAII (Michael W. Deem and Ramdas Pophale) SiO2 
 PCOD9504522
Probable space group: C M M A
;
_chemical_formula_sum "Si O2"
_cell_formula_units_Z 112
_cell_length_a 23.091408
_cell_length_b 15.341749
_cell_length_c 13.735408
_cell_angle_alpha 90.000000
_cell_angle_beta 90.000000
_cell_angle_gamma 90.000000
_cell_volume 4865.941152
_symmetry_space_group_name_H-M "C M M A"
_symmetry_group_IT_number 67
_symmetry_cell_setting 'orthorhombic'
loop_
_space_group_symop_operation_xyz
x,y,z
-x,1/2-y,z
x,-y,-z
-x,1/2+y,-z
-x,-y,-z
x,1/2+y,-z
-x,y,z
x,1/2-y,z
1/2+x,1/2+y,z
1/2-x,-y,z
1/2+x,1/2-y,-z
1/2-x,y,-z
1/2-x,1/2-y,-z
1/2+x,y,-z
1/2-x,1/2+y,z
1/2+x,-y,z
loop_
_atom_site_type_symbol
_atom_site_label
_atom_site_fract_x
_atom_site_fract_y
_atom_site_fract_z
Si Si1 0.627627 0.348687 0.658353
Si Si2 0.068526 0.151421 0.902558
Si Si3 0.239582 0.151892 0.839406
Si Si4 0.259672 0.902763 0.639627
Si Si5 0.835182 0.601320 0.977573
Si Si6 0.930397 0.021548 0.726884
Si Si7 0.880344 0.348271 0.566878
O O1 0.614197 0.250000 0.691438
O O2 0.697238 0.358284 0.648647
O O3 0.600833 0.428111 0.719404
O O4 0.605428 0.359344 0.546764
O O5 0.084197 0.250000 0.870183
O O6 0.099763 0.130690 0.004329
O O7 0.084739 0.078160 0.823161
O O8 0.000000 0.148420 0.913419
O O9 0.238820 0.250000 0.802264
O O10 0.218829 0.092290 0.751745
O O11 0.199150 0.146223 0.933311
O O12 0.302870 0.126791 0.879394
O O13 0.310720 0.857926 0.580061
O O14 0.250000 0.000000 0.603919
O O15 0.828433 0.500000 0.000000
O O16 0.909679 0.079959 0.635191
O O17 0.000000 0.011283 0.724613
O O18 0.896864 0.250000 0.597044
#
# Coordination Sequence:
#
# PCOD9504522 Si02
#       7
#    16  16  16  16  16  16  16
#     4  11  25  42  62  92 129 170 214 262 321 390
#     4  10  22  42  67  94 124 164 216 271 322 374
#     4  11  22  37  58  90 126 164 204 250 310 375
#     4  12  23  39  64  93 130 168 213 261 320 388
#     4  11  22  37  60  90 127 160 203 252 309 377
#     4  11  24  42  66  94 125 165 218 272 320 377
#     4  11  23  40  64  94 129 168 210 264 326 383
#
# _framework density 23.017130000000002
#
# number of rings (size 3 to 8) (size 9 to 14) (size 15 to 20)
#    0.000    1.000    1.429    6.857    2.000    4.286 
#    0.000    1.429    0.000    0.000    0.000    0.000 
#    0.000    0.000    0.000    0.000    0.000    0.000 
#
# Total GULP energy -313445.792387 kJ/mol
# GULP energy per Si atom -5597.246293 kJ/mol
# Density = 2.296474 g / cm^3
# Si number density = 23.017130 Si / 1000 Ang^3
#
#
#
# Elastic Constant Matrix: (Units=GPa)
#
#
# Indices 1 2 3 4 5 6 
#
# 1 89.8780 37.9299 17.4018 0.0000 0.0000 0.0000
# 2 37.9299 151.2774 12.2550 0.0000 0.0000 0.0000
# 3 17.4018 12.2550 57.4593 0.0000 0.0000 0.0000
# 4 0.0000 0.0000 0.0000 160.8461 0.0000 0.0000
# 5 0.0000 0.0000 0.0000 0.0000 29.3991 0.0000
# 6 0.0000 0.0000 0.0000 0.0000 0.0000 30.4789
#
#
#
# Elastic Compliance Matrix: (Units=1/GPa)
#
#
# Indices 1 2 3 4 5 6 
#
# 1 0.013032 -0.003000 -0.003307 0.000000 0.000000 0.000000
# 2 -0.003000 0.007417 -0.000673 0.000000 0.000000 0.000000
# 3 -0.003307 -0.000673 0.018549 0.000000 0.000000 0.000000
# 4 0.000000 0.000000 0.000000 0.006217 0.000000 0.000000
# 5 0.000000 0.000000 0.000000 0.000000 0.034015 0.000000
# 6 0.000000 0.000000 0.000000 0.000000 0.000000 0.032810
#
#
# Mechanical properties :
#
#
# Convention : Reuss Voigt Hill
#
# Bulk Modulus (GPa) = 39.93974 48.19866 44.06920
# Shear Modulus (GPa) = 37.21725 59.54667 48.38196
#
# Velocity S-wave (km/s) = 4.02548 5.09183 4.58973
# Velocity P-wave (km/s) = 6.24466 7.45351 6.87570
#
# Compressibility (1/GPa) = 0.02503772
#
# Stress axis : x y z
#
# Youngs Moduli (GPa) = 76.73156 134.82451 53.91167
#
# Poissons Ratio (x) = 0.40444 0.17829
# Poissons Ratio (y) = 0.23017 0.03631
# Poissons Ratio (z) = 0.25376 0.09080
#
# Static dielectric constant tensor:
#      x y z
#    x 1.885810 0.000000 0.000000 
#    y 0.000000 1.833200 0.000000 
#    z 0.000000 0.000000 1.883970 
# 
# From -- ./inp_files/27496.got.cif
#   From: 2010.05.17/outbox.cif.g08.bks.cpg/sg67_14_cif.got.tgz:27496.got - 2010.06.03 18:28:57.
