data_PCOD9504106
_publ_section_title
;
Structure prediction by ZEFSAII (Michael W. Deem and Ramdas Pophale) SiO2 
 PCOD9504106
Probable space group: C M M A
;
_chemical_formula_sum "Si O2"
_cell_formula_units_Z 96
_cell_length_a 14.933372
_cell_length_b 17.466074
_cell_length_c 19.207672
_cell_angle_alpha 90.000000
_cell_angle_beta 90.000000
_cell_angle_gamma 90.000000
_cell_volume 5009.886772
_symmetry_space_group_name_H-M "C M M A"
_symmetry_group_IT_number 67
_symmetry_cell_setting 'orthorhombic'
loop_
_space_group_symop_operation_xyz
x,y,z
-x,1/2-y,z
x,-y,-z
-x,1/2+y,-z
-x,-y,-z
x,1/2+y,-z
-x,y,z
x,1/2-y,z
1/2+x,1/2+y,z
1/2-x,-y,z
1/2+x,1/2-y,-z
1/2-x,y,-z
1/2-x,1/2-y,-z
1/2+x,y,-z
1/2-x,1/2+y,z
1/2+x,-y,z
loop_
_atom_site_type_symbol
_atom_site_label
_atom_site_fract_x
_atom_site_fract_y
_atom_site_fract_z
Si Si1 0.600766 0.382845 0.855652
Si Si2 0.233606 0.837693 0.234383
Si Si3 0.603186 0.062584 0.141344
Si Si4 0.394757 0.592185 0.498895
Si Si5 0.750365 0.841751 0.396828
Si Si6 0.643184 0.835804 0.990298
O O1 0.500000 0.375347 0.828309
O O2 0.672856 0.343561 0.806530
O O3 0.624511 0.472740 0.861699
O O4 0.604077 0.349683 0.933456
O O5 0.201067 0.750000 0.230322
O O6 0.166344 0.893596 0.194847
O O7 0.245765 0.858519 0.314989
O O8 0.500000 0.070205 0.162515
O O9 0.614586 0.101858 0.065985
O O10 0.390278 0.500000 0.500000
O O11 0.500000 0.614338 0.498826
O O12 0.337865 0.622968 0.433071
O O13 0.337697 0.624921 0.563912
O O14 0.748585 0.750000 0.406415
O O15 0.620199 0.750000 0.965530
O O16 0.750000 0.839992 0.000000
#
# Coordination Sequence:
#
# PCOD9504106 Si02
#       6
#    16  16  16  16  16  16
#     4  11  24  40  60  86 115 152 197 244 296 351
#     4  11  24  41  60  86 119 156 196 239 290 345
#     4  11  24  40  60  86 115 152 197 244 296 351
#     4  10  21  38  63  93 122 154 193 235 282 339
#     4  10  22  39  61  89 121 156 195 238 284 339
#     4  11  22  37  60  87 114 149 194 245 299 351
#
# _framework density 19.162109000000001
#
# number of rings (size 3 to 8) (size 9 to 14) (size 15 to 20)
#    0.000    1.333    1.667    4.500    0.000   10.667 
#    0.000    6.667    0.000    0.000    0.000    0.000 
#    0.000    0.000    0.000    0.000    0.000    0.000 
#
# Total GULP energy -268345.009170 kJ/mol
# GULP energy per Si atom -5590.521024 kJ/mol
# Density = 1.911850 g / cm^3
# Si number density = 19.162109 Si / 1000 Ang^3
#
#
#
# Elastic Constant Matrix: (Units=GPa)
#
#
# Indices 1 2 3 4 5 6 
#
# 1 111.5402 33.6018 37.5909 0.0000 0.0000 0.0000
# 2 33.6018 63.7514 19.5595 0.0000 0.0000 0.0000
# 3 37.5909 19.5595 111.3730 0.0000 0.0000 0.0000
# 4 0.0000 0.0000 0.0000 74.6793 0.0000 0.0000
# 5 0.0000 0.0000 0.0000 0.0000 -370.0710 0.0000
# 6 0.0000 0.0000 0.0000 0.0000 0.0000 241.3601
#
#
#
# Elastic Compliance Matrix: (Units=1/GPa)
#
#
# Indices 1 2 3 4 5 6 
#
# 1 0.011525 -0.005159 -0.002984 0.000000 0.000000 0.000000
# 2 -0.005159 0.018889 -0.001576 0.000000 0.000000 0.000000
# 3 -0.002984 -0.001576 0.010263 0.000000 0.000000 0.000000
# 4 0.000000 0.000000 0.000000 0.013391 0.000000 0.000000
# 5 0.000000 0.000000 0.000000 0.000000 -0.002702 0.000000
# 6 0.000000 0.000000 0.000000 0.000000 0.000000 0.004143
#
#
# Mechanical properties :
#
#
# Convention : Reuss Voigt Hill
#
# Bulk Modulus (GPa) = 47.08411 52.01877 49.55144
# Shear Modulus (GPa) = 60.95637 2.25452 31.60544
#
# Velocity S-wave (km/s) = 5.64623 1.08587 4.06565
# Velocity P-wave (km/s) = 8.19338 5.36449 6.92492
#
# Compressibility (1/GPa) = 0.02123859
#
# Stress axis : x y z
#
# Youngs Moduli (GPa) = 86.76618 52.94174 97.43968
#
# Poissons Ratio (x) = 0.27313 0.29076
# Poissons Ratio (y) = 0.44764 0.15356
# Poissons Ratio (z) = 0.25891 0.08343
#
# Static dielectric constant tensor:
#      x y z
#    x 1.666100 0.000000 0.000000 
#    y 0.000000 1.663940 0.000000 
#    z 0.000000 0.000000 1.634350 
# 
# From -- ./inp_files/38491.got.cif
#   From: 2010.05.17/outbox.cif.g08.bks.cpg/sg67_20_cif.got.tgz:38491.got - 2010.06.03 18:28:57.
