data_PCOD9504866
_publ_section_title
;
Structure prediction by ZEFSAII (Michael W. Deem and Ramdas Pophale) SiO2 
 PCOD9504866
Probable space group: C M M A
;
_chemical_formula_sum "Si O2"
_cell_formula_units_Z 96
_cell_length_a 9.122641
_cell_length_b 14.648687
_cell_length_c 32.894003
_cell_angle_alpha 90.000000
_cell_angle_beta 90.000000
_cell_angle_gamma 90.000000
_cell_volume 4395.780638
_symmetry_space_group_name_H-M "C M M A"
_symmetry_group_IT_number 67
_symmetry_cell_setting 'orthorhombic'
loop_
_space_group_symop_operation_xyz
x,y,z
-x,1/2-y,z
x,-y,-z
-x,1/2+y,-z
-x,-y,-z
x,1/2+y,-z
-x,y,z
x,1/2-y,z
1/2+x,1/2+y,z
1/2-x,-y,z
1/2+x,1/2-y,-z
1/2-x,y,-z
1/2-x,1/2-y,-z
1/2+x,y,-z
1/2-x,1/2+y,z
1/2+x,-y,z
loop_
_atom_site_type_symbol
_atom_site_label
_atom_site_fract_x
_atom_site_fract_y
_atom_site_fract_z
Si Si1 0.678807 0.855540 0.791698
Si Si2 0.166727 0.638322 0.459237
Si Si3 0.334870 0.357720 0.120747
Si Si4 0.669690 0.638129 0.703556
Si Si5 0.824780 0.599251 0.960492
Si Si6 0.166664 0.638329 0.622200
O O1 0.500000 0.855816 0.791285
O O2 0.728479 0.750000 0.791387
O O3 0.719481 0.895463 0.835740
O O4 0.725431 0.893527 0.747922
O O5 0.165953 0.750000 0.459234
O O6 0.250000 0.610111 0.500000
O O7 0.244634 0.610066 0.417655
O O8 0.000000 0.606874 0.460093
O O9 0.500000 0.394266 0.110925
O O10 0.352633 0.250000 0.127665
O O11 0.225425 0.364919 0.083204
O O12 0.500000 0.611221 0.698642
O O13 0.671057 0.750000 0.704556
O O14 0.761514 0.609446 0.664604
O O15 0.750000 0.500000 0.959892
O O16 0.000000 0.597418 0.964969
O O17 0.750000 0.645492 0.000000
O O18 0.166982 0.750000 0.622333
O O19 0.000000 0.607377 0.619398
#
# Coordination Sequence:
#
# PCOD9504866 Si02
#       6
#    16  16  16  16  16  16
#     4   7  11  21  38  58  79 104 132 161 196 241
#     4   9  15  21  27  33  42  59  86 124 171 222
#     4   9  17  31  51  74  99 125 153 186 225 269
#     4   8  12  19  31  45  61  84 114 144 176 220
#     4  11  22  37  55  73  95 123 156 191 228 270
#     4   9  15  20  25  35  51  71  97 131 173 221
#
# _framework density 21.839124999999999
#
# number of rings (size 3 to 8) (size 9 to 14) (size 15 to 20)
#    0.000    3.167    0.000    5.000    0.000    4.667 
#    0.000    0.833    0.000    3.000    0.000    0.000 
#    0.000    0.000    0.000    0.000    0.000    0.000 
#
# Total GULP energy -267622.038940 kJ/mol
# GULP energy per Si atom -5575.459145 kJ/mol
# Density = 2.178942 g / cm^3
# Si number density = 21.839125 Si / 1000 Ang^3
#
#
#
# Elastic Constant Matrix: (Units=GPa)
#
#
# Indices 1 2 3 4 5 6 
#
# 1 156.1832 8.2235 125.2229 0.0000 0.0000 0.0000
# 2 8.2235 52.7903 9.3167 0.0000 0.0000 0.0000
# 3 125.2229 9.3167 266.8294 0.0000 0.0000 0.0000
# 4 0.0000 0.0000 0.0000 21.8748 0.0000 0.0000
# 5 0.0000 0.0000 0.0000 0.0000 29.8743 0.0000
# 6 0.0000 0.0000 0.0000 0.0000 0.0000 2.7491
#
#
#
# Elastic Compliance Matrix: (Units=1/GPa)
#
#
# Indices 1 2 3 4 5 6 
#
# 1 0.010295 -0.000756 -0.004805 0.000000 0.000000 0.000000
# 2 -0.000756 0.019116 -0.000313 0.000000 0.000000 0.000000
# 3 -0.004805 -0.000313 0.006014 0.000000 0.000000 0.000000
# 4 0.000000 0.000000 0.000000 0.045715 0.000000 0.000000
# 5 0.000000 0.000000 0.000000 0.000000 0.033474 0.000000
# 6 0.000000 0.000000 0.000000 0.000000 0.000000 0.363755
#
#
# Mechanical properties :
#
#
# Convention : Reuss Voigt Hill
#
# Bulk Modulus (GPa) = 42.23442 84.59210 63.41326
# Shear Modulus (GPa) = 10.04001 33.10229 21.57115
#
# Velocity S-wave (km/s) = 2.14645 3.89747 3.14623
# Velocity P-wave (km/s) = 5.05211 7.68583 6.50368
#
# Compressibility (1/GPa) = 0.02367737
#
# Stress axis : x y z
#
# Youngs Moduli (GPa) = 97.13353 52.31272 166.28791
#
# Poissons Ratio (x) = 0.03953 0.79903
# Poissons Ratio (y) = 0.07340 0.05201
# Poissons Ratio (z) = 0.46674 0.01636
#
# Static dielectric constant tensor:
#      x y z
#    x 1.748900 0.000000 0.000000 
#    y 0.000000 2.474330 0.000000 
#    z 0.000000 0.000000 1.856150 
# 
# From -- ./inp_files/43671.got.cif
#   From: 2010.05.17/outbox.cif.g08.bks.cpg/sg67_22_cif.got.tgz:43671.got - 2010.06.03 18:28:57.
