data_PCOD9504083
_publ_section_title
;
Structure prediction by ZEFSAII (Michael W. Deem and Ramdas Pophale) SiO2 
 PCOD9504083
Probable space group: C M M A
;
_chemical_formula_sum "Si O2"
_cell_formula_units_Z 72
_cell_length_a 15.616038
_cell_length_b 8.694936
_cell_length_c 28.609295
_cell_angle_alpha 90.000000
_cell_angle_beta 90.000000
_cell_angle_gamma 90.000000
_cell_volume 3884.582977
_symmetry_space_group_name_H-M "C M M A"
_symmetry_group_IT_number 67
_symmetry_cell_setting 'orthorhombic'
loop_
_space_group_symop_operation_xyz
x,y,z
-x,1/2-y,z
x,-y,-z
-x,1/2+y,-z
-x,-y,-z
x,1/2+y,-z
-x,y,z
x,1/2-y,z
1/2+x,1/2+y,z
1/2-x,-y,z
1/2+x,1/2-y,-z
1/2-x,y,-z
1/2-x,1/2-y,-z
1/2+x,y,-z
1/2-x,1/2+y,z
1/2+x,-y,z
loop_
_atom_site_type_symbol
_atom_site_label
_atom_site_fract_x
_atom_site_fract_y
_atom_site_fract_z
Si Si1 0.500000 0.064905 0.111124
Si Si2 0.500000 0.066342 0.447853
Si Si3 0.843262 0.566234 0.720899
Si Si4 0.343790 0.934539 0.388279
Si Si5 0.000000 0.433644 0.779209
Si Si6 0.843260 0.065183 0.052010
O O1 0.500000 0.250000 0.105716
O O2 0.500000 0.027062 0.166008
O O3 0.583363 0.994939 0.086221
O O4 0.500000 0.250000 0.449159
O O5 0.500000 0.000000 0.500000
O O6 0.416729 0.006309 0.420336
O O7 0.841655 0.750000 0.724665
O O8 0.750000 0.500000 0.732809
O O9 0.860717 0.527241 0.666364
O O10 0.916634 0.499399 0.753543
O O11 0.343953 0.750000 0.392875
O O12 0.250000 0.000000 0.399939
O O13 0.000000 0.250000 0.775005
O O14 0.841272 0.250000 0.050579
O O15 0.750000 0.000000 0.065736
O O16 0.860903 0.000000 0.000000
#
# Coordination Sequence:
#
# PCOD9504083 Si02
#       6
#     8   8  16  16   8  16
#     4  11  24  41  58  83 118 156 195 238 287 342
#     4  12  25  40  59  85 118 156 193 236 287 344
#     4  10  21  38  62  88 117 151 192 239 287 340
#     4  10  21  39  62  89 117 150 192 239 287 340
#     4  11  24  39  58  84 118 156 195 238 287 342
#     4  11  22  39  63  89 116 150 191 238 287 341
#
# _framework density 18.534808000000002
#
# number of rings (size 3 to 8) (size 9 to 14) (size 15 to 20)
#    0.000    1.333    0.000    6.667    0.000    8.444 
#    0.000    2.222    0.000    0.000    0.000    0.000 
#    0.000    0.000    0.000    0.000    0.000    0.000 
#
# Total GULP energy -201366.603772 kJ/mol
# GULP energy per Si atom -5593.516771 kJ/mol
# Density = 1.849262 g / cm^3
# Si number density = 18.534808 Si / 1000 Ang^3
#
#
#
# Elastic Constant Matrix: (Units=GPa)
#
#
# Indices 1 2 3 4 5 6 
#
# 1 201.7656 94.8944 149.2928 0.0000 0.0000 0.0000
# 2 94.8944 128.6454 86.9281 0.0000 0.0000 0.0000
# 3 149.2928 86.9281 141.3019 0.0000 0.0000 0.0000
# 4 0.0000 0.0000 0.0000 30.7196 0.0000 0.0000
# 5 0.0000 0.0000 0.0000 0.0000 -32.9717 0.0000
# 6 0.0000 0.0000 0.0000 0.0000 0.0000 41.7927
#
#
#
# Elastic Compliance Matrix: (Units=1/GPa)
#
#
# Indices 1 2 3 4 5 6 
#
# 1 0.022776 -0.000924 -0.023495 0.000000 0.000000 0.000000
# 2 -0.000924 0.013341 -0.007231 0.000000 0.000000 0.000000
# 3 -0.023495 -0.007231 0.036349 0.000000 0.000000 0.000000
# 4 0.000000 0.000000 0.000000 0.032552 0.000000 0.000000
# 5 0.000000 0.000000 0.000000 0.000000 -0.030329 0.000000
# 6 0.000000 0.000000 0.000000 0.000000 0.000000 0.023928
#
#
# Mechanical properties :
#
#
# Convention : Reuss Voigt Hill
#
# Bulk Modulus (GPa) = 109.10358 125.99373 117.54865
# Shear Modulus (GPa) = 30.30795 17.28130 23.79462
#
# Velocity S-wave (km/s) = 4.04814 3.05679 3.58688
# Velocity P-wave (km/s) = 8.99121 8.97680 8.98401
#
# Compressibility (1/GPa) = 0.00916560
#
# Stress axis : x y z
#
# Youngs Moduli (GPa) = 43.90619 74.95640 27.51080
#
# Poissons Ratio (x) = 0.06928 0.64637
# Poissons Ratio (y) = 0.04058 0.19893
# Poissons Ratio (z) = 1.03159 0.54200
#
# Static dielectric constant tensor:
#      x y z
#    x 1.604780 0.000000 0.000000 
#    y 0.000000 1.617480 0.000000 
#    z 0.000000 0.000000 1.615770 
# 
# From -- ./inp_files/44269.got.cif
#   From: 2010.05.17/outbox.cif.g08.bks.cpg/sg67_23_cif.got.tgz:44269.got - 2010.06.03 18:28:57.
