data_PCOD9504949
_publ_section_title
;
Structure prediction by ZEFSAII (Michael W. Deem and Ramdas Pophale) SiO2 
 PCOD9504949
Probable space group: C M M A
;
_chemical_formula_sum "Si O2"
_cell_formula_units_Z 96
_cell_length_a 14.317541
_cell_length_b 22.778552
_cell_length_c 15.659556
_cell_angle_alpha 90.000000
_cell_angle_beta 90.000000
_cell_angle_gamma 90.000000
_cell_volume 5107.095662
_symmetry_space_group_name_H-M "C M M A"
_symmetry_group_IT_number 67
_symmetry_cell_setting 'orthorhombic'
loop_
_space_group_symop_operation_xyz
x,y,z
-x,1/2-y,z
x,-y,-z
-x,1/2+y,-z
-x,-y,-z
x,1/2+y,-z
-x,y,z
x,1/2-y,z
1/2+x,1/2+y,z
1/2-x,-y,z
1/2+x,1/2-y,-z
1/2-x,y,-z
1/2-x,1/2-y,-z
1/2+x,y,-z
1/2-x,1/2+y,z
1/2+x,-y,z
loop_
_atom_site_type_symbol
_atom_site_label
_atom_site_fract_x
_atom_site_fract_y
_atom_site_fract_z
Si Si1 0.892229 0.250000 0.290298
Si Si2 0.706410 0.864558 0.214056
Si Si3 0.222329 0.932579 0.624409
Si Si4 0.638538 0.750000 0.490592
Si Si5 0.111675 0.182430 0.056137
Si Si6 0.607654 0.180047 0.144792
Si Si7 0.394830 0.118328 0.466714
O O1 0.839489 0.192322 0.258575
O O2 0.889363 0.250000 0.391943
O O3 0.000000 0.250000 0.260800
O O4 0.690942 0.917481 0.279653
O O5 0.659217 0.862762 0.120676
O O6 0.815805 0.853696 0.198868
O O7 0.317980 0.898205 0.603258
O O8 0.147124 0.909011 0.555058
O O9 0.250000 0.000000 0.611815
O O10 0.750000 0.750000 0.500000
O O11 0.603931 0.688784 0.528169
O O12 0.143579 0.250000 0.074656
O O13 0.000000 0.181290 0.067908
O O14 0.128795 0.171554 0.956134
O O15 0.500000 0.163369 0.160499
O O16 0.615900 0.250000 0.160705
O O17 0.500000 0.096729 0.451880
#
# Coordination Sequence:
#
# PCOD9504949 Si02
#       7
#     8  16  16   8  16  16  16
#     4  12  22  32  52  89 123 141 176 231 289 350
#     4  12  20  33  56  80 114 152 181 226 293 332
#     4  11  26  42  56  81 112 148 204 246 272 323
#     4  12  20  38  60  92 120 144 171 223 293 360
#     4   9  17  30  52  84 117 144 179 224 279 349
#     4   9  18  32  51  81 117 150 182 219 273 350
#     4  11  22  41  66  85 112 149 185 231 289 343
#
# _framework density 18.797377000000001
#
# number of rings (size 3 to 8) (size 9 to 14) (size 15 to 20)
#    0.000    1.333    5.000    3.750    0.000    4.000 
#    0.000    0.000    0.000    2.000    0.000    2.333 
#    0.000    0.000    0.000    0.000    0.000    0.000 
#
# Total GULP energy -268015.158176 kJ/mol
# GULP energy per Si atom -5583.649129 kJ/mol
# Density = 1.875459 g / cm^3
# Si number density = 18.797377 Si / 1000 Ang^3
#
#
#
# Elastic Constant Matrix: (Units=GPa)
#
#
# Indices 1 2 3 4 5 6 
#
# 1 80.4814 -1.3130 12.8744 0.0000 0.0000 0.0000
# 2 -1.3130 66.9248 6.4579 0.0000 0.0000 0.0000
# 3 12.8744 6.4579 44.8414 0.0000 0.0000 0.0000
# 4 0.0000 0.0000 0.0000 5.2166 0.0000 0.0000
# 5 0.0000 0.0000 0.0000 0.0000 5.0967 0.0000
# 6 0.0000 0.0000 0.0000 0.0000 0.0000 -4.6758
#
#
#
# Elastic Compliance Matrix: (Units=1/GPa)
#
#
# Indices 1 2 3 4 5 6 
#
# 1 0.013049 0.000626 -0.003837 0.000000 0.000000 0.000000
# 2 0.000626 0.015183 -0.002366 0.000000 0.000000 0.000000
# 3 -0.003837 -0.002366 0.023743 0.000000 0.000000 0.000000
# 4 0.000000 0.000000 0.000000 0.191696 0.000000 0.000000
# 5 0.000000 0.000000 0.000000 0.000000 0.196206 0.000000
# 6 0.000000 0.000000 0.000000 0.000000 0.000000 -0.213868
#
#
# Mechanical properties :
#
#
# Convention : Reuss Voigt Hill
#
# Bulk Modulus (GPa) = 24.49694 25.36513 24.93103
# Shear Modulus (GPa) = 19.93853 12.74271 16.34062
#
# Velocity S-wave (km/s) = 3.26038 2.60647 2.95159
# Velocity P-wave (km/s) = 5.21861 4.75200 4.99076
#
# Compressibility (1/GPa) = 0.04082143
#
# Stress axis : x y z
#
# Youngs Moduli (GPa) = 76.63308 65.86412 42.11734
#
# Poissons Ratio (x) = -0.04125 0.16159
# Poissons Ratio (y) = -0.04799 0.09967
# Poissons Ratio (z) = 0.29402 0.15586
#
# Static dielectric constant tensor:
#      x y z
#    x 1.675690 0.000000 0.000000 
#    y 0.000000 1.639440 0.000000 
#    z 0.000000 0.000000 1.679270 
# 
# From -- ./inp_files/27257.got.cif
#   From: 2010.05.17/outbox.cif.g08.bks.cpg/sg67_14_cif.got.tgz:27257.got - 2010.06.03 18:28:57.
