data_PCOD9504775
_publ_section_title
;
Structure prediction by ZEFSAII (Michael W. Deem and Ramdas Pophale) SiO2 
 PCOD9504775
Probable space group: C M M A
;
_chemical_formula_sum "Si O2"
_cell_formula_units_Z 96
_cell_length_a 26.338248
_cell_length_b 14.859088
_cell_length_c 11.968214
_cell_angle_alpha 90.000000
_cell_angle_beta 90.000000
_cell_angle_gamma 90.000000
_cell_volume 4683.908294
_symmetry_space_group_name_H-M "C M M A"
_symmetry_group_IT_number 67
_symmetry_cell_setting 'orthorhombic'
loop_
_space_group_symop_operation_xyz
x,y,z
-x,1/2-y,z
x,-y,-z
-x,1/2+y,-z
-x,-y,-z
x,1/2+y,-z
-x,y,z
x,1/2-y,z
1/2+x,1/2+y,z
1/2-x,-y,z
1/2+x,1/2-y,-z
1/2-x,y,-z
1/2-x,1/2-y,-z
1/2+x,y,-z
1/2-x,1/2+y,z
1/2+x,-y,z
loop_
_atom_site_type_symbol
_atom_site_label
_atom_site_fract_x
_atom_site_fract_y
_atom_site_fract_z
Si Si1 0.500000 0.356767 0.624085
Si Si2 0.124515 0.648007 0.223484
Si Si3 0.838280 0.844911 0.772430
Si Si4 0.399383 0.018783 0.622933
Si Si5 0.737605 0.105866 0.128293
Si Si6 0.500000 0.646856 0.110697
Si Si7 0.103523 0.400503 0.014699
O O1 0.500000 0.250000 0.581239
O O2 0.549606 0.420439 0.602181
O O3 0.500000 0.346751 0.757094
O O4 0.124201 0.750000 0.267544
O O5 0.099696 0.575608 0.307988
O O6 0.181699 0.624168 0.178054
O O7 0.095678 0.643184 0.105037
O O8 0.854359 0.750000 0.722320
O O9 0.862156 0.922485 0.699253
O O10 0.778570 0.851481 0.788754
O O11 0.860891 0.850792 0.897597
O O12 0.378302 0.000000 0.500000
O O13 0.750000 0.000000 0.128461
O O14 0.750000 0.136602 0.000000
O O15 0.500000 0.750000 0.067048
O O16 0.450464 0.594603 0.073457
O O17 0.125832 0.500000 0.000000
#
# Coordination Sequence:
#
# PCOD9504775 Si02
#       7
#     8  16  16  16  16   8  16
#     4  11  23  46  78 104 128 168 231 288 334 403
#     4  12  25  42  65 101 144 183 225 281 345 407
#     4  12  23  40  68  99 131 174 227 282 343 407
#     4  12  27  48  69  97 134 179 235 286 336 394
#     4  11  21  38  66 102 139 179 229 279 341 412
#     4  11  21  34  59  98 133 167 212 263 331 418
#     4  12  21  38  61  95 136 174 213 274 347 413
#
# _framework density 20.495704
#
# number of rings (size 3 to 8) (size 9 to 14) (size 15 to 20)
#    0.000    0.333    6.667    3.000    0.000    2.667 
#    0.000    2.917    0.000    2.000    0.000    0.000 
#    0.000    0.000    0.000    0.000    0.000    0.000 
#
# Total GULP energy -267866.909765 kJ/mol
# GULP energy per Si atom -5580.560620 kJ/mol
# Density = 2.044905 g / cm^3
# Si number density = 20.495704 Si / 1000 Ang^3
#
#
#
# Elastic Constant Matrix: (Units=GPa)
#
#
# Indices 1 2 3 4 5 6 
#
# 1 52.1627 5.5883 -11.0586 0.0000 0.0000 0.0000
# 2 5.5883 158.1423 29.9624 0.0000 0.0000 0.0000
# 3 -11.0586 29.9624 82.4968 0.0000 0.0000 0.0000
# 4 0.0000 0.0000 0.0000 -9.6969 0.0000 0.0000
# 5 0.0000 0.0000 0.0000 0.0000 9.2002 0.0000
# 6 0.0000 0.0000 0.0000 0.0000 0.0000 24.0284
#
#
#
# Elastic Compliance Matrix: (Units=1/GPa)
#
#
# Indices 1 2 3 4 5 6 
#
# 1 0.019978 -0.001303 0.003151 0.000000 0.000000 0.000000
# 2 -0.001303 0.006876 -0.002672 0.000000 0.000000 0.000000
# 3 0.003151 -0.002672 0.013515 0.000000 0.000000 0.000000
# 4 0.000000 0.000000 0.000000 -0.103125 0.000000 0.000000
# 5 0.000000 0.000000 0.000000 0.000000 0.108693 0.000000
# 6 0.000000 0.000000 0.000000 0.000000 0.000000 0.041617
#
#
# Mechanical properties :
#
#
# Convention : Reuss Voigt Hill
#
# Bulk Modulus (GPa) = 25.82540 37.97621 31.90081
# Shear Modulus (GPa) = 48.96771 22.59365 35.78068
#
# Velocity S-wave (km/s) = 4.89322 3.32378 4.18277
# Velocity P-wave (km/s) = 6.67477 5.77054 6.23906
#
# Compressibility (1/GPa) = 0.03872157
#
# Stress axis : x y z
#
# Youngs Moduli (GPa) = 50.05381 145.43993 73.99440
#
# Poissons Ratio (x) = 0.18952 -0.23318
# Poissons Ratio (y) = 0.06522 0.19770
# Poissons Ratio (z) = -0.15774 0.38860
#
# Static dielectric constant tensor:
#      x y z
#    x 1.770720 0.000000 0.000000 
#    y 0.000000 1.827160 0.000000 
#    z 0.000000 0.000000 1.687250 
# 
# From -- ./inp_files/23756.got.cif
#   From: 2010.05.17/outbox.cif.g08.bks.cpg/sg67_12_cif.got.tgz:23756.got - 2010.06.03 18:28:57.
