data_PCOD9504469
_publ_section_title
;
Structure prediction by ZEFSAII (Michael W. Deem and Ramdas Pophale) SiO2 
 PCOD9504469
Probable space group: C M M A
;
_chemical_formula_sum "Si O2"
_cell_formula_units_Z 40
_cell_length_a 18.209707
_cell_length_b 15.268906
_cell_length_c 6.783555
_cell_angle_alpha 90.000000
_cell_angle_beta 90.000000
_cell_angle_gamma 90.000000
_cell_volume 1886.115265
_symmetry_space_group_name_H-M "C M M A"
_symmetry_group_IT_number 67
_symmetry_cell_setting 'orthorhombic'
loop_
_space_group_symop_operation_xyz
x,y,z
-x,1/2-y,z
x,-y,-z
-x,1/2+y,-z
-x,-y,-z
x,1/2+y,-z
-x,y,z
x,1/2-y,z
1/2+x,1/2+y,z
1/2-x,-y,z
1/2+x,1/2-y,-z
1/2-x,y,-z
1/2-x,1/2-y,-z
1/2+x,y,-z
1/2-x,1/2+y,z
1/2+x,-y,z
loop_
_atom_site_type_symbol
_atom_site_label
_atom_site_fract_x
_atom_site_fract_y
_atom_site_fract_z
Si Si1 0.410561 0.250000 0.474149
Si Si2 0.000000 0.250000 0.906948
Si Si3 0.000000 0.426562 0.158795
Si Si4 0.346265 0.074934 0.652430
Si Si5 0.750000 0.500000 0.000000
O O1 0.500000 0.250000 0.547111
O O2 0.429424 0.250000 0.240659
O O3 0.360716 0.168146 0.545067
O O4 0.000000 0.165431 0.044509
O O5 0.928801 0.442642 0.284021
O O6 0.000000 0.500000 0.000000
O O7 0.324401 0.000000 0.500000
O O8 0.297578 0.061527 0.850597
#
# Coordination Sequence:
#
# PCOD9504469 Si02
#       5
#     8   4   8  16   4
#     4  10  23  41  74 108 142 180 232 308 354 414
#     4  10  22  40  70 124 136 174 234 306 370 410
#     4  12  20  38  76 102 135 181 236 299 350 418
#     4  12  25  48  70 109 143 188 241 297 363 418
#     4  12  30  44  72  98 152 204 238 286 348 448
#
# _framework density 21.207612000000001
#
# number of rings (size 3 to 8) (size 9 to 14) (size 15 to 20)
#    0.600    0.000    4.000    4.800    0.000    0.800 
#    0.000    4.000    0.000    0.000    0.000    0.000 
#    0.000    0.000    0.000    0.000    0.000    0.000 
#
# Total GULP energy -111373.608908 kJ/mol
# GULP energy per Si atom -5568.680445 kJ/mol
# Density = 2.115934 g / cm^3
# Si number density = 21.207612 Si / 1000 Ang^3
#
#
#
# Elastic Constant Matrix: (Units=GPa)
#
#
# Indices 1 2 3 4 5 6 
#
# 1 134.8006 49.3094 67.3371 0.0000 0.0000 0.0000
# 2 49.3094 156.7607 60.9788 0.0000 0.0000 0.0000
# 3 67.3371 60.9788 142.7947 0.0000 0.0000 0.0000
# 4 0.0000 0.0000 0.0000 -144.5288 0.0000 0.0000
# 5 0.0000 0.0000 0.0000 0.0000 64.0829 0.0000
# 6 0.0000 0.0000 0.0000 0.0000 0.0000 -76.4278
#
#
#
# Elastic Compliance Matrix: (Units=1/GPa)
#
#
# Indices 1 2 3 4 5 6 
#
# 1 0.010019 -0.001575 -0.004052 0.000000 0.000000 0.000000
# 2 -0.001575 0.007898 -0.002630 0.000000 0.000000 0.000000
# 3 -0.004052 -0.002630 0.010037 0.000000 0.000000 0.000000
# 4 0.000000 0.000000 0.000000 -0.006919 0.000000 0.000000
# 5 0.000000 0.000000 0.000000 0.000000 0.015605 0.000000
# 6 0.000000 0.000000 0.000000 0.000000 0.000000 -0.013084
#
#
# Mechanical properties :
#
#
# Convention : Reuss Voigt Hill
#
# Bulk Modulus (GPa) = 87.41690 87.73406 87.57548
# Shear Modulus (GPa) = 113.94471 -14.25937 49.84267
#
# Velocity S-wave (km/s) = 7.33791 -2.59582 4.85317
# Velocity P-wave (km/s) = 10.63495 5.69864 8.53161
#
# Compressibility (1/GPa) = 0.01143944
#
# Stress axis : x y z
#
# Youngs Moduli (GPa) = 99.81488 126.62075 99.63428
#
# Poissons Ratio (x) = 0.19946 0.40369
# Poissons Ratio (y) = 0.15724 0.26201
# Poissons Ratio (z) = 0.40442 0.33298
#
# Static dielectric constant tensor:
#      x y z
#    x 1.795570 0.000000 0.000000 
#    y 0.000000 1.728980 0.000000 
#    z 0.000000 0.000000 1.824960 
# 
# From -- ./inp_files/2462.got.cif
#   From: 2010.05.17/outbox.cif.g08.bks.cpg/sg67_2_cif.got.tgz:2462.got - 2010.06.03 18:28:57.
