data_PCOD9504513
_publ_section_title
;
Structure prediction by ZEFSAII (Michael W. Deem and Ramdas Pophale) SiO2 
 PCOD9504513
Probable space group: C M M A
;
_chemical_formula_sum "Si O2"
_cell_formula_units_Z 68
_cell_length_a 7.654951
_cell_length_b 20.071580
_cell_length_c 20.593875
_cell_angle_alpha 90.000000
_cell_angle_beta 90.000000
_cell_angle_gamma 90.000000
_cell_volume 3164.186317
_symmetry_space_group_name_H-M "C M M A"
_symmetry_group_IT_number 67
_symmetry_cell_setting 'orthorhombic'
loop_
_space_group_symop_operation_xyz
x,y,z
-x,1/2-y,z
x,-y,-z
-x,1/2+y,-z
-x,-y,-z
x,1/2+y,-z
-x,y,z
x,1/2-y,z
1/2+x,1/2+y,z
1/2-x,-y,z
1/2+x,1/2-y,-z
1/2-x,y,-z
1/2-x,1/2-y,-z
1/2+x,y,-z
1/2-x,1/2+y,z
1/2+x,-y,z
loop_
_atom_site_type_symbol
_atom_site_label
_atom_site_fract_x
_atom_site_fract_y
_atom_site_fract_z
Si Si1 0.789511 0.129927 0.930836
Si Si2 0.704463 0.923864 0.424260
Si Si3 0.000000 0.750000 0.929002
Si Si4 0.708056 0.074287 0.207193
Si Si5 0.794984 0.675351 0.312913
O O1 0.656766 0.192347 0.929305
O O2 0.744226 0.086996 0.867387
O O3 0.000000 0.147363 0.928011
O O4 0.750000 0.096133 0.000000
O O5 0.500000 0.916504 0.417083
O O6 0.750000 0.915423 0.500000
O O7 0.785229 0.868438 0.377983
O O8 0.750000 0.000000 0.405932
O O9 0.500000 0.079829 0.210136
O O10 0.783225 0.130894 0.254763
O O11 0.750000 0.000000 0.229256
O O12 0.720809 0.750000 0.318777
O O13 0.000000 0.682947 0.298565
#
# Coordination Sequence:
#
# PCOD9504513 Si02
#       5
#    16  16   4  16  16
#     4  11  24  41  63  98 128 169 216 267 321 389
#     4  11  22  39  64  94 125 165 210 255 305 371
#     4  12  24  40  66  96 132 170 206 264 338 380
#     4  10  24  43  65  90 125 166 210 262 319 381
#     4  10  22  42  64  92 127 166 205 259 318 370
#
# _framework density 21.490518000000002
#
# number of rings (size 3 to 8) (size 9 to 14) (size 15 to 20)
#    0.000    1.412    1.176    4.235    3.294    4.235 
#    0.000    2.353    0.000    0.000    0.000    0.000 
#    0.000    0.000    0.000    0.000    0.000    0.000 
#
# Total GULP energy -189289.418088 kJ/mol
# GULP energy per Si atom -5567.335826 kJ/mol
# Density = 2.144161 g / cm^3
# Si number density = 21.490518 Si / 1000 Ang^3
#
#
#
# Elastic Constant Matrix: (Units=GPa)
#
#
# Indices 1 2 3 4 5 6 
#
# 1 95.4923 7.8851 -0.3824 0.0000 0.0000 0.0000
# 2 7.8851 171.8024 96.8765 0.0000 0.0000 0.0000
# 3 -0.3824 96.8765 126.5369 0.0000 0.0000 0.0000
# 4 0.0000 0.0000 0.0000 -8.0292 0.0000 0.0000
# 5 0.0000 0.0000 0.0000 0.0000 -205.0685 0.0000
# 6 0.0000 0.0000 0.0000 0.0000 0.0000 29.1665
#
#
#
# Elastic Compliance Matrix: (Units=1/GPa)
#
#
# Indices 1 2 3 4 5 6 
#
# 1 0.010548 -0.000883 0.000708 0.000000 0.000000 0.000000
# 2 -0.000883 0.010316 -0.007901 0.000000 0.000000 0.000000
# 3 0.000708 -0.007901 0.013954 0.000000 0.000000 0.000000
# 4 0.000000 0.000000 0.000000 -0.124545 0.000000 0.000000
# 5 0.000000 0.000000 0.000000 0.000000 -0.004876 0.000000
# 6 0.000000 0.000000 0.000000 0.000000 0.000000 0.034286
#
#
# Mechanical properties :
#
#
# Convention : Reuss Voigt Hill
#
# Bulk Modulus (GPa) = 53.57364 66.95445 60.26405
# Shear Modulus (GPa) = -131.77487 -17.48941 -74.63214
#
# Velocity S-wave (km/s) = -7.83906 -2.85585 -5.89943
# Velocity P-wave (km/s) = 7.54661 4.51093 4.27801
#
# Compressibility (1/GPa) = 0.01866589
#
# Stress axis : x y z
#
# Youngs Moduli (GPa) = 94.80622 96.93349 71.66475
#
# Poissons Ratio (x) = 0.08564 -0.05076
# Poissons Ratio (y) = 0.08376 0.56621
# Poissons Ratio (z) = -0.06715 0.76586
#
# Static dielectric constant tensor:
#      x y z
#    x 1.793270 0.000000 0.000000 
#    y 0.000000 1.770690 0.000000 
#    z 0.000000 0.000000 1.763280 
# 
# From -- ./inp_files/31953.got.cif
#   From: 2010.05.17/outbox.cif.g08.bks.cpg/sg67_16_cif.got.tgz:31953.got - 2010.06.03 18:28:57.
