data_PCOD9504790
_publ_section_title
;
Structure prediction by ZEFSAII (Michael W. Deem and Ramdas Pophale) SiO2 
 PCOD9504790
Probable space group: C M M A
;
_chemical_formula_sum "Si O2"
_cell_formula_units_Z 112
_cell_length_a 16.478356
_cell_length_b 28.770374
_cell_length_c 11.574810
_cell_angle_alpha 90.000000
_cell_angle_beta 90.000000
_cell_angle_gamma 90.000000
_cell_volume 5487.483906
_symmetry_space_group_name_H-M "C M M A"
_symmetry_group_IT_number 67
_symmetry_cell_setting 'orthorhombic'
loop_
_space_group_symop_operation_xyz
x,y,z
-x,1/2-y,z
x,-y,-z
-x,1/2+y,-z
-x,-y,-z
x,1/2+y,-z
-x,y,z
x,1/2-y,z
1/2+x,1/2+y,z
1/2-x,-y,z
1/2+x,1/2-y,-z
1/2-x,y,-z
1/2-x,1/2-y,-z
1/2+x,y,-z
1/2-x,1/2+y,z
1/2+x,-y,z
loop_
_atom_site_type_symbol
_atom_site_label
_atom_site_fract_x
_atom_site_fract_y
_atom_site_fract_z
Si Si1 0.090838 0.415263 0.691971
Si Si2 0.158713 0.513336 0.671992
Si Si3 0.409724 0.444550 0.882774
Si Si4 0.657293 0.608333 0.459844
Si Si5 0.406896 0.155753 0.754177
Si Si6 0.331903 0.603644 0.923716
Si Si7 0.901730 0.698442 0.985765
O O1 0.102485 0.468861 0.655134
O O2 0.105327 0.386131 0.575787
O O3 0.160645 0.405616 0.787602
O O4 0.000000 0.407234 0.738410
O O5 0.250000 0.500000 0.640787
O O6 0.152561 0.526210 0.807473
O O7 0.134972 0.559078 0.600755
O O8 0.500000 0.463760 0.868532
O O9 0.408063 0.393110 0.824913
O O10 0.388780 0.434785 0.014700
O O11 0.750000 0.606107 0.500000
O O12 0.642705 0.646738 0.361608
O O13 0.500000 0.166643 0.723377
O O14 0.377067 0.191452 0.851245
O O15 0.250000 0.599956 0.000000
O O16 0.364364 0.655813 0.944174
O O17 0.879393 0.750000 0.025820
O O18 0.000000 0.694094 0.988478
#
# Coordination Sequence:
#
# PCOD9504790 Si02
#       7
#    16  16  16  16  16  16  16
#     4  12  25  37  55  84 117 157 201 244 296 353
#     4  11  21  36  55  80 111 149 201 251 292 340
#     4   9  18  35  56  75 105 146 189 238 290 338
#     4  11  22  35  57  79 116 157 195 245 293 339
#     4   8  16  32  56  83 109 142 189 234 281 340
#     4  11  23  38  58  84 118 152 190 238 295 358
#     4   9  18  36  65  93 116 146 186 234 286 352
#
# _framework density 20.410081999999999
#
# number of rings (size 3 to 8) (size 9 to 14) (size 15 to 20)
#    0.000    1.857    1.429    4.286    4.000    3.143 
#    0.000    2.857    0.000    1.286    0.000    2.000 
#    0.000    0.000    0.000    0.000    0.000    0.000 
#
# Total GULP energy -312593.551035 kJ/mol
# GULP energy per Si atom -5582.027697 kJ/mol
# Density = 2.036363 g / cm^3
# Si number density = 20.410082 Si / 1000 Ang^3
#
#
#
# Elastic Constant Matrix: (Units=GPa)
#
#
# Indices 1 2 3 4 5 6 
#
# 1 50.8241 8.4870 7.9003 0.0000 0.0000 0.0000
# 2 8.4870 32.1733 3.5502 0.0000 0.0000 0.0000
# 3 7.9003 3.5502 86.1355 0.0000 0.0000 0.0000
# 4 0.0000 0.0000 0.0000 18.9681 0.0000 0.0000
# 5 0.0000 0.0000 0.0000 0.0000 21.5651 0.0000
# 6 0.0000 0.0000 0.0000 0.0000 0.0000 15.3869
#
#
#
# Elastic Compliance Matrix: (Units=1/GPa)
#
#
# Indices 1 2 3 4 5 6 
#
# 1 0.020825 -0.005307 -0.001691 0.000000 0.000000 0.000000
# 2 -0.005307 0.032576 -0.000856 0.000000 0.000000 0.000000
# 3 -0.001691 -0.000856 0.011800 0.000000 0.000000 0.000000
# 4 0.000000 0.000000 0.000000 0.052720 0.000000 0.000000
# 5 0.000000 0.000000 0.000000 0.000000 0.046371 0.000000
# 6 0.000000 0.000000 0.000000 0.000000 0.000000 0.064990
#
#
# Mechanical properties :
#
#
# Convention : Reuss Voigt Hill
#
# Bulk Modulus (GPa) = 20.20496 23.22310 21.71403
# Shear Modulus (GPa) = 19.12134 21.13038 20.12586
#
# Velocity S-wave (km/s) = 3.06413 3.22108 3.14359
# Velocity P-wave (km/s) = 4.73704 5.02362 4.88243
#
# Compressibility (1/GPa) = 0.04949280
#
# Stress axis : x y z
#
# Youngs Moduli (GPa) = 48.01977 30.69751 84.74563
#
# Poissons Ratio (x) = 0.16290 0.14333
# Poissons Ratio (y) = 0.25483 0.07254
# Poissons Ratio (z) = 0.08122 0.02628
#
# Static dielectric constant tensor:
#      x y z
#    x 1.769690 0.000000 0.000000 
#    y 0.000000 1.714210 0.000000 
#    z 0.000000 0.000000 1.756560 
# 
# From -- ./inp_files/18613.got.cif
#   From: 2010.05.17/outbox.cif.g08.bks.cpg/sg67_10_cif.got.tgz:18613.got - 2010.06.03 18:28:57.
