data_PCOD9504134
_publ_section_title
;
Structure prediction by ZEFSAII (Michael W. Deem and Ramdas Pophale) SiO2 
 PCOD9504134
Probable space group: C M M A
;
_chemical_formula_sum "Si O2"
_cell_formula_units_Z 96
_cell_length_a 15.157375
_cell_length_b 16.141285
_cell_length_c 21.103052
_cell_angle_alpha 90.000000
_cell_angle_beta 90.000000
_cell_angle_gamma 90.000000
_cell_volume 5163.062356
_symmetry_space_group_name_H-M "C M M A"
_symmetry_group_IT_number 67
_symmetry_cell_setting 'orthorhombic'
loop_
_space_group_symop_operation_xyz
x,y,z
-x,1/2-y,z
x,-y,-z
-x,1/2+y,-z
-x,-y,-z
x,1/2+y,-z
-x,y,z
x,1/2-y,z
1/2+x,1/2+y,z
1/2-x,-y,z
1/2+x,1/2-y,-z
1/2-x,y,-z
1/2-x,1/2-y,-z
1/2+x,y,-z
1/2-x,1/2+y,z
1/2+x,-y,z
loop_
_atom_site_type_symbol
_atom_site_label
_atom_site_fract_x
_atom_site_fract_y
_atom_site_fract_z
Si Si1 0.856095 0.250000 0.927233
Si Si2 0.399896 0.597940 0.500000
Si Si3 0.898142 0.903943 0.838173
Si Si4 0.398142 0.096057 0.161827
Si Si5 0.750000 0.598562 0.263539
Si Si6 0.143905 0.250000 0.072767
Si Si7 0.250000 0.345975 0.593487
O O1 0.885655 0.333826 0.891491
O O2 0.750000 0.250000 0.926255
O O3 0.886236 0.250000 1.000000
O O4 0.408882 0.500000 0.500000
O O5 0.500000 0.633683 0.500000
O O6 0.338377 0.619620 0.439810
O O7 0.338377 0.619620 0.560190
O O8 0.834401 0.881788 0.779985
O O9 0.885655 0.833826 0.891491
O O10 0.000000 0.903091 0.818574
O O11 0.876958 0.000000 0.857913
O O12 0.500000 0.096909 0.181426
O O13 0.334401 0.118212 0.220015
O O14 0.750000 0.500000 0.274451
O O15 0.750000 0.639676 0.331720
O O16 0.250000 0.250000 0.579094
#
# Coordination Sequence:
#
# PCOD9504134 Si02
#       7
#     8  16  16  16  16   8  16
#     4  11  23  39  63  90 121 159 198 246 303 363
#     4  10  21  40  63  85 116 158 201 241 284 343
#     4  10  22  40  62  87 118 158 202 250 302 356
#     4  10  22  40  62  87 118 158 202 250 302 356
#     4  10  21  39  60  85 119 155 198 243 291 353
#     4  11  23  39  63  90 121 159 198 246 303 363
#     4  11  23  36  59  90 121 155 190 241 300 346
#
# _framework density 18.593616999999998
#
# number of rings (size 3 to 8) (size 9 to 14) (size 15 to 20)
#    0.000    1.667    1.667    3.500    2.333    4.667 
#    0.000    6.667    0.000    0.000    0.000    0.000 
#    0.000    0.000    0.000    0.000    0.000    0.000 
#
# Total GULP energy -267802.675328 kJ/mol
# GULP energy per Si atom -5579.222403 kJ/mol
# Density = 1.855130 g / cm^3
# Si number density = 18.593617 Si / 1000 Ang^3
#
#
#
# Elastic Constant Matrix: (Units=GPa)
#
#
# Indices 1 2 3 4 5 6 
#
# 1 155.2751 47.6546 68.2114 0.0000 0.0000 0.0000
# 2 47.6546 102.9304 69.9816 0.0000 0.0000 0.0000
# 3 68.2114 69.9816 145.7212 0.0000 0.0000 0.0000
# 4 0.0000 0.0000 0.0000 33.7048 0.0000 0.0000
# 5 0.0000 0.0000 0.0000 0.0000 -20.5104 0.0000
# 6 0.0000 0.0000 0.0000 0.0000 0.0000 41.5550
#
#
#
# Elastic Compliance Matrix: (Units=1/GPa)
#
#
# Indices 1 2 3 4 5 6 
#
# 1 0.008323 -0.001789 -0.003037 0.000000 0.000000 0.000000
# 2 -0.001789 0.014810 -0.006275 0.000000 0.000000 0.000000
# 3 -0.003037 -0.006275 0.011298 0.000000 0.000000 0.000000
# 4 0.000000 0.000000 0.000000 0.029669 0.000000 0.000000
# 5 0.000000 0.000000 0.000000 0.000000 -0.048756 0.000000
# 6 0.000000 0.000000 0.000000 0.000000 0.000000 0.024064
#
#
# Mechanical properties :
#
#
# Convention : Reuss Voigt Hill
#
# Bulk Modulus (GPa) = 81.77194 86.18020 83.97607
# Shear Modulus (GPa) = 76.11881 25.48848 50.80365
#
# Velocity S-wave (km/s) = 6.40523 3.70647 5.23283
# Velocity P-wave (km/s) = 9.93864 8.04781 9.04278
#
# Compressibility (1/GPa) = 0.01222913
#
# Stress axis : x y z
#
# Youngs Moduli (GPa) = 120.14455 67.52316 88.51400
#
# Poissons Ratio (x) = 0.12077 0.26883
# Poissons Ratio (y) = 0.21489 0.55543
# Poissons Ratio (z) = 0.36490 0.42371
#
# Static dielectric constant tensor:
#      x y z
#    x 1.686160 0.000000 0.000000 
#    y 0.000000 1.651630 0.000000 
#    z 0.000000 0.000000 1.612990 
# 
# From -- ./inp_files/38445.got.cif
#   From: 2010.05.17/outbox.cif.g08.bks.cpg/sg67_20_cif.got.tgz:38445.got - 2010.06.03 18:28:57.
