data_PCOD9504159
_publ_section_title
;
Structure prediction by ZEFSAII (Michael W. Deem and Ramdas Pophale) SiO2 
 PCOD9504159
Probable space group: C M M A
;
_chemical_formula_sum "Si O2"
_cell_formula_units_Z 80
_cell_length_a 15.907592
_cell_length_b 9.245766
_cell_length_c 26.652175
_cell_angle_alpha 90.000000
_cell_angle_beta 90.000000
_cell_angle_gamma 90.000000
_cell_volume 3919.945217
_symmetry_space_group_name_H-M "C M M A"
_symmetry_group_IT_number 67
_symmetry_cell_setting 'orthorhombic'
loop_
_space_group_symop_operation_xyz
x,y,z
-x,1/2-y,z
x,-y,-z
-x,1/2+y,-z
-x,-y,-z
x,1/2+y,-z
-x,y,z
x,1/2-y,z
1/2+x,1/2+y,z
1/2-x,-y,z
1/2+x,1/2-y,-z
1/2-x,y,-z
1/2-x,1/2-y,-z
1/2+x,y,-z
1/2-x,1/2+y,z
1/2+x,-y,z
loop_
_atom_site_type_symbol
_atom_site_label
_atom_site_fract_x
_atom_site_fract_y
_atom_site_fract_z
Si Si1 0.602423 0.917719 0.148188
Si Si2 0.102984 0.415607 0.950262
Si Si3 0.338841 0.922857 0.641884
Si Si4 0.099102 0.086833 0.452703
Si Si5 0.398600 0.917007 0.260500
O O1 0.500000 0.924530 0.148271
O O2 0.624769 0.750000 0.140468
O O3 0.629725 0.960075 0.204365
O O4 0.631993 0.012042 0.101533
O O5 0.129055 0.250000 0.952916
O O6 0.000000 0.419380 0.949877
O O7 0.130094 0.500000 0.000000
O O8 0.335737 0.750000 0.638947
O O9 0.250000 0.000000 0.634365
O O10 0.393035 0.992145 0.597319
O O11 0.369880 0.976359 0.696161
O O12 0.134263 0.250000 0.446759
O O13 0.000000 0.103295 0.462480
O O14 0.136514 0.000000 0.500000
O O15 0.500000 0.914784 0.260288
O O16 0.371068 0.750000 0.270270
#
# Coordination Sequence:
#
# PCOD9504159 Si02
#       5
#    16  16  16  16  16
#     4   8  14  25  41  61  87 121 160 201 248 303
#     4   9  15  21  31  50  80 118 158 200 247 300
#     4  12  25  39  56  79 109 143 180 220 263 311
#     4  10  21  39  63  89 116 144 176 214 256 305
#     4   9  18  34  55  77 103 136 173 215 264 316
#
# _framework density 20.408449000000001
#
# number of rings (size 3 to 8) (size 9 to 14) (size 15 to 20)
#    0.000    2.400    0.000    4.800    0.000    7.600 
#    0.000    4.000    0.000    0.000    0.000    0.000 
#    0.000    0.800    0.000    8.400    0.000   11.600 
#
# Total GULP energy -223221.093284 kJ/mol
# GULP energy per Si atom -5580.527332 kJ/mol
# Density = 2.036200 g / cm^3
# Si number density = 20.408449 Si / 1000 Ang^3
#
#
#
# Elastic Constant Matrix: (Units=GPa)
#
#
# Indices 1 2 3 4 5 6 
#
# 1 12.1673 9.9623 -0.6395 0.0000 0.0000 0.0000
# 2 9.9623 186.8257 117.7078 0.0000 0.0000 0.0000
# 3 -0.6395 117.7078 159.9679 0.0000 0.0000 0.0000
# 4 0.0000 0.0000 0.0000 29.3083 0.0000 0.0000
# 5 0.0000 0.0000 0.0000 0.0000 -121.0598 0.0000
# 6 0.0000 0.0000 0.0000 0.0000 0.0000 -345.8695
#
#
#
# Elastic Compliance Matrix: (Units=1/GPa)
#
#
# Indices 1 2 3 4 5 6 
#
# 1 0.090264 -0.009397 0.007275 0.000000 0.000000 0.000000
# 2 -0.009397 0.010957 -0.008100 0.000000 0.000000 0.000000
# 3 0.007275 -0.008100 0.012240 0.000000 0.000000 0.000000
# 4 0.000000 0.000000 0.000000 0.034120 0.000000 0.000000
# 5 0.000000 0.000000 0.000000 0.000000 -0.008260 0.000000
# 6 0.000000 0.000000 0.000000 0.000000 0.000000 -0.002891
#
#
# Mechanical properties :
#
#
# Convention : Reuss Voigt Hill
#
# Bulk Modulus (GPa) = 10.75060 68.11357 39.43208
# Shear Modulus (GPa) = 26.61290 -72.06218 -22.72464
#
# Velocity S-wave (km/s) = 3.61503 -5.94867 -3.34052
# Velocity P-wave (km/s) = 4.76485 3.70601 2.11769
#
# Compressibility (1/GPa) = 0.09301810
#
# Stress axis : x y z
#
# Youngs Moduli (GPa) = 11.07863 91.26626 81.69645
#
# Poissons Ratio (x) = 0.85763 -0.59437
# Poissons Ratio (y) = 0.10411 0.66174
# Poissons Ratio (z) = -0.08060 0.73925
#
# Static dielectric constant tensor:
#      x y z
#    x 1.780060 0.000000 0.000000 
#    y 0.000000 1.701460 0.000000 
#    z 0.000000 0.000000 1.737900 
# 
# From -- ./inp_files/44429.got.cif
#   From: 2010.05.17/outbox.cif.g08.bks.cpg/sg67_23_cif.got.tgz:44429.got - 2010.06.03 18:28:57.
