data_PCOD9504706
_publ_section_title
;
Structure prediction by ZEFSAII (Michael W. Deem and Ramdas Pophale) SiO2 
 PCOD9504706
Probable space group: C M M A
;
_chemical_formula_sum "Si O2"
_cell_formula_units_Z 64
_cell_length_a 14.662315
_cell_length_b 17.171828
_cell_length_c 12.226892
_cell_angle_alpha 90.000000
_cell_angle_beta 90.000000
_cell_angle_gamma 90.000000
_cell_volume 3078.471600
_symmetry_space_group_name_H-M "C M M A"
_symmetry_group_IT_number 67
_symmetry_cell_setting 'orthorhombic'
loop_
_space_group_symop_operation_xyz
x,y,z
-x,1/2-y,z
x,-y,-z
-x,1/2+y,-z
-x,-y,-z
x,1/2+y,-z
-x,y,z
x,1/2-y,z
1/2+x,1/2+y,z
1/2-x,-y,z
1/2+x,1/2-y,-z
1/2-x,y,-z
1/2-x,1/2-y,-z
1/2+x,y,-z
1/2-x,1/2+y,z
1/2+x,-y,z
loop_
_atom_site_type_symbol
_atom_site_label
_atom_site_fract_x
_atom_site_fract_y
_atom_site_fract_z
Si Si1 0.500000 0.882387 0.570008
Si Si2 0.500000 0.750000 0.146079
Si Si3 0.888838 0.575135 0.077920
Si Si4 0.354973 0.013266 0.322340
Si Si5 0.000000 0.120095 0.326358
Si Si6 0.634656 0.750000 0.947705
Si Si7 0.000000 0.250000 0.748252
O O1 0.410425 0.934639 0.590779
O O2 0.500000 0.847099 0.449399
O O3 0.500000 0.822168 0.668153
O O4 0.500000 0.677671 0.226173
O O5 0.583780 0.750000 0.063587
O O6 0.865734 0.551288 0.202046
O O7 0.837738 0.657184 0.053640
O O8 0.000000 0.589499 0.068993
O O9 0.869012 0.500000 0.000000
O O10 0.250000 0.000000 0.348754
O O11 0.411110 0.933543 0.316685
O O12 0.583424 0.750000 0.831397
#
# Coordination Sequence:
#
# PCOD9504706 Si02
#       7
#     8   4  16  16   8   8   4
#     4  11  22  40  64  91 123 166 216 267 323 389
#     4  11  21  38  62  96 117 173 206 262 336 379
#     4  11  19  34  62  96 124 168 208 259 318 385
#     4  11  22  39  63  92 127 164 216 266 318 392
#     4  11  24  41  60  88 129 164 214 267 326 385
#     4  11  18  34  65  93 125 163 214 260 322 399
#     4  11  17  36  64  96 113 161 216 260 316 389
#
# _framework density 20.789536999999999
#
# number of rings (size 3 to 8) (size 9 to 14) (size 15 to 20)
#    0.000    1.000    7.500    3.375    0.000    2.500 
#    0.000    2.500    0.000    6.000    0.000    0.000 
#    0.000    0.000    0.000    0.000    0.000    0.000 
#
# Total GULP energy -178386.616831 kJ/mol
# GULP energy per Si atom -5574.581776 kJ/mol
# Density = 2.074222 g / cm^3
# Si number density = 20.789537 Si / 1000 Ang^3
#
#
#
# Elastic Constant Matrix: (Units=GPa)
#
#
# Indices 1 2 3 4 5 6 
#
# 1 127.0619 32.2732 26.1640 0.0000 0.0000 0.0000
# 2 32.2732 136.0633 57.4389 0.0000 0.0000 0.0000
# 3 26.1640 57.4389 167.3820 0.0000 0.0000 0.0000
# 4 0.0000 0.0000 0.0000 60.4887 0.0000 0.0000
# 5 0.0000 0.0000 0.0000 0.0000 55.7794 0.0000
# 6 0.0000 0.0000 0.0000 0.0000 0.0000 -35.2841
#
#
#
# Elastic Compliance Matrix: (Units=1/GPa)
#
#
# Indices 1 2 3 4 5 6 
#
# 1 0.008452 -0.001692 -0.000741 0.000000 0.000000 0.000000
# 2 -0.001692 0.008933 -0.002801 0.000000 0.000000 0.000000
# 3 -0.000741 -0.002801 0.007051 0.000000 0.000000 0.000000
# 4 0.000000 0.000000 0.000000 0.016532 0.000000 0.000000
# 5 0.000000 0.000000 0.000000 0.000000 0.017928 0.000000
# 6 0.000000 0.000000 0.000000 0.000000 0.000000 -0.028341
#
#
# Mechanical properties :
#
#
# Convention : Reuss Voigt Hill
#
# Bulk Modulus (GPa) = 71.58445 73.58437 72.58441
# Shear Modulus (GPa) = 109.45762 37.17221 73.31491
#
# Velocity S-wave (km/s) = 7.26393 4.23309 5.94490
# Velocity P-wave (km/s) = 10.24014 7.70479 9.06158
#
# Compressibility (1/GPa) = 0.01396952
#
# Stress axis : x y z
#
# Youngs Moduli (GPa) = 118.30833 111.93980 141.81738
#
# Poissons Ratio (x) = 0.18943 0.10502
# Poissons Ratio (y) = 0.20021 0.39724
# Poissons Ratio (z) = 0.08761 0.31355
#
# Static dielectric constant tensor:
#      x y z
#    x 1.760760 0.000000 0.000000 
#    y 0.000000 1.813450 0.000000 
#    z 0.000000 0.000000 1.699470 
# 
# From -- ./inp_files/17608.got.cif
#   From: 2010.05.17/outbox.cif.g08.bks.cpg/sg67_9_cif.got.tgz:17608.got - 2010.06.03 18:28:57.
