data_PCOD9504672
_publ_section_title
;
Structure prediction by ZEFSAII (Michael W. Deem and Ramdas Pophale) SiO2 
 PCOD9504672
Probable space group: C M M A
;
_chemical_formula_sum "Si O2"
_cell_formula_units_Z 96
_cell_length_a 21.284825
_cell_length_b 24.299364
_cell_length_c 8.611423
_cell_angle_alpha 90.000000
_cell_angle_beta 90.000000
_cell_angle_gamma 90.000000
_cell_volume 4453.894373
_symmetry_space_group_name_H-M "C M M A"
_symmetry_group_IT_number 67
_symmetry_cell_setting 'orthorhombic'
loop_
_space_group_symop_operation_xyz
x,y,z
-x,1/2-y,z
x,-y,-z
-x,1/2+y,-z
-x,-y,-z
x,1/2+y,-z
-x,y,z
x,1/2-y,z
1/2+x,1/2+y,z
1/2-x,-y,z
1/2+x,1/2-y,-z
1/2-x,y,-z
1/2-x,1/2-y,-z
1/2+x,y,-z
1/2-x,1/2+y,z
1/2+x,-y,z
loop_
_atom_site_type_symbol
_atom_site_label
_atom_site_fract_x
_atom_site_fract_y
_atom_site_fract_z
Si Si1 0.692035 0.691259 0.615145
Si Si2 0.395209 0.309778 0.675288
Si Si3 0.316620 0.131037 0.922691
Si Si4 0.131158 0.594165 0.222930
Si Si5 0.431760 0.580234 0.458967
Si Si6 0.817846 0.022813 0.283250
O O1 0.694775 0.750000 0.703366
O O2 0.750000 0.688156 0.500000
O O3 0.634410 0.694540 0.496144
O O4 0.684234 0.634352 0.703394
O O5 0.423460 0.250000 0.712408
O O6 0.341276 0.324250 0.800284
O O7 0.432832 0.365902 0.651377
O O8 0.306980 0.072903 0.834991
O O9 0.250000 0.146210 0.000000
O O10 0.371287 0.120328 0.051639
O O11 0.078207 0.593949 0.357639
O O12 0.151175 0.531007 0.206812
O O13 0.500000 0.553565 0.436712
O O14 0.368932 0.547543 0.405074
O O15 0.750000 0.000000 0.337696
#
# Coordination Sequence:
#
# PCOD9504672 Si02
#       6
#    16  16  16  16  16  16
#     4   9  18  33  52  81 120 156 201 259 316 373
#     4   9  20  38  62  90 122 167 216 261 320 388
#     4  11  21  36  56  92 136 171 207 258 324 391
#     4  11  22  33  59  88 122 167 206 263 322 382
#     4  10  24  44  64  91 125 165 221 277 328 383
#     4  11  23  39  61  91 127 169 218 267 319 396
#
# _framework density 21.554172000000001
#
# number of rings (size 3 to 8) (size 9 to 14) (size 15 to 20)
#    0.000    1.833    1.667    2.000    4.667    3.333 
#    0.000    3.333    0.000    5.000    0.000    0.000 
#    0.000    0.000    0.000    0.000    0.000    0.000 
#
# Total GULP energy -267213.201029 kJ/mol
# GULP energy per Si atom -5566.941688 kJ/mol
# Density = 2.150511 g / cm^3
# Si number density = 21.554172 Si / 1000 Ang^3
#
#
#
# Elastic Constant Matrix: (Units=GPa)
#
#
# Indices 1 2 3 4 5 6 
#
# 1 103.8861 21.9517 14.7651 0.0000 0.0000 0.0000
# 2 21.9517 138.9757 14.9470 0.0000 0.0000 0.0000
# 3 14.7651 14.9470 72.6122 0.0000 0.0000 0.0000
# 4 0.0000 0.0000 0.0000 -538.2086 0.0000 0.0000
# 5 0.0000 0.0000 0.0000 0.0000 8.6084 0.0000
# 6 0.0000 0.0000 0.0000 0.0000 0.0000 -6.0898
#
#
#
# Elastic Compliance Matrix: (Units=1/GPa)
#
#
# Indices 1 2 3 4 5 6 
#
# 1 0.010178 -0.001416 -0.001778 0.000000 0.000000 0.000000
# 2 -0.001416 0.007556 -0.001267 0.000000 0.000000 0.000000
# 3 -0.001778 -0.001267 0.014394 0.000000 0.000000 0.000000
# 4 0.000000 0.000000 0.000000 -0.001858 0.000000 0.000000
# 5 0.000000 0.000000 0.000000 0.000000 0.116166 0.000000
# 6 0.000000 0.000000 0.000000 0.000000 0.000000 -0.164210
#
#
# Mechanical properties :
#
#
# Convention : Reuss Voigt Hill
#
# Bulk Modulus (GPa) = 43.09558 46.53350 44.81454
# Shear Modulus (GPa) = -4477.04948 -89.55064 -2283.30006
#
# Velocity S-wave (km/s) = -45.62482 -6.45267 -32.58267
# Velocity P-wave (km/s) = 52.49249 5.82065 37.34529
#
# Compressibility (1/GPa) = 0.02320424
#
# Stress axis : x y z
#
# Youngs Moduli (GPa) = 98.25180 132.35350 69.47241
#
# Poissons Ratio (x) = 0.18747 0.12352
# Poissons Ratio (y) = 0.13916 0.08804
# Poissons Ratio (z) = 0.17470 0.16773
#
# Static dielectric constant tensor:
#      x y z
#    x 1.840680 0.000000 0.000000 
#    y 0.000000 1.835300 0.000000 
#    z 0.000000 0.000000 1.836150 
# 
# From -- ./inp_files/11468.got.cif
#   From: 2010.05.17/outbox.cif.g08.bks.cpg/sg67_6_cif.got.tgz:11468.got - 2010.06.03 18:28:57.
