data_PCOD9504299
_publ_section_title
;
Structure prediction by ZEFSAII (Michael W. Deem and Ramdas Pophale) SiO2 
 PCOD9504299
Probable space group: C M M A
;
_chemical_formula_sum "Si O2"
_cell_formula_units_Z 60
_cell_length_a 19.598861
_cell_length_b 25.016897
_cell_length_c 5.410650
_cell_angle_alpha 90.000000
_cell_angle_beta 90.000000
_cell_angle_gamma 90.000000
_cell_volume 2652.856233
_symmetry_space_group_name_H-M "C M M A"
_symmetry_group_IT_number 67
_symmetry_cell_setting 'orthorhombic'
loop_
_space_group_symop_operation_xyz
x,y,z
-x,1/2-y,z
x,-y,-z
-x,1/2+y,-z
-x,-y,-z
x,1/2+y,-z
-x,y,z
x,1/2-y,z
1/2+x,1/2+y,z
1/2-x,-y,z
1/2+x,1/2-y,-z
1/2-x,y,-z
1/2-x,1/2-y,-z
1/2+x,y,-z
1/2-x,1/2+y,z
1/2+x,-y,z
loop_
_atom_site_type_symbol
_atom_site_label
_atom_site_fract_x
_atom_site_fract_y
_atom_site_fract_z
Si Si1 0.000000 0.417687 0.151240
Si Si2 0.750000 0.394144 0.000000
Si Si3 0.750000 0.250000 0.500000
Si Si4 0.000000 0.650483 0.343558
Si Si5 0.852859 0.338622 0.654090
Si Si6 0.142832 0.946869 0.656272
O O1 0.000000 0.373102 0.374721
O O2 0.928934 0.448715 0.195862
O O3 0.000000 0.394359 0.874304
O O4 0.807237 0.354623 0.888811
O O5 0.708498 0.432723 0.818717
O O6 0.809131 0.296706 0.502181
O O7 0.929250 0.680988 0.299205
O O8 0.861734 0.395337 0.520044
O O9 0.151050 0.000000 0.500000
#
# Coordination Sequence:
#
# PCOD9504299 Si02
#       6
#     8   8   4   8  16  16
#     4  10  21  44  72 104 147 195 249 311 386 476
#     4  12  22  44  70 102 146 199 253 314 394 474
#     4  12  24  48  70 100 150 192 260 324 388 448
#     4  10  22  45  73 103 149 196 258 316 383 472
#     4  11  25  44  69 104 145 195 257 320 389 465
#     4  11  24  43  69 107 147 194 248 321 395 478
#
# _framework density 22.617132999999999
#
# number of rings (size 3 to 8) (size 9 to 14) (size 15 to 20)
#    0.000    1.067    5.333    0.400    0.000    5.333 
#    0.000    2.667    0.000    1.600    0.000    0.933 
#    0.000    0.000    0.000    0.000    0.000    0.000 
#
# Total GULP energy -167125.213929 kJ/mol
# GULP energy per Si atom -5570.840464 kJ/mol
# Density = 2.256566 g / cm^3
# Si number density = 22.617133 Si / 1000 Ang^3
#
#
#
# Elastic Constant Matrix: (Units=GPa)
#
#
# Indices 1 2 3 4 5 6 
#
# 1 219.7443 21.5632 14.6465 0.0000 0.0000 0.0000
# 2 21.5632 105.6704 3.8362 0.0000 0.0000 0.0000
# 3 14.6465 3.8362 46.4017 0.0000 0.0000 0.0000
# 4 0.0000 0.0000 0.0000 -28.9393 0.0000 0.0000
# 5 0.0000 0.0000 0.0000 0.0000 -14.7409 0.0000
# 6 0.0000 0.0000 0.0000 0.0000 0.0000 -25.2389
#
#
#
# Elastic Compliance Matrix: (Units=1/GPa)
#
#
# Indices 1 2 3 4 5 6 
#
# 1 0.004735 -0.000915 -0.001419 0.000000 0.000000 0.000000
# 2 -0.000915 0.009669 -0.000511 0.000000 0.000000 0.000000
# 3 -0.001419 -0.000511 0.022041 0.000000 0.000000 0.000000
# 4 0.000000 0.000000 0.000000 -0.034555 0.000000 0.000000
# 5 0.000000 0.000000 0.000000 0.000000 -0.067838 0.000000
# 6 0.000000 0.000000 0.000000 0.000000 0.000000 -0.039621
#
#
# Mechanical properties :
#
#
# Convention : Reuss Voigt Hill
#
# Bulk Modulus (GPa) = 32.51391 50.21203 41.36297
# Shear Modulus (GPa) = -55.78528 8.33420 -23.72554
#
# Velocity S-wave (km/s) = -4.97178 1.92169 -3.24235
# Velocity P-wave (km/s) = 4.30710 5.21277 2.07627
#
# Compressibility (1/GPa) = 0.03075606
#
# Stress axis : x y z
#
# Youngs Moduli (GPa) = 211.18952 103.42774 45.36990
#
# Poissons Ratio (x) = 0.09461 0.06438
# Poissons Ratio (y) = 0.19318 0.02317
# Poissons Ratio (z) = 0.29967 0.05281
#
# Static dielectric constant tensor:
#      x y z
#    x 1.930950 0.000000 0.000000 
#    y 0.000000 1.801850 0.000000 
#    z 0.000000 0.000000 1.901850 
# 
# From -- ./inp_files/2891.got.cif
#   From: 2010.05.17/outbox.cif.g08.bks.cpg/sg67_2_cif.got.tgz:2891.got - 2010.06.03 18:28:57.
