data_PCOD9504923
_publ_section_title
;
Structure prediction by ZEFSAII (Michael W. Deem and Ramdas Pophale) SiO2 
 PCOD9504923
Probable space group: C M M A
;
_chemical_formula_sum "Si O2"
_cell_formula_units_Z 64
_cell_length_a 22.125594
_cell_length_b 14.546578
_cell_length_c 8.830910
_cell_angle_alpha 90.000000
_cell_angle_beta 90.000000
_cell_angle_gamma 90.000000
_cell_volume 2842.243210
_symmetry_space_group_name_H-M "C M M A"
_symmetry_group_IT_number 67
_symmetry_cell_setting 'orthorhombic'
loop_
_space_group_symop_operation_xyz
x,y,z
-x,1/2-y,z
x,-y,-z
-x,1/2+y,-z
-x,-y,-z
x,1/2+y,-z
-x,y,z
x,1/2-y,z
1/2+x,1/2+y,z
1/2-x,-y,z
1/2+x,1/2-y,-z
1/2-x,y,-z
1/2-x,1/2-y,-z
1/2+x,y,-z
1/2-x,1/2+y,z
1/2+x,-y,z
loop_
_atom_site_type_symbol
_atom_site_label
_atom_site_fract_x
_atom_site_fract_y
_atom_site_fract_z
Si Si1 0.820628 0.250000 0.471999
Si Si2 0.618421 0.428862 0.372471
Si Si3 0.624217 0.436796 0.859916
Si Si4 0.000000 0.857182 0.203652
Si Si5 0.189213 0.750000 0.896006
Si Si6 0.000000 0.356748 0.161325
O O1 0.750000 0.250000 0.500000
O O2 0.849875 0.340662 0.550256
O O3 0.819758 0.250000 0.288504
O O4 0.599043 0.500000 0.500000
O O5 0.657293 0.495094 0.258779
O O6 0.560627 0.396771 0.276887
O O7 0.657210 0.347433 0.927618
O O8 0.562164 0.400874 0.784969
O O9 0.608133 0.500000 0.000000
O O10 0.000000 0.750000 0.238079
O O11 0.000000 0.866137 0.021766
O O12 0.250000 0.750000 0.000000
O O13 0.000000 0.250000 0.201203
#
# Coordination Sequence:
#
# PCOD9504923 Si02
#       6
#     8  16  16   8   8   8
#     4  12  30  53  74 103 149 194 254 316 377 452
#     4  12  25  47  74 109 149 196 244 307 382 452
#     4  12  25  46  76 111 150 194 250 308 377 452
#     4  11  22  39  73 109 153 199 242 303 381 450
#     4  12  30  53  74 107 143 196 254 316 379 444
#     4  11  22  40  73 110 155 197 242 308 376 444
#
# _framework density 22.517426
#
# number of rings (size 3 to 8) (size 9 to 14) (size 15 to 20)
#    0.000    0.250    7.500    1.500    3.500    1.000 
#    0.000    2.500    0.000    0.000    0.000    0.000 
#    0.000    0.000    0.000    0.000    0.000    0.000 
#
# Total GULP energy -178628.388498 kJ/mol
# GULP energy per Si atom -5582.137141 kJ/mol
# Density = 2.246618 g / cm^3
# Si number density = 22.517426 Si / 1000 Ang^3
#
#
#
# Elastic Constant Matrix: (Units=GPa)
#
#
# Indices 1 2 3 4 5 6 
#
# 1 100.1293 71.9707 17.4839 0.0000 0.0000 0.0000
# 2 71.9707 225.0554 57.4109 0.0000 0.0000 0.0000
# 3 17.4839 57.4109 60.3194 0.0000 0.0000 0.0000
# 4 0.0000 0.0000 0.0000 21.9469 0.0000 0.0000
# 5 0.0000 0.0000 0.0000 0.0000 19.1183 0.0000
# 6 0.0000 0.0000 0.0000 0.0000 0.0000 -18.6777
#
#
#
# Elastic Compliance Matrix: (Units=1/GPa)
#
#
# Indices 1 2 3 4 5 6 
#
# 1 0.012971 -0.004211 0.000249 0.000000 0.000000 0.000000
# 2 -0.004211 0.007235 -0.005666 0.000000 0.000000 0.000000
# 3 0.000249 -0.005666 0.021899 0.000000 0.000000 0.000000
# 4 0.000000 0.000000 0.000000 0.045565 0.000000 0.000000
# 5 0.000000 0.000000 0.000000 0.000000 0.052306 0.000000
# 6 0.000000 0.000000 0.000000 0.000000 0.000000 -0.053540
#
#
# Mechanical properties :
#
#
# Convention : Reuss Voigt Hill
#
# Bulk Modulus (GPa) = 43.76748 75.47058 59.61903
# Shear Modulus (GPa) = 44.12705 20.38672 32.25689
#
# Velocity S-wave (km/s) = 4.43163 3.01221 3.78898
# Velocity P-wave (km/s) = 6.75760 6.75923 6.75842
#
# Compressibility (1/GPa) = 0.02284801
#
# Stress axis : x y z
#
# Youngs Moduli (GPa) = 77.09691 138.20837 45.66414
#
# Poissons Ratio (x) = 0.58204 -0.01135
# Poissons Ratio (y) = 0.32468 0.25873
# Poissons Ratio (z) = -0.01917 0.78307
#
# Static dielectric constant tensor:
#      x y z
#    x 1.839960 0.000000 0.000000 
#    y 0.000000 1.893440 0.000000 
#    z 0.000000 0.000000 1.983120 
# 
# From -- ./inp_files/12115.got.cif
#   From: 2010.05.17/outbox.cif.g08.bks.cpg/sg67_7_cif.got.tgz:12115.got - 2010.06.03 18:28:57.
