data_PCOD9504314
_publ_section_title
;
Structure prediction by ZEFSAII (Michael W. Deem and Ramdas Pophale) SiO2 
 PCOD9504314
Probable space group: C M M A
;
_chemical_formula_sum "Si O2"
_cell_formula_units_Z 80
_cell_length_a 14.709284
_cell_length_b 15.244562
_cell_length_c 15.914447
_cell_angle_alpha 90.000000
_cell_angle_beta 90.000000
_cell_angle_gamma 90.000000
_cell_volume 3568.601357
_symmetry_space_group_name_H-M "C M M A"
_symmetry_group_IT_number 67
_symmetry_cell_setting 'orthorhombic'
loop_
_space_group_symop_operation_xyz
x,y,z
-x,1/2-y,z
x,-y,-z
-x,1/2+y,-z
-x,-y,-z
x,1/2+y,-z
-x,y,z
x,1/2-y,z
1/2+x,1/2+y,z
1/2-x,-y,z
1/2+x,1/2-y,-z
1/2-x,y,-z
1/2-x,1/2-y,-z
1/2+x,y,-z
1/2-x,1/2+y,z
1/2+x,-y,z
loop_
_atom_site_type_symbol
_atom_site_label
_atom_site_fract_x
_atom_site_fract_y
_atom_site_fract_z
Si Si1 0.605104 0.899702 0.977382
Si Si2 0.000000 0.653633 0.423028
Si Si3 0.299121 0.853983 0.808323
Si Si4 0.901691 0.149427 0.167272
Si Si5 0.000000 0.570664 0.579730
Si Si6 0.148012 0.969483 0.340325
O O1 0.500000 0.896612 0.947896
O O2 0.668231 0.864238 0.904003
O O3 0.608920 0.850661 0.066027
O O4 0.628058 0.000000 0.000000
O O5 0.092695 0.604290 0.394104
O O6 0.000000 0.750000 0.385609
O O7 0.000000 0.656032 0.524098
O O8 0.307192 0.750000 0.785864
O O9 0.194103 0.884295 0.799603
O O10 0.352848 0.922091 0.750007
O O11 0.906525 0.250000 0.195711
O O12 0.000000 0.106147 0.183878
O O13 0.000000 0.500000 0.500000
O O14 0.914200 0.553150 0.638355
O O15 0.250000 0.000000 0.362602
#
# Coordination Sequence:
#
# PCOD9504314 Si02
#       6
#    16   8  16  16   8  16
#     4  10  22  36  54  83 115 162 230 284 344 407
#     4  10  22  46  78 110 142 176 222 273 329 409
#     4  11  23  37  59  90 125 174 228 285 347 405
#     4   9  19  37  54  74 112 162 222 286 339 387
#     4   8  20  42  68 102 138 170 206 259 332 401
#     4  10  22  40  64 102 143 177 218 273 338 406
#
# _framework density 22.417745
#
# number of rings (size 3 to 8) (size 9 to 14) (size 15 to 20)
#    0.000    2.400    0.000    1.800    5.600    7.200 
#    3.600    3.000    0.000    0.000    0.000    0.000 
#    0.000    0.000    0.000    0.000    0.000    0.000 
#
# Total GULP energy -222950.928602 kJ/mol
# GULP energy per Si atom -5573.773215 kJ/mol
# Density = 2.236672 g / cm^3
# Si number density = 22.417745 Si / 1000 Ang^3
#
#
#
# Elastic Constant Matrix: (Units=GPa)
#
#
# Indices 1 2 3 4 5 6 
#
# 1 107.3262 7.7017 26.2893 0.0000 0.0000 0.0000
# 2 7.7017 78.9353 4.0828 0.0000 0.0000 0.0000
# 3 26.2893 4.0828 69.8046 0.0000 0.0000 0.0000
# 4 0.0000 0.0000 0.0000 14.9096 0.0000 0.0000
# 5 0.0000 0.0000 0.0000 0.0000 55.2270 0.0000
# 6 0.0000 0.0000 0.0000 0.0000 0.0000 19.4039
#
#
#
# Elastic Compliance Matrix: (Units=1/GPa)
#
#
# Indices 1 2 3 4 5 6 
#
# 1 0.010315 -0.000808 -0.003838 0.000000 0.000000 0.000000
# 2 -0.000808 0.012770 -0.000443 0.000000 0.000000 0.000000
# 3 -0.003838 -0.000443 0.015797 0.000000 0.000000 0.000000
# 4 0.000000 0.000000 0.000000 0.067071 0.000000 0.000000
# 5 0.000000 0.000000 0.000000 0.000000 0.018107 0.000000
# 6 0.000000 0.000000 0.000000 0.000000 0.000000 0.051536
#
#
# Mechanical properties :
#
#
# Convention : Reuss Voigt Hill
#
# Bulk Modulus (GPa) = 34.83581 36.91266 35.87423
# Shear Modulus (GPa) = 25.59613 32.44091 29.01852
#
# Velocity S-wave (km/s) = 3.38269 3.80821 3.60174
# Velocity P-wave (km/s) = 5.55247 5.98650 5.77357
#
# Compressibility (1/GPa) = 0.02870609
#
# Stress axis : x y z
#
# Youngs Moduli (GPa) = 96.94245 78.30652 63.30354
#
# Poissons Ratio (x) = 0.06327 0.24294
# Poissons Ratio (y) = 0.07833 0.02802
# Poissons Ratio (z) = 0.37203 0.03466
#
# Static dielectric constant tensor:
#      x y z
#    x 1.946080 0.000000 0.000000 
#    y 0.000000 1.918670 0.000000 
#    z 0.000000 0.000000 1.839410 
# 
# From -- ./inp_files/33579.got.cif
#   From: 2010.05.17/outbox.cif.g08.bks.cpg/sg67_17_cif.got.tgz:33579.got - 2010.06.03 18:28:57.
