data_PCOD9504586
_publ_section_title
;
Structure prediction by ZEFSAII (Michael W. Deem and Ramdas Pophale) SiO2 
 PCOD9504586
Probable space group: C M M A
;
_chemical_formula_sum "Si O2"
_cell_formula_units_Z 52
_cell_length_a 13.953733
_cell_length_b 28.088672
_cell_length_c 5.430452
_cell_angle_alpha 90.000000
_cell_angle_beta 90.000000
_cell_angle_gamma 90.000000
_cell_volume 2128.421291
_symmetry_space_group_name_H-M "C M M A"
_symmetry_group_IT_number 67
_symmetry_cell_setting 'orthorhombic'
loop_
_space_group_symop_operation_xyz
x,y,z
-x,1/2-y,z
x,-y,-z
-x,1/2+y,-z
-x,-y,-z
x,1/2+y,-z
-x,y,z
x,1/2-y,z
1/2+x,1/2+y,z
1/2-x,-y,z
1/2+x,1/2-y,-z
1/2-x,y,-z
1/2-x,1/2-y,-z
1/2+x,y,-z
1/2-x,1/2+y,z
1/2+x,-y,z
loop_
_atom_site_type_symbol
_atom_site_label
_atom_site_fract_x
_atom_site_fract_y
_atom_site_fract_z
Si Si1 0.606253 0.049138 0.144635
Si Si2 0.884055 0.855194 0.882379
Si Si3 0.250000 0.000000 0.500000
Si Si4 0.116809 0.304961 0.615185
O O1 0.500000 0.062247 0.246279
O O2 0.636667 0.090617 0.958401
O O3 0.682110 0.035588 0.348919
O O4 0.597356 0.000000 0.000000
O O5 0.852422 0.824490 0.118999
O O6 0.000000 0.851670 0.872117
O O7 0.850519 0.836075 0.618918
O O8 0.143562 0.250000 0.582217
O O9 0.000000 0.306712 0.617289
#
# Coordination Sequence:
#
# PCOD9504586 Si02
#       4
#    16  16   4  16
#     4  10  23  41  62  90 129 169 210 263 320 381
#     4   9  18  31  52  82 118 161 203 250 312 371
#     4  12  24  40  64  92 122 164 220 264 318 378
#     4   9  16  28  49  81 119 156 201 255 307 366
#
# _framework density 24.431255
#
# number of rings (size 3 to 8) (size 9 to 14) (size 15 to 20)
#    0.000    2.462    0.000    1.846    4.308    3.692 
#    0.000    0.000    0.000    0.000    0.000    6.462 
#    0.000    0.000    0.000    0.000    0.000    0.308 
#
# Total GULP energy -145552.926837 kJ/mol
# GULP energy per Si atom -5598.189494 kJ/mol
# Density = 2.437565 g / cm^3
# Si number density = 24.431255 Si / 1000 Ang^3
#
#
#
# Elastic Constant Matrix: (Units=GPa)
#
#
# Indices 1 2 3 4 5 6 
#
# 1 119.1616 17.9538 58.6936 0.0000 0.0000 0.0000
# 2 17.9538 174.5305 81.1515 0.0000 0.0000 0.0000
# 3 58.6936 81.1515 169.4478 0.0000 0.0000 0.0000
# 4 0.0000 0.0000 0.0000 40.6878 0.0000 0.0000
# 5 0.0000 0.0000 0.0000 0.0000 37.2114 0.0000
# 6 0.0000 0.0000 0.0000 0.0000 0.0000 58.6445
#
#
#
# Elastic Compliance Matrix: (Units=1/GPa)
#
#
# Indices 1 2 3 4 5 6 
#
# 1 0.010197 0.000763 -0.003898 0.000000 0.000000 0.000000
# 2 0.000763 0.007428 -0.003822 0.000000 0.000000 0.000000
# 3 -0.003898 -0.003822 0.009082 0.000000 0.000000 0.000000
# 4 0.000000 0.000000 0.000000 0.024577 0.000000 0.000000
# 5 0.000000 0.000000 0.000000 0.000000 0.026873 0.000000
# 6 0.000000 0.000000 0.000000 0.000000 0.000000 0.017052
#
#
# Mechanical properties :
#
#
# Convention : Reuss Voigt Hill
#
# Bulk Modulus (GPa) = 78.15781 86.52641 82.34211
# Shear Modulus (GPa) = 44.09691 47.66482 45.88086
#
# Velocity S-wave (km/s) = 4.25307 4.42178 4.33824
# Velocity P-wave (km/s) = 7.49523 7.84619 7.67271
#
# Compressibility (1/GPa) = 0.01279463
#
# Stress axis : x y z
#
# Youngs Moduli (GPa) = 98.07099 134.62210 110.10898
#
# Poissons Ratio (x) = -0.10276 0.42915
# Poissons Ratio (y) = -0.07486 0.42082
# Poissons Ratio (z) = 0.38223 0.51451
#
# Static dielectric constant tensor:
#      x y z
#    x 2.071410 0.000000 0.000000 
#    y 0.000000 1.878320 0.000000 
#    z 0.000000 0.000000 1.894670 
# 
# From -- ./inp_files/1393.got.cif
#   From: 2010.05.17/outbox.cif.g08.bks.cpg/sg67_1_cif.got.tgz:1393.got - 2010.06.03 18:28:57.
