data_PCOD9504574
_publ_section_title
;
Structure prediction by ZEFSAII (Michael W. Deem and Ramdas Pophale) SiO2 
 PCOD9504574
Probable space group: C M M A
;
_chemical_formula_sum "Si O2"
_cell_formula_units_Z 84
_cell_length_a 25.923871
_cell_length_b 14.566691
_cell_length_c 10.493150
_cell_angle_alpha 90.000000
_cell_angle_beta 90.000000
_cell_angle_gamma 90.000000
_cell_volume 3962.475962
_symmetry_space_group_name_H-M "C M M A"
_symmetry_group_IT_number 67
_symmetry_cell_setting 'orthorhombic'
loop_
_space_group_symop_operation_xyz
x,y,z
-x,1/2-y,z
x,-y,-z
-x,1/2+y,-z
-x,-y,-z
x,1/2+y,-z
-x,y,z
x,1/2-y,z
1/2+x,1/2+y,z
1/2-x,-y,z
1/2+x,1/2-y,-z
1/2-x,y,-z
1/2-x,1/2-y,-z
1/2+x,y,-z
1/2-x,1/2+y,z
1/2+x,-y,z
loop_
_atom_site_type_symbol
_atom_site_label
_atom_site_fract_x
_atom_site_fract_y
_atom_site_fract_z
Si Si1 0.000000 0.250000 1.000000
Si Si2 0.637694 0.388979 0.276026
Si Si3 0.250000 0.106268 0.652072
Si Si4 0.905543 0.890429 0.000000
Si Si5 0.137694 0.888979 0.723974
Si Si6 0.939863 0.388114 0.500000
O O1 0.044184 0.329840 1.000000
O O2 0.695008 0.354346 0.306676
O O3 0.639013 0.500000 0.291446
O O4 0.593298 0.358952 0.375787
O O5 0.624163 0.369219 0.130601
O O6 0.250000 0.105901 0.500000
O O7 0.304992 0.145654 0.693324
O O8 0.250000 0.000000 0.697610
O O9 0.875837 0.869219 0.869399
O O10 0.916414 0.000000 0.000000
O O11 0.093298 0.858952 0.624213
O O12 0.941306 0.500000 0.500000
O O13 0.000000 0.358410 0.500000
#
# Coordination Sequence:
#
# PCOD9504574 Si02
#       6
#     4  16  16  16  16  16
#     4  12  26  44  64  82 124 168 194 242 302 366
#     4   9  17  30  51  83 120 157 198 246 297 352
#     4   9  14  25  49  85 124 156 196 246 296 354
#     4  10  23  40  61  90 118 155 204 247 296 353
#     4   9  17  30  51  83 120 157 198 246 297 352
#     4   9  16  25  43  75 115 155 196 243 297 348
#
# _framework density 21.198867
#
# number of rings (size 3 to 8) (size 9 to 14) (size 15 to 20)
#    0.000    2.667    1.905    0.286    2.667    0.762 
#    0.000    3.810    0.000    4.571    0.000    1.333 
#    0.000    0.000    0.000    0.000    0.000    0.381 
#
# Total GULP energy -233879.498905 kJ/mol
# GULP energy per Si atom -5568.559498 kJ/mol
# Density = 2.115062 g / cm^3
# Si number density = 21.198867 Si / 1000 Ang^3
#
#
#
# Elastic Constant Matrix: (Units=GPa)
#
#
# Indices 1 2 3 4 5 6 
#
# 1 267.5855 35.5571 116.1373 0.0000 0.0000 0.0000
# 2 35.5571 88.0368 22.3804 0.0000 0.0000 0.0000
# 3 116.1373 22.3804 153.2844 0.0000 0.0000 0.0000
# 4 0.0000 0.0000 0.0000 -22.0407 0.0000 0.0000
# 5 0.0000 0.0000 0.0000 0.0000 -537.5822 0.0000
# 6 0.0000 0.0000 0.0000 0.0000 0.0000 -12.8611
#
#
#
# Elastic Compliance Matrix: (Units=1/GPa)
#
#
# Indices 1 2 3 4 5 6 
#
# 1 0.005698 -0.001250 -0.004134 0.000000 0.000000 0.000000
# 2 -0.001250 0.012071 -0.000815 0.000000 0.000000 0.000000
# 3 -0.004134 -0.000815 0.009775 0.000000 0.000000 0.000000
# 4 0.000000 0.000000 0.000000 -0.045371 0.000000 0.000000
# 5 0.000000 0.000000 0.000000 0.000000 -0.001860 0.000000
# 6 0.000000 0.000000 0.000000 0.000000 0.000000 -0.077754
#
#
# Mechanical properties :
#
#
# Convention : Reuss Voigt Hill
#
# Bulk Modulus (GPa) = 66.03071 95.22847 80.62959
# Shear Modulus (GPa) = -62.50528 -92.17466 -77.33997
#
# Velocity S-wave (km/s) = -5.43592 -6.60116 -6.04667
# Velocity P-wave (km/s) = 2.86061 3.61683 3.26072
#
# Compressibility (1/GPa) = 0.01514447
#
# Stress axis : x y z
#
# Youngs Moduli (GPa) = 175.51170 82.84268 102.29913
#
# Poissons Ratio (x) = 0.10357 0.42294
# Poissons Ratio (y) = 0.21942 0.08340
# Poissons Ratio (z) = 0.72562 0.06754
#
# Static dielectric constant tensor:
#      x y z
#    x 1.733550 0.000000 0.000000 
#    y 0.000000 1.781810 0.000000 
#    z 0.000000 0.000000 1.692170 
# 
# From -- ./inp_files/21867.got.cif
#   From: 2010.05.17/outbox.cif.g08.bks.cpg/sg67_11_cif.got.tgz:21867.got - 2010.06.03 18:28:57.
