data_PCOD9504110
_publ_section_title
;
Structure prediction by ZEFSAII (Michael W. Deem and Ramdas Pophale) SiO2 
 PCOD9504110
Probable space group: C M M A
;
_chemical_formula_sum "Si O2"
_cell_formula_units_Z 64
_cell_length_a 15.638971
_cell_length_b 16.267293
_cell_length_c 9.869797
_cell_angle_alpha 90.000000
_cell_angle_beta 90.000000
_cell_angle_gamma 90.000000
_cell_volume 2510.913107
_symmetry_space_group_name_H-M "C M M A"
_symmetry_group_IT_number 67
_symmetry_cell_setting 'orthorhombic'
loop_
_space_group_symop_operation_xyz
x,y,z
-x,1/2-y,z
x,-y,-z
-x,1/2+y,-z
-x,-y,-z
x,1/2+y,-z
-x,y,z
x,1/2-y,z
1/2+x,1/2+y,z
1/2-x,-y,z
1/2+x,1/2-y,-z
1/2-x,y,-z
1/2-x,1/2-y,-z
1/2+x,y,-z
1/2-x,1/2+y,z
1/2+x,-y,z
loop_
_atom_site_type_symbol
_atom_site_label
_atom_site_fract_x
_atom_site_fract_y
_atom_site_fract_z
Si Si1 0.900675 0.400576 0.727144
Si Si2 0.647481 0.153117 0.985995
Si Si3 0.718468 0.250000 0.346468
Si Si4 0.399818 0.250000 0.664512
Si Si5 0.900850 0.076988 0.303874
O O1 0.894737 0.397312 0.890812
O O2 0.837668 0.328196 0.686063
O O3 0.862846 0.487316 0.673260
O O4 0.000000 0.385464 0.687623
O O5 0.621008 0.250000 0.998284
O O6 0.750000 0.148173 0.000000
O O7 0.620398 0.111983 0.844743
O O8 0.750000 0.250000 0.500000
O O9 0.806636 0.250000 0.261125
O O10 0.500000 0.250000 0.716039
O O11 0.392578 0.342010 0.602074
O O12 0.000000 0.056470 0.305688
#
# Coordination Sequence:
#
# PCOD9504110 Si02
#       5
#    16  16   8   8  16
#     4  11  24  42  66  99 138 183 234 287 345 416
#     4  11  21  33  57  98 145 189 228 274 324 411
#     4  12  27  46  69  94 123 172 233 298 361 408
#     4  10  22  42  65  92 127 166 219 284 346 412
#     4  10  21  38  63  95 134 179 223 269 334 415
#
# _framework density 25.488737
#
# number of rings (size 3 to 8) (size 9 to 14) (size 15 to 20)
#    0.000    1.250    2.500    3.375    0.000    9.000 
#    0.000    2.500    0.000    4.500    0.000    0.000 
#    0.000    0.000    0.000    0.000    0.000    0.000 
#
# Total GULP energy -178618.896147 kJ/mol
# GULP energy per Si atom -5581.840505 kJ/mol
# Density = 2.543072 g / cm^3
# Si number density = 25.488737 Si / 1000 Ang^3
#
#
#
# Elastic Constant Matrix: (Units=GPa)
#
#
# Indices 1 2 3 4 5 6 
#
# 1 145.6708 66.6128 11.9528 0.0000 0.0000 0.0000
# 2 66.6128 257.6834 0.4572 0.0000 0.0000 0.0000
# 3 11.9528 0.4572 78.5913 0.0000 0.0000 0.0000
# 4 0.0000 0.0000 0.0000 -19.7624 0.0000 0.0000
# 5 0.0000 0.0000 0.0000 0.0000 31.3415 0.0000
# 6 0.0000 0.0000 0.0000 0.0000 0.0000 -26.1113
#
#
#
# Elastic Compliance Matrix: (Units=1/GPa)
#
#
# Indices 1 2 3 4 5 6 
#
# 1 0.007895 -0.002039 -0.001189 0.000000 0.000000 0.000000
# 2 -0.002039 0.004407 0.000284 0.000000 0.000000 0.000000
# 3 -0.001189 0.000284 0.012903 0.000000 0.000000 0.000000
# 4 0.000000 0.000000 0.000000 -0.050601 0.000000 0.000000
# 5 0.000000 0.000000 0.000000 0.000000 0.031907 0.000000
# 6 0.000000 0.000000 0.000000 0.000000 0.000000 -0.038298
#
#
# Mechanical properties :
#
#
# Convention : Reuss Voigt Hill
#
# Bulk Modulus (GPa) = 51.76285 71.11012 61.43649
# Shear Modulus (GPa) = -256.91787 23.95509 -116.48139
#
# Velocity S-wave (km/s) = -10.05064 3.06899 -6.76745
# Velocity P-wave (km/s) = 10.69276 6.36533 6.07526
#
# Compressibility (1/GPa) = 0.01931887
#
# Stress axis : x y z
#
# Youngs Moduli (GPa) = 126.66886 226.89926 77.50008
#
# Poissons Ratio (x) = 0.46258 0.09213
# Poissons Ratio (y) = 0.25824 -0.02204
# Poissons Ratio (z) = 0.15059 -0.06454
#
# Static dielectric constant tensor:
#      x y z
#    x 1.961740 0.000000 0.000000 
#    y 0.000000 2.081190 0.000000 
#    z 0.000000 0.000000 2.226140 
# 
# From -- ./inp_files/18996.got.cif
#   From: 2010.05.17/outbox.cif.g08.bks.cpg/sg67_10_cif.got.tgz:18996.got - 2010.06.03 18:28:57.
