data_PCOD9504350
_publ_section_title
;
Structure prediction by ZEFSAII (Michael W. Deem and Ramdas Pophale) SiO2 
 PCOD9504350
Probable space group: C M M A
;
_chemical_formula_sum "Si O2"
_cell_formula_units_Z 88
_cell_length_a 7.544255
_cell_length_b 16.022271
_cell_length_c 32.671456
_cell_angle_alpha 90.000000
_cell_angle_beta 90.000000
_cell_angle_gamma 90.000000
_cell_volume 3949.198121
_symmetry_space_group_name_H-M "C M M A"
_symmetry_group_IT_number 67
_symmetry_cell_setting 'orthorhombic'
loop_
_space_group_symop_operation_xyz
x,y,z
-x,1/2-y,z
x,-y,-z
-x,1/2+y,-z
-x,-y,-z
x,1/2+y,-z
-x,y,z
x,1/2-y,z
1/2+x,1/2+y,z
1/2-x,-y,z
1/2+x,1/2-y,-z
1/2-x,y,-z
1/2-x,1/2-y,-z
1/2+x,y,-z
1/2-x,1/2+y,z
1/2+x,-y,z
loop_
_atom_site_type_symbol
_atom_site_label
_atom_site_fract_x
_atom_site_fract_y
_atom_site_fract_z
Si Si1 0.291531 0.099423 0.044734
Si Si2 0.201451 0.151474 0.780855
Si Si3 0.711882 0.597913 0.693806
Si Si4 0.787339 0.250000 0.547968
Si Si5 0.287202 0.098259 0.132056
Si Si6 0.213218 0.401302 0.603672
O O1 0.500000 0.106678 0.048541
O O2 0.217857 0.132441 0.088213
O O3 0.250000 0.000000 0.042973
O O4 0.250000 0.135590 0.000000
O O5 0.186497 0.250000 0.781996
O O6 0.284847 0.129748 0.737080
O O7 0.285799 0.126233 0.824050
O O8 0.000000 0.114233 0.780374
O O9 0.500000 0.615571 0.694233
O O10 0.750000 0.500000 0.693869
O O11 0.778245 0.625626 0.649126
O O12 0.750000 0.250000 0.500000
O O13 0.721925 0.165432 0.570349
O O14 0.000000 0.250000 0.552573
O O15 0.500000 0.114923 0.133433
O O16 0.250000 0.000000 0.130103
O O17 0.250000 0.500000 0.596417
O O18 0.000000 0.396137 0.604792
#
# Coordination Sequence:
#
# PCOD9504350 Si02
#       6
#    16  16  16   8  16  16
#     4   9  15  23  37  58  82 106 138 180 225 269
#     4   9  17  28  45  69  93 120 155 191 227 275
#     4   9  17  30  51  75  98 126 160 198 241 288
#     4  10  22  38  56  80 110 144 182 222 263 310
#     4   9  17  28  43  64  88 115 146 184 228 273
#     4   9  19  35  55  80 109 140 176 219 264 310
#
# _framework density 22.283003999999998
#
# number of rings (size 3 to 8) (size 9 to 14) (size 15 to 20)
#    0.000    2.909    0.000    1.636    1.273    1.818 
#    0.000    1.818    0.000    2.727    0.000    0.000 
#    0.000    0.000    0.000    0.000    0.000    4.909 
#
# Total GULP energy -244971.468407 kJ/mol
# GULP energy per Si atom -5567.533373 kJ/mol
# Density = 2.223229 g / cm^3
# Si number density = 22.283004 Si / 1000 Ang^3
#
#
#
# Elastic Constant Matrix: (Units=GPa)
#
#
# Indices 1 2 3 4 5 6 
#
# 1 59.4139 -3.7584 12.8763 0.0000 0.0000 0.0000
# 2 -3.7584 53.3996 86.0408 0.0000 0.0000 0.0000
# 3 12.8763 86.0408 296.5758 0.0000 0.0000 0.0000
# 4 0.0000 0.0000 0.0000 -38.9605 0.0000 0.0000
# 5 0.0000 0.0000 0.0000 0.0000 -307.3553 0.0000
# 6 0.0000 0.0000 0.0000 0.0000 0.0000 7.4769
#
#
#
# Elastic Compliance Matrix: (Units=1/GPa)
#
#
# Indices 1 2 3 4 5 6 
#
# 1 0.017581 0.004633 -0.002107 0.000000 0.000000 0.000000
# 2 0.004633 0.036385 -0.010757 0.000000 0.000000 0.000000
# 3 -0.002107 -0.010757 0.006584 0.000000 0.000000 0.000000
# 4 0.000000 0.000000 0.000000 -0.025667 0.000000 0.000000
# 5 0.000000 0.000000 0.000000 0.000000 -0.003254 0.000000
# 6 0.000000 0.000000 0.000000 0.000000 0.000000 0.133745
#
#
# Mechanical properties :
#
#
# Convention : Reuss Voigt Hill
#
# Bulk Modulus (GPa) = 22.68229 66.63408 44.65818
# Shear Modulus (GPa) = 25.44106 -46.81907 -10.68900
#
# Velocity S-wave (km/s) = 3.38261 -4.58876 -2.19257
# Velocity P-wave (km/s) = 5.04553 1.37580 3.69798
#
# Compressibility (1/GPa) = 0.04408726
#
# Stress axis : x y z
#
# Youngs Moduli (GPa) = 56.88005 27.48371 151.88167
#
# Poissons Ratio (x) = -0.12733 0.32007
# Poissons Ratio (y) = -0.26352 1.63379
# Poissons Ratio (z) = 0.11987 0.29564
#
# Static dielectric constant tensor:
#      x y z
#    x 1.952290 0.000000 0.000000 
#    y 0.000000 1.771820 0.000000 
#    z 0.000000 0.000000 1.928110 
# 
# From -- ./inp_files/45211.got.cif
#   From: 2010.05.17/outbox.cif.g08.bks.cpg/sg67_23_cif.got.tgz:45211.got - 2010.06.03 18:28:57.
