data_PCOD9504708
_publ_section_title
;
Structure prediction by ZEFSAII (Michael W. Deem and Ramdas Pophale) SiO2 
 PCOD9504708
Probable space group: C M M A
;
_chemical_formula_sum "Si O2"
_cell_formula_units_Z 88
_cell_length_a 20.979200
_cell_length_b 25.294204
_cell_length_c 8.471324
_cell_angle_alpha 90.000000
_cell_angle_beta 90.000000
_cell_angle_gamma 90.000000
_cell_volume 4495.326417
_symmetry_space_group_name_H-M "C M M A"
_symmetry_group_IT_number 67
_symmetry_cell_setting 'orthorhombic'
loop_
_space_group_symop_operation_xyz
x,y,z
-x,1/2-y,z
x,-y,-z
-x,1/2+y,-z
-x,-y,-z
x,1/2+y,-z
-x,y,z
x,1/2-y,z
1/2+x,1/2+y,z
1/2-x,-y,z
1/2+x,1/2-y,-z
1/2-x,y,-z
1/2-x,1/2-y,-z
1/2+x,y,-z
1/2-x,1/2+y,z
1/2+x,-y,z
loop_
_atom_site_type_symbol
_atom_site_label
_atom_site_fract_x
_atom_site_fract_y
_atom_site_fract_z
Si Si1 0.324490 0.861737 0.450017
Si Si2 0.322970 0.750000 0.361117
Si Si3 0.750000 0.917732 0.000000
Si Si4 0.928641 0.036522 0.843645
Si Si5 0.184640 0.528344 0.725507
Si Si6 0.317226 0.250000 0.249787
Si Si7 0.643956 0.363152 0.195726
O O1 0.250000 0.851636 0.500000
O O2 0.346790 0.811129 0.345623
O O3 0.328481 0.917974 0.366611
O O4 0.360559 0.866965 0.615291
O O5 0.322631 0.750000 0.556714
O O6 0.259918 0.750000 0.249137
O O7 0.700608 0.952418 0.097608
O O8 0.789030 0.885007 0.128674
O O9 0.908427 0.097400 0.875375
O O10 0.000000 0.034893 0.776732
O O11 0.873978 0.011803 0.731812
O O12 0.929154 0.000000 0.000000
O O13 0.250000 0.500000 0.672363
O O14 0.350183 0.199312 0.172386
#
# Coordination Sequence:
#
# PCOD9504708 Si02
#       7
#    16   8   8  16  16   8  16
#     4  11  18  32  53  82 115 144 179 220 280 326
#     4   9  14  30  50  80 117 149 171 212 282 335
#     4  12  19  33  54  80 118 131 187 226 270 318
#     4  11  23  40  58  77 109 151 185 223 284 342
#     4  12  21  34  55  84 109 142 183 229 271 325
#     4   9  16  31  53  76 115 141 180 221 272 321
#     4  11  21  35  54  84 109 146 181 230 272 330
#
# _framework density 19.575886000000001
#
# number of rings (size 3 to 8) (size 9 to 14) (size 15 to 20)
#    0.000    1.091    9.091    0.273    0.000    2.909 
#    0.000    3.182    0.000    0.000    0.000    1.909 
#    0.000    0.000    0.000    0.000    0.000    0.000 
#
# Total GULP energy -245007.693605 kJ/mol
# GULP energy per Si atom -5568.356673 kJ/mol
# Density = 1.953133 g / cm^3
# Si number density = 19.575886 Si / 1000 Ang^3
#
#
#
# Elastic Constant Matrix: (Units=GPa)
#
#
# Indices 1 2 3 4 5 6 
#
# 1 97.4418 47.7397 5.7201 0.0000 0.0000 0.0000
# 2 47.7397 191.2647 36.0907 0.0000 0.0000 0.0000
# 3 5.7201 36.0907 35.0682 0.0000 0.0000 0.0000
# 4 0.0000 0.0000 0.0000 3.2531 0.0000 0.0000
# 5 0.0000 0.0000 0.0000 0.0000 -0.2765 0.0000
# 6 0.0000 0.0000 0.0000 0.0000 0.0000 7.7808
#
#
#
# Elastic Compliance Matrix: (Units=1/GPa)
#
#
# Indices 1 2 3 4 5 6 
#
# 1 0.011745 -0.003189 0.001367 0.000000 0.000000 0.000000
# 2 -0.003189 0.007354 -0.007049 0.000000 0.000000 0.000000
# 3 0.001367 -0.007049 0.035547 0.000000 0.000000 0.000000
# 4 0.000000 0.000000 0.000000 0.307402 0.000000 0.000000
# 5 0.000000 0.000000 0.000000 0.000000 -3.616800 0.000000
# 6 0.000000 0.000000 0.000000 0.000000 0.000000 0.128522
#
#
# Mechanical properties :
#
#
# Convention : Reuss Voigt Hill
#
# Bulk Modulus (GPa) = 27.09757 55.87507 41.48632
# Shear Modulus (GPa) = -1.61489 17.76642 8.07577
#
# Velocity S-wave (km/s) = -0.90925 3.01585 2.03330
# Velocity P-wave (km/s) = 3.57352 6.38216 5.17214
#
# Compressibility (1/GPa) = 0.03690368
#
# Stress axis : x y z
#
# Youngs Moduli (GPa) = 85.14337 135.97146 28.13162
#
# Poissons Ratio (x) = 0.43367 -0.03845
# Poissons Ratio (y) = 0.27156 0.19829
# Poissons Ratio (z) = -0.11636 0.95842
#
# Static dielectric constant tensor:
#      x y z
#    x 1.690740 0.000000 0.000000 
#    y 0.000000 1.768520 0.000000 
#    z 0.000000 0.000000 1.744870 
# 
# From -- ./inp_files/11307.got.cif
#   From: 2010.05.17/outbox.cif.g08.bks.cpg/sg67_6_cif.got.tgz:11307.got - 2010.06.03 18:28:57.
