data_PCOD9504481
_publ_section_title
;
Structure prediction by ZEFSAII (Michael W. Deem and Ramdas Pophale) SiO2 
 PCOD9504481
Probable space group: C M M A
;
_chemical_formula_sum "Si O2"
_cell_formula_units_Z 80
_cell_length_a 24.182384
_cell_length_b 20.099402
_cell_length_c 8.900588
_cell_angle_alpha 90.000000
_cell_angle_beta 90.000000
_cell_angle_gamma 90.000000
_cell_volume 4326.143769
_symmetry_space_group_name_H-M "C M M A"
_symmetry_group_IT_number 67
_symmetry_cell_setting 'orthorhombic'
loop_
_space_group_symop_operation_xyz
x,y,z
-x,1/2-y,z
x,-y,-z
-x,1/2+y,-z
-x,-y,-z
x,1/2+y,-z
-x,y,z
x,1/2-y,z
1/2+x,1/2+y,z
1/2-x,-y,z
1/2+x,1/2-y,-z
1/2-x,y,-z
1/2-x,1/2-y,-z
1/2+x,y,-z
1/2-x,1/2+y,z
1/2+x,-y,z
loop_
_atom_site_type_symbol
_atom_site_label
_atom_site_fract_x
_atom_site_fract_y
_atom_site_fract_z
Si Si1 0.564018 0.986727 0.326434
Si Si2 0.135178 0.113466 0.124476
Si Si3 0.562856 0.869380 0.827531
Si Si4 0.609567 0.750000 0.631053
Si Si5 0.729214 0.750000 0.763598
Si Si6 0.750000 0.865711 0.000000
Si Si7 0.852271 0.250000 0.305369
O O1 0.500000 0.961197 0.323549
O O2 0.564101 0.058310 0.247704
O O3 0.579589 0.000000 0.500000
O O4 0.604996 0.939005 0.233755
O O5 0.137881 0.183707 0.209950
O O6 0.099970 0.125871 0.974900
O O7 0.197614 0.095784 0.069765
O O8 0.500000 0.853360 0.870857
O O9 0.583237 0.814453 0.709264
O O10 0.674191 0.750000 0.669461
O O11 0.609153 0.750000 0.451426
O O12 0.785848 0.750000 0.669648
O O13 0.728935 0.815019 0.870648
#
# Coordination Sequence:
#
# PCOD9504481 Si02
#       7
#    16  16  16   8   8   8   8
#     4  10  22  41  62  85 119 159 197 244 304 367
#     4  11  20  39  62  87 119 156 204 243 299 357
#     4  11  23  38  60  87 116 157 200 244 297 356
#     4  12  20  37  59  89 122 148 197 249 296 348
#     4   9  17  35  57  84 117 153 189 234 291 355
#     4   9  18  34  61  88 112 150 196 246 288 341
#     4  10  23  34  60  89 119 156 192 243 297 351
#
# _framework density 18.492218999999999
#
# number of rings (size 3 to 8) (size 9 to 14) (size 15 to 20)
#    0.000    1.600    2.000    4.200    0.000    1.600 
#    0.000    6.500    0.000    1.200    0.000    0.000 
#    0.000    0.000    0.000    0.000    0.000    0.000 
#
# Total GULP energy -223285.015630 kJ/mol
# GULP energy per Si atom -5582.125391 kJ/mol
# Density = 1.845013 g / cm^3
# Si number density = 18.492219 Si / 1000 Ang^3
#
#
#
# Elastic Constant Matrix: (Units=GPa)
#
#
# Indices 1 2 3 4 5 6 
#
# 1 132.2253 54.2254 69.8285 0.0000 0.0000 0.0000
# 2 54.2254 80.6649 28.9906 0.0000 0.0000 0.0000
# 3 69.8285 28.9906 110.0841 0.0000 0.0000 0.0000
# 4 0.0000 0.0000 0.0000 23.4916 0.0000 0.0000
# 5 0.0000 0.0000 0.0000 0.0000 34.2928 0.0000
# 6 0.0000 0.0000 0.0000 0.0000 0.0000 31.6951
#
#
#
# Elastic Compliance Matrix: (Units=1/GPa)
#
#
# Indices 1 2 3 4 5 6 
#
# 1 0.014215 -0.006975 -0.007180 0.000000 0.000000 0.000000
# 2 -0.006975 0.017116 -0.000083 0.000000 0.000000 0.000000
# 3 -0.007180 -0.000083 0.013660 0.000000 0.000000 0.000000
# 4 0.000000 0.000000 0.000000 0.042568 0.000000 0.000000
# 5 0.000000 0.000000 0.000000 0.000000 0.029161 0.000000
# 6 0.000000 0.000000 0.000000 0.000000 0.000000 0.031551
#
#
# Mechanical properties :
#
#
# Convention : Reuss Voigt Hill
#
# Bulk Modulus (GPa) = 60.55192 69.89593 65.22393
# Shear Modulus (GPa) = 27.43448 29.22456 28.32952
#
# Velocity S-wave (km/s) = 3.85589 3.97970 3.91828
# Velocity P-wave (km/s) = 7.25531 7.68094 7.47116
#
# Compressibility (1/GPa) = 0.01651475
#
# Stress axis : x y z
#
# Youngs Moduli (GPa) = 70.34684 58.42543 73.20534
#
# Poissons Ratio (x) = 0.40755 0.52562
# Poissons Ratio (y) = 0.49070 0.00606
# Poissons Ratio (z) = 0.50509 0.00484
#
# Static dielectric constant tensor:
#      x y z
#    x 1.657410 0.000000 0.000000 
#    y 0.000000 1.611380 0.000000 
#    z 0.000000 0.000000 1.641040 
# 
# From -- ./inp_files/12402.got.cif
#   From: 2010.05.17/outbox.cif.g08.bks.cpg/sg67_7_cif.got.tgz:12402.got - 2010.06.03 18:28:57.
