data_PCOD9504340
_publ_section_title
;
Structure prediction by ZEFSAII (Michael W. Deem and Ramdas Pophale) SiO2 
 PCOD9504340
Probable space group: C M M A
;
_chemical_formula_sum "Si O2"
_cell_formula_units_Z 116
_cell_length_a 18.427430
_cell_length_b 17.318573
_cell_length_c 19.068005
_cell_angle_alpha 90.000000
_cell_angle_beta 90.000000
_cell_angle_gamma 90.000000
_cell_volume 6085.301939
_symmetry_space_group_name_H-M "C M M A"
_symmetry_group_IT_number 67
_symmetry_cell_setting 'orthorhombic'
loop_
_space_group_symop_operation_xyz
x,y,z
-x,1/2-y,z
x,-y,-z
-x,1/2+y,-z
-x,-y,-z
x,1/2+y,-z
-x,y,z
x,1/2-y,z
1/2+x,1/2+y,z
1/2-x,-y,z
1/2+x,1/2-y,-z
1/2-x,y,-z
1/2-x,1/2-y,-z
1/2+x,y,-z
1/2-x,1/2+y,z
1/2+x,-y,z
loop_
_atom_site_type_symbol
_atom_site_label
_atom_site_fract_x
_atom_site_fract_y
_atom_site_fract_z
Si Si1 0.663531 0.482546 0.921001
Si Si2 0.797263 0.838343 0.843051
Si Si3 0.127975 0.371821 0.836349
Si Si4 0.689578 0.935151 0.296511
Si Si5 0.000000 0.250000 0.868371
Si Si6 0.413445 0.661160 0.549670
Si Si7 0.694251 0.840839 0.436107
Si Si8 0.413176 0.429184 0.312081
O O1 0.750000 0.500000 0.916697
O O2 0.660941 0.393856 0.897472
O O3 0.624551 0.541876 0.868686
O O4 0.639855 0.500000 0.000000
O O5 0.819643 0.750000 0.847786
O O6 0.709655 0.843301 0.853274
O O7 0.812308 0.875365 0.767001
O O8 0.064576 0.317173 0.864284
O O9 0.118161 0.379495 0.752489
O O10 0.707642 0.892263 0.368667
O O11 0.750000 0.000000 0.279933
O O12 0.616499 0.984463 0.305145
O O13 0.500000 0.659758 0.547915
O O14 0.389851 0.750000 0.563691
O O15 0.381542 0.639620 0.474314
O O16 0.389556 0.607422 0.613756
O O17 0.695594 0.750000 0.417263
O O18 0.750000 0.853081 0.500000
O O19 0.500000 0.425731 0.307868
#
# Coordination Sequence:
#
# PCOD9504340 Si02
#       8
#    16  16  16  16   4  16  16  16
#     4   9  19  40  63  90 129 165 195 249 310 361
#     4  11  21  37  63  95 122 161 212 253 301 367
#     4  11  21  37  58  91 129 160 200 249 312 361
#     4  12  22  37  57  83 117 160 202 255 316 368
#     4  12  24  36  62  98 130 160 202 262 298 368
#     4   9  20  36  55  76 109 150 196 248 311 374
#     4  10  22  38  53  78 109 148 195 254 314 366
#     4  11  22  35  57  84 116 158 197 248 310 373
#
# _framework density 19.062325000000001
#
# number of rings (size 3 to 8) (size 9 to 14) (size 15 to 20)
#    0.000    1.517    4.138    1.655    0.966    2.483 
#    1.241    3.103    0.000    1.241    0.000    0.000 
#    0.000    0.000    0.000    0.000    0.000    0.000 
#
# Total GULP energy -323264.521021 kJ/mol
# GULP energy per Si atom -5573.526224 kJ/mol
# Density = 1.901894 g / cm^3
# Si number density = 19.062325 Si / 1000 Ang^3
#
#
#
# Elastic Constant Matrix: (Units=GPa)
#
#
# Indices 1 2 3 4 5 6 
#
# 1 44.4053 21.4756 6.1948 0.0000 0.0000 0.0000
# 2 21.4756 137.8907 47.8836 0.0000 0.0000 0.0000
# 3 6.1948 47.8836 75.4861 0.0000 0.0000 0.0000
# 4 0.0000 0.0000 0.0000 12.9104 0.0000 0.0000
# 5 0.0000 0.0000 0.0000 0.0000 12.5482 0.0000
# 6 0.0000 0.0000 0.0000 0.0000 0.0000 34.8174
#
#
#
# Elastic Compliance Matrix: (Units=1/GPa)
#
#
# Indices 1 2 3 4 5 6 
#
# 1 0.024370 -0.003977 0.000523 0.000000 0.000000 0.000000
# 2 -0.003977 0.009950 -0.005985 0.000000 0.000000 0.000000
# 3 0.000523 -0.005985 0.017001 0.000000 0.000000 0.000000
# 4 0.000000 0.000000 0.000000 0.077457 0.000000 0.000000
# 5 0.000000 0.000000 0.000000 0.000000 0.079693 0.000000
# 6 0.000000 0.000000 0.000000 0.000000 0.000000 0.028721
#
#
# Mechanical properties :
#
#
# Convention : Reuss Voigt Hill
#
# Bulk Modulus (GPa) = 30.82374 45.43224 38.12799
# Shear Modulus (GPa) = 18.73462 24.20374 21.46918
#
# Velocity S-wave (km/s) = 3.13838 3.56717 3.35962
# Velocity P-wave (km/s) = 5.41642 6.39152 5.92407
#
# Compressibility (1/GPa) = 0.03244253
#
# Stress axis : x y z
#
# Youngs Moduli (GPa) = 41.03356 100.50301 58.81925
#
# Poissons Ratio (x) = 0.39971 -0.03075
# Poissons Ratio (y) = 0.16319 0.35205
# Poissons Ratio (z) = -0.02145 0.60154
#
# Static dielectric constant tensor:
#      x y z
#    x 1.692140 0.000000 0.000000 
#    y 0.000000 1.665410 0.000000 
#    z 0.000000 0.000000 1.665290 
# 
# From -- ./inp_files/34350.got.cif
#   From: 2010.05.17/outbox.cif.g08.bks.cpg/sg67_18_cif.got.tgz:34350.got - 2010.06.03 18:28:57.
