data_PCOD9504688
_publ_section_title
;
Structure prediction by ZEFSAII (Michael W. Deem and Ramdas Pophale) SiO2 
 PCOD9504688
Probable space group: C M M A
;
_chemical_formula_sum "Si O2"
_cell_formula_units_Z 48
_cell_length_a 25.468362
_cell_length_b 13.739531
_cell_length_c 5.146682
_cell_angle_alpha 90.000000
_cell_angle_beta 90.000000
_cell_angle_gamma 90.000000
_cell_volume 1800.944203
_symmetry_space_group_name_H-M "C M M A"
_symmetry_group_IT_number 67
_symmetry_cell_setting 'orthorhombic'
loop_
_space_group_symop_operation_xyz
x,y,z
-x,1/2-y,z
x,-y,-z
-x,1/2+y,-z
-x,-y,-z
x,1/2+y,-z
-x,y,z
x,1/2-y,z
1/2+x,1/2+y,z
1/2-x,-y,z
1/2+x,1/2-y,-z
1/2-x,y,-z
1/2-x,1/2-y,-z
1/2+x,y,-z
1/2-x,1/2+y,z
1/2+x,-y,z
loop_
_atom_site_type_symbol
_atom_site_label
_atom_site_fract_x
_atom_site_fract_y
_atom_site_fract_z
Si Si1 0.900226 0.052972 0.215651
Si Si2 0.285638 0.364984 0.749214
Si Si3 0.561536 0.859645 0.662130
O O1 0.838057 0.072313 0.245047
O O2 0.930034 0.144684 0.347753
O O3 0.917213 0.000000 0.500000
O O4 0.910156 0.929958 0.107086
O O5 0.299973 0.250000 0.743050
O O6 0.250000 0.384759 0.500000
O O7 0.250000 0.381710 0.000000
O O8 0.500000 0.877746 0.712016
O O9 0.577324 0.750000 0.745506
#
# Coordination Sequence:
#
# PCOD9504688 Si02
#       3
#    16  16  16
#     4  11  24  42  70 104 138 185 240 301 363 434
#     4  10  24  46  74 108 148 195 247 302 364 435
#     4  10  24  46  70 101 142 185 236 299 371 446
#
# _framework density 26.652684000000001
#
# number of rings (size 3 to 8) (size 9 to 14) (size 15 to 20)
#    0.000    1.667    0.000    3.000    9.333    6.000 
#    0.000    3.333    0.000    2.000    0.000    0.000 
#    0.000    0.000    0.000    0.000    0.000    0.000 
#
# Total GULP energy -133888.613603 kJ/mol
# GULP energy per Si atom -5578.692233 kJ/mol
# Density = 2.659202 g / cm^3
# Si number density = 26.652684 Si / 1000 Ang^3
#
#
#
# Elastic Constant Matrix: (Units=GPa)
#
#
# Indices 1 2 3 4 5 6 
#
# 1 153.4877 69.3018 63.7910 0.0000 0.0000 0.0000
# 2 69.3018 182.6591 113.1984 0.0000 0.0000 0.0000
# 3 63.7910 113.1984 289.5428 0.0000 0.0000 0.0000
# 4 0.0000 0.0000 0.0000 44.7632 0.0000 0.0000
# 5 0.0000 0.0000 0.0000 0.0000 324.7001 0.0000
# 6 0.0000 0.0000 0.0000 0.0000 0.0000 87.1821
#
#
#
# Elastic Compliance Matrix: (Units=1/GPa)
#
#
# Indices 1 2 3 4 5 6 
#
# 1 0.007986 -0.002560 -0.000759 0.000000 0.000000 0.000000
# 2 -0.002560 0.008046 -0.002582 0.000000 0.000000 0.000000
# 3 -0.000759 -0.002582 0.004630 0.000000 0.000000 0.000000
# 4 0.000000 0.000000 0.000000 0.022340 0.000000 0.000000
# 5 0.000000 0.000000 0.000000 0.000000 0.003080 0.000000
# 6 0.000000 0.000000 0.000000 0.000000 0.000000 0.011470
#
#
# Mechanical properties :
#
#
# Convention : Reuss Voigt Hill
#
# Bulk Modulus (GPa) = 112.84183 124.25245 118.54714
# Shear Modulus (GPa) = 69.15029 116.62231 92.88630
#
# Velocity S-wave (km/s) = 5.09915 6.62203 5.90985
# Velocity P-wave (km/s) = 8.78056 10.25616 9.54691
#
# Compressibility (1/GPa) = 0.00886196
#
# Stress axis : x y z
#
# Youngs Moduli (GPa) = 125.21408 124.28915 215.97547
#
# Poissons Ratio (x) = 0.31816 0.16387
# Poissons Ratio (y) = 0.32053 0.55755
# Poissons Ratio (z) = 0.09500 0.32086
#
# Static dielectric constant tensor:
#      x y z
#    x 1.959330 0.000000 0.000000 
#    y 0.000000 1.307780 0.000000 
#    z 0.000000 0.000000 2.575000 
# 
# From -- ./inp_files/1243.got.cif
#   From: 2010.05.17/outbox.cif.g08.bks.cpg/sg67_1_cif.got.tgz:1243.got - 2010.06.03 18:28:57.
