data_PCOD9504468
_publ_section_title
;
Structure prediction by ZEFSAII (Michael W. Deem and Ramdas Pophale) SiO2 
 PCOD9504468
Probable space group: C M M A
;
_chemical_formula_sum "Si O2"
_cell_formula_units_Z 72
_cell_length_a 28.320463
_cell_length_b 15.276914
_cell_length_c 7.689292
_cell_angle_alpha 90.000000
_cell_angle_beta 90.000000
_cell_angle_gamma 90.000000
_cell_volume 3326.766630
_symmetry_space_group_name_H-M "C M M A"
_symmetry_group_IT_number 67
_symmetry_cell_setting 'orthorhombic'
loop_
_space_group_symop_operation_xyz
x,y,z
-x,1/2-y,z
x,-y,-z
-x,1/2+y,-z
-x,-y,-z
x,1/2+y,-z
-x,y,z
x,1/2-y,z
1/2+x,1/2+y,z
1/2-x,-y,z
1/2+x,1/2-y,-z
1/2-x,y,-z
1/2-x,1/2-y,-z
1/2+x,y,-z
1/2-x,1/2+y,z
1/2+x,-y,z
loop_
_atom_site_type_symbol
_atom_site_label
_atom_site_fract_x
_atom_site_fract_y
_atom_site_fract_z
Si Si1 0.592229 0.750000 0.017719
Si Si2 0.780115 0.427622 0.821201
Si Si3 0.655360 0.250000 0.654688
Si Si4 0.051961 0.579283 0.866868
Si Si5 0.674299 0.250000 0.267495
Si Si6 0.350470 0.551024 0.316857
O O1 0.612352 0.750000 0.213664
O O2 0.562314 0.837053 0.011459
O O3 0.637078 0.750000 0.889958
O O4 0.750000 0.500000 0.716186
O O5 0.792618 0.334644 0.744782
O O6 0.828911 0.482284 0.821729
O O7 0.750000 0.414187 0.000000
O O8 0.647140 0.250000 0.449412
O O9 0.674373 0.148836 0.687444
O O10 0.094950 0.566792 0.732487
O O11 0.000000 0.587925 0.784713
O O12 0.052004 0.500000 0.000000
O O13 0.346431 0.500000 0.500000
#
# Coordination Sequence:
#
# PCOD9504468 Si02
#       6
#     8  16   8  16   8  16
#     4  10  23  39  76  96 140 188 225 289 351 415
#     4  11  27  42  69 100 135 181 236 285 347 418
#     4  10  24  41  70 103 129 183 234 285 352 417
#     4  10  22  40  69 105 138 180 231 282 347 421
#     4  12  23  48  69 101 138 185 239 289 359 415
#     4  11  23  45  69  99 142 182 229 290 351 417
#
# _framework density 21.642637000000001
#
# number of rings (size 3 to 8) (size 9 to 14) (size 15 to 20)
#    0.000    1.333    2.222    2.000   15.556    1.778 
#    0.000    1.667    0.000    1.333    0.000    0.000 
#    0.000    0.000    0.000    0.000    0.000    0.000 
#
# Total GULP energy -200439.337572 kJ/mol
# GULP energy per Si atom -5567.759377 kJ/mol
# Density = 2.159338 g / cm^3
# Si number density = 21.642637 Si / 1000 Ang^3
#
#
#
# Elastic Constant Matrix: (Units=GPa)
#
#
# Indices 1 2 3 4 5 6 
#
# 1 97.7318 30.7697 43.3353 0.0000 0.0000 0.0000
# 2 30.7697 216.8938 29.4611 0.0000 0.0000 0.0000
# 3 43.3353 29.4611 84.5793 0.0000 0.0000 0.0000
# 4 0.0000 0.0000 0.0000 19.6089 0.0000 0.0000
# 5 0.0000 0.0000 0.0000 0.0000 10.3248 0.0000
# 6 0.0000 0.0000 0.0000 0.0000 0.0000 38.7462
#
#
#
# Elastic Compliance Matrix: (Units=1/GPa)
#
#
# Indices 1 2 3 4 5 6 
#
# 1 0.013452 -0.001020 -0.006537 0.000000 0.000000 0.000000
# 2 -0.001020 0.004917 -0.001190 0.000000 0.000000 0.000000
# 3 -0.006537 -0.001190 0.015587 0.000000 0.000000 0.000000
# 4 0.000000 0.000000 0.000000 0.050997 0.000000 0.000000
# 5 0.000000 0.000000 0.000000 0.000000 0.096854 0.000000
# 6 0.000000 0.000000 0.000000 0.000000 0.000000 0.025809
#
#
# Mechanical properties :
#
#
# Convention : Reuss Voigt Hill
#
# Bulk Modulus (GPa) = 60.74779 67.37079 64.05929
# Shear Modulus (GPa) = 21.68281 33.44524 27.56402
#
# Velocity S-wave (km/s) = 3.16864 3.93535 3.57262
# Velocity P-wave (km/s) = 6.44334 7.20039 6.83236
#
# Compressibility (1/GPa) = 0.01646150
#
# Stress axis : x y z
#
# Youngs Moduli (GPa) = 74.33940 203.37859 64.15660
#
# Poissons Ratio (x) = 0.20754 0.41938
# Poissons Ratio (y) = 0.07586 0.07634
# Poissons Ratio (z) = 0.48594 0.24199
#
# Static dielectric constant tensor:
#      x y z
#    x 1.889400 0.000000 0.000000 
#    y 0.000000 1.875310 0.000000 
#    z 0.000000 0.000000 1.834110 
# 
# From -- ./inp_files/13368.got.cif
#   From: 2010.05.17/outbox.cif.g08.bks.cpg/sg67_7_cif.got.tgz:13368.got - 2010.06.03 18:28:57.
