data_PCOD9504854
_publ_section_title
;
Structure prediction by ZEFSAII (Michael W. Deem and Ramdas Pophale) SiO2 
 PCOD9504854
Probable space group: C M M A
;
_chemical_formula_sum "Si O2"
_cell_formula_units_Z 96
_cell_length_a 28.528483
_cell_length_b 8.831428
_cell_length_c 19.875746
_cell_angle_alpha 90.000000
_cell_angle_beta 90.000000
_cell_angle_gamma 90.000000
_cell_volume 5007.639418
_symmetry_space_group_name_H-M "C M M A"
_symmetry_group_IT_number 67
_symmetry_cell_setting 'orthorhombic'
loop_
_space_group_symop_operation_xyz
x,y,z
-x,1/2-y,z
x,-y,-z
-x,1/2+y,-z
-x,-y,-z
x,1/2+y,-z
-x,y,z
x,1/2-y,z
1/2+x,1/2+y,z
1/2-x,-y,z
1/2+x,1/2-y,-z
1/2-x,y,-z
1/2-x,1/2-y,-z
1/2+x,y,-z
1/2-x,1/2+y,z
1/2+x,-y,z
loop_
_atom_site_type_symbol
_atom_site_label
_atom_site_fract_x
_atom_site_fract_y
_atom_site_fract_z
Si Si1 0.127026 0.074116 0.825200
Si Si2 0.555534 0.432025 0.722228
Si Si3 0.700180 0.932268 0.075110
Si Si4 0.197479 0.569798 0.435132
Si Si5 0.701207 0.576672 0.707024
Si Si6 0.057071 0.076169 0.428708
O O1 0.118441 0.250000 0.844024
O O2 0.166126 0.069050 0.767274
O O3 0.082870 0.003382 0.785595
O O4 0.153689 0.985112 0.884761
O O5 0.500000 0.460292 0.729370
O O6 0.562851 0.250000 0.722791
O O7 0.569533 0.487247 0.646204
O O8 0.703565 0.750000 0.074472
O O9 0.750000 0.000000 0.102784
O O10 0.696728 0.000000 0.000000
O O11 0.173649 0.500000 0.500000
O O12 0.198868 0.750000 0.443918
O O13 0.250000 0.500000 0.432658
O O14 0.178341 0.521998 0.362724
O O15 0.713407 0.750000 0.693459
O O16 0.750000 0.500000 0.722369
O O17 0.073309 0.250000 0.431050
O O18 0.000000 0.077150 0.427593
O O19 0.069815 0.000000 0.500000
#
# Coordination Sequence:
#
# PCOD9504854 Si02
#       6
#    16  16  16  16  16  16
#     4  11  22  36  55  82 113 145 183 225 273 330
#     4   9  19  36  55  77 108 147 191 239 291 344
#     4  11  22  39  63  92 124 155 186 221 266 321
#     4   9  15  25  40  59  84 120 165 210 255 302
#     4   9  19  32  47  69  99 132 168 212 260 313
#     4   8  14  26  46  71  99 133 177 231 290 347
#
# _framework density 19.170711000000001
#
# number of rings (size 3 to 8) (size 9 to 14) (size 15 to 20)
#    0.000    2.500    0.000    5.000    0.000    4.333 
#    0.000    2.500    0.000    4.500    0.000    0.000 
#    0.000    0.000    0.000    0.000    0.000    0.000 
#
# Total GULP energy -267334.224619 kJ/mol
# GULP energy per Si atom -5569.463013 kJ/mol
# Density = 1.912708 g / cm^3
# Si number density = 19.170711 Si / 1000 Ang^3
#
#
#
# Elastic Constant Matrix: (Units=GPa)
#
#
# Indices 1 2 3 4 5 6 
#
# 1 88.3964 42.4606 29.4570 0.0000 0.0000 0.0000
# 2 42.4606 79.0104 52.6290 0.0000 0.0000 0.0000
# 3 29.4570 52.6290 93.0009 0.0000 0.0000 0.0000
# 4 0.0000 0.0000 0.0000 26.2011 0.0000 0.0000
# 5 0.0000 0.0000 0.0000 0.0000 69.3978 0.0000
# 6 0.0000 0.0000 0.0000 0.0000 0.0000 15.5294
#
#
#
# Elastic Compliance Matrix: (Units=1/GPa)
#
#
# Indices 1 2 3 4 5 6 
#
# 1 0.015255 -0.007992 -0.000309 0.000000 0.000000 0.000000
# 2 -0.007992 0.024501 -0.011334 0.000000 0.000000 0.000000
# 3 -0.000309 -0.011334 0.017264 0.000000 0.000000 0.000000
# 4 0.000000 0.000000 0.000000 0.038166 0.000000 0.000000
# 5 0.000000 0.000000 0.000000 0.000000 0.014410 0.000000
# 6 0.000000 0.000000 0.000000 0.000000 0.000000 0.064394
#
#
# Mechanical properties :
#
#
# Convention : Reuss Voigt Hill
#
# Bulk Modulus (GPa) = 56.33731 56.61118 56.47424
# Shear Modulus (GPa) = 22.81274 31.28306 27.04790
#
# Velocity S-wave (km/s) = 3.45335 4.04396 3.76027
# Velocity P-wave (km/s) = 6.73437 7.16930 6.95524
#
# Compressibility (1/GPa) = 0.01775023
#
# Stress axis : x y z
#
# Youngs Moduli (GPa) = 65.55412 40.81492 57.92358
#
# Poissons Ratio (x) = 0.32619 0.01790
# Poissons Ratio (y) = 0.52391 0.65648
# Poissons Ratio (z) = 0.02026 0.46258
#
# Static dielectric constant tensor:
#      x y z
#    x 1.707600 0.000000 0.000000 
#    y 0.000000 1.672110 0.000000 
#    z 0.000000 0.000000 1.713180 
# 
# From -- ./inp_files/39848.got.cif
#   From: 2010.05.17/outbox.cif.g08.bks.cpg/sg67_20_cif.got.tgz:39848.got - 2010.06.03 18:28:57.
