data_PCOD9504255
_publ_section_title
;
Structure prediction by ZEFSAII (Michael W. Deem and Ramdas Pophale) SiO2 
 PCOD9504255
Probable space group: C M M A
;
_chemical_formula_sum "Si O2"
_cell_formula_units_Z 104
_cell_length_a 14.428744
_cell_length_b 17.796572
_cell_length_c 17.899154
_cell_angle_alpha 90.000000
_cell_angle_beta 90.000000
_cell_angle_gamma 90.000000
_cell_volume 4596.183811
_symmetry_space_group_name_H-M "C M M A"
_symmetry_group_IT_number 67
_symmetry_cell_setting 'orthorhombic'
loop_
_space_group_symop_operation_xyz
x,y,z
-x,1/2-y,z
x,-y,-z
-x,1/2+y,-z
-x,-y,-z
x,1/2+y,-z
-x,y,z
x,1/2-y,z
1/2+x,1/2+y,z
1/2-x,-y,z
1/2+x,1/2-y,-z
1/2-x,y,-z
1/2-x,1/2-y,-z
1/2+x,y,-z
1/2-x,1/2+y,z
1/2+x,-y,z
loop_
_atom_site_type_symbol
_atom_site_label
_atom_site_fract_x
_atom_site_fract_y
_atom_site_fract_z
Si Si1 0.227800 0.911887 0.604972
Si Si2 0.366484 0.333298 0.161028
Si Si3 0.892254 0.159976 0.525999
Si Si4 0.656404 0.043494 0.758708
Si Si5 0.392599 0.915754 0.990765
Si Si6 0.500000 0.920076 0.739912
Si Si7 0.347250 0.166371 0.867180
O O1 0.152139 0.880222 0.546557
O O2 0.322976 0.866876 0.590978
O O3 0.188755 0.907688 0.687936
O O4 0.250000 0.000000 0.590837
O O5 0.395508 0.250000 0.137297
O O6 0.419652 0.359122 0.233929
O O7 0.256337 0.331801 0.165516
O O8 0.389966 0.391351 0.095012
O O9 0.887128 0.250000 0.517284
O O10 0.000000 0.139278 0.539347
O O11 0.612011 0.096108 0.822008
O O12 0.750000 0.000000 0.785922
O O13 0.581793 0.983879 0.730191
O O14 0.500000 0.915876 0.014599
O O15 0.343867 0.857571 0.046257
O O16 0.356314 0.000000 0.000000
O O17 0.387577 0.250000 0.859475
#
# Coordination Sequence:
#
# PCOD9504255 Si02
#       7
#    16  16  16  16  16   8  16
#     4  10  22  40  66 100 137 181 224 280 334 387
#     4  11  23  42  67  94 125 167 222 289 352 405
#     4  10  21  40  70 105 142 181 225 275 330 395
#     4  11  25  45  65  95 134 177 225 273 337 409
#     4  11  24  38  62  95 126 168 221 284 353 411
#     4  12  23  42  72  92 126 176 227 274 337 412
#     4  11  25  42  62  91 130 170 217 277 341 413
#
# _framework density 22.627468
#
# number of rings (size 3 to 8) (size 9 to 14) (size 15 to 20)
#    0.000    1.231    2.308    3.923    4.308    5.231 
#    4.154    0.000    0.000    0.000    0.000    0.000 
#    0.000    0.000    0.000    0.000    0.000    0.000 
#
# Total GULP energy -289705.734267 kJ/mol
# GULP energy per Si atom -5571.264121 kJ/mol
# Density = 2.257597 g / cm^3
# Si number density = 22.627468 Si / 1000 Ang^3
#
#
#
# Elastic Constant Matrix: (Units=GPa)
#
#
# Indices 1 2 3 4 5 6 
#
# 1 133.5658 10.5986 -8.4276 0.0000 0.0000 0.0000
# 2 10.5986 95.8174 15.1910 0.0000 0.0000 0.0000
# 3 -8.4276 15.1910 34.0773 0.0000 0.0000 0.0000
# 4 0.0000 0.0000 0.0000 -14.5218 0.0000 0.0000
# 5 0.0000 0.0000 0.0000 0.0000 -10.0658 0.0000
# 6 0.0000 0.0000 0.0000 0.0000 0.0000 26.0536
#
#
#
# Elastic Compliance Matrix: (Units=1/GPa)
#
#
# Indices 1 2 3 4 5 6 
#
# 1 0.007742 -0.001248 0.002471 0.000000 0.000000 0.000000
# 2 -0.001248 0.011431 -0.005405 0.000000 0.000000 0.000000
# 3 0.002471 -0.005405 0.032365 0.000000 0.000000 0.000000
# 4 0.000000 0.000000 0.000000 -0.068862 0.000000 0.000000
# 5 0.000000 0.000000 0.000000 0.000000 -0.099347 0.000000
# 6 0.000000 0.000000 0.000000 0.000000 0.000000 0.038382
#
#
# Mechanical properties :
#
#
# Convention : Reuss Voigt Hill
#
# Bulk Modulus (GPa) = 23.16133 33.13161 28.14647
# Shear Modulus (GPa) = -90.03733 16.69978 -36.66877
#
# Velocity S-wave (km/s) = -6.31487 2.71962 -4.02996
# Velocity P-wave (km/s) = 6.55072 4.95336 3.03118
#
# Compressibility (1/GPa) = 0.04317542
#
# Stress axis : x y z
#
# Youngs Moduli (GPa) = 129.16725 87.47821 30.89715
#
# Poissons Ratio (x) = 0.10918 -0.07635
# Poissons Ratio (y) = 0.16121 0.16699
# Poissons Ratio (z) = -0.31917 0.47278
#
# Static dielectric constant tensor:
#      x y z
#    x 1.874370 0.000000 0.000000 
#    y 0.000000 1.856000 0.000000 
#    z 0.000000 0.000000 1.876000 
# 
# From -- ./inp_files/38632.got.cif
#   From: 2010.05.17/outbox.cif.g08.bks.cpg/sg67_20_cif.got.tgz:38632.got - 2010.06.03 18:28:57.
