data_PCOD9504234
_publ_section_title
;
Structure prediction by ZEFSAII (Michael W. Deem and Ramdas Pophale) SiO2 
 PCOD9504234
Probable space group: C M M A
;
_chemical_formula_sum "Si O2"
_cell_formula_units_Z 52
_cell_length_a 19.157222
_cell_length_b 13.499748
_cell_length_c 8.141817
_cell_angle_alpha 90.000000
_cell_angle_beta 90.000000
_cell_angle_gamma 90.000000
_cell_volume 2105.617737
_symmetry_space_group_name_H-M "C M M A"
_symmetry_group_IT_number 67
_symmetry_cell_setting 'orthorhombic'
loop_
_space_group_symop_operation_xyz
x,y,z
-x,1/2-y,z
x,-y,-z
-x,1/2+y,-z
-x,-y,-z
x,1/2+y,-z
-x,y,z
x,1/2-y,z
1/2+x,1/2+y,z
1/2-x,-y,z
1/2+x,1/2-y,-z
1/2-x,y,-z
1/2-x,1/2-y,-z
1/2+x,y,-z
1/2-x,1/2+y,z
1/2+x,-y,z
loop_
_atom_site_type_symbol
_atom_site_label
_atom_site_fract_x
_atom_site_fract_y
_atom_site_fract_z
Si Si1 0.250000 0.000000 0.500000
Si Si2 0.349728 0.639201 0.898710
Si Si3 0.651609 0.932729 0.251107
Si Si4 0.500000 0.366208 0.232079
Si Si5 0.500000 0.871456 0.384354
O O1 0.302853 0.077186 0.588446
O O2 0.335081 0.750000 0.838447
O O3 0.324117 0.544513 0.799810
O O4 0.432225 0.616112 0.876833
O O5 0.331382 0.630642 0.089926
O O6 0.570781 0.912078 0.298575
O O7 0.500000 0.250000 0.260376
O O8 0.500000 0.401944 0.421472
O O9 0.500000 0.750000 0.370813
#
# Coordination Sequence:
#
# PCOD9504234 Si02
#       5
#     4  16  16   8   8
#     4  12  28  48  66 100 140 178 228 280 346 412
#     4  10  21  40  65  97 132 179 229 272 329 403
#     4  11  24  43  69  96 137 180 222 282 338 396
#     4   9  18  33  60  97 135 165 212 275 329 386
#     4  11  22  41  71 108 139 177 227 279 336 398
#
# _framework density 24.695841999999999
#
# number of rings (size 3 to 8) (size 9 to 14) (size 15 to 20)
#    0.000    1.538    0.000    4.615    0.000    8.000 
#    0.000   10.000    0.000    0.000    0.000    0.000 
#    0.000    0.000    0.000    0.000    0.000    0.000 
#
# Total GULP energy -145123.182586 kJ/mol
# GULP energy per Si atom -5581.660869 kJ/mol
# Density = 2.463963 g / cm^3
# Si number density = 24.695842 Si / 1000 Ang^3
#
#
#
# Elastic Constant Matrix: (Units=GPa)
#
#
# Indices 1 2 3 4 5 6 
#
# 1 117.8712 30.0600 28.4896 0.0000 0.0000 0.0000
# 2 30.0600 139.8476 22.5605 0.0000 0.0000 0.0000
# 3 28.4896 22.5605 100.1808 0.0000 0.0000 0.0000
# 4 0.0000 0.0000 0.0000 22.5823 0.0000 0.0000
# 5 0.0000 0.0000 0.0000 0.0000 38.5038 0.0000
# 6 0.0000 0.0000 0.0000 0.0000 0.0000 14.2195
#
#
#
# Elastic Compliance Matrix: (Units=1/GPa)
#
#
# Indices 1 2 3 4 5 6 
#
# 1 0.009468 -0.001661 -0.002318 0.000000 0.000000 0.000000
# 2 -0.001661 0.007712 -0.001264 0.000000 0.000000 0.000000
# 3 -0.002318 -0.001264 0.010926 0.000000 0.000000 0.000000
# 4 0.000000 0.000000 0.000000 0.044283 0.000000 0.000000
# 5 0.000000 0.000000 0.000000 0.000000 0.025971 0.000000
# 6 0.000000 0.000000 0.000000 0.000000 0.000000 0.070326
#
#
# Mechanical properties :
#
#
# Convention : Reuss Voigt Hill
#
# Bulk Modulus (GPa) = 56.76037 57.79111 57.27574
# Shear Modulus (GPa) = 27.02040 33.51374 30.26707
#
# Velocity S-wave (km/s) = 3.31135 3.68783 3.50465
# Velocity P-wave (km/s) = 6.13626 6.44867 6.29441
#
# Compressibility (1/GPa) = 0.01761793
#
# Stress axis : x y z
#
# Youngs Moduli (GPa) = 105.62101 129.67402 91.52505
#
# Poissons Ratio (x) = 0.21540 0.21219
# Poissons Ratio (y) = 0.17545 0.11571
# Poissons Ratio (z) = 0.24487 0.16394
#
# Static dielectric constant tensor:
#      x y z
#    x 1.553170 0.000000 0.000000 
#    y 0.000000 1.986840 0.000000 
#    z 0.000000 0.000000 2.008280 
# 
# From -- ./inp_files/9039.got.cif
#   From: 2010.05.17/outbox.cif.g08.bks.cpg/sg67_5_cif.got.tgz:9039.got - 2010.06.03 18:28:57.
