data_PCOD9504617
_publ_section_title
;
Structure prediction by ZEFSAII (Michael W. Deem and Ramdas Pophale) SiO2 
 PCOD9504617
Probable space group: C M M A
;
_chemical_formula_sum "Si O2"
_cell_formula_units_Z 84
_cell_length_a 14.634413
_cell_length_b 14.515745
_cell_length_c 18.142865
_cell_angle_alpha 90.000000
_cell_angle_beta 90.000000
_cell_angle_gamma 90.000000
_cell_volume 3854.078059
_symmetry_space_group_name_H-M "C M M A"
_symmetry_group_IT_number 67
_symmetry_cell_setting 'orthorhombic'
loop_
_space_group_symop_operation_xyz
x,y,z
-x,1/2-y,z
x,-y,-z
-x,1/2+y,-z
-x,-y,-z
x,1/2+y,-z
-x,y,z
x,1/2-y,z
1/2+x,1/2+y,z
1/2-x,-y,z
1/2+x,1/2-y,-z
1/2-x,y,-z
1/2-x,1/2-y,-z
1/2+x,y,-z
1/2-x,1/2+y,z
1/2+x,-y,z
loop_
_atom_site_type_symbol
_atom_site_label
_atom_site_fract_x
_atom_site_fract_y
_atom_site_fract_z
Si Si1 0.500000 0.750000 0.089704
Si Si2 0.893352 0.962556 0.731852
Si Si3 0.793701 0.750000 0.853179
Si Si4 0.342191 0.750000 0.291337
Si Si5 0.110511 0.052430 0.576307
Si Si6 0.706151 0.250000 0.421246
Si Si7 0.500000 0.401542 0.035950
Si Si8 0.817047 0.070323 0.877510
O O1 0.596262 0.750000 0.134209
O O2 0.500000 0.665538 0.033457
O O3 0.886939 0.850177 0.725943
O O4 0.000000 0.984434 0.741188
O O5 0.862505 0.998841 0.651383
O O6 0.844053 0.015919 0.800179
O O7 0.762205 0.750000 0.767971
O O8 0.747720 0.841376 0.879839
O O9 0.294236 0.750000 0.368756
O O10 0.148670 0.155769 0.584720
O O11 0.000000 0.055560 0.574198
O O12 0.139019 0.000000 0.500000
O O13 0.750000 0.250000 0.500000
O O14 0.410210 0.397067 0.085600
O O15 0.500000 0.500000 0.000000
O O16 0.750000 0.000000 0.917977
#
# Coordination Sequence:
#
# PCOD9504617 Si02
#       8
#     4  16   8   8  16   8   8  16
#     4  12  30  52  74 110 152 180 246 304 364 460
#     4  11  24  44  71 103 141 191 244 299 363 431
#     4  12  27  44  77 105 143 192 232 301 365 433
#     4  12  25  40  70 102 141 183 240 293 355 431
#     4  10  23  43  66  95 138 187 241 298 360 434
#     4  12  25  40  64 100 139 186 235 301 365 420
#     4  12  28  48  74 106 141 186 235 291 368 435
#     4  12  25  46  73 105 144 186 241 297 363 438
#
# _framework density 21.795096999999998
#
# number of rings (size 3 to 8) (size 9 to 14) (size 15 to 20)
#    0.000    0.571    2.857    4.571    1.333    5.333 
#    0.000    4.762    0.000    0.000    0.000    0.000 
#    0.000    0.000    0.000    0.000    0.000    0.000 
#
# Total GULP energy -234179.056237 kJ/mol
# GULP energy per Si atom -5575.691815 kJ/mol
# Density = 2.174549 g / cm^3
# Si number density = 21.795097 Si / 1000 Ang^3
#
#
#
# Elastic Constant Matrix: (Units=GPa)
#
#
# Indices 1 2 3 4 5 6 
#
# 1 134.1684 36.8757 46.0326 0.0000 0.0000 0.0000
# 2 36.8757 183.8501 57.2546 0.0000 0.0000 0.0000
# 3 46.0326 57.2546 132.4957 0.0000 0.0000 0.0000
# 4 0.0000 0.0000 0.0000 -18.8502 0.0000 0.0000
# 5 0.0000 0.0000 0.0000 0.0000-1530.4295 0.0000
# 6 0.0000 0.0000 0.0000 0.0000 0.0000 -36.4139
#
#
#
# Elastic Compliance Matrix: (Units=1/GPa)
#
#
# Indices 1 2 3 4 5 6 
#
# 1 0.008594 -0.000917 -0.002589 0.000000 0.000000 0.000000
# 2 -0.000917 0.006383 -0.002440 0.000000 0.000000 0.000000
# 3 -0.002589 -0.002440 0.009501 0.000000 0.000000 0.000000
# 4 0.000000 0.000000 0.000000 -0.053050 0.000000 0.000000
# 5 0.000000 0.000000 0.000000 0.000000 -0.000653 0.000000
# 6 0.000000 0.000000 0.000000 0.000000 0.000000 -0.027462
#
#
# Mechanical properties :
#
#
# Convention : Reuss Voigt Hill
#
# Bulk Modulus (GPa) = 79.45588 81.20442 80.33015
# Shear Modulus (GPa) = -123.15373 -296.44864 -209.80119
#
# Velocity S-wave (km/s) = -7.52515 -11.67525 -9.82190
# Velocity P-wave (km/s) = 6.24251 12.01706 9.57545
#
# Compressibility (1/GPa) = 0.01258560
#
# Stress axis : x y z
#
# Youngs Moduli (GPa) = 116.36258 156.66815 105.25004
#
# Poissons Ratio (x) = 0.14372 0.27253
# Poissons Ratio (y) = 0.10674 0.25676
# Poissons Ratio (z) = 0.30130 0.38219
#
# Static dielectric constant tensor:
#      x y z
#    x 1.784780 0.000000 0.000000 
#    y 0.000000 0.698840 0.000000 
#    z 0.000000 0.000000 1.867740 
# 
# From -- ./inp_files/38358.got.cif
#   From: 2010.05.17/outbox.cif.g08.bks.cpg/sg67_20_cif.got.tgz:38358.got - 2010.06.03 18:28:57.
