data_PCOD9504894
_publ_section_title
;
Structure prediction by ZEFSAII (Michael W. Deem and Ramdas Pophale) SiO2 
 PCOD9504894
Probable space group: C M M A
;
_chemical_formula_sum "Si O2"
_cell_formula_units_Z 68
_cell_length_a 9.650783
_cell_length_b 15.312469
_cell_length_c 22.411998
_cell_angle_alpha 90.000000
_cell_angle_beta 90.000000
_cell_angle_gamma 90.000000
_cell_volume 3311.984900
_symmetry_space_group_name_H-M "C M M A"
_symmetry_group_IT_number 67
_symmetry_cell_setting 'orthorhombic'
loop_
_space_group_symop_operation_xyz
x,y,z
-x,1/2-y,z
x,-y,-z
-x,1/2+y,-z
-x,-y,-z
x,1/2+y,-z
-x,y,z
x,1/2-y,z
1/2+x,1/2+y,z
1/2-x,-y,z
1/2+x,1/2-y,-z
1/2-x,y,-z
1/2-x,1/2-y,-z
1/2+x,y,-z
1/2-x,1/2+y,z
1/2+x,-y,z
loop_
_atom_site_type_symbol
_atom_site_label
_atom_site_fract_x
_atom_site_fract_y
_atom_site_fract_z
Si Si1 0.331879 0.149961 0.185661
Si Si2 0.334154 0.586086 0.683137
Si Si3 0.339683 0.142905 0.056282
Si Si4 0.750000 0.500000 0.500000
Si Si5 0.153044 0.653478 0.584783
O O1 0.500000 0.150755 0.182360
O O2 0.284331 0.250000 0.189347
O O3 0.296575 0.106880 0.248269
O O4 0.285941 0.113320 0.121477
O O5 0.500000 0.579141 0.678507
O O6 0.250000 0.500000 0.667564
O O7 0.272506 0.651587 0.634491
O O8 0.500000 0.117289 0.048890
O O9 0.337190 0.250000 0.058056
O O10 0.250000 0.114564 0.000000
O O11 0.831154 0.430092 0.458619
O O12 0.157044 0.750000 0.555343
O O13 0.000000 0.646237 0.613334
#
# Coordination Sequence:
#
# PCOD9504894 Si02
#       5
#    16  16  16   4  16
#     4   8  15  29  50  76 105 142 188 235 288 357
#     4  11  22  38  61  86 117 156 201 250 305 365
#     4   8  13  23  41  67 100 135 176 228 285 346
#     4  12  24  44  72  96 134 176 198 240 298 370
#     4  11  25  44  67  97 131 165 206 254 300 354
#
# _framework density 20.531495
#
# number of rings (size 3 to 8) (size 9 to 14) (size 15 to 20)
#    0.000    2.353    1.176    3.529    0.000    2.353 
#    0.000    2.353    0.000    6.353    0.000    4.941 
#    0.000    0.000    0.000    0.000    0.000    0.000 
#
# Total GULP energy -189353.342848 kJ/mol
# GULP energy per Si atom -5569.215966 kJ/mol
# Density = 2.048476 g / cm^3
# Si number density = 20.531495 Si / 1000 Ang^3
#
#
#
# Elastic Constant Matrix: (Units=GPa)
#
#
# Indices 1 2 3 4 5 6 
#
# 1 83.6221 23.3521 54.0522 0.0000 0.0000 0.0000
# 2 23.3521 103.5612 33.6051 0.0000 0.0000 0.0000
# 3 54.0522 33.6051 125.2809 0.0000 0.0000 0.0000
# 4 0.0000 0.0000 0.0000 -176.4019 0.0000 0.0000
# 5 0.0000 0.0000 0.0000 0.0000 19.9746 0.0000
# 6 0.0000 0.0000 0.0000 0.0000 0.0000 13.2336
#
#
#
# Elastic Compliance Matrix: (Units=1/GPa)
#
#
# Indices 1 2 3 4 5 6 
#
# 1 0.016815 -0.001574 -0.006832 0.000000 0.000000 0.000000
# 2 -0.001574 0.010724 -0.002197 0.000000 0.000000 0.000000
# 3 -0.006832 -0.002197 0.011519 0.000000 0.000000 0.000000
# 4 0.000000 0.000000 0.000000 -0.005669 0.000000 0.000000
# 5 0.000000 0.000000 0.000000 0.000000 0.050064 0.000000
# 6 0.000000 0.000000 0.000000 0.000000 0.000000 0.075565
#
#
# Mechanical properties :
#
#
# Convention : Reuss Voigt Hill
#
# Bulk Modulus (GPa) = 56.02300 59.38698 57.70499
# Shear Modulus (GPa) = 26.85634 -15.20842 5.82396
#
# Velocity S-wave (km/s) = 3.62063 -2.72460 1.68605
# Velocity P-wave (km/s) = 6.69509 4.36917 5.65305
#
# Compressibility (1/GPa) = 0.01784981
#
# Stress axis : x y z
#
# Youngs Moduli (GPa) = 59.47238 93.24723 86.81138
#
# Poissons Ratio (x) = 0.14682 0.59312
# Poissons Ratio (y) = 0.09364 0.19075
# Poissons Ratio (z) = 0.40633 0.20489
#
# Static dielectric constant tensor:
#      x y z
#    x 1.704890 0.000000 0.000000 
#    y 0.000000 1.821880 0.000000 
#    z 0.000000 0.000000 1.777750 
# 
# From -- ./inp_files/40485.got.cif
#   From: 2010.05.17/outbox.cif.g08.bks.cpg/sg67_21_cif.got.tgz:40485.got - 2010.06.03 18:28:57.
