data_PCOD9504129
_publ_section_title
;
Structure prediction by ZEFSAII (Michael W. Deem and Ramdas Pophale) SiO2 
 PCOD9504129
Probable space group: C M M A
;
_chemical_formula_sum "Si O2"
_cell_formula_units_Z 68
_cell_length_a 14.776226
_cell_length_b 32.789698
_cell_length_c 7.822340
_cell_angle_alpha 90.000000
_cell_angle_beta 90.000000
_cell_angle_gamma 90.000000
_cell_volume 3789.986216
_symmetry_space_group_name_H-M "C M M A"
_symmetry_group_IT_number 67
_symmetry_cell_setting 'orthorhombic'
loop_
_space_group_symop_operation_xyz
x,y,z
-x,1/2-y,z
x,-y,-z
-x,1/2+y,-z
-x,-y,-z
x,1/2+y,-z
-x,y,z
x,1/2-y,z
1/2+x,1/2+y,z
1/2-x,-y,z
1/2+x,1/2-y,-z
1/2-x,y,-z
1/2-x,1/2-y,-z
1/2+x,y,-z
1/2-x,1/2+y,z
1/2+x,-y,z
loop_
_atom_site_type_symbol
_atom_site_label
_atom_site_fract_x
_atom_site_fract_y
_atom_site_fract_z
Si Si1 0.500000 0.250000 0.500000
Si Si2 0.500000 0.546801 0.705841
Si Si3 0.643266 0.612727 0.806117
Si Si4 0.000000 0.046801 0.294159
Si Si5 0.641448 0.825138 0.500000
Si Si6 0.143266 0.112727 0.193883
O O1 0.579307 0.214262 0.500000
O O2 0.586006 0.572381 0.769458
O O3 0.500000 0.547313 0.500000
O O4 0.500000 0.500000 0.763452
O O5 0.621235 0.646993 0.666168
O O6 0.750000 0.604125 0.790822
O O7 0.624767 0.626710 1.000000
O O8 0.913994 0.072381 0.230542
O O9 0.750000 0.816330 0.500000
O O10 0.621235 0.853007 0.333831
#
# Coordination Sequence:
#
# PCOD9504129 Si02
#       6
#     4   8  16   8  16  16
#     4  12  22  36  62  86 114 150 178 220 294 342
#     4  11  22  35  55  85 119 153 190 236 285 329
#     4  10  21  39  62  83 110 153 195 232 279 332
#     4  11  22  35  55  85 119 153 190 236 285 329
#     4  10  21  39  59  84 114 144 186 233 276 339
#     4  10  21  39  62  83 110 153 195 232 279 332
#
# _framework density 17.942018000000001
#
# number of rings (size 3 to 8) (size 9 to 14) (size 15 to 20)
#    0.000    1.647    2.353    2.471    0.000    2.824 
#    0.000    7.059    0.000    5.647    0.000    0.000 
#    0.000    0.000    0.000    0.000    0.000    0.000 
#
# Total GULP energy -189348.352437 kJ/mol
# GULP energy per Si atom -5569.069189 kJ/mol
# Density = 1.790118 g / cm^3
# Si number density = 17.942018 Si / 1000 Ang^3
#
#
#
# Elastic Constant Matrix: (Units=GPa)
#
#
# Indices 1 2 3 4 5 6 
#
# 1 100.5361 100.0766 56.0069 0.0000 0.0000 0.0000
# 2 100.0766 196.8174 86.3003 0.0000 0.0000 0.0000
# 3 56.0069 86.3003 145.3311 0.0000 0.0000 0.0000
# 4 0.0000 0.0000 0.0000 -1.7292 0.0000 0.0000
# 5 0.0000 0.0000 0.0000 0.0000 -111.3091 0.0000
# 6 0.0000 0.0000 0.0000 0.0000 0.0000 -525.8664
#
#
#
# Elastic Compliance Matrix: (Units=1/GPa)
#
#
# Indices 1 2 3 4 5 6 
#
# 1 0.020712 -0.009507 -0.002336 0.000000 0.000000 0.000000
# 2 -0.009507 0.011233 -0.003007 0.000000 0.000000 0.000000
# 3 -0.002336 -0.003007 0.009567 0.000000 0.000000 0.000000
# 4 0.000000 0.000000 0.000000 -0.578303 0.000000 0.000000
# 5 0.000000 0.000000 0.000000 0.000000 -0.008984 0.000000
# 6 0.000000 0.000000 0.000000 0.000000 0.000000 -0.001902
#
#
# Mechanical properties :
#
#
# Convention : Reuss Voigt Hill
#
# Bulk Modulus (GPa) = 84.66328 103.05025 93.85676
# Shear Modulus (GPa) = -9.72687 -114.42754 -62.07721
#
# Velocity S-wave (km/s) = -2.33089 -7.99467 -5.88845
# Velocity P-wave (km/s) = 6.32815 5.25926 2.48854
#
# Compressibility (1/GPa) = 0.01181150
#
# Stress axis : x y z
#
# Youngs Moduli (GPa) = 48.28191 89.02103 104.52902
#
# Poissons Ratio (x) = 0.84632 0.24422
# Poissons Ratio (y) = 0.45901 0.31430
# Poissons Ratio (z) = 0.11280 0.26767
#
# Static dielectric constant tensor:
#      x y z
#    x 1.634970 0.000000 0.000000 
#    y 0.000000 1.554280 0.000000 
#    z 0.000000 0.000000 1.636420 
# 
# From -- ./inp_files/8231.got.cif
#   From: 2010.05.17/outbox.cif.g08.bks.cpg/sg67_5_cif.got.tgz:8231.got - 2010.06.03 18:28:57.
