data_PCOD9504953
_publ_section_title
;
Structure prediction by ZEFSAII (Michael W. Deem and Ramdas Pophale) SiO2 
 PCOD9504953
Probable space group: C M M A
;
_chemical_formula_sum "Si O2"
_cell_formula_units_Z 96
_cell_length_a 19.683655
_cell_length_b 15.536753
_cell_length_c 15.952778
_cell_angle_alpha 90.000000
_cell_angle_beta 90.000000
_cell_angle_gamma 90.000000
_cell_volume 4878.679938
_symmetry_space_group_name_H-M "C M M A"
_symmetry_group_IT_number 67
_symmetry_cell_setting 'orthorhombic'
loop_
_space_group_symop_operation_xyz
x,y,z
-x,1/2-y,z
x,-y,-z
-x,1/2+y,-z
-x,-y,-z
x,1/2+y,-z
-x,y,z
x,1/2-y,z
1/2+x,1/2+y,z
1/2-x,-y,z
1/2+x,1/2-y,-z
1/2-x,y,-z
1/2-x,1/2-y,-z
1/2+x,y,-z
1/2-x,1/2+y,z
1/2+x,-y,z
loop_
_atom_site_type_symbol
_atom_site_label
_atom_site_fract_x
_atom_site_fract_y
_atom_site_fract_z
Si Si1 0.851607 0.596418 0.473798
Si Si2 0.270692 0.647660 0.362726
Si Si3 0.672200 0.850151 0.024908
Si Si4 0.081971 0.750000 0.210524
Si Si5 0.577375 0.250000 0.394677
Si Si6 0.082231 0.075223 0.883514
Si Si7 0.682858 0.057747 0.807439
O O1 0.870680 0.500000 0.500000
O O2 0.797065 0.599382 0.397158
O O3 0.818181 0.637937 0.556040
O O4 0.907150 0.663483 0.444244
O O5 0.259701 0.750000 0.348474
O O6 0.303224 0.600386 0.282821
O O7 0.657254 0.750000 0.007928
O O8 0.672179 0.868767 0.123388
O O9 0.750000 0.868882 0.000000
O O10 0.619827 0.909563 0.972847
O O11 0.111839 0.750000 0.303580
O O12 0.101112 0.836464 0.163783
O O13 0.000000 0.750000 0.208417
O O14 0.500000 0.250000 0.374171
O O15 0.000000 0.065690 0.891117
O O16 0.117630 0.002615 0.826064
O O17 0.750000 0.000000 0.826159
#
# Coordination Sequence:
#
# PCOD9504953 Si02
#       7
#    16  16  16   8   8  16  16
#     4  11  22  41  68  96 133 171 224 277 338 408
#     4  11  22  42  66  96 128 171 214 274 339 402
#     4  11  23  41  62  92 129 170 218 272 330 388
#     4   9  22  42  64  93 125 169 219 261 318 396
#     4  11  24  41  65  97 133 176 223 278 338 404
#     4  11  24  44  68  94 132 176 221 273 332 403
#     4  12  25  38  64  99 131 165 219 277 331 393
#
# _framework density 19.677454000000001
#
# number of rings (size 3 to 8) (size 9 to 14) (size 15 to 20)
#    0.000    1.000    4.167    3.500    4.667    1.667 
#    0.000    0.833    0.000    1.000    0.000    0.000 
#    0.000    0.000    0.000    0.000    0.000    0.000 
#
# Total GULP energy -267786.916741 kJ/mol
# GULP energy per Si atom -5578.894099 kJ/mol
# Density = 1.963267 g / cm^3
# Si number density = 19.677454 Si / 1000 Ang^3
#
#
#
# Elastic Constant Matrix: (Units=GPa)
#
#
# Indices 1 2 3 4 5 6 
#
# 1 73.6322 38.1796 40.8282 0.0000 0.0000 0.0000
# 2 38.1796 113.0875 57.5422 0.0000 0.0000 0.0000
# 3 40.8282 57.5422 130.3026 0.0000 0.0000 0.0000
# 4 0.0000 0.0000 0.0000 43.1581 0.0000 0.0000
# 5 0.0000 0.0000 0.0000 0.0000 21.7701 0.0000
# 6 0.0000 0.0000 0.0000 0.0000 0.0000 17.0286
#
#
#
# Elastic Compliance Matrix: (Units=1/GPa)
#
#
# Indices 1 2 3 4 5 6 
#
# 1 0.017791 -0.004089 -0.003769 0.000000 0.000000 0.000000
# 2 -0.004089 0.012345 -0.004171 0.000000 0.000000 0.000000
# 3 -0.003769 -0.004171 0.010697 0.000000 0.000000 0.000000
# 4 0.000000 0.000000 0.000000 0.023171 0.000000 0.000000
# 5 0.000000 0.000000 0.000000 0.000000 0.045935 0.000000
# 6 0.000000 0.000000 0.000000 0.000000 0.000000 0.058725
#
#
# Mechanical properties :
#
#
# Convention : Reuss Voigt Hill
#
# Bulk Modulus (GPa) = 59.60582 65.56915 62.58749
# Shear Modulus (GPa) = 25.21280 28.42283 26.81781
#
# Velocity S-wave (km/s) = 3.58341 3.80470 3.69571
# Velocity P-wave (km/s) = 6.89045 7.25915 7.07720
#
# Compressibility (1/GPa) = 0.01677689
#
# Stress axis : x y z
#
# Youngs Moduli (GPa) = 56.20857 81.00320 93.48318
#
# Poissons Ratio (x) = 0.33119 0.35233
# Poissons Ratio (y) = 0.22982 0.38988
# Poissons Ratio (z) = 0.21185 0.33783
#
# Static dielectric constant tensor:
#      x y z
#    x 1.686790 0.000000 0.000000 
#    y 0.000000 2.149930 0.000000 
#    z 0.000000 0.000000 1.699260 
# 
# From -- ./inp_files/29370.got.cif
#   From: 2010.05.17/outbox.cif.g08.bks.cpg/sg67_15_cif.got.tgz:29370.got - 2010.06.03 18:28:57.
