data_PCOD9504133
_publ_section_title
;
Structure prediction by ZEFSAII (Michael W. Deem and Ramdas Pophale) SiO2 
 PCOD9504133
Probable space group: C M M A
;
_chemical_formula_sum "Si O2"
_cell_formula_units_Z 100
_cell_length_a 9.095396
_cell_length_b 25.492850
_cell_length_c 20.198086
_cell_angle_alpha 90.000000
_cell_angle_beta 90.000000
_cell_angle_gamma 90.000000
_cell_volume 4683.281037
_symmetry_space_group_name_H-M "C M M A"
_symmetry_group_IT_number 67
_symmetry_cell_setting 'orthorhombic'
loop_
_space_group_symop_operation_xyz
x,y,z
-x,1/2-y,z
x,-y,-z
-x,1/2+y,-z
-x,-y,-z
x,1/2+y,-z
-x,y,z
x,1/2-y,z
1/2+x,1/2+y,z
1/2-x,-y,z
1/2+x,1/2-y,-z
1/2-x,y,-z
1/2-x,1/2-y,-z
1/2+x,y,-z
1/2-x,1/2+y,z
1/2+x,-y,z
loop_
_atom_site_type_symbol
_atom_site_label
_atom_site_fract_x
_atom_site_fract_y
_atom_site_fract_z
Si Si1 0.677670 0.192769 0.427887
Si Si2 0.250000 0.000000 0.500000
Si Si3 0.676138 0.337803 0.066330
Si Si4 0.172486 0.082769 0.255251
Si Si5 0.824831 0.053448 0.103266
Si Si6 0.675252 0.692636 0.200825
Si Si7 0.668674 0.421682 0.383468
O O1 0.500000 0.190112 0.433331
O O2 0.713092 0.250000 0.396298
O O3 0.750000 0.193937 0.500000
O O4 0.727616 0.137181 0.397920
O O5 0.322917 0.040654 0.447613
O O6 0.500000 0.336740 0.062681
O O7 0.739047 0.396917 0.074170
O O8 0.736283 0.310285 0.132349
O O9 0.750000 0.315651 0.000000
O O10 0.194232 0.057395 0.183170
O O11 0.221854 0.143366 0.244895
O O12 0.249564 0.058510 0.318408
O O13 0.000000 0.082530 0.268674
O O14 0.000000 0.056126 0.089245
O O15 0.750000 0.000000 0.080380
O O16 0.500000 0.685508 0.186373
O O17 0.695042 0.750000 0.231083
O O18 0.500000 0.416417 0.365105
#
# Coordination Sequence:
#
# PCOD9504133 Si02
#       7
#    16   4  16  16  16  16  16
#     4   9  18  35  57  80 106 138 179 230 287 346
#     4  12  26  44  58  86 118 168 202 252 298 368
#     4  11  22  37  58  87 124 165 208 254 304 360
#     4   9  21  39  60  87 118 152 192 242 298 359
#     4  10  21  39  60  85 116 154 201 255 309 363
#     4   9  19  39  64  90 123 161 202 250 302 360
#     4  11  24  40  60  86 117 154 198 248 303 365
#
# _framework density 21.352550999999998
#
# number of rings (size 3 to 8) (size 9 to 14) (size 15 to 20)
#    0.000    2.080    0.800    3.120    1.120    6.720 
#    0.000    1.600    0.000    0.000    0.000    0.000 
#    0.000    0.000    0.000    0.000    0.000    0.000 
#
# Total GULP energy -278976.930239 kJ/mol
# GULP energy per Si atom -5579.538605 kJ/mol
# Density = 2.130395 g / cm^3
# Si number density = 21.352551 Si / 1000 Ang^3
#
#
#
# Elastic Constant Matrix: (Units=GPa)
#
#
# Indices 1 2 3 4 5 6 
#
# 1 58.3150 27.7766 43.8069 0.0000 0.0000 0.0000
# 2 27.7766 136.1458 15.6575 0.0000 0.0000 0.0000
# 3 43.8069 15.6575 109.9873 0.0000 0.0000 0.0000
# 4 0.0000 0.0000 0.0000 -14.7129 0.0000 0.0000
# 5 0.0000 0.0000 0.0000 0.0000 22.0820 0.0000
# 6 0.0000 0.0000 0.0000 0.0000 0.0000 141.5954
#
#
#
# Elastic Compliance Matrix: (Units=1/GPa)
#
#
# Indices 1 2 3 4 5 6 
#
# 1 0.026736 -0.004301 -0.010037 0.000000 0.000000 0.000000
# 2 -0.004301 0.008159 0.000551 0.000000 0.000000 0.000000
# 3 -0.010037 0.000551 0.013011 0.000000 0.000000 0.000000
# 4 0.000000 0.000000 0.000000 -0.067968 0.000000 0.000000
# 5 0.000000 0.000000 0.000000 0.000000 0.045286 0.000000
# 6 0.000000 0.000000 0.000000 0.000000 0.000000 0.007062
#
#
# Mechanical properties :
#
#
# Convention : Reuss Voigt Hill
#
# Bulk Modulus (GPa) = 49.17682 53.21445 51.19564
# Shear Modulus (GPa) = 75.03386 44.27338 59.65362
#
# Velocity S-wave (km/s) = 5.93437 4.55845 5.29132
# Velocity P-wave (km/s) = 8.36878 7.25823 7.83321
#
# Compressibility (1/GPa) = 0.02033478
#
# Stress axis : x y z
#
# Youngs Moduli (GPa) = 37.40233 122.56325 76.85826
#
# Poissons Ratio (x) = 0.52708 0.77140
# Poissons Ratio (y) = 0.16085 -0.04238
# Poissons Ratio (z) = 0.37539 -0.06758
#
# Static dielectric constant tensor:
#      x y z
#    x 1.723630 0.000000 0.000000 
#    y 0.000000 1.847580 0.000000 
#    z 0.000000 0.000000 1.758600 
# 
# From -- ./inp_files/37350.got.cif
#   From: 2010.05.17/outbox.cif.g08.bks.cpg/sg67_19_cif.got.tgz:37350.got - 2010.06.03 18:28:57.
