data_PCOD9504643
_publ_section_title
;
Structure prediction by ZEFSAII (Michael W. Deem and Ramdas Pophale) SiO2 
 PCOD9504643
Probable space group: C M M A
;
_chemical_formula_sum "Si O2"
_cell_formula_units_Z 68
_cell_length_a 18.939200
_cell_length_b 23.867348
_cell_length_c 7.440293
_cell_angle_alpha 90.000000
_cell_angle_beta 90.000000
_cell_angle_gamma 90.000000
_cell_volume 3363.224315
_symmetry_space_group_name_H-M "C M M A"
_symmetry_group_IT_number 67
_symmetry_cell_setting 'orthorhombic'
loop_
_space_group_symop_operation_xyz
x,y,z
-x,1/2-y,z
x,-y,-z
-x,1/2+y,-z
-x,-y,-z
x,1/2+y,-z
-x,y,z
x,1/2-y,z
1/2+x,1/2+y,z
1/2-x,-y,z
1/2+x,1/2-y,-z
1/2-x,y,-z
1/2-x,1/2-y,-z
1/2+x,y,-z
1/2-x,1/2+y,z
1/2+x,-y,z
loop_
_atom_site_type_symbol
_atom_site_label
_atom_site_fract_x
_atom_site_fract_y
_atom_site_fract_z
Si Si1 0.639711 0.943948 0.934744
Si Si2 0.354502 0.750000 0.165298
Si Si3 0.583792 0.630146 0.257886
Si Si4 0.310852 0.750000 0.748798
Si Si5 0.825468 0.628229 0.404710
Si Si6 0.500000 0.000000 0.000000
O O1 0.625050 0.903715 0.103887
O O2 0.672363 0.909783 0.772195
O O3 0.562530 0.968217 0.885036
O O4 0.677939 0.000000 0.000000
O O5 0.396552 0.805035 0.225139
O O6 0.274874 0.750000 0.244701
O O7 0.341476 0.750000 0.950831
O O8 0.500000 0.619214 0.239313
O O9 0.614121 0.613606 0.451662
O O10 0.334241 0.806954 0.653219
O O11 0.750000 0.622581 0.500000
#
# Coordination Sequence:
#
# PCOD9504643 Si02
#       6
#    16   8  16   8  16   4
#     4  10  23  46  70  96 137 182 227 279 348 411
#     4  11  22  41  71  93 137 185 221 285 356 428
#     4  12  24  41  69 103 134 177 237 290 345 422
#     4  11  22  44  70  95 142 189 222 275 373 428
#     4  12  25  43  73 102 138 187 232 288 356 426
#     4   8  20  48  74  92 136 186 230 272 356 408
#
# _framework density 20.218695
#
# number of rings (size 3 to 8) (size 9 to 14) (size 15 to 20)
#    0.706    0.235    5.882    1.412    1.647    1.882 
#    0.000    5.882    0.000    0.000    0.000    0.000 
#    0.000    0.000    0.000    0.000    0.000    0.000 
#
# Total GULP energy -189400.959810 kJ/mol
# GULP energy per Si atom -5570.616465 kJ/mol
# Density = 2.017268 g / cm^3
# Si number density = 20.218695 Si / 1000 Ang^3
#
#
#
# Elastic Constant Matrix: (Units=GPa)
#
#
# Indices 1 2 3 4 5 6 
#
# 1 64.3987 18.5655 32.8386 0.0000 0.0000 0.0000
# 2 18.5655 134.6917 72.3038 0.0000 0.0000 0.0000
# 3 32.8386 72.3038 149.9569 0.0000 0.0000 0.0000
# 4 0.0000 0.0000 0.0000 -5.1251 0.0000 0.0000
# 5 0.0000 0.0000 0.0000 0.0000 10.2583 0.0000
# 6 0.0000 0.0000 0.0000 0.0000 0.0000 22.9632
#
#
#
# Elastic Compliance Matrix: (Units=1/GPa)
#
#
# Indices 1 2 3 4 5 6 
#
# 1 0.017503 -0.000479 -0.003602 0.000000 0.000000 0.000000
# 2 -0.000479 0.010030 -0.004731 0.000000 0.000000 0.000000
# 3 -0.003602 -0.004731 0.009739 0.000000 0.000000 0.000000
# 4 0.000000 0.000000 0.000000 -0.195117 0.000000 0.000000
# 5 0.000000 0.000000 0.000000 0.000000 0.097482 0.000000
# 6 0.000000 0.000000 0.000000 0.000000 0.000000 0.043548
#
#
# Mechanical properties :
#
#
# Convention : Reuss Voigt Hill
#
# Bulk Modulus (GPa) = 50.89747 66.27369 58.58558
# Shear Modulus (GPa) = 679.48214 20.64190 350.06202
#
# Velocity S-wave (km/s) = 18.35200 3.19867 13.17246
# Velocity P-wave (km/s) = 21.77818 6.81847 16.13662
#
# Compressibility (1/GPa) = 0.01964734
#
# Stress axis : x y z
#
# Youngs Moduli (GPa) = 57.13277 99.69887 102.68375
#
# Poissons Ratio (x) = 0.04775 0.36987
# Poissons Ratio (y) = 0.02737 0.48583
# Poissons Ratio (z) = 0.20579 0.47171
#
# Static dielectric constant tensor:
#      x y z
#    x 1.701260 0.000000 0.000000 
#    y 0.000000 1.759040 0.000000 
#    z 0.000000 0.000000 1.600140 
# 
# From -- ./inp_files/2945.got.cif
#   From: 2010.05.17/outbox.cif.g08.bks.cpg/sg67_2_cif.got.tgz:2945.got - 2010.06.03 18:28:57.
