data_PCOD9504054
_publ_section_title
;
Structure prediction by ZEFSAII (Michael W. Deem and Ramdas Pophale) SiO2 
 PCOD9504054
Probable space group: C M M A
;
_chemical_formula_sum "Si O2"
_cell_formula_units_Z 80
_cell_length_a 9.338415
_cell_length_b 16.297448
_cell_length_c 27.018466
_cell_angle_alpha 90.000000
_cell_angle_beta 90.000000
_cell_angle_gamma 90.000000
_cell_volume 4112.003371
_symmetry_space_group_name_H-M "C M M A"
_symmetry_group_IT_number 67
_symmetry_cell_setting 'orthorhombic'
loop_
_space_group_symop_operation_xyz
x,y,z
-x,1/2-y,z
x,-y,-z
-x,1/2+y,-z
-x,-y,-z
x,1/2+y,-z
-x,y,z
x,1/2-y,z
1/2+x,1/2+y,z
1/2-x,-y,z
1/2+x,1/2-y,-z
1/2-x,y,-z
1/2-x,1/2-y,-z
1/2+x,y,-z
1/2-x,1/2+y,z
1/2+x,-y,z
loop_
_atom_site_type_symbol
_atom_site_label
_atom_site_fract_x
_atom_site_fract_y
_atom_site_fract_z
Si Si1 0.162476 0.847191 0.453313
Si Si2 0.832022 0.150175 0.843285
Si Si3 0.832235 0.848352 0.746802
Si Si4 0.327126 0.086344 0.638105
Si Si5 0.167595 0.850049 0.048302
O O1 0.148263 0.750000 0.461778
O O2 0.250000 0.882734 0.500000
O O3 0.256016 0.858359 0.404092
O O4 0.000000 0.880791 0.448729
O O5 0.820131 0.250000 0.842962
O O6 0.752552 0.119642 0.794492
O O7 0.777692 0.122862 0.897484
O O8 0.000000 0.130797 0.840301
O O9 0.812398 0.750000 0.744036
O O10 0.791303 0.884013 0.693619
O O11 0.000000 0.864357 0.754450
O O12 0.500000 0.083647 0.633399
O O13 0.250000 0.000000 0.630834
O O14 0.176430 0.750000 0.048102
O O15 0.000000 0.870608 0.044807
O O16 0.250000 0.880370 0.000000
#
# Coordination Sequence:
#
# PCOD9504054 Si02
#       5
#    16  16  16  16  16
#     4  10  21  38  61  87 112 139 172 208 248 296
#     4   8  14  24  38  58  85 117 155 198 241 288
#     4   9  18  32  50  71  95 126 164 206 251 297
#     4  11  23  38  55  77 107 139 173 213 256 302
#     4   8  13  20  30  48  77 113 150 188 233 284
#
# _framework density 19.455238000000001
#
# number of rings (size 3 to 8) (size 9 to 14) (size 15 to 20)
#    0.000    2.800    0.000    3.000    0.000    4.800 
#    0.000    8.000    0.000    0.000    0.000    0.000 
#    0.000    0.800    0.000    8.800    0.000   14.400 
#
# Total GULP energy -222923.013356 kJ/mol
# GULP energy per Si atom -5573.075334 kJ/mol
# Density = 1.941096 g / cm^3
# Si number density = 19.455238 Si / 1000 Ang^3
#
#
#
# Elastic Constant Matrix: (Units=GPa)
#
#
# Indices 1 2 3 4 5 6 
#
# 1 74.2555 17.3295 61.9035 0.0000 0.0000 0.0000
# 2 17.3295 -1.2523 18.2288 0.0000 0.0000 0.0000
# 3 61.9035 18.2288 132.4429 0.0000 0.0000 0.0000
# 4 0.0000 0.0000 0.0000 -31.3978 0.0000 0.0000
# 5 0.0000 0.0000 0.0000 0.0000 34.7627 0.0000
# 6 0.0000 0.0000 0.0000 0.0000 0.0000 11.6474
#
#
#
# Elastic Compliance Matrix: (Units=1/GPa)
#
#
# Indices 1 2 3 4 5 6 
#
# 1 0.015162 0.035511 -0.011974 0.000000 0.000000 0.000000
# 2 0.035511 -0.182698 0.008548 0.000000 0.000000 0.000000
# 3 -0.011974 0.008548 0.011971 0.000000 0.000000 0.000000
# 4 0.000000 0.000000 0.000000 -0.031849 0.000000 0.000000
# 5 0.000000 0.000000 0.000000 0.000000 0.028766 0.000000
# 6 0.000000 0.000000 0.000000 0.000000 0.000000 0.085856
#
#
# Mechanical properties :
#
#
# Convention : Reuss Voigt Hill
#
# Bulk Modulus (GPa) = -10.94146 44.48552 16.77203
# Shear Modulus (GPa) = -29.86379 10.20140 -9.83119
#
# Velocity S-wave (km/s) = -3.92216 2.29236 -2.25038
# Velocity P-wave (km/s) = 5.11344 5.47008 1.37378
#
# Compressibility (1/GPa) = -0.09139546
#
# Stress axis : x y z
#
# Youngs Moduli (GPa) = 65.95490 -5.47352 83.53726
#
# Poissons Ratio (x) = 0.19437 1.00030
# Poissons Ratio (y) = -2.34216 -0.71405
# Poissons Ratio (z) = 0.78976 0.04679
#
# Static dielectric constant tensor:
#      x y z
#    x 1.665390 0.000000 0.000000 
#    y 0.000000 1.704870 0.000000 
#    z 0.000000 0.000000 1.707130 
# 
# From -- ./inp_files/43305.got.cif
#   From: 2010.05.17/outbox.cif.g08.bks.cpg/sg67_22_cif.got.tgz:43305.got - 2010.06.03 18:28:57.
