data_PCOD9504241
_publ_section_title
;
Structure prediction by ZEFSAII (Michael W. Deem and Ramdas Pophale) SiO2 
 PCOD9504241
Probable space group: C M M A
;
_chemical_formula_sum "Si O2"
_cell_formula_units_Z 112
_cell_length_a 14.413434
_cell_length_b 23.367119
_cell_length_c 15.310184
_cell_angle_alpha 90.000000
_cell_angle_beta 90.000000
_cell_angle_gamma 90.000000
_cell_volume 5156.476516
_symmetry_space_group_name_H-M "C M M A"
_symmetry_group_IT_number 67
_symmetry_cell_setting 'orthorhombic'
loop_
_space_group_symop_operation_xyz
x,y,z
-x,1/2-y,z
x,-y,-z
-x,1/2+y,-z
-x,-y,-z
x,1/2+y,-z
-x,y,z
x,1/2-y,z
1/2+x,1/2+y,z
1/2-x,-y,z
1/2+x,1/2-y,-z
1/2-x,y,-z
1/2-x,1/2-y,-z
1/2+x,y,-z
1/2-x,1/2+y,z
1/2+x,-y,z
loop_
_atom_site_type_symbol
_atom_site_label
_atom_site_fract_x
_atom_site_fract_y
_atom_site_fract_z
Si Si1 0.360155 0.509029 0.398684
Si Si2 0.609385 0.084485 0.981208
Si Si3 0.107242 0.866335 0.690792
Si Si4 0.277938 0.942063 0.853514
Si Si5 0.896595 0.396093 0.707088
Si Si6 0.776247 0.183503 0.593641
Si Si7 0.110080 0.186577 0.123117
O O1 0.392138 0.500000 0.500000
O O2 0.250000 0.500000 0.401684
O O3 0.380312 0.570302 0.351774
O O4 0.398776 0.457770 0.339473
O O5 0.500000 0.073431 0.963462
O O6 0.685769 0.062258 0.912938
O O7 0.627936 0.152564 0.966955
O O8 0.639677 0.060051 0.074285
O O9 0.181866 0.825061 0.647121
O O10 0.125821 0.855799 0.794280
O O11 0.000000 0.850076 0.675700
O O12 0.318459 0.899158 0.782074
O O13 0.250000 0.000000 0.803604
O O14 0.859425 0.350639 0.637615
O O15 0.000000 0.382786 0.739835
O O16 0.799767 0.250000 0.585042
O O17 0.750000 0.157934 0.500000
O O18 0.152908 0.250000 0.130990
O O19 0.000000 0.193807 0.124678
#
# Coordination Sequence:
#
# PCOD9504241 Si02
#       7
#    16  16  16  16  16  16  16
#     4  11  23  41  64  93 133 174 220 281 347 415
#     4  10  21  40  66  93 129 177 226 277 344 415
#     4  11  22  38  64  97 130 169 220 277 344 410
#     4  11  25  42  61  96 138 175 224 284 342 416
#     4  12  26  44  68  97 137 182 231 285 344 418
#     4  11  25  44  66  95 133 178 227 281 342 411
#     4   9  19  36  60  91 125 162 212 275 334 394
#
# _framework density 21.720258000000001
#
# number of rings (size 3 to 8) (size 9 to 14) (size 15 to 20)
#    0.000    1.286    1.429    4.286    2.000    5.714 
#    0.000    3.571    0.000    1.714    0.000    0.000 
#    0.000    0.000    0.000    0.000    0.000    0.000 
#
# Total GULP energy -312095.428625 kJ/mol
# GULP energy per Si atom -5573.132654 kJ/mol
# Density = 2.167082 g / cm^3
# Si number density = 21.720258 Si / 1000 Ang^3
#
#
#
# Elastic Constant Matrix: (Units=GPa)
#
#
# Indices 1 2 3 4 5 6 
#
# 1 129.2073 14.2680 19.2223 0.0000 0.0000 0.0000
# 2 14.2680 90.0224 23.3728 0.0000 0.0000 0.0000
# 3 19.2223 23.3728 67.1602 0.0000 0.0000 0.0000
# 4 0.0000 0.0000 0.0000 -38.0981 0.0000 0.0000
# 5 0.0000 0.0000 0.0000 0.0000 19.4541 0.0000
# 6 0.0000 0.0000 0.0000 0.0000 0.0000 13.2718
#
#
#
# Elastic Compliance Matrix: (Units=1/GPa)
#
#
# Indices 1 2 3 4 5 6 
#
# 1 0.008130 -0.000752 -0.002065 0.000000 0.000000 0.000000
# 2 -0.000752 0.012281 -0.004059 0.000000 0.000000 0.000000
# 3 -0.002065 -0.004059 0.016893 0.000000 0.000000 0.000000
# 4 0.000000 0.000000 0.000000 -0.026248 0.000000 0.000000
# 5 0.000000 0.000000 0.000000 0.000000 0.051403 0.000000
# 6 0.000000 0.000000 0.000000 0.000000 0.000000 0.075348
#
#
# Mechanical properties :
#
#
# Convention : Reuss Voigt Hill
#
# Bulk Modulus (GPa) = 42.45897 44.45735 43.45816
# Shear Modulus (GPa) = 31.36562 14.22735 22.79649
#
# Velocity S-wave (km/s) = 3.80422 2.56213 3.24319
# Velocity P-wave (km/s) = 6.23591 5.40974 5.83746
#
# Compressibility (1/GPa) = 0.02355215
#
# Stress axis : x y z
#
# Youngs Moduli (GPa) = 123.00422 81.42409 59.19497
#
# Poissons Ratio (x) = 0.06126 0.12224
# Poissons Ratio (y) = 0.09254 0.24026
# Poissons Ratio (z) = 0.25401 0.33048
#
# Static dielectric constant tensor:
#      x y z
#    x 1.796630 0.000000 0.000000 
#    y 0.000000 1.926000 0.000000 
#    z 0.000000 0.000000 1.843880 
# 
# From -- ./inp_files/27549.got.cif
#   From: 2010.05.17/outbox.cif.g08.bks.cpg/sg67_14_cif.got.tgz:27549.got - 2010.06.03 18:28:57.
