data_PCOD9504457
_publ_section_title
;
Structure prediction by ZEFSAII (Michael W. Deem and Ramdas Pophale) SiO2 
 PCOD9504457
Probable space group: C M M A
;
_chemical_formula_sum "Si O2"
_cell_formula_units_Z 80
_cell_length_a 26.540062
_cell_length_b 10.221307
_cell_length_c 16.818115
_cell_angle_alpha 90.000000
_cell_angle_beta 90.000000
_cell_angle_gamma 90.000000
_cell_volume 4562.319372
_symmetry_space_group_name_H-M "C M M A"
_symmetry_group_IT_number 67
_symmetry_cell_setting 'orthorhombic'
loop_
_space_group_symop_operation_xyz
x,y,z
-x,1/2-y,z
x,-y,-z
-x,1/2+y,-z
-x,-y,-z
x,1/2+y,-z
-x,y,z
x,1/2-y,z
1/2+x,1/2+y,z
1/2-x,-y,z
1/2+x,1/2-y,-z
1/2-x,y,-z
1/2-x,1/2-y,-z
1/2+x,y,-z
1/2-x,1/2+y,z
1/2+x,-y,z
loop_
_atom_site_type_symbol
_atom_site_label
_atom_site_fract_x
_atom_site_fract_y
_atom_site_fract_z
Si Si1 0.061012 0.250000 0.113362
Si Si2 0.204226 0.596331 0.255650
Si Si3 0.560125 0.750000 0.926173
Si Si4 0.403282 0.479993 0.186222
Si Si5 0.661059 0.597133 0.567541
Si Si6 0.944489 0.407876 0.643135
O O1 0.084574 0.377391 0.153771
O O2 0.000000 0.250000 0.122398
O O3 0.072504 0.250000 0.019286
O O4 0.213831 0.750000 0.238105
O O5 0.250000 0.500000 0.237358
O O6 0.154349 0.548868 0.209753
O O7 0.191155 0.587708 0.349717
O O8 0.500000 0.750000 0.919271
O O9 0.580471 0.876109 0.880177
O O10 0.434381 0.456534 0.267513
O O11 0.680266 0.500000 0.500000
O O12 0.661568 0.750000 0.542662
O O13 0.603485 0.556479 0.589637
O O14 0.943732 0.250000 0.647090
O O15 0.000000 0.450283 0.615550
#
# Coordination Sequence:
#
# PCOD9504457 Si02
#       6
#     8  16   8  16  16  16
#     4  11  24  34  53  93 126 149 181 227 281 329
#     4  10  22  40  63  85 106 146 196 237 286 336
#     4  11  20  36  61  85 116 157 187 219 275 341
#     4  11  20  37  57  83 117 150 191 235 275 333
#     4   9  19  35  52  79 112 141 181 228 277 334
#     4   9  16  30  54  76 103 151 194 222 265 332
#
# _framework density 17.534941
#
# number of rings (size 3 to 8) (size 9 to 14) (size 15 to 20)
#    0.000    2.000    2.000    3.600    1.400    3.200 
#    5.400    2.000    0.000    3.600    0.000    0.000 
#    0.000    0.000    0.000    0.000    0.000    0.000 
#
# Total GULP energy -223244.061225 kJ/mol
# GULP energy per Si atom -5581.101531 kJ/mol
# Density = 1.749503 g / cm^3
# Si number density = 17.534941 Si / 1000 Ang^3
#
#
#
# Elastic Constant Matrix: (Units=GPa)
#
#
# Indices 1 2 3 4 5 6 
#
# 1 77.1156 36.8526 12.0714 0.0000 0.0000 0.0000
# 2 36.8526 105.3081 32.5073 0.0000 0.0000 0.0000
# 3 12.0714 32.5073 61.8203 0.0000 0.0000 0.0000
# 4 0.0000 0.0000 0.0000 81.6268 0.0000 0.0000
# 5 0.0000 0.0000 0.0000 0.0000 0.7415 0.0000
# 6 0.0000 0.0000 0.0000 0.0000 0.0000 -152.8039
#
#
#
# Elastic Compliance Matrix: (Units=1/GPa)
#
#
# Indices 1 2 3 4 5 6 
#
# 1 0.015574 -0.005386 -0.000209 0.000000 0.000000 0.000000
# 2 -0.005386 0.013198 -0.005889 0.000000 0.000000 0.000000
# 3 -0.000209 -0.005889 0.019313 0.000000 0.000000 0.000000
# 4 0.000000 0.000000 0.000000 0.012251 0.000000 0.000000
# 5 0.000000 0.000000 0.000000 0.000000 1.348579 0.000000
# 6 0.000000 0.000000 0.000000 0.000000 0.000000 -0.006544
#
#
# Mechanical properties :
#
#
# Convention : Reuss Voigt Hill
#
# Bulk Modulus (GPa) = 39.81051 45.23406 42.52228
# Shear Modulus (GPa) = 3.48745 -3.23293 0.12726
#
# Velocity S-wave (km/s) = 1.41180 -1.35931 0.26969
# Velocity P-wave (km/s) = 5.04087 4.83621 4.93960
#
# Compressibility (1/GPa) = 0.02511899
#
# Stress axis : x y z
#
# Youngs Moduli (GPa) = 64.20970 75.76709 51.77817
#
# Poissons Ratio (x) = 0.40805 0.01083
# Poissons Ratio (y) = 0.34580 0.30490
# Poissons Ratio (z) = 0.01343 0.44616
#
# Static dielectric constant tensor:
#      x y z
#    x 1.612790 0.000000 0.000000 
#    y 0.000000 1.626060 0.000000 
#    z 0.000000 0.000000 1.573460 
# 
# From -- ./inp_files/32189.got.cif
#   From: 2010.05.17/outbox.cif.g08.bks.cpg/sg67_17_cif.got.tgz:32189.got - 2010.06.03 18:28:57.
