data_PCOD9504885
_publ_section_title
;
Structure prediction by ZEFSAII (Michael W. Deem and Ramdas Pophale) SiO2 
 PCOD9504885
Probable space group: C M M A
;
_chemical_formula_sum "Si O2"
_cell_formula_units_Z 80
_cell_length_a 10.247978
_cell_length_b 17.619404
_cell_length_c 25.264868
_cell_angle_alpha 90.000000
_cell_angle_beta 90.000000
_cell_angle_gamma 90.000000
_cell_volume 4561.907045
_symmetry_space_group_name_H-M "C M M A"
_symmetry_group_IT_number 67
_symmetry_cell_setting 'orthorhombic'
loop_
_space_group_symop_operation_xyz
x,y,z
-x,1/2-y,z
x,-y,-z
-x,1/2+y,-z
-x,-y,-z
x,1/2+y,-z
-x,y,z
x,1/2-y,z
1/2+x,1/2+y,z
1/2-x,-y,z
1/2+x,1/2-y,-z
1/2-x,y,-z
1/2-x,1/2-y,-z
1/2+x,y,-z
1/2-x,1/2+y,z
1/2+x,-y,z
loop_
_atom_site_type_symbol
_atom_site_label
_atom_site_fract_x
_atom_site_fract_y
_atom_site_fract_z
Si Si1 0.735227 0.591479 0.618045
Si Si2 0.500000 0.158323 0.449835
Si Si3 0.850397 0.841164 0.044696
Si Si4 0.652762 0.571630 0.731353
Si Si5 0.347589 0.070867 0.151993
Si Si6 0.000000 0.659593 0.574636
O O1 0.750000 0.500000 0.615770
O O2 0.625862 0.621998 0.578105
O O3 0.692640 0.613984 0.677733
O O4 0.872434 0.626425 0.602049
O O5 0.500000 0.250000 0.443607
O O6 0.500000 0.140664 0.512193
O O7 0.841970 0.750000 0.047468
O O8 0.822090 0.875129 0.102365
O O9 0.000000 0.861081 0.030670
O O10 0.750000 0.868287 0.000000
O O11 0.500000 0.549282 0.725604
O O12 0.750000 0.500000 0.733108
O O13 0.666802 0.608204 0.789585
O O14 0.500000 0.046250 0.148759
O O15 0.250000 0.000000 0.148898
O O16 0.000000 0.750000 0.578903
#
# Coordination Sequence:
#
# PCOD9504885 Si02
#       6
#    16   8  16  16  16   8
#     4  11  22  37  61  87 109 142 189 233 272 325
#     4  11  23  41  59  81 113 149 184 223 278 337
#     4   9  18  33  52  73 103 141 179 220 265 311
#     4   9  18  33  55  82 109 139 176 223 274 319
#     4   9  18  33  53  79 106 138 176 216 265 317
#     4  11  25  41  57  79 117 153 176 221 288 339
#
# _framework density 17.536525000000001
#
# number of rings (size 3 to 8) (size 9 to 14) (size 15 to 20)
#    0.000    2.200    1.000    1.800    4.200    5.200 
#    0.000    4.000    0.000    0.000    0.000    0.000 
#    0.000    0.000    0.000    0.000    0.000    0.000 
#
# Total GULP energy -222941.234016 kJ/mol
# GULP energy per Si atom -5573.530850 kJ/mol
# Density = 1.749661 g / cm^3
# Si number density = 17.536525 Si / 1000 Ang^3
#
#
#
# Elastic Constant Matrix: (Units=GPa)
#
#
# Indices 1 2 3 4 5 6 
#
# 1 139.8142 34.8858 95.8882 0.0000 0.0000 0.0000
# 2 34.8858 31.1581 46.4170 0.0000 0.0000 0.0000
# 3 95.8882 46.4170 178.2763 0.0000 0.0000 0.0000
# 4 0.0000 0.0000 0.0000 217.9884 0.0000 0.0000
# 5 0.0000 0.0000 0.0000 0.0000 34.9572 0.0000
# 6 0.0000 0.0000 0.0000 0.0000 0.0000 22.4854
#
#
#
# Elastic Compliance Matrix: (Units=1/GPa)
#
#
# Indices 1 2 3 4 5 6 
#
# 1 0.012037 -0.006260 -0.004844 0.000000 0.000000 0.000000
# 2 -0.006260 0.055687 -0.011132 0.000000 0.000000 0.000000
# 3 -0.004844 -0.011132 0.011113 0.000000 0.000000 0.000000
# 4 0.000000 0.000000 0.000000 0.004587 0.000000 0.000000
# 5 0.000000 0.000000 0.000000 0.000000 0.028606 0.000000
# 6 0.000000 0.000000 0.000000 0.000000 0.000000 0.044473
#
#
# Mechanical properties :
#
#
# Convention : Reuss Voigt Hill
#
# Bulk Modulus (GPa) = 29.09998 78.18117 53.64057
# Shear Modulus (GPa) = 23.53709 66.55671 45.04690
#
# Velocity S-wave (km/s) = 3.66755 6.16730 5.07378
# Velocity P-wave (km/s) = 5.87916 9.76692 8.06093
#
# Compressibility (1/GPa) = 0.03436429
#
# Stress axis : x y z
#
# Youngs Moduli (GPa) = 83.08019 17.95753 89.98428
#
# Poissons Ratio (x) = 0.11242 0.43589
# Poissons Ratio (y) = 0.52010 1.00169
# Poissons Ratio (z) = 0.40245 0.19990
#
# Static dielectric constant tensor:
#      x y z
#    x 1.620370 0.000000 0.000000 
#    y 0.000000 1.568430 0.000000 
#    z 0.000000 0.000000 1.623870 
# 
# From -- ./inp_files/43368.got.cif
#   From: 2010.05.17/outbox.cif.g08.bks.cpg/sg67_22_cif.got.tgz:43368.got - 2010.06.03 18:28:57.
