data_PCOD9504023
_publ_section_title
;
Structure prediction by ZEFSAII (Michael W. Deem and Ramdas Pophale) SiO2 
 PCOD9504023
Probable space group: C M M A
;
_chemical_formula_sum "Si O2"
_cell_formula_units_Z 88
_cell_length_a 24.601549
_cell_length_b 27.526150
_cell_length_c 6.081722
_cell_angle_alpha 90.000000
_cell_angle_beta 90.000000
_cell_angle_gamma 90.000000
_cell_volume 4118.456556
_symmetry_space_group_name_H-M "C M M A"
_symmetry_group_IT_number 67
_symmetry_cell_setting 'orthorhombic'
loop_
_space_group_symop_operation_xyz
x,y,z
-x,1/2-y,z
x,-y,-z
-x,1/2+y,-z
-x,-y,-z
x,1/2+y,-z
-x,y,z
x,1/2-y,z
1/2+x,1/2+y,z
1/2-x,-y,z
1/2+x,1/2-y,-z
1/2-x,y,-z
1/2-x,1/2-y,-z
1/2+x,y,-z
1/2-x,1/2+y,z
1/2+x,-y,z
loop_
_atom_site_type_symbol
_atom_site_label
_atom_site_fract_x
_atom_site_fract_y
_atom_site_fract_z
Si Si1 0.400937 0.000000 0.500000
Si Si2 0.387277 0.807212 0.646140
Si Si3 0.384066 0.098496 0.669364
Si Si4 0.277377 0.750000 0.255121
Si Si5 0.000000 0.394440 0.144767
Si Si6 0.812257 0.659190 0.962721
Si Si7 0.000000 0.465002 0.792338
Si Si8 0.000000 0.304445 0.911352
O O1 0.365991 0.046268 0.577956
O O2 0.444062 0.023769 0.329917
O O3 0.383943 0.750000 0.569569
O O4 0.384921 0.854629 0.489800
O O5 0.339191 0.816066 0.824053
O O6 0.445191 0.811207 0.771602
O O7 0.446078 0.088392 0.739145
O O8 0.349640 0.115663 0.879084
O O9 0.250000 0.750000 0.500000
O O10 0.309770 0.799929 0.228677
O O11 0.250000 0.750000 0.000000
O O12 0.000000 0.337107 0.127589
O O13 0.000000 0.411385 0.891819
O O14 0.750000 0.643845 0.000000
O O15 0.000000 0.500000 0.000000
O O16 0.000000 0.250000 0.992182
#
# Coordination Sequence:
#
# PCOD9504023 Si02
#       8
#     8  16  16   8   8  16   8   8
#     4  11  24  42  64 107 128 182 231 281 366 416
#     4  11  24  43  67 101 140 185 226 282 349 433
#     4  12  26  39  70  99 138 180 226 294 350 439
#     4  10  24  44  74 103 138 179 244 318 361 414
#     4  12  21  41  65 103 132 180 221 284 358 412
#     4  11  26  43  68 102 131 182 239 298 362 413
#     4  11  20  40  71  95 136 163 230 303 334 412
#     4  10  21  38  59  92 145 179 212 254 337 443
#
# _framework density 21.367225999999999
#
# number of rings (size 3 to 8) (size 9 to 14) (size 15 to 20)
#    0.000    0.909    4.545    2.182    6.364    0.727 
#    0.000    0.000    0.000    3.273    0.000    0.000 
#    0.000    0.000    0.000    0.000    0.000    0.000 
#
# Total GULP energy -245467.245770 kJ/mol
# GULP energy per Si atom -5578.801040 kJ/mol
# Density = 2.131859 g / cm^3
# Si number density = 21.367226 Si / 1000 Ang^3
#
#
#
# Elastic Constant Matrix: (Units=GPa)
#
#
# Indices 1 2 3 4 5 6 
#
# 1 99.0596 20.4814 16.1005 0.0000 0.0000 0.0000
# 2 20.4814 140.8849 32.4870 0.0000 0.0000 0.0000
# 3 16.1005 32.4870 59.7746 0.0000 0.0000 0.0000
# 4 0.0000 0.0000 0.0000 47.8166 0.0000 0.0000
# 5 0.0000 0.0000 0.0000 0.0000 18.6535 0.0000
# 6 0.0000 0.0000 0.0000 0.0000 0.0000 -21.8953
#
#
#
# Elastic Compliance Matrix: (Units=1/GPa)
#
#
# Indices 1 2 3 4 5 6 
#
# 1 0.010683 -0.001017 -0.002325 0.000000 0.000000 0.000000
# 2 -0.001017 0.008212 -0.004189 0.000000 0.000000 0.000000
# 3 -0.002325 -0.004189 0.019632 0.000000 0.000000 0.000000
# 4 0.000000 0.000000 0.000000 0.020913 0.000000 0.000000
# 5 0.000000 0.000000 0.000000 0.000000 0.053609 0.000000
# 6 0.000000 0.000000 0.000000 0.000000 0.000000 -0.045672
#
#
# Mechanical properties :
#
#
# Convention : Reuss Voigt Hill
#
# Bulk Modulus (GPa) = 42.61572 48.65076 45.63324
# Shear Modulus (GPa) = 55.39464 24.29166 39.84315
#
# Velocity S-wave (km/s) = 5.09719 3.37540 4.32288
# Velocity P-wave (km/s) = 7.39118 6.16518 6.80584
#
# Compressibility (1/GPa) = 0.02346552
#
# Stress axis : x y z
#
# Youngs Moduli (GPa) = 93.60613 121.77565 50.93608
#
# Poissons Ratio (x) = 0.12384 0.11842
# Poissons Ratio (y) = 0.09520 0.21338
# Poissons Ratio (z) = 0.21761 0.51013
#
# Static dielectric constant tensor:
#      x y z
#    x 1.817470 0.000000 0.000000 
#    y 0.000000 1.876190 0.000000 
#    z 0.000000 0.000000 1.856920 
# 
# From -- ./inp_files/4316.got.cif
#   From: 2010.05.17/outbox.cif.g08.bks.cpg/sg67_3_cif.got.tgz:4316.got - 2010.06.03 18:28:57.
