data_PCOD9504027
_publ_section_title
;
Structure prediction by ZEFSAII (Michael W. Deem and Ramdas Pophale) SiO2 
 PCOD9504027
Probable space group: C M M A
;
_chemical_formula_sum "Si O2"
_cell_formula_units_Z 88
_cell_length_a 17.603050
_cell_length_b 8.068786
_cell_length_c 30.884514
_cell_angle_alpha 90.000000
_cell_angle_beta 90.000000
_cell_angle_gamma 90.000000
_cell_volume 4386.689463
_symmetry_space_group_name_H-M "C M M A"
_symmetry_group_IT_number 67
_symmetry_cell_setting 'orthorhombic'
loop_
_space_group_symop_operation_xyz
x,y,z
-x,1/2-y,z
x,-y,-z
-x,1/2+y,-z
-x,-y,-z
x,1/2+y,-z
-x,y,z
x,1/2-y,z
1/2+x,1/2+y,z
1/2-x,-y,z
1/2+x,1/2-y,-z
1/2-x,y,-z
1/2-x,1/2-y,-z
1/2+x,y,-z
1/2-x,1/2+y,z
1/2+x,-y,z
loop_
_atom_site_type_symbol
_atom_site_label
_atom_site_fract_x
_atom_site_fract_y
_atom_site_fract_z
Si Si1 0.662006 0.049467 0.906378
Si Si2 0.586619 0.047725 0.720872
Si Si3 0.834992 0.050525 0.192729
Si Si4 0.585437 0.553146 0.545304
Si Si5 0.835925 0.947149 0.633607
Si Si6 0.500000 0.949715 0.049991
O O1 0.662346 0.250000 0.908004
O O2 0.652097 0.991663 0.856411
O O3 0.583125 0.994891 0.930408
O O4 0.750000 0.000000 0.919822
O O5 0.500000 0.003595 0.713723
O O6 0.592353 0.250000 0.721934
O O7 0.613187 0.989044 0.768086
O O8 0.632814 0.986293 0.679379
O O9 0.841424 0.250000 0.190897
O O10 0.750000 0.000000 0.204585
O O11 0.623556 0.500000 0.500000
O O12 0.500000 0.481032 0.545063
O O13 0.581605 0.750000 0.544409
O O14 0.622366 0.503152 0.590269
O O15 0.842633 0.750000 0.635564
O O16 0.750000 0.000000 0.629568
O O17 0.500000 0.750000 0.054697
O O18 0.500000 0.000000 0.000000
#
# Coordination Sequence:
#
# PCOD9504027 Si02
#       6
#    16  16  16  16  16   8
#     4   9  19  35  56  82 112 147 188 235 286 340
#     4   9  18  31  51  79 106 137 177 218 263 316
#     4   9  17  31  53  78 106 139 176 220 267 321
#     4  10  21  38  60  84 108 136 172 216 267 321
#     4  11  22  36  54  77 108 143 179 220 263 315
#     4  10  22  38  56  82 112 148 192 238 287 340
#
# _framework density 20.060686
#
# number of rings (size 3 to 8) (size 9 to 14) (size 15 to 20)
#    0.000    2.364    0.000    2.182    1.273    3.273 
#    0.000    4.545    0.000    2.727    0.000    0.000 
#    0.000    0.000    0.000    0.000    0.000    0.000 
#
# Total GULP energy -245139.708176 kJ/mol
# GULP energy per Si atom -5571.357004 kJ/mol
# Density = 2.001503 g / cm^3
# Si number density = 20.060686 Si / 1000 Ang^3
#
#
#
# Elastic Constant Matrix: (Units=GPa)
#
#
# Indices 1 2 3 4 5 6 
#
# 1 130.6117 3.3763 82.7918 0.0000 0.0000 0.0000
# 2 3.3763 21.7003 9.4533 0.0000 0.0000 0.0000
# 3 82.7918 9.4533 121.1202 0.0000 0.0000 0.0000
# 4 0.0000 0.0000 0.0000 14.4425 0.0000 0.0000
# 5 0.0000 0.0000 0.0000 0.0000 72.8052 0.0000
# 6 0.0000 0.0000 0.0000 0.0000 0.0000 2.6438
#
#
#
# Elastic Compliance Matrix: (Units=1/GPa)
#
#
# Indices 1 2 3 4 5 6 
#
# 1 0.013593 0.002001 -0.009448 0.000000 0.000000 0.000000
# 2 0.002001 0.047999 -0.005114 0.000000 0.000000 0.000000
# 3 -0.009448 -0.005114 0.015114 0.000000 0.000000 0.000000
# 4 0.000000 0.000000 0.000000 0.069240 0.000000 0.000000
# 5 0.000000 0.000000 0.000000 0.000000 0.013735 0.000000
# 6 0.000000 0.000000 0.000000 0.000000 0.000000 0.378250
#
#
# Mechanical properties :
#
#
# Convention : Reuss Voigt Hill
#
# Bulk Modulus (GPa) = 19.38596 51.63055 35.50826
# Shear Modulus (GPa) = 8.61700 29.83235 19.22468
#
# Velocity S-wave (km/s) = 2.07480 3.86048 3.09904
# Velocity P-wave (km/s) = 3.92739 6.75753 5.52669
#
# Compressibility (1/GPa) = 0.05158372
#
# Stress axis : x y z
#
# Youngs Moduli (GPa) = 73.56506 20.83384 66.16578
#
# Poissons Ratio (x) = -0.04169 0.62513
# Poissons Ratio (y) = -0.14719 0.33837
# Poissons Ratio (z) = 0.69504 0.10654
#
# Static dielectric constant tensor:
#      x y z
#    x 1.706730 0.000000 0.000000 
#    y 0.000000 1.719310 0.000000 
#    z 0.000000 0.000000 1.723520 
# 
# From -- ./inp_files/45761.got.cif
#   From: 2010.05.17/outbox.cif.g08.bks.cpg/sg67_23_cif.got.tgz:45761.got - 2010.06.03 18:28:57.
