data_PCOD9504908
_publ_section_title
;
Structure prediction by ZEFSAII (Michael W. Deem and Ramdas Pophale) SiO2 
 PCOD9504908
Probable space group: C M M A
;
_chemical_formula_sum "Si O2"
_cell_formula_units_Z 96
_cell_length_a 21.224415
_cell_length_b 14.072707
_cell_length_c 15.783736
_cell_angle_alpha 90.000000
_cell_angle_beta 90.000000
_cell_angle_gamma 90.000000
_cell_volume 4714.364770
_symmetry_space_group_name_H-M "C M M A"
_symmetry_group_IT_number 67
_symmetry_cell_setting 'orthorhombic'
loop_
_space_group_symop_operation_xyz
x,y,z
-x,1/2-y,z
x,-y,-z
-x,1/2+y,-z
-x,-y,-z
x,1/2+y,-z
-x,y,z
x,1/2-y,z
1/2+x,1/2+y,z
1/2-x,-y,z
1/2+x,1/2-y,-z
1/2-x,y,-z
1/2-x,1/2-y,-z
1/2+x,y,-z
1/2-x,1/2+y,z
1/2+x,-y,z
loop_
_atom_site_type_symbol
_atom_site_label
_atom_site_fract_x
_atom_site_fract_y
_atom_site_fract_z
Si Si1 0.178939 0.472677 0.635130
Si Si2 0.152506 0.861104 0.069384
Si Si3 0.201163 0.639961 0.882629
Si Si4 0.000000 0.107185 0.466399
Si Si5 0.000000 0.365146 0.262117
Si Si6 0.885430 0.503014 0.796335
Si Si7 0.859078 0.645661 0.519600
O O1 0.250000 0.500000 0.657419
O O2 0.134356 0.445119 0.712943
O O3 0.177208 0.392787 0.562589
O O4 0.150012 0.567033 0.591816
O O5 0.135027 0.750000 0.079026
O O6 0.224645 0.872571 0.102145
O O7 0.109366 0.931543 0.124014
O O8 0.162055 0.880342 0.969369
O O9 0.190761 0.750000 0.861427
O O10 0.174480 0.569697 0.814317
O O11 0.066171 0.147880 0.498517
O O12 0.000000 0.120182 0.364161
O O13 0.000000 0.000000 0.500000
O O14 0.058857 0.423112 0.222803
O O15 0.000000 0.250000 0.246111
O O16 0.837960 0.750000 0.545686
#
# Coordination Sequence:
#
# PCOD9504908 Si02
#       7
#    16  16  16   8   8  16  16
#     4  11  24  38  56  89 121 146 189 243 300 364
#     4   9  19  36  60  91 124 159 197 243 296 363
#     4   9  18  35  61  92 123 156 200 244 295 358
#     4  12  20  42  66  86 110 152 201 251 293 346
#     4  12  26  42  60  87 119 153 206 261 301 354
#     4  12  22  38  60  85 119 160 200 249 303 354
#     4  11  22  39  61  82 113 155 194 237 292 349
#
# _framework density 20.363295000000001
#
# number of rings (size 3 to 8) (size 9 to 14) (size 15 to 20)
#    0.000    1.333    3.333    5.250    0.000    4.000 
#    0.000    2.083    0.000    2.000    0.000    0.000 
#    0.000    0.000    0.000    0.000    0.000    0.000 
#
# Total GULP energy -267931.601116 kJ/mol
# GULP energy per Si atom -5581.908357 kJ/mol
# Density = 2.031695 g / cm^3
# Si number density = 20.363295 Si / 1000 Ang^3
#
#
#
# Elastic Constant Matrix: (Units=GPa)
#
#
# Indices 1 2 3 4 5 6 
#
# 1 58.8986 18.0224 8.7565 0.0000 0.0000 0.0000
# 2 18.0224 84.8773 24.1357 0.0000 0.0000 0.0000
# 3 8.7565 24.1357 49.7794 0.0000 0.0000 0.0000
# 4 0.0000 0.0000 0.0000 9.5825 0.0000 0.0000
# 5 0.0000 0.0000 0.0000 0.0000 21.7705 0.0000
# 6 0.0000 0.0000 0.0000 0.0000 0.0000 13.8010
#
#
#
# Elastic Compliance Matrix: (Units=1/GPa)
#
#
# Indices 1 2 3 4 5 6 
#
# 1 0.018260 -0.003438 -0.001545 0.000000 0.000000 0.000000
# 2 -0.003438 0.014313 -0.006335 0.000000 0.000000 0.000000
# 3 -0.001545 -0.006335 0.023432 0.000000 0.000000 0.000000
# 4 0.000000 0.000000 0.000000 0.104357 0.000000 0.000000
# 5 0.000000 0.000000 0.000000 0.000000 0.045934 0.000000
# 6 0.000000 0.000000 0.000000 0.000000 0.000000 0.072459
#
#
# Mechanical properties :
#
#
# Convention : Reuss Voigt Hill
#
# Bulk Modulus (GPa) = 29.96796 32.82051 31.39424
# Shear Modulus (GPa) = 15.99931 18.54018 17.26974
#
# Velocity S-wave (km/s) = 2.80606 3.02067 2.91534
# Velocity P-wave (km/s) = 5.02467 5.32151 5.17521
#
# Compressibility (1/GPa) = 0.03336897
#
# Stress axis : x y z
#
# Youngs Moduli (GPa) = 54.76455 69.86609 42.67670
#
# Poissons Ratio (x) = 0.24019 0.06594
# Poissons Ratio (y) = 0.18827 0.27036
# Poissons Ratio (z) = 0.08462 0.44260
#
# Static dielectric constant tensor:
#      x y z
#    x 1.739230 0.000000 0.000000 
#    y 0.000000 1.737010 0.000000 
#    z 0.000000 0.000000 1.730290 
# 
# From -- ./inp_files/29360.got.cif
#   From: 2010.05.17/outbox.cif.g08.bks.cpg/sg67_15_cif.got.tgz:29360.got - 2010.06.03 18:28:57.
