data_PCOD9504430
_publ_section_title
;
Structure prediction by ZEFSAII (Michael W. Deem and Ramdas Pophale) SiO2 
 PCOD9504430
Probable space group: C M M A
;
_chemical_formula_sum "Si O2"
_cell_formula_units_Z 96
_cell_length_a 16.153833
_cell_length_b 24.194175
_cell_length_c 12.629928
_cell_angle_alpha 90.000000
_cell_angle_beta 90.000000
_cell_angle_gamma 90.000000
_cell_volume 4936.137868
_symmetry_space_group_name_H-M "C M M A"
_symmetry_group_IT_number 67
_symmetry_cell_setting 'orthorhombic'
loop_
_space_group_symop_operation_xyz
x,y,z
-x,1/2-y,z
x,-y,-z
-x,1/2+y,-z
-x,-y,-z
x,1/2+y,-z
-x,y,z
x,1/2-y,z
1/2+x,1/2+y,z
1/2-x,-y,z
1/2+x,1/2-y,-z
1/2-x,y,-z
1/2-x,1/2-y,-z
1/2+x,y,-z
1/2-x,1/2+y,z
1/2+x,-y,z
loop_
_atom_site_type_symbol
_atom_site_label
_atom_site_fract_x
_atom_site_fract_y
_atom_site_fract_z
Si Si1 0.151159 0.062286 0.009047
Si Si2 0.331856 0.250000 0.077172
Si Si3 0.148289 0.938158 0.615404
Si Si4 0.152170 0.936732 0.368097
Si Si5 0.596853 0.357617 0.178477
Si Si6 0.595071 0.250000 0.858034
Si Si7 0.903958 0.867005 0.798816
O O1 0.112134 0.100071 0.918212
O O2 0.250000 0.061482 0.000000
O O3 0.134358 0.089208 0.121732
O O4 0.119501 0.000000 0.000000
O O5 0.346903 0.195607 0.148409
O O6 0.250000 0.250000 0.000000
O O7 0.401426 0.250000 0.984849
O O8 0.128817 0.930179 0.491628
O O9 0.247595 0.935107 0.631899
O O10 0.106725 0.890545 0.682743
O O11 0.124820 0.999887 0.655444
O O12 0.119935 0.891393 0.285408
O O13 0.500000 0.341654 0.182619
O O14 0.500000 0.250000 0.820855
O O15 0.634309 0.193416 0.816538
O O16 0.000000 0.863278 0.828054
#
# Coordination Sequence:
#
# PCOD9504430 Si02
#       7
#    16   8  16  16  16   8  16
#     4  11  23  37  55  83 118 154 195 245 299 361
#     4  12  26  42  63  87 116 163 208 242 297 363
#     4   9  19  39  62  87 121 158 204 245 295 362
#     4   9  20  38  62  88 119 162 198 246 302 359
#     4  12  24  39  60  88 123 157 197 253 310 363
#     4  10  22  40  57  81 115 154 192 239 295 348
#     4  11  22  36  58  84 115 152 195 247 299 355
#
# _framework density 19.448404
#
# number of rings (size 3 to 8) (size 9 to 14) (size 15 to 20)
#    0.000    1.500    1.667    4.750    2.333    6.667 
#    0.000    2.500    0.000    4.000    0.000    0.000 
#    0.000    0.000    0.000    0.000    0.000    0.000 
#
# Total GULP energy -267976.204288 kJ/mol
# GULP energy per Si atom -5582.837589 kJ/mol
# Density = 1.940414 g / cm^3
# Si number density = 19.448404 Si / 1000 Ang^3
#
#
#
# Elastic Constant Matrix: (Units=GPa)
#
#
# Indices 1 2 3 4 5 6 
#
# 1 55.1064 19.5214 15.2003 0.0000 0.0000 0.0000
# 2 19.5214 148.3027 63.4815 0.0000 0.0000 0.0000
# 3 15.2003 63.4815 89.0291 0.0000 0.0000 0.0000
# 4 0.0000 0.0000 0.0000 82.4389 0.0000 0.0000
# 5 0.0000 0.0000 0.0000 0.0000 8.9932 0.0000
# 6 0.0000 0.0000 0.0000 0.0000 0.0000 1.5216
#
#
#
# Elastic Compliance Matrix: (Units=1/GPa)
#
#
# Indices 1 2 3 4 5 6 
#
# 1 0.019313 -0.001627 -0.002137 0.000000 0.000000 0.000000
# 2 -0.001627 0.009842 -0.006740 0.000000 0.000000 0.000000
# 3 -0.002137 -0.006740 0.016403 0.000000 0.000000 0.000000
# 4 0.000000 0.000000 0.000000 0.012130 0.000000 0.000000
# 5 0.000000 0.000000 0.000000 0.000000 0.111196 0.000000
# 6 0.000000 0.000000 0.000000 0.000000 0.000000 0.657190
#
#
# Mechanical properties :
#
#
# Convention : Reuss Voigt Hill
#
# Bulk Modulus (GPa) = 40.73459 54.31608 47.52533
# Shear Modulus (GPa) = 5.84613 31.53973 18.69293
#
# Velocity S-wave (km/s) = 1.73565 4.03142 3.10361
# Velocity P-wave (km/s) = 5.00071 7.04689 6.11006
#
# Compressibility (1/GPa) = 0.02454916
#
# Stress axis : x y z
#
# Youngs Moduli (GPa) = 51.77946 101.60187 60.96395
#
# Poissons Ratio (x) = 0.16535 0.13027
# Poissons Ratio (y) = 0.08427 0.41091
# Poissons Ratio (z) = 0.11065 0.68481
#
# Static dielectric constant tensor:
#      x y z
#    x 1.730190 0.000000 0.000000 
#    y 0.000000 1.711940 0.000000 
#    z 0.000000 0.000000 1.650490 
# 
# From -- ./inp_files/19730.got.cif
#   From: 2010.05.17/outbox.cif.g08.bks.cpg/sg67_10_cif.got.tgz:19730.got - 2010.06.03 18:28:57.
