data_PCOD9504261
_publ_section_title
;
Structure prediction by ZEFSAII (Michael W. Deem and Ramdas Pophale) SiO2 
 PCOD9504261
Probable space group: C M M A
;
_chemical_formula_sum "Si O2"
_cell_formula_units_Z 40
_cell_length_a 5.436093
_cell_length_b 23.733922
_cell_length_c 14.543724
_cell_angle_alpha 90.000000
_cell_angle_beta 90.000000
_cell_angle_gamma 90.000000
_cell_volume 1876.428467
_symmetry_space_group_name_H-M "C M M A"
_symmetry_group_IT_number 67
_symmetry_cell_setting 'orthorhombic'
loop_
_space_group_symop_operation_xyz
x,y,z
-x,1/2-y,z
x,-y,-z
-x,1/2+y,-z
-x,-y,-z
x,1/2+y,-z
-x,y,z
x,1/2-y,z
1/2+x,1/2+y,z
1/2-x,-y,z
1/2+x,1/2-y,-z
1/2-x,y,-z
1/2-x,1/2-y,-z
1/2+x,y,-z
1/2-x,1/2+y,z
1/2+x,-y,z
loop_
_atom_site_type_symbol
_atom_site_label
_atom_site_fract_x
_atom_site_fract_y
_atom_site_fract_z
Si Si1 0.000000 0.022427 0.105485
Si Si2 0.000000 0.140104 0.696948
Si Si3 0.500000 0.250000 0.942079
Si Si4 0.500000 0.750000 0.562075
Si Si5 0.000000 0.142099 0.184594
Si Si6 0.000000 0.564604 0.462376
O O1 0.000000 0.088797 0.116455
O O2 0.250000 0.000000 0.149574
O O3 0.000000 0.000000 0.000000
O O4 0.000000 0.193619 0.626652
O O5 0.251064 0.142015 0.755272
O O6 0.000000 0.079919 0.643861
O O7 0.250000 0.250000 0.000000
O O8 0.500000 0.303556 0.877430
O O9 0.250000 0.750000 0.500000
O O10 0.000000 0.500000 0.500000
O O11 0.750000 0.590910 0.500000
#
# Coordination Sequence:
#
# PCOD9504261 Si02
#       6
#     8   8   4   4   8   8
#     4  10  23  43  70  94 137 183 230 278 337 419
#     4  12  24  44  69 103 140 178 224 298 343 398
#     4  12  28  46  78 102 138 188 228 284 350 420
#     4  12  24  42  74 102 138 184 234 270 352 430
#     4  12  26  46  70 106 142 177 235 289 354 401
#     4  10  21  41  63  89 131 178 224 268 327 407
#
# _framework density 21.317091999999999
#
# number of rings (size 3 to 8) (size 9 to 14) (size 15 to 20)
#    0.000    0.800    0.000    7.200    5.600    0.000 
#   21.600    0.000    0.000    0.000    0.000    0.000 
#    0.000    0.000    0.000    0.000    0.000    0.000 
#
# Total GULP energy -111709.874894 kJ/mol
# GULP energy per Si atom -5585.493745 kJ/mol
# Density = 2.126857 g / cm^3
# Si number density = 21.317092 Si / 1000 Ang^3
#
#
#
# Elastic Constant Matrix: (Units=GPa)
#
#
# Indices 1 2 3 4 5 6 
#
# 1 256.1585 50.8116 86.6103 0.0000 0.0000 0.0000
# 2 50.8116 181.5494 80.7558 0.0000 0.0000 0.0000
# 3 86.6103 80.7558 129.0618 0.0000 0.0000 0.0000
# 4 0.0000 0.0000 0.0000 71.5045 0.0000 0.0000
# 5 0.0000 0.0000 0.0000 0.0000 -68.5444 0.0000
# 6 0.0000 0.0000 0.0000 0.0000 0.0000 -2.6387
#
#
#
# Elastic Compliance Matrix: (Units=1/GPa)
#
#
# Indices 1 2 3 4 5 6 
#
# 1 0.005052 0.000130 -0.003472 0.000000 0.000000 0.000000
# 2 0.000130 0.007636 -0.004865 0.000000 0.000000 0.000000
# 3 -0.003472 -0.004865 0.013122 0.000000 0.000000 0.000000
# 4 0.000000 0.000000 0.000000 0.013985 0.000000 0.000000
# 5 0.000000 0.000000 0.000000 0.000000 -0.014589 0.000000
# 6 0.000000 0.000000 0.000000 0.000000 0.000000 -0.378978
#
#
# Mechanical properties :
#
#
# Convention : Reuss Voigt Hill
#
# Bulk Modulus (GPa) = 106.42155 111.45834 108.93994
# Shear Modulus (GPa) = -14.95993 23.30374 4.17191
#
# Velocity S-wave (km/s) = -2.65199 3.30994 1.40047
# Velocity P-wave (km/s) = 6.37606 8.18578 7.33693
#
# Compressibility (1/GPa) = 0.00939659
#
# Stress axis : x y z
#
# Youngs Moduli (GPa) = 197.94918 130.96152 76.20588
#
# Poissons Ratio (x) = -0.01708 0.26457
# Poissons Ratio (y) = -0.02581 0.37077
# Poissons Ratio (z) = 0.68723 0.63717
#
# Static dielectric constant tensor:
#      x y z
#    x 1.613520 0.000000 0.000000 
#    y 0.000000 1.727590 0.000000 
#    z 0.000000 0.000000 1.665650 
# 
# From -- ./inp_files/15078.got.cif
#   From: 2010.05.17/outbox.cif.g08.bks.cpg/sg67_8_cif.got.tgz:15078.got - 2010.06.03 18:28:57.
