data_PCOD9504456
_publ_section_title
;
Structure prediction by ZEFSAII (Michael W. Deem and Ramdas Pophale) SiO2 
 PCOD9504456
Probable space group: C M M A
;
_chemical_formula_sum "Si O2"
_cell_formula_units_Z 80
_cell_length_a 19.167557
_cell_length_b 22.051249
_cell_length_c 9.887518
_cell_angle_alpha 90.000000
_cell_angle_beta 90.000000
_cell_angle_gamma 90.000000
_cell_volume 4179.143115
_symmetry_space_group_name_H-M "C M M A"
_symmetry_group_IT_number 67
_symmetry_cell_setting 'orthorhombic'
loop_
_space_group_symop_operation_xyz
x,y,z
-x,1/2-y,z
x,-y,-z
-x,1/2+y,-z
-x,-y,-z
x,1/2+y,-z
-x,y,z
x,1/2-y,z
1/2+x,1/2+y,z
1/2-x,-y,z
1/2+x,1/2-y,-z
1/2-x,y,-z
1/2-x,1/2-y,-z
1/2+x,y,-z
1/2-x,1/2+y,z
1/2+x,-y,z
loop_
_atom_site_type_symbol
_atom_site_label
_atom_site_fract_x
_atom_site_fract_y
_atom_site_fract_z
Si Si1 0.706375 0.862091 0.868054
Si Si2 0.717760 0.067187 0.635392
Si Si3 0.309922 0.250000 0.311630
Si Si4 0.076915 0.427248 0.995809
Si Si5 0.079873 0.879497 0.696542
Si Si6 0.145316 0.750000 0.616636
O O1 0.757758 0.898480 0.769115
O O2 0.675787 0.807928 0.780071
O O3 0.750000 0.841848 0.000000
O O4 0.642572 0.903523 0.913957
O O5 0.750000 0.096754 0.500000
O O6 0.634739 0.074458 0.627341
O O7 0.750000 0.000000 0.642351
O O8 0.226166 0.250000 0.337447
O O9 0.350093 0.250000 0.453492
O O10 0.080486 0.397905 0.145292
O O11 0.000000 0.411523 0.939199
O O12 0.080941 0.500000 0.000000
O O13 0.108333 0.811294 0.670166
O O14 0.000000 0.884306 0.649140
#
# Coordination Sequence:
#
# PCOD9504456 Si02
#       6
#    16  16   8  16  16   8
#     4  12  22  37  64  94 123 165 219 267 322 384
#     4  11  23  40  62  94 128 170 219 269 321 385
#     4  11  23  38  63  90 132 160 216 272 320 369
#     4  10  22  40  62  93 131 168 210 267 329 384
#     4  11  22  40  65  94 127 171 220 263 320 390
#     4  11  21  42  63  92 124 181 213 259 317 391
#
# _framework density 19.142679999999999
#
# number of rings (size 3 to 8) (size 9 to 14) (size 15 to 20)
#    0.000    1.000    4.000    3.000    0.000    0.800 
#    0.000    8.500    0.000    0.000    0.000    0.000 
#    0.000    0.000    0.000    0.000    0.000    0.000 
#
# Total GULP energy -223368.240242 kJ/mol
# GULP energy per Si atom -5584.206006 kJ/mol
# Density = 1.909911 g / cm^3
# Si number density = 19.142680 Si / 1000 Ang^3
#
#
#
# Elastic Constant Matrix: (Units=GPa)
#
#
# Indices 1 2 3 4 5 6 
#
# 1 145.1145 41.4602 29.4825 0.0000 0.0000 0.0000
# 2 41.4602 106.6274 33.5518 0.0000 0.0000 0.0000
# 3 29.4825 33.5518 102.5728 0.0000 0.0000 0.0000
# 4 0.0000 0.0000 0.0000 -7.4245 0.0000 0.0000
# 5 0.0000 0.0000 0.0000 0.0000 19.8291 0.0000
# 6 0.0000 0.0000 0.0000 0.0000 0.0000 23.7095
#
#
#
# Elastic Compliance Matrix: (Units=1/GPa)
#
#
# Indices 1 2 3 4 5 6 
#
# 1 0.007933 -0.002639 -0.001417 0.000000 0.000000 0.000000
# 2 -0.002639 0.011332 -0.002948 0.000000 0.000000 0.000000
# 3 -0.001417 -0.002948 0.011121 0.000000 0.000000 0.000000
# 4 0.000000 0.000000 0.000000 -0.134689 0.000000 0.000000
# 5 0.000000 0.000000 0.000000 0.000000 0.050431 0.000000
# 6 0.000000 0.000000 0.000000 0.000000 0.000000 0.042177
#
#
# Mechanical properties :
#
#
# Convention : Reuss Voigt Hill
#
# Bulk Modulus (GPa) = 61.05811 62.58932 61.82372
# Shear Modulus (GPa) = 643.30706 23.87749 333.59227
#
# Velocity S-wave (km/s) = 18.35180 3.53561 13.21532
# Velocity P-wave (km/s) = 21.93210 7.03097 16.28575
#
# Compressibility (1/GPa) = 0.01637784
#
# Stress axis : x y z
#
# Youngs Moduli (GPa) = 126.05741 88.24415 89.92095
#
# Poissons Ratio (x) = 0.23285 0.12742
# Poissons Ratio (y) = 0.33263 0.26512
# Poissons Ratio (z) = 0.17863 0.26017
#
# Static dielectric constant tensor:
#      x y z
#    x 1.666900 0.000000 0.000000 
#    y 0.000000 1.689220 0.000000 
#    z 0.000000 0.000000 1.665770 
# 
# From -- ./inp_files/11137.got.cif
#   From: 2010.05.17/outbox.cif.g08.bks.cpg/sg67_6_cif.got.tgz:11137.got - 2010.06.03 18:28:57.
