data_PCOD9504702
_publ_section_title
;
Structure prediction by ZEFSAII (Michael W. Deem and Ramdas Pophale) SiO2 
 PCOD9504702
Probable space group: C M M A
;
_chemical_formula_sum "Si O2"
_cell_formula_units_Z 32
_cell_length_a 9.739307
_cell_length_b 10.311423
_cell_length_c 13.151779
_cell_angle_alpha 90.000000
_cell_angle_beta 90.000000
_cell_angle_gamma 90.000000
_cell_volume 1320.782060
_symmetry_space_group_name_H-M "C M M A"
_symmetry_group_IT_number 67
_symmetry_cell_setting 'orthorhombic'
loop_
_space_group_symop_operation_xyz
x,y,z
-x,1/2-y,z
x,-y,-z
-x,1/2+y,-z
-x,-y,-z
x,1/2+y,-z
-x,y,z
x,1/2-y,z
1/2+x,1/2+y,z
1/2-x,-y,z
1/2+x,1/2-y,-z
1/2-x,y,-z
1/2-x,1/2-y,-z
1/2+x,y,-z
1/2-x,1/2+y,z
1/2+x,-y,z
loop_
_atom_site_type_symbol
_atom_site_label
_atom_site_fract_x
_atom_site_fract_y
_atom_site_fract_z
Si Si1 0.000000 0.602088 0.131002
Si Si2 0.000000 0.750000 0.647147
Si Si3 0.213243 0.750000 0.381490
Si Si4 0.750000 0.000000 0.000000
Si Si5 0.500000 0.528056 0.653665
O O1 0.000000 0.750000 0.170767
O O2 0.859701 0.580709 0.067709
O O3 0.000000 0.502276 0.225113
O O4 0.846998 0.750000 0.690420
O O5 0.000000 0.607672 0.594366
O O6 0.250000 0.750000 0.500000
O O7 0.129185 0.880491 0.364661
#
# Coordination Sequence:
#
# PCOD9504702 Si02
#       5
#     8   4   8   4   8
#     4  11  23  47  72 101 147 181 245 284 368 422
#     4  12  26  40  70 106 132 192 234 290 360 424
#     4  11  25  47  71 100 138 186 242 295 356 423
#     4  10  26  42  72 112 134 192 224 310 350 436
#     4  11  26  45  72 103 145 190 234 304 350 432
#
# _framework density 24.228071
#
# number of rings (size 3 to 8) (size 9 to 14) (size 15 to 20)
#    0.000    1.000    2.500    3.750    7.000    6.000 
#    9.000    0.000    0.000    0.000    0.000    0.000 
#    0.000    0.000    0.000    0.000    0.000    0.000 
#
# Total GULP energy -89334.935794 kJ/mol
# GULP energy per Si atom -5583.433487 kJ/mol
# Density = 2.417293 g / cm^3
# Si number density = 24.228071 Si / 1000 Ang^3
#
#
#
# Elastic Constant Matrix: (Units=GPa)
#
#
# Indices 1 2 3 4 5 6 
#
# 1 203.3541 66.2985 32.8409 0.0000 0.0000 0.0000
# 2 66.2985 180.1292 9.3512 0.0000 0.0000 0.0000
# 3 32.8409 9.3512 91.4864 0.0000 0.0000 0.0000
# 4 0.0000 0.0000 0.0000 27.6476 0.0000 0.0000
# 5 0.0000 0.0000 0.0000 0.0000 35.1744 0.0000
# 6 0.0000 0.0000 0.0000 0.0000 0.0000 30.6821
#
#
#
# Elastic Compliance Matrix: (Units=1/GPa)
#
#
# Indices 1 2 3 4 5 6 
#
# 1 0.005901 -0.002073 -0.001906 0.000000 0.000000 0.000000
# 2 -0.002073 0.006309 0.000099 0.000000 0.000000 0.000000
# 3 -0.001906 0.000099 0.011605 0.000000 0.000000 0.000000
# 4 0.000000 0.000000 0.000000 0.036170 0.000000 0.000000
# 5 0.000000 0.000000 0.000000 0.000000 0.028430 0.000000
# 6 0.000000 0.000000 0.000000 0.000000 0.000000 0.032592
#
#
# Mechanical properties :
#
#
# Convention : Reuss Voigt Hill
#
# Bulk Modulus (GPa) = 62.28613 76.88343 69.58478
# Shear Modulus (GPa) = 37.28021 43.13275 40.20648
#
# Velocity S-wave (km/s) = 3.92691 4.22391 4.07812
# Velocity P-wave (km/s) = 6.80624 7.45592 7.13847
#
# Compressibility (1/GPa) = 0.01605494
#
# Stress axis : x y z
#
# Youngs Moduli (GPa) = 169.45447 158.49292 86.17114
#
# Poissons Ratio (x) = 0.32857 0.16428
# Poissons Ratio (y) = 0.35129 -0.00855
# Poissons Ratio (z) = 0.32306 -0.01573
#
# Static dielectric constant tensor:
#      x y z
#    x 2.031070 0.000000 0.000000 
#    y 0.000000 1.941150 0.000000 
#    z 0.000000 0.000000 1.954580 
# 
# From -- ./inp_files/24285.got.cif
#   From: 2010.05.17/outbox.cif.g08.bks.cpg/sg67_13_cif.got.tgz:24285.got - 2010.06.03 18:28:57.
