data_PCOD9504726
_publ_section_title
;
Structure prediction by ZEFSAII (Michael W. Deem and Ramdas Pophale) SiO2 
 PCOD9504726
Probable space group: C M M A
;
_chemical_formula_sum "Si O2"
_cell_formula_units_Z 112
_cell_length_a 14.968371
_cell_length_b 27.663935
_cell_length_c 15.965419
_cell_angle_alpha 90.000000
_cell_angle_beta 90.000000
_cell_angle_gamma 90.000000
_cell_volume 6611.025238
_symmetry_space_group_name_H-M "C M M A"
_symmetry_group_IT_number 67
_symmetry_cell_setting 'orthorhombic'
loop_
_space_group_symop_operation_xyz
x,y,z
-x,1/2-y,z
x,-y,-z
-x,1/2+y,-z
-x,-y,-z
x,1/2+y,-z
-x,y,z
x,1/2-y,z
1/2+x,1/2+y,z
1/2-x,-y,z
1/2+x,1/2-y,-z
1/2-x,y,-z
1/2-x,1/2-y,-z
1/2+x,y,-z
1/2-x,1/2+y,z
1/2+x,-y,z
loop_
_atom_site_type_symbol
_atom_site_label
_atom_site_fract_x
_atom_site_fract_y
_atom_site_fract_z
Si Si1 0.103200 0.941315 0.500001
Si Si2 0.396838 0.379667 0.160393
Si Si3 0.396839 0.620332 0.160392
Si Si4 0.642170 0.055850 0.000001
Si Si5 0.109321 0.555742 0.683313
Si Si6 0.250000 0.693098 0.100744
Si Si7 0.390679 0.555744 0.683311
O O1 0.141126 0.928181 0.590839
O O2 0.141126 0.928180 0.409164
O O3 0.000000 0.924975 0.500001
O O4 0.102646 0.000000 0.500000
O O5 0.500000 0.365760 0.172244
O O6 0.335455 0.334359 0.138182
O O7 0.364622 0.408778 0.242276
O O8 0.390515 0.416462 0.082280
O O9 0.500000 0.634240 0.172244
O O10 0.390517 0.583539 0.082277
O O11 0.364622 0.591220 0.242273
O O12 0.335455 0.665641 0.138182
O O13 0.750000 0.057734 0.000000
O O14 0.614356 0.000000 0.000000
O O15 0.136978 0.499999 0.698475
O O16 0.000000 0.555053 0.681224
O O17 0.250001 0.750000 0.117989
O O18 0.250000 0.686251 0.000000
O O19 0.500000 0.555055 0.681221
#
# Coordination Sequence:
#
# PCOD9504726 Si02
#       7
#    16  16  16  16  16  16  16
#     4   7  10  20  38  65 103 140 169 197 230 272
#     4  11  20  34  54  77 101 131 170 206 251 300
#     4  11  20  34  54  77 101 131 170 206 251 300
#     4  11  21  33  49  73 109 144 169 194 236 294
#     4   8  14  24  43  73 107 139 168 198 234 284
#     4  11  24  42  56  71  96 125 167 220 269 309
#     4   8  14  24  43  73 107 139 168 198 234 284
#
# _framework density 16.941396999999998
#
# number of rings (size 3 to 8) (size 9 to 14) (size 15 to 20)
#    0.000    2.429    2.857    3.000    0.000    2.857 
#    0.000    1.429    0.000    0.857    0.000    5.000 
#    0.000    5.714    0.000    0.000    0.000    0.000 
#
# Total GULP energy -312361.214872 kJ/mol
# GULP energy per Si atom -5577.878837 kJ/mol
# Density = 1.690284 g / cm^3
# Si number density = 16.941397 Si / 1000 Ang^3
#
#
#
# Elastic Constant Matrix: (Units=GPa)
#
#
# Indices 1 2 3 4 5 6 
#
# 1 80.9251 41.4994 28.4388 0.0000 0.0000 0.0000
# 2 41.4994 120.1693 75.0215 0.0000 0.0000 0.0000
# 3 28.4388 75.0215 166.6116 0.0000 0.0000 0.0000
# 4 0.0000 0.0000 0.0000 5.0644 0.0000 0.0000
# 5 0.0000 0.0000 0.0000 0.0000 -55.1086 0.0000
# 6 0.0000 0.0000 0.0000 0.0000 0.0000 -10.1538
#
#
#
# Elastic Compliance Matrix: (Units=1/GPa)
#
#
# Indices 1 2 3 4 5 6 
#
# 1 0.015029 -0.004992 -0.000318 0.000000 0.000000 0.000000
# 2 -0.004992 0.013234 -0.005107 0.000000 0.000000 0.000000
# 3 -0.000318 -0.005107 0.008356 0.000000 0.000000 0.000000
# 4 0.000000 0.000000 0.000000 0.197458 0.000000 0.000000
# 5 0.000000 0.000000 0.000000 0.000000 -0.018146 0.000000
# 6 0.000000 0.000000 0.000000 0.000000 0.000000 -0.098485
#
#
# Mechanical properties :
#
#
# Convention : Reuss Voigt Hill
#
# Bulk Modulus (GPa) = 63.34849 73.06950 68.20900
# Shear Modulus (GPa) = 34.83388 2.81015 18.82202
#
# Velocity S-wave (km/s) = 4.53939 1.28932 3.33679
# Velocity P-wave (km/s) = 8.05907 6.74098 7.42932
#
# Compressibility (1/GPa) = 0.01578570
#
# Stress axis : x y z
#
# Youngs Moduli (GPa) = 66.54015 75.56543 119.67970
#
# Poissons Ratio (x) = 0.37720 0.03800
# Poissons Ratio (y) = 0.33215 0.61117
# Poissons Ratio (z) = 0.02113 0.38589
#
# Static dielectric constant tensor:
#      x y z
#    x 1.646700 0.000000 0.000000 
#    y 0.000000 1.519950 0.000000 
#    z 0.000000 0.000000 1.595590 
# 
# From -- ./inp_files/27845.got.cif
#   From: 2010.05.17/outbox.cif.g08.bks.cpg/sg67_14_cif.got.tgz:27845.got - 2010.06.03 18:28:57.
