data_PCOD9504709
_publ_section_title
;
Structure prediction by ZEFSAII (Michael W. Deem and Ramdas Pophale) SiO2 
 PCOD9504709
Probable space group: C M M A
;
_chemical_formula_sum "Si O2"
_cell_formula_units_Z 88
_cell_length_a 19.971943
_cell_length_b 23.036877
_cell_length_c 9.910144
_cell_angle_alpha 90.000000
_cell_angle_beta 90.000000
_cell_angle_gamma 90.000000
_cell_volume 4559.569989
_symmetry_space_group_name_H-M "C M M A"
_symmetry_group_IT_number 67
_symmetry_cell_setting 'orthorhombic'
loop_
_space_group_symop_operation_xyz
x,y,z
-x,1/2-y,z
x,-y,-z
-x,1/2+y,-z
-x,-y,-z
x,1/2+y,-z
-x,y,z
x,1/2-y,z
1/2+x,1/2+y,z
1/2-x,-y,z
1/2+x,1/2-y,-z
1/2-x,y,-z
1/2-x,1/2-y,-z
1/2+x,y,-z
1/2-x,1/2+y,z
1/2+x,-y,z
loop_
_atom_site_type_symbol
_atom_site_label
_atom_site_fract_x
_atom_site_fract_y
_atom_site_fract_z
Si Si1 0.643923 0.357384 0.282531
Si Si2 0.250000 0.650490 0.500000
Si Si3 0.500000 0.683920 0.325566
Si Si4 0.862847 0.386699 0.277084
Si Si5 0.329302 0.491594 0.340871
Si Si6 0.328600 0.814273 0.016087
Si Si7 0.000000 0.686160 0.356875
O O1 0.698175 0.326137 0.383875
O O2 0.656386 0.426087 0.297534
O O3 0.568382 0.345441 0.323901
O O4 0.648563 0.336724 0.129146
O O5 0.192875 0.622991 0.602203
O O6 0.500000 0.750000 0.264950
O O7 0.567062 0.646498 0.299124
O O8 0.500000 0.692449 0.484157
O O9 0.868108 0.456278 0.267735
O O10 0.838448 0.358645 0.138055
O O11 0.343275 0.500000 0.500000
O O12 0.250000 0.500000 0.320158
O O13 0.357410 0.750000 0.046777
O O14 0.250000 0.808141 0.000000
O O15 0.000000 0.750000 0.291472
#
# Coordination Sequence:
#
# PCOD9504709 Si02
#       7
#    16   8   8  16  16  16   8
#     4  12  23  42  66  97 131 171 215 263 331 382
#     4  12  20  41  69  96 126 172 217 277 316 374
#     4  11  24  42  62  93 132 171 222 269 314 383
#     4  12  23  42  66  97 131 171 215 263 331 382
#     4  11  18  36  68  99 130 160 212 275 320 379
#     4  11  24  42  62  93 132 171 222 269 314 383
#     4  11  24  42  62  93 132 171 222 269 314 383
#
# _framework density 19.300065
#
# number of rings (size 3 to 8) (size 9 to 14) (size 15 to 20)
#    0.000    0.545    7.273    1.091    0.000    2.182 
#    0.000    9.091    0.000    2.182    0.000    0.000 
#    0.000    0.000    0.000    0.000    0.000    0.000 
#
# Total GULP energy -245025.700983 kJ/mol
# GULP energy per Si atom -5568.765931 kJ/mol
# Density = 1.925614 g / cm^3
# Si number density = 19.300065 Si / 1000 Ang^3
#
#
#
# Elastic Constant Matrix: (Units=GPa)
#
#
# Indices 1 2 3 4 5 6 
#
# 1 117.5734 46.6097 26.8322 0.0000 0.0000 0.0000
# 2 46.6097 147.5105 34.8973 0.0000 0.0000 0.0000
# 3 26.8322 34.8973 96.3506 0.0000 0.0000 0.0000
# 4 0.0000 0.0000 0.0000 35.9860 0.0000 0.0000
# 5 0.0000 0.0000 0.0000 0.0000 35.6017 0.0000
# 6 0.0000 0.0000 0.0000 0.0000 0.0000 15.3395
#
#
#
# Elastic Compliance Matrix: (Units=1/GPa)
#
#
# Indices 1 2 3 4 5 6 
#
# 1 0.009999 -0.002735 -0.001794 0.000000 0.000000 0.000000
# 2 -0.002735 0.008163 -0.002195 0.000000 0.000000 0.000000
# 3 -0.001794 -0.002195 0.011673 0.000000 0.000000 0.000000
# 4 0.000000 0.000000 0.000000 0.027789 0.000000 0.000000
# 5 0.000000 0.000000 0.000000 0.000000 0.028089 0.000000
# 6 0.000000 0.000000 0.000000 0.000000 0.000000 0.065191
#
#
# Mechanical properties :
#
#
# Convention : Reuss Voigt Hill
#
# Bulk Modulus (GPa) = 61.02263 64.23478 62.62870
# Shear Modulus (GPa) = 29.44414 34.25846 31.85130
#
# Velocity S-wave (km/s) = 3.91013 4.21770 4.06682
# Velocity P-wave (km/s) = 7.21609 7.55467 7.38732
#
# Compressibility (1/GPa) = 0.01638736
#
# Stress axis : x y z
#
# Youngs Moduli (GPa) = 100.01018 122.50996 85.66574
#
# Poissons Ratio (x) = 0.33507 0.15368
# Poissons Ratio (y) = 0.27353 0.18802
# Poissons Ratio (z) = 0.17942 0.26888
#
# Static dielectric constant tensor:
#      x y z
#    x 1.555470 0.000000 0.000000 
#    y 0.000000 1.713810 0.000000 
#    z 0.000000 0.000000 1.521710 
# 
# From -- ./inp_files/11302.got.cif
#   From: 2010.05.17/outbox.cif.g08.bks.cpg/sg67_6_cif.got.tgz:11302.got - 2010.06.03 18:28:57.
