data_PCOD9504582
_publ_section_title
;
Structure prediction by ZEFSAII (Michael W. Deem and Ramdas Pophale) SiO2 
 PCOD9504582
Probable space group: C M M A
;
_chemical_formula_sum "Si O2"
_cell_formula_units_Z 96
_cell_length_a 14.213480
_cell_length_b 11.240431
_cell_length_c 25.952177
_cell_angle_alpha 90.000000
_cell_angle_beta 90.000000
_cell_angle_gamma 90.000000
_cell_volume 4146.266199
_symmetry_space_group_name_H-M "C M M A"
_symmetry_group_IT_number 67
_symmetry_cell_setting 'orthorhombic'
loop_
_space_group_symop_operation_xyz
x,y,z
-x,1/2-y,z
x,-y,-z
-x,1/2+y,-z
-x,-y,-z
x,1/2+y,-z
-x,y,z
x,1/2-y,z
1/2+x,1/2+y,z
1/2-x,-y,z
1/2+x,1/2-y,-z
1/2-x,y,-z
1/2-x,1/2-y,-z
1/2+x,y,-z
1/2-x,1/2+y,z
1/2+x,-y,z
loop_
_atom_site_type_symbol
_atom_site_label
_atom_site_fract_x
_atom_site_fract_y
_atom_site_fract_z
Si Si1 0.106566 0.250000 0.618673
Si Si2 0.355591 0.121483 0.521709
Si Si3 0.394160 0.608941 0.149834
Si Si4 0.115533 0.989363 0.743647
Si Si5 0.386128 0.013231 0.626725
Si Si6 0.115141 0.889266 0.963087
Si Si7 0.606189 0.250000 0.257341
O O1 0.148006 0.118933 0.608784
O O2 0.099477 0.250000 0.680792
O O3 0.000000 0.250000 0.598363
O O4 0.396203 0.250000 0.507578
O O5 0.250000 0.123150 0.500000
O O6 0.399508 0.000000 0.500000
O O7 0.358333 0.105594 0.583138
O O8 0.500000 0.555339 0.149988
O O9 0.402519 0.750000 0.146989
O O10 0.354349 0.582113 0.206181
O O11 0.350382 0.577909 0.094749
O O12 0.144754 0.957023 0.685201
O O13 0.148449 0.123618 0.755150
O O14 0.000000 0.987168 0.741192
O O15 0.500000 0.006610 0.627812
O O16 0.142355 0.750000 0.975549
O O17 0.000000 0.886542 0.961605
O O18 0.140781 0.000000 0.000000
O O19 0.500000 0.250000 0.235817
#
# Coordination Sequence:
#
# PCOD9504582 Si02
#       7
#     8  16  16  16  16  16   8
#     4   7  12  24  43  69  97 121 141 173 226 275
#     4  10  23  41  56  72  96 124 154 190 229 272
#     4   8  13  20  29  42  64  93 123 162 215 265
#     4   8  13  22  36  57  82 105 129 166 218 272
#     4   9  17  30  51  75  97 120 150 189 234 285
#     4   8  13  21  29  37  54  84 125 169 210 252
#     4   7  10  18  30  47  77 107 127 151 196 261
#
# _framework density 23.153362000000001
#
# number of rings (size 3 to 8) (size 9 to 14) (size 15 to 20)
#    0.000    3.667    0.000    3.000    1.167    1.333 
#    1.500    1.667    0.000    0.000    0.000    0.000 
#    0.000    0.000    0.000    0.000    0.000    0.000 
#
# Total GULP energy -267358.401293 kJ/mol
# GULP energy per Si atom -5569.966694 kJ/mol
# Density = 2.310066 g / cm^3
# Si number density = 23.153362 Si / 1000 Ang^3
#
#
#
# Elastic Constant Matrix: (Units=GPa)
#
#
# Indices 1 2 3 4 5 6 
#
# 1 80.9575 8.8417 28.8593 0.0000 0.0000 0.0000
# 2 8.8417 123.4598 80.0520 0.0000 0.0000 0.0000
# 3 28.8593 80.0520 191.2638 0.0000 0.0000 0.0000
# 4 0.0000 0.0000 0.0000 46.7090 0.0000 0.0000
# 5 0.0000 0.0000 0.0000 0.0000 118.5373 0.0000
# 6 0.0000 0.0000 0.0000 0.0000 0.0000 -8.1982
#
#
#
# Elastic Compliance Matrix: (Units=1/GPa)
#
#
# Indices 1 2 3 4 5 6 
#
# 1 0.013074 0.000470 -0.002170 0.000000 0.000000 0.000000
# 2 0.000470 0.011134 -0.004731 0.000000 0.000000 0.000000
# 3 -0.002170 -0.004731 0.007536 0.000000 0.000000 0.000000
# 4 0.000000 0.000000 0.000000 0.021409 0.000000 0.000000
# 5 0.000000 0.000000 0.000000 0.000000 0.008436 0.000000
# 6 0.000000 0.000000 0.000000 0.000000 0.000000 -0.121978
#
#
# Mechanical properties :
#
#
# Convention : Reuss Voigt Hill
#
# Bulk Modulus (GPa) = 52.95608 70.13188 61.54398
# Shear Modulus (GPa) = -121.25919 49.93816 -35.66052
#
# Velocity S-wave (km/s) = -7.24471 4.64922 -3.92878
# Velocity P-wave (km/s) = 6.86000 7.69261 2.46136
#
# Compressibility (1/GPa) = 0.01888357
#
# Stress axis : x y z
#
# Youngs Moduli (GPa) = 76.48655 89.81784 132.69935
#
# Poissons Ratio (x) = -0.04226 0.28791
# Poissons Ratio (y) = -0.03599 0.62779
# Poissons Ratio (z) = 0.16595 0.42492
#
# Static dielectric constant tensor:
#      x y z
#    x 1.919060 0.000000 0.000000 
#    y 0.000000 1.972030 0.000000 
#    z 0.000000 0.000000 1.875150 
# 
# From -- ./inp_files/44497.got.cif
#   From: 2010.05.17/outbox.cif.g08.bks.cpg/sg67_23_cif.got.tgz:44497.got - 2010.06.03 18:28:57.
