data_PCOD9504380
_publ_section_title
;
Structure prediction by ZEFSAII (Michael W. Deem and Ramdas Pophale) SiO2 
 PCOD9504380
Probable space group: C M M A
;
_chemical_formula_sum "Si O2"
_cell_formula_units_Z 112
_cell_length_a 15.108407
_cell_length_b 26.669178
_cell_length_c 12.758081
_cell_angle_alpha 90.000000
_cell_angle_beta 90.000000
_cell_angle_gamma 90.000000
_cell_volume 5140.598211
_symmetry_space_group_name_H-M "C M M A"
_symmetry_group_IT_number 67
_symmetry_cell_setting 'orthorhombic'
loop_
_space_group_symop_operation_xyz
x,y,z
-x,1/2-y,z
x,-y,-z
-x,1/2+y,-z
-x,-y,-z
x,1/2+y,-z
-x,y,z
x,1/2-y,z
1/2+x,1/2+y,z
1/2-x,-y,z
1/2+x,1/2-y,-z
1/2-x,y,-z
1/2-x,1/2-y,-z
1/2+x,y,-z
1/2-x,1/2+y,z
1/2+x,-y,z
loop_
_atom_site_type_symbol
_atom_site_label
_atom_site_fract_x
_atom_site_fract_y
_atom_site_fract_z
Si Si1 0.899405 0.400605 0.597623
Si Si2 0.150825 0.621964 0.969401
Si Si3 0.898184 0.656677 0.193056
Si Si4 0.702608 0.693001 0.208459
Si Si5 0.649970 0.994200 0.338600
Si Si6 0.605207 0.121403 0.626313
Si Si7 0.102522 0.981203 0.889196
O O1 0.874057 0.381113 0.712038
O O2 0.897077 0.460672 0.601682
O O3 0.858323 0.376746 0.493555
O O4 0.000000 0.384841 0.586169
O O5 0.161735 0.671786 0.899989
O O6 0.109006 0.578777 0.898196
O O7 0.250000 0.605784 0.000000
O O8 0.102378 0.630703 0.079083
O O9 0.809867 0.690865 0.195383
O O10 0.000000 0.675843 0.209286
O O11 0.676155 0.750000 0.229468
O O12 0.664291 0.655678 0.297593
O O13 0.613667 0.938226 0.350742
O O14 0.647058 0.002905 0.213479
O O15 0.750000 0.000000 0.374346
O O16 0.500000 0.134371 0.635919
O O17 0.000000 0.996484 0.882168
O O18 0.138536 0.000000 0.000000
#
# Coordination Sequence:
#
# PCOD9504380 Si02
#       7
#    16  16  16  16  16  16  16
#     4  10  22  41  65  94 130 173 217 265 327 402
#     4  10  22  38  64  94 130 171 217 275 328 393
#     4  10  22  42  67  97 134 173 218 273 335 402
#     4  11  25  45  69  99 131 172 227 285 338 388
#     4  12  24  35  59  94 132 173 218 265 325 398
#     4  11  24  44  67  94 132 175 222 279 334 394
#     4  11  23  36  56  88 129 176 217 259 322 396
#
# _framework density 21.787348000000001
#
# number of rings (size 3 to 8) (size 9 to 14) (size 15 to 20)
#    0.000    1.286    1.429    3.857    4.000   10.000 
#    0.000    1.429    0.000    2.571    0.000    0.000 
#    0.000    0.000    0.000    0.000    0.000    0.000 
#
# Total GULP energy -312518.443816 kJ/mol
# GULP energy per Si atom -5580.686497 kJ/mol
# Density = 2.173776 g / cm^3
# Si number density = 21.787348 Si / 1000 Ang^3
#
#
#
# Elastic Constant Matrix: (Units=GPa)
#
#
# Indices 1 2 3 4 5 6 
#
# 1 97.0529 8.0793 26.5745 0.0000 0.0000 0.0000
# 2 8.0793 53.4707 21.6183 0.0000 0.0000 0.0000
# 3 26.5745 21.6183 143.7531 0.0000 0.0000 0.0000
# 4 0.0000 0.0000 0.0000 13.8587 0.0000 0.0000
# 5 0.0000 0.0000 0.0000 0.0000 137.9964 0.0000
# 6 0.0000 0.0000 0.0000 0.0000 0.0000 -19.0402
#
#
#
# Elastic Compliance Matrix: (Units=1/GPa)
#
#
# Indices 1 2 3 4 5 6 
#
# 1 0.010892 -0.000886 -0.001880 0.000000 0.000000 0.000000
# 2 -0.000886 0.019985 -0.002842 0.000000 0.000000 0.000000
# 3 -0.001880 -0.002842 0.007731 0.000000 0.000000 0.000000
# 4 0.000000 0.000000 0.000000 0.072157 0.000000 0.000000
# 5 0.000000 0.000000 0.000000 0.000000 0.007247 0.000000
# 6 0.000000 0.000000 0.000000 0.000000 0.000000 -0.052521
#
#
# Mechanical properties :
#
#
# Convention : Reuss Voigt Hill
#
# Bulk Modulus (GPa) = 36.50581 45.20232 40.85406
# Shear Modulus (GPa) = 58.24966 42.42995 50.33981
#
# Velocity S-wave (km/s) = 5.17625 4.41779 4.81199
# Velocity P-wave (km/s) = 7.24684 6.84212 7.04738
#
# Compressibility (1/GPa) = 0.02739290
#
# Stress axis : x y z
#
# Youngs Moduli (GPa) = 91.80833 50.03873 129.34389
#
# Poissons Ratio (x) = 0.04431 0.24322
# Poissons Ratio (y) = 0.08130 0.36755
# Poissons Ratio (z) = 0.17264 0.14219
#
# Static dielectric constant tensor:
#      x y z
#    x 3.239530 0.000000 0.000000 
#    y 0.000000 1.779090 0.000000 
#    z 0.000000 0.000000 1.862360 
# 
# From -- ./inp_files/18628.got.cif
#   From: 2010.05.17/outbox.cif.g08.bks.cpg/sg67_10_cif.got.tgz:18628.got - 2010.06.03 18:28:57.
