data_PCOD9504374
_publ_section_title
;
Structure prediction by ZEFSAII (Michael W. Deem and Ramdas Pophale) SiO2 
 PCOD9504374
Probable space group: C M M A
;
_chemical_formula_sum "Si O2"
_cell_formula_units_Z 64
_cell_length_a 10.103149
_cell_length_b 18.275535
_cell_length_c 19.173408
_cell_angle_alpha 90.000000
_cell_angle_beta 90.000000
_cell_angle_gamma 90.000000
_cell_volume 3540.186742
_symmetry_space_group_name_H-M "C M M A"
_symmetry_group_IT_number 67
_symmetry_cell_setting 'orthorhombic'
loop_
_space_group_symop_operation_xyz
x,y,z
-x,1/2-y,z
x,-y,-z
-x,1/2+y,-z
-x,-y,-z
x,1/2+y,-z
-x,y,z
x,1/2-y,z
1/2+x,1/2+y,z
1/2-x,-y,z
1/2+x,1/2-y,-z
1/2-x,y,-z
1/2-x,1/2-y,-z
1/2+x,y,-z
1/2-x,1/2+y,z
1/2+x,-y,z
loop_
_atom_site_type_symbol
_atom_site_label
_atom_site_fract_x
_atom_site_fract_y
_atom_site_fract_z
Si Si1 0.153860 0.162918 0.061956
Si Si2 0.771513 0.912958 0.649485
Si Si3 0.847387 0.931167 0.800910
Si Si4 0.500000 0.417818 0.536111
Si Si5 0.000000 0.163262 0.606836
O O1 0.172267 0.250000 0.071196
O O2 0.179493 0.122230 0.134535
O O3 0.000000 0.150384 0.042983
O O4 0.250000 0.137989 0.000000
O O5 0.828265 0.893281 0.725508
O O6 0.873349 0.904495 0.585595
O O7 0.632968 0.872563 0.637893
O O8 0.750000 0.000000 0.651939
O O9 0.000000 0.955848 0.804924
O O10 0.750000 0.000000 0.805282
O O11 0.500000 0.500000 0.500000
O O12 0.500000 0.360436 0.473796
O O13 0.000000 0.250000 0.615956
#
# Coordination Sequence:
#
# PCOD9504374 Si02
#       5
#    16  16  16   8   8
#     4   9  19  38  61  86 117 159 206 246 300 372
#     4  11  22  41  65  90 123 168 213 249 313 391
#     4  10  22  38  61  92 124 158 203 256 302 365
#     4  12  22  40  68  94 117 171 218 253 312 391
#     4  12  28  42  60  98 131 153 207 279 320 360
#
# _framework density 18.078140999999999
#
# number of rings (size 3 to 8) (size 9 to 14) (size 15 to 20)
#    0.000    1.500    3.750    0.750    5.250    4.500 
#    0.000    2.500    0.000    0.000    0.000    0.000 
#    0.000    0.000    0.000    0.000    0.000    0.000 
#
# Total GULP energy -178591.624955 kJ/mol
# GULP energy per Si atom -5580.988280 kJ/mol
# Density = 1.803699 g / cm^3
# Si number density = 18.078141 Si / 1000 Ang^3
#
#
#
# Elastic Constant Matrix: (Units=GPa)
#
#
# Indices 1 2 3 4 5 6 
#
# 1 137.7299 63.7818 84.0547 0.0000 0.0000 0.0000
# 2 63.7818 83.0030 47.1896 0.0000 0.0000 0.0000
# 3 84.0547 47.1896 149.4220 0.0000 0.0000 0.0000
# 4 0.0000 0.0000 0.0000 55.7505 0.0000 0.0000
# 5 0.0000 0.0000 0.0000 0.0000 67.6237 0.0000
# 6 0.0000 0.0000 0.0000 0.0000 0.0000 20.8924
#
#
#
# Elastic Compliance Matrix: (Units=1/GPa)
#
#
# Indices 1 2 3 4 5 6 
#
# 1 0.014268 -0.007802 -0.005562 0.000000 0.000000 0.000000
# 2 -0.007802 0.018950 -0.001596 0.000000 0.000000 0.000000
# 3 -0.005562 -0.001596 0.010326 0.000000 0.000000 0.000000
# 4 0.000000 0.000000 0.000000 0.017937 0.000000 0.000000
# 5 0.000000 0.000000 0.000000 0.000000 0.014788 0.000000
# 6 0.000000 0.000000 0.000000 0.000000 0.000000 0.047864
#
#
# Mechanical properties :
#
#
# Convention : Reuss Voigt Hill
#
# Bulk Modulus (GPa) = 73.40195 84.46746 78.93471
# Shear Modulus (GPa) = 31.52697 40.52857 36.02777
#
# Velocity S-wave (km/s) = 4.18057 4.73996 4.46902
# Velocity P-wave (km/s) = 7.99960 8.76249 8.38972
#
# Compressibility (1/GPa) = 0.01362362
#
# Stress axis : x y z
#
# Youngs Moduli (GPa) = 70.08619 52.77002 96.84707
#
# Poissons Ratio (x) = 0.41169 0.53870
# Poissons Ratio (y) = 0.54679 0.15457
# Poissons Ratio (z) = 0.38985 0.08422
#
# Static dielectric constant tensor:
#      x y z
#    x 1.590040 0.000000 0.000000 
#    y 0.000000 1.602710 0.000000 
#    z 0.000000 0.000000 1.627740 
# 
# From -- ./inp_files/31789.got.cif
#   From: 2010.05.17/outbox.cif.g08.bks.cpg/sg67_16_cif.got.tgz:31789.got - 2010.06.03 18:28:57.
