data_PCOD9504215
_publ_section_title
;
Structure prediction by ZEFSAII (Michael W. Deem and Ramdas Pophale) SiO2 
 PCOD9504215
Probable space group: C M M A
;
_chemical_formula_sum "Si O2"
_cell_formula_units_Z 72
_cell_length_a 8.782899
_cell_length_b 15.323086
_cell_length_c 26.428357
_cell_angle_alpha 90.000000
_cell_angle_beta 90.000000
_cell_angle_gamma 90.000000
_cell_volume 3556.757798
_symmetry_space_group_name_H-M "C M M A"
_symmetry_group_IT_number 67
_symmetry_cell_setting 'orthorhombic'
loop_
_space_group_symop_operation_xyz
x,y,z
-x,1/2-y,z
x,-y,-z
-x,1/2+y,-z
-x,-y,-z
x,1/2+y,-z
-x,y,z
x,1/2-y,z
1/2+x,1/2+y,z
1/2-x,-y,z
1/2+x,1/2-y,-z
1/2-x,y,-z
1/2-x,1/2-y,-z
1/2+x,y,-z
1/2-x,1/2+y,z
1/2+x,-y,z
loop_
_atom_site_type_symbol
_atom_site_label
_atom_site_fract_x
_atom_site_fract_y
_atom_site_fract_z
Si Si1 0.319808 0.903639 0.264112
Si Si2 0.816653 0.647132 0.051644
Si Si3 0.828051 0.853760 0.160975
Si Si4 0.683324 0.250000 0.444107
Si Si5 0.182910 0.402307 0.632246
O O1 0.500000 0.904492 0.270548
O O2 0.274324 0.865924 0.209931
O O3 0.243365 0.864188 0.314320
O O4 0.250000 0.000000 0.262919
O O5 0.771887 0.750000 0.051342
O O6 0.769415 0.611145 0.106810
O O7 0.000000 0.642778 0.050221
O O8 0.750000 0.608300 0.000000
O O9 0.842400 0.750000 0.153757
O O10 0.000000 0.888440 0.170700
O O11 0.500000 0.250000 0.446948
O O12 0.750000 0.250000 0.500000
O O13 0.727734 0.163794 0.412330
O O14 0.250000 0.500000 0.625472
O O15 0.000000 0.408364 0.634548
#
# Coordination Sequence:
#
# PCOD9504215 Si02
#       5
#    16  16  16   8  16
#     4  11  22  36  55  80 108 143 183 227 278 333
#     4   8  14  25  42  65  95 132 171 213 266 323
#     4   9  18  32  50  74 105 140 176 220 275 332
#     4  10  24  42  64  92 124 160 199 238 289 340
#     4  10  21  40  62  88 119 159 199 240 292 347
#
# _framework density 20.243155000000002
#
# number of rings (size 3 to 8) (size 9 to 14) (size 15 to 20)
#    0.000    2.444    0.000    5.333    1.556    3.556 
#    0.000    4.444    0.000    0.667    0.000    4.667 
#    0.000    0.000    0.000    0.000    0.000    0.000 
#
# Total GULP energy -200739.529533 kJ/mol
# GULP energy per Si atom -5576.098043 kJ/mol
# Density = 2.019708 g / cm^3
# Si number density = 20.243155 Si / 1000 Ang^3
#
#
#
# Elastic Constant Matrix: (Units=GPa)
#
#
# Indices 1 2 3 4 5 6 
#
# 1 72.4916 21.6901 59.6295 0.0000 0.0000 0.0000
# 2 21.6901 59.9616 54.6518 0.0000 0.0000 0.0000
# 3 59.6295 54.6518 216.7544 0.0000 0.0000 0.0000
# 4 0.0000 0.0000 0.000026302.3622 0.0000 0.0000
# 5 0.0000 0.0000 0.0000 0.0000 34.6033 0.0000
# 6 0.0000 0.0000 0.0000 0.0000 0.0000 19.3576
#
#
#
# Elastic Compliance Matrix: (Units=1/GPa)
#
#
# Indices 1 2 3 4 5 6 
#
# 1 0.018139 -0.002614 -0.004331 0.000000 0.000000 0.000000
# 2 -0.002614 0.022030 -0.004836 0.000000 0.000000 0.000000
# 3 -0.004331 -0.004836 0.007024 0.000000 0.000000 0.000000
# 4 0.000000 0.000000 0.000000 0.000038 0.000000 0.000000
# 5 0.000000 0.000000 0.000000 0.000000 0.028899 0.000000
# 6 0.000000 0.000000 0.000000 0.000000 0.000000 0.051659
#
#
# Mechanical properties :
#
#
# Convention : Reuss Voigt Hill
#
# Bulk Modulus (GPa) = 42.31444 69.01672 55.66558
# Shear Modulus (GPa) = 31.40128 5285.48036 2658.44082
#
# Velocity S-wave (km/s) = 3.94281 51.15334 36.27816
# Velocity P-wave (km/s) = 6.45570 59.35532 42.21807
#
# Compressibility (1/GPa) = 0.02363259
#
# Stress axis : x y z
#
# Youngs Moduli (GPa) = 55.12834 45.39215 142.36458
#
# Poissons Ratio (x) = 0.11866 0.61660
# Poissons Ratio (y) = 0.14411 0.68840
# Poissons Ratio (z) = 0.23877 0.21949
#
# Static dielectric constant tensor:
#      x y z
#    x 1.680040 0.000000 0.000000 
#    y 0.000000 1.755080 0.000000 
#    z 0.000000 0.000000 1.781010 
# 
# From -- ./inp_files/40500.got.cif
#   From: 2010.05.17/outbox.cif.g08.bks.cpg/sg67_21_cif.got.tgz:40500.got - 2010.06.03 18:28:57.
