data_PCOD9504801
_publ_section_title
;
Structure prediction by ZEFSAII (Michael W. Deem and Ramdas Pophale) SiO2 
 PCOD9504801
Probable space group: C M M A
;
_chemical_formula_sum "Si O2"
_cell_formula_units_Z 56
_cell_length_a 13.230213
_cell_length_b 21.277487
_cell_length_c 9.171628
_cell_angle_alpha 90.000000
_cell_angle_beta 90.000000
_cell_angle_gamma 90.000000
_cell_volume 2581.865424
_symmetry_space_group_name_H-M "C M M A"
_symmetry_group_IT_number 67
_symmetry_cell_setting 'orthorhombic'
loop_
_space_group_symop_operation_xyz
x,y,z
-x,1/2-y,z
x,-y,-z
-x,1/2+y,-z
-x,-y,-z
x,1/2+y,-z
-x,y,z
x,1/2-y,z
1/2+x,1/2+y,z
1/2-x,-y,z
1/2+x,1/2-y,-z
1/2-x,y,-z
1/2-x,1/2-y,-z
1/2+x,y,-z
1/2-x,1/2+y,z
1/2+x,-y,z
loop_
_atom_site_type_symbol
_atom_site_label
_atom_site_fract_x
_atom_site_fract_y
_atom_site_fract_z
Si Si1 0.500000 0.927121 0.460509
Si Si2 0.818806 0.064065 0.668238
Si Si3 0.722576 0.680570 0.169546
Si Si4 0.500000 0.356351 0.838413
Si Si5 0.500000 0.556430 0.891230
O O1 0.608740 0.910752 0.535620
O O2 0.500000 0.908349 0.291962
O O3 0.500000 0.000000 0.500000
O O4 0.757936 0.123304 0.729967
O O5 0.901575 0.050971 0.792354
O O6 0.750000 0.000000 0.649948
O O7 0.764193 0.750000 0.207155
O O8 0.602234 0.681262 0.180386
O O9 0.750000 0.667704 0.000000
O O10 0.500000 0.383656 0.002678
O O11 0.500000 0.500000 0.000000
#
# Coordination Sequence:
#
# PCOD9504801 Si02
#       5
#     8  16  16   8   8
#     4  11  25  44  64 100 143 180 210 276 335 399
#     4  11  24  43  68  97 134 177 225 267 332 394
#     4  11  24  43  68  99 133 174 222 281 338 387
#     4  12  23  42  65  98 133 170 225 271 333 387
#     4  11  21  36  63  98 128 165 223 283 314 379
#
# _framework density 21.689744000000001
#
# number of rings (size 3 to 8) (size 9 to 14) (size 15 to 20)
#    0.000    0.857    2.857    5.571    0.000    4.000 
#    0.000    8.571    0.000    0.000    0.000    0.000 
#    0.000    0.000    0.000    0.000    0.000    0.000 
#
# Total GULP energy -156256.513634 kJ/mol
# GULP energy per Si atom -5580.589773 kJ/mol
# Density = 2.164038 g / cm^3
# Si number density = 21.689744 Si / 1000 Ang^3
#
#
#
# Elastic Constant Matrix: (Units=GPa)
#
#
# Indices 1 2 3 4 5 6 
#
# 1 154.7666 57.4205 56.0662 0.0000 0.0000 0.0000
# 2 57.4205 126.1087 47.4216 0.0000 0.0000 0.0000
# 3 56.0662 47.4216 130.6418 0.0000 0.0000 0.0000
# 4 0.0000 0.0000 0.0000 -0.8355 0.0000 0.0000
# 5 0.0000 0.0000 0.0000 0.0000 41.8786 0.0000
# 6 0.0000 0.0000 0.0000 0.0000 0.0000 20.4060
#
#
#
# Elastic Compliance Matrix: (Units=1/GPa)
#
#
# Indices 1 2 3 4 5 6 
#
# 1 0.008468 -0.002883 -0.002588 0.000000 0.000000 0.000000
# 2 -0.002883 0.010164 -0.002452 0.000000 0.000000 0.000000
# 3 -0.002588 -0.002452 0.009655 0.000000 0.000000 0.000000
# 4 0.000000 0.000000 0.000000 -1.196918 0.000000 0.000000
# 5 0.000000 0.000000 0.000000 0.000000 0.023879 0.000000
# 6 0.000000 0.000000 0.000000 0.000000 0.000000 0.049005
#
#
# Mechanical properties :
#
#
# Convention : Reuss Voigt Hill
#
# Bulk Modulus (GPa) = 80.37249 81.48153 80.92701
# Shear Modulus (GPa) = -4.64791 28.99708 12.17459
#
# Velocity S-wave (km/s) = -1.46545 3.66033 2.37176
# Velocity P-wave (km/s) = 5.85428 7.45067 6.70019
#
# Compressibility (1/GPa) = 0.01244207
#
# Stress axis : x y z
#
# Youngs Moduli (GPa) = 118.08651 98.38212 103.56959
#
# Poissons Ratio (x) = 0.28361 0.26803
# Poissons Ratio (y) = 0.34041 0.25400
# Poissons Ratio (z) = 0.30559 0.24128
#
# Static dielectric constant tensor:
#      x y z
#    x 1.862330 0.000000 0.000000 
#    y 0.000000 1.817450 0.000000 
#    z 0.000000 0.000000 1.859700 
# 
# From -- ./inp_files/7706.got.cif
#   From: 2010.05.17/outbox.cif.g08.bks.cpg/sg67_4_cif.got.tgz:7706.got - 2010.06.03 18:28:57.
