data_PCOD9504256
_publ_section_title
;
Structure prediction by ZEFSAII (Michael W. Deem and Ramdas Pophale) SiO2 
 PCOD9504256
Probable space group: C M M A
;
_chemical_formula_sum "Si O2"
_cell_formula_units_Z 68
_cell_length_a 20.098885
_cell_length_b 15.787606
_cell_length_c 10.514385
_cell_angle_alpha 90.000000
_cell_angle_beta 90.000000
_cell_angle_gamma 90.000000
_cell_volume 3336.353964
_symmetry_space_group_name_H-M "C M M A"
_symmetry_group_IT_number 67
_symmetry_cell_setting 'orthorhombic'
loop_
_space_group_symop_operation_xyz
x,y,z
-x,1/2-y,z
x,-y,-z
-x,1/2+y,-z
-x,-y,-z
x,1/2+y,-z
-x,y,z
x,1/2-y,z
1/2+x,1/2+y,z
1/2-x,-y,z
1/2+x,1/2-y,-z
1/2-x,y,-z
1/2-x,1/2-y,-z
1/2+x,y,-z
1/2-x,1/2+y,z
1/2+x,-y,z
loop_
_atom_site_type_symbol
_atom_site_label
_atom_site_fract_x
_atom_site_fract_y
_atom_site_fract_z
Si Si1 0.631280 0.913236 0.565814
Si Si2 0.179587 0.915039 0.930252
Si Si3 0.000000 0.656106 0.377162
Si Si4 0.250000 0.500000 0.702508
Si Si5 0.374923 0.750000 0.169931
Si Si6 0.000000 0.750000 0.637285
Si Si7 0.318366 0.250000 0.575314
O O1 0.569511 0.887901 0.654741
O O2 0.644090 0.834230 0.473127
O O3 0.609813 0.000000 0.500000
O O4 0.702266 0.937065 0.626455
O O5 0.132745 0.834247 0.914491
O O6 0.201036 0.946304 0.790950
O O7 0.250000 0.893232 0.000000
O O8 0.153263 0.000000 0.000000
O O9 0.000000 0.750000 0.321667
O O10 0.000000 0.672666 0.533085
O O11 0.437603 0.750000 0.266077
O O12 0.314157 0.750000 0.272646
O O13 0.250000 0.250000 0.500000
#
# Coordination Sequence:
#
# PCOD9504256 Si02
#       7
#    16  16   8   8   8   4   8
#     4  12  21  36  55  87 129 164 212 246 304 367
#     4   9  21  41  61  91 116 144 207 269 330 362
#     4  10  21  41  54  82 134 181 206 245 288 372
#     4  10  22  34  58  94 124 162 202 264 304 372
#     4  12  19  38  65  82 117 167 202 248 319 367
#     4  10  22  38  60  90 120 168 224 228 292 392
#     4  12  22  33  57  91 130 163 212 254 292 374
#
# _framework density 20.381530000000001
#
# number of rings (size 3 to 8) (size 9 to 14) (size 15 to 20)
#    0.353    1.176    3.529    5.294    0.000    0.000 
#    0.000    1.765    0.000    4.235    0.000    0.824 
#    0.000    0.000    0.000    0.000    0.000    0.000 
#
# Total GULP energy -189532.124862 kJ/mol
# GULP energy per Si atom -5574.474261 kJ/mol
# Density = 2.033514 g / cm^3
# Si number density = 20.381530 Si / 1000 Ang^3
#
#
#
# Elastic Constant Matrix: (Units=GPa)
#
#
# Indices 1 2 3 4 5 6 
#
# 1 83.8276 33.6408 15.2491 0.0000 0.0000 0.0000
# 2 33.6408 143.7174 24.6192 0.0000 0.0000 0.0000
# 3 15.2491 24.6192 41.6929 0.0000 0.0000 0.0000
# 4 0.0000 0.0000 0.0000 7.8592 0.0000 0.0000
# 5 0.0000 0.0000 0.0000 0.0000 15.1421 0.0000
# 6 0.0000 0.0000 0.0000 0.0000 0.0000 3.3071
#
#
#
# Elastic Compliance Matrix: (Units=1/GPa)
#
#
# Indices 1 2 3 4 5 6 
#
# 1 0.013596 -0.002593 -0.003442 0.000000 0.000000 0.000000
# 2 -0.002593 0.008236 -0.003915 0.000000 0.000000 0.000000
# 3 -0.003442 -0.003915 0.027555 0.000000 0.000000 0.000000
# 4 0.000000 0.000000 0.000000 0.127240 0.000000 0.000000
# 5 0.000000 0.000000 0.000000 0.000000 0.066041 0.000000
# 6 0.000000 0.000000 0.000000 0.000000 0.000000 0.302383
#
#
# Mechanical properties :
#
#
# Convention : Reuss Voigt Hill
#
# Bulk Modulus (GPa) = 33.91170 46.25070 40.08120
# Shear Modulus (GPa) = 8.69901 18.31025 13.50463
#
# Velocity S-wave (km/s) = 2.06818 3.00054 2.57688
# Velocity P-wave (km/s) = 4.73051 5.89458 5.34433
#
# Compressibility (1/GPa) = 0.02948835
#
# Stress axis : x y z
#
# Youngs Moduli (GPa) = 73.55178 121.42346 36.29074
#
# Poissons Ratio (x) = 0.31484 0.12490
# Poissons Ratio (y) = 0.19071 0.14207
# Poissons Ratio (z) = 0.25313 0.47534
#
# Static dielectric constant tensor:
#      x y z
#    x 1.802040 0.000000 0.000000 
#    y 0.000000 1.745690 0.000000 
#    z 0.000000 0.000000 1.747120 
# 
# From -- ./inp_files/20474.got.cif
#   From: 2010.05.17/outbox.cif.g08.bks.cpg/sg67_11_cif.got.tgz:20474.got - 2010.06.03 18:28:57.
