data_PCOD9504210
_publ_section_title
;
Structure prediction by ZEFSAII (Michael W. Deem and Ramdas Pophale) SiO2 
 PCOD9504210
Probable space group: C M M A
;
_chemical_formula_sum "Si O2"
_cell_formula_units_Z 84
_cell_length_a 14.726994
_cell_length_b 23.762447
_cell_length_c 11.167485
_cell_angle_alpha 90.000000
_cell_angle_beta 90.000000
_cell_angle_gamma 90.000000
_cell_volume 3908.054836
_symmetry_space_group_name_H-M "C M M A"
_symmetry_group_IT_number 67
_symmetry_cell_setting 'orthorhombic'
loop_
_space_group_symop_operation_xyz
x,y,z
-x,1/2-y,z
x,-y,-z
-x,1/2+y,-z
-x,-y,-z
x,1/2+y,-z
-x,y,z
x,1/2-y,z
1/2+x,1/2+y,z
1/2-x,-y,z
1/2+x,1/2-y,-z
1/2-x,y,-z
1/2-x,1/2-y,-z
1/2+x,y,-z
1/2-x,1/2+y,z
1/2+x,-y,z
loop_
_atom_site_type_symbol
_atom_site_label
_atom_site_fract_x
_atom_site_fract_y
_atom_site_fract_z
Si Si1 0.396896 0.110692 0.785581
Si Si2 0.149454 0.015490 0.835496
Si Si3 0.893641 0.816777 0.281442
Si Si4 0.609990 0.685155 0.987168
Si Si5 0.500000 0.000000 0.000000
Si Si6 0.224923 0.405694 0.628226
O O1 0.500000 0.129178 0.755369
O O2 0.366093 0.144335 0.904057
O O3 0.318550 0.114952 0.688010
O O4 0.400500 0.043501 0.807302
O O5 0.080601 0.038653 0.934008
O O6 0.171102 0.052134 0.717592
O O7 0.250000 0.000000 0.877807
O O8 0.884141 0.750000 0.294412
O O9 0.839196 0.851594 0.378774
O O10 0.000000 0.830668 0.287728
O O11 0.858937 0.831239 0.146573
O O12 0.500000 0.685845 0.981096
O O13 0.638362 0.750000 0.010589
O O14 0.250000 0.430553 0.500000
#
# Coordination Sequence:
#
# PCOD9504210 Si02
#       6
#    16  16  16  16   4  16
#     4  10  21  40  61  90 122 167 216 273 333 410
#     4  10  24  40  62  96 131 170 212 281 347 419
#     4   9  20  39  65  96 129 170 218 277 345 408
#     4   8  16  33  60  94 130 160 198 261 340 407
#     4  12  22  40  68 100 130 168 214 290 368 404
#     4  11  26  43  61  89 129 178 227 278 331 406
#
# _framework density 21.494067999999999
#
# number of rings (size 3 to 8) (size 9 to 14) (size 15 to 20)
#    0.000    2.286    0.952    1.429    4.000    6.095 
#    0.000    2.857    0.000    2.286    0.000    0.000 
#    0.000    0.000    0.000    0.000    0.000    0.000 
#
# Total GULP energy -233875.276467 kJ/mol
# GULP energy per Si atom -5568.458964 kJ/mol
# Density = 2.144515 g / cm^3
# Si number density = 21.494068 Si / 1000 Ang^3
#
#
#
# Elastic Constant Matrix: (Units=GPa)
#
#
# Indices 1 2 3 4 5 6 
#
# 1 132.6309 27.7243 37.3758 0.0000 0.0000 0.0000
# 2 27.7243 58.9012 38.6187 0.0000 0.0000 0.0000
# 3 37.3758 38.6187 106.1789 0.0000 0.0000 0.0000
# 4 0.0000 0.0000 0.0000 18.3620 0.0000 0.0000
# 5 0.0000 0.0000 0.0000 0.0000 19.1849 0.0000
# 6 0.0000 0.0000 0.0000 0.0000 0.0000 13.2122
#
#
#
# Elastic Compliance Matrix: (Units=1/GPa)
#
#
# Indices 1 2 3 4 5 6 
#
# 1 0.008694 -0.002739 -0.002064 0.000000 0.000000 0.000000
# 2 -0.002739 0.023157 -0.007458 0.000000 0.000000 0.000000
# 3 -0.002064 -0.007458 0.012857 0.000000 0.000000 0.000000
# 4 0.000000 0.000000 0.000000 0.054460 0.000000 0.000000
# 5 0.000000 0.000000 0.000000 0.000000 0.052124 0.000000
# 6 0.000000 0.000000 0.000000 0.000000 0.000000 0.075688
#
#
# Mechanical properties :
#
#
# Convention : Reuss Voigt Hill
#
# Bulk Modulus (GPa) = 49.54068 56.12762 52.83415
# Shear Modulus (GPa) = 19.36246 23.08463 21.22354
#
# Velocity S-wave (km/s) = 3.00464 3.28075 3.14572
# Velocity P-wave (km/s) = 5.92754 6.36560 6.15047
#
# Compressibility (1/GPa) = 0.02018543
#
# Stress axis : x y z
#
# Youngs Moduli (GPa) = 115.02309 43.18388 77.77616
#
# Poissons Ratio (x) = 0.11827 0.16055
# Poissons Ratio (y) = 0.31502 0.58009
# Poissons Ratio (z) = 0.23743 0.32208
#
# Static dielectric constant tensor:
#      x y z
#    x 1.669430 0.000000 0.000000 
#    y 0.000000 1.863140 0.000000 
#    z 0.000000 0.000000 1.931670 
# 
# From -- ./inp_files/18109.got.cif
#   From: 2010.05.17/outbox.cif.g08.bks.cpg/sg67_10_cif.got.tgz:18109.got - 2010.06.03 18:28:57.
