data_PCOD9504435
_publ_section_title
;
Structure prediction by ZEFSAII (Michael W. Deem and Ramdas Pophale) SiO2 
 PCOD9504435
Probable space group: C M M A
;
_chemical_formula_sum "Si O2"
_cell_formula_units_Z 96
_cell_length_a 17.815611
_cell_length_b 25.182809
_cell_length_c 10.343936
_cell_angle_alpha 90.000000
_cell_angle_beta 90.000000
_cell_angle_gamma 90.000000
_cell_volume 4640.777189
_symmetry_space_group_name_H-M "C M M A"
_symmetry_group_IT_number 67
_symmetry_cell_setting 'orthorhombic'
loop_
_space_group_symop_operation_xyz
x,y,z
-x,1/2-y,z
x,-y,-z
-x,1/2+y,-z
-x,-y,-z
x,1/2+y,-z
-x,y,z
x,1/2-y,z
1/2+x,1/2+y,z
1/2-x,-y,z
1/2+x,1/2-y,-z
1/2-x,y,-z
1/2-x,1/2-y,-z
1/2+x,y,-z
1/2-x,1/2+y,z
1/2+x,-y,z
loop_
_atom_site_type_symbol
_atom_site_label
_atom_site_fract_x
_atom_site_fract_y
_atom_site_fract_z
Si Si1 0.301710 0.097405 0.624801
Si Si2 0.082436 0.938027 0.962544
Si Si3 0.415062 0.311096 0.624183
Si Si4 0.586634 0.809437 0.688290
Si Si5 0.163999 0.086653 0.793357
Si Si6 0.586492 0.981437 0.316159
O O1 0.250000 0.108699 0.500000
O O2 0.349575 0.149079 0.662593
O O3 0.247813 0.079101 0.741355
O O4 0.358964 0.049953 0.587996
O O5 0.090617 0.942361 0.809461
O O6 0.000000 0.914514 0.994659
O O7 0.146826 0.914876 0.053700
O O8 0.079279 0.000000 0.000000
O O9 0.500000 0.327480 0.663447
O O10 0.403618 0.250000 0.665312
O O11 0.413649 0.311728 0.467618
O O12 0.500000 0.816127 0.729818
O O13 0.611749 0.750000 0.725458
O O14 0.635787 0.856890 0.741838
O O15 0.115834 0.038702 0.729425
O O16 0.500000 0.984633 0.355814
#
# Coordination Sequence:
#
# PCOD9504435 Si02
#       6
#    16  16  16  16  16  16
#     4  12  24  37  51  84 123 150 184 231 295 349
#     4   8  16  34  59  82 101 138 197 242 275 329
#     4   9  19  38  60  79 107 155 207 238 269 335
#     4   9  17  31  53  82 112 145 190 235 279 338
#     4  11  20  34  57  84 117 148 185 241 299 342
#     4  10  22  40  59  77 109 156 201 238 280 347
#
# _framework density 20.686191000000001
#
# number of rings (size 3 to 8) (size 9 to 14) (size 15 to 20)
#    0.000    2.167    1.667    4.500    0.000    3.000 
#    0.000    3.333    0.000    1.000    0.000    7.000 
#    0.000    0.000    0.000    0.000    0.000    0.000 
#
# Total GULP energy -267892.448982 kJ/mol
# GULP energy per Si atom -5581.092687 kJ/mol
# Density = 2.063911 g / cm^3
# Si number density = 20.686191 Si / 1000 Ang^3
#
#
#
# Elastic Constant Matrix: (Units=GPa)
#
#
# Indices 1 2 3 4 5 6 
#
# 1 134.7949 59.2908 19.8287 0.0000 0.0000 0.0000
# 2 59.2908 96.5895 6.6052 0.0000 0.0000 0.0000
# 3 19.8287 6.6052 53.2893 0.0000 0.0000 0.0000
# 4 0.0000 0.0000 0.0000 21.9329 0.0000 0.0000
# 5 0.0000 0.0000 0.0000 0.0000 16.5440 0.0000
# 6 0.0000 0.0000 0.0000 0.0000 0.0000 205.6939
#
#
#
# Elastic Compliance Matrix: (Units=1/GPa)
#
#
# Indices 1 2 3 4 5 6 
#
# 1 0.010673 -0.006334 -0.003186 0.000000 0.000000 0.000000
# 2 -0.006334 0.014200 0.000597 0.000000 0.000000 0.000000
# 3 -0.003186 0.000597 0.019877 0.000000 0.000000 0.000000
# 4 0.000000 0.000000 0.000000 0.045594 0.000000 0.000000
# 5 0.000000 0.000000 0.000000 0.000000 0.060445 0.000000
# 6 0.000000 0.000000 0.000000 0.000000 0.000000 0.004862
#
#
# Mechanical properties :
#
#
# Convention : Reuss Voigt Hill
#
# Bulk Modulus (GPa) = 37.16971 50.68035 43.92503
# Shear Modulus (GPa) = 27.40231 62.09743 44.74987
#
# Velocity S-wave (km/s) = 3.64355 5.48488 4.65615
# Velocity P-wave (km/s) = 5.97561 8.04144 7.08423
#
# Compressibility (1/GPa) = 0.02690362
#
# Stress axis : x y z
#
# Youngs Moduli (GPa) = 93.69040 70.42093 50.30889
#
# Poissons Ratio (x) = 0.44604 0.16031
# Poissons Ratio (y) = 0.59343 -0.03002
# Poissons Ratio (z) = 0.29854 -0.04202
#
# Static dielectric constant tensor:
#      x y z
#    x 1.786960 0.000000 0.000000 
#    y 0.000000 1.717690 0.000000 
#    z 0.000000 0.000000 1.811100 
# 
# From -- ./inp_files/19614.got.cif
#   From: 2010.05.17/outbox.cif.g08.bks.cpg/sg67_10_cif.got.tgz:19614.got - 2010.06.03 18:28:57.
