data_PCOD9504251
_publ_section_title
;
Structure prediction by ZEFSAII (Michael W. Deem and Ramdas Pophale) SiO2 
 PCOD9504251
Probable space group: C M M A
;
_chemical_formula_sum "Si O2"
_cell_formula_units_Z 64
_cell_length_a 14.557934
_cell_length_b 18.986615
_cell_length_c 10.849307
_cell_angle_alpha 90.000000
_cell_angle_beta 90.000000
_cell_angle_gamma 90.000000
_cell_volume 2998.812336
_symmetry_space_group_name_H-M "C M M A"
_symmetry_group_IT_number 67
_symmetry_cell_setting 'orthorhombic'
loop_
_space_group_symop_operation_xyz
x,y,z
-x,1/2-y,z
x,-y,-z
-x,1/2+y,-z
-x,-y,-z
x,1/2+y,-z
-x,y,z
x,1/2-y,z
1/2+x,1/2+y,z
1/2-x,-y,z
1/2+x,1/2-y,-z
1/2-x,y,-z
1/2-x,1/2-y,-z
1/2+x,y,-z
1/2-x,1/2+y,z
1/2+x,-y,z
loop_
_atom_site_type_symbol
_atom_site_label
_atom_site_fract_x
_atom_site_fract_y
_atom_site_fract_z
Si Si1 0.000000 0.615974 0.059538
Si Si2 0.391719 0.331005 0.487154
Si Si3 0.672852 0.330685 0.205189
Si Si4 0.500000 0.462903 0.815277
Si Si5 0.689600 0.932252 0.312675
O O1 0.092027 0.653639 0.108366
O O2 0.000000 0.538563 0.120121
O O3 0.000000 0.600282 0.914745
O O4 0.500000 0.343398 0.506628
O O5 0.370894 0.250000 0.520983
O O6 0.370897 0.338589 0.342363
O O7 0.333964 0.382131 0.573001
O O8 0.704538 0.250000 0.191361
O O9 0.755402 0.386700 0.209785
O O10 0.407768 0.457709 0.737569
O O11 0.750000 0.000000 0.344862
#
# Coordination Sequence:
#
# PCOD9504251 Si02
#       5
#     8  16  16   8  16
#     4  11  23  47  70  91 128 177 227 277 321 396
#     4  10  21  40  68  97 138 180 211 267 339 403
#     4  11  23  43  69 101 135 176 222 270 336 401
#     4  11  26  47  66  93 129 173 226 277 338 380
#     4  12  24  43  67 100 136 177 220 276 332 404
#
# _framework density 21.341781999999998
#
# number of rings (size 3 to 8) (size 9 to 14) (size 15 to 20)
#    0.000    1.000    5.000    1.875    0.000    5.000 
#    0.000    8.750    0.000    0.000    0.000    0.000 
#    0.000    0.000    0.000    0.000    0.000    0.000 
#
# Total GULP energy -179118.690383 kJ/mol
# GULP energy per Si atom -5597.459074 kJ/mol
# Density = 2.129321 g / cm^3
# Si number density = 21.341782 Si / 1000 Ang^3
#
#
#
# Elastic Constant Matrix: (Units=GPa)
#
#
# Indices 1 2 3 4 5 6 
#
# 1 143.0421 48.9129 22.4995 0.0000 0.0000 0.0000
# 2 48.9129 96.2976 12.0794 0.0000 0.0000 0.0000
# 3 22.4995 12.0794 46.6012 0.0000 0.0000 0.0000
# 4 0.0000 0.0000 0.0000 34.0405 0.0000 0.0000
# 5 0.0000 0.0000 0.0000 0.0000 3.2242 0.0000
# 6 0.0000 0.0000 0.0000 0.0000 0.0000 8.7389
#
#
#
# Elastic Compliance Matrix: (Units=1/GPa)
#
#
# Indices 1 2 3 4 5 6 
#
# 1 0.008908 -0.004119 -0.003233 0.000000 0.000000 0.000000
# 2 -0.004119 0.012638 -0.001287 0.000000 0.000000 0.000000
# 3 -0.003233 -0.001287 0.023353 0.000000 0.000000 0.000000
# 4 0.000000 0.000000 0.000000 0.029377 0.000000 0.000000
# 5 0.000000 0.000000 0.000000 0.000000 0.310157 0.000000
# 6 0.000000 0.000000 0.000000 0.000000 0.000000 0.114431
#
#
# Mechanical properties :
#
#
# Convention : Reuss Voigt Hill
#
# Bulk Modulus (GPa) = 36.20488 50.32497 43.26492
# Shear Modulus (GPa) = 9.51746 22.69731 16.10739
#
# Velocity S-wave (km/s) = 2.11405 3.26470 2.75022
# Velocity P-wave (km/s) = 4.79167 6.15164 5.51375
#
# Compressibility (1/GPa) = 0.02762058
#
# Stress axis : x y z
#
# Youngs Moduli (GPa) = 112.25824 79.12524 42.82049
#
# Poissons Ratio (x) = 0.32593 0.13845
# Poissons Ratio (y) = 0.46241 0.05512
# Poissons Ratio (z) = 0.36295 0.10185
#
# Static dielectric constant tensor:
#      x y z
#    x 1.790360 0.000000 0.000000 
#    y 0.000000 1.761410 0.000000 
#    z 0.000000 0.000000 1.756100 
# 
# From -- ./inp_files/17553.got.cif
#   From: 2010.05.17/outbox.cif.g08.bks.cpg/sg67_9_cif.got.tgz:17553.got - 2010.06.03 18:28:57.
