data_PCOD9504779
_publ_section_title
;
Structure prediction by ZEFSAII (Michael W. Deem and Ramdas Pophale) SiO2 
 PCOD9504779
Probable space group: C M M A
;
_chemical_formula_sum "Si O2"
_cell_formula_units_Z 96
_cell_length_a 26.981639
_cell_length_b 9.764252
_cell_length_c 22.339569
_cell_angle_alpha 90.000000
_cell_angle_beta 90.000000
_cell_angle_gamma 90.000000
_cell_volume 5885.482825
_symmetry_space_group_name_H-M "C M M A"
_symmetry_group_IT_number 67
_symmetry_cell_setting 'orthorhombic'
loop_
_space_group_symop_operation_xyz
x,y,z
-x,1/2-y,z
x,-y,-z
-x,1/2+y,-z
-x,-y,-z
x,1/2+y,-z
-x,y,z
x,1/2-y,z
1/2+x,1/2+y,z
1/2-x,-y,z
1/2+x,1/2-y,-z
1/2-x,y,-z
1/2-x,1/2-y,-z
1/2+x,y,-z
1/2-x,1/2+y,z
1/2+x,-y,z
loop_
_atom_site_type_symbol
_atom_site_label
_atom_site_fract_x
_atom_site_fract_y
_atom_site_fract_z
Si Si1 0.653486 0.517472 0.862160
Si Si2 0.702894 0.750000 0.085633
Si Si3 0.056160 0.086941 0.197972
Si Si4 0.319011 0.750000 0.947427
Si Si5 0.614730 0.088174 0.680572
Si Si6 0.299533 0.090381 0.263682
Si Si7 0.058229 0.911747 0.557483
O O1 0.684133 0.381859 0.878760
O O2 0.597604 0.481231 0.843486
O O3 0.656306 0.617598 0.918279
O O4 0.679276 0.583560 0.804032
O O5 0.761743 0.750000 0.074872
O O6 0.680274 0.750000 0.018820
O O7 0.057085 0.250000 0.186422
O O8 0.074551 0.068760 0.266371
O O9 0.000000 0.037459 0.190017
O O10 0.629613 0.250000 0.683133
O O11 0.590131 0.060386 0.616594
O O12 0.659797 0.987357 0.695693
O O13 0.291920 0.250000 0.279582
O O14 0.250000 0.000000 0.266234
O O15 0.062506 0.750000 0.544105
O O16 0.000000 0.940021 0.569813
O O17 0.073187 0.000000 0.500000
#
# Coordination Sequence:
#
# PCOD9504779 Si02
#       7
#    16   8  16   8  16  16  16
#     4  11  21  35  54  79 103 135 173 213 261 314
#     4  11  22  36  55  77 101 143 169 208 256 322
#     4   9  17  32  55  77 100 135 176 215 255 306
#     4  11  22  36  53  77 111 131 169 212 266 310
#     4   9  18  32  52  78 106 137 178 217 258 305
#     4  11  22  34  53  77 107 138 169 212 263 315
#     4   9  17  30  50  77 109 145 180 216 259 308
#
# _framework density 16.311319999999998
#
# number of rings (size 3 to 8) (size 9 to 14) (size 15 to 20)
#    0.000    2.000    1.667    3.000    2.333    4.000 
#    0.000    0.417    0.000    4.500    0.000    3.500 
#    0.000    0.000    0.000    0.000    0.000    0.000 
#
# Total GULP energy -267820.010420 kJ/mol
# GULP energy per Si atom -5579.583550 kJ/mol
# Density = 1.627420 g / cm^3
# Si number density = 16.311320 Si / 1000 Ang^3
#
#
#
# Elastic Constant Matrix: (Units=GPa)
#
#
# Indices 1 2 3 4 5 6 
#
# 1 103.0284 45.0994 42.1192 0.0000 0.0000 0.0000
# 2 45.0994 89.1453 40.9567 0.0000 0.0000 0.0000
# 3 42.1192 40.9567 89.8759 0.0000 0.0000 0.0000
# 4 0.0000 0.0000 0.0000 24.2921 0.0000 0.0000
# 5 0.0000 0.0000 0.0000 0.0000 23.6954 0.0000
# 6 0.0000 0.0000 0.0000 0.0000 0.0000 35.7470
#
#
#
# Elastic Compliance Matrix: (Units=1/GPa)
#
#
# Indices 1 2 3 4 5 6 
#
# 1 0.013556 -0.004983 -0.004082 0.000000 0.000000 0.000000
# 2 -0.004983 0.016020 -0.004965 0.000000 0.000000 0.000000
# 3 -0.004082 -0.004965 0.015302 0.000000 0.000000 0.000000
# 4 0.000000 0.000000 0.000000 0.041166 0.000000 0.000000
# 5 0.000000 0.000000 0.000000 0.000000 0.042202 0.000000
# 6 0.000000 0.000000 0.000000 0.000000 0.000000 0.027974
#
#
# Mechanical properties :
#
#
# Convention : Reuss Voigt Hill
#
# Bulk Modulus (GPa) = 59.46090 59.82226 59.64158
# Shear Modulus (GPa) = 26.33160 27.00518 26.66839
#
# Velocity S-wave (km/s) = 4.02221 4.07333 4.04785
# Velocity P-wave (km/s) = 7.62259 7.67318 7.64792
#
# Compressibility (1/GPa) = 0.01681777
#
# Stress axis : x y z
#
# Youngs Moduli (GPa) = 73.76810 62.42378 65.35009
#
# Poissons Ratio (x) = 0.31103 0.26678
# Poissons Ratio (y) = 0.36755 0.32447
# Poissons Ratio (z) = 0.30114 0.30994
#
# Static dielectric constant tensor:
#      x y z
#    x 1.535110 0.000000 0.000000 
#    y 0.000000 1.461950 0.000000 
#    z 0.000000 0.000000 1.521310 
# 
# From -- ./inp_files/42712.got.cif
#   From: 2010.05.17/outbox.cif.g08.bks.cpg/sg67_22_cif.got.tgz:42712.got - 2010.06.03 18:28:57.
