data_PCOD9504098
_publ_section_title
;
Structure prediction by ZEFSAII (Michael W. Deem and Ramdas Pophale) SiO2 
 PCOD9504098
Probable space group: C M M A
;
_chemical_formula_sum "Si O2"
_cell_formula_units_Z 52
_cell_length_a 14.090796
_cell_length_b 15.474290
_cell_length_c 11.072513
_cell_angle_alpha 90.000000
_cell_angle_beta 90.000000
_cell_angle_gamma 90.000000
_cell_volume 2414.306802
_symmetry_space_group_name_H-M "C M M A"
_symmetry_group_IT_number 67
_symmetry_cell_setting 'orthorhombic'
loop_
_space_group_symop_operation_xyz
x,y,z
-x,1/2-y,z
x,-y,-z
-x,1/2+y,-z
-x,-y,-z
x,1/2+y,-z
-x,y,z
x,1/2-y,z
1/2+x,1/2+y,z
1/2-x,-y,z
1/2+x,1/2-y,-z
1/2-x,y,-z
1/2-x,1/2-y,-z
1/2+x,y,-z
1/2-x,1/2+y,z
1/2+x,-y,z
loop_
_atom_site_type_symbol
_atom_site_label
_atom_site_fract_x
_atom_site_fract_y
_atom_site_fract_z
Si Si1 0.108406 0.149308 0.962109
Si Si2 0.000000 0.500000 0.500000
Si Si3 0.280235 0.595938 0.190572
Si Si4 0.353147 0.152856 0.559317
O O1 0.109801 0.250000 0.999644
O O2 0.182217 0.140016 0.852399
O O3 0.000000 0.125177 0.933236
O O4 0.151874 0.095218 0.072938
O O5 0.918615 0.575969 0.514402
O O6 0.250000 0.500000 0.227629
O O7 0.335315 0.641953 0.297533
O O8 0.388517 0.250000 0.533825
O O9 0.250000 0.145032 0.500000
#
# Coordination Sequence:
#
# PCOD9504098 Si02
#       4
#    16   4  16  16
#     4  10  21  38  62  93 133 180 233 283 345 420
#     4  12  24  44  72 104 130 172 238 284 342 422
#     4  11  22  39  64  94 135 178 226 290 346 416
#     4  11  25  47  71  99 140 182 228 291 359 423
#
# _framework density 21.538274000000001
#
# number of rings (size 3 to 8) (size 9 to 14) (size 15 to 20)
#    0.000    1.231    0.000    8.308    2.154    2.462 
#    8.308    0.000    0.000    0.000    0.000    0.000 
#    0.000    0.000    0.000    0.000    0.000    0.000 
#
# Total GULP energy -144844.055171 kJ/mol
# GULP energy per Si atom -5570.925199 kJ/mol
# Density = 2.148925 g / cm^3
# Si number density = 21.538274 Si / 1000 Ang^3
#
#
#
# Elastic Constant Matrix: (Units=GPa)
#
#
# Indices 1 2 3 4 5 6 
#
# 1 163.1721 74.6983 11.6687 0.0000 0.0000 0.0000
# 2 74.6983 178.6495 30.7068 0.0000 0.0000 0.0000
# 3 11.6687 30.7068 22.9687 0.0000 0.0000 0.0000
# 4 0.0000 0.0000 0.0000 37.5916 0.0000 0.0000
# 5 0.0000 0.0000 0.0000 0.0000 -13.2771 0.0000
# 6 0.0000 0.0000 0.0000 0.0000 0.0000 41.1422
#
#
#
# Elastic Compliance Matrix: (Units=1/GPa)
#
#
# Indices 1 2 3 4 5 6 
#
# 1 0.007584 -0.003257 0.000502 0.000000 0.000000 0.000000
# 2 -0.003257 0.008667 -0.009932 0.000000 0.000000 0.000000
# 3 0.000502 -0.009932 0.056560 0.000000 0.000000 0.000000
# 4 0.000000 0.000000 0.000000 0.026602 0.000000 0.000000
# 5 0.000000 0.000000 0.000000 0.000000 -0.075318 0.000000
# 6 0.000000 0.000000 0.000000 0.000000 0.000000 0.024306
#
#
# Mechanical properties :
#
#
# Convention : Reuss Voigt Hill
#
# Bulk Modulus (GPa) = 21.08083 66.54863 43.81473
# Shear Modulus (GPa) = 55.81217 29.60577 42.70897
#
# Velocity S-wave (km/s) = 5.09601 3.71154 4.45785
# Velocity P-wave (km/s) = 6.66593 7.02369 6.84715
#
# Compressibility (1/GPa) = 0.04743646
#
# Stress axis : x y z
#
# Youngs Moduli (GPa) = 131.86119 115.38624 17.68034
#
# Poissons Ratio (x) = 0.37584 -0.00887
# Poissons Ratio (y) = 0.42950 0.17559
# Poissons Ratio (z) = -0.06617 1.14596
#
# Static dielectric constant tensor:
#      x y z
#    x 1.914280 0.000000 0.000000 
#    y 0.000000 1.800600 0.000000 
#    z 0.000000 0.000000 1.827800 
# 
# From -- ./inp_files/17214.got.cif
#   From: 2010.05.17/outbox.cif.g08.bks.cpg/sg67_9_cif.got.tgz:17214.got - 2010.06.03 18:28:57.
