data_PCOD9504051
_publ_section_title
;
Structure prediction by ZEFSAII (Michael W. Deem and Ramdas Pophale) SiO2 
 PCOD9504051
Probable space group: C M M A
;
_chemical_formula_sum "Si O2"
_cell_formula_units_Z 80
_cell_length_a 17.629713
_cell_length_b 10.108758
_cell_length_c 24.652623
_cell_angle_alpha 90.000000
_cell_angle_beta 90.000000
_cell_angle_gamma 90.000000
_cell_volume 4393.454939
_symmetry_space_group_name_H-M "C M M A"
_symmetry_group_IT_number 67
_symmetry_cell_setting 'orthorhombic'
loop_
_space_group_symop_operation_xyz
x,y,z
-x,1/2-y,z
x,-y,-z
-x,1/2+y,-z
-x,-y,-z
x,1/2+y,-z
-x,y,z
x,1/2-y,z
1/2+x,1/2+y,z
1/2-x,-y,z
1/2+x,1/2-y,-z
1/2-x,y,-z
1/2-x,1/2-y,-z
1/2+x,y,-z
1/2-x,1/2+y,z
1/2+x,-y,z
loop_
_atom_site_type_symbol
_atom_site_label
_atom_site_fract_x
_atom_site_fract_y
_atom_site_fract_z
Si Si1 0.676871 0.905216 0.778600
Si Si2 0.411465 0.503062 0.881820
Si Si3 0.353329 0.750000 0.946616
Si Si4 0.091100 0.598579 0.453419
Si Si5 0.675896 0.250000 0.925256
Si Si6 0.678447 0.904818 0.655570
O O1 0.697623 0.750000 0.785142
O O2 0.615520 0.943544 0.823481
O O3 0.647996 0.923104 0.716799
O O4 0.750000 0.000000 0.785370
O O5 0.500000 0.468158 0.882139
O O6 0.394947 0.620363 0.924407
O O7 0.359489 0.379083 0.897763
O O8 0.267156 0.750000 0.923596
O O9 0.347096 0.750000 0.011361
O O10 0.119268 0.500000 0.500000
O O11 0.112706 0.750000 0.466305
O O12 0.121955 0.566867 0.393698
O O13 0.000000 0.591696 0.452241
O O14 0.700705 0.750000 0.651465
O O15 0.750000 0.000000 0.649949
#
# Coordination Sequence:
#
# PCOD9504051 Si02
#       6
#    16  16   8  16   8  16
#     4  10  21  38  61  84 112 152 195 236 284 348
#     4  12  25  39  60  91 121 150 189 241 295 340
#     4  11  23  43  67  87 113 153 202 233 276 349
#     4   9  18  33  53  77 108 147 188 230 280 335
#     4  11  25  43  63  87 117 157 192 233 286 351
#     4   9  19  35  55  82 110 144 187 233 280 328
#
# _framework density 18.208905000000001
#
# number of rings (size 3 to 8) (size 9 to 14) (size 15 to 20)
#    0.000    1.800    1.000    3.000    1.400    6.000 
#    0.000    4.000    0.000    0.000    0.000    0.000 
#    0.000    0.000    0.000    0.000    0.000    0.000 
#
# Total GULP energy -223347.547380 kJ/mol
# GULP energy per Si atom -5583.688685 kJ/mol
# Density = 1.816746 g / cm^3
# Si number density = 18.208905 Si / 1000 Ang^3
#
#
#
# Elastic Constant Matrix: (Units=GPa)
#
#
# Indices 1 2 3 4 5 6 
#
# 1 46.6684 17.7578 30.6965 0.0000 0.0000 0.0000
# 2 17.7578 81.1933 41.0395 0.0000 0.0000 0.0000
# 3 30.6965 41.0395 113.7911 0.0000 0.0000 0.0000
# 4 0.0000 0.0000 0.0000 32.5678 0.0000 0.0000
# 5 0.0000 0.0000 0.0000 0.0000 13.0677 0.0000
# 6 0.0000 0.0000 0.0000 0.0000 0.0000 23.3067
#
#
#
# Elastic Compliance Matrix: (Units=1/GPa)
#
#
# Indices 1 2 3 4 5 6 
#
# 1 0.026515 -0.002671 -0.006190 0.000000 0.000000 0.000000
# 2 -0.002671 0.015331 -0.004809 0.000000 0.000000 0.000000
# 3 -0.006190 -0.004809 0.012192 0.000000 0.000000 0.000000
# 4 0.000000 0.000000 0.000000 0.030705 0.000000 0.000000
# 5 0.000000 0.000000 0.000000 0.000000 0.076524 0.000000
# 6 0.000000 0.000000 0.000000 0.000000 0.000000 0.042906
#
#
# Mechanical properties :
#
#
# Convention : Reuss Voigt Hill
#
# Bulk Modulus (GPa) = 37.45278 46.73783 42.09531
# Shear Modulus (GPa) = 20.79763 23.93239 22.36501
#
# Velocity S-wave (km/s) = 3.38326 3.62929 3.50844
# Velocity P-wave (km/s) = 5.98958 6.57918 6.29129
#
# Compressibility (1/GPa) = 0.02670028
#
# Stress axis : x y z
#
# Youngs Moduli (GPa) = 37.71416 65.22733 82.02044
#
# Poissons Ratio (x) = 0.17420 0.50768
# Poissons Ratio (y) = 0.10072 0.39442
# Poissons Ratio (z) = 0.23344 0.31367
#
# Static dielectric constant tensor:
#      x y z
#    x 1.589550 0.000000 0.000000 
#    y 0.000000 1.617600 0.000000 
#    z 0.000000 0.000000 1.629960 
# 
# From -- ./inp_files/44467.got.cif
#   From: 2010.05.17/outbox.cif.g08.bks.cpg/sg67_23_cif.got.tgz:44467.got - 2010.06.03 18:28:57.
