data_PCOD9504605
_publ_section_title
;
Structure prediction by ZEFSAII (Michael W. Deem and Ramdas Pophale) SiO2 
 PCOD9504605
Probable space group: C M M A
;
_chemical_formula_sum "Si O2"
_cell_formula_units_Z 68
_cell_length_a 7.744600
_cell_length_b 19.949234
_cell_length_c 20.444488
_cell_angle_alpha 90.000000
_cell_angle_beta 90.000000
_cell_angle_gamma 90.000000
_cell_volume 3158.649632
_symmetry_space_group_name_H-M "C M M A"
_symmetry_group_IT_number 67
_symmetry_cell_setting 'orthorhombic'
loop_
_space_group_symop_operation_xyz
x,y,z
-x,1/2-y,z
x,-y,-z
-x,1/2+y,-z
-x,-y,-z
x,1/2+y,-z
-x,y,z
x,1/2-y,z
1/2+x,1/2+y,z
1/2-x,-y,z
1/2+x,1/2-y,-z
1/2-x,y,-z
1/2-x,1/2-y,-z
1/2+x,y,-z
1/2-x,1/2+y,z
1/2+x,-y,z
loop_
_atom_site_type_symbol
_atom_site_label
_atom_site_fract_x
_atom_site_fract_y
_atom_site_fract_z
Si Si1 0.796703 0.174842 0.189422
Si Si2 0.706920 0.426412 0.701400
Si Si3 0.198906 0.135732 0.570235
Si Si4 0.500000 0.750000 0.416982
Si Si5 0.702710 0.076572 0.075954
O O1 0.723916 0.250000 0.184292
O O2 0.725761 0.130514 0.249004
O O3 0.781998 0.131577 0.123626
O O4 0.000000 0.181572 0.203107
O O5 0.500000 0.420980 0.696168
O O6 0.750000 0.500000 0.727346
O O7 0.788114 0.414776 0.630564
O O8 0.250000 0.105602 0.500000
O O9 0.344978 0.192167 0.582692
O O10 0.000000 0.161657 0.565979
O O11 0.500000 0.083149 0.082545
O O12 0.750000 0.000000 0.093565
O O13 0.750000 0.086391 0.000000
#
# Coordination Sequence:
#
# PCOD9504605 Si02
#       5
#    16  16  16   4  16
#     4  10  23  42  66  95 132 171 212 266 325 382
#     4  11  24  44  68  95 131 173 220 273 331 398
#     4  12  25  42  68 101 132 178 221 275 332 400
#     4  12  24  44  66 100 144 166 222 268 346 392
#     4  11  22  39  65  94 128 168 217 264 316 385
#
# _framework density 21.528186000000002
#
# number of rings (size 3 to 8) (size 9 to 14) (size 15 to 20)
#    0.000    0.941    2.353    4.941    1.647    5.176 
#    0.000    2.353    0.000    0.000    0.000    0.000 
#    0.000    0.000    0.000    0.000    0.000    0.000 
#
# Total GULP energy -189507.835124 kJ/mol
# GULP energy per Si atom -5573.759857 kJ/mol
# Density = 2.147919 g / cm^3
# Si number density = 21.528186 Si / 1000 Ang^3
#
#
#
# Elastic Constant Matrix: (Units=GPa)
#
#
# Indices 1 2 3 4 5 6 
#
# 1 131.0904 15.2961 3.1413 0.0000 0.0000 0.0000
# 2 15.2961 158.0083 85.0708 0.0000 0.0000 0.0000
# 3 3.1413 85.0708 100.3990 0.0000 0.0000 0.0000
# 4 0.0000 0.0000 0.0000 -106.3161 0.0000 0.0000
# 5 0.0000 0.0000 0.0000 0.0000 -4.4894 0.0000
# 6 0.0000 0.0000 0.0000 0.0000 0.0000 31.1479
#
#
#
# Elastic Compliance Matrix: (Units=1/GPa)
#
#
# Indices 1 2 3 4 5 6 
#
# 1 0.007744 -0.001139 0.000723 0.000000 0.000000 0.000000
# 2 -0.001139 0.011805 -0.009967 0.000000 0.000000 0.000000
# 3 0.000723 -0.009967 0.018383 0.000000 0.000000 0.000000
# 4 0.000000 0.000000 0.000000 -0.009406 0.000000 0.000000
# 5 0.000000 0.000000 0.000000 0.000000 -0.222746 0.000000
# 6 0.000000 0.000000 0.000000 0.000000 0.000000 0.032105
#
#
# Mechanical properties :
#
#
# Convention : Reuss Voigt Hill
#
# Bulk Modulus (GPa) = 58.25639 66.27934 62.26786
# Shear Modulus (GPa) = -36.86619 3.13444 -16.86587
#
# Velocity S-wave (km/s) = -4.14268 1.20795 -2.80202
# Velocity P-wave (km/s) = 2.05837 5.72709 4.30328
#
# Compressibility (1/GPa) = 0.01716550
#
# Stress axis : x y z
#
# Youngs Moduli (GPa) = 129.13436 84.70691 54.39718
#
# Poissons Ratio (x) = 0.09645 -0.03930
# Poissons Ratio (y) = 0.14704 0.54220
# Poissons Ratio (z) = -0.09330 0.84431
#
# Static dielectric constant tensor:
#      x y z
#    x 1.781610 0.000000 0.000000 
#    y 0.000000 1.760260 0.000000 
#    z 0.000000 0.000000 1.745160 
# 
# From -- ./inp_files/36636.got.cif
#   From: 2010.05.17/outbox.cif.g08.bks.cpg/sg67_19_cif.got.tgz:36636.got - 2010.06.03 18:28:57.
