data_PCOD9504876
_publ_section_title
;
Structure prediction by ZEFSAII (Michael W. Deem and Ramdas Pophale) SiO2 
 PCOD9504876
Probable space group: C M M A
;
_chemical_formula_sum "Si O2"
_cell_formula_units_Z 100
_cell_length_a 7.512142
_cell_length_b 27.308988
_cell_length_c 21.565869
_cell_angle_alpha 90.000000
_cell_angle_beta 90.000000
_cell_angle_gamma 90.000000
_cell_volume 4424.216367
_symmetry_space_group_name_H-M "C M M A"
_symmetry_group_IT_number 67
_symmetry_cell_setting 'orthorhombic'
loop_
_space_group_symop_operation_xyz
x,y,z
-x,1/2-y,z
x,-y,-z
-x,1/2+y,-z
-x,-y,-z
x,1/2+y,-z
-x,y,z
x,1/2-y,z
1/2+x,1/2+y,z
1/2-x,-y,z
1/2+x,1/2-y,-z
1/2-x,y,-z
1/2-x,1/2-y,-z
1/2+x,y,-z
1/2-x,1/2+y,z
1/2+x,-y,z
loop_
_atom_site_type_symbol
_atom_site_label
_atom_site_fract_x
_atom_site_fract_y
_atom_site_fract_z
Si Si1 0.788978 0.587991 0.414562
Si Si2 0.250000 0.500000 0.500000
Si Si3 0.298331 0.695881 0.579768
Si Si4 0.712517 0.379879 0.826765
Si Si5 0.291795 0.696869 0.281313
Si Si6 0.213822 0.194928 0.072693
Si Si7 0.288775 0.056355 0.722309
O O1 0.695874 0.542103 0.448788
O O2 0.719874 0.642049 0.433993
O O3 0.776433 0.583259 0.340010
O O4 0.000000 0.583993 0.429906
O O5 0.500000 0.696096 0.554922
O O6 0.217859 0.750000 0.565691
O O7 0.308187 0.694530 0.654341
O O8 0.500000 0.386644 0.837815
O O9 0.742930 0.342357 0.770308
O O10 0.782829 0.350685 0.886492
O O11 0.780636 0.427963 0.790760
O O12 0.500000 0.693032 0.298525
O O13 0.261752 0.750000 0.252650
O O14 0.279840 0.250000 0.089195
O O15 0.000000 0.196302 0.081996
O O16 0.250000 0.187779 0.000000
O O17 0.500000 0.065094 0.722959
O O18 0.250000 0.000000 0.712304
#
# Coordination Sequence:
#
# PCOD9504876 Si02
#       7
#    16   4  16  16  16  16  16
#     4  11  23  40  60  84 114 148 188 235 287 342
#     4  12  26  40  62  86 110 148 200 242 278 344
#     4   9  18  33  53  78 110 144 174 217 281 339
#     4   9  17  30  50  77 106 144 184 225 273 328
#     4   9  15  25  45  74 104 134 171 212 257 316
#     4   9  17  31  51  77 113 153 191 230 274 327
#     4  11  22  37  58  83 113 144 183 235 292 344
#
# _framework density 22.602872000000001
#
# number of rings (size 3 to 8) (size 9 to 14) (size 15 to 20)
#    0.000    2.240    2.400    1.200    0.000    2.560 
#    0.000    2.800    0.000    4.320    0.000    3.360 
#    0.000    0.000    0.000    0.000    0.000    0.000 
#
# Total GULP energy -278402.769980 kJ/mol
# GULP energy per Si atom -5568.055400 kJ/mol
# Density = 2.255143 g / cm^3
# Si number density = 22.602872 Si / 1000 Ang^3
#
#
#
# Elastic Constant Matrix: (Units=GPa)
#
#
# Indices 1 2 3 4 5 6 
#
# 1 58.8002 12.0802 9.0274 0.0000 0.0000 0.0000
# 2 12.0802 175.5649 35.8954 0.0000 0.0000 0.0000
# 3 9.0274 35.8954 111.2853 0.0000 0.0000 0.0000
# 4 0.0000 0.0000 0.0000 58.1797 0.0000 0.0000
# 5 0.0000 0.0000 0.0000 0.0000 231.0748 0.0000
# 6 0.0000 0.0000 0.0000 0.0000 0.0000 -6.5237
#
#
#
# Elastic Compliance Matrix: (Units=1/GPa)
#
#
# Indices 1 2 3 4 5 6 
#
# 1 0.017375 -0.000971 -0.001096 0.000000 0.000000 0.000000
# 2 -0.000971 0.006152 -0.001906 0.000000 0.000000 0.000000
# 3 -0.001096 -0.001906 0.009690 0.000000 0.000000 0.000000
# 4 0.000000 0.000000 0.000000 0.017188 0.000000 0.000000
# 5 0.000000 0.000000 0.000000 0.000000 0.004328 0.000000
# 6 0.000000 0.000000 0.000000 0.000000 0.000000 -0.153286
#
#
# Mechanical properties :
#
#
# Convention : Reuss Voigt Hill
#
# Bulk Modulus (GPa) = 39.57235 51.07293 45.32264
# Shear Modulus (GPa) = -60.83880 75.78931 7.47526
#
# Velocity S-wave (km/s) = -5.19373 5.79686 1.82055
# Velocity P-wave (km/s) = 4.29194 8.21277 4.95121
#
# Compressibility (1/GPa) = 0.02527017
#
# Stress axis : x y z
#
# Youngs Moduli (GPa) = 57.55527 162.53910 103.20443
#
# Poissons Ratio (x) = 0.15789 0.11312
# Poissons Ratio (y) = 0.05591 0.19667
# Poissons Ratio (z) = 0.06309 0.30975
#
# Static dielectric constant tensor:
#      x y z
#    x 1.909890 0.000000 0.000000 
#    y 0.000000 1.899840 0.000000 
#    z 0.000000 0.000000 1.830250 
# 
# From -- ./inp_files/37346.got.cif
#   From: 2010.05.17/outbox.cif.g08.bks.cpg/sg67_19_cif.got.tgz:37346.got - 2010.06.03 18:28:57.
