data_PCOD9504432
_publ_section_title
;
Structure prediction by ZEFSAII (Michael W. Deem and Ramdas Pophale) SiO2 
 PCOD9504432
Probable space group: C M M A
;
_chemical_formula_sum "Si O2"
_cell_formula_units_Z 56
_cell_length_a 13.073147
_cell_length_b 22.436151
_cell_length_c 9.033624
_cell_angle_alpha 90.000000
_cell_angle_beta 90.000000
_cell_angle_gamma 90.000000
_cell_volume 2649.662194
_symmetry_space_group_name_H-M "C M M A"
_symmetry_group_IT_number 67
_symmetry_cell_setting 'orthorhombic'
loop_
_space_group_symop_operation_xyz
x,y,z
-x,1/2-y,z
x,-y,-z
-x,1/2+y,-z
-x,-y,-z
x,1/2+y,-z
-x,y,z
x,1/2-y,z
1/2+x,1/2+y,z
1/2-x,-y,z
1/2+x,1/2-y,-z
1/2-x,y,-z
1/2-x,1/2-y,-z
1/2+x,y,-z
1/2-x,1/2+y,z
1/2+x,-y,z
loop_
_atom_site_type_symbol
_atom_site_label
_atom_site_fract_x
_atom_site_fract_y
_atom_site_fract_z
Si Si1 0.750000 0.594317 0.500000
Si Si2 0.376956 0.587512 0.069828
Si Si3 0.877007 0.534638 0.240553
Si Si4 0.123146 0.818282 0.705224
O O1 0.817890 0.555858 0.385653
O O2 0.826407 0.638361 0.586247
O O3 0.500000 0.586384 0.057109
O O4 0.357247 0.532785 0.183699
O O5 0.349551 0.650722 0.138869
O O6 0.342884 0.573335 0.903208
O O7 0.000000 0.540294 0.263021
O O8 0.157064 0.750000 0.693415
O O9 0.000000 0.819722 0.690160
#
# Coordination Sequence:
#
# PCOD9504432 Si02
#       4
#     8  16  16  16
#     4  12  23  35  56  90 121 151 184 234 298 351
#     4   8  17  38  63  83 110 151 196 239 282 333
#     4   9  19  37  61  89 118 148 188 239 291 344
#     4  10  22  40  58  79 113 156 199 239 281 338
#
# _framework density 21.134768999999999
#
# number of rings (size 3 to 8) (size 9 to 14) (size 15 to 20)
#    0.000    2.571    0.000    3.000    0.000    4.571 
#    0.000   11.429    0.000    6.857    0.000   12.000 
#    0.000    0.000    0.000    0.000    0.000    0.000 
#
# Total GULP energy -156533.417102 kJ/mol
# GULP energy per Si atom -5590.479182 kJ/mol
# Density = 2.108667 g / cm^3
# Si number density = 21.134769 Si / 1000 Ang^3
#
#
#
# Elastic Constant Matrix: (Units=GPa)
#
#
# Indices 1 2 3 4 5 6 
#
# 1 101.1646 55.3689 67.1976 0.0000 0.0000 0.0000
# 2 55.3689 121.6211 92.8103 0.0000 0.0000 0.0000
# 3 67.1976 92.8103 160.5898 0.0000 0.0000 0.0000
# 4 0.0000 0.0000 0.0000 28.2105 0.0000 0.0000
# 5 0.0000 0.0000 0.0000 0.0000 48.0218 0.0000
# 6 0.0000 0.0000 0.0000 0.0000 0.0000 32.4991
#
#
#
# Elastic Compliance Matrix: (Units=1/GPa)
#
#
# Indices 1 2 3 4 5 6 
#
# 1 0.014487 -0.003523 -0.004026 0.000000 0.000000 0.000000
# 2 -0.003523 0.015566 -0.007522 0.000000 0.000000 0.000000
# 3 -0.004026 -0.007522 0.012259 0.000000 0.000000 0.000000
# 4 0.000000 0.000000 0.000000 0.035448 0.000000 0.000000
# 5 0.000000 0.000000 0.000000 0.000000 0.020824 0.000000
# 6 0.000000 0.000000 0.000000 0.000000 0.000000 0.030770
#
#
# Mechanical properties :
#
#
# Convention : Reuss Voigt Hill
#
# Bulk Modulus (GPa) = 82.16789 90.45878 86.31334
# Shear Modulus (GPa) = 30.57098 32.94620 31.75859
#
# Velocity S-wave (km/s) = 3.80739 3.95253 3.88063
# Velocity P-wave (km/s) = 7.63484 7.98272 7.81071
#
# Compressibility (1/GPa) = 0.01217020
#
# Stress axis : x y z
#
# Youngs Moduli (GPa) = 69.02548 64.24077 81.57320
#
# Poissons Ratio (x) = 0.22634 0.32841
# Poissons Ratio (y) = 0.24320 0.61360
# Poissons Ratio (z) = 0.27789 0.48322
#
# Static dielectric constant tensor:
#      x y z
#    x 1.840990 0.000000 0.000000 
#    y 0.000000 1.719240 0.000000 
#    z 0.000000 0.000000 1.772670 
# 
# From -- ./inp_files/7692.got.cif
#   From: 2010.05.17/outbox.cif.g08.bks.cpg/sg67_4_cif.got.tgz:7692.got - 2010.06.03 18:28:57.
