data_PCOD9504687
_publ_section_title
;
Structure prediction by ZEFSAII (Michael W. Deem and Ramdas Pophale) SiO2 
 PCOD9504687
Probable space group: C M M A
;
_chemical_formula_sum "Si O2"
_cell_formula_units_Z 52
_cell_length_a 23.091159
_cell_length_b 9.655106
_cell_length_c 11.455828
_cell_angle_alpha 90.000000
_cell_angle_beta 90.000000
_cell_angle_gamma 90.000000
_cell_volume 2554.049219
_symmetry_space_group_name_H-M "C M M A"
_symmetry_group_IT_number 67
_symmetry_cell_setting 'orthorhombic'
loop_
_space_group_symop_operation_xyz
x,y,z
-x,1/2-y,z
x,-y,-z
-x,1/2+y,-z
-x,-y,-z
x,1/2+y,-z
-x,y,z
x,1/2-y,z
1/2+x,1/2+y,z
1/2-x,-y,z
1/2+x,1/2-y,-z
1/2-x,y,-z
1/2-x,1/2-y,-z
1/2+x,y,-z
1/2-x,1/2+y,z
1/2+x,-y,z
loop_
_atom_site_type_symbol
_atom_site_label
_atom_site_fract_x
_atom_site_fract_y
_atom_site_fract_z
Si Si1 0.433942 0.522143 0.759880
Si Si2 0.929953 0.250000 0.954784
Si Si3 0.750000 0.500000 0.000000
Si Si4 0.435150 0.750000 0.559157
Si Si5 0.129058 0.750000 0.673743
Si Si6 0.181757 0.750000 0.883379
O O1 0.500000 0.479086 0.779537
O O2 0.418296 0.616439 0.871470
O O3 0.431931 0.620314 0.645940
O O4 0.398390 0.388673 0.727071
O O5 0.000000 0.250000 0.982099
O O6 0.883121 0.250000 0.057901
O O7 0.788876 0.391594 0.072438
O O8 0.500000 0.750000 0.503074
O O9 0.385789 0.750000 0.461981
O O10 0.189206 0.750000 0.742369
#
# Coordination Sequence:
#
# PCOD9504687 Si02
#       6
#    16   8   4   8   8   8
#     4   9  18  31  48  75 118 162 184 205 259 340
#     4   9  19  36  55  83 122 150 172 218 290 347
#     4  10  24  46  62  74 106 150 204 236 264 328
#     4   9  18  32  47  72 117 163 188 206 256 337
#     4  12  20  28  50  83 105 131 190 242 270 305
#     4  11  23  40  62  86 106 145 190 238 283 324
#
# _framework density 20.359826999999999
#
# number of rings (size 3 to 8) (size 9 to 14) (size 15 to 20)
#    0.000    2.154    0.000    6.000    0.000    4.308 
#    0.000    3.846    0.000    0.000    0.000   73.231 
#    0.000    0.000    0.000    0.000    0.000    0.000 
#
# Total GULP energy -144936.143665 kJ/mol
# GULP energy per Si atom -5574.467064 kJ/mol
# Density = 2.031349 g / cm^3
# Si number density = 20.359827 Si / 1000 Ang^3
#
#
#
# Elastic Constant Matrix: (Units=GPa)
#
#
# Indices 1 2 3 4 5 6 
#
# 1 36.1384 11.7753 25.6797 0.0000 0.0000 0.0000
# 2 11.7753 106.2923 1.4803 0.0000 0.0000 0.0000
# 3 25.6797 1.4803 97.9262 0.0000 0.0000 0.0000
# 4 0.0000 0.0000 0.0000 13.1584 0.0000 0.0000
# 5 0.0000 0.0000 0.0000 0.0000 70.9447 0.0000
# 6 0.0000 0.0000 0.0000 0.0000 0.0000 10.3797
#
#
#
# Elastic Compliance Matrix: (Units=1/GPa)
#
#
# Indices 1 2 3 4 5 6 
#
# 1 0.035481 -0.003802 -0.009247 0.000000 0.000000 0.000000
# 2 -0.003802 0.009817 0.000849 0.000000 0.000000 0.000000
# 3 -0.009247 0.000849 0.012624 0.000000 0.000000 0.000000
# 4 0.000000 0.000000 0.000000 0.075997 0.000000 0.000000
# 5 0.000000 0.000000 0.000000 0.000000 0.014095 0.000000
# 6 0.000000 0.000000 0.000000 0.000000 0.000000 0.096342
#
#
# Mechanical properties :
#
#
# Convention : Reuss Voigt Hill
#
# Bulk Modulus (GPa) = 29.83136 35.35859 32.59497
# Shear Modulus (GPa) = 17.86159 32.32469 25.09314
#
# Velocity S-wave (km/s) = 2.96513 3.98888 3.51448
# Velocity P-wave (km/s) = 5.13873 6.21445 5.70202
#
# Compressibility (1/GPa) = 0.03352178
#
# Stress axis : x y z
#
# Youngs Moduli (GPa) = 28.18417 101.86011 79.21546
#
# Poissons Ratio (x) = 0.38726 0.73249
# Poissons Ratio (y) = 0.10715 -0.06722
# Poissons Ratio (z) = 0.26062 -0.08644
#
# Static dielectric constant tensor:
#      x y z
#    x 1.770440 0.000000 0.000000 
#    y 0.000000 1.842260 0.000000 
#    z 0.000000 0.000000 1.756010 
# 
# From -- ./inp_files/22536.got.cif
#   From: 2010.05.17/outbox.cif.g08.bks.cpg/sg67_12_cif.got.tgz:22536.got - 2010.06.03 18:28:57.
