data_PCOD9504881
_publ_section_title
;
Structure prediction by ZEFSAII (Michael W. Deem and Ramdas Pophale) SiO2 
 PCOD9504881
Probable space group: C M M A
;
_chemical_formula_sum "Si O2"
_cell_formula_units_Z 56
_cell_length_a 16.180955
_cell_length_b 13.917670
_cell_length_c 12.141976
_cell_angle_alpha 90.000000
_cell_angle_beta 90.000000
_cell_angle_gamma 90.000000
_cell_volume 2734.387468
_symmetry_space_group_name_H-M "C M M A"
_symmetry_group_IT_number 67
_symmetry_cell_setting 'orthorhombic'
loop_
_space_group_symop_operation_xyz
x,y,z
-x,1/2-y,z
x,-y,-z
-x,1/2+y,-z
-x,-y,-z
x,1/2+y,-z
-x,y,z
x,1/2-y,z
1/2+x,1/2+y,z
1/2-x,-y,z
1/2+x,1/2-y,-z
1/2-x,y,-z
1/2-x,1/2-y,-z
1/2+x,y,-z
1/2-x,1/2+y,z
1/2+x,-y,z
loop_
_atom_site_type_symbol
_atom_site_label
_atom_site_fract_x
_atom_site_fract_y
_atom_site_fract_z
Si Si1 0.095301 0.861965 0.846221
Si Si2 0.338726 0.750000 0.709673
Si Si3 0.296107 0.906006 0.344825
Si Si4 0.400589 0.250000 0.044253
Si Si5 0.903745 0.250000 0.472640
O O1 0.097945 0.750000 0.802116
O O2 0.147635 0.924717 0.762994
O O3 0.000000 0.892763 0.847846
O O4 0.126581 0.842502 0.970817
O O5 0.277846 0.839059 0.695611
O O6 0.376226 0.750000 0.830557
O O7 0.399109 0.750000 0.605097
O O8 0.353163 0.843390 0.427967
O O9 0.250000 0.000000 0.385878
O O10 0.500000 0.250000 0.035025
O O11 0.000000 0.250000 0.437739
#
# Coordination Sequence:
#
# PCOD9504881 Si02
#       5
#    16   8  16   8   8
#     4   8  15  33  63  86 113 160 202 235 292 369
#     4  11  22  37  59  87 124 163 202 258 314 355
#     4  11  22  37  61  93 122 152 206 267 311 358
#     4   8  16  34  59  84 119 162 203 247 298 361
#     4  11  23  43  67  84 116 169 216 248 302 378
#
# _framework density 20.479907000000001
#
# number of rings (size 3 to 8) (size 9 to 14) (size 15 to 20)
#    0.857    1.429    2.857    3.000    0.000    4.571 
#    0.000   10.000    0.000    3.429    0.000    0.000 
#    0.000    0.000    0.000    0.000    0.000    0.000 
#
# Total GULP energy -155952.304413 kJ/mol
# GULP energy per Si atom -5569.725158 kJ/mol
# Density = 2.043329 g / cm^3
# Si number density = 20.479907 Si / 1000 Ang^3
#
#
#
# Elastic Constant Matrix: (Units=GPa)
#
#
# Indices 1 2 3 4 5 6 
#
# 1 95.4859 44.7892 62.1833 0.0000 0.0000 0.0000
# 2 44.7892 79.3599 42.0405 0.0000 0.0000 0.0000
# 3 62.1833 42.0405 188.3602 0.0000 0.0000 0.0000
# 4 0.0000 0.0000 0.0000 8.2486 0.0000 0.0000
# 5 0.0000 0.0000 0.0000 0.0000 -41.4946 0.0000
# 6 0.0000 0.0000 0.0000 0.0000 0.0000 11.9784
#
#
#
# Elastic Compliance Matrix: (Units=1/GPa)
#
#
# Indices 1 2 3 4 5 6 
#
# 1 0.016312 -0.007206 -0.003777 0.000000 0.000000 0.000000
# 2 -0.007206 0.017473 -0.001521 0.000000 0.000000 0.000000
# 3 -0.003777 -0.001521 0.006895 0.000000 0.000000 0.000000
# 4 0.000000 0.000000 0.000000 0.121232 0.000000 0.000000
# 5 0.000000 0.000000 0.000000 0.000000 -0.024100 0.000000
# 6 0.000000 0.000000 0.000000 0.000000 0.000000 0.083484
#
#
# Mechanical properties :
#
#
# Convention : Reuss Voigt Hill
#
# Bulk Modulus (GPa) = 63.80108 73.47022 68.63565
# Shear Modulus (GPa) = 19.87843 10.02602 14.95223
#
# Velocity S-wave (km/s) = 3.11888 2.21499 2.70495
# Velocity P-wave (km/s) = 6.64759 6.51872 6.58347
#
# Compressibility (1/GPa) = 0.01567372
#
# Stress axis : x y z
#
# Youngs Moduli (GPa) = 61.30349 57.23015 145.02490
#
# Poissons Ratio (x) = 0.41237 0.54775
# Poissons Ratio (y) = 0.44172 0.22060
# Poissons Ratio (z) = 0.23154 0.08706
#
# Static dielectric constant tensor:
#      x y z
#    x 1.718610 0.000000 0.000000 
#    y 0.000000 1.971930 0.000000 
#    z 0.000000 0.000000 1.811510 
# 
# From -- ./inp_files/17263.got.cif
#   From: 2010.05.17/outbox.cif.g08.bks.cpg/sg67_9_cif.got.tgz:17263.got - 2010.06.03 18:28:57.
