data_PCOD9504754
_publ_section_title
;
Structure prediction by ZEFSAII (Michael W. Deem and Ramdas Pophale) SiO2 
 PCOD9504754
Probable space group: C M M A
;
_chemical_formula_sum "Si O2"
_cell_formula_units_Z 96
_cell_length_a 14.736258
_cell_length_b 14.151763
_cell_length_c 21.571325
_cell_angle_alpha 90.000000
_cell_angle_beta 90.000000
_cell_angle_gamma 90.000000
_cell_volume 4498.571064
_symmetry_space_group_name_H-M "C M M A"
_symmetry_group_IT_number 67
_symmetry_cell_setting 'orthorhombic'
loop_
_space_group_symop_operation_xyz
x,y,z
-x,1/2-y,z
x,-y,-z
-x,1/2+y,-z
-x,-y,-z
x,1/2+y,-z
-x,y,z
x,1/2-y,z
1/2+x,1/2+y,z
1/2-x,-y,z
1/2+x,1/2-y,-z
1/2-x,y,-z
1/2-x,1/2-y,-z
1/2+x,y,-z
1/2-x,1/2+y,z
1/2+x,-y,z
loop_
_atom_site_type_symbol
_atom_site_label
_atom_site_fract_x
_atom_site_fract_y
_atom_site_fract_z
Si Si1 0.161827 0.857252 0.083206
Si Si2 0.899529 0.513511 0.832640
Si Si3 0.104310 0.134486 0.534171
Si Si4 0.390716 0.638372 0.282497
Si Si5 0.373898 0.641383 0.050709
Si Si6 0.292121 0.365037 0.591336
O O1 0.133351 0.750000 0.095865
O O2 0.266209 0.857898 0.063325
O O3 0.152846 0.923445 0.142075
O O4 0.110912 0.890517 0.020306
O O5 0.863192 0.575496 0.776274
O O6 0.908048 0.579217 0.893264
O O7 0.000000 0.481042 0.814260
O O8 0.101786 0.250000 0.536089
O O9 0.187712 0.104584 0.579209
O O10 0.142522 0.107433 0.466043
O O11 0.000000 0.102781 0.545102
O O12 0.500000 0.629463 0.291955
O O13 0.373807 0.750000 0.270353
O O14 0.336308 0.608541 0.343585
O O15 0.403235 0.750000 0.054938
O O16 0.290814 0.250000 0.589866
#
# Coordination Sequence:
#
# PCOD9504754 Si02
#       6
#    16  16  16  16  16  16
#     4   9  19  35  53  72  97 134 178 221 268 325
#     4  11  21  30  45  73 106 138 174 219 271 326
#     4   8  12  18  32  57  87 123 176 237 285 330
#     4   9  17  28  40  58  92 139 187 231 275 331
#     4   9  18  34  54  74  98 131 174 221 268 323
#     4   8  13  21  34  54  86 133 184 230 280 332
#
# _framework density 21.340109999999999
#
# number of rings (size 3 to 8) (size 9 to 14) (size 15 to 20)
#    0.000    3.000    0.000    4.000    0.000    6.000 
#    0.000    1.667    0.000    0.000    0.000    4.667 
#    0.000   10.667    0.000   15.667    0.000  150.333 
#
# Total GULP energy -267804.690706 kJ/mol
# GULP energy per Si atom -5579.264390 kJ/mol
# Density = 2.129154 g / cm^3
# Si number density = 21.340110 Si / 1000 Ang^3
#
#
#
# Elastic Constant Matrix: (Units=GPa)
#
#
# Indices 1 2 3 4 5 6 
#
# 1 119.3290 32.4637 65.3604 0.0000 0.0000 0.0000
# 2 32.4637 76.1032 68.2399 0.0000 0.0000 0.0000
# 3 65.3604 68.2399 162.9686 0.0000 0.0000 0.0000
# 4 0.0000 0.0000 0.0000 26.6283 0.0000 0.0000
# 5 0.0000 0.0000 0.0000 0.0000 64.6734 0.0000
# 6 0.0000 0.0000 0.0000 0.0000 0.0000 6.7013
#
#
#
# Elastic Compliance Matrix: (Units=1/GPa)
#
#
# Indices 1 2 3 4 5 6 
#
# 1 0.010803 -0.001158 -0.003848 0.000000 0.000000 0.000000
# 2 -0.001158 0.021164 -0.008397 0.000000 0.000000 0.000000
# 3 -0.003848 -0.008397 0.011196 0.000000 0.000000 0.000000
# 4 0.000000 0.000000 0.000000 0.037554 0.000000 0.000000
# 5 0.000000 0.000000 0.000000 0.000000 0.015462 0.000000
# 6 0.000000 0.000000 0.000000 0.000000 0.000000 0.149225
#
#
# Mechanical properties :
#
#
# Convention : Reuss Voigt Hill
#
# Bulk Modulus (GPa) = 61.14056 76.72544 68.93300
# Shear Modulus (GPa) = 18.00751 32.42304 25.21528
#
# Velocity S-wave (km/s) = 2.90803 3.90211 3.44116
# Velocity P-wave (km/s) = 6.32363 7.50557 6.93981
#
# Compressibility (1/GPa) = 0.01635576
#
# Stress axis : x y z
#
# Youngs Moduli (GPa) = 92.56917 47.25027 89.32104
#
# Poissons Ratio (x) = 0.05472 0.34367
# Poissons Ratio (y) = 0.10720 0.75007
# Poissons Ratio (z) = 0.35617 0.39678
#
# Static dielectric constant tensor:
#      x y z
#    x 1.865620 0.000000 0.000000 
#    y 0.000000 1.795620 0.000000 
#    z 0.000000 0.000000 1.733370 
# 
# From -- ./inp_files/38439.got.cif
#   From: 2010.05.17/outbox.cif.g08.bks.cpg/sg67_20_cif.got.tgz:38439.got - 2010.06.03 18:28:57.
