data_PCOD9504861
_publ_section_title
;
Structure prediction by ZEFSAII (Michael W. Deem and Ramdas Pophale) SiO2 
 PCOD9504861
Probable space group: C M M A
;
_chemical_formula_sum "Si O2"
_cell_formula_units_Z 64
_cell_length_a 17.281426
_cell_length_b 10.547367
_cell_length_c 18.191528
_cell_angle_alpha 90.000000
_cell_angle_beta 90.000000
_cell_angle_gamma 90.000000
_cell_volume 3315.834249
_symmetry_space_group_name_H-M "C M M A"
_symmetry_group_IT_number 67
_symmetry_cell_setting 'orthorhombic'
loop_
_space_group_symop_operation_xyz
x,y,z
-x,1/2-y,z
x,-y,-z
-x,1/2+y,-z
-x,-y,-z
x,1/2+y,-z
-x,y,z
x,1/2-y,z
1/2+x,1/2+y,z
1/2-x,-y,z
1/2+x,1/2-y,-z
1/2-x,y,-z
1/2-x,1/2-y,-z
1/2+x,y,-z
1/2-x,1/2+y,z
1/2+x,-y,z
loop_
_atom_site_type_symbol
_atom_site_label
_atom_site_fract_x
_atom_site_fract_y
_atom_site_fract_z
Si Si1 0.909974 0.995425 0.842172
Si Si2 0.147121 0.250000 0.071645
Si Si3 0.169874 0.250000 0.899080
Si Si4 0.835623 0.384693 0.461474
Si Si5 0.684457 0.897665 0.287026
O O1 0.889785 0.878588 0.896395
O O2 0.887682 0.940804 0.761965
O O3 0.000000 0.026472 0.847127
O O4 0.861274 0.121585 0.861344
O O5 0.237115 0.250000 0.096060
O O6 0.142015 0.250000 0.983773
O O7 0.877377 0.500000 0.500000
O O8 0.873712 0.250000 0.474548
O O9 0.750000 0.378165 0.500000
O O10 0.827489 0.404772 0.374683
O O11 0.704169 0.750000 0.270772
O O12 0.750000 0.000000 0.267979
#
# Coordination Sequence:
#
# PCOD9504861 Si02
#       5
#    16   8   8  16  16
#     4  12  26  42  61  94 135 170 209 253 316 389
#     4  11  23  45  73  93 123 162 215 268 312 367
#     4  11  25  45  69  97 123 162 213 272 316 357
#     4   9  16  30  51  85 120 150 200 266 309 360
#     4  11  22  36  61  90 124 166 212 264 315 370
#
# _framework density 19.301327000000001
#
# number of rings (size 3 to 8) (size 9 to 14) (size 15 to 20)
#    0.000    1.250    3.750    3.750    1.750    5.000 
#    0.000    0.000    0.000    0.750    0.000    0.000 
#    0.000    0.000    0.000    0.000    0.000    0.000 
#
# Total GULP energy -178572.032738 kJ/mol
# GULP energy per Si atom -5580.376023 kJ/mol
# Density = 1.925740 g / cm^3
# Si number density = 19.301327 Si / 1000 Ang^3
#
#
#
# Elastic Constant Matrix: (Units=GPa)
#
#
# Indices 1 2 3 4 5 6 
#
# 1 49.5260 29.9510 16.2693 0.0000 0.0000 0.0000
# 2 29.9510 176.9885 43.2605 0.0000 0.0000 0.0000
# 3 16.2693 43.2605 127.4034 0.0000 0.0000 0.0000
# 4 0.0000 0.0000 0.0000 37.2775 0.0000 0.0000
# 5 0.0000 0.0000 0.0000 0.0000 -1.7387 0.0000
# 6 0.0000 0.0000 0.0000 0.0000 0.0000 21.4537
#
#
#
# Elastic Compliance Matrix: (Units=1/GPa)
#
#
# Indices 1 2 3 4 5 6 
#
# 1 0.022846 -0.003438 -0.001750 0.000000 0.000000 0.000000
# 2 -0.003438 0.006679 -0.001829 0.000000 0.000000 0.000000
# 3 -0.001750 -0.001829 0.008694 0.000000 0.000000 0.000000
# 4 0.000000 0.000000 0.000000 0.026826 0.000000 0.000000
# 5 0.000000 0.000000 0.000000 0.000000 -0.575146 0.000000
# 6 0.000000 0.000000 0.000000 0.000000 0.000000 0.046612
#
#
# Mechanical properties :
#
#
# Convention : Reuss Voigt Hill
#
# Bulk Modulus (GPa) = 41.34958 59.20885 50.27922
# Shear Modulus (GPa) = -11.32773 29.02762 8.84995
#
# Velocity S-wave (km/s) = -2.42521 3.88225 2.14362
# Velocity P-wave (km/s) = 3.69155 7.13011 5.67741
#
# Compressibility (1/GPa) = 0.02418404
#
# Stress axis : x y z
#
# Youngs Moduli (GPa) = 43.77212 149.72419 115.02819
#
# Poissons Ratio (x) = 0.51480 0.20128
# Poissons Ratio (y) = 0.15050 0.21036
# Poissons Ratio (z) = 0.07659 0.27382
#
# Static dielectric constant tensor:
#      x y z
#    x 1.645340 0.000000 0.000000 
#    y 0.000000 1.706730 0.000000 
#    z 0.000000 0.000000 1.684650 
# 
# From -- ./inp_files/33447.got.cif
#   From: 2010.05.17/outbox.cif.g08.bks.cpg/sg67_17_cif.got.tgz:33447.got - 2010.06.03 18:28:57.
