data_PCOD9504442
_publ_section_title
;
Structure prediction by ZEFSAII (Michael W. Deem and Ramdas Pophale) SiO2 
 PCOD9504442
Probable space group: C M M A
;
_chemical_formula_sum "Si O2"
_cell_formula_units_Z 52
_cell_length_a 9.595410
_cell_length_b 13.759716
_cell_length_c 17.236930
_cell_angle_alpha 90.000000
_cell_angle_beta 90.000000
_cell_angle_gamma 90.000000
_cell_volume 2275.793876
_symmetry_space_group_name_H-M "C M M A"
_symmetry_group_IT_number 67
_symmetry_cell_setting 'orthorhombic'
loop_
_space_group_symop_operation_xyz
x,y,z
-x,1/2-y,z
x,-y,-z
-x,1/2+y,-z
-x,-y,-z
x,1/2+y,-z
-x,y,z
x,1/2-y,z
1/2+x,1/2+y,z
1/2-x,-y,z
1/2+x,1/2-y,-z
1/2-x,y,-z
1/2-x,1/2-y,-z
1/2+x,y,-z
1/2-x,1/2+y,z
1/2+x,-y,z
loop_
_atom_site_type_symbol
_atom_site_label
_atom_site_fract_x
_atom_site_fract_y
_atom_site_fract_z
Si Si1 0.250000 0.000000 0.000000
Si Si2 0.154583 0.364237 0.866980
Si Si3 0.842269 0.367909 0.277356
Si Si4 0.158700 0.631875 0.425204
O O1 0.334777 0.070236 0.057094
O O2 0.173070 0.250000 0.886536
O O3 0.271518 0.391764 0.804532
O O4 0.000000 0.374060 0.831602
O O5 0.849184 0.250000 0.279707
O O6 0.741662 0.395543 0.347769
O O7 0.000000 0.404947 0.284680
O O8 0.150770 0.750000 0.425223
O O9 0.250000 0.605644 0.500000
O O10 0.000000 0.595213 0.427988
#
# Coordination Sequence:
#
# PCOD9504442 Si02
#       4
#     4  16  16  16
#     4  12  24  40  64  92 116 148 194 246 298 358
#     4  10  22  40  61  86 118 155 195 242 297 356
#     4   9  17  30  49  74 107 148 192 238 290 346
#     4   9  15  23  39  67 105 147 191 238 286 338
#
# _framework density 22.849169
#
# number of rings (size 3 to 8) (size 9 to 14) (size 15 to 20)
#    0.000    2.462    0.000    2.769    0.000    9.846 
#    0.000    3.077    0.000    0.000    0.000    1.077 
#    0.000    7.385    0.000    0.923    0.000    0.308 
#
# Total GULP energy -145456.329568 kJ/mol
# GULP energy per Si atom -5594.474214 kJ/mol
# Density = 2.279716 g / cm^3
# Si number density = 22.849169 Si / 1000 Ang^3
#
#
#
# Elastic Constant Matrix: (Units=GPa)
#
#
# Indices 1 2 3 4 5 6 
#
# 1 222.4783 35.4456 100.7373 0.0000 0.0000 0.0000
# 2 35.4456 106.3182 28.2517 0.0000 0.0000 0.0000
# 3 100.7373 28.2517 162.7602 0.0000 0.0000 0.0000
# 4 0.0000 0.0000 0.0000 -56.3913 0.0000 0.0000
# 5 0.0000 0.0000 0.0000 0.0000 32.9078 0.0000
# 6 0.0000 0.0000 0.0000 0.0000 0.0000 -11.2471
#
#
#
# Elastic Compliance Matrix: (Units=1/GPa)
#
#
# Indices 1 2 3 4 5 6 
#
# 1 0.006372 -0.001128 -0.003748 0.000000 0.000000 0.000000
# 2 -0.001128 0.010060 -0.001048 0.000000 0.000000 0.000000
# 3 -0.003748 -0.001048 0.008645 0.000000 0.000000 0.000000
# 4 0.000000 0.000000 0.000000 -0.017733 0.000000 0.000000
# 5 0.000000 0.000000 0.000000 0.000000 0.030388 0.000000
# 6 0.000000 0.000000 0.000000 0.000000 0.000000 -0.088912
#
#
# Mechanical properties :
#
#
# Convention : Reuss Voigt Hill
#
# Bulk Modulus (GPa) = 75.58863 91.15843 83.37353
# Shear Modulus (GPa) = -143.17531 14.86202 -64.15664
#
# Velocity S-wave (km/s) = -7.92446 2.55314 -5.30465
# Velocity P-wave (km/s) = 7.11169 6.97665 0.97528
#
# Compressibility (1/GPa) = 0.01322950
#
# Stress axis : x y z
#
# Youngs Moduli (GPa) = 156.94832 99.39997 115.66773
#
# Poissons Ratio (x) = 0.11216 0.43349
# Poissons Ratio (y) = 0.17709 0.12121
# Poissons Ratio (z) = 0.58819 0.10416
#
# Static dielectric constant tensor:
#      x y z
#    x 1.903590 0.000000 0.000000 
#    y 0.000000 1.886280 0.000000 
#    z 0.000000 0.000000 1.785390 
# 
# From -- ./inp_files/31551.got.cif
#   From: 2010.05.17/outbox.cif.g08.bks.cpg/sg67_16_cif.got.tgz:31551.got - 2010.06.03 18:28:57.
