data_PCOD9504625
_publ_section_title
;
Structure prediction by ZEFSAII (Michael W. Deem and Ramdas Pophale) SiO2 
 PCOD9504625
Probable space group: C M M A
;
_chemical_formula_sum "Si O2"
_cell_formula_units_Z 96
_cell_length_a 14.609906
_cell_length_b 15.006266
_cell_length_c 22.710388
_cell_angle_alpha 90.000000
_cell_angle_beta 90.000000
_cell_angle_gamma 90.000000
_cell_volume 4979.028546
_symmetry_space_group_name_H-M "C M M A"
_symmetry_group_IT_number 67
_symmetry_cell_setting 'orthorhombic'
loop_
_space_group_symop_operation_xyz
x,y,z
-x,1/2-y,z
x,-y,-z
-x,1/2+y,-z
-x,-y,-z
x,1/2+y,-z
-x,y,z
x,1/2-y,z
1/2+x,1/2+y,z
1/2-x,-y,z
1/2+x,1/2-y,-z
1/2-x,y,-z
1/2-x,1/2-y,-z
1/2+x,y,-z
1/2-x,1/2+y,z
1/2+x,-y,z
loop_
_atom_site_type_symbol
_atom_site_label
_atom_site_fract_x
_atom_site_fract_y
_atom_site_fract_z
Si Si1 0.753486 0.855013 0.615858
Si Si2 0.099754 0.250000 0.937288
Si Si3 0.854317 0.590410 0.979351
Si Si4 0.603193 0.645776 0.149948
Si Si5 0.888583 0.750000 0.192784
Si Si6 0.607241 0.998146 0.570801
Si Si7 0.254279 0.392317 0.246362
O O1 0.752475 0.750000 0.598393
O O2 0.840102 0.912882 0.592828
O O3 0.756212 0.861090 0.686572
O O4 0.665216 0.912537 0.593844
O O5 0.152331 0.250000 0.875273
O O6 0.000000 0.250000 0.911486
O O7 0.107895 0.168732 0.981200
O O8 0.862314 0.600090 0.909765
O O9 0.898882 0.500000 0.000000
O O10 0.750000 0.589591 0.000000
O O11 0.500000 0.614619 0.163310
O O12 0.599061 0.750000 0.135172
O O13 0.670400 0.634523 0.204344
O O14 0.843117 0.839173 0.221282
O O15 0.000000 0.750000 0.202093
O O16 0.500000 0.995364 0.588564
O O17 0.611438 0.000000 0.500000
O O18 0.250000 0.500000 0.245701
#
# Coordination Sequence:
#
# PCOD9504625 Si02
#       7
#    16   8  16  16   8  16  16
#     4  11  22  43  69  98 134 183 228 273 327 391
#     4  11  23  41  61  84 119 156 201 266 326 391
#     4  11  24  39  61  87 116 159 207 265 332 399
#     4  11  24  42  64  89 123 165 213 271 336 402
#     4  11  26  45  68  98 131 172 223 282 342 403
#     4  10  23  43  68 104 144 179 222 276 330 387
#     4  12  25  45  67  94 133 172 224 275 331 395
#
# _framework density 19.28087
#
# number of rings (size 3 to 8) (size 9 to 14) (size 15 to 20)
#    0.000    1.000    4.167    2.750    4.667    5.333 
#    0.000    1.667    0.000    0.000    0.000    0.000 
#    0.000    0.000    0.000    0.000    0.000    0.000 
#
# Total GULP energy -267603.090882 kJ/mol
# GULP energy per Si atom -5575.064393 kJ/mol
# Density = 1.923699 g / cm^3
# Si number density = 19.280870 Si / 1000 Ang^3
#
#
#
# Elastic Constant Matrix: (Units=GPa)
#
#
# Indices 1 2 3 4 5 6 
#
# 1 166.3069 54.1788 52.3941 0.0000 0.0000 0.0000
# 2 54.1788 168.3442 34.0686 0.0000 0.0000 0.0000
# 3 52.3941 34.0686 123.6873 0.0000 0.0000 0.0000
# 4 0.0000 0.0000 0.0000 105.7318 0.0000 0.0000
# 5 0.0000 0.0000 0.0000 0.0000 -12.0579 0.0000
# 6 0.0000 0.0000 0.0000 0.0000 0.0000 74.5542
#
#
#
# Elastic Compliance Matrix: (Units=1/GPa)
#
#
# Indices 1 2 3 4 5 6 
#
# 1 0.007453 -0.001864 -0.002644 0.000000 0.000000 0.000000
# 2 -0.001864 0.006757 -0.001072 0.000000 0.000000 0.000000
# 3 -0.002644 -0.001072 0.009500 0.000000 0.000000 0.000000
# 4 0.000000 0.000000 0.000000 0.009458 0.000000 0.000000
# 5 0.000000 0.000000 0.000000 0.000000 -0.082933 0.000000
# 6 0.000000 0.000000 0.000000 0.000000 0.000000 0.013413
#
#
# Mechanical properties :
#
#
# Convention : Reuss Voigt Hill
#
# Bulk Modulus (GPa) = 79.67044 82.18018 80.92531
# Shear Modulus (GPa) = -237.97781 54.82542 -91.57620
#
# Velocity S-wave (km/s) = -11.12182 5.33825 -6.89920
# Velocity P-wave (km/s) = 11.11377 8.98393 4.62627
#
# Compressibility (1/GPa) = 0.01255171
#
# Stress axis : x y z
#
# Youngs Moduli (GPa) = 134.17401 147.99772 105.26305
#
# Poissons Ratio (x) = 0.27581 0.27829
# Poissons Ratio (y) = 0.25005 0.11281
# Poissons Ratio (z) = 0.35473 0.15861
#
# Static dielectric constant tensor:
#      x y z
#    x 1.673210 0.000000 0.000000 
#    y 0.000000 3.384620 0.000000 
#    z 0.000000 0.000000 1.650590 
# 
# From -- ./inp_files/38517.got.cif
#   From: 2010.05.17/outbox.cif.g08.bks.cpg/sg67_20_cif.got.tgz:38517.got - 2010.06.03 18:28:57.
