data_PCOD9504980
_publ_section_title
;
Structure prediction by ZEFSAII (Michael W. Deem and Ramdas Pophale) SiO2 
 PCOD9504980
Probable space group: C M M A
;
_chemical_formula_sum "Si O2"
_cell_formula_units_Z 64
_cell_length_a 14.625624
_cell_length_b 17.185922
_cell_length_c 11.533701
_cell_angle_alpha 90.000000
_cell_angle_beta 90.000000
_cell_angle_gamma 90.000000
_cell_volume 2899.051492
_symmetry_space_group_name_H-M "C M M A"
_symmetry_group_IT_number 67
_symmetry_cell_setting 'orthorhombic'
loop_
_space_group_symop_operation_xyz
x,y,z
-x,1/2-y,z
x,-y,-z
-x,1/2+y,-z
-x,-y,-z
x,1/2+y,-z
-x,y,z
x,1/2-y,z
1/2+x,1/2+y,z
1/2-x,-y,z
1/2+x,1/2-y,-z
1/2-x,y,-z
1/2-x,1/2-y,-z
1/2+x,y,-z
1/2-x,1/2+y,z
1/2+x,-y,z
loop_
_atom_site_type_symbol
_atom_site_label
_atom_site_fract_x
_atom_site_fract_y
_atom_site_fract_z
Si Si1 0.888972 0.443060 0.175986
Si Si2 0.894574 0.250000 0.521427
Si Si3 0.847720 0.577796 0.560323
Si Si4 0.888851 0.609246 0.063583
Si Si5 0.112741 0.750000 0.221702
O O1 0.847097 0.433880 0.302085
O O2 0.866879 0.527433 0.123219
O O3 0.000000 0.437484 0.190154
O O4 0.859163 0.386747 0.070584
O O5 0.880823 0.333404 0.460507
O O6 0.847960 0.250000 0.648353
O O7 0.000000 0.250000 0.549495
O O8 0.893456 0.500000 0.500000
O O9 0.750000 0.579039 0.500000
O O10 0.857442 0.675714 0.149071
O O11 0.000000 0.611682 0.058350
O O12 0.000000 0.750000 0.220882
#
# Coordination Sequence:
#
# PCOD9504980 Si02
#       5
#    16   8  16  16   8
#     4   9  17  32  55  82 110 144 193 243 288 341
#     4  11  23  38  61  89 115 152 203 252 293 344
#     4  11  24  40  58  81 120 165 196 234 292 357
#     4   8  15  28  51  83 113 140 178 241 302 340
#     4   9  16  28  49  79 110 135 171 228 291 344
#
# _framework density 22.076184999999999
#
# number of rings (size 3 to 8) (size 9 to 14) (size 15 to 20)
#    0.000    2.500    0.000    4.125    0.000    5.000 
#    0.000    2.500    0.000   27.000    0.000    0.000 
#    0.000    0.000    0.000    0.000    0.000    0.000 
#
# Total GULP energy -178416.159723 kJ/mol
# GULP energy per Si atom -5575.504991 kJ/mol
# Density = 2.202594 g / cm^3
# Si number density = 22.076185 Si / 1000 Ang^3
#
#
#
# Elastic Constant Matrix: (Units=GPa)
#
#
# Indices 1 2 3 4 5 6 
#
# 1 38.7863 1.1364 16.7003 0.0000 0.0000 0.0000
# 2 1.1364 128.9890 72.2322 0.0000 0.0000 0.0000
# 3 16.7003 72.2322 246.3789 0.0000 0.0000 0.0000
# 4 0.0000 0.0000 0.0000 -58.5068 0.0000 0.0000
# 5 0.0000 0.0000 0.0000 0.0000 20.4726 0.0000
# 6 0.0000 0.0000 0.0000 0.0000 0.0000 -19.3766
#
#
#
# Elastic Compliance Matrix: (Units=1/GPa)
#
#
# Indices 1 2 3 4 5 6 
#
# 1 0.026650 0.000929 -0.002079 0.000000 0.000000 0.000000
# 2 0.000929 0.009308 -0.002792 0.000000 0.000000 0.000000
# 3 -0.002079 -0.002792 0.005018 0.000000 0.000000 0.000000
# 4 0.000000 0.000000 0.000000 -0.017092 0.000000 0.000000
# 5 0.000000 0.000000 0.000000 0.000000 0.048846 0.000000
# 6 0.000000 0.000000 0.000000 0.000000 0.000000 -0.051609
#
#
# Mechanical properties :
#
#
# Convention : Reuss Voigt Hill
#
# Bulk Modulus (GPa) = 30.21742 66.03244 48.12493
# Shear Modulus (GPa) = 124.89047 10.12353 67.50700
#
# Velocity S-wave (km/s) = 7.52963 2.14375 5.53584
# Velocity P-wave (km/s) = 9.45046 6.00863 7.91880
#
# Compressibility (1/GPa) = 0.03309349
#
# Stress axis : x y z
#
# Youngs Moduli (GPa) = 37.52320 107.43691 199.27491
#
# Poissons Ratio (x) = -0.09985 0.41427
# Poissons Ratio (y) = -0.03487 0.55634
# Poissons Ratio (z) = 0.07801 0.29994
#
# Static dielectric constant tensor:
#      x y z
#    x 1.768200 0.000000 0.000000 
#    y 0.000000 1.987160 0.000000 
#    z 0.000000 0.000000 1.790830 
# 
# From -- ./inp_files/17532.got.cif
#   From: 2010.05.17/outbox.cif.g08.bks.cpg/sg67_9_cif.got.tgz:17532.got - 2010.06.03 18:28:57.
