data_PCOD9504588
_publ_section_title
;
Structure prediction by ZEFSAII (Michael W. Deem and Ramdas Pophale) SiO2 
 PCOD9504588
Probable space group: C M M A
;
_chemical_formula_sum "Si O2"
_cell_formula_units_Z 100
_cell_length_a 20.115642
_cell_length_b 7.861036
_cell_length_c 31.172232
_cell_angle_alpha 90.000000
_cell_angle_beta 90.000000
_cell_angle_gamma 90.000000
_cell_volume 4929.258373
_symmetry_space_group_name_H-M "C M M A"
_symmetry_group_IT_number 67
_symmetry_cell_setting 'orthorhombic'
loop_
_space_group_symop_operation_xyz
x,y,z
-x,1/2-y,z
x,-y,-z
-x,1/2+y,-z
-x,-y,-z
x,1/2+y,-z
-x,y,z
x,1/2-y,z
1/2+x,1/2+y,z
1/2-x,-y,z
1/2+x,1/2-y,-z
1/2-x,y,-z
1/2-x,1/2-y,-z
1/2+x,y,-z
1/2-x,1/2+y,z
1/2+x,-y,z
loop_
_atom_site_type_symbol
_atom_site_label
_atom_site_fract_x
_atom_site_fract_y
_atom_site_fract_z
Si Si1 0.000000 0.750000 0.245325
Si Si2 0.074962 0.048646 0.622825
Si Si3 0.672380 0.954233 0.139116
Si Si4 0.678065 0.453978 0.306956
Si Si5 0.825411 0.549474 0.549732
Si Si6 0.106419 0.950052 0.772300
Si Si7 0.828038 0.951501 0.953887
O O1 0.943301 0.596196 0.244060
O O2 0.068729 0.250000 0.630885
O O3 0.119589 0.980691 0.661821
O O4 0.000000 0.978456 0.620208
O O5 0.118254 0.027939 0.579968
O O6 0.669244 0.750000 0.138097
O O7 0.629383 0.004394 0.180050
O O8 0.648122 0.020127 0.092340
O O9 0.750000 0.000000 0.144291
O O10 0.674608 0.250000 0.303755
O O11 0.750000 0.500000 0.325118
O O12 0.667641 0.538302 0.260743
O O13 0.834149 0.500000 0.500000
O O14 0.830923 0.750000 0.553526
O O15 0.750000 0.500000 0.562161
O O16 0.083933 0.750000 0.773254
O O17 0.832375 0.750000 0.952124
O O18 0.750000 0.000000 0.955117
O O19 0.858018 0.000000 0.000000
#
# Coordination Sequence:
#
# PCOD9504588 Si02
#       7
#     4  16  16  16  16  16  16
#     4  12  26  44  64  90 122 158 204 254 310 372
#     4  10  23  41  63  90 127 167 206 254 306 360
#     4   9  19  32  52  81 117 153 193 244 301 363
#     4  11  23  40  65  94 127 164 208 255 306 368
#     4  11  22  39  64  91 122 159 207 258 312 372
#     4  11  24  42  64  90 121 160 206 254 308 365
#     4   9  15  25  40  69 109 148 185 229 291 363
#
# _framework density 20.287027999999999
#
# number of rings (size 3 to 8) (size 9 to 14) (size 15 to 20)
#    0.000    1.760    0.800    4.560    2.240    5.120 
#    0.000    0.000    0.000    0.000    0.000    0.560 
#    0.000    0.000    0.000    0.000    0.000    0.000 
#
# Total GULP energy -278362.249404 kJ/mol
# GULP energy per Si atom -5567.244988 kJ/mol
# Density = 2.024085 g / cm^3
# Si number density = 20.287028 Si / 1000 Ang^3
#
#
#
# Elastic Constant Matrix: (Units=GPa)
#
#
# Indices 1 2 3 4 5 6 
#
# 1 105.5759 16.4846 47.2001 0.0000 0.0000 0.0000
# 2 16.4846 68.7791 0.7514 0.0000 0.0000 0.0000
# 3 47.2001 0.7514 112.1928 0.0000 0.0000 0.0000
# 4 0.0000 0.0000 0.0000 4.4716 0.0000 0.0000
# 5 0.0000 0.0000 0.0000 0.0000 -77.3084 0.0000
# 6 0.0000 0.0000 0.0000 0.0000 0.0000 55.8672
#
#
#
# Elastic Compliance Matrix: (Units=1/GPa)
#
#
# Indices 1 2 3 4 5 6 
#
# 1 0.012207 -0.002870 -0.005117 0.000000 0.000000 0.000000
# 2 -0.002870 0.015215 0.001105 0.000000 0.000000 0.000000
# 3 -0.005117 0.001105 0.011058 0.000000 0.000000 0.000000
# 4 0.000000 0.000000 0.000000 0.223633 0.000000 0.000000
# 5 0.000000 0.000000 0.000000 0.000000 -0.012935 0.000000
# 6 0.000000 0.000000 0.000000 0.000000 0.000000 0.017900
#
#
# Mechanical properties :
#
#
# Convention : Reuss Voigt Hill
#
# Bulk Modulus (GPa) = 40.45471 46.15777 43.30624
# Shear Modulus (GPa) = 17.29627 11.41352 14.35489
#
# Velocity S-wave (km/s) = 2.92306 2.37450 2.66294
# Velocity P-wave (km/s) = 5.60150 5.50630 5.55411
#
# Compressibility (1/GPa) = 0.02471900
#
# Stress axis : x y z
#
# Youngs Moduli (GPa) = 81.91738 65.72430 90.42924
#
# Poissons Ratio (x) = 0.18862 0.46268
# Poissons Ratio (y) = 0.23510 -0.09997
# Poissons Ratio (z) = 0.41913 -0.07266
#
# Static dielectric constant tensor:
#      x y z
#    x 1.704630 0.000000 0.000000 
#    y 0.000000 1.720510 0.000000 
#    z 0.000000 0.000000 1.758670 
# 
# From -- ./inp_files/44666.got.cif
#   From: 2010.05.17/outbox.cif.g08.bks.cpg/sg67_23_cif.got.tgz:44666.got - 2010.06.03 18:28:57.
