data_PCOD9504170
_publ_section_title
;
Structure prediction by ZEFSAII (Michael W. Deem and Ramdas Pophale) SiO2 
 PCOD9504170
Probable space group: C M M A
;
_chemical_formula_sum "Si O2"
_cell_formula_units_Z 72
_cell_length_a 16.358930
_cell_length_b 8.700199
_cell_length_c 25.114027
_cell_angle_alpha 90.000000
_cell_angle_beta 90.000000
_cell_angle_gamma 90.000000
_cell_volume 3574.377661
_symmetry_space_group_name_H-M "C M M A"
_symmetry_group_IT_number 67
_symmetry_cell_setting 'orthorhombic'
loop_
_space_group_symop_operation_xyz
x,y,z
-x,1/2-y,z
x,-y,-z
-x,1/2+y,-z
-x,-y,-z
x,1/2+y,-z
-x,y,z
x,1/2-y,z
1/2+x,1/2+y,z
1/2-x,-y,z
1/2+x,1/2-y,-z
1/2-x,y,-z
1/2-x,1/2-y,-z
1/2+x,y,-z
1/2-x,1/2+y,z
1/2+x,-y,z
loop_
_atom_site_type_symbol
_atom_site_label
_atom_site_fract_x
_atom_site_fract_y
_atom_site_fract_z
Si Si1 0.000000 0.564738 0.059743
Si Si2 0.596030 0.934695 0.555337
Si Si3 0.662241 0.435904 0.882297
Si Si4 0.406507 0.429398 0.771183
Si Si5 0.337614 0.067174 0.331552
O O1 0.083169 0.503023 0.087485
O O2 0.000000 0.750000 0.060614
O O3 0.000000 0.500000 0.000000
O O4 0.500000 0.976217 0.558123
O O5 0.601560 0.750000 0.553490
O O6 0.636652 0.990792 0.609896
O O7 0.630027 0.000000 0.500000
O O8 0.660733 0.250000 0.885877
O O9 0.750000 0.500000 0.900985
O O10 0.649936 0.480270 0.820009
O O11 0.500000 0.441926 0.789942
O O12 0.389494 0.250000 0.760281
O O13 0.396057 0.518625 0.716328
O O14 0.334610 0.250000 0.334355
O O15 0.250000 0.000000 0.317645
#
# Coordination Sequence:
#
# PCOD9504170 Si02
#       5
#     8  16  16  16  16
#     4  12  26  46  72 102 136 180 225 272 327 382
#     4   9  19  36  56  77 103 139 187 241 299 363
#     4  11  23  43  68 100 138 176 221 274 325 386
#     4  10  21  39  63  91 124 162 204 255 312 372
#     4  11  23  37  54  81 116 153 196 248 302 366
#
# _framework density 20.143367000000001
#
# number of rings (size 3 to 8) (size 9 to 14) (size 15 to 20)
#    0.000    1.556    1.111    3.667    0.000    7.556 
#    0.000    6.667    0.000    0.000    0.000    0.000 
#    0.000    0.000    0.000    0.000    0.000    0.000 
#
# Total GULP energy -201088.281973 kJ/mol
# GULP energy per Si atom -5585.785610 kJ/mol
# Density = 2.009752 g / cm^3
# Si number density = 20.143367 Si / 1000 Ang^3
#
#
#
# Elastic Constant Matrix: (Units=GPa)
#
#
# Indices 1 2 3 4 5 6 
#
# 1 100.6071 37.0113 45.0166 0.0000 0.0000 0.0000
# 2 37.0113 58.3306 40.7511 0.0000 0.0000 0.0000
# 3 45.0166 40.7511 119.8586 0.0000 0.0000 0.0000
# 4 0.0000 0.0000 0.0000 31.8758 0.0000 0.0000
# 5 0.0000 0.0000 0.0000 0.0000 15.6403 0.0000
# 6 0.0000 0.0000 0.0000 0.0000 0.0000 27.8123
#
#
#
# Elastic Compliance Matrix: (Units=1/GPa)
#
#
# Indices 1 2 3 4 5 6 
#
# 1 0.013679 -0.006676 -0.002868 0.000000 0.000000 0.000000
# 2 -0.006676 0.025742 -0.006245 0.000000 0.000000 0.000000
# 3 -0.002868 -0.006245 0.011543 0.000000 0.000000 0.000000
# 4 0.000000 0.000000 0.000000 0.031372 0.000000 0.000000
# 5 0.000000 0.000000 0.000000 0.000000 0.063937 0.000000
# 6 0.000000 0.000000 0.000000 0.000000 0.000000 0.035955
#
#
# Mechanical properties :
#
#
# Convention : Reuss Voigt Hill
#
# Bulk Modulus (GPa) = 51.57934 58.26160 54.92047
# Shear Modulus (GPa) = 22.69959 25.46685 24.08322
#
# Velocity S-wave (km/s) = 3.36058 3.55953 3.46148
# Velocity P-wave (km/s) = 6.38120 6.77347 6.58026
#
# Compressibility (1/GPa) = 0.01938761
#
# Stress axis : x y z
#
# Youngs Moduli (GPa) = 73.10629 38.84650 86.62910
#
# Poissons Ratio (x) = 0.25933 0.24843
# Poissons Ratio (y) = 0.48804 0.54099
# Poissons Ratio (z) = 0.20965 0.24259
#
# Static dielectric constant tensor:
#      x y z
#    x 1.726810 0.000000 0.000000 
#    y 0.000000 1.689890 0.000000 
#    z 0.000000 0.000000 1.724470 
# 
# From -- ./inp_files/43095.got.cif
#   From: 2010.05.17/outbox.cif.g08.bks.cpg/sg67_22_cif.got.tgz:43095.got - 2010.06.03 18:28:57.
