data_PCOD9504573
_publ_section_title
;
Structure prediction by ZEFSAII (Michael W. Deem and Ramdas Pophale) SiO2 
 PCOD9504573
Probable space group: C M M A
;
_chemical_formula_sum "Si O2"
_cell_formula_units_Z 100
_cell_length_a 20.449045
_cell_length_b 7.695719
_cell_length_c 31.687328
_cell_angle_alpha 90.000000
_cell_angle_beta 90.000000
_cell_angle_gamma 90.000000
_cell_volume 4986.638107
_symmetry_space_group_name_H-M "C M M A"
_symmetry_group_IT_number 67
_symmetry_cell_setting 'orthorhombic'
loop_
_space_group_symop_operation_xyz
x,y,z
-x,1/2-y,z
x,-y,-z
-x,1/2+y,-z
-x,-y,-z
x,1/2+y,-z
-x,y,z
x,1/2-y,z
1/2+x,1/2+y,z
1/2-x,-y,z
1/2+x,1/2-y,-z
1/2-x,y,-z
1/2-x,1/2-y,-z
1/2+x,y,-z
1/2-x,1/2+y,z
1/2+x,-y,z
loop_
_atom_site_type_symbol
_atom_site_label
_atom_site_fract_x
_atom_site_fract_y
_atom_site_fract_z
Si Si1 0.325529 0.457593 0.792467
Si Si2 0.074098 0.541252 0.452041
Si Si3 0.574893 0.956542 0.137307
Si Si4 0.925502 0.956163 0.045127
Si Si5 0.500000 0.250000 0.304908
Si Si6 0.823508 0.458019 0.617741
Si Si7 0.112461 0.547455 0.703121
O O1 0.330018 0.250000 0.794537
O O2 0.250000 0.500000 0.799939
O O3 0.375999 0.528638 0.827551
O O4 0.349673 0.506000 0.745813
O O5 0.093594 0.500000 0.500000
O O6 0.071578 0.750000 0.448316
O O7 0.124538 0.478092 0.417055
O O8 0.000000 0.474833 0.445434
O O9 0.500000 0.027105 0.139748
O O10 0.569678 0.750000 0.143788
O O11 0.601743 0.982968 0.089875
O O12 0.929328 0.750000 0.047338
O O13 0.000000 0.030347 0.043794
O O14 0.894013 0.000000 0.000000
O O15 0.443494 0.405109 0.304574
O O16 0.830225 0.250000 0.621457
O O17 0.750000 0.500000 0.604650
O O18 0.840088 0.539269 0.662861
O O19 0.089916 0.750000 0.708023
#
# Coordination Sequence:
#
# PCOD9504573 Si02
#       7
#    16  16  16  16   4  16  16
#     4  10  23  40  61  86 119 162 205 245 302 368
#     4   9  20  38  61  87 122 161 207 264 324 382
#     4   9  18  34  54  79 112 149 190 245 297 349
#     4   9  16  27  45  74 107 143 184 231 290 354
#     4  12  26  44  68 102 130 162 208 266 316 366
#     4  11  23  40  64  92 127 169 216 266 316 376
#     4  11  25  44  67  97 130 168 209 255 314 374
#
# _framework density 20.053588999999999
#
# number of rings (size 3 to 8) (size 9 to 14) (size 15 to 20)
#    0.000    2.080    0.800    1.680    3.360    5.440 
#    0.000    1.600    0.000    0.480    0.000    3.360 
#    0.000    0.000    0.000    0.000    0.000    0.000 
#
# Total GULP energy -278427.261794 kJ/mol
# GULP energy per Si atom -5568.545236 kJ/mol
# Density = 2.000795 g / cm^3
# Si number density = 20.053589 Si / 1000 Ang^3
#
#
#
# Elastic Constant Matrix: (Units=GPa)
#
#
# Indices 1 2 3 4 5 6 
#
# 1 92.1589 12.1884 71.6896 0.0000 0.0000 0.0000
# 2 12.1884 71.3092 1.8028 0.0000 0.0000 0.0000
# 3 71.6896 1.8028 168.8430 0.0000 0.0000 0.0000
# 4 0.0000 0.0000 0.0000 20.9226 0.0000 0.0000
# 5 0.0000 0.0000 0.0000 0.0000 6.0345 0.0000
# 6 0.0000 0.0000 0.0000 0.0000 0.0000 28.1567
#
#
#
# Elastic Compliance Matrix: (Units=1/GPa)
#
#
# Indices 1 2 3 4 5 6 
#
# 1 0.016697 -0.002675 -0.007061 0.000000 0.000000 0.000000
# 2 -0.002675 0.014456 0.000982 0.000000 0.000000 0.000000
# 3 -0.007061 0.000982 0.008910 0.000000 0.000000 0.000000
# 4 0.000000 0.000000 0.000000 0.047795 0.000000 0.000000
# 5 0.000000 0.000000 0.000000 0.000000 0.165713 0.000000
# 6 0.000000 0.000000 0.000000 0.000000 0.000000 0.035515
#
#
# Mechanical properties :
#
#
# Convention : Reuss Voigt Hill
#
# Bulk Modulus (GPa) = 44.33839 55.96365 50.15102
# Shear Modulus (GPa) = 15.91775 27.46480 21.69127
#
# Velocity S-wave (km/s) = 2.82043 3.70479 3.29244
# Velocity P-wave (km/s) = 5.72402 6.80207 6.28620
#
# Compressibility (1/GPa) = 0.02255382
#
# Stress axis : x y z
#
# Youngs Moduli (GPa) = 59.88959 69.17587 112.23031
#
# Poissons Ratio (x) = 0.18508 0.79246
# Poissons Ratio (y) = 0.16023 -0.11017
# Poissons Ratio (z) = 0.42288 -0.06791
#
# Static dielectric constant tensor:
#      x y z
#    x 1.694320 0.000000 0.000000 
#    y 0.000000 1.736450 0.000000 
#    z 0.000000 0.000000 1.726260 
# 
# From -- ./inp_files/44689.got.cif
#   From: 2010.05.17/outbox.cif.g08.bks.cpg/sg67_23_cif.got.tgz:44689.got - 2010.06.03 18:28:57.
