data_PCOD9504112
_publ_section_title
;
Structure prediction by ZEFSAII (Michael W. Deem and Ramdas Pophale) SiO2 
 PCOD9504112
Probable space group: C M M A
;
_chemical_formula_sum "Si O2"
_cell_formula_units_Z 96
_cell_length_a 24.983169
_cell_length_b 17.960726
_cell_length_c 11.694943
_cell_angle_alpha 90.000000
_cell_angle_beta 90.000000
_cell_angle_gamma 90.000000
_cell_volume 5247.706324
_symmetry_space_group_name_H-M "C M M A"
_symmetry_group_IT_number 67
_symmetry_cell_setting 'orthorhombic'
loop_
_space_group_symop_operation_xyz
x,y,z
-x,1/2-y,z
x,-y,-z
-x,1/2+y,-z
-x,-y,-z
x,1/2+y,-z
-x,y,z
x,1/2-y,z
1/2+x,1/2+y,z
1/2-x,-y,z
1/2+x,1/2-y,-z
1/2-x,y,-z
1/2-x,1/2-y,-z
1/2+x,y,-z
1/2-x,1/2+y,z
1/2+x,-y,z
loop_
_atom_site_type_symbol
_atom_site_label
_atom_site_fract_x
_atom_site_fract_y
_atom_site_fract_z
Si Si1 0.741883 0.665097 0.864783
Si Si2 0.842498 0.107059 0.275135
Si Si3 0.562081 0.162226 0.873292
Si Si4 0.063041 0.569008 0.085951
Si Si5 0.843258 0.433125 0.738174
Si Si6 0.186638 0.162136 0.519147
O O1 0.725325 0.750000 0.836702
O O2 0.796800 0.647220 0.799344
O O3 0.698821 0.605662 0.823119
O O4 0.750000 0.659848 0.000000
O O5 0.898210 0.119653 0.210426
O O6 0.841913 0.142461 0.400417
O O7 0.830087 0.019492 0.282549
O O8 0.500000 0.141861 0.852558
O O9 0.568789 0.250000 0.856879
O O10 0.573492 0.139937 0.004478
O O11 0.099938 0.569711 0.196906
O O12 0.000000 0.565239 0.113744
O O13 0.075392 0.500000 0.000000
O O14 0.837282 0.387004 0.621264
O O15 0.182225 0.250000 0.544445
O O16 0.250000 0.145447 0.500000
#
# Coordination Sequence:
#
# PCOD9504112 Si02
#       6
#    16  16  16  16  16  16
#     4  11  24  38  56  86 126 165 204 256 319 383
#     4  12  23  39  62  89 123 163 209 260 316 375
#     4  10  21  38  64  94 124 163 208 251 306 378
#     4  10  21  41  65  93 129 165 201 252 318 376
#     4  12  24  37  63  93 120 159 211 262 311 376
#     4  11  24  43  63  84 120 171 215 257 314 377
#
# _framework density 18.293707000000001
#
# number of rings (size 3 to 8) (size 9 to 14) (size 15 to 20)
#    0.000    1.000    3.333    4.000    0.000    4.000 
#    0.000    0.833    0.000    3.000    0.000    0.000 
#    0.000    0.000    0.000    0.000    0.000    0.000 
#
# Total GULP energy -268313.191093 kJ/mol
# GULP energy per Si atom -5589.858148 kJ/mol
# Density = 1.825207 g / cm^3
# Si number density = 18.293707 Si / 1000 Ang^3
#
#
#
# Elastic Constant Matrix: (Units=GPa)
#
#
# Indices 1 2 3 4 5 6 
#
# 1 58.7377 19.5474 35.8816 0.0000 0.0000 0.0000
# 2 19.5474 83.8187 28.7208 0.0000 0.0000 0.0000
# 3 35.8816 28.7208 107.0983 0.0000 0.0000 0.0000
# 4 0.0000 0.0000 0.0000 32.1767 0.0000 0.0000
# 5 0.0000 0.0000 0.0000 0.0000 -22.1446 0.0000
# 6 0.0000 0.0000 0.0000 0.0000 0.0000 23.6525
#
#
#
# Elastic Compliance Matrix: (Units=1/GPa)
#
#
# Indices 1 2 3 4 5 6 
#
# 1 0.022016 -0.002871 -0.006606 0.000000 0.000000 0.000000
# 2 -0.002871 0.013512 -0.002662 0.000000 0.000000 0.000000
# 3 -0.006606 -0.002662 0.012264 0.000000 0.000000 0.000000
# 4 0.000000 0.000000 0.000000 0.031078 0.000000 0.000000
# 5 0.000000 0.000000 0.000000 0.000000 -0.045158 0.000000
# 6 0.000000 0.000000 0.000000 0.000000 0.000000 0.042279
#
#
# Mechanical properties :
#
#
# Convention : Reuss Voigt Hill
#
# Bulk Modulus (GPa) = 42.52633 46.43937 44.48285
# Shear Modulus (GPa) = 46.25040 17.77058 32.01049
#
# Velocity S-wave (km/s) = 5.03359 3.12012 4.18761
# Velocity P-wave (km/s) = 7.55510 6.19844 6.91015
#
# Compressibility (1/GPa) = 0.02351484
#
# Stress axis : x y z
#
# Youngs Moduli (GPa) = 45.42202 74.00797 81.53718
#
# Poissons Ratio (x) = 0.21245 0.53865
# Poissons Ratio (y) = 0.13039 0.21704
# Poissons Ratio (z) = 0.30007 0.19699
#
# Static dielectric constant tensor:
#      x y z
#    x 1.622710 0.000000 0.000000 
#    y 0.000000 1.644000 0.000000 
#    z 0.000000 0.000000 1.610110 
# 
# From -- ./inp_files/19675.got.cif
#   From: 2010.05.17/outbox.cif.g08.bks.cpg/sg67_10_cif.got.tgz:19675.got - 2010.06.03 18:28:57.
