data_PCOD9504599
_publ_section_title
;
Structure prediction by ZEFSAII (Michael W. Deem and Ramdas Pophale) SiO2 
 PCOD9504599
Probable space group: C M M A
;
_chemical_formula_sum "Si O2"
_cell_formula_units_Z 84
_cell_length_a 20.926914
_cell_length_b 25.033400
_cell_length_c 8.865786
_cell_angle_alpha 90.000000
_cell_angle_beta 90.000000
_cell_angle_gamma 90.000000
_cell_volume 4644.535349
_symmetry_space_group_name_H-M "C M M A"
_symmetry_group_IT_number 67
_symmetry_cell_setting 'orthorhombic'
loop_
_space_group_symop_operation_xyz
x,y,z
-x,1/2-y,z
x,-y,-z
-x,1/2+y,-z
-x,-y,-z
x,1/2+y,-z
-x,y,z
x,1/2-y,z
1/2+x,1/2+y,z
1/2-x,-y,z
1/2+x,1/2-y,-z
1/2-x,y,-z
1/2-x,1/2-y,-z
1/2+x,y,-z
1/2-x,1/2+y,z
1/2+x,-y,z
loop_
_atom_site_type_symbol
_atom_site_label
_atom_site_fract_x
_atom_site_fract_y
_atom_site_fract_z
Si Si1 0.500000 0.750000 0.500000
Si Si2 0.500000 0.140219 0.666560
Si Si3 0.173391 0.500000 0.326325
Si Si4 0.866891 0.888415 0.181042
Si Si5 0.750000 0.311796 0.183496
Si Si6 0.866891 0.111585 0.181042
Si Si7 0.500000 0.140219 0.333440
O O1 0.500000 0.797225 0.371595
O O2 0.500000 0.797225 0.628406
O O3 0.563951 0.126129 0.755275
O O4 0.500000 0.113076 0.500000
O O5 0.151126 0.500000 0.500000
O O6 0.250000 0.500000 0.326343
O O7 0.151289 0.553492 0.243192
O O8 0.151289 0.446508 0.243192
O O9 0.812928 0.845148 0.230192
O O10 0.936049 0.873871 0.244725
O O11 0.867294 0.889174 1.000000
O O12 0.750000 0.250000 0.235361
O O13 0.812928 0.345148 0.230192
O O14 0.750000 0.310700 0.000000
#
# Coordination Sequence:
#
# PCOD9504599 Si02
#       7
#     4   8  16  16  16  16   8
#     4   8  24  44  66  80 140 176 206 250 314 396
#     4  10  23  42  62  90 125 167 211 254 315 371
#     4  11  23  40  63  92 131 172 210 254 321 388
#     4  11  22  40  65  94 126 165 214 267 317 372
#     4   9  20  35  57  90 126 157 200 259 318 371
#     4  11  22  40  65  94 126 165 214 267 317 372
#     4  10  23  42  62  90 125 167 211 254 315 371
#
# _framework density 18.085771000000001
#
# number of rings (size 3 to 8) (size 9 to 14) (size 15 to 20)
#    0.571    1.143    1.905    2.286    2.667    1.524 
#    0.000    4.762    0.000    3.429    0.000    0.000 
#    0.000    0.000    0.000    0.000    0.000    0.000 
#
# Total GULP energy -233808.726511 kJ/mol
# GULP energy per Si atom -5566.874441 kJ/mol
# Density = 1.804461 g / cm^3
# Si number density = 18.085771 Si / 1000 Ang^3
#
#
#
# Elastic Constant Matrix: (Units=GPa)
#
#
# Indices 1 2 3 4 5 6 
#
# 1 170.5967 94.7729 61.1715 0.0000 0.0000 0.0000
# 2 94.7729 191.9861 59.7471 0.0000 0.0000 0.0000
# 3 61.1715 59.7471 96.5811 0.0000 0.0000 0.0000
# 4 0.0000 0.0000 0.0000 -12.2613 0.0000 0.0000
# 5 0.0000 0.0000 0.0000 0.0000 26.4684 0.0000
# 6 0.0000 0.0000 0.0000 0.0000 0.0000 -1.5359
#
#
#
# Elastic Compliance Matrix: (Units=1/GPa)
#
#
# Indices 1 2 3 4 5 6 
#
# 1 0.009013 -0.003310 -0.003661 0.000000 0.000000 0.000000
# 2 -0.003310 0.007666 -0.002646 0.000000 0.000000 0.000000
# 3 -0.003661 -0.002646 0.014310 0.000000 0.000000 0.000000
# 4 0.000000 0.000000 0.000000 -0.081558 0.000000 0.000000
# 5 0.000000 0.000000 0.000000 0.000000 0.037781 0.000000
# 6 0.000000 0.000000 0.000000 0.000000 0.000000 -0.651068
#
#
# Mechanical properties :
#
#
# Convention : Reuss Voigt Hill
#
# Bulk Modulus (GPa) = 85.07060 98.94964 92.01012
# Shear Modulus (GPa) = -7.80393 18.76574 5.48090
#
# Velocity S-wave (km/s) = -2.07950 3.22467 1.74272
# Velocity P-wave (km/s) = 6.43224 8.28823 7.41850
#
# Compressibility (1/GPa) = 0.01175494
#
# Stress axis : x y z
#
# Youngs Moduli (GPa) = 110.94542 130.44378 69.88262
#
# Poissons Ratio (x) = 0.43178 0.25585
# Poissons Ratio (y) = 0.36724 0.18491
# Poissons Ratio (z) = 0.40619 0.34515
#
# Static dielectric constant tensor:
#      x y z
#    x 1.602450 0.000000 0.000000 
#    y 0.000000 1.595150 0.000000 
#    z 0.000000 0.000000 1.620140 
# 
# From -- ./inp_files/11214.got.cif
#   From: 2010.05.17/outbox.cif.g08.bks.cpg/sg67_6_cif.got.tgz:11214.got - 2010.06.03 18:28:57.
