data_PCOD9504526
_publ_section_title
;
Structure prediction by ZEFSAII (Michael W. Deem and Ramdas Pophale) SiO2 
 PCOD9504526
Probable space group: C M M A
;
_chemical_formula_sum "Si O2"
_cell_formula_units_Z 56
_cell_length_a 32.862316
_cell_length_b 12.812521
_cell_length_c 5.326145
_cell_angle_alpha 90.000000
_cell_angle_beta 90.000000
_cell_angle_gamma 90.000000
_cell_volume 2242.568633
_symmetry_space_group_name_H-M "C M M A"
_symmetry_group_IT_number 67
_symmetry_cell_setting 'orthorhombic'
loop_
_space_group_symop_operation_xyz
x,y,z
-x,1/2-y,z
x,-y,-z
-x,1/2+y,-z
-x,-y,-z
x,1/2+y,-z
-x,y,z
x,1/2-y,z
1/2+x,1/2+y,z
1/2-x,-y,z
1/2+x,1/2-y,-z
1/2-x,y,-z
1/2-x,1/2-y,-z
1/2+x,y,-z
1/2-x,1/2+y,z
1/2+x,-y,z
loop_
_atom_site_type_symbol
_atom_site_label
_atom_site_fract_x
_atom_site_fract_y
_atom_site_fract_z
Si Si1 0.133816 0.377944 0.335757
Si Si2 0.908843 0.126696 0.836119
Si Si3 0.000000 0.879211 0.118138
Si Si4 0.724803 0.125549 0.751410
O O1 0.134638 0.250000 0.340651
O O2 0.121041 0.408579 0.616507
O O3 0.178812 0.415148 0.259375
O O4 0.100973 0.407719 0.121291
O O5 0.901415 0.250000 0.850626
O O6 0.955852 0.116224 0.755474
O O7 0.000000 0.750000 0.016067
O O8 0.000000 0.000000 0.000000
O O9 0.720442 0.250000 0.756581
O O10 0.750000 0.102968 0.500000
O O11 0.750000 0.100580 0.000000
#
# Coordination Sequence:
#
# PCOD9504526 Si02
#       4
#    16  16   8  16
#     4   9  16  28  46  72 111 160 213 268 328 396
#     4   9  18  32  52  78 113 160 213 269 329 397
#     4  10  22  42  68 100 138 182 234 292 356 426
#     4   9  15  22  36  63 103 152 205 260 319 387
#
# _framework density 24.971367000000001
#
# number of rings (size 3 to 8) (size 9 to 14) (size 15 to 20)
#    0.000    2.857    0.000    1.714    0.000    8.000 
#    0.000    8.571    0.000    0.000    0.000    0.000 
#    0.000   17.143    0.000   12.857    0.000   33.429 
#
# Total GULP energy -156100.522087 kJ/mol
# GULP energy per Si atom -5575.018646 kJ/mol
# Density = 2.491453 g / cm^3
# Si number density = 24.971367 Si / 1000 Ang^3
#
#
#
# Elastic Constant Matrix: (Units=GPa)
#
#
# Indices 1 2 3 4 5 6 
#
# 1 185.1530 -1.5621 100.2681 0.0000 0.0000 0.0000
# 2 -1.5621 120.7670 4.3580 0.0000 0.0000 0.0000
# 3 100.2681 4.3580 172.6223 0.0000 0.0000 0.0000
# 4 0.0000 0.0000 0.0000 75.2119 0.0000 0.0000
# 5 0.0000 0.0000 0.0000 0.0000 14.7034 0.0000
# 6 0.0000 0.0000 0.0000 0.0000 0.0000 31.3939
#
#
#
# Elastic Compliance Matrix: (Units=1/GPa)
#
#
# Indices 1 2 3 4 5 6 
#
# 1 0.007888 0.000268 -0.004589 0.000000 0.000000 0.000000
# 2 0.000268 0.008297 -0.000365 0.000000 0.000000 0.000000
# 3 -0.004589 -0.000365 0.008467 0.000000 0.000000 0.000000
# 4 0.000000 0.000000 0.000000 0.013296 0.000000 0.000000
# 5 0.000000 0.000000 0.000000 0.000000 0.068012 0.000000
# 6 0.000000 0.000000 0.000000 0.000000 0.000000 0.031853
#
#
# Mechanical properties :
#
#
# Convention : Reuss Voigt Hill
#
# Bulk Modulus (GPa) = 65.44124 76.07447 70.75786
# Shear Modulus (GPa) = 32.83452 49.29372 41.06412
#
# Velocity S-wave (km/s) = 3.63007 4.44780 4.05958
# Velocity P-wave (km/s) = 6.62067 7.54374 7.09723
#
# Compressibility (1/GPa) = 0.01528088
#
# Stress axis : x y z
#
# Youngs Moduli (GPa) = 126.77312 120.52493 118.09868
#
# Poissons Ratio (x) = -0.03225 0.54191
# Poissons Ratio (y) = -0.03393 0.04310
# Poissons Ratio (z) = 0.58171 0.04398
#
# Static dielectric constant tensor:
#      x y z
#    x 1.873960 0.000000 0.000000 
#    y 0.000000 2.192050 0.000000 
#    z 0.000000 0.000000 1.906010 
# 
# From -- ./inp_files/4446.got.cif
#   From: 2010.05.17/outbox.cif.g08.bks.cpg/sg67_3_cif.got.tgz:4446.got - 2010.06.03 18:28:57.
