data_PCOD9504580
_publ_section_title
;
Structure prediction by ZEFSAII (Michael W. Deem and Ramdas Pophale) SiO2 
 PCOD9504580
Probable space group: C M M A
;
_chemical_formula_sum "Si O2"
_cell_formula_units_Z 52
_cell_length_a 12.765891
_cell_length_b 20.586491
_cell_length_c 8.857207
_cell_angle_alpha 90.000000
_cell_angle_beta 90.000000
_cell_angle_gamma 90.000000
_cell_volume 2327.717401
_symmetry_space_group_name_H-M "C M M A"
_symmetry_group_IT_number 67
_symmetry_cell_setting 'orthorhombic'
loop_
_space_group_symop_operation_xyz
x,y,z
-x,1/2-y,z
x,-y,-z
-x,1/2+y,-z
-x,-y,-z
x,1/2+y,-z
-x,y,z
x,1/2-y,z
1/2+x,1/2+y,z
1/2-x,-y,z
1/2+x,1/2-y,-z
1/2-x,y,-z
1/2-x,1/2-y,-z
1/2+x,y,-z
1/2-x,1/2+y,z
1/2+x,-y,z
loop_
_atom_site_type_symbol
_atom_site_label
_atom_site_fract_x
_atom_site_fract_y
_atom_site_fract_z
Si Si1 0.799284 0.649843 0.665348
Si Si2 0.116034 0.179693 0.892654
Si Si3 0.500000 0.750000 0.327092
Si Si4 0.119537 0.442601 0.114319
O O1 0.750000 0.648333 0.500000
O O2 0.707621 0.677475 0.772765
O O3 0.905584 0.692771 0.670184
O O4 0.819624 0.578119 0.736173
O O5 0.118015 0.250000 0.972245
O O6 0.000000 0.173988 0.820776
O O7 0.124994 0.122396 0.011997
O O8 0.000000 0.455708 0.158018
O O9 0.148027 0.500000 0.000000
#
# Coordination Sequence:
#
# PCOD9504580 Si02
#       4
#    16  16   4  16
#     4  12  26  42  73 105 149 195 238 305 364 443
#     4  10  23  40  67 103 142 186 243 303 370 433
#     4  12  26  44  66 114 158 194 236 298 374 448
#     4  10  23  46  73 102 144 193 248 308 366 438
#
# _framework density 22.339480999999999
#
# number of rings (size 3 to 8) (size 9 to 14) (size 15 to 20)
#    0.000    1.231    3.077    1.385    4.308    3.692 
#    0.000    3.077    0.000    7.385    0.000    0.000 
#    0.000    0.000    0.000    0.000    0.000    0.000 
#
# Total GULP energy -144753.826672 kJ/mol
# GULP energy per Si atom -5567.454872 kJ/mol
# Density = 2.228864 g / cm^3
# Si number density = 22.339481 Si / 1000 Ang^3
#
#
#
# Elastic Constant Matrix: (Units=GPa)
#
#
# Indices 1 2 3 4 5 6 
#
# 1 215.2005 30.3938 64.0791 0.0000 0.0000 0.0000
# 2 30.3938 138.4968 37.2710 0.0000 0.0000 0.0000
# 3 64.0791 37.2710 87.4856 0.0000 0.0000 0.0000
# 4 0.0000 0.0000 0.0000 20.0266 0.0000 0.0000
# 5 0.0000 0.0000 0.0000 0.0000 17.9791 0.0000
# 6 0.0000 0.0000 0.0000 0.0000 0.0000 63.0353
#
#
#
# Elastic Compliance Matrix: (Units=1/GPa)
#
#
# Indices 1 2 3 4 5 6 
#
# 1 0.005946 -0.000150 -0.004291 0.000000 0.000000 0.000000
# 2 -0.000150 0.008159 -0.003366 0.000000 0.000000 0.000000
# 3 -0.004291 -0.003366 0.016007 0.000000 0.000000 0.000000
# 4 0.000000 0.000000 0.000000 0.049934 0.000000 0.000000
# 5 0.000000 0.000000 0.000000 0.000000 0.055620 0.000000
# 6 0.000000 0.000000 0.000000 0.000000 0.000000 0.015864
#
#
# Mechanical properties :
#
#
# Convention : Reuss Voigt Hill
#
# Bulk Modulus (GPa) = 68.97508 78.29676 73.63592
# Shear Modulus (GPa) = 29.07361 40.83747 34.95554
#
# Velocity S-wave (km/s) = 3.61147 4.28020 3.95997
# Velocity P-wave (km/s) = 6.95221 7.71696 7.34454
#
# Compressibility (1/GPa) = 0.01449799
#
# Stress axis : x y z
#
# Youngs Moduli (GPa) = 168.18742 122.56161 62.47080
#
# Poissons Ratio (x) = 0.01839 0.26807
# Poissons Ratio (y) = 0.02524 0.21028
# Poissons Ratio (z) = 0.72170 0.41255
#
# Static dielectric constant tensor:
#      x y z
#    x 1.900370 0.000000 0.000000 
#    y 0.000000 1.876020 0.000000 
#    z 0.000000 0.000000 1.830560 
# 
# From -- ./inp_files/7571.got.cif
#   From: 2010.05.17/outbox.cif.g08.bks.cpg/sg67_4_cif.got.tgz:7571.got - 2010.06.03 18:28:57.
