data_PCOD9504693
_publ_section_title
;
Structure prediction by ZEFSAII (Michael W. Deem and Ramdas Pophale) SiO2 
 PCOD9504693
Probable space group: C M M A
;
_chemical_formula_sum "Si O2"
_cell_formula_units_Z 68
_cell_length_a 25.901890
_cell_length_b 9.673609
_cell_length_c 14.045307
_cell_angle_alpha 90.000000
_cell_angle_beta 90.000000
_cell_angle_gamma 90.000000
_cell_volume 3519.258925
_symmetry_space_group_name_H-M "C M M A"
_symmetry_group_IT_number 67
_symmetry_cell_setting 'orthorhombic'
loop_
_space_group_symop_operation_xyz
x,y,z
-x,1/2-y,z
x,-y,-z
-x,1/2+y,-z
-x,-y,-z
x,1/2+y,-z
-x,y,z
x,1/2-y,z
1/2+x,1/2+y,z
1/2-x,-y,z
1/2+x,1/2-y,-z
1/2-x,y,-z
1/2-x,1/2-y,-z
1/2+x,y,-z
1/2-x,1/2+y,z
1/2+x,-y,z
loop_
_atom_site_type_symbol
_atom_site_label
_atom_site_fract_x
_atom_site_fract_y
_atom_site_fract_z
Si Si1 0.231465 0.750000 0.317573
Si Si2 0.594132 0.467861 0.703875
Si Si3 0.616301 0.250000 0.394025
Si Si4 0.859607 0.917267 0.905270
Si Si5 0.659936 0.750000 0.397920
Si Si6 0.000000 0.250000 0.314405
Si Si7 0.250000 0.500000 0.176102
O O1 0.175715 0.750000 0.362716
O O2 0.277998 0.750000 0.394447
O O3 0.235314 0.622194 0.246730
O O4 0.590313 0.613581 0.650008
O O5 0.607203 0.473460 0.815909
O O6 0.642810 0.385697 0.659489
O O7 0.545180 0.370633 0.687852
O O8 0.624504 0.250000 0.507608
O O9 0.865730 0.750000 0.911844
O O10 0.799578 0.952438 0.884149
O O11 0.874733 0.000000 0.000000
#
# Coordination Sequence:
#
# PCOD9504693 Si02
#       7
#     8  16   8  16   8   4   8
#     4  12  20  37  62  96 141 189 212 255 313 385
#     4  11  23  46  67  95 131 171 221 282 338 396
#     4  12  24  36  71 105 132 172 234 266 310 399
#     4  12  25  41  66  95 135 176 221 268 335 399
#     4  11  21  43  63  97 143 186 210 257 328 389
#     4  10  24  50  78  80 130 184 198 292 382 376
#     4  12  21  38  61  94 140 182 217 254 321 396
#
# _framework density 19.32225
#
# number of rings (size 3 to 8) (size 9 to 14) (size 15 to 20)
#    0.000    0.471    8.235    1.412    3.294    1.412 
#    0.000   13.529    0.000    0.000    0.000    0.000 
#    0.000    0.000    0.000    0.000    0.000    0.000 
#
# Total GULP energy -189362.614565 kJ/mol
# GULP energy per Si atom -5569.488664 kJ/mol
# Density = 1.927827 g / cm^3
# Si number density = 19.322250 Si / 1000 Ang^3
#
#
#
# Elastic Constant Matrix: (Units=GPa)
#
#
# Indices 1 2 3 4 5 6 
#
# 1 96.9208 16.5438 9.8147 0.0000 0.0000 0.0000
# 2 16.5438 125.4455 53.1197 0.0000 0.0000 0.0000
# 3 9.8147 53.1197 135.1690 0.0000 0.0000 0.0000
# 4 0.0000 0.0000 0.0000 24.2455 0.0000 0.0000
# 5 0.0000 0.0000 0.0000 0.0000 -3.5926 0.0000
# 6 0.0000 0.0000 0.0000 0.0000 0.0000 -7.3136
#
#
#
# Elastic Compliance Matrix: (Units=1/GPa)
#
#
# Indices 1 2 3 4 5 6 
#
# 1 0.010563 -0.001282 -0.000263 0.000000 0.000000 0.000000
# 2 -0.001282 0.009718 -0.003726 0.000000 0.000000 0.000000
# 3 -0.000263 -0.003726 0.008882 0.000000 0.000000 0.000000
# 4 0.000000 0.000000 0.000000 0.041245 0.000000 0.000000
# 5 0.000000 0.000000 0.000000 0.000000 -0.278350 0.000000
# 6 0.000000 0.000000 0.000000 0.000000 0.000000 -0.136731
#
#
# Mechanical properties :
#
#
# Convention : Reuss Voigt Hill
#
# Bulk Modulus (GPa) = 53.70278 57.38797 55.54538
# Shear Modulus (GPa) = -15.24744 21.20499 2.97878
#
# Velocity S-wave (km/s) = -2.81216 3.31636 1.24297
# Velocity P-wave (km/s) = 4.16044 6.66553 5.55601
#
# Compressibility (1/GPa) = 0.01862101
#
# Stress axis : x y z
#
# Youngs Moduli (GPa) = 94.66898 102.89716 112.59218
#
# Poissons Ratio (x) = 0.13187 0.02965
# Poissons Ratio (y) = 0.12132 0.41954
# Poissons Ratio (z) = 0.02493 0.38341
#
# Static dielectric constant tensor:
#      x y z
#    x 1.663880 0.000000 0.000000 
#    y 0.000000 1.648610 0.000000 
#    z 0.000000 0.000000 1.712330 
# 
# From -- ./inp_files/30517.got.cif
#   From: 2010.05.17/outbox.cif.g08.bks.cpg/sg67_16_cif.got.tgz:30517.got - 2010.06.03 18:28:57.
