data_PCOD9504049
_publ_section_title
;
Structure prediction by ZEFSAII (Michael W. Deem and Ramdas Pophale) SiO2 
 PCOD9504049
Probable space group: C M M A
;
_chemical_formula_sum "Si O2"
_cell_formula_units_Z 100
_cell_length_a 9.118579
_cell_length_b 18.807226
_cell_length_c 31.244297
_cell_angle_alpha 90.000000
_cell_angle_beta 90.000000
_cell_angle_gamma 90.000000
_cell_volume 5358.246215
_symmetry_space_group_name_H-M "C M M A"
_symmetry_group_IT_number 67
_symmetry_cell_setting 'orthorhombic'
loop_
_space_group_symop_operation_xyz
x,y,z
-x,1/2-y,z
x,-y,-z
-x,1/2+y,-z
-x,-y,-z
x,1/2+y,-z
-x,y,z
x,1/2-y,z
1/2+x,1/2+y,z
1/2-x,-y,z
1/2+x,1/2-y,-z
1/2-x,y,-z
1/2-x,1/2-y,-z
1/2+x,y,-z
1/2-x,1/2+y,z
1/2+x,-y,z
loop_
_atom_site_type_symbol
_atom_site_label
_atom_site_fract_x
_atom_site_fract_y
_atom_site_fract_z
Si Si1 0.675879 0.076948 0.214989
Si Si2 0.325496 0.428841 0.630638
Si Si3 0.174930 0.166960 0.289380
Si Si4 0.500000 0.750000 0.541300
Si Si5 0.331358 0.163360 0.957013
Si Si6 0.661694 0.602170 0.542496
Si Si7 0.675515 0.832966 0.869382
O O1 0.500000 0.070497 0.217714
O O2 0.736562 0.122664 0.254464
O O3 0.713090 0.119107 0.171303
O O4 0.750000 0.000000 0.215134
O O5 0.500000 0.438083 0.627165
O O6 0.250000 0.500000 0.648544
O O7 0.296165 0.365068 0.663655
O O8 0.253504 0.414853 0.584716
O O9 0.212257 0.250000 0.287399
O O10 0.000000 0.159213 0.281370
O O11 0.624783 0.686229 0.541554
O O12 0.500000 0.140950 0.957219
O O13 0.328062 0.250000 0.957691
O O14 0.252363 0.142562 0.913052
O O15 0.250000 0.139009 0.000000
O O16 0.500000 0.566703 0.544309
O O17 0.750000 0.583212 0.500000
O O18 0.500000 0.835170 0.875426
O O19 0.715606 0.750000 0.861386
#
# Coordination Sequence:
#
# PCOD9504049 Si02
#       7
#    16  16  16   4  16  16  16
#     4  11  23  39  60  85 115 153 192 236 287 344
#     4  11  24  42  62  88 121 158 196 238 287 343
#     4  10  23  42  64  91 119 149 187 236 289 343
#     4   8  22  36  62  90 126 152 196 240 298 336
#     4   9  16  26  44  73 108 145 184 228 281 334
#     4  10  21  38  60  91 120 157 193 239 287 342
#     4   9  18  33  53  78 109 144 187 235 283 336
#
# _framework density 18.662822999999999
#
# number of rings (size 3 to 8) (size 9 to 14) (size 15 to 20)
#    0.480    1.600    0.000    3.120    1.120    7.040 
#    0.000    3.200    0.000    0.480    0.000    3.360 
#    0.000    0.000    0.000    0.000    0.000    0.000 
#
# Total GULP energy -278587.371554 kJ/mol
# GULP energy per Si atom -5571.747431 kJ/mol
# Density = 1.862035 g / cm^3
# Si number density = 18.662823 Si / 1000 Ang^3
#
#
#
# Elastic Constant Matrix: (Units=GPa)
#
#
# Indices 1 2 3 4 5 6 
#
# 1 95.5736 54.3316 87.3099 0.0000 0.0000 0.0000
# 2 54.3316 107.8265 64.7232 0.0000 0.0000 0.0000
# 3 87.3099 64.7232 162.7244 0.0000 0.0000 0.0000
# 4 0.0000 0.0000 0.0000 -20.8898 0.0000 0.0000
# 5 0.0000 0.0000 0.0000 0.0000 29.4384 0.0000
# 6 0.0000 0.0000 0.0000 0.0000 0.0000 23.8439
#
#
#
# Elastic Compliance Matrix: (Units=1/GPa)
#
#
# Indices 1 2 3 4 5 6 
#
# 1 0.022704 -0.005422 -0.010025 0.000000 0.000000 0.000000
# 2 -0.005422 0.013478 -0.002451 0.000000 0.000000 0.000000
# 3 -0.010025 -0.002451 0.012499 0.000000 0.000000 0.000000
# 4 0.000000 0.000000 0.000000 -0.047870 0.000000 0.000000
# 5 0.000000 0.000000 0.000000 0.000000 0.033969 0.000000
# 6 0.000000 0.000000 0.000000 0.000000 0.000000 0.041940
#
#
# Mechanical properties :
#
#
# Convention : Reuss Voigt Hill
#
# Bulk Modulus (GPa) = 77.61936 86.53932 82.07934
# Shear Modulus (GPa) = 42.80389 17.12915 29.96652
#
# Velocity S-wave (km/s) = 4.79429 3.03284 4.01144
# Velocity P-wave (km/s) = 8.50456 7.66386 8.09513
#
# Compressibility (1/GPa) = 0.01288338
#
# Stress axis : x y z
#
# Youngs Moduli (GPa) = 44.04517 74.19571 80.00433
#
# Poissons Ratio (x) = 0.40233 0.80205
# Poissons Ratio (y) = 0.23883 0.19612
# Poissons Ratio (z) = 0.44155 0.18188
#
# Static dielectric constant tensor:
#      x y z
#    x 1.643800 0.000000 0.000000 
#    y 0.000000 1.639080 0.000000 
#    z 0.000000 0.000000 1.620350 
# 
# From -- ./inp_files/43588.got.cif
#   From: 2010.05.17/outbox.cif.g08.bks.cpg/sg67_22_cif.got.tgz:43588.got - 2010.06.03 18:28:57.
