data_PCOD9504228
_publ_section_title
;
Structure prediction by ZEFSAII (Michael W. Deem and Ramdas Pophale) SiO2 
 PCOD9504228
Probable space group: C M M A
;
_chemical_formula_sum "Si O2"
_cell_formula_units_Z 44
_cell_length_a 14.315138
_cell_length_b 11.134356
_cell_length_c 11.829789
_cell_angle_alpha 90.000000
_cell_angle_beta 90.000000
_cell_angle_gamma 90.000000
_cell_volume 1885.548208
_symmetry_space_group_name_H-M "C M M A"
_symmetry_group_IT_number 67
_symmetry_cell_setting 'orthorhombic'
loop_
_space_group_symop_operation_xyz
x,y,z
-x,1/2-y,z
x,-y,-z
-x,1/2+y,-z
-x,-y,-z
x,1/2+y,-z
-x,y,z
x,1/2-y,z
1/2+x,1/2+y,z
1/2-x,-y,z
1/2+x,1/2-y,-z
1/2-x,y,-z
1/2-x,1/2-y,-z
1/2+x,y,-z
1/2-x,1/2+y,z
1/2+x,-y,z
loop_
_atom_site_type_symbol
_atom_site_label
_atom_site_fract_x
_atom_site_fract_y
_atom_site_fract_z
Si Si1 0.861987 0.750000 0.285431
Si Si2 0.138678 0.988956 0.693512
Si Si3 0.500000 0.250000 0.082863
Si Si4 0.176680 0.250000 0.396806
Si Si5 0.000000 0.611284 0.865200
O O1 0.891944 0.623340 0.340015
O O2 0.748955 0.750000 0.289237
O O3 0.909856 0.750000 0.162966
O O4 0.122538 0.875360 0.611567
O O5 0.088373 0.954322 0.810128
O O6 0.250000 0.000000 0.703745
O O7 0.500000 0.135983 0.998619
O O8 0.250000 0.250000 0.500000
O O9 0.000000 0.750000 0.820465
#
# Coordination Sequence:
#
# PCOD9504228 Si02
#       5
#     8  16   4   8   8
#     4  10  22  35  59  91 133 159 219 278 338 390
#     4  10  21  40  64  98 132 174 225 281 336 408
#     4  10  22  42  62  94 132 180 228 280 344 402
#     4  10  21  42  66  89 128 180 224 271 341 418
#     4  10  21  41  69  91 136 185 227 276 339 409
#
# _framework density 23.33539
#
# number of rings (size 3 to 8) (size 9 to 14) (size 15 to 20)
#    0.545    1.455    1.818    1.091    0.000    9.455 
#    0.000   21.818    0.000   10.909    0.000    0.000 
#    0.000    0.000    0.000    0.000    0.000    0.000 
#
# Total GULP energy -122586.017196 kJ/mol
# GULP energy per Si atom -5572.091691 kJ/mol
# Density = 2.328228 g / cm^3
# Si number density = 23.335390 Si / 1000 Ang^3
#
#
#
# Elastic Constant Matrix: (Units=GPa)
#
#
# Indices 1 2 3 4 5 6 
#
# 1 75.3716 9.5060 17.8933 0.0000 0.0000 0.0000
# 2 9.5060 287.5129 48.0349 0.0000 0.0000 0.0000
# 3 17.8933 48.0349 120.7627 0.0000 0.0000 0.0000
# 4 0.0000 0.0000 0.0000 4.3080 0.0000 0.0000
# 5 0.0000 0.0000 0.0000 0.0000 41.1293 0.0000
# 6 0.0000 0.0000 0.0000 0.0000 0.0000 5.0283
#
#
#
# Elastic Compliance Matrix: (Units=1/GPa)
#
#
# Indices 1 2 3 4 5 6 
#
# 1 0.013755 -0.000122 -0.001989 0.000000 0.000000 0.000000
# 2 -0.000122 0.003727 -0.001464 0.000000 0.000000 0.000000
# 3 -0.001989 -0.001464 0.009158 0.000000 0.000000 0.000000
# 4 0.000000 0.000000 0.000000 0.232126 0.000000 0.000000
# 5 0.000000 0.000000 0.000000 0.000000 0.024314 0.000000
# 6 0.000000 0.000000 0.000000 0.000000 0.000000 0.198875
#
#
# Mechanical properties :
#
#
# Convention : Reuss Voigt Hill
#
# Bulk Modulus (GPa) = 51.31401 70.50172 60.90786
# Shear Modulus (GPa) = 10.08872 37.30732 23.69802
#
# Velocity S-wave (km/s) = 2.08152 4.00277 3.19021
# Velocity P-wave (km/s) = 5.27395 7.18615 6.30299
#
# Compressibility (1/GPa) = 0.01948786
#
# Stress axis : x y z
#
# Youngs Moduli (GPa) = 72.69913 268.32798 109.19540
#
# Poissons Ratio (x) = 0.03285 0.21724
# Poissons Ratio (y) = 0.00890 0.15989
# Poissons Ratio (z) = 0.14463 0.39290
#
# Static dielectric constant tensor:
#      x y z
#    x 1.841550 0.000000 0.000000 
#    y 0.000000 2.016080 0.000000 
#    z 0.000000 0.000000 1.866050 
# 
# From -- ./inp_files/26534.got.cif
#   From: 2010.05.17/outbox.cif.g08.bks.cpg/sg67_14_cif.got.tgz:26534.got - 2010.06.03 18:28:57.
