data_PCOD9504898
_publ_section_title
;
Structure prediction by ZEFSAII (Michael W. Deem and Ramdas Pophale) SiO2 
 PCOD9504898
Probable space group: C M M A
;
_chemical_formula_sum "Si O2"
_cell_formula_units_Z 48
_cell_length_a 21.628364
_cell_length_b 21.045228
_cell_length_c 4.860345
_cell_angle_alpha 90.000000
_cell_angle_beta 90.000000
_cell_angle_gamma 90.000000
_cell_volume 2212.301954
_symmetry_space_group_name_H-M "C M M A"
_symmetry_group_IT_number 67
_symmetry_cell_setting 'orthorhombic'
loop_
_space_group_symop_operation_xyz
x,y,z
-x,1/2-y,z
x,-y,-z
-x,1/2+y,-z
-x,-y,-z
x,1/2+y,-z
-x,y,z
x,1/2-y,z
1/2+x,1/2+y,z
1/2-x,-y,z
1/2+x,1/2-y,-z
1/2-x,y,-z
1/2-x,1/2-y,-z
1/2+x,y,-z
1/2-x,1/2+y,z
1/2+x,-y,z
loop_
_atom_site_type_symbol
_atom_site_label
_atom_site_fract_x
_atom_site_fract_y
_atom_site_fract_z
Si Si1 0.500000 0.316716 0.727445
Si Si2 0.318445 0.675172 0.386784
Si Si3 0.500000 0.937096 0.677564
Si Si4 0.893196 0.866711 0.085643
O O1 0.500000 0.250000 0.574362
O O2 0.500000 0.376285 0.525336
O O3 0.441188 0.321701 0.925803
O O4 0.320620 0.750000 0.306269
O O5 0.250000 0.662787 0.500000
O O6 0.366160 0.661304 0.633730
O O7 0.337279 0.630707 0.131392
O O8 0.563052 0.927375 0.851171
O O9 0.500000 0.000000 0.500000
#
# Coordination Sequence:
#
# PCOD9504898 Si02
#       4
#     8  16   8  16
#     4  11  22  38  65 100 133 165 214 290 354 405
#     4  11  22  38  62  98 141 179 219 275 344 415
#     4  11  26  45  68 100 135 185 232 284 350 425
#     4  11  23  39  62  98 132 175 223 281 339 415
#
# _framework density 21.696857999999999
#
# number of rings (size 3 to 8) (size 9 to 14) (size 15 to 20)
#    0.000    1.000    3.333    4.000    0.000    9.333 
#    0.000    0.000    0.000    1.000    8.667    0.000 
#    0.000    0.000    0.000    0.000    0.000    0.000 
#
# Total GULP energy -134129.098189 kJ/mol
# GULP energy per Si atom -5588.712425 kJ/mol
# Density = 2.164748 g / cm^3
# Si number density = 21.696858 Si / 1000 Ang^3
#
#
#
# Elastic Constant Matrix: (Units=GPa)
#
#
# Indices 1 2 3 4 5 6 
#
# 1 132.1866 45.9393 32.7482 0.0000 0.0000 0.0000
# 2 45.9393 116.8220 49.2704 0.0000 0.0000 0.0000
# 3 32.7482 49.2704 120.6574 0.0000 0.0000 0.0000
# 4 0.0000 0.0000 0.0000 37.1837 0.0000 0.0000
# 5 0.0000 0.0000 0.0000 0.0000 51.1809 0.0000
# 6 0.0000 0.0000 0.0000 0.0000 0.0000 7.7600
#
#
#
# Elastic Compliance Matrix: (Units=1/GPa)
#
#
# Indices 1 2 3 4 5 6 
#
# 1 0.008902 -0.002998 -0.001192 0.000000 0.000000 0.000000
# 2 -0.002998 0.011351 -0.003821 0.000000 0.000000 0.000000
# 3 -0.001192 -0.003821 0.010172 0.000000 0.000000 0.000000
# 4 0.000000 0.000000 0.000000 0.026893 0.000000 0.000000
# 5 0.000000 0.000000 0.000000 0.000000 0.019539 0.000000
# 6 0.000000 0.000000 0.000000 0.000000 0.000000 0.128866
#
#
# Mechanical properties :
#
#
# Convention : Reuss Voigt Hill
#
# Bulk Modulus (GPa) = 69.43397 69.50909 69.47153
# Shear Modulus (GPa) = 22.07056 35.33880 28.70468
#
# Velocity S-wave (km/s) = 3.19285 4.04016 3.64124
# Velocity P-wave (km/s) = 6.75750 7.33961 7.05456
#
# Compressibility (1/GPa) = 0.01440217
#
# Stress axis : x y z
#
# Youngs Moduli (GPa) = 112.33081 88.10073 98.31026
#
# Poissons Ratio (x) = 0.26413 0.11718
# Poissons Ratio (y) = 0.33677 0.37567
# Poissons Ratio (z) = 0.13389 0.33666
#
# Static dielectric constant tensor:
#      x y z
#    x 1.864300 0.000000 0.000000 
#    y 0.000000 1.773530 0.000000 
#    z 0.000000 0.000000 1.841540 
# 
# From -- ./inp_files/2530.got.cif
#   From: 2010.05.17/outbox.cif.g08.bks.cpg/sg67_2_cif.got.tgz:2530.got - 2010.06.03 18:28:57.
