data_PCOD9504711
_publ_section_title
;
Structure prediction by ZEFSAII (Michael W. Deem and Ramdas Pophale) SiO2 
 PCOD9504711
Probable space group: C M M A
;
_chemical_formula_sum "Si O2"
_cell_formula_units_Z 72
_cell_length_a 14.451688
_cell_length_b 23.150662
_cell_length_c 9.830550
_cell_angle_alpha 90.000000
_cell_angle_beta 90.000000
_cell_angle_gamma 90.000000
_cell_volume 3288.969209
_symmetry_space_group_name_H-M "C M M A"
_symmetry_group_IT_number 67
_symmetry_cell_setting 'orthorhombic'
loop_
_space_group_symop_operation_xyz
x,y,z
-x,1/2-y,z
x,-y,-z
-x,1/2+y,-z
-x,-y,-z
x,1/2+y,-z
-x,y,z
x,1/2-y,z
1/2+x,1/2+y,z
1/2-x,-y,z
1/2+x,1/2-y,-z
1/2-x,y,-z
1/2-x,1/2-y,-z
1/2+x,y,-z
1/2-x,1/2+y,z
1/2+x,-y,z
loop_
_atom_site_type_symbol
_atom_site_label
_atom_site_fract_x
_atom_site_fract_y
_atom_site_fract_z
Si Si1 0.387929 0.934025 0.993363
Si Si2 0.139214 0.750000 0.637732
Si Si3 0.640279 0.750000 0.679081
Si Si4 0.604498 0.371936 0.277305
Si Si5 0.107476 0.884472 0.716522
Si Si6 0.750000 0.402462 0.500000
O O1 0.500000 0.933400 0.988415
O O2 0.359035 0.907288 0.850256
O O3 0.364155 0.898908 0.128926
O O4 0.357511 0.000000 0.000000
O O5 0.249160 0.750000 0.663081
O O6 0.109142 0.750000 0.479224
O O7 0.111641 0.814484 0.691821
O O8 0.604254 0.694889 0.758276
O O9 0.500000 0.390684 0.314450
O O10 0.675212 0.372921 0.402168
O O11 0.175500 0.921519 0.616564
O O12 0.000000 0.901746 0.696258
#
# Coordination Sequence:
#
# PCOD9504711 Si02
#       6
#    16   8   8  16  16   8
#     4   9  22  46  69  90 123 168 217 266 313 366
#     4  11  19  36  61  94 137 163 199 259 312 377
#     4  11  19  36  61  94 137 163 199 259 312 377
#     4  11  22  39  66  94 127 170 209 254 316 375
#     4  11  22  39  66  94 127 170 209 254 316 375
#     4  12  22  39  61  98 132 162 211 259 308 380
#
# _framework density 21.891358
#
# number of rings (size 3 to 8) (size 9 to 14) (size 15 to 20)
#    0.000    1.333    4.444    1.333    0.000    2.667 
#    0.000    8.889    0.000    5.333    0.000    0.000 
#    0.000    0.000    0.000    0.000    0.000    0.000 
#
# Total GULP energy -200429.387294 kJ/mol
# GULP energy per Si atom -5567.482980 kJ/mol
# Density = 2.184153 g / cm^3
# Si number density = 21.891358 Si / 1000 Ang^3
#
#
#
# Elastic Constant Matrix: (Units=GPa)
#
#
# Indices 1 2 3 4 5 6 
#
# 1 144.3221 -9.8899 20.5602 0.0000 0.0000 0.0000
# 2 -9.8899 92.7743 63.6938 0.0000 0.0000 0.0000
# 3 20.5602 63.6938 105.8432 0.0000 0.0000 0.0000
# 4 0.0000 0.0000 0.0000 -313.3465 0.0000 0.0000
# 5 0.0000 0.0000 0.0000 0.0000 52.6581 0.0000
# 6 0.0000 0.0000 0.0000 0.0000 0.0000 148.1578
#
#
#
# Elastic Compliance Matrix: (Units=1/GPa)
#
#
# Indices 1 2 3 4 5 6 
#
# 1 0.007620 0.003116 -0.003355 0.000000 0.000000 0.000000
# 2 0.003116 0.019641 -0.012425 0.000000 0.000000 0.000000
# 3 -0.003355 -0.012425 0.017577 0.000000 0.000000 0.000000
# 4 0.000000 0.000000 0.000000 -0.003191 0.000000 0.000000
# 5 0.000000 0.000000 0.000000 0.000000 0.018990 0.000000
# 6 0.000000 0.000000 0.000000 0.000000 0.000000 0.006750
#
#
# Mechanical properties :
#
#
# Convention : Reuss Voigt Hill
#
# Bulk Modulus (GPa) = 51.25617 54.62974 52.94296
# Shear Modulus (GPa) = 50.39353 -4.60107 22.89623
#
# Velocity S-wave (km/s) = 4.80310 -1.45132 3.23755
# Velocity P-wave (km/s) = 7.36373 4.71176 6.18163
#
# Compressibility (1/GPa) = 0.01950984
#
# Stress axis : x y z
#
# Youngs Moduli (GPa) = 131.22513 50.91315 56.89339
#
# Poissons Ratio (x) = -0.15865 0.19090
# Poissons Ratio (y) = -0.40890 0.70690
# Poissons Ratio (z) = 0.44032 0.63259
#
# Static dielectric constant tensor:
#      x y z
#    x 1.870620 0.000000 0.000000 
#    y 0.000000 1.818880 0.000000 
#    z 0.000000 0.000000 1.779060 
# 
# From -- ./inp_files/8366.got.cif
#   From: 2010.05.17/outbox.cif.g08.bks.cpg/sg67_5_cif.got.tgz:8366.got - 2010.06.03 18:28:57.
