data_PCOD9504130
_publ_section_title
;
Structure prediction by ZEFSAII (Michael W. Deem and Ramdas Pophale) SiO2 
 PCOD9504130
Probable space group: C M M A
;
_chemical_formula_sum "Si O2"
_cell_formula_units_Z 84
_cell_length_a 22.388982
_cell_length_b 14.419733
_cell_length_c 10.706149
_cell_angle_alpha 90.000000
_cell_angle_beta 90.000000
_cell_angle_gamma 90.000000
_cell_volume 3456.406788
_symmetry_space_group_name_H-M "C M M A"
_symmetry_group_IT_number 67
_symmetry_cell_setting 'orthorhombic'
loop_
_space_group_symop_operation_xyz
x,y,z
-x,1/2-y,z
x,-y,-z
-x,1/2+y,-z
-x,-y,-z
x,1/2+y,-z
-x,y,z
x,1/2-y,z
1/2+x,1/2+y,z
1/2-x,-y,z
1/2+x,1/2-y,-z
1/2-x,y,-z
1/2-x,1/2-y,-z
1/2+x,y,-z
1/2-x,1/2+y,z
1/2+x,-y,z
loop_
_atom_site_type_symbol
_atom_site_label
_atom_site_fract_x
_atom_site_fract_y
_atom_site_fract_z
Si Si1 0.905295 0.598110 0.435579
Si Si2 0.716935 0.638753 0.686875
Si Si3 0.000000 0.750000 0.515870
Si Si4 0.066888 0.482627 0.821186
Si Si5 0.161153 0.640709 0.775973
Si Si6 0.153933 0.858048 0.058574
O O1 0.910878 0.500000 0.500000
O O2 0.834802 0.619134 0.412814
O O3 0.946600 0.670413 0.507069
O O4 0.931036 0.588641 0.295588
O O5 0.722890 0.750000 0.690171
O O6 0.785598 0.606102 0.685787
O O7 0.692233 0.609164 0.823050
O O8 0.106205 0.570427 0.777061
O O9 0.095665 0.421337 0.931451
O O10 0.000000 0.511819 0.846263
O O11 0.146899 0.750000 0.752499
O O12 0.182284 0.635945 0.921647
O O13 0.139621 0.750000 0.078496
#
# Coordination Sequence:
#
# PCOD9504130 Si02
#       6
#    16  16   4  16  16  16
#     4  11  24  43  70 106 132 168 224 277 339 407
#     4   9  18  38  66  95 128 171 221 275 333 399
#     4  12  22  44  76 102 138 174 216 284 334 416
#     4  11  24  39  60  91 135 177 230 282 341 411
#     4  10  21  39  59  90 131 177 223 274 338 399
#     4   9  19  34  61  93 126 166 220 281 335 398
#
# _framework density 24.302693999999999
#
# number of rings (size 3 to 8) (size 9 to 14) (size 15 to 20)
#    0.000    1.905    1.905    1.429    1.333    7.619 
#    1.714    7.619    0.000    2.286    2.476    0.000 
#    0.000    0.000    0.000    0.000    0.000    0.000 
#
# Total GULP energy -234244.271111 kJ/mol
# GULP energy per Si atom -5577.244550 kJ/mol
# Density = 2.424738 g / cm^3
# Si number density = 24.302694 Si / 1000 Ang^3
#
#
#
# Elastic Constant Matrix: (Units=GPa)
#
#
# Indices 1 2 3 4 5 6 
#
# 1 210.3830 73.5196 22.5844 0.0000 0.0000 0.0000
# 2 73.5196 96.6411 6.8564 0.0000 0.0000 0.0000
# 3 22.5844 6.8564 68.3064 0.0000 0.0000 0.0000
# 4 0.0000 0.0000 0.0000 -10.8415 0.0000 0.0000
# 5 0.0000 0.0000 0.0000 0.0000 -4.5278 0.0000
# 6 0.0000 0.0000 0.0000 0.0000 0.0000 34.0667
#
#
#
# Elastic Compliance Matrix: (Units=1/GPa)
#
#
# Indices 1 2 3 4 5 6 
#
# 1 0.006666 -0.004950 -0.001707 0.000000 0.000000 0.000000
# 2 -0.004950 0.014098 0.000222 0.000000 0.000000 0.000000
# 3 -0.001707 0.000222 0.015182 0.000000 0.000000 0.000000
# 4 0.000000 0.000000 0.000000 -0.092238 0.000000 0.000000
# 5 0.000000 0.000000 0.000000 0.000000 -0.220856 0.000000
# 6 0.000000 0.000000 0.000000 0.000000 0.000000 0.029354
#
#
# Mechanical properties :
#
#
# Convention : Reuss Voigt Hill
#
# Bulk Modulus (GPa) = 43.33786 64.58346 53.96066
# Shear Modulus (GPa) = -22.00409 21.89748 -0.05330
#
# Velocity S-wave (km/s) = -3.01228 3.00497 -0.14826
# Velocity P-wave (km/s) = 2.40267 6.21869 4.71407
#
# Compressibility (1/GPa) = 0.02307451
#
# Stress axis : x y z
#
# Youngs Moduli (GPa) = 150.00509 70.93294 65.86683
#
# Poissons Ratio (x) = 0.35114 0.11245
# Poissons Ratio (y) = 0.74258 -0.01460
# Poissons Ratio (z) = 0.25610 -0.01572
#
# Static dielectric constant tensor:
#      x y z
#    x 1.972450 0.000000 0.000000 
#    y 0.000000 1.893470 0.000000 
#    z 0.000000 0.000000 2.060640 
# 
# From -- ./inp_files/21724.got.cif
#   From: 2010.05.17/outbox.cif.g08.bks.cpg/sg67_11_cif.got.tgz:21724.got - 2010.06.03 18:28:57.
