data_PCOD9504515
_publ_section_title
;
Structure prediction by ZEFSAII (Michael W. Deem and Ramdas Pophale) SiO2 
 PCOD9504515
Probable space group: C M M A
;
_chemical_formula_sum "Si O2"
_cell_formula_units_Z 84
_cell_length_a 19.221774
_cell_length_b 14.903933
_cell_length_c 12.810454
_cell_angle_alpha 90.000000
_cell_angle_beta 90.000000
_cell_angle_gamma 90.000000
_cell_volume 3669.939270
_symmetry_space_group_name_H-M "C M M A"
_symmetry_group_IT_number 67
_symmetry_cell_setting 'orthorhombic'
loop_
_space_group_symop_operation_xyz
x,y,z
-x,1/2-y,z
x,-y,-z
-x,1/2+y,-z
-x,-y,-z
x,1/2+y,-z
-x,y,z
x,1/2-y,z
1/2+x,1/2+y,z
1/2-x,-y,z
1/2+x,1/2-y,-z
1/2-x,y,-z
1/2-x,1/2-y,-z
1/2+x,y,-z
1/2-x,1/2+y,z
1/2+x,-y,z
loop_
_atom_site_type_symbol
_atom_site_label
_atom_site_fract_x
_atom_site_fract_y
_atom_site_fract_z
Si Si1 0.577846 0.140966 0.006374
Si Si2 0.286685 0.641353 0.892588
Si Si3 0.084456 0.851882 0.770375
Si Si4 0.580735 0.981997 0.623819
Si Si5 0.277916 0.904678 0.662432
Si Si6 0.250000 0.750000 0.500000
O O1 0.500000 0.107080 0.023818
O O2 0.575389 0.250000 0.008717
O O3 0.602822 0.120646 0.888673
O O4 0.633440 0.111589 0.091033
O O5 0.283928 0.750000 0.888728
O O6 0.258273 0.607273 0.783570
O O7 0.250000 0.613861 0.000000
O O8 0.109850 0.750000 0.749475
O O9 0.000000 0.846439 0.771392
O O10 0.101221 0.927241 0.685963
O O11 0.500000 0.959742 0.649689
O O12 0.637884 0.907927 0.652407
O O13 0.583800 0.000000 0.500000
O O14 0.249561 0.827444 0.590656
O O15 0.250000 0.000000 0.625748
#
# Coordination Sequence:
#
# PCOD9504515 Si02
#       6
#    16  16  16  16  16   4
#     4   8  15  31  59  96 137 182 232 280 346 434
#     4  10  22  42  66 100 143 187 234 295 357 419
#     4   8  15  32  60  95 136 186 231 276 348 428
#     4  10  22  43  66 101 146 178 236 314 360 420
#     4  12  27  49  75 106 140 189 245 296 361 441
#     4  12  26  56  80  94 136 188 242 296 354 454
#
# _framework density 22.888663000000001
#
# number of rings (size 3 to 8) (size 9 to 14) (size 15 to 20)
#    0.000    2.286    0.952    2.571    2.667    1.143 
#    6.857    0.476    0.000    3.429    0.000    0.000 
#    0.000    0.000    0.000    0.000    0.000    0.000 
#
# Total GULP energy -234422.254663 kJ/mol
# GULP energy per Si atom -5581.482254 kJ/mol
# Density = 2.283657 g / cm^3
# Si number density = 22.888663 Si / 1000 Ang^3
#
#
#
# Elastic Constant Matrix: (Units=GPa)
#
#
# Indices 1 2 3 4 5 6 
#
# 1 77.1828 8.8617 25.3533 0.0000 0.0000 0.0000
# 2 8.8617 100.7580 41.2746 0.0000 0.0000 0.0000
# 3 25.3533 41.2746 144.4559 0.0000 0.0000 0.0000
# 4 0.0000 0.0000 0.0000 53.2682 0.0000 0.0000
# 5 0.0000 0.0000 0.0000 0.0000 26.0642 0.0000
# 6 0.0000 0.0000 0.0000 0.0000 0.0000 -1.8863
#
#
#
# Elastic Compliance Matrix: (Units=1/GPa)
#
#
# Indices 1 2 3 4 5 6 
#
# 1 0.013754 -0.000250 -0.002343 0.000000 0.000000 0.000000
# 2 -0.000250 0.011245 -0.003169 0.000000 0.000000 0.000000
# 3 -0.002343 -0.003169 0.008239 0.000000 0.000000 0.000000
# 4 0.000000 0.000000 0.000000 0.018773 0.000000 0.000000
# 5 0.000000 0.000000 0.000000 0.000000 0.038367 0.000000
# 6 0.000000 0.000000 0.000000 0.000000 0.000000 -0.530130
#
#
# Mechanical properties :
#
#
# Convention : Reuss Voigt Hill
#
# Bulk Modulus (GPa) = 46.05091 52.59732 49.32412
# Shear Modulus (GPa) = -11.87678 31.94967 10.03645
#
# Velocity S-wave (km/s) = -2.28039 3.74019 2.09629
# Velocity P-wave (km/s) = 3.63725 6.45613 5.23981
#
# Compressibility (1/GPa) = 0.02171510
#
# Stress axis : x y z
#
# Youngs Moduli (GPa) = 72.70362 88.92881 121.37169
#
# Poissons Ratio (x) = 0.02224 0.28432
# Poissons Ratio (y) = 0.01818 0.38463
# Poissons Ratio (z) = 0.17031 0.28182
#
# Static dielectric constant tensor:
#      x y z
#    x 1.945260 0.000000 0.000000 
#    y 0.000000 1.808920 0.000000 
#    z 0.000000 0.000000 1.796520 
# 
# From -- ./inp_files/21737.got.cif
#   From: 2010.05.17/outbox.cif.g08.bks.cpg/sg67_11_cif.got.tgz:21737.got - 2010.06.03 18:28:57.
