data_PCOD9504933
_publ_section_title
;
Structure prediction by ZEFSAII (Michael W. Deem and Ramdas Pophale) SiO2 
 PCOD9504933
Probable space group: C M M A
;
_chemical_formula_sum "Si O2"
_cell_formula_units_Z 72
_cell_length_a 15.186158
_cell_length_b 8.560645
_cell_length_c 26.779485
_cell_angle_alpha 90.000000
_cell_angle_beta 90.000000
_cell_angle_gamma 90.000000
_cell_volume 3481.421625
_symmetry_space_group_name_H-M "C M M A"
_symmetry_group_IT_number 67
_symmetry_cell_setting 'orthorhombic'
loop_
_space_group_symop_operation_xyz
x,y,z
-x,1/2-y,z
x,-y,-z
-x,1/2+y,-z
-x,-y,-z
x,1/2+y,-z
-x,y,z
x,1/2-y,z
1/2+x,1/2+y,z
1/2-x,-y,z
1/2+x,1/2-y,-z
1/2-x,y,-z
1/2-x,1/2-y,-z
1/2+x,y,-z
1/2-x,1/2+y,z
1/2+x,-y,z
loop_
_atom_site_type_symbol
_atom_site_label
_atom_site_fract_x
_atom_site_fract_y
_atom_site_fract_z
Si Si1 0.000000 0.563304 0.943859
Si Si2 0.849290 0.439547 0.341044
Si Si3 0.850796 0.061626 0.233128
Si Si4 0.395026 0.575830 0.449353
Si Si5 0.149865 0.436481 0.872129
O O1 0.085803 0.501914 0.914450
O O2 0.000000 0.750000 0.943791
O O3 0.000000 0.500000 0.000000
O O4 0.854313 0.250000 0.341926
O O5 0.750000 0.500000 0.339163
O O6 0.890332 0.484193 0.287261
O O7 0.882859 0.498761 0.394683
O O8 0.851415 0.250000 0.229496
O O9 0.750000 0.000000 0.234210
O O10 0.886804 0.991407 0.181972
O O11 0.360045 0.500000 0.500000
O O12 0.500000 0.587144 0.455416
O O13 0.357009 0.750000 0.446880
O O14 0.152313 0.250000 0.873577
O O15 0.250000 0.500000 0.877247
#
# Coordination Sequence:
#
# PCOD9504933 Si02
#       5
#     8  16  16  16  16
#     4  12  26  46  68  96 130 166 209 258 305 354
#     4   9  18  31  49  74 102 133 172 220 275 332
#     4   9  16  30  52  80 110 146 186 229 284 345
#     4   9  18  33  49  65  91 128 172 218 268 328
#     4  11  22  40  65  94 128 168 209 253 305 362
#
# _framework density 20.681207000000001
#
# number of rings (size 3 to 8) (size 9 to 14) (size 15 to 20)
#    0.000    2.222    0.000    5.000    0.000    2.667 
#    2.000    4.444    0.000    0.000    0.000    0.000 
#    0.000    0.000    0.000    0.000    0.000    0.000 
#
# Total GULP energy -200639.865282 kJ/mol
# GULP energy per Si atom -5573.329591 kJ/mol
# Density = 2.063414 g / cm^3
# Si number density = 20.681207 Si / 1000 Ang^3
#
#
#
# Elastic Constant Matrix: (Units=GPa)
#
#
# Indices 1 2 3 4 5 6 
#
# 1 63.7478 23.7829 58.0577 0.0000 0.0000 0.0000
# 2 23.7829 107.1764 74.2135 0.0000 0.0000 0.0000
# 3 58.0577 74.2135 260.2871 0.0000 0.0000 0.0000
# 4 0.0000 0.0000 0.0000 34.1515 0.0000 0.0000
# 5 0.0000 0.0000 0.0000 0.0000 33.2367 0.0000
# 6 0.0000 0.0000 0.0000 0.0000 0.0000 16.4300
#
#
#
# Elastic Compliance Matrix: (Units=1/GPa)
#
#
# Indices 1 2 3 4 5 6 
#
# 1 0.019924 -0.001675 -0.003967 0.000000 0.000000 0.000000
# 2 -0.001675 0.011766 -0.002981 0.000000 0.000000 0.000000
# 3 -0.003967 -0.002981 0.005577 0.000000 0.000000 0.000000
# 4 0.000000 0.000000 0.000000 0.029281 0.000000 0.000000
# 5 0.000000 0.000000 0.000000 0.000000 0.030087 0.000000
# 6 0.000000 0.000000 0.000000 0.000000 0.000000 0.060864
#
#
# Mechanical properties :
#
#
# Convention : Reuss Voigt Hill
#
# Bulk Modulus (GPa) = 49.94465 82.59106 66.26786
# Shear Modulus (GPa) = 27.56046 35.10745 31.33396
#
# Velocity S-wave (km/s) = 3.65449 4.12461 3.89664
# Velocity P-wave (km/s) = 6.48145 7.91866 7.23583
#
# Compressibility (1/GPa) = 0.02002216
#
# Stress axis : x y z
#
# Youngs Moduli (GPa) = 50.19025 84.98767 179.31628
#
# Poissons Ratio (x) = 0.14232 0.71129
# Poissons Ratio (y) = 0.08405 0.53460
# Poissons Ratio (z) = 0.19909 0.25338
#
# Static dielectric constant tensor:
#      x y z
#    x 1.852420 0.000000 0.000000 
#    y 0.000000 1.735220 0.000000 
#    z 0.000000 0.000000 1.805950 
# 
# From -- ./inp_files/40507.got.cif
#   From: 2010.05.17/outbox.cif.g08.bks.cpg/sg67_21_cif.got.tgz:40507.got - 2010.06.03 18:28:57.
