data_PCOD9504466
_publ_section_title
;
Structure prediction by ZEFSAII (Michael W. Deem and Ramdas Pophale) SiO2 
 PCOD9504466
Probable space group: C M M A
;
_chemical_formula_sum "Si O2"
_cell_formula_units_Z 56
_cell_length_a 27.503260
_cell_length_b 14.956100
_cell_length_c 6.982427
_cell_angle_alpha 90.000000
_cell_angle_beta 90.000000
_cell_angle_gamma 90.000000
_cell_volume 2872.162044
_symmetry_space_group_name_H-M "C M M A"
_symmetry_group_IT_number 67
_symmetry_cell_setting 'orthorhombic'
loop_
_space_group_symop_operation_xyz
x,y,z
-x,1/2-y,z
x,-y,-z
-x,1/2+y,-z
-x,-y,-z
x,1/2+y,-z
-x,y,z
x,1/2-y,z
1/2+x,1/2+y,z
1/2-x,-y,z
1/2+x,1/2-y,-z
1/2-x,y,-z
1/2-x,1/2-y,-z
1/2+x,y,-z
1/2-x,1/2+y,z
1/2+x,-y,z
loop_
_atom_site_type_symbol
_atom_site_label
_atom_site_fract_x
_atom_site_fract_y
_atom_site_fract_z
Si Si1 0.250000 0.250000 0.500000
Si Si2 0.750000 0.000000 0.000000
Si Si3 0.500000 0.602953 0.441920
Si Si4 0.416491 0.353118 0.279364
Si Si5 0.189479 0.420298 0.654305
Si Si6 0.000000 0.858222 0.000184
O O1 0.211919 0.329442 0.570214
O O2 0.783383 0.056839 0.854074
O O3 0.500000 0.500000 0.500000
O O4 0.451804 0.644634 0.536329
O O5 0.500000 0.614419 0.217212
O O6 0.403512 0.250000 0.237724
O O7 0.367724 0.407868 0.308330
O O8 0.451755 0.388629 0.111664
O O9 0.196050 0.500000 0.500000
O O10 0.000000 0.750000 0.015411
#
# Coordination Sequence:
#
# PCOD9504466 Si02
#       6
#     4   4   8  16  16   8
#     4  12  22  50  72  92 142 180 222 282 340 394
#     4  12  26  46  68  96 138 172 230 290 328 400
#     4  11  22  38  63  93 131 171 208 272 329 391
#     4  10  22  40  66  92 129 171 218 266 332 394
#     4  12  25  47  69 102 135 178 227 284 333 405
#     4   9  20  41  60  95 126 165 217 264 316 413
#
# _framework density 19.497506999999999
#
# number of rings (size 3 to 8) (size 9 to 14) (size 15 to 20)
#    0.000    1.143    4.286    3.000    0.000    7.429 
#    0.000    0.000    0.000    0.000    0.000    0.000 
#    0.000    0.000    0.000    0.000    0.000    0.000 
#
# Total GULP energy -155918.472088 kJ/mol
# GULP energy per Si atom -5568.516860 kJ/mol
# Density = 1.945313 g / cm^3
# Si number density = 19.497507 Si / 1000 Ang^3
#
#
#
# Elastic Constant Matrix: (Units=GPa)
#
#
# Indices 1 2 3 4 5 6 
#
# 1 189.1085 48.9746 85.5689 0.0000 0.0000 0.0000
# 2 48.9746 116.1147 40.3423 0.0000 0.0000 0.0000
# 3 85.5689 40.3423 157.9396 0.0000 0.0000 0.0000
# 4 0.0000 0.0000 0.0000 15.6367 0.0000 0.0000
# 5 0.0000 0.0000 0.0000 0.0000 0.3300 0.0000
# 6 0.0000 0.0000 0.0000 0.0000 0.0000 -65.3185
#
#
#
# Elastic Compliance Matrix: (Units=1/GPa)
#
#
# Indices 1 2 3 4 5 6 
#
# 1 0.007364 -0.001887 -0.003508 0.000000 0.000000 0.000000
# 2 -0.001887 0.009935 -0.001515 0.000000 0.000000 0.000000
# 3 -0.003508 -0.001515 0.008619 0.000000 0.000000 0.000000
# 4 0.000000 0.000000 0.000000 0.063952 0.000000 0.000000
# 5 0.000000 0.000000 0.000000 0.000000 3.030197 0.000000
# 6 0.000000 0.000000 0.000000 0.000000 0.000000 -0.015310
#
#
# Mechanical properties :
#
#
# Convention : Reuss Voigt Hill
#
# Bulk Modulus (GPa) = 82.66180 90.32605 86.49392
# Shear Modulus (GPa) = 1.60123 9.34812 5.47467
#
# Velocity S-wave (km/s) = 0.90721 2.19201 1.67749
# Velocity P-wave (km/s) = 6.60193 7.26871 6.94333
#
# Compressibility (1/GPa) = 0.01209749
#
# Stress axis : x y z
#
# Youngs Moduli (GPa) = 135.79876 100.65859 116.02478
#
# Poissons Ratio (x) = 0.18997 0.40696
# Poissons Ratio (y) = 0.25629 0.17579
# Poissons Ratio (z) = 0.47632 0.15251
#
# Static dielectric constant tensor:
#      x y z
#    x 1.685920 0.000000 0.000000 
#    y 0.000000 1.701200 0.000000 
#    z 0.000000 0.000000 1.669620 
# 
# From -- ./inp_files/3983.got.cif
#   From: 2010.05.17/outbox.cif.g08.bks.cpg/sg67_2_cif.got.tgz:3983.got - 2010.06.03 18:28:57.
