data_PCOD9504264
_publ_section_title
;
Structure prediction by ZEFSAII (Michael W. Deem and Ramdas Pophale) SiO2 
 PCOD9504264
Probable space group: C M M A
;
_chemical_formula_sum "Si O2"
_cell_formula_units_Z 52
_cell_length_a 14.159637
_cell_length_b 10.764933
_cell_length_c 16.123333
_cell_angle_alpha 90.000000
_cell_angle_beta 90.000000
_cell_angle_gamma 90.000000
_cell_volume 2457.640044
_symmetry_space_group_name_H-M "C M M A"
_symmetry_group_IT_number 67
_symmetry_cell_setting 'orthorhombic'
loop_
_space_group_symop_operation_xyz
x,y,z
-x,1/2-y,z
x,-y,-z
-x,1/2+y,-z
-x,-y,-z
x,1/2+y,-z
-x,y,z
x,1/2-y,z
1/2+x,1/2+y,z
1/2-x,-y,z
1/2+x,1/2-y,-z
1/2-x,y,-z
1/2-x,1/2-y,-z
1/2+x,y,-z
1/2-x,1/2+y,z
1/2+x,-y,z
loop_
_atom_site_type_symbol
_atom_site_label
_atom_site_fract_x
_atom_site_fract_y
_atom_site_fract_z
Si Si1 0.890297 0.604528 0.633773
Si Si2 0.614372 0.991318 0.188106
Si Si3 0.750000 0.000000 0.500000
Si Si4 0.385113 0.250000 0.108002
Si Si5 0.614796 0.250000 0.916085
O O1 0.888740 0.750000 0.655694
O O2 0.861256 0.530072 0.716090
O O3 0.819272 0.578146 0.559178
O O4 0.000000 0.573183 0.612762
O O5 0.500000 0.990320 0.185544
O O6 0.644300 0.874865 0.131656
O O7 0.645296 0.123866 0.153150
O O8 0.500000 0.250000 0.109159
O O9 0.356610 0.250000 0.011949
O O10 0.500000 0.250000 0.915398
#
# Coordination Sequence:
#
# PCOD9504264 Si02
#       5
#    16  16   4   8   8
#     4  10  21  41  64  88 123 161 199 247 309 374
#     4   9  16  29  49  77 116 160 196 239 299 354
#     4  12  24  40  64  96 114 146 206 264 310 360
#     4   9  16  24  42  81 120 150 198 252 285 335
#     4   9  14  24  46  75 114 158 200 242 289 347
#
# _framework density 21.158508999999999
#
# number of rings (size 3 to 8) (size 9 to 14) (size 15 to 20)
#    0.000    2.462    1.538    1.846    0.000    3.692 
#    5.538    0.000    0.000    0.000    0.000    6.462 
#    0.000    0.000    0.000    0.000    0.000    1.846 
#
# Total GULP energy -145312.963702 kJ/mol
# GULP energy per Si atom -5588.960142 kJ/mol
# Density = 2.111035 g / cm^3
# Si number density = 21.158509 Si / 1000 Ang^3
#
#
#
# Elastic Constant Matrix: (Units=GPa)
#
#
# Indices 1 2 3 4 5 6 
#
# 1 132.2893 37.8069 53.9989 0.0000 0.0000 0.0000
# 2 37.8069 158.9198 89.8751 0.0000 0.0000 0.0000
# 3 53.9989 89.8751 174.7862 0.0000 0.0000 0.0000
# 4 0.0000 0.0000 0.0000 40.3842 0.0000 0.0000
# 5 0.0000 0.0000 0.0000 0.0000 -64.7991 0.0000
# 6 0.0000 0.0000 0.0000 0.0000 0.0000 -12.9122
#
#
#
# Elastic Compliance Matrix: (Units=1/GPa)
#
#
# Indices 1 2 3 4 5 6 
#
# 1 0.008717 -0.000777 -0.002294 0.000000 0.000000 0.000000
# 2 -0.000777 0.008942 -0.004358 0.000000 0.000000 0.000000
# 3 -0.002294 -0.004358 0.008671 0.000000 0.000000 0.000000
# 4 0.000000 0.000000 0.000000 0.024762 0.000000 0.000000
# 5 0.000000 0.000000 0.000000 0.000000 -0.015432 0.000000
# 6 0.000000 0.000000 0.000000 0.000000 0.000000 -0.077446
#
#
# Mechanical properties :
#
#
# Convention : Reuss Voigt Hill
#
# Bulk Modulus (GPa) = 87.15940 92.15080 89.65510
# Shear Modulus (GPa) = -216.40656 11.48887 -102.45884
#
# Velocity S-wave (km/s) = -10.12427 2.33274 -6.96631
# Velocity P-wave (km/s) = 9.76651 7.13462 4.71604
#
# Compressibility (1/GPa) = 0.01147323
#
# Stress axis : x y z
#
# Youngs Moduli (GPa) = 114.71224 111.83398 115.32941
#
# Poissons Ratio (x) = 0.08685 0.26455
# Poissons Ratio (y) = 0.08909 0.50260
# Poissons Ratio (z) = 0.26313 0.48737
#
# Static dielectric constant tensor:
#      x y z
#    x 1.814510 0.000000 0.000000 
#    y 0.000000 1.715250 0.000000 
#    z 0.000000 0.000000 1.708620 
# 
# From -- ./inp_files/26636.got.cif
#   From: 2010.05.17/outbox.cif.g08.bks.cpg/sg67_14_cif.got.tgz:26636.got - 2010.06.03 18:28:57.
