data_PCOD9504551
_publ_section_title
;
Structure prediction by ZEFSAII (Michael W. Deem and Ramdas Pophale) SiO2 
 PCOD9504551
Probable space group: C M M A
;
_chemical_formula_sum "Si O2"
_cell_formula_units_Z 56
_cell_length_a 28.136073
_cell_length_b 14.369424
_cell_length_c 5.643509
_cell_angle_alpha 90.000000
_cell_angle_beta 90.000000
_cell_angle_gamma 90.000000
_cell_volume 2281.665963
_symmetry_space_group_name_H-M "C M M A"
_symmetry_group_IT_number 67
_symmetry_cell_setting 'orthorhombic'
loop_
_space_group_symop_operation_xyz
x,y,z
-x,1/2-y,z
x,-y,-z
-x,1/2+y,-z
-x,-y,-z
x,1/2+y,-z
-x,y,z
x,1/2-y,z
1/2+x,1/2+y,z
1/2-x,-y,z
1/2+x,1/2-y,-z
1/2-x,y,-z
1/2-x,1/2-y,-z
1/2+x,y,-z
1/2-x,1/2+y,z
1/2+x,-y,z
loop_
_atom_site_type_symbol
_atom_site_label
_atom_site_fract_x
_atom_site_fract_y
_atom_site_fract_z
Si Si1 0.304611 0.461168 0.747539
Si Si2 0.051832 0.750000 0.664052
Si Si3 0.697061 0.250000 0.897824
Si Si4 0.382038 0.250000 0.298032
Si Si5 0.946632 0.400042 0.933499
O O1 0.326068 0.500000 0.500000
O O2 0.250000 0.500000 0.744245
O O3 0.306972 0.348737 0.759461
O O4 0.323377 0.500000 0.000000
O O5 0.106700 0.750000 0.574610
O O6 0.049665 0.839544 0.830109
O O7 0.000000 0.750000 0.528104
O O8 0.750000 0.250000 0.000000
O O9 0.663431 0.250000 0.132237
O O10 0.412822 0.159192 0.231089
O O11 0.000000 0.410975 0.833573
O O12 0.928276 0.500000 0.000000
#
# Coordination Sequence:
#
# PCOD9504551 Si02
#       5
#    16   8   8   8  16
#     4  10  22  44  72 103 134 181 245 311 372 445
#     4   9  18  37  65 104 144 184 231 290 364 439
#     4  12  25  47  73 102 143 196 250 306 389 443
#     4  11  23  39  65  98 139 178 240 297 352 439
#     4   9  19  39  66  96 138 184 229 286 355 429
#
# _framework density 24.543469000000002
#
# number of rings (size 3 to 8) (size 9 to 14) (size 15 to 20)
#    0.000    2.000    2.857    2.143    0.000    5.714 
#   10.286    4.286    0.000    0.000    0.000    0.000 
#    0.000    0.000    0.000    0.000    0.000    0.000 
#
# Total GULP energy -156253.188037 kJ/mol
# GULP energy per Si atom -5580.471001 kJ/mol
# Density = 2.448761 g / cm^3
# Si number density = 24.543469 Si / 1000 Ang^3
#
#
#
# Elastic Constant Matrix: (Units=GPa)
#
#
# Indices 1 2 3 4 5 6 
#
# 1 110.8733 16.3755 6.8151 0.0000 0.0000 0.0000
# 2 16.3755 230.9691 43.9297 0.0000 0.0000 0.0000
# 3 6.8151 43.9297 106.8142 0.0000 0.0000 0.0000
# 4 0.0000 0.0000 0.0000 -99.7568 0.0000 0.0000
# 5 0.0000 0.0000 0.0000 0.0000 16.2152 0.0000
# 6 0.0000 0.0000 0.0000 0.0000 0.0000 9.6360
#
#
#
# Elastic Compliance Matrix: (Units=1/GPa)
#
#
# Indices 1 2 3 4 5 6 
#
# 1 0.009126 -0.000582 -0.000343 0.000000 0.000000 0.000000
# 2 -0.000582 0.004734 -0.001910 0.000000 0.000000 0.000000
# 3 -0.000343 -0.001910 0.010169 0.000000 0.000000 0.000000
# 4 0.000000 0.000000 0.000000 -0.010024 0.000000 0.000000
# 5 0.000000 0.000000 0.000000 0.000000 0.061670 0.000000
# 6 0.000000 0.000000 0.000000 0.000000 0.000000 0.103777
#
#
# Mechanical properties :
#
#
# Convention : Reuss Voigt Hill
#
# Bulk Modulus (GPa) = 54.46492 64.76634 59.61563
# Shear Modulus (GPa) = 26.14481 10.65465 18.39973
#
# Velocity S-wave (km/s) = 3.26735 2.08580 2.74100
# Velocity P-wave (km/s) = 6.03933 5.67860 5.86174
#
# Compressibility (1/GPa) = 0.01836044
#
# Stress axis : x y z
#
# Youngs Moduli (GPa) = 109.57323 211.23400 98.33405
#
# Poissons Ratio (x) = 0.12290 0.03373
# Poissons Ratio (y) = 0.06375 0.18781
# Poissons Ratio (z) = 0.03758 0.40343
#
# Static dielectric constant tensor:
#      x y z
#    x 1.998400 0.000000 0.000000 
#    y 0.000000 1.924960 0.000000 
#    z 0.000000 0.000000 2.107660 
# 
# From -- ./inp_files/1455.got.cif
#   From: 2010.05.17/outbox.cif.g08.bks.cpg/sg67_1_cif.got.tgz:1455.got - 2010.06.03 18:28:57.
