data_PCOD9504739
_publ_section_title
;
Structure prediction by ZEFSAII (Michael W. Deem and Ramdas Pophale) SiO2 
 PCOD9504739
Probable space group: C M M A
;
_chemical_formula_sum "Si O2"
_cell_formula_units_Z 116
_cell_length_a 23.163838
_cell_length_b 15.169686
_cell_length_c 16.026900
_cell_angle_alpha 90.000000
_cell_angle_beta 90.000000
_cell_angle_gamma 90.000000
_cell_volume 5631.662725
_symmetry_space_group_name_H-M "C M M A"
_symmetry_group_IT_number 67
_symmetry_cell_setting 'orthorhombic'
loop_
_space_group_symop_operation_xyz
x,y,z
-x,1/2-y,z
x,-y,-z
-x,1/2+y,-z
-x,-y,-z
x,1/2+y,-z
-x,y,z
x,1/2-y,z
1/2+x,1/2+y,z
1/2-x,-y,z
1/2+x,1/2-y,-z
1/2-x,y,-z
1/2-x,1/2-y,-z
1/2+x,y,-z
1/2-x,1/2+y,z
1/2+x,-y,z
loop_
_atom_site_type_symbol
_atom_site_label
_atom_site_fract_x
_atom_site_fract_y
_atom_site_fract_z
Si Si1 0.132126 0.851566 0.286874
Si Si2 0.936690 0.609387 0.129060
Si Si3 0.741708 0.895506 0.827142
Si Si4 0.646566 0.849793 0.274226
Si Si5 0.588863 0.408224 0.886958
Si Si6 0.500000 0.750000 0.072435
Si Si7 0.171874 0.150903 0.984271
Si Si8 0.680509 0.998453 0.400964
O O1 0.126819 0.750000 0.312921
O O2 0.079028 0.877467 0.226369
O O3 0.187371 0.863507 0.226719
O O4 0.146948 0.918919 0.360578
O O5 0.935853 0.505945 0.106731
O O6 0.884589 0.650113 0.076479
O O7 0.000000 0.646260 0.109404
O O8 0.796114 0.850782 0.783437
O O9 0.723706 0.875832 0.922373
O O10 0.750000 0.000000 0.818066
O O11 0.632493 0.750000 0.297557
O O12 0.599849 0.889239 0.210487
O O13 0.657442 0.912340 0.352790
O O14 0.549991 0.328649 0.920319
O O15 0.649291 0.407972 0.938857
O O16 0.180802 0.250000 0.015070
O O17 0.672324 0.000000 0.500000
O O18 0.750000 0.000000 0.385221
#
# Coordination Sequence:
#
# PCOD9504739 Si02
#       8
#    16  16  16  16  16   4  16  16
#     4  11  21  40  63  90 126 165 204 251 322 374
#     4  11  23  37  61  88 118 163 214 261 311 368
#     4  11  20  38  59  83 126 171 206 259 305 369
#     4  12  21  38  64  91 123 166 210 252 307 378
#     4  12  24  41  61  87 123 167 212 263 317 363
#     4  12  24  44  62  90 124 170 214 280 310 356
#     4  11  24  39  56  90 126 166 217 259 316 368
#     4  11  23  40  64  97 130 160 199 251 316 387
#
# _framework density 20.597825
#
# number of rings (size 3 to 8) (size 9 to 14) (size 15 to 20)
#    0.000    0.690    6.207    3.724    0.966    2.759 
#    0.000    5.517    0.000    0.414    0.000    0.000 
#    0.000    0.000    0.000    0.000    0.000    0.000 
#
# Total GULP energy -323888.531542 kJ/mol
# GULP energy per Si atom -5584.285027 kJ/mol
# Density = 2.055094 g / cm^3
# Si number density = 20.597825 Si / 1000 Ang^3
#
#
#
# Elastic Constant Matrix: (Units=GPa)
#
#
# Indices 1 2 3 4 5 6 
#
# 1 58.7308 3.9537 6.9955 0.0000 0.0000 0.0000
# 2 3.9537 142.0316 27.6401 0.0000 0.0000 0.0000
# 3 6.9955 27.6401 131.9935 0.0000 0.0000 0.0000
# 4 0.0000 0.0000 0.0000 -3.2044 0.0000 0.0000
# 5 0.0000 0.0000 0.0000 0.0000 13.8766 0.0000
# 6 0.0000 0.0000 0.0000 0.0000 0.0000 24.0579
#
#
#
# Elastic Compliance Matrix: (Units=1/GPa)
#
#
# Indices 1 2 3 4 5 6 
#
# 1 0.017148 -0.000313 -0.000843 0.000000 0.000000 0.000000
# 2 -0.000313 0.007346 -0.001522 0.000000 0.000000 0.000000
# 3 -0.000843 -0.001522 0.007939 0.000000 0.000000 0.000000
# 4 0.000000 0.000000 0.000000 -0.312074 0.000000 0.000000
# 5 0.000000 0.000000 0.000000 0.000000 0.072064 0.000000
# 6 0.000000 0.000000 0.000000 0.000000 0.000000 0.041566
#
#
# Mechanical properties :
#
#
# Convention : Reuss Voigt Hill
#
# Bulk Modulus (GPa) = 36.93149 45.54829 41.23989
# Shear Modulus (GPa) = -32.97532 26.55713 -3.20910
#
# Velocity S-wave (km/s) = -4.00548 3.59460 -1.24954
# Velocity P-wave (km/s) = 1.85017 6.27610 4.24065
#
# Compressibility (1/GPa) = 0.02707716
#
# Stress axis : x y z
#
# Youngs Moduli (GPa) = 58.31455 136.13748 125.95334
#
# Poissons Ratio (x) = 0.04264 0.10621
# Poissons Ratio (y) = 0.01827 0.19165
# Poissons Ratio (z) = 0.04917 0.20715
#
# Static dielectric constant tensor:
#      x y z
#    x 1.807320 0.000000 0.000000 
#    y 0.000000 1.722180 0.000000 
#    z 0.000000 0.000000 1.731630 
# 
# From -- ./inp_files/35553.got.cif
#   From: 2010.05.17/outbox.cif.g08.bks.cpg/sg67_18_cif.got.tgz:35553.got - 2010.06.03 18:28:57.
