data_PCOD9504604
_publ_section_title
;
Structure prediction by ZEFSAII (Michael W. Deem and Ramdas Pophale) SiO2 
 PCOD9504604
Probable space group: C M M A
;
_chemical_formula_sum "Si O2"
_cell_formula_units_Z 96
_cell_length_a 22.290985
_cell_length_b 17.200182
_cell_length_c 11.847957
_cell_angle_alpha 90.000000
_cell_angle_beta 90.000000
_cell_angle_gamma 90.000000
_cell_volume 4542.613333
_symmetry_space_group_name_H-M "C M M A"
_symmetry_group_IT_number 67
_symmetry_cell_setting 'orthorhombic'
loop_
_space_group_symop_operation_xyz
x,y,z
-x,1/2-y,z
x,-y,-z
-x,1/2+y,-z
-x,-y,-z
x,1/2+y,-z
-x,y,z
x,1/2-y,z
1/2+x,1/2+y,z
1/2-x,-y,z
1/2+x,1/2-y,-z
1/2-x,y,-z
1/2-x,1/2-y,-z
1/2+x,y,-z
1/2-x,1/2+y,z
1/2+x,-y,z
loop_
_atom_site_type_symbol
_atom_site_label
_atom_site_fract_x
_atom_site_fract_y
_atom_site_fract_z
Si Si1 0.630560 0.394388 0.756173
Si Si2 0.568964 0.453146 0.144109
Si Si3 0.179376 0.906555 0.508720
Si Si4 0.134624 0.841536 0.275609
Si Si5 0.070969 0.165802 0.039933
Si Si6 0.754158 0.093736 0.868769
O O1 0.608690 0.480568 0.795722
O O2 0.643338 0.387290 0.623598
O O3 0.584696 0.342319 0.827584
O O4 0.694812 0.375465 0.809569
O O5 0.500000 0.479746 0.131925
O O6 0.574509 0.379995 0.227587
O O7 0.591465 0.412671 0.026621
O O8 0.250000 0.882429 0.500000
O O9 0.147483 0.870346 0.401117
O O10 0.179521 0.000000 0.500000
O O11 0.133515 0.750000 0.271123
O O12 0.188202 0.873914 0.195669
O O13 0.095466 0.250000 0.000243
O O14 0.000000 0.166505 0.020876
O O15 0.750000 0.000000 0.858381
O O16 0.750000 0.114004 0.000000
#
# Coordination Sequence:
#
# PCOD9504604 Si02
#       6
#    16  16  16  16  16  16
#     4  12  22  39  70  95 127 170 228 268 323 392
#     4  11  23  42  67  97 131 175 222 271 324 394
#     4  11  22  43  67  90 128 173 216 266 327 391
#     4  12  25  42  65  98 130 168 220 270 331 401
#     4  10  23  42  64  96 138 176 214 270 338 399
#     4  11  22  38  63  94 132 168 206 264 331 394
#
# _framework density 21.133209999999998
#
# number of rings (size 3 to 8) (size 9 to 14) (size 15 to 20)
#    0.000    0.833    5.000    2.500    2.333    4.333 
#    0.000    2.500    0.000    0.000    0.000    0.000 
#    0.000    0.000    0.000    0.000    0.000    0.000 
#
# Total GULP energy -268034.702277 kJ/mol
# GULP energy per Si atom -5584.056297 kJ/mol
# Density = 2.108511 g / cm^3
# Si number density = 21.133210 Si / 1000 Ang^3
#
#
#
# Elastic Constant Matrix: (Units=GPa)
#
#
# Indices 1 2 3 4 5 6 
#
# 1 64.3186 8.7014 30.3065 0.0000 0.0000 0.0000
# 2 8.7014 93.6144 29.8087 0.0000 0.0000 0.0000
# 3 30.3065 29.8087 167.6120 0.0000 0.0000 0.0000
# 4 0.0000 0.0000 0.0000 12.5285 0.0000 0.0000
# 5 0.0000 0.0000 0.0000 0.0000 17.6201 0.0000
# 6 0.0000 0.0000 0.0000 0.0000 0.0000 2.7605
#
#
#
# Elastic Compliance Matrix: (Units=1/GPa)
#
#
# Indices 1 2 3 4 5 6 
#
# 1 0.017032 -0.000639 -0.002966 0.000000 0.000000 0.000000
# 2 -0.000639 0.011347 -0.001903 0.000000 0.000000 0.000000
# 3 -0.002966 -0.001903 0.006841 0.000000 0.000000 0.000000
# 4 0.000000 0.000000 0.000000 0.079818 0.000000 0.000000
# 5 0.000000 0.000000 0.000000 0.000000 0.056753 0.000000
# 6 0.000000 0.000000 0.000000 0.000000 0.000000 0.362247
#
#
# Mechanical properties :
#
#
# Convention : Reuss Voigt Hill
#
# Bulk Modulus (GPa) = 41.31325 51.46423 46.38874
# Shear Modulus (GPa) = 9.03962 23.69706 16.36834
#
# Velocity S-wave (km/s) = 2.07044 3.35224 2.78606
# Velocity P-wave (km/s) = 5.03061 6.27603 5.68751
#
# Compressibility (1/GPa) = 0.02420531
#
# Stress axis : x y z
#
# Youngs Moduli (GPa) = 58.71460 88.12674 146.18173
#
# Poissons Ratio (x) = 0.05628 0.43357
# Poissons Ratio (y) = 0.03750 0.27812
# Poissons Ratio (z) = 0.17414 0.16767
#
# Static dielectric constant tensor:
#      x y z
#    x 1.806100 0.000000 0.000000 
#    y 0.000000 1.826050 0.000000 
#    z 0.000000 0.000000 1.812600 
# 
# From -- ./inp_files/21966.got.cif
#   From: 2010.05.17/outbox.cif.g08.bks.cpg/sg67_11_cif.got.tgz:21966.got - 2010.06.03 18:28:57.
