data_PCOD9504598
_publ_section_title
;
Structure prediction by ZEFSAII (Michael W. Deem and Ramdas Pophale) SiO2 
 PCOD9504598
Probable space group: C M M A
;
_chemical_formula_sum "Si O2"
_cell_formula_units_Z 52
_cell_length_a 14.896926
_cell_length_b 21.905801
_cell_length_c 6.998674
_cell_angle_alpha 90.000000
_cell_angle_beta 90.000000
_cell_angle_gamma 90.000000
_cell_volume 2283.870963
_symmetry_space_group_name_H-M "C M M A"
_symmetry_group_IT_number 67
_symmetry_cell_setting 'orthorhombic'
loop_
_space_group_symop_operation_xyz
x,y,z
-x,1/2-y,z
x,-y,-z
-x,1/2+y,-z
-x,-y,-z
x,1/2+y,-z
-x,y,z
x,1/2-y,z
1/2+x,1/2+y,z
1/2-x,-y,z
1/2+x,1/2-y,-z
1/2-x,y,-z
1/2-x,1/2-y,-z
1/2+x,y,-z
1/2-x,1/2+y,z
1/2+x,-y,z
loop_
_atom_site_type_symbol
_atom_site_label
_atom_site_fract_x
_atom_site_fract_y
_atom_site_fract_z
Si Si1 0.393916 0.410111 0.504453
Si Si2 0.750000 0.500000 0.500000
Si Si3 0.645481 0.567155 0.049842
Si Si4 0.106034 0.316539 0.787539
O O1 0.500000 0.423013 0.467431
O O2 0.322488 0.455397 0.401802
O O3 0.370071 0.344123 0.420079
O O4 0.374773 0.418805 0.727908
O O5 0.617716 0.627604 0.933942
O O6 0.605600 0.500000 0.000000
O O7 0.750000 0.562612 0.000000
O O8 0.147328 0.250000 0.829972
O O9 0.000000 0.308521 0.781405
#
# Coordination Sequence:
#
# PCOD9504598 Si02
#       4
#    16   4  16  16
#     4  11  23  40  65  93 126 170 211 257 324 386
#     4  12  22  40  64  94 132 162 210 274 318 374
#     4  11  23  40  64  96 130 163 208 267 325 383
#     4  10  23  42  62  89 126 167 215 266 314 377
#
# _framework density 22.768360999999999
#
# number of rings (size 3 to 8) (size 9 to 14) (size 15 to 20)
#    0.000    1.231    0.000    6.923    0.000    6.769 
#    0.000    8.462    0.000    0.000    0.000    0.000 
#    0.000    0.000    0.000    0.000    0.000    0.000 
#
# Total GULP energy -144902.224283 kJ/mol
# GULP energy per Si atom -5573.162472 kJ/mol
# Density = 2.271654 g / cm^3
# Si number density = 22.768361 Si / 1000 Ang^3
#
#
#
# Elastic Constant Matrix: (Units=GPa)
#
#
# Indices 1 2 3 4 5 6 
#
# 1 118.8536 35.8692 7.6418 0.0000 0.0000 0.0000
# 2 35.8692 245.0275 91.9061 0.0000 0.0000 0.0000
# 3 7.6418 91.9061 155.5426 0.0000 0.0000 0.0000
# 4 0.0000 0.0000 0.0000 369.8319 0.0000 0.0000
# 5 0.0000 0.0000 0.0000 0.0000 30.5978 0.0000
# 6 0.0000 0.0000 0.0000 0.0000 0.0000 33.6928
#
#
#
# Elastic Compliance Matrix: (Units=1/GPa)
#
#
# Indices 1 2 3 4 5 6 
#
# 1 0.008824 -0.001451 0.000424 0.000000 0.000000 0.000000
# 2 -0.001451 0.005482 -0.003168 0.000000 0.000000 0.000000
# 3 0.000424 -0.003168 0.008280 0.000000 0.000000 0.000000
# 4 0.000000 0.000000 0.000000 0.002704 0.000000 0.000000
# 5 0.000000 0.000000 0.000000 0.000000 0.032682 0.000000
# 6 0.000000 0.000000 0.000000 0.000000 0.000000 0.029680
#
#
# Mechanical properties :
#
#
# Convention : Reuss Voigt Hill
#
# Bulk Modulus (GPa) = 70.44007 87.80643 79.12325
# Shear Modulus (GPa) = 49.61616 112.42494 81.02055
#
# Velocity S-wave (km/s) = 4.67322 7.03455 5.97176
# Velocity P-wave (km/s) = 7.75394 10.22882 9.07613
#
# Compressibility (1/GPa) = 0.01419647
#
# Stress axis : x y z
#
# Youngs Moduli (GPa) = 113.32372 182.42515 120.77265
#
# Poissons Ratio (x) = 0.26464 -0.05116
# Poissons Ratio (y) = 0.16439 0.38257
# Poissons Ratio (z) = -0.04801 0.57787
#
# Static dielectric constant tensor:
#      x y z
#    x 1.853410 0.000000 0.000000 
#    y 0.000000 2.019060 0.000000 
#    z 0.000000 0.000000 1.930610 
# 
# From -- ./inp_files/7804.got.cif
#   From: 2010.05.17/outbox.cif.g08.bks.cpg/sg67_4_cif.got.tgz:7804.got - 2010.06.03 18:28:57.
