data_PCOD9504536
_publ_section_title
;
Structure prediction by ZEFSAII (Michael W. Deem and Ramdas Pophale) SiO2 
 PCOD9504536
Probable space group: C M M A
;
_chemical_formula_sum "Si O2"
_cell_formula_units_Z 92
_cell_length_a 13.674537
_cell_length_b 14.113120
_cell_length_c 23.311467
_cell_angle_alpha 90.000000
_cell_angle_beta 90.000000
_cell_angle_gamma 90.000000
_cell_volume 4498.888913
_symmetry_space_group_name_H-M "C M M A"
_symmetry_group_IT_number 67
_symmetry_cell_setting 'orthorhombic'
loop_
_space_group_symop_operation_xyz
x,y,z
-x,1/2-y,z
x,-y,-z
-x,1/2+y,-z
-x,-y,-z
x,1/2+y,-z
-x,y,z
x,1/2-y,z
1/2+x,1/2+y,z
1/2-x,-y,z
1/2+x,1/2-y,-z
1/2-x,y,-z
1/2-x,1/2-y,-z
1/2+x,y,-z
1/2-x,1/2+y,z
1/2+x,-y,z
loop_
_atom_site_type_symbol
_atom_site_label
_atom_site_fract_x
_atom_site_fract_y
_atom_site_fract_z
Si Si1 0.000000 0.854315 0.641332
Si Si2 0.798593 0.642609 0.709620
Si Si3 0.206924 0.862973 0.409642
Si Si4 0.250000 0.500000 0.193066
Si Si5 0.882655 0.044814 0.908417
Si Si6 0.750000 0.500000 0.500000
Si Si7 0.500000 0.040627 0.436102
Si Si8 0.381478 0.145457 0.976219
O O1 0.095417 0.856951 0.680758
O O2 0.000000 0.750000 0.611113
O O3 0.000000 0.948097 0.603611
O O4 0.772589 0.750000 0.725991
O O5 0.727706 0.613725 0.656848
O O6 0.796375 0.576296 0.764327
O O7 0.218460 0.750000 0.416726
O O8 0.098411 0.898265 0.426266
O O9 0.280470 0.920976 0.451629
O O10 0.172026 0.550595 0.151520
O O11 0.853062 0.117534 0.958819
O O12 0.000000 0.050976 0.901680
O O13 0.857354 0.940999 0.934366
O O14 0.500000 0.000000 0.500000
O O15 0.500000 0.146697 0.976747
O O16 0.347638 0.250000 0.959770
#
# Coordination Sequence:
#
# PCOD9504536 Si02
#       8
#     8  16  16   8  16   4   8  16
#     4  10  22  43  68  89 117 160 209 257 303 367
#     4  10  24  44  63  86 118 161 206 251 304 357
#     4  11  24  42  62  91 129 163 205 253 300 365
#     4  12  23  37  60  87 119 156 202 258 300 354
#     4   9  20  35  54  86 117 150 198 247 297 356
#     4  12  20  38  64  94 118 162 202 252 308 358
#     4  12  23  39  62  98 129 162 197 238 310 373
#     4   8  15  33  57  80 116 158 192 237 301 363
#
# _framework density 20.449494000000001
#
# number of rings (size 3 to 8) (size 9 to 14) (size 15 to 20)
#    0.000    1.913    0.870    4.174    1.217    3.478 
#    1.565    0.870    0.000    0.000    0.000    0.000 
#    0.000    0.000    0.000    0.000    0.000    0.000 
#
# Total GULP energy -256693.702050 kJ/mol
# GULP energy per Si atom -5580.297871 kJ/mol
# Density = 2.040295 g / cm^3
# Si number density = 20.449494 Si / 1000 Ang^3
#
#
#
# Elastic Constant Matrix: (Units=GPa)
#
#
# Indices 1 2 3 4 5 6 
#
# 1 77.9909 -8.1037 5.4487 0.0000 0.0000 0.0000
# 2 -8.1037 111.1681 23.4652 0.0000 0.0000 0.0000
# 3 5.4487 23.4652 89.9653 0.0000 0.0000 0.0000
# 4 0.0000 0.0000 0.0000 11.2105 0.0000 0.0000
# 5 0.0000 0.0000 0.0000 0.0000 18.2178 0.0000
# 6 0.0000 0.0000 0.0000 0.0000 0.0000 27.2078
#
#
#
# Elastic Compliance Matrix: (Units=1/GPa)
#
#
# Indices 1 2 3 4 5 6 
#
# 1 0.013021 0.001181 -0.001097 0.000000 0.000000 0.000000
# 2 0.001181 0.009627 -0.002582 0.000000 0.000000 0.000000
# 3 -0.001097 -0.002582 0.011855 0.000000 0.000000 0.000000
# 4 0.000000 0.000000 0.000000 0.089202 0.000000 0.000000
# 5 0.000000 0.000000 0.000000 0.000000 0.054891 0.000000
# 6 0.000000 0.000000 0.000000 0.000000 0.000000 0.036754
#
#
# Mechanical properties :
#
#
# Convention : Reuss Voigt Hill
#
# Bulk Modulus (GPa) = 33.89065 35.63830 34.76448
# Shear Modulus (GPa) = 21.72187 28.54817 25.13502
#
# Velocity S-wave (km/s) = 3.26271 3.74041 3.50969
# Velocity P-wave (km/s) = 5.55000 6.00995 5.78455
#
# Compressibility (1/GPa) = 0.02950666
#
# Stress axis : x y z
#
# Youngs Moduli (GPa) = 76.79725 103.87960 84.35014
#
# Poissons Ratio (x) = -0.12265 0.09250
# Poissons Ratio (y) = -0.09067 0.21782
# Poissons Ratio (z) = 0.08421 0.26825
#
# Static dielectric constant tensor:
#      x y z
#    x 1.848250 0.000000 0.000000 
#    y 0.000000 1.744160 0.000000 
#    z 0.000000 0.000000 1.683300 
# 
# From -- ./inp_files/38573.got.cif
#   From: 2010.05.17/outbox.cif.g08.bks.cpg/sg67_20_cif.got.tgz:38573.got - 2010.06.03 18:28:57.
