data_PCOD9504973
_publ_section_title
;
Structure prediction by ZEFSAII (Michael W. Deem and Ramdas Pophale) SiO2 
 PCOD9504973
Probable space group: C M M A
;
_chemical_formula_sum "Si O2"
_cell_formula_units_Z 80
_cell_length_a 22.208937
_cell_length_b 16.113139
_cell_length_c 11.374984
_cell_angle_alpha 90.000000
_cell_angle_beta 90.000000
_cell_angle_gamma 90.000000
_cell_volume 4070.602736
_symmetry_space_group_name_H-M "C M M A"
_symmetry_group_IT_number 67
_symmetry_cell_setting 'orthorhombic'
loop_
_space_group_symop_operation_xyz
x,y,z
-x,1/2-y,z
x,-y,-z
-x,1/2+y,-z
-x,-y,-z
x,1/2+y,-z
-x,y,z
x,1/2-y,z
1/2+x,1/2+y,z
1/2-x,-y,z
1/2+x,1/2-y,-z
1/2-x,y,-z
1/2-x,1/2-y,-z
1/2+x,y,-z
1/2-x,1/2+y,z
1/2+x,-y,z
loop_
_atom_site_type_symbol
_atom_site_label
_atom_site_fract_x
_atom_site_fract_y
_atom_site_fract_z
Si Si1 0.067915 0.650296 0.467414
Si Si2 0.308374 0.910508 0.436874
Si Si3 0.667651 0.905922 0.964312
Si Si4 0.779655 0.845655 0.809919
Si Si5 0.928700 0.846208 0.201027
O O1 0.064313 0.750000 0.462578
O O2 0.125508 0.627507 0.544304
O O3 0.081987 0.622288 0.333729
O O4 0.000000 0.620712 0.500580
O O5 0.250000 0.868432 0.500000
O O6 0.293881 0.905322 0.298983
O O7 0.311824 0.000000 0.500000
O O8 0.717847 0.871910 0.873936
O O9 0.605474 0.897546 0.896652
O O10 0.672162 0.854640 0.084951
O O11 0.680487 0.000000 0.000000
O O12 0.776627 0.750000 0.769916
O O13 0.907903 0.750000 0.194080
O O14 0.000000 0.846755 0.183857
#
# Coordination Sequence:
#
# PCOD9504973 Si02
#       5
#    16  16  16  16  16
#     4   9  19  38  63  89 120 162 209 253 304 372
#     4  11  25  37  61  88 127 159 205 258 314 366
#     4  11  23  36  63  86 121 159 200 255 316 361
#     4  11  23  40  60  87 118 159 202 248 308 374
#     4   9  18  35  60  87 117 155 201 250 298 363
#
# _framework density 19.653108
#
# number of rings (size 3 to 8) (size 9 to 14) (size 15 to 20)
#    0.000    1.800    0.000    6.600    8.400    4.000 
#    0.000    1.000    0.000    3.600    0.000    0.000 
#    0.000    0.000    0.000    0.000    0.000    0.000 
#
# Total GULP energy -223172.225533 kJ/mol
# GULP energy per Si atom -5579.305638 kJ/mol
# Density = 1.960838 g / cm^3
# Si number density = 19.653108 Si / 1000 Ang^3
#
#
#
# Elastic Constant Matrix: (Units=GPa)
#
#
# Indices 1 2 3 4 5 6 
#
# 1 71.4725 1.4129 49.8480 0.0000 0.0000 0.0000
# 2 1.4129 61.5655 17.2702 0.0000 0.0000 0.0000
# 3 49.8480 17.2702 129.4030 0.0000 0.0000 0.0000
# 4 0.0000 0.0000 0.0000 20.4127 0.0000 0.0000
# 5 0.0000 0.0000 0.0000 0.0000 25.3382 0.0000
# 6 0.0000 0.0000 0.0000 0.0000 0.0000 4.4645
#
#
#
# Elastic Compliance Matrix: (Units=1/GPa)
#
#
# Indices 1 2 3 4 5 6 
#
# 1 0.019302 0.001707 -0.007663 0.000000 0.000000 0.000000
# 2 0.001707 0.017026 -0.002930 0.000000 0.000000 0.000000
# 3 -0.007663 -0.002930 0.011071 0.000000 0.000000 0.000000
# 4 0.000000 0.000000 0.000000 0.048989 0.000000 0.000000
# 5 0.000000 0.000000 0.000000 0.000000 0.039466 0.000000
# 6 0.000000 0.000000 0.000000 0.000000 0.000000 0.223990
#
#
# Mechanical properties :
#
#
# Convention : Reuss Voigt Hill
#
# Bulk Modulus (GPa) = 33.75402 44.38926 39.07164
# Shear Modulus (GPa) = 12.90349 22.97039 17.93694
#
# Velocity S-wave (km/s) = 2.56513 3.42247 3.02433
# Velocity P-wave (km/s) = 5.09758 6.18491 5.66738
#
# Compressibility (1/GPa) = 0.02962610
#
# Stress axis : x y z
#
# Youngs Moduli (GPa) = 51.80699 58.73530 90.32732
#
# Poissons Ratio (x) = -0.10024 0.69221
# Poissons Ratio (y) = -0.08842 0.26463
# Poissons Ratio (z) = 0.39702 0.17208
#
# Static dielectric constant tensor:
#      x y z
#    x 1.709630 0.000000 0.000000 
#    y 0.000000 1.729900 0.000000 
#    z 0.000000 0.000000 1.687430 
# 
# From -- ./inp_files/17908.got.cif
#   From: 2010.05.17/outbox.cif.g08.bks.cpg/sg67_9_cif.got.tgz:17908.got - 2010.06.03 18:28:57.
