data_PCOD9504236
_publ_section_title
;
Structure prediction by ZEFSAII (Michael W. Deem and Ramdas Pophale) SiO2 
 PCOD9504236
Probable space group: C M M A
;
_chemical_formula_sum "Si O2"
_cell_formula_units_Z 116
_cell_length_a 24.619442
_cell_length_b 14.653394
_cell_length_c 16.382149
_cell_angle_alpha 90.000000
_cell_angle_beta 90.000000
_cell_angle_gamma 90.000000
_cell_volume 5909.997595
_symmetry_space_group_name_H-M "C M M A"
_symmetry_group_IT_number 67
_symmetry_cell_setting 'orthorhombic'
loop_
_space_group_symop_operation_xyz
x,y,z
-x,1/2-y,z
x,-y,-z
-x,1/2+y,-z
-x,-y,-z
x,1/2+y,-z
-x,y,z
x,1/2-y,z
1/2+x,1/2+y,z
1/2-x,-y,z
1/2+x,1/2-y,-z
1/2-x,y,-z
1/2-x,1/2-y,-z
1/2+x,y,-z
1/2-x,1/2+y,z
1/2+x,-y,z
loop_
_atom_site_type_symbol
_atom_site_label
_atom_site_fract_x
_atom_site_fract_y
_atom_site_fract_z
Si Si1 0.187397 0.608722 0.511696
Si Si2 0.500000 0.750000 0.939337
Si Si3 0.935461 0.993137 0.250149
Si Si4 0.419013 0.575541 0.935283
Si Si5 0.238238 0.639235 0.239871
Si Si6 0.363389 0.146021 0.344760
Si Si7 0.352565 0.643010 0.304838
Si Si8 0.701535 0.860469 0.940279
O O1 0.188621 0.500000 0.500000
O O2 0.250000 0.641613 0.500000
O O3 0.148044 0.644560 0.440728
O O4 0.163578 0.632429 0.600033
O O5 0.453201 0.668601 0.938343
O O6 0.922607 0.963819 0.156943
O O7 0.911222 0.915965 0.310453
O O8 0.000000 0.001916 0.258410
O O9 0.903498 0.084098 0.276248
O O10 0.356946 0.598589 0.958025
O O11 0.438399 0.500000 0.000000
O O12 0.240602 0.750000 0.244486
O O13 0.193244 0.610870 0.305525
O O14 0.298747 0.607671 0.258312
O O15 0.218086 0.613258 0.151172
O O16 0.372192 0.250000 0.317041
O O17 0.360897 0.750000 0.287492
O O18 0.697372 0.750000 0.943474
O O19 0.750000 0.887922 0.000000
#
# Coordination Sequence:
#
# PCOD9504236 Si02
#       8
#    16   4  16  16  16  16  16  16
#     4  11  21  37  66 104 142 180 223 279 351 425
#     4  12  26  52  82  94 136 190 234 304 332 394
#     4  12  28  47  69  97 133 177 241 289 325 404
#     4  12  27  48  73 107 135 179 238 289 345 406
#     4   9  19  36  64  98 133 174 221 273 337 419
#     4  11  22  39  68 102 133 171 226 289 346 401
#     4  11  24  44  67  98 141 184 224 280 353 417
#     4  10  21  40  66 101 143 183 217 273 358 425
#
# _framework density 19.627758
#
# number of rings (size 3 to 8) (size 9 to 14) (size 15 to 20)
#    0.000    1.103    5.517    0.621    2.897    1.931 
#    1.241    1.379    0.000    1.655    0.000    0.000 
#    0.000    0.000    0.000    0.000    0.000    0.000 
#
# Total GULP energy -323731.973798 kJ/mol
# GULP energy per Si atom -5581.585755 kJ/mol
# Density = 1.958308 g / cm^3
# Si number density = 19.627758 Si / 1000 Ang^3
#
#
#
# Elastic Constant Matrix: (Units=GPa)
#
#
# Indices 1 2 3 4 5 6 
#
# 1 174.7371 58.5266 42.7854 0.0000 0.0000 0.0000
# 2 58.5266 129.0157 33.6094 0.0000 0.0000 0.0000
# 3 42.7854 33.6094 79.9521 0.0000 0.0000 0.0000
# 4 0.0000 0.0000 0.0000 10.3057 0.0000 0.0000
# 5 0.0000 0.0000 0.0000 0.0000 2.5566 0.0000
# 6 0.0000 0.0000 0.0000 0.0000 0.0000 11.0712
#
#
#
# Elastic Compliance Matrix: (Units=1/GPa)
#
#
# Indices 1 2 3 4 5 6 
#
# 1 0.007271 -0.002566 -0.002812 0.000000 0.000000 0.000000
# 2 -0.002566 0.009610 -0.002667 0.000000 0.000000 0.000000
# 3 -0.002812 -0.002667 0.015133 0.000000 0.000000 0.000000
# 4 0.000000 0.000000 0.000000 0.097033 0.000000 0.000000
# 5 0.000000 0.000000 0.000000 0.000000 0.391138 0.000000
# 6 0.000000 0.000000 0.000000 0.000000 0.000000 0.090324
#
#
# Mechanical properties :
#
#
# Convention : Reuss Voigt Hill
#
# Bulk Modulus (GPa) = 62.79600 72.61642 67.70621
# Shear Modulus (GPa) = 7.91255 21.37228 14.64242
#
# Velocity S-wave (km/s) = 2.00999 3.30340 2.73427
# Velocity P-wave (km/s) = 6.11961 7.18520 6.67371
#
# Compressibility (1/GPa) = 0.01592458
#
# Stress axis : x y z
#
# Youngs Moduli (GPa) = 137.53513 104.06302 66.07891
#
# Poissons Ratio (x) = 0.26700 0.18584
# Poissons Ratio (y) = 0.35288 0.17620
# Poissons Ratio (z) = 0.38680 0.27749
#
# Static dielectric constant tensor:
#      x y z
#    x 1.663600 0.000000 0.000000 
#    y 0.000000 1.712670 0.000000 
#    z 0.000000 0.000000 1.692620 
# 
# From -- ./inp_files/35558.got.cif
#   From: 2010.05.17/outbox.cif.g08.bks.cpg/sg67_18_cif.got.tgz:35558.got - 2010.06.03 18:28:57.
