data_PCOD9504058
_publ_section_title
;
Structure prediction by ZEFSAII (Michael W. Deem and Ramdas Pophale) SiO2 
 PCOD9504058
Probable space group: C M M A
;
_chemical_formula_sum "Si O2"
_cell_formula_units_Z 88
_cell_length_a 15.365932
_cell_length_b 17.657125
_cell_length_c 17.233760
_cell_angle_alpha 90.000000
_cell_angle_beta 90.000000
_cell_angle_gamma 90.000000
_cell_volume 4675.832433
_symmetry_space_group_name_H-M "C M M A"
_symmetry_group_IT_number 67
_symmetry_cell_setting 'orthorhombic'
loop_
_space_group_symop_operation_xyz
x,y,z
-x,1/2-y,z
x,-y,-z
-x,1/2+y,-z
-x,-y,-z
x,1/2+y,-z
-x,y,z
x,1/2-y,z
1/2+x,1/2+y,z
1/2-x,-y,z
1/2+x,1/2-y,-z
1/2-x,y,-z
1/2-x,1/2-y,-z
1/2+x,y,-z
1/2-x,1/2+y,z
1/2+x,-y,z
loop_
_atom_site_type_symbol
_atom_site_label
_atom_site_fract_x
_atom_site_fract_y
_atom_site_fract_z
Si Si1 0.338789 0.953013 0.702053
Si Si2 0.500000 0.342194 0.883368
Si Si3 0.101090 0.839284 0.176962
Si Si4 0.849775 0.658129 0.002939
Si Si5 0.500000 0.338003 0.567321
Si Si6 0.000000 0.064947 0.275652
Si Si7 0.151872 0.913502 0.473568
O O1 0.338984 0.889849 0.768582
O O2 0.355617 0.913686 0.619105
O O3 0.250000 0.000000 0.696031
O O4 0.415743 0.011352 0.721261
O O5 0.500000 0.250000 0.875202
O O6 0.500000 0.383339 0.800939
O O7 0.585175 0.364758 0.934042
O O8 0.121762 0.750000 0.183400
O O9 0.111713 0.861419 0.087042
O O10 0.000000 0.849596 0.199782
O O11 0.847719 0.750000 0.999297
O O12 0.750000 0.631004 0.000000
O O13 0.500000 0.250000 0.585076
O O14 0.500000 0.385023 0.646695
O O15 0.583637 0.360804 0.516585
O O16 0.250000 0.895820 0.500000
O O17 0.133639 0.000000 0.500000
#
# Coordination Sequence:
#
# PCOD9504058 Si02
#       7
#    16   8  16  16   8   8  16
#     4  12  24  41  66  92 125 170 213 248 319 385
#     4  10  21  38  61  87 122 167 210 250 308 378
#     4  10  21  40  65  94 124 156 212 277 315 359
#     4   9  18  36  61  86 117 164 209 252 312 375
#     4  12  25  40  66 100 130 162 209 263 313 368
#     4  12  24  41  59  92 133 170 201 256 316 381
#     4  11  21  44  69  88 119 174 216 248 303 376
#
# _framework density 18.820177999999999
#
# number of rings (size 3 to 8) (size 9 to 14) (size 15 to 20)
#    0.000    1.273    5.455    1.091    2.545    1.091 
#    0.000    4.545    0.000    0.000    0.000    0.000 
#    0.000    0.000    0.000    0.000    0.000    0.000 
#
# Total GULP energy -245828.105940 kJ/mol
# GULP energy per Si atom -5587.002408 kJ/mol
# Density = 1.877734 g / cm^3
# Si number density = 18.820178 Si / 1000 Ang^3
#
#
#
# Elastic Constant Matrix: (Units=GPa)
#
#
# Indices 1 2 3 4 5 6 
#
# 1 78.4887 28.2770 34.2285 0.0000 0.0000 0.0000
# 2 28.2770 54.1985 40.6242 0.0000 0.0000 0.0000
# 3 34.2285 40.6242 150.0256 0.0000 0.0000 0.0000
# 4 0.0000 0.0000 0.0000 21.6429 0.0000 0.0000
# 5 0.0000 0.0000 0.0000 0.0000 28.2904 0.0000
# 6 0.0000 0.0000 0.0000 0.0000 0.0000 52.5457
#
#
#
# Elastic Compliance Matrix: (Units=1/GPa)
#
#
# Indices 1 2 3 4 5 6 
#
# 1 0.016047 -0.007061 -0.001749 0.000000 0.000000 0.000000
# 2 -0.007061 0.026256 -0.005499 0.000000 0.000000 0.000000
# 3 -0.001749 -0.005499 0.008554 0.000000 0.000000 0.000000
# 4 0.000000 0.000000 0.000000 0.046205 0.000000 0.000000
# 5 0.000000 0.000000 0.000000 0.000000 0.035348 0.000000
# 6 0.000000 0.000000 0.000000 0.000000 0.000000 0.019031
#
#
# Mechanical properties :
#
#
# Convention : Reuss Voigt Hill
#
# Bulk Modulus (GPa) = 44.96619 54.33024 49.64822
# Shear Modulus (GPa) = 26.67062 32.46799 29.56931
#
# Velocity S-wave (km/s) = 3.76856 4.15802 3.96807
# Velocity P-wave (km/s) = 6.54832 7.20992 6.88707
#
# Compressibility (1/GPa) = 0.02223893
#
# Stress axis : x y z
#
# Youngs Moduli (GPa) = 62.31503 38.08600 116.91068
#
# Poissons Ratio (x) = 0.26894 0.20449
# Poissons Ratio (y) = 0.44003 0.64285
# Poissons Ratio (z) = 0.10900 0.20942
#
# Static dielectric constant tensor:
#      x y z
#    x 1.585960 0.000000 0.000000 
#    y 0.000000 1.631620 0.000000 
#    z 0.000000 0.000000 1.635100 
# 
# From -- ./inp_files/33630.got.cif
#   From: 2010.05.17/outbox.cif.g08.bks.cpg/sg67_17_cif.got.tgz:33630.got - 2010.06.03 18:28:57.
