data_PCOD9504902
_publ_section_title
;
Structure prediction by ZEFSAII (Michael W. Deem and Ramdas Pophale) SiO2 
 PCOD9504902
Probable space group: C M M A
;
_chemical_formula_sum "Si O2"
_cell_formula_units_Z 68
_cell_length_a 13.652757
_cell_length_b 25.838867
_cell_length_c 8.684216
_cell_angle_alpha 90.000000
_cell_angle_beta 90.000000
_cell_angle_gamma 90.000000
_cell_volume 3063.546269
_symmetry_space_group_name_H-M "C M M A"
_symmetry_group_IT_number 67
_symmetry_cell_setting 'orthorhombic'
loop_
_space_group_symop_operation_xyz
x,y,z
-x,1/2-y,z
x,-y,-z
-x,1/2+y,-z
-x,-y,-z
x,1/2+y,-z
-x,y,z
x,1/2-y,z
1/2+x,1/2+y,z
1/2-x,-y,z
1/2+x,1/2-y,-z
1/2-x,y,-z
1/2-x,1/2-y,-z
1/2+x,y,-z
1/2-x,1/2+y,z
1/2+x,-y,z
loop_
_atom_site_type_symbol
_atom_site_label
_atom_site_fract_x
_atom_site_fract_y
_atom_site_fract_z
Si Si1 0.500000 0.129872 0.457054
Si Si2 0.500000 0.041365 0.858189
Si Si3 0.000000 0.373795 0.876276
Si Si4 0.826495 0.071267 0.369661
Si Si5 0.000000 0.750000 0.532370
Si Si6 0.205972 0.750000 0.669788
Si Si7 0.787309 0.849789 0.167205
O O1 0.500000 0.098773 0.293610
O O2 0.596837 0.110907 0.547615
O O3 0.500000 0.193220 0.447413
O O4 0.597002 0.040099 0.745125
O O5 0.500000 0.094003 0.964369
O O6 0.500000 0.000000 0.000000
O O7 0.901825 0.342008 0.856623
O O8 0.750000 0.050662 0.500000
O O9 0.749834 0.101947 0.264490
O O10 0.092016 0.750000 0.643355
O O11 0.250000 0.750000 0.500000
O O12 0.241169 0.700075 0.757992
O O13 0.750000 0.860072 0.000000
#
# Coordination Sequence:
#
# PCOD9504902 Si02
#       7
#     8   8   8  16   4   8  16
#     4  11  22  38  73 102 145 206 258 306 370 449
#     4  11  27  51  83 113 148 193 250 319 402 476
#     4  12  24  43  72 103 148 189 249 311 392 449
#     4  11  22  45  76 107 146 198 247 307 383 457
#     4  12  22  38  68 106 146 208 274 316 360 440
#     4  12  25  41  63 102 147 202 274 316 363 449
#     4  12  24  42  66 104 149 201 248 313 379 448
#
# _framework density 22.196498999999999
#
# number of rings (size 3 to 8) (size 9 to 14) (size 15 to 20)
#    0.000    0.471    7.059    2.471    0.000    1.412 
#    0.000    4.706    5.176    0.000    0.000    2.471 
#    0.000    0.000    0.000    0.000    0.000    0.000 
#
# Total GULP energy -189477.999786 kJ/mol
# GULP energy per Si atom -5572.882347 kJ/mol
# Density = 2.214598 g / cm^3
# Si number density = 22.196499 Si / 1000 Ang^3
#
#
#
# Elastic Constant Matrix: (Units=GPa)
#
#
# Indices 1 2 3 4 5 6 
#
# 1 202.9252 38.4463 51.0454 0.0000 0.0000 0.0000
# 2 38.4463 81.6881 49.0022 0.0000 0.0000 0.0000
# 3 51.0454 49.0022 158.4925 0.0000 0.0000 0.0000
# 4 0.0000 0.0000 0.0000 52.6433 0.0000 0.0000
# 5 0.0000 0.0000 0.0000 0.0000 45.9156 0.0000
# 6 0.0000 0.0000 0.0000 0.0000 0.0000 127.2871
#
#
#
# Elastic Compliance Matrix: (Units=1/GPa)
#
#
# Indices 1 2 3 4 5 6 
#
# 1 0.005594 -0.001905 -0.001213 0.000000 0.000000 0.000000
# 2 -0.001905 0.015678 -0.004234 0.000000 0.000000 0.000000
# 3 -0.001213 -0.004234 0.008009 0.000000 0.000000 0.000000
# 4 0.000000 0.000000 0.000000 0.018996 0.000000 0.000000
# 5 0.000000 0.000000 0.000000 0.000000 0.021779 0.000000
# 6 0.000000 0.000000 0.000000 0.000000 0.000000 0.007856
#
#
# Mechanical properties :
#
#
# Convention : Reuss Voigt Hill
#
# Bulk Modulus (GPa) = 68.59745 80.01040 74.30392
# Shear Modulus (GPa) = 51.29548 65.47664 58.38606
#
# Velocity S-wave (km/s) = 4.81247 5.43716 5.13432
# Velocity P-wave (km/s) = 7.86458 8.69146 8.28834
#
# Compressibility (1/GPa) = 0.01457780
#
# Stress axis : x y z
#
# Youngs Moduli (GPa) = 178.76512 63.78325 124.86113
#
# Poissons Ratio (x) = 0.12153 0.15140
# Poissons Ratio (y) = 0.34062 0.52862
# Poissons Ratio (z) = 0.21676 0.27003
#
# Static dielectric constant tensor:
#      x y z
#    x 1.810190 0.000000 0.000000 
#    y 0.000000 1.814920 0.000000 
#    z 0.000000 0.000000 1.841750 
# 
# From -- ./inp_files/8253.got.cif
#   From: 2010.05.17/outbox.cif.g08.bks.cpg/sg67_5_cif.got.tgz:8253.got - 2010.06.03 18:28:57.
