data_PCOD9504332
_publ_section_title
;
Structure prediction by ZEFSAII (Michael W. Deem and Ramdas Pophale) SiO2 
 PCOD9504332
Probable space group: C M M A
;
_chemical_formula_sum "Si O2"
_cell_formula_units_Z 60
_cell_length_a 28.975268
_cell_length_b 8.924609
_cell_length_c 11.791618
_cell_angle_alpha 90.000000
_cell_angle_beta 90.000000
_cell_angle_gamma 90.000000
_cell_volume 3049.229137
_symmetry_space_group_name_H-M "C M M A"
_symmetry_group_IT_number 67
_symmetry_cell_setting 'orthorhombic'
loop_
_space_group_symop_operation_xyz
x,y,z
-x,1/2-y,z
x,-y,-z
-x,1/2+y,-z
-x,-y,-z
x,1/2+y,-z
-x,y,z
x,1/2-y,z
1/2+x,1/2+y,z
1/2-x,-y,z
1/2+x,1/2-y,-z
1/2-x,y,-z
1/2-x,1/2-y,-z
1/2+x,y,-z
1/2-x,1/2+y,z
1/2+x,-y,z
loop_
_atom_site_type_symbol
_atom_site_label
_atom_site_fract_x
_atom_site_fract_y
_atom_site_fract_z
Si Si1 0.872559 0.422243 0.274060
Si Si2 0.800826 0.571037 0.117387
Si Si3 0.500000 0.250000 0.438993
Si Si4 0.947196 0.576695 0.122523
Si Si5 0.923889 0.000000 0.500000
O O1 0.860795 0.250000 0.250950
O O2 0.831305 0.523448 0.225075
O O3 0.916284 0.475835 0.201509
O O4 0.889957 0.439853 0.402041
O O5 0.798416 0.750000 0.105952
O O6 0.750000 0.500000 0.128665
O O7 0.820890 0.500000 0.000000
O O8 0.458751 0.378364 0.447032
O O9 0.931115 0.750000 0.117382
O O10 0.000000 0.580263 0.164476
O O11 0.947098 0.500000 0.000000
#
# Coordination Sequence:
#
# PCOD9504332 Si02
#       5
#    16  16   4  16   8
#     4  12  25  40  62  91 126 164 212 263 315 380
#     4  11  23  43  71  99 131 166 208 260 320 387
#     4  10  24  46  64  90 124 178 224 274 310 374
#     4  10  22  37  56  83 119 160 203 254 314 376
#     4  11  26  42  67  92 130 170 227 266 325 370
#
# _framework density 19.677105000000001
#
# number of rings (size 3 to 8) (size 9 to 14) (size 15 to 20)
#    0.000    1.067    1.333    5.600    7.467    1.600 
#    0.000    0.667    0.000    3.200    0.000    0.000 
#    0.000    0.000    0.000    0.000    0.000    0.000 
#
# Total GULP energy -167115.020235 kJ/mol
# GULP energy per Si atom -5570.500675 kJ/mol
# Density = 1.963232 g / cm^3
# Si number density = 19.677105 Si / 1000 Ang^3
#
#
#
# Elastic Constant Matrix: (Units=GPa)
#
#
# Indices 1 2 3 4 5 6 
#
# 1 66.3364 22.0697 35.3240 0.0000 0.0000 0.0000
# 2 22.0697 157.1384 13.5288 0.0000 0.0000 0.0000
# 3 35.3240 13.5288 64.5723 0.0000 0.0000 0.0000
# 4 0.0000 0.0000 0.0000 2.0719 0.0000 0.0000
# 5 0.0000 0.0000 0.0000 0.0000 16.4722 0.0000
# 6 0.0000 0.0000 0.0000 0.0000 0.0000 32.1462
#
#
#
# Elastic Compliance Matrix: (Units=1/GPa)
#
#
# Indices 1 2 3 4 5 6 
#
# 1 0.021921 -0.002084 -0.011555 0.000000 0.000000 0.000000
# 2 -0.002084 0.006679 -0.000259 0.000000 0.000000 0.000000
# 3 -0.011555 -0.000259 0.021862 0.000000 0.000000 0.000000
# 4 0.000000 0.000000 0.000000 0.482647 0.000000 0.000000
# 5 0.000000 0.000000 0.000000 0.000000 0.060708 0.000000
# 6 0.000000 0.000000 0.000000 0.000000 0.000000 0.031108
#
#
# Mechanical properties :
#
#
# Convention : Reuss Voigt Hill
#
# Bulk Modulus (GPa) = 44.12070 47.76577 45.94324
# Shear Modulus (GPa) = 7.57257 24.61304 16.09281
#
# Velocity S-wave (km/s) = 1.96387 3.54057 2.86290
# Velocity P-wave (km/s) = 5.25484 6.40638 5.85897
#
# Compressibility (1/GPa) = 0.02266510
#
# Stress axis : x y z
#
# Youngs Moduli (GPa) = 45.61815 149.72699 45.74134
#
# Poissons Ratio (x) = 0.31202 0.52855
# Poissons Ratio (y) = 0.09506 0.01186
# Poissons Ratio (z) = 0.52713 0.03883
#
# Static dielectric constant tensor:
#      x y z
#    x 1.690050 0.000000 0.000000 
#    y 0.000000 1.659790 0.000000 
#    z 0.000000 0.000000 1.722190 
# 
# From -- ./inp_files/15743.got.cif
#   From: 2010.05.17/outbox.cif.g08.bks.cpg/sg67_8_cif.got.tgz:15743.got - 2010.06.03 18:28:57.
