data_PCOD9504081
_publ_section_title
;
Structure prediction by ZEFSAII (Michael W. Deem and Ramdas Pophale) SiO2 
 PCOD9504081
Probable space group: C M M A
;
_chemical_formula_sum "Si O2"
_cell_formula_units_Z 112
_cell_length_a 23.154985
_cell_length_b 14.919410
_cell_length_c 16.280179
_cell_angle_alpha 90.000000
_cell_angle_beta 90.000000
_cell_angle_gamma 90.000000
_cell_volume 5624.129713
_symmetry_space_group_name_H-M "C M M A"
_symmetry_group_IT_number 67
_symmetry_cell_setting 'orthorhombic'
loop_
_space_group_symop_operation_xyz
x,y,z
-x,1/2-y,z
x,-y,-z
-x,1/2+y,-z
-x,-y,-z
x,1/2+y,-z
-x,y,z
x,1/2-y,z
1/2+x,1/2+y,z
1/2-x,-y,z
1/2+x,1/2-y,-z
1/2-x,y,-z
1/2-x,1/2-y,-z
1/2+x,y,-z
1/2-x,1/2+y,z
1/2+x,-y,z
loop_
_atom_site_type_symbol
_atom_site_label
_atom_site_fract_x
_atom_site_fract_y
_atom_site_fract_z
Si Si1 0.153005 0.644260 0.201882
Si Si2 0.305540 0.142793 0.552925
Si Si3 0.564972 0.994497 0.255991
Si Si4 0.565129 0.083816 0.560631
Si Si5 0.276871 0.358728 0.732977
Si Si6 0.316330 0.106762 0.013766
Si Si7 0.879583 0.352777 0.148231
O O1 0.142604 0.750000 0.217783
O O2 0.105563 0.578302 0.237836
O O3 0.212891 0.615202 0.243680
O O4 0.162718 0.630727 0.104617
O O5 0.299479 0.250000 0.554528
O O6 0.250000 0.109990 0.500000
O O7 0.373436 0.127171 0.532843
O O8 0.295711 0.107032 0.644785
O O9 0.500000 0.027702 0.255795
O O10 0.573779 0.947125 0.344609
O O11 0.573980 0.921195 0.183845
O O12 0.500000 0.128369 0.557407
O O13 0.560496 0.000000 0.500000
O O14 0.277507 0.250000 0.730898
O O15 0.321993 0.383499 0.802960
O O16 0.360979 0.143097 0.946184
O O17 0.250000 0.139250 0.000000
O O18 0.315420 0.000000 0.000000
O O19 0.893587 0.250000 0.170310
#
# Coordination Sequence:
#
# PCOD9504081 Si02
#       7
#    16  16  16  16  16  16  16
#     4  11  23  40  63  90 125 168 208 257 321 378
#     4  10  21  38  61  93 129 161 201 260 321 377
#     4  11  25  44  64  88 122 164 217 268 301 363
#     4  10  23  43  62  87 124 166 211 257 309 373
#     4   9  19  35  58  90 124 155 197 253 311 375
#     4  11  21  35  60  95 130 165 202 251 317 382
#     4  11  21  38  63  92 126 159 202 258 315 369
#
# _framework density 19.914192
#
# number of rings (size 3 to 8) (size 9 to 14) (size 15 to 20)
#    0.000    1.571    4.286    0.429    2.000    2.286 
#    0.000    2.857    0.000    4.286    0.000    0.000 
#    0.000    0.000    0.000    0.000    0.000    0.000 
#
# Total GULP energy -312327.021389 kJ/mol
# GULP energy per Si atom -5577.268239 kJ/mol
# Density = 1.986887 g / cm^3
# Si number density = 19.914192 Si / 1000 Ang^3
#
#
#
# Elastic Constant Matrix: (Units=GPa)
#
#
# Indices 1 2 3 4 5 6 
#
# 1 124.9086 11.0721 35.3538 0.0000 0.0000 0.0000
# 2 11.0721 51.2981 -4.5972 0.0000 0.0000 0.0000
# 3 35.3538 -4.5972 48.0145 0.0000 0.0000 0.0000
# 4 0.0000 0.0000 0.0000 10.3295 0.0000 0.0000
# 5 0.0000 0.0000 0.0000 0.0000 42.6199 0.0000
# 6 0.0000 0.0000 0.0000 0.0000 0.0000 40.1369
#
#
#
# Elastic Compliance Matrix: (Units=1/GPa)
#
#
# Indices 1 2 3 4 5 6 
#
# 1 0.010552 -0.003000 -0.008057 0.000000 0.000000 0.000000
# 2 -0.003000 0.020515 0.004173 0.000000 0.000000 0.000000
# 3 -0.008057 0.004173 0.027159 0.000000 0.000000 0.000000
# 4 0.000000 0.000000 0.000000 0.096811 0.000000 0.000000
# 5 0.000000 0.000000 0.000000 0.000000 0.023463 0.000000
# 6 0.000000 0.000000 0.000000 0.000000 0.000000 0.024915
#
#
# Mechanical properties :
#
#
# Convention : Reuss Voigt Hill
#
# Bulk Modulus (GPa) = 22.49251 34.20874 28.35062
# Shear Modulus (GPa) = 21.55155 30.77675 26.16415
#
# Velocity S-wave (km/s) = 3.29328 3.93551 3.62863
# Velocity P-wave (km/s) = 5.07742 6.15356 5.64121
#
# Compressibility (1/GPa) = 0.04445925
#
# Stress axis : x y z
#
# Youngs Moduli (GPa) = 94.76749 48.74410 36.82021
#
# Poissons Ratio (x) = 0.14621 0.29666
# Poissons Ratio (y) = 0.28426 -0.15365
# Poissons Ratio (z) = 0.76353 -0.20340
#
# Static dielectric constant tensor:
#      x y z
#    x 1.738150 0.000000 0.000000 
#    y 0.000000 1.718960 0.000000 
#    z 0.000000 0.000000 1.712020 
# 
# From -- ./inp_files/30126.got.cif
#   From: 2010.05.17/outbox.cif.g08.bks.cpg/sg67_16_cif.got.tgz:30126.got - 2010.06.03 18:28:57.
