data_PCOD9504645
_publ_section_title
;
Structure prediction by ZEFSAII (Michael W. Deem and Ramdas Pophale) SiO2 
 PCOD9504645
Probable space group: C M M A
;
_chemical_formula_sum "Si O2"
_cell_formula_units_Z 36
_cell_length_a 26.173511
_cell_length_b 10.622701
_cell_length_c 5.645090
_cell_angle_alpha 90.000000
_cell_angle_beta 90.000000
_cell_angle_gamma 90.000000
_cell_volume 1569.523461
_symmetry_space_group_name_H-M "C M M A"
_symmetry_group_IT_number 67
_symmetry_cell_setting 'orthorhombic'
loop_
_space_group_symop_operation_xyz
x,y,z
-x,1/2-y,z
x,-y,-z
-x,1/2+y,-z
-x,-y,-z
x,1/2+y,-z
-x,y,z
x,1/2-y,z
1/2+x,1/2+y,z
1/2-x,-y,z
1/2+x,1/2-y,-z
1/2-x,y,-z
1/2-x,1/2-y,-z
1/2+x,y,-z
1/2-x,1/2+y,z
1/2+x,-y,z
loop_
_atom_site_type_symbol
_atom_site_label
_atom_site_fract_x
_atom_site_fract_y
_atom_site_fract_z
Si Si1 0.250000 0.250000 0.500000
Si Si2 0.827909 0.114799 0.171954
Si Si3 0.086515 0.500000 0.500000
Si Si4 0.000000 0.388458 0.811521
O O1 0.217411 0.356338 0.352259
O O2 0.835425 0.250000 0.039098
O O3 0.877731 0.078300 0.322630
O O4 0.817036 0.000000 0.000000
O O5 0.049664 0.409214 0.649076
O O6 0.000000 0.250000 0.920702
O O7 0.000000 0.500000 0.000000
#
# Coordination Sequence:
#
# PCOD9504645 Si02
#       4
#     4  16   8   8
#     4   8  24  50  76 112 160 198 252 328 384 466
#     4  10  23  48  79 109 153 201 256 319 387 458
#     4  11  24  43  78 108 148 199 256 321 384 462
#     4  11  26  46  71 107 153 199 249 315 393 461
#
# _framework density 22.936899
#
# number of rings (size 3 to 8) (size 9 to 14) (size 15 to 20)
#    1.333    0.444    0.000    2.667    0.000   13.333 
#    0.000   10.000    0.000    0.000    0.000    0.000 
#    0.000    0.000    0.000    0.000    0.000    0.000 
#
# Total GULP energy -100201.816198 kJ/mol
# GULP energy per Si atom -5566.767567 kJ/mol
# Density = 2.288469 g / cm^3
# Si number density = 22.936899 Si / 1000 Ang^3
#
#
#
# Elastic Constant Matrix: (Units=GPa)
#
#
# Indices 1 2 3 4 5 6 
#
# 1 130.5179 86.2741 87.6499 0.0000 0.0000 0.0000
# 2 86.2741 235.5286 74.4935 0.0000 0.0000 0.0000
# 3 87.6499 74.4935 82.5238 0.0000 0.0000 0.0000
# 4 0.0000 0.0000 0.0000 51.7967 0.0000 0.0000
# 5 0.0000 0.0000 0.0000 0.0000 -9.3773 0.0000
# 6 0.0000 0.0000 0.0000 0.0000 0.0000 -20.4437
#
#
#
# Elastic Compliance Matrix: (Units=1/GPa)
#
#
# Indices 1 2 3 4 5 6 
#
# 1 0.026940 -0.001145 -0.027580 0.000000 0.000000 0.000000
# 2 -0.001145 0.005991 -0.004192 0.000000 0.000000 0.000000
# 3 -0.027580 -0.004192 0.045195 0.000000 0.000000 0.000000
# 4 0.000000 0.000000 0.000000 0.019306 0.000000 0.000000
# 5 0.000000 0.000000 0.000000 0.000000 -0.106641 0.000000
# 6 0.000000 0.000000 0.000000 0.000000 0.000000 -0.048915
#
#
# Mechanical properties :
#
#
# Convention : Reuss Voigt Hill
#
# Bulk Modulus (GPa) = 81.35216 105.04503 93.19859
# Shear Modulus (GPa) = 423.47811 17.73868 220.60839
#
# Velocity S-wave (km/s) = 13.60251 2.78397 9.81781
# Velocity P-wave (km/s) = 16.80027 7.49872 13.00923
#
# Compressibility (1/GPa) = 0.01229224
#
# Stress axis : x y z
#
# Youngs Moduli (GPa) = 37.11940 166.91677 22.12658
#
# Poissons Ratio (x) = 0.19115 0.61025
# Poissons Ratio (y) = 0.04251 0.09275
# Poissons Ratio (z) = 1.02375 0.69967
#
# Static dielectric constant tensor:
#      x y z
#    x 1.841020 0.000000 0.000000 
#    y 0.000000 1.894160 0.000000 
#    z 0.000000 0.000000 1.841950 
# 
# From -- ./inp_files/3746.got.cif
#   From: 2010.05.17/outbox.cif.g08.bks.cpg/sg67_2_cif.got.tgz:3746.got - 2010.06.03 18:28:57.
