data_PCOD9504386
_publ_section_title
;
Structure prediction by ZEFSAII (Michael W. Deem and Ramdas Pophale) SiO2 
 PCOD9504386
Probable space group: C M M A
;
_chemical_formula_sum "Si O2"
_cell_formula_units_Z 64
_cell_length_a 14.991454
_cell_length_b 8.571675
_cell_length_c 25.511334
_cell_angle_alpha 90.000000
_cell_angle_beta 90.000000
_cell_angle_gamma 90.000000
_cell_volume 3278.254163
_symmetry_space_group_name_H-M "C M M A"
_symmetry_group_IT_number 67
_symmetry_cell_setting 'orthorhombic'
loop_
_space_group_symop_operation_xyz
x,y,z
-x,1/2-y,z
x,-y,-z
-x,1/2+y,-z
-x,-y,-z
x,1/2+y,-z
-x,y,z
x,1/2-y,z
1/2+x,1/2+y,z
1/2-x,-y,z
1/2+x,1/2-y,-z
1/2-x,y,-z
1/2-x,1/2-y,-z
1/2+x,y,-z
1/2-x,1/2+y,z
1/2+x,-y,z
loop_
_atom_site_type_symbol
_atom_site_label
_atom_site_fract_x
_atom_site_fract_y
_atom_site_fract_z
Si Si1 0.000000 0.561134 0.558752
Si Si2 0.851521 0.437493 0.245412
Si Si3 0.850250 0.438094 0.360902
Si Si4 0.351166 0.936047 0.864487
Si Si5 0.000000 0.063777 0.058834
O O1 0.000000 0.500000 0.500000
O O2 0.914074 0.509500 0.592358
O O3 0.000000 0.750000 0.557685
O O4 0.852966 0.250000 0.240378
O O5 0.750000 0.500000 0.247073
O O6 0.887607 0.480425 0.302959
O O7 0.888859 0.510024 0.192239
O O8 0.846771 0.250000 0.361677
O O9 0.750000 0.500000 0.366351
O O10 0.349052 0.750000 0.866362
O O11 0.250000 0.000000 0.869064
O O12 0.413831 0.002630 0.909699
O O13 0.000000 0.250000 0.058513
O O14 0.000000 0.000000 0.000000
#
# Coordination Sequence:
#
# PCOD9504386 Si02
#       5
#     8  16  16  16   8
#     4  10  22  39  54  75 105 142 186 232 277 332
#     4   9  16  30  54  84 114 147 183 227 280 339
#     4   9  19  35  56  80 110 144 182 226 279 334
#     4  11  22  39  62  91 123 157 193 236 287 344
#     4  12  26  45  64  87 117 154 200 248 291 340
#
# _framework density 19.522586
#
# number of rings (size 3 to 8) (size 9 to 14) (size 15 to 20)
#    0.000    2.000    0.000    5.625    0.000    4.000 
#    0.000    7.500    0.000    0.000    0.000    0.000 
#    0.000    0.000    0.000    0.000    0.000    0.000 
#
# Total GULP energy -178664.025020 kJ/mol
# GULP energy per Si atom -5583.250782 kJ/mol
# Density = 1.947815 g / cm^3
# Si number density = 19.522586 Si / 1000 Ang^3
#
#
#
# Elastic Constant Matrix: (Units=GPa)
#
#
# Indices 1 2 3 4 5 6 
#
# 1 113.9795 39.0611 93.7505 0.0000 0.0000 0.0000
# 2 39.0611 115.7937 70.4984 0.0000 0.0000 0.0000
# 3 93.7505 70.4984 231.4241 0.0000 0.0000 0.0000
# 4 0.0000 0.0000 0.0000 37.5418 0.0000 0.0000
# 5 0.0000 0.0000 0.0000 0.0000 36.2457 0.0000
# 6 0.0000 0.0000 0.0000 0.0000 0.0000 23.4033
#
#
#
# Elastic Compliance Matrix: (Units=1/GPa)
#
#
# Indices 1 2 3 4 5 6 
#
# 1 0.013363 -0.001488 -0.004960 0.000000 0.000000 0.000000
# 2 -0.001488 0.010768 -0.002677 0.000000 0.000000 0.000000
# 3 -0.004960 -0.002677 0.007146 0.000000 0.000000 0.000000
# 4 0.000000 0.000000 0.000000 0.026637 0.000000 0.000000
# 5 0.000000 0.000000 0.000000 0.000000 0.027589 0.000000
# 6 0.000000 0.000000 0.000000 0.000000 0.000000 0.042729
#
#
# Mechanical properties :
#
#
# Convention : Reuss Voigt Hill
#
# Bulk Modulus (GPa) = 76.76859 96.42415 86.59637
# Shear Modulus (GPa) = 33.15068 36.63065 34.89067
#
# Velocity S-wave (km/s) = 4.12523 4.33635 4.23211
# Velocity P-wave (km/s) = 7.88025 8.63541 8.26646
#
# Compressibility (1/GPa) = 0.01302616
#
# Stress axis : x y z
#
# Youngs Moduli (GPa) = 74.83159 92.86665 139.93602
#
# Poissons Ratio (x) = 0.13818 0.69412
# Poissons Ratio (y) = 0.11135 0.37468
# Poissons Ratio (z) = 0.37118 0.24865
#
# Static dielectric constant tensor:
#      x y z
#    x 1.677080 0.000000 0.000000 
#    y 0.000000 1.658100 0.000000 
#    z 0.000000 0.000000 1.693410 
# 
# From -- ./inp_files/41716.got.cif
#   From: 2010.05.17/outbox.cif.g08.bks.cpg/sg67_21_cif.got.tgz:41716.got - 2010.06.03 18:28:57.
