data_PCOD9504813
_publ_section_title
;
Structure prediction by ZEFSAII (Michael W. Deem and Ramdas Pophale) SiO2 
 PCOD9504813
Probable space group: C M M A
;
_chemical_formula_sum "Si O2"
_cell_formula_units_Z 80
_cell_length_a 13.562257
_cell_length_b 24.257644
_cell_length_c 11.705771
_cell_angle_alpha 90.000000
_cell_angle_beta 90.000000
_cell_angle_gamma 90.000000
_cell_volume 3851.062897
_symmetry_space_group_name_H-M "C M M A"
_symmetry_group_IT_number 67
_symmetry_cell_setting 'orthorhombic'
loop_
_space_group_symop_operation_xyz
x,y,z
-x,1/2-y,z
x,-y,-z
-x,1/2+y,-z
-x,-y,-z
x,1/2+y,-z
-x,y,z
x,1/2-y,z
1/2+x,1/2+y,z
1/2-x,-y,z
1/2+x,1/2-y,-z
1/2-x,y,-z
1/2-x,1/2-y,-z
1/2+x,y,-z
1/2-x,1/2+y,z
1/2+x,-y,z
loop_
_atom_site_type_symbol
_atom_site_label
_atom_site_fract_x
_atom_site_fract_y
_atom_site_fract_z
Si Si1 0.886910 0.598155 0.746965
Si Si2 0.500000 0.312143 0.094852
Si Si3 0.882798 0.527131 0.286615
Si Si4 0.301597 0.382935 0.115852
Si Si5 0.000000 0.310927 0.634395
Si Si6 0.144387 0.108211 0.517777
O O1 0.853503 0.533888 0.753027
O O2 0.796172 0.632202 0.804876
O O3 0.895941 0.604376 0.609927
O O4 0.000000 0.606013 0.793845
O O5 0.500000 0.250000 0.044192
O O6 0.392739 0.342362 0.077130
O O7 0.500000 0.306775 0.231284
O O8 0.855246 0.570487 0.189595
O O9 0.847307 0.551851 0.408500
O O10 0.000000 0.524920 0.300460
O O11 0.250000 0.402895 0.000000
O O12 0.088803 0.348517 0.594828
O O13 0.000000 0.250000 0.583216
O O14 0.250000 0.132228 0.500000
#
# Coordination Sequence:
#
# PCOD9504813 Si02
#       6
#    16   8  16  16   8  16
#     4  11  24  37  63  98 140 176 211 262 332 396
#     4  11  24  50  76  94 120 172 232 275 327 400
#     4  11  21  39  62  94 129 181 222 257 316 405
#     4  12  25  43  68  93 133 168 223 280 324 377
#     4  11  22  40  65  90 124 165 214 273 341 403
#     4  12  20  36  62  92 133 168 217 270 324 393
#
# _framework density 20.773485000000001
#
# number of rings (size 3 to 8) (size 9 to 14) (size 15 to 20)
#    0.000    0.600    7.000    1.200    1.400    4.800 
#    0.000    3.000    0.000    0.000    0.000    0.000 
#    0.000    0.000    0.000    0.000    0.000    0.000 
#
# Total GULP energy -222695.236629 kJ/mol
# GULP energy per Si atom -5567.380916 kJ/mol
# Density = 2.072620 g / cm^3
# Si number density = 20.773485 Si / 1000 Ang^3
#
#
#
# Elastic Constant Matrix: (Units=GPa)
#
#
# Indices 1 2 3 4 5 6 
#
# 1 96.6094 15.9328 -6.0136 0.0000 0.0000 0.0000
# 2 15.9328 56.7970 -4.1950 0.0000 0.0000 0.0000
# 3 -6.0136 -4.1950 71.6842 0.0000 0.0000 0.0000
# 4 0.0000 0.0000 0.0000 6.5156 0.0000 0.0000
# 5 0.0000 0.0000 0.0000 0.0000 52.6134 0.0000
# 6 0.0000 0.0000 0.0000 0.0000 0.0000 21.6077
#
#
#
# Elastic Compliance Matrix: (Units=1/GPa)
#
#
# Indices 1 2 3 4 5 6 
#
# 1 0.010892 -0.003001 0.000738 0.000000 0.000000 0.000000
# 2 -0.003001 0.018510 0.000831 0.000000 0.000000 0.000000
# 3 0.000738 0.000831 0.014061 0.000000 0.000000 0.000000
# 4 0.000000 0.000000 0.000000 0.153478 0.000000 0.000000
# 5 0.000000 0.000000 0.000000 0.000000 0.019007 0.000000
# 6 0.000000 0.000000 0.000000 0.000000 0.000000 0.046280
#
#
# Mechanical properties :
#
#
# Convention : Reuss Voigt Hill
#
# Bulk Modulus (GPa) = 24.63078 26.28212 25.45645
# Shear Modulus (GPa) = 17.94545 30.77177 24.35861
#
# Velocity S-wave (km/s) = 2.94234 3.85294 3.42801
# Velocity P-wave (km/s) = 4.84002 5.69849 5.28671
#
# Compressibility (1/GPa) = 0.04059961
#
# Stress axis : x y z
#
# Youngs Moduli (GPa) = 91.81210 54.02547 71.12046
#
# Poissons Ratio (x) = 0.16212 -0.05249
# Poissons Ratio (y) = 0.27552 -0.05913
# Poissons Ratio (z) = -0.06777 -0.04492
#
# Static dielectric constant tensor:
#      x y z
#    x 1.813140 0.000000 0.000000 
#    y 0.000000 1.778930 0.000000 
#    z 0.000000 0.000000 1.763790 
# 
# From -- ./inp_files/17993.got.cif
#   From: 2010.05.17/outbox.cif.g08.bks.cpg/sg67_9_cif.got.tgz:17993.got - 2010.06.03 18:28:57.
