data_PCOD9504897
_publ_section_title
;
Structure prediction by ZEFSAII (Michael W. Deem and Ramdas Pophale) SiO2 
 PCOD9504897
Probable space group: C M M A
;
_chemical_formula_sum "Si O2"
_cell_formula_units_Z 84
_cell_length_a 23.043233
_cell_length_b 15.353986
_cell_length_c 12.296720
_cell_angle_alpha 90.000000
_cell_angle_beta 90.000000
_cell_angle_gamma 90.000000
_cell_volume 4350.646884
_symmetry_space_group_name_H-M "C M M A"
_symmetry_group_IT_number 67
_symmetry_cell_setting 'orthorhombic'
loop_
_space_group_symop_operation_xyz
x,y,z
-x,1/2-y,z
x,-y,-z
-x,1/2+y,-z
-x,-y,-z
x,1/2+y,-z
-x,y,z
x,1/2-y,z
1/2+x,1/2+y,z
1/2-x,-y,z
1/2+x,1/2-y,-z
1/2-x,y,-z
1/2-x,1/2-y,-z
1/2+x,y,-z
1/2-x,1/2+y,z
1/2+x,-y,z
loop_
_atom_site_type_symbol
_atom_site_label
_atom_site_fract_x
_atom_site_fract_y
_atom_site_fract_z
Si Si1 0.126425 0.148474 0.733886
Si Si2 0.500000 0.599723 0.317691
Si Si3 0.373575 0.351526 0.733886
Si Si4 0.181454 0.605072 0.500000
Si Si5 0.181194 0.000000 0.122638
Si Si6 0.500000 0.250000 0.500000
Si Si7 0.500000 0.599723 0.682309
O O1 0.131142 0.250000 0.761415
O O2 0.148857 0.137152 0.608816
O O3 0.162766 0.084972 0.810069
O O4 0.060224 0.116081 0.743722
O O5 0.439776 0.616081 0.256278
O O6 0.500000 0.673775 0.407858
O O7 0.500000 0.500000 0.358319
O O8 0.368858 0.250000 0.761415
O O9 0.351143 0.362848 0.608816
O O10 0.337234 0.415028 0.810069
O O11 0.179224 0.500000 0.500000
O O12 0.250000 0.630534 0.500000
O O13 0.250000 0.000000 0.116306
O O14 0.157020 0.000000 0.000000
O O15 0.500000 0.326225 0.407858
#
# Coordination Sequence:
#
# PCOD9504897 Si02
#       7
#    16   8  16  16  16   4   8
#     4  12  24  42  68  99 136 173 220 275 335 403
#     4  12  23  41  65  95 136 183 221 263 334 402
#     4  12  24  42  68  99 136 173 220 275 335 403
#     4  11  22  38  61  93 134 178 216 262 329 399
#     4  11  26  48  72  97 128 174 231 283 335 394
#     4  12  22  36  60 106 144 172 222 264 308 414
#     4  12  23  41  65  95 136 183 221 263 334 402
#
# _framework density 19.307473000000002
#
# number of rings (size 3 to 8) (size 9 to 14) (size 15 to 20)
#    0.000    0.381    5.714    3.143    0.000    4.571 
#    0.000    3.810    0.000    2.286    0.000    0.000 
#    0.000    0.000    0.000    0.000    0.000    0.000 
#
# Total GULP energy -234249.625035 kJ/mol
# GULP energy per Si atom -5577.372025 kJ/mol
# Density = 1.926353 g / cm^3
# Si number density = 19.307473 Si / 1000 Ang^3
#
#
#
# Elastic Constant Matrix: (Units=GPa)
#
#
# Indices 1 2 3 4 5 6 
#
# 1 123.7097 34.8956 33.9853 0.0000 0.0000 0.0000
# 2 34.8956 216.6611 54.8496 0.0000 0.0000 0.0000
# 3 33.9853 54.8496 113.9263 0.0000 0.0000 0.0000
# 4 0.0000 0.0000 0.0000 -2.2001 0.0000 0.0000
# 5 0.0000 0.0000 0.0000 0.0000 -59.1595 0.0000
# 6 0.0000 0.0000 0.0000 0.0000 0.0000 61.6401
#
#
#
# Elastic Compliance Matrix: (Units=1/GPa)
#
#
# Indices 1 2 3 4 5 6 
#
# 1 0.008947 -0.000872 -0.002249 0.000000 0.000000 0.000000
# 2 -0.000872 0.005341 -0.002311 0.000000 0.000000 0.000000
# 3 -0.002249 -0.002311 0.010561 0.000000 0.000000 0.000000
# 4 0.000000 0.000000 0.000000 -0.454522 0.000000 0.000000
# 5 0.000000 0.000000 0.000000 0.000000 -0.016903 0.000000
# 6 0.000000 0.000000 0.000000 0.000000 0.000000 0.016223
#
#
# Mechanical properties :
#
#
# Convention : Reuss Voigt Hill
#
# Bulk Modulus (GPa) = 71.50587 77.97312 74.73949
# Shear Modulus (GPa) = -12.05324 22.09387 5.02032
#
# Velocity S-wave (km/s) = -2.50127 3.38645 1.61426
# Velocity P-wave (km/s) = 5.36414 7.46748 6.50143
#
# Compressibility (1/GPa) = 0.01398487
#
# Stress axis : x y z
#
# Youngs Moduli (GPa) = 111.76613 187.22951 94.68389
#
# Poissons Ratio (x) = 0.16319 0.21298
# Poissons Ratio (y) = 0.09741 0.21886
# Poissons Ratio (z) = 0.25141 0.43277
#
# Static dielectric constant tensor:
#      x y z
#    x 1.748150 0.000000 0.000000 
#    y 0.000000 1.641210 0.000000 
#    z 0.000000 0.000000 1.638930 
# 
# From -- ./inp_files/21815.got.cif
#   From: 2010.05.17/outbox.cif.g08.bks.cpg/sg67_11_cif.got.tgz:21815.got - 2010.06.03 18:28:57.
