data_PCOD9504073
_publ_section_title
;
Structure prediction by ZEFSAII (Michael W. Deem and Ramdas Pophale) SiO2 
 PCOD9504073
Probable space group: C M M A
;
_chemical_formula_sum "Si O2"
_cell_formula_units_Z 48
_cell_length_a 14.643707
_cell_length_b 14.164574
_cell_length_c 10.429718
_cell_angle_alpha 90.000000
_cell_angle_beta 90.000000
_cell_angle_gamma 90.000000
_cell_volume 2163.351626
_symmetry_space_group_name_H-M "C M M A"
_symmetry_group_IT_number 67
_symmetry_cell_setting 'orthorhombic'
loop_
_space_group_symop_operation_xyz
x,y,z
-x,1/2-y,z
x,-y,-z
-x,1/2+y,-z
-x,-y,-z
x,1/2+y,-z
-x,y,z
x,1/2-y,z
1/2+x,1/2+y,z
1/2-x,-y,z
1/2+x,1/2-y,-z
1/2-x,y,-z
1/2-x,1/2-y,-z
1/2+x,y,-z
1/2-x,1/2+y,z
1/2+x,-y,z
loop_
_atom_site_type_symbol
_atom_site_label
_atom_site_fract_x
_atom_site_fract_y
_atom_site_fract_z
Si Si1 0.389311 0.750000 0.959029
Si Si2 0.604193 0.556730 0.381469
Si Si3 0.112130 0.750000 0.739457
Si Si4 0.850797 0.455311 0.871273
O O1 0.500000 0.750000 0.951233
O O2 0.352432 0.844067 0.892480
O O3 0.363549 0.750000 0.109974
O O4 0.646235 0.500000 0.500000
O O5 0.500000 0.580012 0.420188
O O6 0.645186 0.655581 0.332234
O O7 0.602662 0.488925 0.258321
O O8 0.000000 0.750000 0.739344
O O9 0.750000 0.500000 0.864015
O O10 0.893877 0.500000 0.000000
#
# Coordination Sequence:
#
# PCOD9504073 Si02
#       4
#     8  16   8  16
#     4  11  22  39  69  99 128 170 226 273 319 385
#     4  10  21  38  61  89 125 169 222 274 324 387
#     4   9  18  34  60  90 121 162 209 273 330 369
#     4  11  24  39  61  95 130 172 211 268 327 389
#
# _framework density 22.187795000000001
#
# number of rings (size 3 to 8) (size 9 to 14) (size 15 to 20)
#    0.000    1.667    3.333    1.000    0.000    7.333 
#    0.000    3.333    0.000    4.000    0.000    0.000 
#    0.000    0.000    0.000    0.000    0.000    0.000 
#
# Total GULP energy -134153.691930 kJ/mol
# GULP energy per Si atom -5589.737164 kJ/mol
# Density = 2.213729 g / cm^3
# Si number density = 22.187795 Si / 1000 Ang^3
#
#
#
# Elastic Constant Matrix: (Units=GPa)
#
#
# Indices 1 2 3 4 5 6 
#
# 1 84.1277 20.5631 4.7692 0.0000 0.0000 0.0000
# 2 20.5631 259.4954 91.2560 0.0000 0.0000 0.0000
# 3 4.7692 91.2560 153.9904 0.0000 0.0000 0.0000
# 4 0.0000 0.0000 0.0000 26.3400 0.0000 0.0000
# 5 0.0000 0.0000 0.0000 0.0000 4.4918 0.0000
# 6 0.0000 0.0000 0.0000 0.0000 0.0000 19.6266
#
#
#
# Elastic Compliance Matrix: (Units=1/GPa)
#
#
# Indices 1 2 3 4 5 6 
#
# 1 0.012129 -0.001047 0.000245 0.000000 0.000000 0.000000
# 2 -0.001047 0.004959 -0.002906 0.000000 0.000000 0.000000
# 3 0.000245 -0.002906 0.008208 0.000000 0.000000 0.000000
# 4 0.000000 0.000000 0.000000 0.037965 0.000000 0.000000
# 5 0.000000 0.000000 0.000000 0.000000 0.222628 0.000000
# 6 0.000000 0.000000 0.000000 0.000000 0.000000 0.050951
#
#
# Mechanical properties :
#
#
# Convention : Reuss Voigt Hill
#
# Bulk Modulus (GPa) = 55.93109 81.19890 68.56499
# Shear Modulus (GPa) = 14.27688 35.49335 24.88511
#
# Velocity S-wave (km/s) = 2.53940 4.00394 3.35261
# Velocity P-wave (km/s) = 5.81900 7.61912 6.77908
#
# Compressibility (1/GPa) = 0.01787915
#
# Stress axis : x y z
#
# Youngs Moduli (GPa) = 82.44853 201.67023 121.82516
#
# Poissons Ratio (x) = 0.21120 -0.02984
# Poissons Ratio (y) = 0.08635 0.35403
# Poissons Ratio (z) = -0.02020 0.58607
#
# Static dielectric constant tensor:
#      x y z
#    x 1.878520 0.000000 0.000000 
#    y 0.000000 1.804190 0.000000 
#    z 0.000000 0.000000 1.802590 
# 
# From -- ./inp_files/7378.got.cif
#   From: 2010.05.17/outbox.cif.g08.bks.cpg/sg67_4_cif.got.tgz:7378.got - 2010.06.03 18:28:57.
