data_PCOD9504103
_publ_section_title
;
Structure prediction by ZEFSAII (Michael W. Deem and Ramdas Pophale) SiO2 
 PCOD9504103
Probable space group: C M M A
;
_chemical_formula_sum "Si O2"
_cell_formula_units_Z 96
_cell_length_a 15.241971
_cell_length_b 14.458157
_cell_length_c 23.128872
_cell_angle_alpha 90.000000
_cell_angle_beta 90.000000
_cell_angle_gamma 90.000000
_cell_volume 5096.928250
_symmetry_space_group_name_H-M "C M M A"
_symmetry_group_IT_number 67
_symmetry_cell_setting 'orthorhombic'
loop_
_space_group_symop_operation_xyz
x,y,z
-x,1/2-y,z
x,-y,-z
-x,1/2+y,-z
-x,-y,-z
x,1/2+y,-z
-x,y,z
x,1/2-y,z
1/2+x,1/2+y,z
1/2-x,-y,z
1/2+x,1/2-y,-z
1/2-x,y,-z
1/2-x,1/2-y,-z
1/2+x,y,-z
1/2-x,1/2+y,z
1/2+x,-y,z
loop_
_atom_site_type_symbol
_atom_site_label
_atom_site_fract_x
_atom_site_fract_y
_atom_site_fract_z
Si Si1 0.864070 0.849890 0.342813
Si Si2 0.104005 0.501006 0.930507
Si Si3 0.286742 0.355607 0.560642
Si Si4 0.282544 0.354988 0.749873
Si Si5 0.747691 0.361628 0.884236
Si Si6 0.095345 0.444161 0.344992
O O1 0.908053 0.750000 0.345978
O O2 0.793212 0.851772 0.394378
O O3 0.809521 0.853188 0.283418
O O4 0.911956 0.945953 0.346843
O O5 0.164935 0.415792 0.906755
O O6 0.161330 0.591438 0.912756
O O7 0.000000 0.499978 0.911848
O O8 0.103668 0.500000 0.000000
O O9 0.318037 0.250000 0.550810
O O10 0.250000 0.391547 0.500000
O O11 0.359344 0.411860 0.595566
O O12 0.318342 0.250000 0.748263
O O13 0.266097 0.380474 0.815893
O O14 0.345050 0.416819 0.709910
O O15 0.753104 0.250000 0.893102
O O16 0.000000 0.400565 0.339040
#
# Coordination Sequence:
#
# PCOD9504103 Si02
#       6
#    16  16  16  16  16  16
#     4   9  19  35  53  75 107 148 188 223 270 334
#     4  10  23  40  59  90 128 162 203 256 306 358
#     4   9  18  35  58  78 101 141 187 230 278 341
#     4   9  19  36  57  81 110 144 187 234 283 346
#     4  10  21  38  63  90 119 163 210 252 306 370
#     4  11  22  33  54  85 114 145 180 234 299 349
#
# _framework density 18.834873999999999
#
# number of rings (size 3 to 8) (size 9 to 14) (size 15 to 20)
#    0.000    2.333    0.000    4.500    4.667    5.667 
#    0.000    5.000    0.000    6.000    0.000    0.000 
#    0.000    0.000    0.000    0.000    0.000    0.000 
#
# Total GULP energy -267333.490428 kJ/mol
# GULP energy per Si atom -5569.447717 kJ/mol
# Density = 1.879200 g / cm^3
# Si number density = 18.834874 Si / 1000 Ang^3
#
#
#
# Elastic Constant Matrix: (Units=GPa)
#
#
# Indices 1 2 3 4 5 6 
#
# 1 131.1187 57.0805 39.9531 0.0000 0.0000 0.0000
# 2 57.0805 139.1691 37.2086 0.0000 0.0000 0.0000
# 3 39.9531 37.2086 113.1574 0.0000 0.0000 0.0000
# 4 0.0000 0.0000 0.0000 17.6398 0.0000 0.0000
# 5 0.0000 0.0000 0.0000 0.0000 -44.7342 0.0000
# 6 0.0000 0.0000 0.0000 0.0000 0.0000 -889.6928
#
#
#
# Elastic Compliance Matrix: (Units=1/GPa)
#
#
# Indices 1 2 3 4 5 6 
#
# 1 0.009823 -0.003401 -0.002350 0.000000 0.000000 0.000000
# 2 -0.003401 0.009055 -0.001777 0.000000 0.000000 0.000000
# 3 -0.002350 -0.001777 0.010251 0.000000 0.000000 0.000000
# 4 0.000000 0.000000 0.000000 0.056690 0.000000 0.000000
# 5 0.000000 0.000000 0.000000 0.000000 -0.022354 0.000000
# 6 0.000000 0.000000 0.000000 0.000000 0.000000 -0.001124
#
#
# Mechanical properties :
#
#
# Convention : Reuss Voigt Hill
#
# Bulk Modulus (GPa) = 71.05057 72.43662 71.74359
# Shear Modulus (GPa) = 60.90996 -166.74389 -52.91697
#
# Velocity S-wave (km/s) = 5.69290 -9.41921 -5.30624
# Velocity P-wave (km/s) = 9.00094 8.93046 0.79493
#
# Compressibility (1/GPa) = 0.01407448
#
# Stress axis : x y z
#
# Youngs Moduli (GPa) = 101.79967 110.43160 97.54859
#
# Poissons Ratio (x) = 0.37554 0.22925
# Poissons Ratio (y) = 0.34619 0.17334
# Poissons Ratio (z) = 0.23924 0.19623
#
# Static dielectric constant tensor:
#      x y z
#    x 1.638020 0.000000 0.000000 
#    y 0.000000 1.704010 0.000000 
#    z 0.000000 0.000000 1.648420 
# 
# From -- ./inp_files/38376.got.cif
#   From: 2010.05.17/outbox.cif.g08.bks.cpg/sg67_20_cif.got.tgz:38376.got - 2010.06.03 18:28:57.
