data_PCOD9504183
_publ_section_title
;
Structure prediction by ZEFSAII (Michael W. Deem and Ramdas Pophale) SiO2 
 PCOD9504183
Probable space group: C M M A
;
_chemical_formula_sum "Si O2"
_cell_formula_units_Z 56
_cell_length_a 31.297168
_cell_length_b 16.478941
_cell_length_c 5.042666
_cell_angle_alpha 90.000000
_cell_angle_beta 90.000000
_cell_angle_gamma 90.000000
_cell_volume 2600.725666
_symmetry_space_group_name_H-M "C M M A"
_symmetry_group_IT_number 67
_symmetry_cell_setting 'orthorhombic'
loop_
_space_group_symop_operation_xyz
x,y,z
-x,1/2-y,z
x,-y,-z
-x,1/2+y,-z
-x,-y,-z
x,1/2+y,-z
-x,y,z
x,1/2-y,z
1/2+x,1/2+y,z
1/2-x,-y,z
1/2+x,1/2-y,-z
1/2-x,y,-z
1/2-x,1/2-y,-z
1/2+x,y,-z
1/2-x,1/2+y,z
1/2+x,-y,z
loop_
_atom_site_type_symbol
_atom_site_label
_atom_site_fract_x
_atom_site_fract_y
_atom_site_fract_z
Si Si1 0.720679 0.844434 0.759136
Si Si2 0.869863 0.590257 0.390362
Si Si3 0.584604 0.655900 0.124051
Si Si4 0.500000 0.441019 0.749904
O O1 0.708401 0.750000 0.814199
O O2 0.750000 0.845778 0.500000
O O3 0.678069 0.894803 0.709849
O O4 0.750000 0.873828 0.000000
O O5 0.876098 0.500000 0.500000
O O6 0.880608 0.647012 0.641621
O O7 0.900056 0.610374 0.141352
O O8 0.577893 0.750000 0.060370
O O9 0.541856 0.614787 0.235648
O O10 0.500000 0.500000 0.500000
O O11 0.500000 0.500000 0.000000
#
# Coordination Sequence:
#
# PCOD9504183 Si02
#       4
#    16  16  16   8
#     4  10  21  39  64  93 127 169 217 270 330 396
#     4  12  25  43  67  98 136 176 224 281 339 396
#     4  12  25  44  69  98 133 178 227 273 331 403
#     4  12  25  44  69  98 135 170 213 272 333 388
#
# _framework density 21.532451999999999
#
# number of rings (size 3 to 8) (size 9 to 14) (size 15 to 20)
#    0.000    0.571    0.000    9.857    0.000    2.857 
#    0.000    5.714    0.000    0.000    0.000    0.000 
#    0.000    0.000    0.000    0.000    0.000    0.000 
#
# Total GULP energy -156901.342571 kJ/mol
# GULP energy per Si atom -5603.619378 kJ/mol
# Density = 2.148344 g / cm^3
# Si number density = 21.532452 Si / 1000 Ang^3
#
#
#
# Elastic Constant Matrix: (Units=GPa)
#
#
# Indices 1 2 3 4 5 6 
#
# 1 118.4830 77.9433 61.0660 0.0000 0.0000 0.0000
# 2 77.9433 133.0233 61.8164 0.0000 0.0000 0.0000
# 3 61.0660 61.8164 169.8463 0.0000 0.0000 0.0000
# 4 0.0000 0.0000 0.0000 37.2714 0.0000 0.0000
# 5 0.0000 0.0000 0.0000 0.0000 42.0310 0.0000
# 6 0.0000 0.0000 0.0000 0.0000 0.0000 54.6786
#
#
#
# Elastic Compliance Matrix: (Units=1/GPa)
#
#
# Indices 1 2 3 4 5 6 
#
# 1 0.014612 -0.007366 -0.002573 0.000000 0.000000 0.000000
# 2 -0.007366 0.012761 -0.001996 0.000000 0.000000 0.000000
# 3 -0.002573 -0.001996 0.007539 0.000000 0.000000 0.000000
# 4 0.000000 0.000000 0.000000 0.026830 0.000000 0.000000
# 5 0.000000 0.000000 0.000000 0.000000 0.023792 0.000000
# 6 0.000000 0.000000 0.000000 0.000000 0.000000 0.018289
#
#
# Mechanical properties :
#
#
# Convention : Reuss Voigt Hill
#
# Bulk Modulus (GPa) = 90.55921 91.44490 91.00206
# Shear Modulus (GPa) = 38.05964 41.49799 39.77881
#
# Velocity S-wave (km/s) = 4.20878 4.39479 4.30279
# Velocity P-wave (km/s) = 8.10968 8.26516 8.18778
#
# Compressibility (1/GPa) = 0.01104250
#
# Stress axis : x y z
#
# Youngs Moduli (GPa) = 68.43886 78.36308 132.64214
#
# Poissons Ratio (x) = 0.57722 0.34122
# Poissons Ratio (y) = 0.50412 0.26477
# Poissons Ratio (z) = 0.17606 0.15642
#
# Static dielectric constant tensor:
#      x y z
#    x 1.779360 0.000000 0.000000 
#    y 0.000000 1.776220 0.000000 
#    z 0.000000 0.000000 1.740840 
# 
# From -- ./inp_files/1374.got.cif
#   From: 2010.05.17/outbox.cif.g08.bks.cpg/sg67_1_cif.got.tgz:1374.got - 2010.06.03 18:28:57.
