data_PCOD9504681
_publ_section_title
;
Structure prediction by ZEFSAII (Michael W. Deem and Ramdas Pophale) SiO2 
 PCOD9504681
Probable space group: C M M A
;
_chemical_formula_sum "Si O2"
_cell_formula_units_Z 72
_cell_length_a 16.385256
_cell_length_b 8.830268
_cell_length_c 25.034823
_cell_angle_alpha 90.000000
_cell_angle_beta 90.000000
_cell_angle_gamma 90.000000
_cell_volume 3622.193451
_symmetry_space_group_name_H-M "C M M A"
_symmetry_group_IT_number 67
_symmetry_cell_setting 'orthorhombic'
loop_
_space_group_symop_operation_xyz
x,y,z
-x,1/2-y,z
x,-y,-z
-x,1/2+y,-z
-x,-y,-z
x,1/2+y,-z
-x,y,z
x,1/2-y,z
1/2+x,1/2+y,z
1/2-x,-y,z
1/2+x,1/2-y,-z
1/2-x,y,-z
1/2-x,1/2-y,-z
1/2+x,y,-z
1/2-x,1/2+y,z
1/2+x,-y,z
loop_
_atom_site_type_symbol
_atom_site_label
_atom_site_fract_x
_atom_site_fract_y
_atom_site_fract_z
Si Si1 0.000000 0.567063 0.059035
Si Si2 0.595744 0.931606 0.554966
Si Si3 0.664319 0.568612 0.877199
Si Si4 0.405610 0.426842 0.773064
Si Si5 0.337945 0.067987 0.330096
O O1 0.083690 0.521692 0.089356
O O2 0.000000 0.750000 0.057072
O O3 0.000000 0.500000 0.000000
O O4 0.500000 0.973857 0.558556
O O5 0.600661 0.750000 0.551661
O O6 0.637622 0.980069 0.609941
O O7 0.629388 0.000000 0.500000
O O8 0.669402 0.750000 0.877740
O O9 0.750000 0.500000 0.896949
O O10 0.648524 0.510565 0.817065
O O11 0.500000 0.438012 0.789875
O O12 0.383018 0.250000 0.770062
O O13 0.396412 0.502706 0.715317
O O14 0.337963 0.250000 0.328111
O O15 0.250000 0.000000 0.317685
#
# Coordination Sequence:
#
# PCOD9504681 Si02
#       5
#     8  16  16  16  16
#     4  10  24  44  68  96 132 174 217 262 313 368
#     4   9  19  36  57  79 104 141 188 238 296 358
#     4  11  23  42  66  96 131 171 215 261 316 373
#     4  11  23  39  62  91 121 158 203 253 309 368
#     4  11  23  38  56  81 116 154 195 244 300 363
#
# _framework density 19.877459000000002
#
# number of rings (size 3 to 8) (size 9 to 14) (size 15 to 20)
#    0.000    1.556    1.111    3.333    0.000    6.667 
#    0.000    6.667    0.000    0.000    0.000    0.000 
#    0.000    0.000    0.000    0.000    0.000    0.000 
#
# Total GULP energy -201164.389990 kJ/mol
# GULP energy per Si atom -5587.899722 kJ/mol
# Density = 1.983222 g / cm^3
# Si number density = 19.877459 Si / 1000 Ang^3
#
#
#
# Elastic Constant Matrix: (Units=GPa)
#
#
# Indices 1 2 3 4 5 6 
#
# 1 108.1388 42.0397 46.6878 0.0000 0.0000 0.0000
# 2 42.0397 57.6802 34.0219 0.0000 0.0000 0.0000
# 3 46.6878 34.0219 119.3442 0.0000 0.0000 0.0000
# 4 0.0000 0.0000 0.0000 37.0382 0.0000 0.0000
# 5 0.0000 0.0000 0.0000 0.0000 -4.8110 0.0000
# 6 0.0000 0.0000 0.0000 0.0000 0.0000 27.5727
#
#
#
# Elastic Compliance Matrix: (Units=1/GPa)
#
#
# Indices 1 2 3 4 5 6 
#
# 1 0.013761 -0.008240 -0.003034 0.000000 0.000000 0.000000
# 2 -0.008240 0.025775 -0.004124 0.000000 0.000000 0.000000
# 3 -0.003034 -0.004124 0.010742 0.000000 0.000000 0.000000
# 4 0.000000 0.000000 0.000000 0.026999 0.000000 0.000000
# 5 0.000000 0.000000 0.000000 0.000000 -0.207857 0.000000
# 6 0.000000 0.000000 0.000000 0.000000 0.000000 0.036268
#
#
# Mechanical properties :
#
#
# Convention : Reuss Voigt Hill
#
# Bulk Modulus (GPa) = 51.33216 58.96243 55.14730
# Shear Modulus (GPa) = -87.68535 22.78758 -32.44888
#
# Velocity S-wave (km/s) = -6.64896 3.38953 -4.04474
# Velocity P-wave (km/s) = 5.75018 6.71163 2.44758
#
# Compressibility (1/GPa) = 0.01948096
#
# Stress axis : x y z
#
# Youngs Moduli (GPa) = 72.67139 38.79727 93.09321
#
# Poissons Ratio (x) = 0.31967 0.28247
# Poissons Ratio (y) = 0.59878 0.38396
# Poissons Ratio (z) = 0.22051 0.16002
#
# Static dielectric constant tensor:
#      x y z
#    x -1.090430 0.000000 0.000000 
#    y 0.000000 1.665910 0.000000 
#    z 0.000000 0.000000 1.679620 
# 
# From -- ./inp_files/40489.got.cif
#   From: 2010.05.17/outbox.cif.g08.bks.cpg/sg67_21_cif.got.tgz:40489.got - 2010.06.03 18:28:57.
