data_PCOD9504751
_publ_section_title
;
Structure prediction by ZEFSAII (Michael W. Deem and Ramdas Pophale) SiO2 
 PCOD9504751
Probable space group: C M M A
;
_chemical_formula_sum "Si O2"
_cell_formula_units_Z 56
_cell_length_a 9.807048
_cell_length_b 22.387791
_cell_length_c 13.598373
_cell_angle_alpha 90.000000
_cell_angle_beta 90.000000
_cell_angle_gamma 90.000000
_cell_volume 2985.633496
_symmetry_space_group_name_H-M "C M M A"
_symmetry_group_IT_number 67
_symmetry_cell_setting 'orthorhombic'
loop_
_space_group_symop_operation_xyz
x,y,z
-x,1/2-y,z
x,-y,-z
-x,1/2+y,-z
-x,-y,-z
x,1/2+y,-z
-x,y,z
x,1/2-y,z
1/2+x,1/2+y,z
1/2-x,-y,z
1/2+x,1/2-y,-z
1/2-x,y,-z
1/2-x,1/2-y,-z
1/2+x,y,-z
1/2-x,1/2+y,z
1/2+x,-y,z
loop_
_atom_site_type_symbol
_atom_site_label
_atom_site_fract_x
_atom_site_fract_y
_atom_site_fract_z
Si Si1 0.000000 0.439477 0.097014
Si Si2 0.660771 0.250000 0.899467
Si Si3 0.225695 0.372342 0.211614
Si Si4 0.832979 0.558772 0.601769
Si Si5 0.500000 0.917875 0.879232
O O1 0.130693 0.418340 0.154345
O O2 0.000000 0.510766 0.104984
O O3 0.000000 0.402650 0.994841
O O4 0.500000 0.250000 0.924190
O O5 0.693470 0.192412 0.832212
O O6 0.750000 0.250000 0.000000
O O7 0.192950 0.386012 0.325017
O O8 0.374198 0.392146 0.179569
O O9 0.750000 0.500000 0.642296
O O10 0.750000 0.569164 0.500000
O O11 0.000000 0.549407 0.591800
#
# Coordination Sequence:
#
# PCOD9504751 Si02
#       5
#     8   8  16  16   8
#     4  11  20  41  58  96 125 171 205 268 332 394
#     4  12  26  46  67  92 130 181 230 267 315 385
#     4  12  25  40  65  92 132 174 217 270 323 384
#     4  11  23  41  67  99 131 169 215 272 337 395
#     4  11  24  35  64  92 133 161 217 264 330 402
#
# _framework density 18.756488999999998
#
# number of rings (size 3 to 8) (size 9 to 14) (size 15 to 20)
#    0.000    0.571    2.857    6.857    6.000    2.286 
#    0.000    0.714    0.000    0.000    0.000    0.000 
#    0.000    0.000    0.000    0.000    0.000    0.000 
#
# Total GULP energy -156114.461968 kJ/mol
# GULP energy per Si atom -5575.516499 kJ/mol
# Density = 1.871380 g / cm^3
# Si number density = 18.756489 Si / 1000 Ang^3
#
#
#
# Elastic Constant Matrix: (Units=GPa)
#
#
# Indices 1 2 3 4 5 6 
#
# 1 206.8313 39.2036 50.2688 0.0000 0.0000 0.0000
# 2 39.2036 90.9314 47.4383 0.0000 0.0000 0.0000
# 3 50.2688 47.4383 104.6350 0.0000 0.0000 0.0000
# 4 0.0000 0.0000 0.0000 34.5953 0.0000 0.0000
# 5 0.0000 0.0000 0.0000 0.0000 33.0247 0.0000
# 6 0.0000 0.0000 0.0000 0.0000 0.0000 73.1589
#
#
#
# Elastic Compliance Matrix: (Units=1/GPa)
#
#
# Indices 1 2 3 4 5 6 
#
# 1 0.005593 -0.001322 -0.002087 0.000000 0.000000 0.000000
# 2 -0.001322 0.014717 -0.006037 0.000000 0.000000 0.000000
# 3 -0.002087 -0.006037 0.013297 0.000000 0.000000 0.000000
# 4 0.000000 0.000000 0.000000 0.028906 0.000000 0.000000
# 5 0.000000 0.000000 0.000000 0.000000 0.030280 0.000000
# 6 0.000000 0.000000 0.000000 0.000000 0.000000 0.013669
#
#
# Mechanical properties :
#
#
# Convention : Reuss Voigt Hill
#
# Bulk Modulus (GPa) = 67.96595 75.13544 71.55070
# Shear Modulus (GPa) = 38.38511 45.85493 42.12002
#
# Velocity S-wave (km/s) = 4.52873 4.94981 4.74394
# Velocity P-wave (km/s) = 7.97875 8.53304 8.26055
#
# Compressibility (1/GPa) = 0.01471325
#
# Stress axis : x y z
#
# Youngs Moduli (GPa) = 178.80077 67.94972 75.20598
#
# Poissons Ratio (x) = 0.08985 0.15699
# Poissons Ratio (y) = 0.23642 0.45401
# Poissons Ratio (z) = 0.37323 0.41020
#
# Static dielectric constant tensor:
#      x y z
#    x 1.606560 0.000000 0.000000 
#    y 0.000000 1.675620 0.000000 
#    z 0.000000 0.000000 1.721590 
# 
# From -- ./inp_files/24645.got.cif
#   From: 2010.05.17/outbox.cif.g08.bks.cpg/sg67_13_cif.got.tgz:24645.got - 2010.06.03 18:28:57.
