data_PCOD9504736
_publ_section_title
;
Structure prediction by ZEFSAII (Michael W. Deem and Ramdas Pophale) SiO2 
 PCOD9504736
Probable space group: C M M A
;
_chemical_formula_sum "Si O2"
_cell_formula_units_Z 64
_cell_length_a 23.262034
_cell_length_b 19.304569
_cell_length_c 7.524602
_cell_angle_alpha 90.000000
_cell_angle_beta 90.000000
_cell_angle_gamma 90.000000
_cell_volume 3379.024414
_symmetry_space_group_name_H-M "C M M A"
_symmetry_group_IT_number 67
_symmetry_cell_setting 'orthorhombic'
loop_
_space_group_symop_operation_xyz
x,y,z
-x,1/2-y,z
x,-y,-z
-x,1/2+y,-z
-x,-y,-z
x,1/2+y,-z
-x,y,z
x,1/2-y,z
1/2+x,1/2+y,z
1/2-x,-y,z
1/2+x,1/2-y,-z
1/2-x,y,-z
1/2-x,1/2-y,-z
1/2+x,y,-z
1/2-x,1/2+y,z
1/2+x,-y,z
loop_
_atom_site_type_symbol
_atom_site_label
_atom_site_fract_x
_atom_site_fract_y
_atom_site_fract_z
Si Si1 0.817256 0.923249 0.454809
Si Si2 0.874056 0.576719 0.080086
Si Si3 0.620532 0.667996 0.256933
Si Si4 0.500000 0.058067 0.239268
Si Si5 0.500000 0.898405 0.349154
O O1 0.750000 0.924668 0.500000
O O2 0.833972 0.911630 0.250933
O O3 0.844829 0.866322 0.581608
O O4 0.841885 0.000000 0.500000
O O5 0.940942 0.579758 0.142780
O O6 0.864455 0.500000 0.000000
O O7 0.861706 0.631994 0.927233
O O8 0.626355 0.750000 0.251746
O O9 0.555460 0.643899 0.291336
O O10 0.500000 0.088511 0.438883
O O11 0.500000 0.025487 0.740664
#
# Coordination Sequence:
#
# PCOD9504736 Si02
#       5
#    16  16  16   8   8
#     4  11  24  45  70  96 127 175 229 273 320 384
#     4  12  22  41  70 100 129 173 221 273 324 394
#     4  12  26  43  65  99 138 172 214 272 336 396
#     4  11  20  36  72  99 130 169 222 266 331 388
#     4  11  20  39  67  97 132 174 212 269 328 401
#
# _framework density 18.940377000000002
#
# number of rings (size 3 to 8) (size 9 to 14) (size 15 to 20)
#    0.000    0.500    7.500    1.500    0.000    2.500 
#    0.000    1.250    0.000    0.000    0.000    0.000 
#    0.000    0.000    0.000    0.000    0.000    0.000 
#
# Total GULP energy -179014.749271 kJ/mol
# GULP energy per Si atom -5594.210915 kJ/mol
# Density = 1.889727 g / cm^3
# Si number density = 18.940377 Si / 1000 Ang^3
#
#
#
# Elastic Constant Matrix: (Units=GPa)
#
#
# Indices 1 2 3 4 5 6 
#
# 1 80.4863 29.8171 52.7148 0.0000 0.0000 0.0000
# 2 29.8171 160.4031 78.3926 0.0000 0.0000 0.0000
# 3 52.7148 78.3926 178.5640 0.0000 0.0000 0.0000
# 4 0.0000 0.0000 0.0000 27.1916 0.0000 0.0000
# 5 0.0000 0.0000 0.0000 0.0000 -9.1445 0.0000
# 6 0.0000 0.0000 0.0000 0.0000 0.0000 -27.0429
#
#
#
# Elastic Compliance Matrix: (Units=1/GPa)
#
#
# Indices 1 2 3 4 5 6 
#
# 1 0.015487 -0.000820 -0.004212 0.000000 0.000000 0.000000
# 2 -0.000820 0.007981 -0.003261 0.000000 0.000000 0.000000
# 3 -0.004212 -0.003261 0.008275 0.000000 0.000000 0.000000
# 4 0.000000 0.000000 0.000000 0.036776 0.000000 0.000000
# 5 0.000000 0.000000 0.000000 0.000000 -0.109356 0.000000
# 6 0.000000 0.000000 0.000000 0.000000 0.000000 -0.036978
#
#
# Mechanical properties :
#
#
# Convention : Reuss Voigt Hill
#
# Bulk Modulus (GPa) = 65.98162 82.36695 74.17428
# Shear Modulus (GPa) = -89.00666 15.43611 -36.78527
#
# Velocity S-wave (km/s) = -6.86259 2.85789 -4.41178
# Velocity P-wave (km/s) = 5.28028 7.38051 3.64627
#
# Compressibility (1/GPa) = 0.01515574
#
# Stress axis : x y z
#
# Youngs Moduli (GPa) = 64.57045 125.30123 120.83910
#
# Poissons Ratio (x) = 0.10280 0.50895
# Poissons Ratio (y) = 0.05298 0.39411
# Poissons Ratio (z) = 0.27196 0.40867
#
# Static dielectric constant tensor:
#      x y z
#    x 1.615550 0.000000 0.000000 
#    y 0.000000 1.617230 0.000000 
#    z 0.000000 0.000000 1.659890 
# 
# From -- ./inp_files/2874.got.cif
#   From: 2010.05.17/outbox.cif.g08.bks.cpg/sg67_2_cif.got.tgz:2874.got - 2010.06.03 18:28:57.
