data_PCOD9504156
_publ_section_title
;
Structure prediction by ZEFSAII (Michael W. Deem and Ramdas Pophale) SiO2 
 PCOD9504156
Probable space group: C M M A
;
_chemical_formula_sum "Si O2"
_cell_formula_units_Z 112
_cell_length_a 23.815307
_cell_length_b 19.437345
_cell_length_c 12.378988
_cell_angle_alpha 90.000000
_cell_angle_beta 90.000000
_cell_angle_gamma 90.000000
_cell_volume 5730.312009
_symmetry_space_group_name_H-M "C M M A"
_symmetry_group_IT_number 67
_symmetry_cell_setting 'orthorhombic'
loop_
_space_group_symop_operation_xyz
x,y,z
-x,1/2-y,z
x,-y,-z
-x,1/2+y,-z
-x,-y,-z
x,1/2+y,-z
-x,y,z
x,1/2-y,z
1/2+x,1/2+y,z
1/2-x,-y,z
1/2+x,1/2-y,-z
1/2-x,y,-z
1/2-x,1/2-y,-z
1/2+x,y,-z
1/2-x,1/2+y,z
1/2+x,-y,z
loop_
_atom_site_type_symbol
_atom_site_label
_atom_site_fract_x
_atom_site_fract_y
_atom_site_fract_z
Si Si1 0.566261 0.830050 0.102312
Si Si2 0.365017 0.825338 0.658904
Si Si3 0.831655 0.965601 0.113522
Si Si4 0.434146 0.879427 0.859173
Si Si5 0.727901 0.174097 0.164814
Si Si6 0.163545 0.899312 0.767218
Si Si7 0.815883 0.581693 0.518243
O O1 0.500000 0.843648 0.120594
O O2 0.577482 0.750000 0.128430
O O3 0.605720 0.879660 0.172968
O O4 0.576030 0.840834 0.973410
O O5 0.376304 0.750000 0.612571
O O6 0.409651 0.841144 0.753812
O O7 0.305807 0.823896 0.722515
O O8 0.356400 0.881715 0.567908
O O9 0.896799 0.947679 0.132108
O O10 0.800010 0.892632 0.110591
O O11 0.816372 0.023316 0.201014
O O12 0.822412 0.000000 0.000000
O O13 0.500000 0.890963 0.848401
O O14 0.720449 0.250000 0.114758
O O15 0.791793 0.154974 0.185773
O O16 0.165045 0.897460 0.638269
O O17 0.819192 0.500000 0.500000
O O18 0.750000 0.601161 0.500000
#
# Coordination Sequence:
#
# PCOD9504156 Si02
#       7
#    16  16  16  16  16  16  16
#     4  10  22  41  65  95 131 169 212 265 326 393
#     4  10  21  39  62  94 126 161 216 272 315 371
#     4  11  23  41  60  95 133 169 209 268 322 387
#     4  10  21  41  67  93 124 167 217 265 320 381
#     4  10  22  39  60  88 126 168 213 263 318 380
#     4  12  23  40  65  93 129 173 219 259 330 393
#     4  11  23  40  64  90 126 174 218 261 319 388
#
# _framework density 19.545183000000002
#
# number of rings (size 3 to 8) (size 9 to 14) (size 15 to 20)
#    0.000    1.429    2.857    3.000    2.000    4.857 
#    0.000    1.429    0.000    1.714    0.000    0.000 
#    0.000    0.000    0.000    0.000    0.000    0.000 
#
# Total GULP energy -312604.413492 kJ/mol
# GULP energy per Si atom -5582.221669 kJ/mol
# Density = 1.950070 g / cm^3
# Si number density = 19.545183 Si / 1000 Ang^3
#
#
#
# Elastic Constant Matrix: (Units=GPa)
#
#
# Indices 1 2 3 4 5 6 
#
# 1 102.2159 41.9354 45.3819 0.0000 0.0000 0.0000
# 2 41.9354 129.4273 51.3246 0.0000 0.0000 0.0000
# 3 45.3819 51.3246 110.4659 0.0000 0.0000 0.0000
# 4 0.0000 0.0000 0.0000 14.5628 0.0000 0.0000
# 5 0.0000 0.0000 0.0000 0.0000 4.8075 0.0000
# 6 0.0000 0.0000 0.0000 0.0000 0.0000 15.2058
#
#
#
# Elastic Compliance Matrix: (Units=1/GPa)
#
#
# Indices 1 2 3 4 5 6 
#
# 1 0.012586 -0.002485 -0.004016 0.000000 0.000000 0.000000
# 2 -0.002485 0.009962 -0.003608 0.000000 0.000000 0.000000
# 3 -0.004016 -0.003608 0.012378 0.000000 0.000000 0.000000
# 4 0.000000 0.000000 0.000000 0.068668 0.000000 0.000000
# 5 0.000000 0.000000 0.000000 0.000000 0.208007 0.000000
# 6 0.000000 0.000000 0.000000 0.000000 0.000000 0.065764
#
#
# Mechanical properties :
#
#
# Convention : Reuss Voigt Hill
#
# Bulk Modulus (GPa) = 67.98562 68.82143 68.40352
# Shear Modulus (GPa) = 12.42275 20.47969 16.45122
#
# Velocity S-wave (km/s) = 2.52383 3.24051 2.90436
# Velocity P-wave (km/s) = 6.58425 7.02062 6.80593
#
# Compressibility (1/GPa) = 0.01470899
#
# Stress axis : x y z
#
# Youngs Moduli (GPa) = 79.45451 100.37909 80.78535
#
# Poissons Ratio (x) = 0.24949 0.32441
# Poissons Ratio (y) = 0.19748 0.29144
# Poissons Ratio (z) = 0.31907 0.36212
#
# Static dielectric constant tensor:
#      x y z
#    x 1.689310 0.000000 0.000000 
#    y 0.000000 1.834690 0.000000 
#    z 0.000000 0.000000 1.690580 
# 
# From -- ./inp_files/22164.got.cif
#   From: 2010.05.17/outbox.cif.g08.bks.cpg/sg67_12_cif.got.tgz:22164.got - 2010.06.03 18:28:57.
