data_PCOD9504817
_publ_section_title
;
Structure prediction by ZEFSAII (Michael W. Deem and Ramdas Pophale) SiO2 
 PCOD9504817
Probable space group: C M M A
;
_chemical_formula_sum "Si O2"
_cell_formula_units_Z 116
_cell_length_a 24.090351
_cell_length_b 15.172925
_cell_length_c 16.104039
_cell_angle_alpha 90.000000
_cell_angle_beta 90.000000
_cell_angle_gamma 90.000000
_cell_volume 5886.365872
_symmetry_space_group_name_H-M "C M M A"
_symmetry_group_IT_number 67
_symmetry_cell_setting 'orthorhombic'
loop_
_space_group_symop_operation_xyz
x,y,z
-x,1/2-y,z
x,-y,-z
-x,1/2+y,-z
-x,-y,-z
x,1/2+y,-z
-x,y,z
x,1/2-y,z
1/2+x,1/2+y,z
1/2-x,-y,z
1/2+x,1/2-y,-z
1/2-x,y,-z
1/2-x,1/2-y,-z
1/2+x,y,-z
1/2-x,1/2+y,z
1/2+x,-y,z
loop_
_atom_site_type_symbol
_atom_site_label
_atom_site_fract_x
_atom_site_fract_y
_atom_site_fract_z
Si Si1 0.186036 0.605034 0.513724
Si Si2 0.500000 0.750000 0.949798
Si Si3 0.934211 0.991848 0.247711
Si Si4 0.419324 0.579495 0.940060
Si Si5 0.240054 0.599878 0.246410
Si Si6 0.367803 0.153175 0.346784
Si Si7 0.356796 0.651163 0.302085
Si Si8 0.701738 0.855573 0.934152
O O1 0.186342 0.500000 0.500000
O O2 0.250000 0.635589 0.500000
O O3 0.145899 0.643826 0.443576
O O4 0.162915 0.627275 0.604475
O O5 0.452713 0.670525 0.948509
O O6 0.924033 0.955220 0.154755
O O7 0.908647 0.920233 0.311012
O O8 0.000000 0.003721 0.259296
O O9 0.899700 0.080615 0.265651
O O10 0.355965 0.602716 0.961297
O O11 0.437774 0.500000 0.000000
O O12 0.250000 0.500000 0.275995
O O13 0.192010 0.640933 0.302646
O O14 0.299137 0.646731 0.251576
O O15 0.218257 0.602168 0.153314
O O16 0.389782 0.250000 0.326841
O O17 0.379404 0.750000 0.300161
O O18 0.695674 0.750000 0.922114
O O19 0.750000 0.871009 0.000000
#
# Coordination Sequence:
#
# PCOD9504817 Si02
#       8
#    16   4  16  16  16  16  16  16
#     4  11  21  39  67 103 143 182 227 283 355 432
#     4  12  26  52  82 102 136 190 242 304 328 402
#     4  12  28  49  72  98 135 185 242 293 338 406
#     4  12  27  49  75 107 139 182 238 293 347 406
#     4  12  22  40  65 100 141 181 224 285 352 425
#     4  12  24  40  69 105 137 175 233 295 353 414
#     4  12  25  44  68 103 144 185 231 287 359 428
#     4  11  25  41  64 103 143 182 222 278 359 429
#
# _framework density 19.706555999999999
#
# number of rings (size 3 to 8) (size 9 to 14) (size 15 to 20)
#    0.000    0.276    6.897    1.862    4.828    1.103 
#    1.241    1.379    0.000    1.655    0.000    0.000 
#    0.000    0.000    0.000    0.000    0.000    0.000 
#
# Total GULP energy -323946.539781 kJ/mol
# GULP energy per Si atom -5585.285169 kJ/mol
# Density = 1.966170 g / cm^3
# Si number density = 19.706556 Si / 1000 Ang^3
#
#
#
# Elastic Constant Matrix: (Units=GPa)
#
#
# Indices 1 2 3 4 5 6 
#
# 1 145.8053 54.9554 23.0652 0.0000 0.0000 0.0000
# 2 54.9554 163.2409 25.9464 0.0000 0.0000 0.0000
# 3 23.0652 25.9464 51.5079 0.0000 0.0000 0.0000
# 4 0.0000 0.0000 0.0000 25.3817 0.0000 0.0000
# 5 0.0000 0.0000 0.0000 0.0000 -9.6506 0.0000
# 6 0.0000 0.0000 0.0000 0.0000 0.0000 -17.3789
#
#
#
# Elastic Compliance Matrix: (Units=1/GPa)
#
#
# Indices 1 2 3 4 5 6 
#
# 1 0.008132 -0.002347 -0.002459 0.000000 0.000000 0.000000
# 2 -0.002347 0.007336 -0.002645 0.000000 0.000000 0.000000
# 3 -0.002459 -0.002645 0.021848 0.000000 0.000000 0.000000
# 4 0.000000 0.000000 0.000000 0.039398 0.000000 0.000000
# 5 0.000000 0.000000 0.000000 0.000000 -0.103620 0.000000
# 6 0.000000 0.000000 0.000000 0.000000 0.000000 -0.057541
#
#
# Mechanical properties :
#
#
# Convention : Reuss Voigt Hill
#
# Bulk Modulus (GPa) = 44.61353 63.16536 53.88945
# Shear Modulus (GPa) = -80.54992 16.77624 -31.88684
#
# Velocity S-wave (km/s) = -6.40027 2.92087 -4.02690
# Velocity P-wave (km/s) = 5.65065 6.59529 2.40500
#
# Compressibility (1/GPa) = 0.02241472
#
# Stress axis : x y z
#
# Youngs Moduli (GPa) = 122.97048 136.30812 45.77074
#
# Poissons Ratio (x) = 0.31988 0.11257
# Poissons Ratio (y) = 0.28858 0.12105
# Poissons Ratio (z) = 0.30243 0.36049
#
# Static dielectric constant tensor:
#      x y z
#    x 1.670370 0.000000 0.000000 
#    y 0.000000 1.711910 0.000000 
#    z 0.000000 0.000000 1.688230 
# 
# From -- ./inp_files/35560.got.cif
#   From: 2010.05.17/outbox.cif.g08.bks.cpg/sg67_18_cif.got.tgz:35560.got - 2010.06.03 18:28:57.
