data_PCOD9504600
_publ_section_title
;
Structure prediction by ZEFSAII (Michael W. Deem and Ramdas Pophale) SiO2 
 PCOD9504600
Probable space group: C M M A
;
_chemical_formula_sum "Si O2"
_cell_formula_units_Z 52
_cell_length_a 14.090323
_cell_length_b 25.434808
_cell_length_c 6.912080
_cell_angle_alpha 90.000000
_cell_angle_beta 90.000000
_cell_angle_gamma 90.000000
_cell_volume 2477.183442
_symmetry_space_group_name_H-M "C M M A"
_symmetry_group_IT_number 67
_symmetry_cell_setting 'orthorhombic'
loop_
_space_group_symop_operation_xyz
x,y,z
-x,1/2-y,z
x,-y,-z
-x,1/2+y,-z
-x,-y,-z
x,1/2+y,-z
-x,y,z
x,1/2-y,z
1/2+x,1/2+y,z
1/2-x,-y,z
1/2+x,1/2-y,-z
1/2-x,y,-z
1/2-x,1/2-y,-z
1/2+x,y,-z
1/2-x,1/2+y,z
1/2+x,-y,z
loop_
_atom_site_type_symbol
_atom_site_label
_atom_site_fract_x
_atom_site_fract_y
_atom_site_fract_z
Si Si1 0.891944 0.839492 0.137715
Si Si2 0.656311 0.750000 0.130925
Si Si3 0.114898 0.957450 0.169147
Si Si4 0.250000 0.000000 0.500000
Si Si5 0.116605 0.750000 0.425916
O O1 0.856492 0.898199 0.106636
O O2 0.851638 0.801975 0.306957
O O3 0.000000 0.847090 0.197833
O O4 0.891168 0.803496 0.946828
O O5 0.655003 0.750000 0.359121
O O6 0.750000 0.750000 0.000000
O O7 0.000000 0.960428 0.206513
O O8 0.178465 0.969216 0.356972
O O9 0.133669 0.000000 0.000000
O O10 0.000000 0.750000 0.429779
#
# Coordination Sequence:
#
# PCOD9504600 Si02
#       5
#    16   8  16   4   8
#     4   9  20  39  59  81 112 152 198 240 284 350
#     4  11  22  32  53  87 121 153 187 235 294 348
#     4  10  23  42  63  89 122 162 207 254 309 373
#     4  12  24  40  64  90 120 156 204 260 316 366
#     4   9  18  35  58  81 108 147 190 232 280 333
#
# _framework density 20.991582000000001
#
# number of rings (size 3 to 8) (size 9 to 14) (size 15 to 20)
#    0.000    2.154    0.000    3.231    0.000    9.846 
#    0.000    9.231    0.000    0.000    0.000    0.000 
#    0.000    0.000    0.000    0.000    0.000    0.000 
#
# Total GULP energy -144865.465304 kJ/mol
# GULP energy per Si atom -5571.748666 kJ/mol
# Density = 2.094380 g / cm^3
# Si number density = 20.991582 Si / 1000 Ang^3
#
#
#
# Elastic Constant Matrix: (Units=GPa)
#
#
# Indices 1 2 3 4 5 6 
#
# 1 89.2182 33.9031 30.9696 0.0000 0.0000 0.0000
# 2 33.9031 222.9670 99.8434 0.0000 0.0000 0.0000
# 3 30.9696 99.8434 172.7014 0.0000 0.0000 0.0000
# 4 0.0000 0.0000 0.0000 7.3337 0.0000 0.0000
# 5 0.0000 0.0000 0.0000 0.0000 38.6252 0.0000
# 6 0.0000 0.0000 0.0000 0.0000 0.0000 33.8669
#
#
#
# Elastic Compliance Matrix: (Units=1/GPa)
#
#
# Indices 1 2 3 4 5 6 
#
# 1 0.012178 -0.001179 -0.001502 0.000000 0.000000 0.000000
# 2 -0.001179 0.006166 -0.003353 0.000000 0.000000 0.000000
# 3 -0.001502 -0.003353 0.007998 0.000000 0.000000 0.000000
# 4 0.000000 0.000000 0.000000 0.136358 0.000000 0.000000
# 5 0.000000 0.000000 0.000000 0.000000 0.025890 0.000000
# 6 0.000000 0.000000 0.000000 0.000000 0.000000 0.029527
#
#
# Mechanical properties :
#
#
# Convention : Reuss Voigt Hill
#
# Bulk Modulus (GPa) = 70.06119 90.47987 80.27053
# Shear Modulus (GPa) = 21.28173 37.30985 29.29579
#
# Velocity S-wave (km/s) = 3.18751 4.22046 3.73982
# Velocity P-wave (km/s) = 6.85531 8.18207 7.54790
#
# Compressibility (1/GPa) = 0.01427324
#
# Stress axis : x y z
#
# Youngs Moduli (GPa) = 82.11557 162.18540 125.02688
#
# Poissons Ratio (x) = 0.19122 0.18781
# Poissons Ratio (y) = 0.09682 0.41924
# Poissons Ratio (z) = 0.12335 0.54384
#
# Static dielectric constant tensor:
#      x y z
#    x 1.881240 0.000000 0.000000 
#    y 0.000000 1.809150 0.000000 
#    z 0.000000 0.000000 1.703230 
# 
# From -- ./inp_files/1995.got.cif
#   From: 2010.05.17/outbox.cif.g08.bks.cpg/sg67_1_cif.got.tgz:1995.got - 2010.06.03 18:28:57.
