data_PCOD9504458
_publ_section_title
;
Structure prediction by ZEFSAII (Michael W. Deem and Ramdas Pophale) SiO2 
 PCOD9504458
Probable space group: C M M A
;
_chemical_formula_sum "Si O2"
_cell_formula_units_Z 48
_cell_length_a 21.448329
_cell_length_b 13.801385
_cell_length_c 7.108228
_cell_angle_alpha 90.000000
_cell_angle_beta 90.000000
_cell_angle_gamma 90.000000
_cell_volume 2104.153813
_symmetry_space_group_name_H-M "C M M A"
_symmetry_group_IT_number 67
_symmetry_cell_setting 'orthorhombic'
loop_
_space_group_symop_operation_xyz
x,y,z
-x,1/2-y,z
x,-y,-z
-x,1/2+y,-z
-x,-y,-z
x,1/2+y,-z
-x,y,z
x,1/2-y,z
1/2+x,1/2+y,z
1/2-x,-y,z
1/2+x,1/2-y,-z
1/2-x,y,-z
1/2-x,1/2-y,-z
1/2+x,y,-z
1/2-x,1/2+y,z
1/2+x,-y,z
loop_
_atom_site_type_symbol
_atom_site_label
_atom_site_fract_x
_atom_site_fract_y
_atom_site_fract_z
Si Si1 0.594938 0.140165 0.141771
Si Si2 0.818915 0.137574 0.540298
Si Si3 0.069463 0.571824 0.725681
O O1 0.572953 0.250000 0.189834
O O2 0.662911 0.132787 0.239258
O O3 0.564925 0.042692 0.226750
O O4 0.587769 0.125422 0.919792
O O5 0.819150 0.250000 0.485506
O O6 0.750000 0.100674 0.500000
O O7 0.874847 0.092658 0.418033
O O8 0.000000 0.603782 0.664054
#
# Coordination Sequence:
#
# PCOD9504458 Si02
#       3
#    16  16  16
#     4  10  22  40  63  91 125 164 207 257 313 374
#     4  10  23  43  66  93 126 166 211 257 309 373
#     4  11  24  40  62  94 128 164 209 261 316 373
#
# _framework density 22.81202
#
# number of rings (size 3 to 8) (size 9 to 14) (size 15 to 20)
#    0.000    1.667    0.000    4.000    0.000   12.667 
#    0.000   15.000    0.000    0.000    0.000    0.000 
#    0.000    0.000    0.000    0.000    0.000    0.000 
#
# Total GULP energy -133809.168282 kJ/mol
# GULP energy per Si atom -5575.382012 kJ/mol
# Density = 2.276010 g / cm^3
# Si number density = 22.812020 Si / 1000 Ang^3
#
#
#
# Elastic Constant Matrix: (Units=GPa)
#
#
# Indices 1 2 3 4 5 6 
#
# 1 215.1643 44.0510 89.5689 0.0000 0.0000 0.0000
# 2 44.0510 165.6196 20.8046 0.0000 0.0000 0.0000
# 3 89.5689 20.8046 97.7271 0.0000 0.0000 0.0000
# 4 0.0000 0.0000 0.0000 34.4573 0.0000 0.0000
# 5 0.0000 0.0000 0.0000 0.0000 14.7766 0.0000
# 6 0.0000 0.0000 0.0000 0.0000 0.0000 8.6176
#
#
#
# Elastic Compliance Matrix: (Units=1/GPa)
#
#
# Indices 1 2 3 4 5 6 
#
# 1 0.007740 -0.001200 -0.006838 0.000000 0.000000 0.000000
# 2 -0.001200 0.006390 -0.000261 0.000000 0.000000 0.000000
# 3 -0.006838 -0.000261 0.016556 0.000000 0.000000 0.000000
# 4 0.000000 0.000000 0.000000 0.029021 0.000000 0.000000
# 5 0.000000 0.000000 0.000000 0.000000 0.067675 0.000000
# 6 0.000000 0.000000 0.000000 0.000000 0.000000 0.116041
#
#
# Mechanical properties :
#
#
# Convention : Reuss Voigt Hill
#
# Bulk Modulus (GPa) = 70.98415 87.48445 79.23430
# Shear Modulus (GPa) = 18.88816 33.17607 26.03211
#
# Velocity S-wave (km/s) = 2.88061 3.81770 3.38177
# Velocity P-wave (km/s) = 6.49988 7.60700 7.07513
#
# Compressibility (1/GPa) = 0.01408765
#
# Stress axis : x y z
#
# Youngs Moduli (GPa) = 129.20039 156.50024 60.40237
#
# Poissons Ratio (x) = 0.18774 0.41306
# Poissons Ratio (y) = 0.15499 0.01575
# Poissons Ratio (z) = 0.88353 0.04082
#
# Static dielectric constant tensor:
#      x y z
#    x 1.847720 0.000000 0.000000 
#    y 0.000000 1.910640 0.000000 
#    z 0.000000 0.000000 1.870500 
# 
# From -- ./inp_files/7342.got.cif
#   From: 2010.05.17/outbox.cif.g08.bks.cpg/sg67_4_cif.got.tgz:7342.got - 2010.06.03 18:28:57.
