data_PCOD9504745
_publ_section_title
;
Structure prediction by ZEFSAII (Michael W. Deem and Ramdas Pophale) SiO2 
 PCOD9504745
Probable space group: C M M A
;
_chemical_formula_sum "Si O2"
_cell_formula_units_Z 64
_cell_length_a 20.354314
_cell_length_b 14.709930
_cell_length_c 11.137584
_cell_angle_alpha 90.000000
_cell_angle_beta 90.000000
_cell_angle_gamma 90.000000
_cell_volume 3334.709974
_symmetry_space_group_name_H-M "C M M A"
_symmetry_group_IT_number 67
_symmetry_cell_setting 'orthorhombic'
loop_
_space_group_symop_operation_xyz
x,y,z
-x,1/2-y,z
x,-y,-z
-x,1/2+y,-z
-x,-y,-z
x,1/2+y,-z
-x,y,z
x,1/2-y,z
1/2+x,1/2+y,z
1/2-x,-y,z
1/2+x,1/2-y,-z
1/2-x,y,-z
1/2-x,1/2-y,-z
1/2+x,y,-z
1/2-x,1/2+y,z
1/2+x,-y,z
loop_
_atom_site_type_symbol
_atom_site_label
_atom_site_fract_x
_atom_site_fract_y
_atom_site_fract_z
Si Si1 0.725991 0.644591 0.185543
Si Si2 0.680304 0.399577 0.554926
Si Si3 0.923118 0.250000 0.812112
Si Si4 0.351276 0.597260 0.953938
Si Si5 0.919613 0.250000 0.532741
O O1 0.745182 0.750000 0.209832
O O2 0.693329 0.602279 0.302836
O O3 0.789351 0.590526 0.137067
O O4 0.676645 0.644642 0.073375
O O5 0.670846 0.500000 0.500000
O O6 0.750000 0.364847 0.500000
O O7 0.618164 0.336628 0.523765
O O8 0.900281 0.161602 0.884189
O O9 0.901088 0.250000 0.673833
O O10 0.000000 0.250000 0.806163
O O11 0.375266 0.500000 0.000000
O O12 0.000000 0.250000 0.518453
#
# Coordination Sequence:
#
# PCOD9504745 Si02
#       5
#    16  16   8  16   8
#     4  11  20  39  63  96 121 164 201 264 337 383
#     4  11  25  39  66 101 133 165 221 279 330 389
#     4  11  24  43  63  87 123 175 225 262 310 381
#     4  11  23  38  65  92 130 159 207 266 332 386
#     4  11  25  46  67  90 132 188 225 263 328 396
#
# _framework density 19.192072
#
# number of rings (size 3 to 8) (size 9 to 14) (size 15 to 20)
#    0.000    1.000    3.750    4.125   10.500    1.000 
#    0.000    2.500    0.000    0.000    0.000    0.000 
#    0.000    0.000    0.000    0.000    0.000    0.000 
#
# Total GULP energy -178712.140352 kJ/mol
# GULP energy per Si atom -5584.754386 kJ/mol
# Density = 1.914839 g / cm^3
# Si number density = 19.192072 Si / 1000 Ang^3
#
#
#
# Elastic Constant Matrix: (Units=GPa)
#
#
# Indices 1 2 3 4 5 6 
#
# 1 68.0867 29.6214 47.4790 0.0000 0.0000 0.0000
# 2 29.6214 124.7771 51.0521 0.0000 0.0000 0.0000
# 3 47.4790 51.0521 161.7824 0.0000 0.0000 0.0000
# 4 0.0000 0.0000 0.0000 32.3448 0.0000 0.0000
# 5 0.0000 0.0000 0.0000 0.0000 28.7721 0.0000
# 6 0.0000 0.0000 0.0000 0.0000 0.0000 -6.1507
#
#
#
# Elastic Compliance Matrix: (Units=1/GPa)
#
#
# Indices 1 2 3 4 5 6 
#
# 1 0.019164 -0.002582 -0.004810 0.000000 0.000000 0.000000
# 2 -0.002582 0.009550 -0.002256 0.000000 0.000000 0.000000
# 3 -0.004810 -0.002256 0.008305 0.000000 0.000000 0.000000
# 4 0.000000 0.000000 0.000000 0.030917 0.000000 0.000000
# 5 0.000000 0.000000 0.000000 0.000000 0.034756 0.000000
# 6 0.000000 0.000000 0.000000 0.000000 0.000000 -0.162582
#
#
# Mechanical properties :
#
#
# Convention : Reuss Voigt Hill
#
# Bulk Modulus (GPa) = 56.41913 67.88346 62.15130
# Shear Modulus (GPa) = -144.14292 26.09280 -59.02506
#
# Velocity S-wave (km/s) = -8.67574 3.69122 -5.55173
# Velocity P-wave (km/s) = 8.42004 7.32217 2.93963
#
# Compressibility (1/GPa) = 0.01772448
#
# Stress axis : x y z
#
# Youngs Moduli (GPa) = 52.18078 104.70982 120.41644
#
# Poissons Ratio (x) = 0.27033 0.57914
# Poissons Ratio (y) = 0.13471 0.27166
# Poissons Ratio (z) = 0.25096 0.23623
#
# Static dielectric constant tensor:
#      x y z
#    x 1.658870 0.000000 0.000000 
#    y 0.000000 1.565670 0.000000 
#    z 0.000000 0.000000 1.669100 
# 
# From -- ./inp_files/19010.got.cif
#   From: 2010.05.17/outbox.cif.g08.bks.cpg/sg67_10_cif.got.tgz:19010.got - 2010.06.03 18:28:57.
