data_PCOD9504660
_publ_section_title
;
Structure prediction by ZEFSAII (Michael W. Deem and Ramdas Pophale) SiO2 
 PCOD9504660
Probable space group: C M M A
;
_chemical_formula_sum "Si O2"
_cell_formula_units_Z 52
_cell_length_a 9.967390
_cell_length_b 14.873979
_cell_length_c 18.069901
_cell_angle_alpha 90.000000
_cell_angle_beta 90.000000
_cell_angle_gamma 90.000000
_cell_volume 2678.948647
_symmetry_space_group_name_H-M "C M M A"
_symmetry_group_IT_number 67
_symmetry_cell_setting 'orthorhombic'
loop_
_space_group_symop_operation_xyz
x,y,z
-x,1/2-y,z
x,-y,-z
-x,1/2+y,-z
-x,-y,-z
x,1/2+y,-z
-x,y,z
x,1/2-y,z
1/2+x,1/2+y,z
1/2-x,-y,z
1/2+x,1/2-y,-z
1/2-x,y,-z
1/2-x,1/2-y,-z
1/2+x,y,-z
1/2-x,1/2+y,z
1/2+x,-y,z
loop_
_atom_site_type_symbol
_atom_site_label
_atom_site_fract_x
_atom_site_fract_y
_atom_site_fract_z
Si Si1 0.771991 0.395199 0.689024
Si Si2 0.500000 0.357016 0.190431
Si Si3 0.000000 0.026504 0.096472
Si Si4 0.000000 0.847123 0.764435
Si Si5 0.651606 0.750000 0.568798
Si Si6 0.250000 0.000000 0.000000
O O1 0.750000 0.500000 0.672122
O O2 0.872700 0.382107 0.758215
O O3 0.629908 0.356862 0.714221
O O4 0.825930 0.336651 0.621138
O O5 0.500000 0.250000 0.175672
O O6 0.500000 0.420332 0.118103
O O7 0.138920 0.048106 0.053001
O O8 0.000000 0.077160 0.173710
O O9 0.000000 0.750000 0.801878
O O10 0.500000 0.750000 0.541477
O O11 0.750000 0.750000 0.500000
#
# Coordination Sequence:
#
# PCOD9504660 Si02
#       6
#    16   8   8   8   8   4
#     4  12  22  41  67  99 130 166 223 279 324 383
#     4  12  21  41  69  99 127 169 223 282 328 373
#     4  11  22  42  64  96 133 176 216 264 339 388
#     4  12  23  37  69 105 127 161 225 284 324 371
#     4  12  28  48  66  94 142 181 212 264 342 399
#     4  10  24  42  62  90 144 180 202 262 334 422
#
# _framework density 19.410599999999999
#
# number of rings (size 3 to 8) (size 9 to 14) (size 15 to 20)
#    0.000    0.308    7.692    1.846    2.154    0.615 
#    0.000    6.154    0.000    0.000    0.000    0.000 
#    0.000    0.000    0.000    0.000    0.000    0.000 
#
# Total GULP energy -145212.526971 kJ/mol
# GULP energy per Si atom -5585.097191 kJ/mol
# Density = 1.936642 g / cm^3
# Si number density = 19.410600 Si / 1000 Ang^3
#
#
#
# Elastic Constant Matrix: (Units=GPa)
#
#
# Indices 1 2 3 4 5 6 
#
# 1 180.2923 9.4456 36.6627 0.0000 0.0000 0.0000
# 2 9.4456 148.6277 16.1289 0.0000 0.0000 0.0000
# 3 36.6627 16.1289 68.5195 0.0000 0.0000 0.0000
# 4 0.0000 0.0000 0.0000 -11.1095 0.0000 0.0000
# 5 0.0000 0.0000 0.0000 0.0000 46.0998 0.0000
# 6 0.0000 0.0000 0.0000 0.0000 0.0000 14.8588
#
#
#
# Elastic Compliance Matrix: (Units=1/GPa)
#
#
# Indices 1 2 3 4 5 6 
#
# 1 0.006224 -0.000035 -0.003322 0.000000 0.000000 0.000000
# 2 -0.000035 0.006905 -0.001607 0.000000 0.000000 0.000000
# 3 -0.003322 -0.001607 0.016750 0.000000 0.000000 0.000000
# 4 0.000000 0.000000 0.000000 -0.090013 0.000000 0.000000
# 5 0.000000 0.000000 0.000000 0.000000 0.021692 0.000000
# 6 0.000000 0.000000 0.000000 0.000000 0.000000 0.067300
#
#
# Mechanical properties :
#
#
# Convention : Reuss Voigt Hill
#
# Bulk Modulus (GPa) = 50.12139 57.99044 54.05591
# Shear Modulus (GPa) = 110.04626 32.31665 71.18145
#
# Velocity S-wave (km/s) = 7.53770 4.08474 6.06226
# Velocity P-wave (km/s) = 10.08135 7.22408 8.76986
#
# Compressibility (1/GPa) = 0.01995156
#
# Stress axis : x y z
#
# Youngs Moduli (GPa) = 160.67059 144.82695 59.70128
#
# Poissons Ratio (x) = 0.00508 0.19833
# Poissons Ratio (y) = 0.00563 0.09591
# Poissons Ratio (z) = 0.53374 0.23267
#
# Static dielectric constant tensor:
#      x y z
#    x 1.672300 0.000000 0.000000 
#    y 0.000000 1.731430 0.000000 
#    z 0.000000 0.000000 1.650490 
# 
# From -- ./inp_files/36504.got.cif
#   From: 2010.05.17/outbox.cif.g08.bks.cpg/sg67_19_cif.got.tgz:36504.got - 2010.06.03 18:28:57.
