data_PCOD9504979
_publ_section_title
;
Structure prediction by ZEFSAII (Michael W. Deem and Ramdas Pophale) SiO2 
 PCOD9504979
Probable space group: C M M A
;
_chemical_formula_sum "Si O2"
_cell_formula_units_Z 72
_cell_length_a 16.276371
_cell_length_b 8.681746
_cell_length_c 24.902599
_cell_angle_alpha 90.000000
_cell_angle_beta 90.000000
_cell_angle_gamma 90.000000
_cell_volume 3518.919496
_symmetry_space_group_name_H-M "C M M A"
_symmetry_group_IT_number 67
_symmetry_cell_setting 'orthorhombic'
loop_
_space_group_symop_operation_xyz
x,y,z
-x,1/2-y,z
x,-y,-z
-x,1/2+y,-z
-x,-y,-z
x,1/2+y,-z
-x,y,z
x,1/2-y,z
1/2+x,1/2+y,z
1/2-x,-y,z
1/2+x,1/2-y,-z
1/2-x,y,-z
1/2-x,1/2-y,-z
1/2+x,y,-z
1/2-x,1/2+y,z
1/2+x,-y,z
loop_
_atom_site_type_symbol
_atom_site_label
_atom_site_fract_x
_atom_site_fract_y
_atom_site_fract_z
Si Si1 0.339298 0.435185 0.171436
Si Si2 0.661915 0.567353 0.618512
Si Si3 0.000000 0.434756 0.439877
Si Si4 0.095130 0.929023 0.723315
Si Si5 0.403951 0.934931 0.944285
O O1 0.341648 0.250000 0.173379
O O2 0.250000 0.500000 0.184342
O O3 0.397405 0.503966 0.217049
O O4 0.362173 0.485277 0.110984
O O5 0.661201 0.750000 0.611253
O O6 0.750000 0.500000 0.600875
O O7 0.583376 0.494266 0.588547
O O8 0.648471 0.524324 0.681094
O O9 0.000000 0.500000 0.500000
O O10 0.000000 0.250000 0.439130
O O11 0.120477 0.750000 0.722498
O O12 0.000000 0.937287 0.706341
O O13 0.500000 0.980642 0.941264
O O14 0.400209 0.750000 0.946630
O O15 0.369240 0.000000 0.000000
#
# Coordination Sequence:
#
# PCOD9504979 Si02
#       5
#    16  16   8  16  16
#     4  11  23  38  56  82 118 156 201 253 312 379
#     4  12  25  44  71 103 140 184 229 280 339 396
#     4  12  26  48  74 106 144 184 233 282 333 396
#     4  11  23  40  64  93 127 166 212 266 324 389
#     4   9  19  36  57  79 105 143 191 246 306 374
#
# _framework density 20.460826000000001
#
# number of rings (size 3 to 8) (size 9 to 14) (size 15 to 20)
#    0.000    1.111    1.111    5.667    0.000    4.889 
#    0.000    6.667    0.000    0.000    0.000    0.000 
#    0.000    0.000    0.000    0.000    0.000    0.000 
#
# Total GULP energy -201322.000171 kJ/mol
# GULP energy per Si atom -5592.277783 kJ/mol
# Density = 2.041426 g / cm^3
# Si number density = 20.460826 Si / 1000 Ang^3
#
#
#
# Elastic Constant Matrix: (Units=GPa)
#
#
# Indices 1 2 3 4 5 6 
#
# 1 113.0852 56.4183 43.7259 0.0000 0.0000 0.0000
# 2 56.4183 136.6314 42.3005 0.0000 0.0000 0.0000
# 3 43.7259 42.3005 116.3811 0.0000 0.0000 0.0000
# 4 0.0000 0.0000 0.0000 37.0072 0.0000 0.0000
# 5 0.0000 0.0000 0.0000 0.0000 25.6546 0.0000
# 6 0.0000 0.0000 0.0000 0.0000 0.0000 27.5337
#
#
#
# Elastic Compliance Matrix: (Units=1/GPa)
#
#
# Indices 1 2 3 4 5 6 
#
# 1 0.012032 -0.004021 -0.003059 0.000000 0.000000 0.000000
# 2 -0.004021 0.009591 -0.001975 0.000000 0.000000 0.000000
# 3 -0.003059 -0.001975 0.010460 0.000000 0.000000 0.000000
# 4 0.000000 0.000000 0.000000 0.027022 0.000000 0.000000
# 5 0.000000 0.000000 0.000000 0.000000 0.038979 0.000000
# 6 0.000000 0.000000 0.000000 0.000000 0.000000 0.036319
#
#
# Mechanical properties :
#
#
# Convention : Reuss Voigt Hill
#
# Bulk Modulus (GPa) = 71.57272 72.33191 71.95232
# Shear Modulus (GPa) = 31.81256 32.94929 32.38092
#
# Velocity S-wave (km/s) = 3.94738 4.01728 3.98248
# Velocity P-wave (km/s) = 7.47208 7.54627 7.50927
#
# Compressibility (1/GPa) = 0.01397180
#
# Stress axis : x y z
#
# Youngs Moduli (GPa) = 83.11275 104.26546 95.60553
#
# Poissons Ratio (x) = 0.41927 0.29245
# Poissons Ratio (y) = 0.33421 0.18884
# Poissons Ratio (z) = 0.25424 0.20594
#
# Static dielectric constant tensor:
#      x y z
#    x 1.686030 0.000000 0.000000 
#    y 0.000000 1.685640 0.000000 
#    z 0.000000 0.000000 1.731100 
# 
# From -- ./inp_files/42132.got.cif
#   From: 2010.05.17/outbox.cif.g08.bks.cpg/sg67_22_cif.got.tgz:42132.got - 2010.06.03 18:28:57.
