data_PCOD9504024
_publ_section_title
;
Structure prediction by ZEFSAII (Michael W. Deem and Ramdas Pophale) SiO2 
 PCOD9504024
Probable space group: C M M A
;
_chemical_formula_sum "Si O2"
_cell_formula_units_Z 64
_cell_length_a 25.005237
_cell_length_b 15.372868
_cell_length_c 8.707953
_cell_angle_alpha 90.000000
_cell_angle_beta 90.000000
_cell_angle_gamma 90.000000
_cell_volume 3347.356358
_symmetry_space_group_name_H-M "C M M A"
_symmetry_group_IT_number 67
_symmetry_cell_setting 'orthorhombic'
loop_
_space_group_symop_operation_xyz
x,y,z
-x,1/2-y,z
x,-y,-z
-x,1/2+y,-z
-x,-y,-z
x,1/2+y,-z
-x,y,z
x,1/2-y,z
1/2+x,1/2+y,z
1/2-x,-y,z
1/2+x,1/2-y,-z
1/2-x,y,-z
1/2-x,1/2-y,-z
1/2+x,y,-z
1/2-x,1/2+y,z
1/2+x,-y,z
loop_
_atom_site_type_symbol
_atom_site_label
_atom_site_fract_x
_atom_site_fract_y
_atom_site_fract_z
Si Si1 0.500000 0.853707 0.412577
Si Si2 0.611730 0.593920 0.566263
Si Si3 0.809801 0.250000 0.564129
Si Si4 0.500000 0.098571 0.938110
Si Si5 0.388253 0.902518 0.935110
Si Si6 0.191067 0.250000 0.933986
O O1 0.500000 0.750000 0.391902
O O2 0.446618 0.881008 0.502153
O O3 0.500000 0.897537 0.245108
O O4 0.626157 0.500000 0.500000
O O5 0.655349 0.665776 0.518437
O O6 0.609155 0.592009 0.750849
O O7 0.750000 0.250000 0.500000
O O8 0.806760 0.250000 0.749043
O O9 0.444503 0.135135 0.002292
O O10 0.500000 0.000000 0.000000
O O11 0.341683 0.836095 0.980928
O O12 0.380545 0.000000 0.000000
O O13 0.250000 0.250000 0.000000
#
# Coordination Sequence:
#
# PCOD9504024 Si02
#       6
#     8  16   8   8  16   8
#     4  12  24  38  63  98 127 165 206 252 312 373
#     4  11  22  42  65  90 126 165 202 254 310 369
#     4  10  24  43  62  89 123 158 210 256 307 366
#     4  10  21  38  59  93 124 156 200 246 299 364
#     4  10  22  41  62  91 122 160 203 248 306 366
#     4  10  24  41  62  85 119 162 202 254 305 354
#
# _framework density 19.119567
#
# number of rings (size 3 to 8) (size 9 to 14) (size 15 to 20)
#    0.000    1.500    1.250    4.125    1.750    5.000 
#    0.000    5.000    0.000    0.000    0.000    0.000 
#    0.000    0.000    0.000    0.000    0.000    0.000 
#
# Total GULP energy -178859.902641 kJ/mol
# GULP energy per Si atom -5589.371958 kJ/mol
# Density = 1.907605 g / cm^3
# Si number density = 19.119567 Si / 1000 Ang^3
#
#
#
# Elastic Constant Matrix: (Units=GPa)
#
#
# Indices 1 2 3 4 5 6 
#
# 1 208.5987 99.9148 57.2379 0.0000 0.0000 0.0000
# 2 99.9148 157.4328 50.0071 0.0000 0.0000 0.0000
# 3 57.2379 50.0071 83.2150 0.0000 0.0000 0.0000
# 4 0.0000 0.0000 0.0000 23.0947 0.0000 0.0000
# 5 0.0000 0.0000 0.0000 0.0000 38.7940 0.0000
# 6 0.0000 0.0000 0.0000 0.0000 0.0000 23.2110
#
#
#
# Elastic Compliance Matrix: (Units=1/GPa)
#
#
# Indices 1 2 3 4 5 6 
#
# 1 0.007378 -0.003795 -0.002795 0.000000 0.000000 0.000000
# 2 -0.003795 0.009802 -0.003280 0.000000 0.000000 0.000000
# 3 -0.002795 -0.003280 0.015910 0.000000 0.000000 0.000000
# 4 0.000000 0.000000 0.000000 0.043300 0.000000 0.000000
# 5 0.000000 0.000000 0.000000 0.000000 0.025777 0.000000
# 6 0.000000 0.000000 0.000000 0.000000 0.000000 0.043083
#
#
# Mechanical properties :
#
#
# Convention : Reuss Voigt Hill
#
# Bulk Modulus (GPa) = 74.89750 95.95179 85.42465
# Shear Modulus (GPa) = 29.50864 33.15905 31.33385
#
# Velocity S-wave (km/s) = 3.93284 4.16901 4.05265
# Velocity P-wave (km/s) = 7.73830 8.57136 8.16546
#
# Compressibility (1/GPa) = 0.01335158
#
# Stress axis : x y z
#
# Youngs Moduli (GPa) = 135.52955 102.01567 62.85175
#
# Poissons Ratio (x) = 0.38716 0.17564
# Poissons Ratio (y) = 0.51435 0.20617
# Poissons Ratio (z) = 0.37874 0.33464
#
# Static dielectric constant tensor:
#      x y z
#    x 1.646670 0.000000 0.000000 
#    y 0.000000 1.667940 0.000000 
#    z 0.000000 0.000000 1.644150 
# 
# From -- ./inp_files/8073.got.cif
#   From: 2010.05.17/outbox.cif.g08.bks.cpg/sg67_5_cif.got.tgz:8073.got - 2010.06.03 18:28:57.
