data_PCOD9504627
_publ_section_title
;
Structure prediction by ZEFSAII (Michael W. Deem and Ramdas Pophale) SiO2 
 PCOD9504627
Probable space group: C M M A
;
_chemical_formula_sum "Si O2"
_cell_formula_units_Z 60
_cell_length_a 12.159162
_cell_length_b 19.775579
_cell_length_c 13.652007
_cell_angle_alpha 90.000000
_cell_angle_beta 90.000000
_cell_angle_gamma 90.000000
_cell_volume 3282.686090
_symmetry_space_group_name_H-M "C M M A"
_symmetry_group_IT_number 67
_symmetry_cell_setting 'orthorhombic'
loop_
_space_group_symop_operation_xyz
x,y,z
-x,1/2-y,z
x,-y,-z
-x,1/2+y,-z
-x,-y,-z
x,1/2+y,-z
-x,y,z
x,1/2-y,z
1/2+x,1/2+y,z
1/2-x,-y,z
1/2+x,1/2-y,-z
1/2-x,y,-z
1/2-x,1/2-y,-z
1/2+x,y,-z
1/2-x,1/2+y,z
1/2+x,-y,z
loop_
_atom_site_type_symbol
_atom_site_label
_atom_site_fract_x
_atom_site_fract_y
_atom_site_fract_z
Si Si1 0.000000 0.397720 0.714834
Si Si2 0.375332 0.629046 0.212170
Si Si3 0.500000 0.250000 0.198340
Si Si4 0.000000 0.487799 0.117072
Si Si5 0.231100 0.079989 0.609879
Si Si6 0.258659 0.250000 0.114945
O O1 0.000000 0.319323 0.742285
O O2 0.891077 0.410581 0.651659
O O3 0.000000 0.446001 0.812422
O O4 0.500000 0.655229 0.227200
O O5 0.396891 0.560040 0.149745
O O6 0.316905 0.611400 0.313647
O O7 0.301333 0.683926 0.157973
O O8 0.387029 0.250000 0.139231
O O9 0.000000 0.500000 0.000000
O O10 0.250000 0.106709 0.500000
O O11 0.250000 0.000000 0.607533
O O12 0.250000 0.250000 0.000000
#
# Coordination Sequence:
#
# PCOD9504627 Si02
#       6
#     8  16   4   8  16   8
#     4  12  24  46  63 101 140 169 228 281 335 402
#     4  10  23  44  65  99 135 172 226 273 327 398
#     4  12  28  42  68  92 142 174 216 282 338 394
#     4  10  24  40  72  96 137 176 225 279 334 392
#     4  11  23  41  71 101 132 178 221 282 344 396
#     4  12  27  44  69  96 139 186 227 269 341 405
#
# _framework density 18.277715000000001
#
# number of rings (size 3 to 8) (size 9 to 14) (size 15 to 20)
#    0.800    0.267    5.333    0.400    7.467    1.067 
#    0.000    4.000    0.000    0.000    0.000    0.000 
#    0.000    0.000    0.000    0.000    0.000    0.000 
#
# Total GULP energy -167354.586183 kJ/mol
# GULP energy per Si atom -5578.486206 kJ/mol
# Density = 1.823611 g / cm^3
# Si number density = 18.277715 Si / 1000 Ang^3
#
#
#
# Elastic Constant Matrix: (Units=GPa)
#
#
# Indices 1 2 3 4 5 6 
#
# 1 175.2402 48.7272 89.3828 0.0000 0.0000 0.0000
# 2 48.7272 123.2538 75.7376 0.0000 0.0000 0.0000
# 3 89.3828 75.7376 205.7177 0.0000 0.0000 0.0000
# 4 0.0000 0.0000 0.0000 -17.4640 0.0000 0.0000
# 5 0.0000 0.0000 0.0000 0.0000 31.2971 0.0000
# 6 0.0000 0.0000 0.0000 0.0000 0.0000 49.6336
#
#
#
# Elastic Compliance Matrix: (Units=1/GPa)
#
#
# Indices 1 2 3 4 5 6 
#
# 1 0.007475 -0.001240 -0.002791 0.000000 0.000000 0.000000
# 2 -0.001240 0.010691 -0.003397 0.000000 0.000000 0.000000
# 3 -0.002791 -0.003397 0.007325 0.000000 0.000000 0.000000
# 4 0.000000 0.000000 0.000000 -0.057261 0.000000 0.000000
# 5 0.000000 0.000000 0.000000 0.000000 0.031952 0.000000
# 6 0.000000 0.000000 0.000000 0.000000 0.000000 0.020148
#
#
# Mechanical properties :
#
#
# Convention : Reuss Voigt Hill
#
# Bulk Modulus (GPa) = 94.04205 103.54521 98.79363
# Shear Modulus (GPa) = 129.09438 32.05094 80.57266
#
# Velocity S-wave (km/s) = 8.41325 4.19209 6.64667
# Velocity P-wave (km/s) = 12.08058 8.95575 10.63358
#
# Compressibility (1/GPa) = 0.01063354
#
# Stress axis : x y z
#
# Youngs Moduli (GPa) = 133.77985 93.53535 136.52604
#
# Poissons Ratio (x) = 0.11598 0.38109
# Poissons Ratio (y) = 0.16588 0.46382
# Poissons Ratio (z) = 0.37342 0.31777
#
# Static dielectric constant tensor:
#      x y z
#    x 1.613040 0.000000 0.000000 
#    y 0.000000 1.621080 0.000000 
#    z 0.000000 0.000000 1.611820 
# 
# From -- ./inp_files/16392.got.cif
#   From: 2010.05.17/outbox.cif.g08.bks.cpg/sg67_9_cif.got.tgz:16392.got - 2010.06.03 18:28:57.
