data_PCOD9504977
_publ_section_title
;
Structure prediction by ZEFSAII (Michael W. Deem and Ramdas Pophale) SiO2 
 PCOD9504977
Probable space group: C M M A
;
_chemical_formula_sum "Si O2"
_cell_formula_units_Z 96
_cell_length_a 23.827352
_cell_length_b 28.962284
_cell_length_c 7.344963
_cell_angle_alpha 90.000000
_cell_angle_beta 90.000000
_cell_angle_gamma 90.000000
_cell_volume 5068.718830
_symmetry_space_group_name_H-M "C M M A"
_symmetry_group_IT_number 67
_symmetry_cell_setting 'orthorhombic'
loop_
_space_group_symop_operation_xyz
x,y,z
-x,1/2-y,z
x,-y,-z
-x,1/2+y,-z
-x,-y,-z
x,1/2+y,-z
-x,y,z
x,1/2-y,z
1/2+x,1/2+y,z
1/2-x,-y,z
1/2+x,1/2-y,-z
1/2-x,y,-z
1/2-x,1/2-y,-z
1/2+x,y,-z
1/2-x,1/2+y,z
1/2+x,-y,z
loop_
_atom_site_type_symbol
_atom_site_label
_atom_site_fract_x
_atom_site_fract_y
_atom_site_fract_z
Si Si1 0.608398 0.872713 0.862780
Si Si2 0.065530 0.196073 0.141022
Si Si3 0.324000 0.951812 0.291141
Si Si4 0.438527 0.551173 0.084117
Si Si5 0.933356 0.197810 0.572027
Si Si6 0.802063 0.440927 0.723440
O O1 0.594309 0.842447 0.687015
O O2 0.663272 0.902663 0.828062
O O3 0.606060 0.836249 0.026875
O O4 0.564196 0.912006 0.920785
O O5 0.072649 0.250000 0.095058
O O6 0.074001 0.191045 0.356491
O O7 0.000000 0.184362 0.100527
O O8 0.384378 0.938075 0.210339
O O9 0.263324 0.932325 0.234020
O O10 0.319378 0.941682 0.508224
O O11 0.317589 0.005894 0.235074
O O12 0.500000 0.554820 0.175644
O O13 0.433704 0.500000 0.000000
O O14 0.913625 0.250000 0.618072
O O15 0.000000 0.196878 0.608991
#
# Coordination Sequence:
#
# PCOD9504977 Si02
#       6
#    16  16  16  16  16  16
#     4  12  21  33  55  94 120 154 205 251 298 355
#     4   9  19  36  57  84 123 166 203 249 308 370
#     4   9  19  43  59  79 116 159 212 255 298 352
#     4  11  23  37  53  84 129 162 192 244 311 372
#     4   9  19  36  57  82 120 167 206 247 305 368
#     4   9  20  37  65  83 108 159 213 262 294 344
#
# _framework density 18.939698
#
# number of rings (size 3 to 8) (size 9 to 14) (size 15 to 20)
#    0.000    2.167    1.667    4.000    2.333    2.000 
#    0.000    3.333    0.000    0.000    0.000   18.667 
#    0.000    0.000    0.000    0.000    0.000    0.000 
#
# Total GULP energy -267493.779991 kJ/mol
# GULP energy per Si atom -5572.787083 kJ/mol
# Density = 1.889659 g / cm^3
# Si number density = 18.939698 Si / 1000 Ang^3
#
#
#
# Elastic Constant Matrix: (Units=GPa)
#
#
# Indices 1 2 3 4 5 6 
#
# 1 160.6794 50.9063 58.7206 0.0000 0.0000 0.0000
# 2 50.9063 108.2414 47.8436 0.0000 0.0000 0.0000
# 3 58.7206 47.8436 67.4818 0.0000 0.0000 0.0000
# 4 0.0000 0.0000 0.0000 47.5517 0.0000 0.0000
# 5 0.0000 0.0000 0.0000 0.0000 26.8428 0.0000
# 6 0.0000 0.0000 0.0000 0.0000 0.0000 35.0954
#
#
#
# Elastic Compliance Matrix: (Units=1/GPa)
#
#
# Indices 1 2 3 4 5 6 
#
# 1 0.009223 -0.001151 -0.007210 0.000000 0.000000 0.000000
# 2 -0.001151 0.013599 -0.008640 0.000000 0.000000 0.000000
# 3 -0.007210 -0.008640 0.027218 0.000000 0.000000 0.000000
# 4 0.000000 0.000000 0.000000 0.021030 0.000000 0.000000
# 5 0.000000 0.000000 0.000000 0.000000 0.037254 0.000000
# 6 0.000000 0.000000 0.000000 0.000000 0.000000 0.028494
#
#
# Mechanical properties :
#
#
# Convention : Reuss Voigt Hill
#
# Bulk Modulus (GPa) = 62.34808 72.37150 67.35979
# Shear Modulus (GPa) = 28.38266 33.82679 31.10473
#
# Velocity S-wave (km/s) = 3.87535 4.23072 4.05693
# Velocity P-wave (km/s) = 7.28115 7.88415 7.58864
#
# Compressibility (1/GPa) = 0.01603899
#
# Stress axis : x y z
#
# Youngs Moduli (GPa) = 108.42526 73.53606 36.74057
#
# Poissons Ratio (x) = 0.08463 0.26488
# Poissons Ratio (y) = 0.12479 0.31743
# Poissons Ratio (z) = 0.78170 0.63534
#
# Static dielectric constant tensor:
#      x y z
#    x 1.662420 0.000000 0.000000 
#    y 0.000000 1.156570 0.000000 
#    z 0.000000 0.000000 1.717510 
# 
# From -- ./inp_files/11466.got.cif
#   From: 2010.05.17/outbox.cif.g08.bks.cpg/sg67_6_cif.got.tgz:11466.got - 2010.06.03 18:28:57.
