data_PCOD9504042
_publ_section_title
;
Structure prediction by ZEFSAII (Michael W. Deem and Ramdas Pophale) SiO2 
 PCOD9504042
Probable space group: C M M A
;
_chemical_formula_sum "Si O2"
_cell_formula_units_Z 80
_cell_length_a 18.960530
_cell_length_b 8.756801
_cell_length_c 26.147268
_cell_angle_alpha 90.000000
_cell_angle_beta 90.000000
_cell_angle_gamma 90.000000
_cell_volume 4341.324724
_symmetry_space_group_name_H-M "C M M A"
_symmetry_group_IT_number 67
_symmetry_cell_setting 'orthorhombic'
loop_
_space_group_symop_operation_xyz
x,y,z
-x,1/2-y,z
x,-y,-z
-x,1/2+y,-z
-x,-y,-z
x,1/2+y,-z
-x,y,z
x,1/2-y,z
1/2+x,1/2+y,z
1/2-x,-y,z
1/2+x,1/2-y,-z
1/2-x,y,-z
1/2-x,1/2-y,-z
1/2+x,y,-z
1/2-x,1/2+y,z
1/2+x,-y,z
loop_
_atom_site_type_symbol
_atom_site_label
_atom_site_fract_x
_atom_site_fract_y
_atom_site_fract_z
Si Si1 0.171481 0.932443 0.053872
Si Si2 0.083398 0.432539 0.742750
Si Si3 0.416938 0.067591 0.444106
Si Si4 0.671567 0.067616 0.649138
Si Si5 0.084266 0.930145 0.853348
O O1 0.174831 0.750000 0.050792
O O2 0.250000 0.000000 0.060722
O O3 0.124181 0.986244 0.100970
O O4 0.144370 0.000000 0.000000
O O5 0.092840 0.250000 0.742070
O O6 0.129072 0.508377 0.698489
O O7 0.102757 0.498542 0.798327
O O8 0.000000 0.464326 0.734371
O O9 0.500000 0.037631 0.433675
O O10 0.406730 0.250000 0.444178
O O11 0.400916 0.000000 0.500000
O O12 0.369587 0.991796 0.400792
O O13 0.674249 0.250000 0.649124
O O14 0.750000 0.000000 0.649694
O O15 0.100893 0.750000 0.853855
O O16 0.000000 0.947597 0.859703
#
# Coordination Sequence:
#
# PCOD9504042 Si02
#       5
#    16  16  16  16  16
#     4  11  22  38  59  83 114 151 192 235 284 341
#     4  10  21  39  62  87 116 150 189 234 285 341
#     4  10  21  39  63  90 119 152 192 236 283 338
#     4  12  25  40  59  85 118 154 194 238 287 340
#     4  10  21  38  60  87 117 149 189 236 285 337
#
# _framework density 18.427555000000002
#
# number of rings (size 3 to 8) (size 9 to 14) (size 15 to 20)
#    0.000    1.400    0.000    6.600    0.000    7.600 
#    0.000    6.000    0.000    0.000    0.000    0.000 
#    0.000    0.000    0.000    0.000    0.000    0.000 
#
# Total GULP energy -223701.942607 kJ/mol
# GULP energy per Si atom -5592.548565 kJ/mol
# Density = 1.838561 g / cm^3
# Si number density = 18.427555 Si / 1000 Ang^3
#
#
#
# Elastic Constant Matrix: (Units=GPa)
#
#
# Indices 1 2 3 4 5 6 
#
# 1 86.1930 87.2999 110.9325 0.0000 0.0000 0.0000
# 2 87.2999 174.7991 114.6679 0.0000 0.0000 0.0000
# 3 110.9325 114.6679 201.3928 0.0000 0.0000 0.0000
# 4 0.0000 0.0000 0.0000 42.1203 0.0000 0.0000
# 5 0.0000 0.0000 0.0000 0.0000 124.1609 0.0000
# 6 0.0000 0.0000 0.0000 0.0000 0.0000 31.5745
#
#
#
# Elastic Compliance Matrix: (Units=1/GPa)
#
#
# Indices 1 2 3 4 5 6 
#
# 1 0.050587 -0.011150 -0.021516 0.000000 0.000000 0.000000
# 2 -0.011150 0.011589 -0.000457 0.000000 0.000000 0.000000
# 3 -0.021516 -0.000457 0.017077 0.000000 0.000000 0.000000
# 4 0.000000 0.000000 0.000000 0.023742 0.000000 0.000000
# 5 0.000000 0.000000 0.000000 0.000000 0.008054 0.000000
# 6 0.000000 0.000000 0.000000 0.000000 0.000000 0.031671
#
#
# Mechanical properties :
#
#
# Convention : Reuss Voigt Hill
#
# Bulk Modulus (GPa) = 76.88003 120.90950 98.89477
# Shear Modulus (GPa) = 23.44103 49.53675 36.48889
#
# Velocity S-wave (km/s) = 3.57047 5.19040 4.45469
# Velocity P-wave (km/s) = 7.66866 10.08346 8.95781
#
# Compressibility (1/GPa) = 0.01300728
#
# Stress axis : x y z
#
# Youngs Moduli (GPa) = 19.76806 86.28695 58.55806
#
# Poissons Ratio (x) = 0.96211 1.25993
# Poissons Ratio (y) = 0.22042 0.02675
# Poissons Ratio (z) = 0.42533 0.03942
#
# Static dielectric constant tensor:
#      x y z
#    x 1.611580 0.000000 0.000000 
#    y 0.000000 1.611400 0.000000 
#    z 0.000000 0.000000 1.602560 
# 
# From -- ./inp_files/43343.got.cif
#   From: 2010.05.17/outbox.cif.g08.bks.cpg/sg67_22_cif.got.tgz:43343.got - 2010.06.03 18:28:57.
