data_PCOD9504162
_publ_section_title
;
Structure prediction by ZEFSAII (Michael W. Deem and Ramdas Pophale) SiO2 
 PCOD9504162
Probable space group: C M M A
;
_chemical_formula_sum "Si O2"
_cell_formula_units_Z 112
_cell_length_a 29.150315
_cell_length_b 14.814152
_cell_length_c 11.767388
_cell_angle_alpha 90.000000
_cell_angle_beta 90.000000
_cell_angle_gamma 90.000000
_cell_volume 5081.595853
_symmetry_space_group_name_H-M "C M M A"
_symmetry_group_IT_number 67
_symmetry_cell_setting 'orthorhombic'
loop_
_space_group_symop_operation_xyz
x,y,z
-x,1/2-y,z
x,-y,-z
-x,1/2+y,-z
-x,-y,-z
x,1/2+y,-z
-x,y,z
x,1/2-y,z
1/2+x,1/2+y,z
1/2-x,-y,z
1/2+x,1/2-y,-z
1/2-x,y,-z
1/2-x,1/2-y,-z
1/2+x,y,-z
1/2-x,1/2+y,z
1/2+x,-y,z
loop_
_atom_site_type_symbol
_atom_site_label
_atom_site_fract_x
_atom_site_fract_y
_atom_site_fract_z
Si Si1 0.947269 0.478485 0.736486
Si Si2 0.114053 0.357310 0.311698
Si Si3 0.193251 0.142787 0.747245
Si Si4 0.206617 0.855166 0.803487
Si Si5 0.850455 0.393910 0.986333
Si Si6 0.550677 0.647715 0.955934
Si Si7 0.882897 0.857074 0.417529
O O1 0.924202 0.576402 0.737454
O O2 0.945261 0.427211 0.857629
O O3 0.920459 0.416280 0.646750
O O4 0.000000 0.486127 0.703708
O O5 0.108179 0.250000 0.285453
O O6 0.162865 0.392261 0.263824
O O7 0.114615 0.366959 0.447770
O O8 0.198768 0.250000 0.735616
O O9 0.243729 0.105170 0.774894
O O10 0.160943 0.128228 0.856435
O O11 0.165994 0.112972 0.635587
O O12 0.208182 0.750000 0.771853
O O13 0.190881 0.860115 0.934370
O O14 0.900720 0.357637 0.020528
O O15 0.851809 0.500000 0.000000
O O16 0.500000 0.634446 0.011985
O O17 0.549693 0.750000 0.907931
O O18 0.889064 0.750000 0.391614
#
# Coordination Sequence:
#
# PCOD9504162 Si02
#       7
#    16  16  16  16  16  16  16
#     4  11  22  39  64  94 124 159 209 265 318 370
#     4  10  23  42  60  88 129 169 209 254 313 383
#     4  10  21  39  63  90 118 159 214 263 309 364
#     4  10  22  39  60  86 122 165 205 250 312 380
#     4  12  23  37  59  90 128 161 202 259 313 376
#     4  10  21  39  66  96 125 164 217 270 317 370
#     4  10  21  39  65  93 124 162 208 264 316 367
#
# _framework density 22.040320999999999
#
# number of rings (size 3 to 8) (size 9 to 14) (size 15 to 20)
#    0.000    1.571    1.429    3.429    0.000    5.429 
#    0.000    5.000    0.000    2.571    0.000    0.000 
#    0.000    0.000    0.000    0.000    0.000    0.000 
#
# Total GULP energy -312967.685077 kJ/mol
# GULP energy per Si atom -5588.708662 kJ/mol
# Density = 2.199016 g / cm^3
# Si number density = 22.040321 Si / 1000 Ang^3
#
#
#
# Elastic Constant Matrix: (Units=GPa)
#
#
# Indices 1 2 3 4 5 6 
#
# 1 160.5890 41.8675 8.3013 0.0000 0.0000 0.0000
# 2 41.8675 84.9881 16.8994 0.0000 0.0000 0.0000
# 3 8.3013 16.8994 40.7105 0.0000 0.0000 0.0000
# 4 0.0000 0.0000 0.0000 -2.7259 0.0000 0.0000
# 5 0.0000 0.0000 0.0000 0.0000 17.1389 0.0000
# 6 0.0000 0.0000 0.0000 0.0000 0.0000 -29.7257
#
#
#
# Elastic Compliance Matrix: (Units=1/GPa)
#
#
# Indices 1 2 3 4 5 6 
#
# 1 0.007145 -0.003521 0.000005 0.000000 0.000000 0.000000
# 2 -0.003521 0.014560 -0.005326 0.000000 0.000000 0.000000
# 3 0.000005 -0.005326 0.026774 0.000000 0.000000 0.000000
# 4 0.000000 0.000000 0.000000 -0.366851 0.000000 0.000000
# 5 0.000000 0.000000 0.000000 0.000000 0.058347 0.000000
# 6 0.000000 0.000000 0.000000 0.000000 0.000000 -0.033641
#
#
# Mechanical properties :
#
#
# Convention : Reuss Voigt Hill
#
# Bulk Modulus (GPa) = 32.47391 46.71379 39.59385
# Shear Modulus (GPa) = -18.81692 11.55210 -3.63241
#
# Velocity S-wave (km/s) = -2.92507 2.29188 -1.28517
# Velocity P-wave (km/s) = 1.83243 5.31454 3.97506
#
# Compressibility (1/GPa) = 0.03079395
#
# Stress axis : x y z
#
# Youngs Moduli (GPa) = 139.96385 68.68257 37.35020
#
# Poissons Ratio (x) = 0.24180 -0.00017
# Poissons Ratio (y) = 0.49275 0.19893
# Poissons Ratio (z) = -0.00064 0.36581
#
# Static dielectric constant tensor:
#      x y z
#    x 1.838570 0.000000 0.000000 
#    y 0.000000 1.815330 0.000000 
#    z 0.000000 0.000000 1.814110 
# 
# From -- ./inp_files/23798.got.cif
#   From: 2010.05.17/outbox.cif.g08.bks.cpg/sg67_12_cif.got.tgz:23798.got - 2010.06.03 18:28:57.
