data_PCOD9504125
_publ_section_title
;
Structure prediction by ZEFSAII (Michael W. Deem and Ramdas Pophale) SiO2 
 PCOD9504125
Probable space group: C M M A
;
_chemical_formula_sum "Si O2"
_cell_formula_units_Z 96
_cell_length_a 17.625765
_cell_length_b 20.480143
_cell_length_c 11.313882
_cell_angle_alpha 90.000000
_cell_angle_beta 90.000000
_cell_angle_gamma 90.000000
_cell_volume 4084.064620
_symmetry_space_group_name_H-M "C M M A"
_symmetry_group_IT_number 67
_symmetry_cell_setting 'orthorhombic'
loop_
_space_group_symop_operation_xyz
x,y,z
-x,1/2-y,z
x,-y,-z
-x,1/2+y,-z
-x,-y,-z
x,1/2+y,-z
-x,y,z
x,1/2-y,z
1/2+x,1/2+y,z
1/2-x,-y,z
1/2+x,1/2-y,-z
1/2-x,y,-z
1/2-x,1/2-y,-z
1/2+x,y,-z
1/2-x,1/2+y,z
1/2+x,-y,z
loop_
_atom_site_type_symbol
_atom_site_label
_atom_site_fract_x
_atom_site_fract_y
_atom_site_fract_z
Si Si1 0.338059 0.871435 0.536287
Si Si2 0.910593 0.359926 0.298171
Si Si3 0.696646 0.865323 0.102821
Si Si4 0.668398 0.822511 0.786168
Si Si5 0.585356 0.414644 0.069981
Si Si6 0.911262 0.486811 0.679759
O O1 0.250000 0.874667 0.500000
O O2 0.381649 0.839374 0.426110
O O3 0.353797 0.828058 0.651223
O O4 0.367233 0.942057 0.585118
O O5 0.866439 0.332045 0.184722
O O6 0.890416 0.437578 0.306533
O O7 0.000000 0.352207 0.284605
O O8 0.764489 0.876215 0.195669
O O9 0.750000 0.833975 0.000000
O O10 0.649242 0.920042 0.031166
O O11 0.697342 0.750000 0.807637
O O12 0.601889 0.842657 0.875754
O O13 0.500000 0.421984 0.022938
O O14 0.593989 0.457649 0.187397
O O15 0.000000 0.483608 0.645933
#
# Coordination Sequence:
#
# PCOD9504125 Si02
#       6
#    16  16  16  16  16  16
#     4  11  21  38  57  88 114 151 194 247 292 348
#     4  11  22  38  60  87 121 160 194 234 294 351
#     4  10  21  39  58  85 118 155 198 241 289 343
#     4  10  22  41  62  83 114 154 195 243 305 359
#     4   9  19  37  60  87 117 150 195 243 285 344
#     4   9  20  37  58  85 120 159 193 231 289 357
#
# _framework density 23.505994000000001
#
# number of rings (size 3 to 8) (size 9 to 14) (size 15 to 20)
#    0.000    2.000    1.667    1.500    0.000    7.667 
#    0.000    6.667    0.000    2.500    0.000    0.000 
#    0.000    0.000    0.000    0.000    0.000    0.000 
#
# Total GULP energy -267431.118032 kJ/mol
# GULP energy per Si atom -5571.481626 kJ/mol
# Density = 2.345249 g / cm^3
# Si number density = 23.505994 Si / 1000 Ang^3
#
#
#
# Elastic Constant Matrix: (Units=GPa)
#
#
# Indices 1 2 3 4 5 6 
#
# 1 106.5226 28.5813 41.1784 0.0000 0.0000 0.0000
# 2 28.5813 48.6744 10.9861 0.0000 0.0000 0.0000
# 3 41.1784 10.9861 140.9098 0.0000 0.0000 0.0000
# 4 0.0000 0.0000 0.0000 10.2383 0.0000 0.0000
# 5 0.0000 0.0000 0.0000 0.0000 43.2211 0.0000
# 6 0.0000 0.0000 0.0000 0.0000 0.0000 5.2277
#
#
#
# Elastic Compliance Matrix: (Units=1/GPa)
#
#
# Indices 1 2 3 4 5 6 
#
# 1 0.012341 -0.006548 -0.003096 0.000000 0.000000 0.000000
# 2 -0.006548 0.024387 0.000012 0.000000 0.000000 0.000000
# 3 -0.003096 0.000012 0.008001 0.000000 0.000000 0.000000
# 4 0.000000 0.000000 0.000000 0.097673 0.000000 0.000000
# 5 0.000000 0.000000 0.000000 0.000000 0.023137 0.000000
# 6 0.000000 0.000000 0.000000 0.000000 0.000000 0.191287
#
#
# Mechanical properties :
#
#
# Convention : Reuss Voigt Hill
#
# Bulk Modulus (GPa) = 39.26933 50.84427 45.05680
# Shear Modulus (GPa) = 13.00127 26.09481 19.54804
#
# Velocity S-wave (km/s) = 2.35437 3.33548 2.88691
# Velocity P-wave (km/s) = 4.91254 6.04245 5.50656
#
# Compressibility (1/GPa) = 0.02546517
#
# Stress axis : x y z
#
# Youngs Moduli (GPa) = 81.02785 41.00562 124.99135
#
# Poissons Ratio (x) = 0.26851 0.38698
# Poissons Ratio (y) = 0.53057 -0.00153
# Poissons Ratio (z) = 0.25087 -0.00050
#
# Static dielectric constant tensor:
#      x y z
#    x 1.886200 0.000000 0.000000 
#    y 0.000000 1.903120 0.000000 
#    z 0.000000 0.000000 1.961180 
# 
# From -- ./inp_files/19625.got.cif
#   From: 2010.05.17/outbox.cif.g08.bks.cpg/sg67_10_cif.got.tgz:19625.got - 2010.06.03 18:28:57.
