data_PCOD9504774
_publ_section_title
;
Structure prediction by ZEFSAII (Michael W. Deem and Ramdas Pophale) SiO2 
 PCOD9504774
Probable space group: C M M A
;
_chemical_formula_sum "Si O2"
_cell_formula_units_Z 64
_cell_length_a 18.703752
_cell_length_b 21.460600
_cell_length_c 8.785164
_cell_angle_alpha 90.000000
_cell_angle_beta 90.000000
_cell_angle_gamma 90.000000
_cell_volume 3526.309836
_symmetry_space_group_name_H-M "C M M A"
_symmetry_group_IT_number 67
_symmetry_cell_setting 'orthorhombic'
loop_
_space_group_symop_operation_xyz
x,y,z
-x,1/2-y,z
x,-y,-z
-x,1/2+y,-z
-x,-y,-z
x,1/2+y,-z
-x,y,z
x,1/2-y,z
1/2+x,1/2+y,z
1/2-x,-y,z
1/2+x,1/2-y,-z
1/2-x,y,-z
1/2-x,1/2-y,-z
1/2+x,y,-z
1/2-x,1/2+y,z
1/2+x,-y,z
loop_
_atom_site_type_symbol
_atom_site_label
_atom_site_fract_x
_atom_site_fract_y
_atom_site_fract_z
Si Si1 0.281367 0.602711 0.170353
Si Si2 0.923428 0.019792 0.174205
Si Si3 0.327608 0.182291 0.578791
Si Si4 0.153202 0.439415 0.605505
O O1 0.351026 0.559416 0.179462
O O2 0.309601 0.666415 0.246067
O O3 0.220265 0.576557 0.284533
O O4 0.250000 0.606010 0.000000
O O5 0.000000 0.049989 0.215910
O O6 0.910234 0.961058 0.284119
O O7 0.927764 0.000000 0.000000
O O8 0.362941 0.250000 0.560835
O O9 0.250000 0.185854 0.500000
O O10 0.361895 0.121566 0.497533
O O11 0.167015 0.500000 0.500000
#
# Coordination Sequence:
#
# PCOD9504774 Si02
#       4
#    16  16  16  16
#     4  11  21  34  59  81 111 149 192 230 283 334
#     4  11  23  35  52  85 119 144 182 236 285 333
#     4   9  20  35  54  84 117 142 182 238 279 328
#     4  11  21  34  59  85 112 148 187 232 283 332
#
# _framework density 18.149284999999999
#
# number of rings (size 3 to 8) (size 9 to 14) (size 15 to 20)
#    0.000    1.500    5.000    0.750    7.000    1.000 
#    0.000    0.000    0.000    3.000    0.000    3.500 
#    0.000    0.000    0.000    0.000    0.000    0.000 
#
# Total GULP energy -178154.464694 kJ/mol
# GULP energy per Si atom -5567.327022 kJ/mol
# Density = 1.810798 g / cm^3
# Si number density = 18.149285 Si / 1000 Ang^3
#
#
#
# Elastic Constant Matrix: (Units=GPa)
#
#
# Indices 1 2 3 4 5 6 
#
# 1 75.2849 17.1708 31.9962 0.0000 0.0000 0.0000
# 2 17.1708 128.4849 62.8213 0.0000 0.0000 0.0000
# 3 31.9962 62.8213 135.1750 0.0000 0.0000 0.0000
# 4 0.0000 0.0000 0.0000 12.6391 0.0000 0.0000
# 5 0.0000 0.0000 0.0000 0.0000 -48.1097 0.0000
# 6 0.0000 0.0000 0.0000 0.0000 0.0000 7.8189
#
#
#
# Elastic Compliance Matrix: (Units=1/GPa)
#
#
# Indices 1 2 3 4 5 6 
#
# 1 0.014780 -0.000343 -0.003339 0.000000 0.000000 0.000000
# 2 -0.000343 0.010080 -0.004603 0.000000 0.000000 0.000000
# 3 -0.003339 -0.004603 0.010328 0.000000 0.000000 0.000000
# 4 0.000000 0.000000 0.000000 0.079119 0.000000 0.000000
# 5 0.000000 0.000000 0.000000 0.000000 -0.020786 0.000000
# 6 0.000000 0.000000 0.000000 0.000000 0.000000 0.127895
#
#
# Mechanical properties :
#
#
# Convention : Reuss Voigt Hill
#
# Bulk Modulus (GPa) = 53.71419 62.54682 58.13051
# Shear Modulus (GPa) = 20.47570 9.60010 15.03790
#
# Velocity S-wave (km/s) = 3.36249 2.30239 2.88161
# Velocity P-wave (km/s) = 6.68843 6.45021 6.57040
#
# Compressibility (1/GPa) = 0.01861705
#
# Stress axis : x y z
#
# Youngs Moduli (GPa) = 67.65806 99.21110 96.82816
#
# Poissons Ratio (x) = 0.03398 0.32334
# Poissons Ratio (y) = 0.02317 0.44573
# Poissons Ratio (z) = 0.22593 0.45670
#
# Static dielectric constant tensor:
#      x y z
#    x 1.634070 0.000000 0.000000 
#    y 0.000000 1.694720 0.000000 
#    z 0.000000 0.000000 1.658860 
# 
# From -- ./inp_files/9335.got.cif
#   From: 2010.05.17/outbox.cif.g08.bks.cpg/sg67_5_cif.got.tgz:9335.got - 2010.06.03 18:28:57.
