data_PCOD9504787
_publ_section_title
;
Structure prediction by ZEFSAII (Michael W. Deem and Ramdas Pophale) SiO2 
 PCOD9504787
Probable space group: C M M A
;
_chemical_formula_sum "Si O2"
_cell_formula_units_Z 104
_cell_length_a 8.933679
_cell_length_b 25.703494
_cell_length_c 31.166050
_cell_angle_alpha 90.000000
_cell_angle_beta 90.000000
_cell_angle_gamma 90.000000
_cell_volume 7156.559226
_symmetry_space_group_name_H-M "C M M A"
_symmetry_group_IT_number 67
_symmetry_cell_setting 'orthorhombic'
loop_
_space_group_symop_operation_xyz
x,y,z
-x,1/2-y,z
x,-y,-z
-x,1/2+y,-z
-x,-y,-z
x,1/2+y,-z
-x,y,z
x,1/2-y,z
1/2+x,1/2+y,z
1/2-x,-y,z
1/2+x,1/2-y,-z
1/2-x,y,-z
1/2-x,1/2-y,-z
1/2+x,y,-z
1/2-x,1/2+y,z
1/2+x,-y,z
loop_
_atom_site_type_symbol
_atom_site_label
_atom_site_fract_x
_atom_site_fract_y
_atom_site_fract_z
Si Si1 0.172936 0.313362 0.867903
Si Si2 0.318264 0.250000 0.547787
Si Si3 0.678704 0.689393 0.691792
Si Si4 0.318593 0.943396 0.453239
Si Si5 0.181242 0.151160 0.597636
Si Si6 0.826371 0.813221 0.779936
Si Si7 0.327245 0.686631 0.044027
O O1 0.181416 0.250000 0.867835
O O2 0.248612 0.331275 0.823748
O O3 0.250558 0.330897 0.911874
O O4 0.000000 0.327823 0.868283
O O5 0.500000 0.250000 0.546883
O O6 0.250000 0.250000 0.500000
O O7 0.254168 0.199537 0.572321
O O8 0.500000 0.689015 0.697817
O O9 0.724047 0.750000 0.685415
O O10 0.712596 0.659204 0.648117
O O11 0.753180 0.669232 0.735360
O O12 0.500000 0.944807 0.454933
O O13 0.250000 0.929712 0.500000
O O14 0.256688 0.900702 0.420519
O O15 0.250000 0.000000 0.442831
O O16 0.000000 0.151075 0.591599
O O17 0.813589 0.750000 0.779714
O O18 0.000000 0.826613 0.780932
O O19 0.500000 0.671860 0.043932
O O20 0.319766 0.750000 0.044029
O O21 0.250000 0.669131 0.000000
#
# Coordination Sequence:
#
# PCOD9504787 Si02
#       7
#    16   8  16  16  16  16  16
#     4   9  15  22  31  42  57  80 111 146 186 234
#     4  12  24  36  50  70  96 124 152 180 213 258
#     4   9  17  30  45  61  83 112 139 166 204 250
#     4  11  22  38  57  77  96 120 149 182 217 256
#     4  11  21  36  53  72  96 122 149 181 218 260
#     4   9  16  24  35  51  70  93 122 158 194 234
#     4   9  15  21  28  38  53  73 100 138 185 235
#
# _framework density 14.532123
#
# number of rings (size 3 to 8) (size 9 to 14) (size 15 to 20)
#    0.000    2.154    0.769    4.846    0.000    6.769 
#    0.000    0.000    0.000    0.000    0.000    0.000 
#    0.000    0.000    0.000    0.000    0.000    0.000 
#
# Total GULP energy -289849.231308 kJ/mol
# GULP energy per Si atom -5574.023679 kJ/mol
# Density = 1.449905 g / cm^3
# Si number density = 14.532123 Si / 1000 Ang^3
#
#
#
# Elastic Constant Matrix: (Units=GPa)
#
#
# Indices 1 2 3 4 5 6 
#
# 1 122.4605 30.4677 98.0796 0.0000 0.0000 0.0000
# 2 30.4677 29.6123 43.8219 0.0000 0.0000 0.0000
# 3 98.0796 43.8219 174.3196 0.0000 0.0000 0.0000
# 4 0.0000 0.0000 0.0000 4.7798 0.0000 0.0000
# 5 0.0000 0.0000 0.0000 0.0000 30.2935 0.0000
# 6 0.0000 0.0000 0.0000 0.0000 0.0000 13.1297
#
#
#
# Elastic Compliance Matrix: (Units=1/GPa)
#
#
# Indices 1 2 3 4 5 6 
#
# 1 0.015276 -0.004774 -0.007395 0.000000 0.000000 0.000000
# 2 -0.004774 0.055267 -0.011207 0.000000 0.000000 0.000000
# 3 -0.007395 -0.011207 0.012715 0.000000 0.000000 0.000000
# 4 0.000000 0.000000 0.000000 0.209213 0.000000 0.000000
# 5 0.000000 0.000000 0.000000 0.000000 0.033010 0.000000
# 6 0.000000 0.000000 0.000000 0.000000 0.000000 0.076163
#
#
# Mechanical properties :
#
#
# Convention : Reuss Voigt Hill
#
# Bulk Modulus (GPa) = 27.39343 74.57008 50.98176
# Shear Modulus (GPa) = 10.85621 19.90881 15.38251
#
# Velocity S-wave (km/s) = 2.73618 3.70535 3.25702
# Velocity P-wave (km/s) = 5.37340 8.35054 7.02157
#
# Compressibility (1/GPa) = 0.03650511
#
# Stress axis : x y z
#
# Youngs Moduli (GPa) = 65.46047 18.09402 78.64912
#
# Poissons Ratio (x) = 0.08638 0.58161
# Poissons Ratio (y) = 0.31252 0.88144
# Poissons Ratio (z) = 0.48408 0.20278
#
# Static dielectric constant tensor:
#      x y z
#    x 1.487400 0.000000 0.000000 
#    y 0.000000 1.451250 0.000000 
#    z 0.000000 0.000000 1.493710 
# 
# From -- ./inp_files/45402.got.cif
#   From: 2010.05.17/outbox.cif.g08.bks.cpg/sg67_23_cif.got.tgz:45402.got - 2010.06.03 18:28:57.
