data_PCOD9504783
_publ_section_title
;
Structure prediction by ZEFSAII (Michael W. Deem and Ramdas Pophale) SiO2 
 PCOD9504783
Probable space group: C M M A
;
_chemical_formula_sum "Si O2"
_cell_formula_units_Z 96
_cell_length_a 20.895549
_cell_length_b 15.727855
_cell_length_c 13.406744
_cell_angle_alpha 90.000000
_cell_angle_beta 90.000000
_cell_angle_gamma 90.000000
_cell_volume 4406.021371
_symmetry_space_group_name_H-M "C M M A"
_symmetry_group_IT_number 67
_symmetry_cell_setting 'orthorhombic'
loop_
_space_group_symop_operation_xyz
x,y,z
-x,1/2-y,z
x,-y,-z
-x,1/2+y,-z
-x,-y,-z
x,1/2+y,-z
-x,y,z
x,1/2-y,z
1/2+x,1/2+y,z
1/2-x,-y,z
1/2+x,1/2-y,-z
1/2-x,y,-z
1/2-x,1/2-y,-z
1/2+x,y,-z
1/2-x,1/2+y,z
1/2+x,-y,z
loop_
_atom_site_type_symbol
_atom_site_label
_atom_site_fract_x
_atom_site_fract_y
_atom_site_fract_z
Si Si1 0.709981 0.750000 0.395885
Si Si2 0.500000 0.146279 0.026500
Si Si3 0.565043 0.750000 0.422039
Si Si4 0.586547 0.088690 0.442365
Si Si5 0.770058 0.147203 0.853440
Si Si6 0.717260 0.412879 0.347884
Si Si7 0.500000 0.645338 0.734434
Si Si8 0.141251 0.351628 0.047253
O O1 0.750000 0.750000 0.500000
O O2 0.634750 0.750000 0.378298
O O3 0.733498 0.663325 0.349553
O O4 0.500000 0.250000 0.023316
O O5 0.500000 0.125832 0.146753
O O6 0.567629 0.117879 0.973518
O O7 0.500000 0.750000 0.358452
O O8 0.564407 0.833390 0.490566
O O9 0.661602 0.099775 0.426421
O O10 0.557223 0.104431 0.332129
O O11 0.573367 0.000000 0.500000
O O12 0.771063 0.250000 0.836579
O O13 0.803481 0.093791 0.766415
O O14 0.816199 0.135077 0.948153
O O15 0.695544 0.119736 0.871696
O O16 0.750000 0.500000 0.370539
O O17 0.500000 0.750000 0.724904
O O18 0.135103 0.250000 0.063473
#
# Coordination Sequence:
#
# PCOD9504783 Si02
#       8
#     8   8   8  16  16  16   8  16
#     4  12  24  42  66  87 119 165 208 264 311 365
#     4   9  16  27  51  90 125 154 202 255 306 370
#     4  12  24  42  62  86 115 154 215 247 313 374
#     4  12  23  38  60  87 124 167 209 268 317 365
#     4   9  17  34  57  84 118 157 198 248 312 370
#     4  12  25  39  62  92 124 160 213 262 311 375
#     4  11  21  35  59  95 128 164 214 262 315 380
#     4   8  15  29  55  86 118 156 194 245 312 372
#
# _framework density 21.788364000000001
#
# number of rings (size 3 to 8) (size 9 to 14) (size 15 to 20)
#    0.000    1.500    4.167    3.250    0.000    1.333 
#    0.000    1.667    1.833    0.000    0.000    2.333 
#    0.000    0.000    0.000    0.167    0.000    0.000 
#
# Total GULP energy -267247.722027 kJ/mol
# GULP energy per Si atom -5567.660876 kJ/mol
# Density = 2.173877 g / cm^3
# Si number density = 21.788364 Si / 1000 Ang^3
#
#
#
# Elastic Constant Matrix: (Units=GPa)
#
#
# Indices 1 2 3 4 5 6 
#
# 1 166.1459 44.8205 11.2573 0.0000 0.0000 0.0000
# 2 44.8205 89.3303 14.2826 0.0000 0.0000 0.0000
# 3 11.2573 14.2826 37.7433 0.0000 0.0000 0.0000
# 4 0.0000 0.0000 0.0000 16.2994 0.0000 0.0000
# 5 0.0000 0.0000 0.0000 0.0000 35.9481 0.0000
# 6 0.0000 0.0000 0.0000 0.0000 0.0000 27.8484
#
#
#
# Elastic Compliance Matrix: (Units=1/GPa)
#
#
# Indices 1 2 3 4 5 6 
#
# 1 0.006984 -0.003375 -0.000806 0.000000 0.000000 0.000000
# 2 -0.003375 0.013547 -0.004120 0.000000 0.000000 0.000000
# 3 -0.000806 -0.004120 0.028294 0.000000 0.000000 0.000000
# 4 0.000000 0.000000 0.000000 0.061352 0.000000 0.000000
# 5 0.000000 0.000000 0.000000 0.000000 0.027818 0.000000
# 6 0.000000 0.000000 0.000000 0.000000 0.000000 0.035909
#
#
# Mechanical properties :
#
#
# Convention : Reuss Voigt Hill
#
# Bulk Modulus (GPa) = 31.03338 48.21559 39.62448
# Shear Modulus (GPa) = 24.84529 30.87645 27.86087
#
# Velocity S-wave (km/s) = 3.38050 3.76853 3.57978
# Velocity P-wave (km/s) = 5.43241 6.41193 5.94239
#
# Compressibility (1/GPa) = 0.03222337
#
# Stress axis : x y z
#
# Youngs Moduli (GPa) = 143.18567 73.81939 35.34317
#
# Poissons Ratio (x) = 0.24916 0.02848
# Poissons Ratio (y) = 0.48329 0.14560
# Poissons Ratio (z) = 0.11538 0.30410
#
# Static dielectric constant tensor:
#      x y z
#    x 1.843440 0.000000 0.000000 
#    y 0.000000 1.756450 0.000000 
#    z 0.000000 0.000000 1.882850 
# 
# From -- ./inp_files/29388.got.cif
#   From: 2010.05.17/outbox.cif.g08.bks.cpg/sg67_15_cif.got.tgz:29388.got - 2010.06.03 18:28:57.
