data_PCOD9504050
_publ_section_title
;
Structure prediction by ZEFSAII (Michael W. Deem and Ramdas Pophale) SiO2 
 PCOD9504050
Probable space group: C M M A
;
_chemical_formula_sum "Si O2"
_cell_formula_units_Z 96
_cell_length_a 21.228542
_cell_length_b 14.920161
_cell_length_c 14.547741
_cell_angle_alpha 90.000000
_cell_angle_beta 90.000000
_cell_angle_gamma 90.000000
_cell_volume 4607.753497
_symmetry_space_group_name_H-M "C M M A"
_symmetry_group_IT_number 67
_symmetry_cell_setting 'orthorhombic'
loop_
_space_group_symop_operation_xyz
x,y,z
-x,1/2-y,z
x,-y,-z
-x,1/2+y,-z
-x,-y,-z
x,1/2+y,-z
-x,y,z
x,1/2-y,z
1/2+x,1/2+y,z
1/2-x,-y,z
1/2+x,1/2-y,-z
1/2-x,y,-z
1/2-x,1/2-y,-z
1/2+x,y,-z
1/2-x,1/2+y,z
1/2+x,-y,z
loop_
_atom_site_type_symbol
_atom_site_label
_atom_site_fract_x
_atom_site_fract_y
_atom_site_fract_z
Si Si1 0.431726 0.949808 0.903775
Si Si2 0.351810 0.645451 0.619138
Si Si3 0.394443 0.974502 0.280789
Si Si4 0.431451 0.145359 0.554130
Si Si5 0.772334 0.353525 0.275764
Si Si6 0.296982 0.144764 0.080199
O O1 0.500000 0.902557 0.890339
O O2 0.366592 0.895404 0.910344
O O3 0.423756 0.019387 0.819690
O O4 0.434896 0.000000 0.000000
O O5 0.367311 0.750000 0.637386
O O6 0.387319 0.576235 0.684626
O O7 0.375239 0.624866 0.516396
O O8 0.278158 0.634952 0.642376
O O9 0.429635 0.917271 0.357750
O O10 0.326857 0.925989 0.277879
O O11 0.500000 0.134183 0.507226
O O12 0.425947 0.250000 0.580227
O O13 0.795697 0.250000 0.279818
O O14 0.736246 0.364639 0.179080
O O15 0.304808 0.250000 0.060707
O O16 0.250000 0.108809 0.000000
#
# Coordination Sequence:
#
# PCOD9504050 Si02
#       6
#    16  16  16  16  16  16
#     4  11  25  41  60  93 134 170 214 270 327 393
#     4  10  22  39  60  91 128 161 209 274 327 389
#     4  12  22  38  67  91 125 175 218 262 333 395
#     4  10  23  43  64  90 125 170 223 275 330 397
#     4  10  21  38  60  95 129 159 215 275 328 391
#     4  10  21  40  66  93 124 167 218 270 327 395
#
# _framework density 20.834447999999998
#
# number of rings (size 3 to 8) (size 9 to 14) (size 15 to 20)
#    0.000    1.500    1.667    3.000    0.000    4.667 
#    0.000    5.000    0.000    2.000    0.000    0.000 
#    0.000    0.000    0.000    0.000    0.000    0.000 
#
# Total GULP energy -268037.619081 kJ/mol
# GULP energy per Si atom -5584.117064 kJ/mol
# Density = 2.078703 g / cm^3
# Si number density = 20.834448 Si / 1000 Ang^3
#
#
#
# Elastic Constant Matrix: (Units=GPa)
#
#
# Indices 1 2 3 4 5 6 
#
# 1 138.6952 44.3312 62.2926 0.0000 0.0000 0.0000
# 2 44.3312 69.3953 47.5856 0.0000 0.0000 0.0000
# 3 62.2926 47.5856 120.7480 0.0000 0.0000 0.0000
# 4 0.0000 0.0000 0.0000 24.9095 0.0000 0.0000
# 5 0.0000 0.0000 0.0000 0.0000 41.2053 0.0000
# 6 0.0000 0.0000 0.0000 0.0000 0.0000 24.2076
#
#
#
# Elastic Compliance Matrix: (Units=1/GPa)
#
#
# Indices 1 2 3 4 5 6 
#
# 1 0.010118 -0.003952 -0.003662 0.000000 0.000000 0.000000
# 2 -0.003952 0.021290 -0.006351 0.000000 0.000000 0.000000
# 3 -0.003662 -0.006351 0.012674 0.000000 0.000000 0.000000
# 4 0.000000 0.000000 0.000000 0.040145 0.000000 0.000000
# 5 0.000000 0.000000 0.000000 0.000000 0.024269 0.000000
# 6 0.000000 0.000000 0.000000 0.000000 0.000000 0.041309
#
#
# Mechanical properties :
#
#
# Convention : Reuss Voigt Hill
#
# Bulk Modulus (GPa) = 61.91737 70.80635 66.36186
# Shear Modulus (GPa) = 27.30432 29.70645 28.50538
#
# Velocity S-wave (km/s) = 3.62406 3.78012 3.70291
# Velocity P-wave (km/s) = 6.87714 7.28776 7.08542
#
# Compressibility (1/GPa) = 0.01615056
#
# Stress axis : x y z
#
# Youngs Moduli (GPa) = 98.83166 46.96981 78.90173
#
# Poissons Ratio (x) = 0.18565 0.28896
# Poissons Ratio (y) = 0.39063 0.50112
# Poissons Ratio (z) = 0.36195 0.29832
#
# Static dielectric constant tensor:
#      x y z
#    x 1.780990 0.000000 0.000000 
#    y 0.000000 1.740400 0.000000 
#    z 0.000000 0.000000 1.741450 
# 
# From -- ./inp_files/29282.got.cif
#   From: 2010.05.17/outbox.cif.g08.bks.cpg/sg67_15_cif.got.tgz:29282.got - 2010.06.03 18:28:57.
