data_PCOD9504291
_publ_section_title
;
Structure prediction by ZEFSAII (Michael W. Deem and Ramdas Pophale) SiO2 
 PCOD9504291
Probable space group: C M M A
;
_chemical_formula_sum "Si O2"
_cell_formula_units_Z 108
_cell_length_a 15.101722
_cell_length_b 27.448772
_cell_length_c 10.593497
_cell_angle_alpha 90.000000
_cell_angle_beta 90.000000
_cell_angle_gamma 90.000000
_cell_volume 4391.255826
_symmetry_space_group_name_H-M "C M M A"
_symmetry_group_IT_number 67
_symmetry_cell_setting 'orthorhombic'
loop_
_space_group_symop_operation_xyz
x,y,z
-x,1/2-y,z
x,-y,-z
-x,1/2+y,-z
-x,-y,-z
x,1/2+y,-z
-x,y,z
x,1/2-y,z
1/2+x,1/2+y,z
1/2-x,-y,z
1/2+x,1/2-y,-z
1/2-x,y,-z
1/2-x,1/2-y,-z
1/2+x,y,-z
1/2-x,1/2+y,z
1/2+x,-y,z
loop_
_atom_site_type_symbol
_atom_site_label
_atom_site_fract_x
_atom_site_fract_y
_atom_site_fract_z
Si Si1 0.750000 0.500000 0.816369
Si Si2 0.400372 0.096248 0.622203
Si Si3 0.895108 0.550239 0.369892
Si Si4 0.594864 0.836239 0.700382
Si Si5 0.898846 0.569584 0.914257
Si Si6 0.653043 0.199252 0.556118
Si Si7 0.500000 0.250000 0.972742
Si Si8 0.151380 0.327474 0.961679
O O1 0.821882 0.473520 0.722012
O O2 0.815196 0.533432 0.901359
O O3 0.500000 0.107534 0.577784
O O4 0.370427 0.055437 0.520234
O O5 0.405351 0.081106 0.765409
O O6 0.350802 0.147567 0.623388
O O7 0.894008 0.607244 0.331672
O O8 0.000000 0.532972 0.356664
O O9 0.500000 0.829126 0.762839
O O10 0.597526 0.807001 0.571675
O O11 0.658412 0.821085 0.810300
O O12 0.873813 0.616814 0.997806
O O13 0.000000 0.553786 0.952772
O O14 0.629141 0.250000 0.623291
O O15 0.750000 0.202488 0.500000
O O16 0.578033 0.207548 0.979617
O O17 0.250000 0.316575 0.000000
#
# Coordination Sequence:
#
# PCOD9504291 Si02
#       8
#     8  16  16  16  16  16   4  16
#     4  12  24  39  73 104 132 198 242 292 382 452
#     4   9  21  40  62  88 134 187 225 293 368 423
#     4   9  20  39  61  99 133 173 239 292 351 435
#     4  10  21  42  71  93 135 185 232 298 355 408
#     4  11  25  47  68 102 153 189 237 311 369 436
#     4  10  22  36  59  98 135 174 226 287 353 430
#     4  12  26  52  72 110 138 204 250 306 366 430
#     4  12  26  47  75 108 145 192 250 307 363 432
#
# _framework density 24.594332000000001
#
# number of rings (size 3 to 8) (size 9 to 14) (size 15 to 20)
#    0.000    1.630    1.481    2.889    7.259    2.370 
#    1.333    5.556    0.000    5.333    0.000    0.000 
#    0.000    0.000    0.000    0.000    0.000    0.000 
#
# Total GULP energy -300919.043746 kJ/mol
# GULP energy per Si atom -5572.574884 kJ/mol
# Density = 2.453835 g / cm^3
# Si number density = 24.594332 Si / 1000 Ang^3
#
#
#
# Elastic Constant Matrix: (Units=GPa)
#
#
# Indices 1 2 3 4 5 6 
#
# 1 163.3543 61.0320 14.7521 0.0000 0.0000 0.0000
# 2 61.0320 124.6626 0.6209 0.0000 0.0000 0.0000
# 3 14.7521 0.6209 28.0813 0.0000 0.0000 0.0000
# 4 0.0000 0.0000 0.0000 3.9585 0.0000 0.0000
# 5 0.0000 0.0000 0.0000 0.0000 23.7290 0.0000
# 6 0.0000 0.0000 0.0000 0.0000 0.0000 35.8282
#
#
#
# Elastic Compliance Matrix: (Units=1/GPa)
#
#
# Indices 1 2 3 4 5 6 
#
# 1 0.007934 -0.003864 -0.004083 0.000000 0.000000 0.000000
# 2 -0.003864 0.009904 0.001811 0.000000 0.000000 0.000000
# 3 -0.004083 0.001811 0.037716 0.000000 0.000000 0.000000
# 4 0.000000 0.000000 0.000000 0.252618 0.000000 0.000000
# 5 0.000000 0.000000 0.000000 0.000000 0.042143 0.000000
# 6 0.000000 0.000000 0.000000 0.000000 0.000000 0.027911
#
#
# Mechanical properties :
#
#
# Convention : Reuss Voigt Hill
#
# Bulk Modulus (GPa) = 23.10395 52.10091 37.60243
# Shear Modulus (GPa) = 12.34797 28.68268 20.51532
#
# Velocity S-wave (km/s) = 2.24311 3.41872 2.89130
# Velocity P-wave (km/s) = 4.01536 6.06742 5.14474
#
# Compressibility (1/GPa) = 0.04328264
#
# Stress axis : x y z
#
# Youngs Moduli (GPa) = 126.03989 100.96571 26.51422
#
# Poissons Ratio (x) = 0.39013 0.10825
# Poissons Ratio (y) = 0.48702 -0.04801
# Poissons Ratio (z) = 0.51457 -0.18284
#
# Static dielectric constant tensor:
#      x y z
#    x 1.932990 0.000000 0.000000 
#    y 0.000000 2.041870 0.000000 
#    z 0.000000 0.000000 1.957910 
# 
# From -- ./inp_files/18667.got.cif
#   From: 2010.05.17/outbox.cif.g08.bks.cpg/sg67_10_cif.got.tgz:18667.got - 2010.06.03 18:28:57.
