data_PCOD9504880
_publ_section_title
;
Structure prediction by ZEFSAII (Michael W. Deem and Ramdas Pophale) SiO2 
 PCOD9504880
Probable space group: C M M A
;
_chemical_formula_sum "Si O2"
_cell_formula_units_Z 64
_cell_length_a 15.517047
_cell_length_b 9.946047
_cell_length_c 19.184926
_cell_angle_alpha 90.000000
_cell_angle_beta 90.000000
_cell_angle_gamma 90.000000
_cell_volume 2960.872532
_symmetry_space_group_name_H-M "C M M A"
_symmetry_group_IT_number 67
_symmetry_cell_setting 'orthorhombic'
loop_
_space_group_symop_operation_xyz
x,y,z
-x,1/2-y,z
x,-y,-z
-x,1/2+y,-z
-x,-y,-z
x,1/2+y,-z
-x,y,z
x,1/2-y,z
1/2+x,1/2+y,z
1/2-x,-y,z
1/2+x,1/2-y,-z
1/2-x,y,-z
1/2-x,1/2-y,-z
1/2+x,y,-z
1/2-x,1/2+y,z
1/2+x,-y,z
loop_
_atom_site_type_symbol
_atom_site_label
_atom_site_fract_x
_atom_site_fract_y
_atom_site_fract_z
Si Si1 0.170740 0.750000 0.407033
Si Si2 0.371675 0.750000 0.439361
Si Si3 0.105192 0.399769 0.186221
Si Si4 0.105441 0.904912 0.064317
Si Si5 0.597892 0.492149 0.661651
O O1 0.269410 0.750000 0.428648
O O2 0.113766 0.750000 0.477919
O O3 0.152363 0.882489 0.363292
O O4 0.403766 0.619103 0.398883
O O5 0.133900 0.250000 0.164620
O O6 0.132982 0.517923 0.134513
O O7 0.129654 0.428027 0.266097
O O8 0.000000 0.397464 0.184172
O O9 0.134441 0.750000 0.059487
O O10 0.000000 0.901414 0.063940
O O11 0.131477 0.000000 0.000000
O O12 0.500000 0.539337 0.673965
#
# Coordination Sequence:
#
# PCOD9504880 Si02
#       5
#     8   8  16  16  16
#     4  11  25  39  59  83 114 147 190 242 291 345
#     4  11  23  43  59  79 112 155 190 232 293 353
#     4   9  17  30  47  70 105 144 182 228 281 333
#     4   9  16  25  41  67 103 146 185 221 271 335
#     4  11  22  37  59  86 114 148 191 240 291 342
#
# _framework density 21.61525
#
# number of rings (size 3 to 8) (size 9 to 14) (size 15 to 20)
#    0.000    2.000    1.250    3.000    1.750    8.000 
#    0.000    0.000    0.000    0.000    0.000    0.000 
#    0.000    6.000    0.000    0.000    0.000    0.000 
#
# Total GULP energy -178831.403564 kJ/mol
# GULP energy per Si atom -5588.481361 kJ/mol
# Density = 2.156605 g / cm^3
# Si number density = 21.615250 Si / 1000 Ang^3
#
#
#
# Elastic Constant Matrix: (Units=GPa)
#
#
# Indices 1 2 3 4 5 6 
#
# 1 32.3233 10.3564 0.7709 0.0000 0.0000 0.0000
# 2 10.3564 188.9765 62.9821 0.0000 0.0000 0.0000
# 3 0.7709 62.9821 107.1851 0.0000 0.0000 0.0000
# 4 0.0000 0.0000 0.0000 28.4527 0.0000 0.0000
# 5 0.0000 0.0000 0.0000 0.0000 -33.9980 0.0000
# 6 0.0000 0.0000 0.0000 0.0000 0.0000 22.2861
#
#
#
# Elastic Compliance Matrix: (Units=1/GPa)
#
#
# Indices 1 2 3 4 5 6 
#
# 1 0.031573 -0.002058 0.000982 0.000000 0.000000 0.000000
# 2 -0.002058 0.006714 -0.003931 0.000000 0.000000 0.000000
# 3 0.000982 -0.003931 0.011632 0.000000 0.000000 0.000000
# 4 0.000000 0.000000 0.000000 0.035146 0.000000 0.000000
# 5 0.000000 0.000000 0.000000 0.000000 -0.029413 0.000000
# 6 0.000000 0.000000 0.000000 0.000000 0.000000 0.044871
#
#
# Mechanical properties :
#
#
# Convention : Reuss Voigt Hill
#
# Bulk Modulus (GPa) = 25.05796 52.96708 39.01252
# Shear Modulus (GPa) = 40.37517 20.30651 30.34084
#
# Velocity S-wave (km/s) = 4.32661 3.06837 3.75063
# Velocity P-wave (km/s) = 6.04792 6.09187 6.06994
#
# Compressibility (1/GPa) = 0.03990748
#
# Stress axis : x y z
#
# Youngs Moduli (GPa) = 31.67233 148.93333 85.96811
#
# Poissons Ratio (x) = 0.30644 -0.08441
# Poissons Ratio (y) = 0.06517 0.33791
# Poissons Ratio (z) = -0.03110 0.58540
#
# Static dielectric constant tensor:
#      x y z
#    x 1.808670 0.000000 0.000000 
#    y 0.000000 1.735870 0.000000 
#    z 0.000000 0.000000 1.773510 
# 
# From -- ./inp_files/34654.got.cif
#   From: 2010.05.17/outbox.cif.g08.bks.cpg/sg67_18_cif.got.tgz:34654.got - 2010.06.03 18:28:57.
