data_PCOD9504697
_publ_section_title
;
Structure prediction by ZEFSAII (Michael W. Deem and Ramdas Pophale) SiO2 
 PCOD9504697
Probable space group: C M M A
;
_chemical_formula_sum "Si O2"
_cell_formula_units_Z 60
_cell_length_a 27.393444
_cell_length_b 13.880621
_cell_length_c 7.552867
_cell_angle_alpha 90.000000
_cell_angle_beta 90.000000
_cell_angle_gamma 90.000000
_cell_volume 2871.887148
_symmetry_space_group_name_H-M "C M M A"
_symmetry_group_IT_number 67
_symmetry_cell_setting 'orthorhombic'
loop_
_space_group_symop_operation_xyz
x,y,z
-x,1/2-y,z
x,-y,-z
-x,1/2+y,-z
-x,-y,-z
x,1/2+y,-z
-x,y,z
x,1/2-y,z
1/2+x,1/2+y,z
1/2-x,-y,z
1/2+x,1/2-y,-z
1/2-x,y,-z
1/2-x,1/2-y,-z
1/2+x,y,-z
1/2-x,1/2+y,z
1/2+x,-y,z
loop_
_atom_site_type_symbol
_atom_site_label
_atom_site_fract_x
_atom_site_fract_y
_atom_site_fract_z
Si Si1 0.903616 0.955559 0.694754
Si Si2 0.303765 0.750000 0.906120
Si Si3 0.700017 0.963660 0.798825
Si Si4 0.500000 0.543135 0.704301
Si Si5 0.405411 0.250000 0.866155
Si Si6 0.500000 0.750000 0.868106
O O1 0.908092 0.843441 0.740339
O O2 0.907382 0.000000 0.500000
O O3 0.849642 0.987745 0.742137
O O4 0.950168 0.003762 0.789258
O O5 0.304871 0.651336 0.795913
O O6 0.250000 0.750000 0.000000
O O7 0.352396 0.750000 0.031835
O O8 0.750000 0.000000 0.710435
O O9 0.703339 0.000000 0.000000
O O10 0.500000 0.500000 0.500000
O O11 0.500000 0.656870 0.739452
O O12 0.451083 0.250000 0.006003
#
# Coordination Sequence:
#
# PCOD9504697 Si02
#       6
#    16   8  16   8   8   4
#     4  11  25  43  64  93 137 174 216 279 342 398
#     4  12  20  35  63  91 125 164 212 276 337 383
#     4  11  21  38  63  94 128 169 223 283 334 402
#     4  10  25  44  65  95 138 173 211 268 338 396
#     4  12  24  40  67  99 126 171 236 278 325 405
#     4  12  26  42  74 104 126 178 234 268 322 404
#
# _framework density 20.892187
#
# number of rings (size 3 to 8) (size 9 to 14) (size 15 to 20)
#    0.000    0.800    5.333    2.400    0.000    6.933 
#    0.000    0.000    0.000    4.800    0.000    0.000 
#    0.000    0.000    0.000    0.000    0.000    0.000 
#
# Total GULP energy -167108.383674 kJ/mol
# GULP energy per Si atom -5570.279456 kJ/mol
# Density = 2.084464 g / cm^3
# Si number density = 20.892187 Si / 1000 Ang^3
#
#
#
# Elastic Constant Matrix: (Units=GPa)
#
#
# Indices 1 2 3 4 5 6 
#
# 1 216.8817 68.5608 41.6693 0.0000 0.0000 0.0000
# 2 68.5608 257.0452 43.6601 0.0000 0.0000 0.0000
# 3 41.6693 43.6601 82.4970 0.0000 0.0000 0.0000
# 4 0.0000 0.0000 0.0000 11.5040 0.0000 0.0000
# 5 0.0000 0.0000 0.0000 0.0000 2.4437 0.0000
# 6 0.0000 0.0000 0.0000 0.0000 0.0000 39.6679
#
#
#
# Elastic Compliance Matrix: (Units=1/GPa)
#
#
# Indices 1 2 3 4 5 6 
#
# 1 0.005359 -0.001065 -0.002143 0.000000 0.000000 0.000000
# 2 -0.001065 0.004486 -0.001836 0.000000 0.000000 0.000000
# 3 -0.002143 -0.001836 0.014176 0.000000 0.000000 0.000000
# 4 0.000000 0.000000 0.000000 0.086927 0.000000 0.000000
# 5 0.000000 0.000000 0.000000 0.000000 0.409217 0.000000
# 6 0.000000 0.000000 0.000000 0.000000 0.000000 0.025209
#
#
# Mechanical properties :
#
#
# Convention : Reuss Voigt Hill
#
# Bulk Modulus (GPa) = 71.77655 96.02268 83.89962
# Shear Modulus (GPa) = 8.92685 37.55869 23.24277
#
# Velocity S-wave (km/s) = 2.06932 4.24457 3.33905
# Velocity P-wave (km/s) = 6.33559 8.37154 7.42369
#
# Compressibility (1/GPa) = 0.01393213
#
# Stress axis : x y z
#
# Youngs Moduli (GPa) = 186.58850 222.89375 70.54208
#
# Poissons Ratio (x) = 0.23749 0.15118
# Poissons Ratio (y) = 0.19880 0.12953
# Poissons Ratio (z) = 0.39989 0.40928
#
# Static dielectric constant tensor:
#      x y z
#    x 1.909700 0.000000 0.000000 
#    y 0.000000 1.734950 0.000000 
#    z 0.000000 0.000000 1.702080 
# 
# From -- ./inp_files/13190.got.cif
#   From: 2010.05.17/outbox.cif.g08.bks.cpg/sg67_7_cif.got.tgz:13190.got - 2010.06.03 18:28:57.
