data_PCOD9504906
_publ_section_title
;
Structure prediction by ZEFSAII (Michael W. Deem and Ramdas Pophale) SiO2 
 PCOD9504906
Probable space group: C M M A
;
_chemical_formula_sum "Si O2"
_cell_formula_units_Z 72
_cell_length_a 8.654886
_cell_length_b 25.845372
_cell_length_c 20.364624
_cell_angle_alpha 90.000000
_cell_angle_beta 90.000000
_cell_angle_gamma 90.000000
_cell_volume 4555.337252
_symmetry_space_group_name_H-M "C M M A"
_symmetry_group_IT_number 67
_symmetry_cell_setting 'orthorhombic'
loop_
_space_group_symop_operation_xyz
x,y,z
-x,1/2-y,z
x,-y,-z
-x,1/2+y,-z
-x,-y,-z
x,1/2+y,-z
-x,y,z
x,1/2-y,z
1/2+x,1/2+y,z
1/2-x,-y,z
1/2+x,1/2-y,-z
1/2-x,y,-z
1/2-x,1/2-y,-z
1/2+x,y,-z
1/2-x,1/2+y,z
1/2+x,-y,z
loop_
_atom_site_type_symbol
_atom_site_label
_atom_site_fract_x
_atom_site_fract_y
_atom_site_fract_z
Si Si1 0.314973 0.942910 0.427865
Si Si2 0.314492 0.812040 0.212625
Si Si3 0.185445 0.810768 0.932496
Si Si4 0.316137 0.151478 0.347600
Si Si5 0.814702 0.250000 0.426265
O O1 0.500000 0.944206 0.430280
O O2 0.250000 0.928627 0.500000
O O3 0.255987 0.900745 0.376550
O O4 0.250000 0.000000 0.412921
O O5 0.500000 0.818718 0.219380
O O6 0.286022 0.750000 0.216848
O O7 0.267613 0.830653 0.139512
O O8 0.229168 0.839692 0.271952
O O9 0.231395 0.750000 0.931956
O O10 0.000000 0.812579 0.935019
O O11 0.250000 0.834014 0.000000
O O12 0.500000 0.151022 0.355681
O O13 0.245633 0.199555 0.388099
O O14 0.750000 0.250000 0.500000
O O15 0.000000 0.250000 0.426967
#
# Coordination Sequence:
#
# PCOD9504906 Si02
#       5
#    16  16  16  16   8
#     4  11  22  39  59  78  99 126 161 206 253 298
#     4   9  17  30  46  65  95 133 168 202 246 292
#     4   8  14  24  39  60  87 123 163 201 238 282
#     4  12  23  35  51  75 101 130 167 205 247 298
#     4  12  24  38  52  70  97 130 165 204 246 294
#
# _framework density 15.805635000000001
#
# number of rings (size 3 to 8) (size 9 to 14) (size 15 to 20)
#    0.000    1.778    1.111    7.667    0.000    0.889 
#    0.000    2.222    0.000    0.000    0.000    0.000 
#    0.000    0.889    0.000    9.333    0.000    5.556 
#
# Total GULP energy -200876.414600 kJ/mol
# GULP energy per Si atom -5579.900406 kJ/mol
# Density = 1.576966 g / cm^3
# Si number density = 15.805635 Si / 1000 Ang^3
#
#
#
# Elastic Constant Matrix: (Units=GPa)
#
#
# Indices 1 2 3 4 5 6 
#
# 1 121.6328 35.7563 61.5277 0.0000 0.0000 0.0000
# 2 35.7563 49.1037 53.5664 0.0000 0.0000 0.0000
# 3 61.5277 53.5664 155.3442 0.0000 0.0000 0.0000
# 4 0.0000 0.0000 0.0000 -30.9678 0.0000 0.0000
# 5 0.0000 0.0000 0.0000 0.0000 31.6704 0.0000
# 6 0.0000 0.0000 0.0000 0.0000 0.0000 20.0040
#
#
#
# Elastic Compliance Matrix: (Units=1/GPa)
#
#
# Indices 1 2 3 4 5 6 
#
# 1 0.011067 -0.005253 -0.002572 0.000000 0.000000 0.000000
# 2 -0.005253 0.035138 -0.010036 0.000000 0.000000 0.000000
# 3 -0.002572 -0.010036 0.010917 0.000000 0.000000 0.000000
# 4 0.000000 0.000000 0.000000 -0.032292 0.000000 0.000000
# 5 0.000000 0.000000 0.000000 0.000000 0.031575 0.000000
# 6 0.000000 0.000000 0.000000 0.000000 0.000000 0.049990
#
#
# Mechanical properties :
#
#
# Convention : Reuss Voigt Hill
#
# Bulk Modulus (GPa) = 46.72899 69.75349 58.24124
# Shear Modulus (GPa) = 33.50088 15.82335 24.66211
#
# Velocity S-wave (km/s) = 4.60885 3.16748 3.95440
# Velocity P-wave (km/s) = 7.61256 7.58980 7.60119
#
# Compressibility (1/GPa) = 0.02139999
#
# Stress axis : x y z
#
# Youngs Moduli (GPa) = 90.36180 28.45907 91.60346
#
# Poissons Ratio (x) = 0.14949 0.23559
# Poissons Ratio (y) = 0.47466 0.91933
# Poissons Ratio (z) = 0.23240 0.28561
#
# Static dielectric constant tensor:
#      x y z
#    x 1.528530 0.000000 0.000000 
#    y 0.000000 1.498400 0.000000 
#    z 0.000000 0.000000 1.555670 
# 
# From -- ./inp_files/32062.got.cif
#   From: 2010.05.17/outbox.cif.g08.bks.cpg/sg67_17_cif.got.tgz:32062.got - 2010.06.03 18:28:57.
