data_PCOD9504213
_publ_section_title
;
Structure prediction by ZEFSAII (Michael W. Deem and Ramdas Pophale) SiO2 
 PCOD9504213
Probable space group: C M M A
;
_chemical_formula_sum "Si O2"
_cell_formula_units_Z 88
_cell_length_a 16.769124
_cell_length_b 32.109983
_cell_length_c 8.078037
_cell_angle_alpha 90.000000
_cell_angle_beta 90.000000
_cell_angle_gamma 90.000000
_cell_volume 4349.669806
_symmetry_space_group_name_H-M "C M M A"
_symmetry_group_IT_number 67
_symmetry_cell_setting 'orthorhombic'
loop_
_space_group_symop_operation_xyz
x,y,z
-x,1/2-y,z
x,-y,-z
-x,1/2+y,-z
-x,-y,-z
x,1/2+y,-z
-x,y,z
x,1/2-y,z
1/2+x,1/2+y,z
1/2-x,-y,z
1/2+x,1/2-y,-z
1/2-x,y,-z
1/2-x,1/2-y,-z
1/2+x,y,-z
1/2-x,1/2+y,z
1/2+x,-y,z
loop_
_atom_site_type_symbol
_atom_site_label
_atom_site_fract_x
_atom_site_fract_y
_atom_site_fract_z
Si Si1 0.087477 0.983872 0.186671
Si Si2 0.832962 0.897794 0.187027
Si Si3 0.689247 0.297176 0.656456
Si Si4 0.806654 0.053149 0.339863
Si Si5 0.750000 0.168085 0.000000
Si Si6 0.405993 0.873059 0.472934
O O1 0.104451 0.934975 0.173253
O O2 0.000000 0.990965 0.261757
O O3 0.155237 0.009969 0.281089
O O4 0.087964 0.000000 0.000000
O O5 0.749396 0.922775 0.209203
O O6 0.856264 0.874499 0.356095
O O7 0.822376 0.863163 0.047950
O O8 0.657629 0.250000 0.657983
O O9 0.750000 0.299914 0.500000
O O10 0.624060 0.332904 0.626579
O O11 0.730492 0.306623 0.833675
O O12 0.750000 0.049257 0.500000
O O13 0.878373 0.084599 0.382538
O O14 0.500000 0.872449 0.501557
#
# Coordination Sequence:
#
# PCOD9504213 Si02
#       6
#    16  16  16  16   8  16
#     4  11  24  39  56  90 131 171 214 268 325 371
#     4  11  22  38  63  94 127 166 223 265 315 377
#     4  11  23  44  72 102 130 163 213 266 323 393
#     4  10  21  40  62  87 120 170 225 267 312 371
#     4  12  21  42  71 102 126 166 220 269 319 378
#     4  11  22  41  65  93 132 171 212 268 330 389
#
# _framework density 20.231421000000001
#
# number of rings (size 3 to 8) (size 9 to 14) (size 15 to 20)
#    0.000    1.091    3.636    3.545    0.000    6.182 
#    0.000    5.455    0.000    0.000    0.000    0.000 
#    0.000    0.000    0.000    0.000    0.000    0.000 
#
# Total GULP energy -245847.805527 kJ/mol
# GULP energy per Si atom -5587.450126 kJ/mol
# Density = 2.018537 g / cm^3
# Si number density = 20.231421 Si / 1000 Ang^3
#
#
#
# Elastic Constant Matrix: (Units=GPa)
#
#
# Indices 1 2 3 4 5 6 
#
# 1 78.6227 25.1902 8.3266 0.0000 0.0000 0.0000
# 2 25.1902 123.5052 34.3993 0.0000 0.0000 0.0000
# 3 8.3266 34.3993 83.4929 0.0000 0.0000 0.0000
# 4 0.0000 0.0000 0.0000 22.2263 0.0000 0.0000
# 5 0.0000 0.0000 0.0000 0.0000 10.8628 0.0000
# 6 0.0000 0.0000 0.0000 0.0000 0.0000 15.5393
#
#
#
# Elastic Compliance Matrix: (Units=1/GPa)
#
#
# Indices 1 2 3 4 5 6 
#
# 1 0.013613 -0.002709 -0.000241 0.000000 0.000000 0.000000
# 2 -0.002709 0.009686 -0.003720 0.000000 0.000000 0.000000
# 3 -0.000241 -0.003720 0.013534 0.000000 0.000000 0.000000
# 4 0.000000 0.000000 0.000000 0.044992 0.000000 0.000000
# 5 0.000000 0.000000 0.000000 0.000000 0.092057 0.000000
# 6 0.000000 0.000000 0.000000 0.000000 0.000000 0.064353
#
#
# Mechanical properties :
#
#
# Convention : Reuss Voigt Hill
#
# Bulk Modulus (GPa) = 42.57071 46.82810 44.69940
# Shear Modulus (GPa) = 19.27484 24.23934 21.75709
#
# Velocity S-wave (km/s) = 3.08996 3.46512 3.28290
# Velocity P-wave (km/s) = 5.81533 6.26146 6.04251
#
# Compressibility (1/GPa) = 0.02349033
#
# Stress axis : x y z
#
# Youngs Moduli (GPa) = 73.46165 103.24609 73.88847
#
# Poissons Ratio (x) = 0.27971 0.01783
# Poissons Ratio (y) = 0.19902 0.27489
# Poissons Ratio (z) = 0.01773 0.38411
#
# Static dielectric constant tensor:
#      x y z
#    x 1.717000 0.000000 0.000000 
#    y 0.000000 1.737950 0.000000 
#    z 0.000000 0.000000 1.761580 
# 
# From -- ./inp_files/10224.got.cif
#   From: 2010.05.17/outbox.cif.g08.bks.cpg/sg67_6_cif.got.tgz:10224.got - 2010.06.03 18:28:57.
