data_PCOD9504888
_publ_section_title
;
Structure prediction by ZEFSAII (Michael W. Deem and Ramdas Pophale) SiO2 
 PCOD9504888
Probable space group: C M M A
;
_chemical_formula_sum "Si O2"
_cell_formula_units_Z 112
_cell_length_a 17.508225
_cell_length_b 15.457451
_cell_length_c 21.617252
_cell_angle_alpha 90.000000
_cell_angle_beta 90.000000
_cell_angle_gamma 90.000000
_cell_volume 5850.331601
_symmetry_space_group_name_H-M "C M M A"
_symmetry_group_IT_number 67
_symmetry_cell_setting 'orthorhombic'
loop_
_space_group_symop_operation_xyz
x,y,z
-x,1/2-y,z
x,-y,-z
-x,1/2+y,-z
-x,-y,-z
x,1/2+y,-z
-x,y,z
x,1/2-y,z
1/2+x,1/2+y,z
1/2-x,-y,z
1/2+x,1/2-y,-z
1/2-x,y,-z
1/2-x,1/2-y,-z
1/2+x,y,-z
1/2-x,1/2+y,z
1/2+x,-y,z
loop_
_atom_site_type_symbol
_atom_site_label
_atom_site_fract_x
_atom_site_fract_y
_atom_site_fract_z
Si Si1 0.681072 0.848768 0.378194
Si Si2 0.913348 0.603929 0.503960
Si Si3 0.862637 0.848196 0.368119
Si Si4 0.090129 0.000701 0.152162
Si Si5 0.850733 0.150076 0.064589
Si Si6 0.410085 0.484265 0.705021
Si Si7 0.667429 0.849851 0.922242
O O1 0.666141 0.750000 0.358577
O O2 0.647348 0.861571 0.446872
O O3 0.771837 0.862849 0.376202
O O4 0.638611 0.916806 0.334659
O O5 0.906356 0.500000 0.500000
O O6 0.899331 0.640353 0.435763
O O7 0.000000 0.624364 0.524426
O O8 0.875133 0.750000 0.346304
O O9 0.895495 0.920631 0.322858
O O10 0.112090 0.018502 0.223070
O O11 0.134171 0.918472 0.124950
O O12 0.000000 0.983126 0.150980
O O13 0.108598 0.082539 0.108894
O O14 0.872893 0.250000 0.076034
O O15 0.759362 0.143403 0.075070
O O16 0.862646 0.131396 0.991763
O O17 0.500000 0.464090 0.699110
O O18 0.648548 0.750000 0.907528
#
# Coordination Sequence:
#
# PCOD9504888 Si02
#       7
#    16  16  16  16  16  16  16
#     4  11  24  41  63  90 117 149 193 244 294 342
#     4  11  22  37  62  93 122 153 188 231 289 351
#     4  11  24  41  63  90 117 149 193 244 294 342
#     4  11  24  38  56  85 120 155 194 238 289 346
#     4   9  19  37  61  88 117 151 193 239 286 340
#     4  11  25  43  59  81 116 159 199 238 287 345
#     4   9  19  37  61  88 117 151 193 239 286 340
#
# _framework density 19.144214000000002
#
# number of rings (size 3 to 8) (size 9 to 14) (size 15 to 20)
#    0.000    1.571    1.429    3.857    0.000   10.857 
#    0.000    7.143    0.000    0.000    0.000    0.000 
#    0.000    0.000    0.000    0.000    0.000    0.000 
#
# Total GULP energy -313101.698583 kJ/mol
# GULP energy per Si atom -5591.101760 kJ/mol
# Density = 1.910064 g / cm^3
# Si number density = 19.144214 Si / 1000 Ang^3
#
#
#
# Elastic Constant Matrix: (Units=GPa)
#
#
# Indices 1 2 3 4 5 6 
#
# 1 20.4707 9.7816 3.0220 0.0000 0.0000 0.0000
# 2 9.7816 56.9735 10.5430 0.0000 0.0000 0.0000
# 3 3.0220 10.5430 45.5549 0.0000 0.0000 0.0000
# 4 0.0000 0.0000 0.0000 -14.1357 0.0000 0.0000
# 5 0.0000 0.0000 0.0000 0.0000 38.7940 0.0000
# 6 0.0000 0.0000 0.0000 0.0000 0.0000 -352.0992
#
#
#
# Elastic Compliance Matrix: (Units=1/GPa)
#
#
# Indices 1 2 3 4 5 6 
#
# 1 0.053312 -0.008879 -0.001482 0.000000 0.000000 0.000000
# 2 -0.008879 0.019816 -0.003997 0.000000 0.000000 0.000000
# 3 -0.001482 -0.003997 0.022975 0.000000 0.000000 0.000000
# 4 0.000000 0.000000 0.000000 -0.070743 0.000000 0.000000
# 5 0.000000 0.000000 0.000000 0.000000 0.025777 0.000000
# 6 0.000000 0.000000 0.000000 0.000000 0.000000 -0.002840
#
#
# Mechanical properties :
#
#
# Convention : Reuss Voigt Hill
#
# Bulk Modulus (GPa) = 14.83956 18.85470 16.84713
# Shear Modulus (GPa) = 50.26424 -58.84467 -4.29022
#
# Velocity S-wave (km/s) = 5.12958 -5.55016 -1.49862
# Velocity P-wave (km/s) = 6.54612 5.58590 2.41345
#
# Compressibility (1/GPa) = 0.06738746
#
# Stress axis : x y z
#
# Youngs Moduli (GPa) = 18.75766 50.46412 43.52571
#
# Poissons Ratio (x) = 0.44806 0.06449
# Poissons Ratio (y) = 0.16654 0.17398
# Poissons Ratio (z) = 0.02779 0.20171
#
# Static dielectric constant tensor:
#      x y z
#    x 1.656670 0.000000 0.000000 
#    y 0.000000 1.656410 0.000000 
#    z 0.000000 0.000000 1.645040 
# 
# From -- ./inp_files/41938.got.cif
#   From: 2010.05.17/outbox.cif.g08.bks.cpg/sg67_21_cif.got.tgz:41938.got - 2010.06.03 18:28:57.
