data_PCOD9504720
_publ_section_title
;
Structure prediction by ZEFSAII (Michael W. Deem and Ramdas Pophale) SiO2 
 PCOD9504720
Probable space group: C M M A
;
_chemical_formula_sum "Si O2"
_cell_formula_units_Z 96
_cell_length_a 20.453453
_cell_length_b 22.227830
_cell_length_c 11.104122
_cell_angle_alpha 90.000000
_cell_angle_beta 90.000000
_cell_angle_gamma 90.000000
_cell_volume 5048.332235
_symmetry_space_group_name_H-M "C M M A"
_symmetry_group_IT_number 67
_symmetry_cell_setting 'orthorhombic'
loop_
_space_group_symop_operation_xyz
x,y,z
-x,1/2-y,z
x,-y,-z
-x,1/2+y,-z
-x,-y,-z
x,1/2+y,-z
-x,y,z
x,1/2-y,z
1/2+x,1/2+y,z
1/2-x,-y,z
1/2+x,1/2-y,-z
1/2-x,y,-z
1/2-x,1/2-y,-z
1/2+x,y,-z
1/2-x,1/2+y,z
1/2+x,-y,z
loop_
_atom_site_type_symbol
_atom_site_label
_atom_site_fract_x
_atom_site_fract_y
_atom_site_fract_z
Si Si1 0.123204 0.615470 0.718683
Si Si2 0.134854 0.136128 0.719464
Si Si3 0.577808 0.011460 0.355934
Si Si4 0.175052 0.685835 0.526105
Si Si5 0.000000 0.821715 0.591959
Si Si6 0.000000 0.678549 0.305962
Si Si7 0.735644 0.178760 0.858502
O O1 0.099883 0.547121 0.719905
O O2 0.170351 0.626720 0.605624
O O3 0.061460 0.653440 0.667922
O O4 0.167801 0.644516 0.823614
O O5 0.122737 0.067133 0.683286
O O6 0.139428 0.175436 0.598184
O O7 0.064158 0.157064 0.766431
O O8 0.200665 0.150163 0.792619
O O9 0.500000 0.022814 0.335058
O O10 0.584440 0.000000 0.500000
O O11 0.152804 0.750000 0.580244
O O12 0.250000 0.691956 0.500000
O O13 0.000000 0.750000 0.588957
O O14 0.000000 0.843444 0.449785
O O15 0.000000 0.750000 0.313021
O O16 0.731075 0.250000 0.824766
O O17 0.750000 0.175314 0.000000
#
# Coordination Sequence:
#
# PCOD9504720 Si02
#       7
#    16  16  16  16   8   8  16
#     4  12  22  38  61  93 130 169 208 253 318 382
#     4  12  22  38  61  93 130 169 208 253 318 382
#     4  11  22  39  59  94 142 176 201 245 307 388
#     4  11  20  32  55  92 132 161 198 259 328 391
#     4  11  20  31  56  96 131 159 200 258 323 391
#     4  11  20  31  56  96 131 159 200 258 323 391
#     4  11  26  48  69  90 122 166 220 277 322 365
#
# _framework density 19.016182000000001
#
# number of rings (size 3 to 8) (size 9 to 14) (size 15 to 20)
#    0.000    0.667    6.667    3.000    0.000    0.667 
#    0.000    4.167    0.000    4.000    0.000    0.000 
#    0.000    0.000    0.000    0.000    0.000    0.000 
#
# Total GULP energy -267334.944546 kJ/mol
# GULP energy per Si atom -5569.478011 kJ/mol
# Density = 1.897290 g / cm^3
# Si number density = 19.016182 Si / 1000 Ang^3
#
#
#
# Elastic Constant Matrix: (Units=GPa)
#
#
# Indices 1 2 3 4 5 6 
#
# 1 118.5148 45.5847 28.1431 0.0000 0.0000 0.0000
# 2 45.5847 127.3063 25.7496 0.0000 0.0000 0.0000
# 3 28.1431 25.7496 59.2013 0.0000 0.0000 0.0000
# 4 0.0000 0.0000 0.0000 20.6790 0.0000 0.0000
# 5 0.0000 0.0000 0.0000 0.0000 12.5054 0.0000
# 6 0.0000 0.0000 0.0000 0.0000 0.0000 31.0415
#
#
#
# Elastic Compliance Matrix: (Units=1/GPa)
#
#
# Indices 1 2 3 4 5 6 
#
# 1 0.010465 -0.003005 -0.003668 0.000000 0.000000 0.000000
# 2 -0.003005 0.009476 -0.002693 0.000000 0.000000 0.000000
# 3 -0.003668 -0.002693 0.019806 0.000000 0.000000 0.000000
# 4 0.000000 0.000000 0.000000 0.048358 0.000000 0.000000
# 5 0.000000 0.000000 0.000000 0.000000 0.079966 0.000000
# 6 0.000000 0.000000 0.000000 0.000000 0.000000 0.032215
#
#
# Mechanical properties :
#
#
# Convention : Reuss Voigt Hill
#
# Bulk Modulus (GPa) = 47.58422 55.99746 51.79084
# Shear Modulus (GPa) = 22.12176 26.54819 24.33497
#
# Velocity S-wave (km/s) = 3.41444 3.74047 3.58117
# Velocity P-wave (km/s) = 6.37353 6.94018 6.66288
#
# Compressibility (1/GPa) = 0.02101537
#
# Stress axis : x y z
#
# Youngs Moduli (GPa) = 95.56034 105.53156 50.48914
#
# Poissons Ratio (x) = 0.31715 0.18517
# Poissons Ratio (y) = 0.28718 0.13596
# Poissons Ratio (z) = 0.35047 0.28418
#
# Static dielectric constant tensor:
#      x y z
#    x 1.808120 0.000000 0.000000 
#    y 0.000000 1.690360 0.000000 
#    z 0.000000 0.000000 1.687640 
# 
# From -- ./inp_files/20918.got.cif
#   From: 2010.05.17/outbox.cif.g08.bks.cpg/sg67_11_cif.got.tgz:20918.got - 2010.06.03 18:28:57.
