data_PCOD9504786
_publ_section_title
;
Structure prediction by ZEFSAII (Michael W. Deem and Ramdas Pophale) SiO2 
 PCOD9504786
Probable space group: C M M A
;
_chemical_formula_sum "Si O2"
_cell_formula_units_Z 56
_cell_length_a 13.529947
_cell_length_b 20.993424
_cell_length_c 9.958482
_cell_angle_alpha 90.000000
_cell_angle_beta 90.000000
_cell_angle_gamma 90.000000
_cell_volume 2828.606372
_symmetry_space_group_name_H-M "C M M A"
_symmetry_group_IT_number 67
_symmetry_cell_setting 'orthorhombic'
loop_
_space_group_symop_operation_xyz
x,y,z
-x,1/2-y,z
x,-y,-z
-x,1/2+y,-z
-x,-y,-z
x,1/2+y,-z
-x,y,z
x,1/2-y,z
1/2+x,1/2+y,z
1/2-x,-y,z
1/2+x,1/2-y,-z
1/2-x,y,-z
1/2-x,1/2-y,-z
1/2+x,y,-z
1/2-x,1/2+y,z
1/2+x,-y,z
loop_
_atom_site_type_symbol
_atom_site_label
_atom_site_fract_x
_atom_site_fract_y
_atom_site_fract_z
Si Si1 0.211999 0.175674 0.150565
Si Si2 0.677798 0.407356 0.374325
Si Si3 0.500000 0.639614 0.225397
Si Si4 0.000000 0.179294 0.523506
Si Si5 0.500000 0.502938 0.661838
O O1 0.227011 0.250000 0.189897
O O2 0.261157 0.128573 0.259144
O O3 0.097172 0.158778 0.147764
O O4 0.250000 0.167065 0.000000
O O5 0.750000 0.425761 0.500000
O O6 0.597615 0.357832 0.432280
O O7 0.604922 0.461446 0.312293
O O8 0.500000 0.678514 0.363767
O O9 0.500000 0.565675 0.269809
O O10 0.000000 0.250000 0.579265
O O11 0.500000 0.500000 0.500000
#
# Coordination Sequence:
#
# PCOD9504786 Si02
#       5
#    16  16   8   8   8
#     4  11  25  44  66  94 130 169 210 263 325 381
#     4  11  22  39  65  96 126 168 216 262 314 374
#     4  12  23  41  64  95 127 168 213 256 322 376
#     4  11  21  35  61  96 129 158 209 271 313 370
#     4  11  22  41  61  96 132 168 210 265 317 372
#
# _framework density 19.797737000000001
#
# number of rings (size 3 to 8) (size 9 to 14) (size 15 to 20)
#    0.000    0.857    5.714    2.143    0.000    7.429 
#    0.000    7.143    0.000    0.000    0.000    0.000 
#    0.000    0.000    0.000    0.000    0.000    0.000 
#
# Total GULP energy -156427.161538 kJ/mol
# GULP energy per Si atom -5586.684341 kJ/mol
# Density = 1.975268 g / cm^3
# Si number density = 19.797737 Si / 1000 Ang^3
#
#
#
# Elastic Constant Matrix: (Units=GPa)
#
#
# Indices 1 2 3 4 5 6 
#
# 1 139.8748 16.1294 53.8456 0.0000 0.0000 0.0000
# 2 16.1294 81.5672 33.3638 0.0000 0.0000 0.0000
# 3 53.8456 33.3638 82.9341 0.0000 0.0000 0.0000
# 4 0.0000 0.0000 0.0000 12.5086 0.0000 0.0000
# 5 0.0000 0.0000 0.0000 0.0000 67.6734 0.0000
# 6 0.0000 0.0000 0.0000 0.0000 0.0000 14.1124
#
#
#
# Elastic Compliance Matrix: (Units=1/GPa)
#
#
# Indices 1 2 3 4 5 6 
#
# 1 0.009572 0.000777 -0.006528 0.000000 0.000000 0.000000
# 2 0.000777 0.014738 -0.006433 0.000000 0.000000 0.000000
# 3 -0.006528 -0.006433 0.018884 0.000000 0.000000 0.000000
# 4 0.000000 0.000000 0.000000 0.079945 0.000000 0.000000
# 5 0.000000 0.000000 0.000000 0.000000 0.014777 0.000000
# 6 0.000000 0.000000 0.000000 0.000000 0.000000 0.070859
#
#
# Mechanical properties :
#
#
# Convention : Reuss Voigt Hill
#
# Bulk Modulus (GPa) = 53.11721 56.78374 54.95048
# Shear Modulus (GPa) = 20.88391 32.26139 26.57265
#
# Velocity S-wave (km/s) = 3.25139 4.04115 3.66759
# Velocity P-wave (km/s) = 6.40184 7.10765 6.76396
#
# Compressibility (1/GPa) = 0.01882629
#
# Stress axis : x y z
#
# Youngs Moduli (GPa) = 104.46604 67.85351 52.95493
#
# Poissons Ratio (x) = -0.05273 0.34567
# Poissons Ratio (y) = -0.08118 0.34068
# Poissons Ratio (z) = 0.68192 0.43653
#
# Static dielectric constant tensor:
#      x y z
#    x 1.665140 0.000000 0.000000 
#    y 0.000000 1.739150 0.000000 
#    z 0.000000 0.000000 1.656180 
# 
# From -- ./inp_files/7742.got.cif
#   From: 2010.05.17/outbox.cif.g08.bks.cpg/sg67_4_cif.got.tgz:7742.got - 2010.06.03 18:28:57.
