data_PCOD9504419
_publ_section_title
;
Structure prediction by ZEFSAII (Michael W. Deem and Ramdas Pophale) SiO2 
 PCOD9504419
Probable space group: C M M A
;
_chemical_formula_sum "Si O2"
_cell_formula_units_Z 96
_cell_length_a 15.067952
_cell_length_b 14.637449
_cell_length_c 22.567283
_cell_angle_alpha 90.000000
_cell_angle_beta 90.000000
_cell_angle_gamma 90.000000
_cell_volume 4977.358221
_symmetry_space_group_name_H-M "C M M A"
_symmetry_group_IT_number 67
_symmetry_cell_setting 'orthorhombic'
loop_
_space_group_symop_operation_xyz
x,y,z
-x,1/2-y,z
x,-y,-z
-x,1/2+y,-z
-x,-y,-z
x,1/2+y,-z
-x,y,z
x,1/2-y,z
1/2+x,1/2+y,z
1/2-x,-y,z
1/2+x,1/2-y,-z
1/2-x,y,-z
1/2-x,1/2-y,-z
1/2+x,y,-z
1/2-x,1/2+y,z
1/2+x,-y,z
loop_
_atom_site_type_symbol
_atom_site_label
_atom_site_fract_x
_atom_site_fract_y
_atom_site_fract_z
Si Si1 0.500000 0.638669 0.192444
Si Si2 0.000000 0.857084 0.431375
Si Si3 0.339581 0.603784 0.978678
Si Si4 0.000000 0.643014 0.573961
Si Si5 0.856241 0.501750 0.383274
Si Si6 0.500000 0.150280 0.938805
Si Si7 0.102354 0.852782 0.149455
Si Si8 0.145204 0.004059 0.241625
O O1 0.500000 0.750000 0.201641
O O2 0.500000 0.598176 0.123845
O O3 0.588106 0.592402 0.221193
O O4 0.000000 0.860355 0.502651
O O5 0.000000 0.750000 0.413145
O O6 0.087216 0.912605 0.409059
O O7 0.347985 0.610766 0.908517
O O8 0.338906 0.500000 0.000000
O O9 0.250000 0.648789 0.000000
O O10 0.418727 0.641774 0.017302
O O11 0.912737 0.587243 0.595839
O O12 0.000000 0.750000 0.592340
O O13 0.750000 0.500000 0.398690
O O14 0.863202 0.505678 0.312083
O O15 0.500000 0.250000 0.913092
O O16 0.133130 0.750000 0.163170
O O17 0.000000 0.848285 0.130625
O O18 0.108095 0.918208 0.205361
O O19 0.250000 0.000000 0.227224
#
# Coordination Sequence:
#
# PCOD9504419 Si02
#       8
#     8   8  16   8  16   8  16  16
#     4  11  24  42  66  90 121 165 209 265 325 385
#     4  10  22  39  64 100 136 169 213 266 314 373
#     4  11  24  39  61  85 113 154 196 254 320 381
#     4  10  22  40  65  99 136 171 213 264 315 371
#     4  10  22  41  64  92 128 176 217 263 315 375
#     4  11  23  39  56  81 113 143 191 249 305 381
#     4  11  24  41  62  87 118 158 205 259 321 385
#     4  11  25  43  64  91 127 164 215 266 315 376
#
# _framework density 19.28734
#
# number of rings (size 3 to 8) (size 9 to 14) (size 15 to 20)
#    0.000    1.333    1.667    3.750    4.667    6.000 
#    0.000    5.000    0.000    0.000    0.000    0.000 
#    0.000    0.000    0.000    0.000    0.000    0.000 
#
# Total GULP energy -267545.470376 kJ/mol
# GULP energy per Si atom -5573.863966 kJ/mol
# Density = 1.924344 g / cm^3
# Si number density = 19.287340 Si / 1000 Ang^3
#
#
#
# Elastic Constant Matrix: (Units=GPa)
#
#
# Indices 1 2 3 4 5 6 
#
# 1 161.8885 58.4138 47.3067 0.0000 0.0000 0.0000
# 2 58.4138 165.4554 41.9294 0.0000 0.0000 0.0000
# 3 47.3067 41.9294 89.4030 0.0000 0.0000 0.0000
# 4 0.0000 0.0000 0.0000 -7.3500 0.0000 0.0000
# 5 0.0000 0.0000 0.0000 0.0000 124.4160 0.0000
# 6 0.0000 0.0000 0.0000 0.0000 0.0000 128.1921
#
#
#
# Elastic Compliance Matrix: (Units=1/GPa)
#
#
# Indices 1 2 3 4 5 6 
#
# 1 0.007821 -0.001944 -0.003227 0.000000 0.000000 0.000000
# 2 -0.001944 0.007342 -0.002415 0.000000 0.000000 0.000000
# 3 -0.003227 -0.002415 0.014026 0.000000 0.000000 0.000000
# 4 0.000000 0.000000 0.000000 -0.136055 0.000000 0.000000
# 5 0.000000 0.000000 0.000000 0.000000 0.008038 0.000000
# 6 0.000000 0.000000 0.000000 0.000000 0.000000 0.007801
#
#
# Mechanical properties :
#
#
# Convention : Reuss Voigt Hill
#
# Bulk Modulus (GPa) = 71.33818 79.11630 75.22724
# Shear Modulus (GPa) = -70.24095 66.99143 -1.62476
#
# Velocity S-wave (km/s) = -6.04129 5.89990 -0.91882
# Velocity P-wave (km/s) = 3.40523 9.35524 6.16137
#
# Compressibility (1/GPa) = 0.01401774
#
# Stress axis : x y z
#
# Youngs Moduli (GPa) = 127.85457 136.20109 71.29861
#
# Poissons Ratio (x) = 0.26471 0.23009
# Poissons Ratio (y) = 0.24849 0.17219
# Poissons Ratio (z) = 0.41260 0.32892
#
# Static dielectric constant tensor:
#      x y z
#    x 1.608350 0.000000 0.000000 
#    y 0.000000 1.667630 0.000000 
#    z 0.000000 0.000000 1.652940 
# 
# From -- ./inp_files/38559.got.cif
#   From: 2010.05.17/outbox.cif.g08.bks.cpg/sg67_20_cif.got.tgz:38559.got - 2010.06.03 18:28:57.
