data_PCOD9504950
_publ_section_title
;
Structure prediction by ZEFSAII (Michael W. Deem and Ramdas Pophale) SiO2 
 PCOD9504950
Probable space group: C M M A
;
_chemical_formula_sum "Si O2"
_cell_formula_units_Z 96
_cell_length_a 24.801455
_cell_length_b 14.315908
_cell_length_c 13.452728
_cell_angle_alpha 90.000000
_cell_angle_beta 90.000000
_cell_angle_gamma 90.000000
_cell_volume 4776.463022
_symmetry_space_group_name_H-M "C M M A"
_symmetry_group_IT_number 67
_symmetry_cell_setting 'orthorhombic'
loop_
_space_group_symop_operation_xyz
x,y,z
-x,1/2-y,z
x,-y,-z
-x,1/2+y,-z
-x,-y,-z
x,1/2+y,-z
-x,y,z
x,1/2-y,z
1/2+x,1/2+y,z
1/2-x,-y,z
1/2+x,1/2-y,-z
1/2-x,y,-z
1/2-x,1/2-y,-z
1/2+x,y,-z
1/2-x,1/2+y,z
1/2+x,-y,z
loop_
_atom_site_type_symbol
_atom_site_label
_atom_site_fract_x
_atom_site_fract_y
_atom_site_fract_z
Si Si1 0.213185 0.250000 0.595232
Si Si2 0.304322 0.049900 0.814158
Si Si3 0.439561 0.910968 0.724776
Si Si4 0.919050 0.546226 0.896738
Si Si5 0.256982 0.250000 0.804842
Si Si6 0.061161 0.250000 0.036442
Si Si7 0.342006 0.546795 0.606528
Si Si8 0.372543 0.750000 0.836511
O O1 0.250000 0.250000 0.500000
O O2 0.253127 0.250000 0.686892
O O3 0.180275 0.346912 0.603342
O O4 0.355647 0.028374 0.880836
O O5 0.290080 0.157984 0.829246
O O6 0.250000 0.000000 0.845783
O O7 0.317474 0.012177 0.700890
O O8 0.500000 0.874836 0.705428
O O9 0.405738 0.944901 0.629819
O O10 0.399734 0.837433 0.779686
O O11 0.443917 0.995649 0.802274
O O12 0.931165 0.655600 0.901957
O O13 0.936756 0.500000 0.000000
O O14 0.192973 0.250000 0.836023
O O15 0.000000 0.250000 0.994110
O O16 0.104077 0.250000 0.947355
O O17 0.330531 0.500000 0.500000
#
# Coordination Sequence:
#
# PCOD9504950 Si02
#       8
#     8  16  16  16   8   8  16   8
#     4  12  22  36  61  89 121 160 204 258 305 352
#     4  11  23  40  62  88 128 170 201 252 307 363
#     4  11  22  41  67  90 126 165 202 262 317 357
#     4  11  24  41  60  93 124 161 215 252 302 375
#     4  12  21  40  59  85 128 162 201 251 308 366
#     4  12  25  41  64  91 122 160 210 264 308 361
#     4  11  24  41  62  95 126 159 214 254 300 380
#     4  12  22  39  62  97 122 155 212 259 303 370
#
# _framework density 20.098554
#
# number of rings (size 3 to 8) (size 9 to 14) (size 15 to 20)
#    0.000    0.667    5.000    3.750    0.000    1.333 
#    0.000    1.667    0.000    0.000    0.000    0.000 
#    0.000    0.000    0.000    0.000    0.000    0.000 
#
# Total GULP energy -268031.372259 kJ/mol
# GULP energy per Si atom -5583.986922 kJ/mol
# Density = 2.005281 g / cm^3
# Si number density = 20.098554 Si / 1000 Ang^3
#
#
#
# Elastic Constant Matrix: (Units=GPa)
#
#
# Indices 1 2 3 4 5 6 
#
# 1 127.9308 11.8232 6.9927 0.0000 0.0000 0.0000
# 2 11.8232 136.7445 14.5234 0.0000 0.0000 0.0000
# 3 6.9927 14.5234 37.3737 0.0000 0.0000 0.0000
# 4 0.0000 0.0000 0.0000 17.0759 0.0000 0.0000
# 5 0.0000 0.0000 0.0000 0.0000 -18.6363 0.0000
# 6 0.0000 0.0000 0.0000 0.0000 0.0000 -31.4410
#
#
#
# Elastic Compliance Matrix: (Units=1/GPa)
#
#
# Indices 1 2 3 4 5 6 
#
# 1 0.007937 -0.000551 -0.001271 0.000000 0.000000 0.000000
# 2 -0.000551 0.007666 -0.002876 0.000000 0.000000 0.000000
# 3 -0.001271 -0.002876 0.028112 0.000000 0.000000 0.000000
# 4 0.000000 0.000000 0.000000 0.058562 0.000000 0.000000
# 5 0.000000 0.000000 0.000000 0.000000 -0.053659 0.000000
# 6 0.000000 0.000000 0.000000 0.000000 0.000000 -0.031806
#
#
# Mechanical properties :
#
#
# Convention : Reuss Voigt Hill
#
# Bulk Modulus (GPa) = 29.13810 40.96973 35.05392
# Shear Modulus (GPa) = 132.80589 11.31368 72.05978
#
# Velocity S-wave (km/s) = 8.13762 2.37515 5.99425
# Velocity P-wave (km/s) = 10.14019 5.28682 8.08622
#
# Compressibility (1/GPa) = 0.03431933
#
# Stress axis : x y z
#
# Youngs Moduli (GPa) = 125.98995 130.44584 35.57180
#
# Poissons Ratio (x) = 0.07191 0.04521
# Poissons Ratio (y) = 0.06946 0.10230
# Poissons Ratio (z) = 0.16011 0.37515
#
# Static dielectric constant tensor:
#      x y z
#    x 1.740150 0.000000 0.000000 
#    y 0.000000 1.906980 0.000000 
#    z 0.000000 0.000000 1.680690 
# 
# From -- ./inp_files/30105.got.cif
#   From: 2010.05.17/outbox.cif.g08.bks.cpg/sg67_16_cif.got.tgz:30105.got - 2010.06.03 18:28:57.
