data_PCOD9504984
_publ_section_title
;
Structure prediction by ZEFSAII (Michael W. Deem and Ramdas Pophale) SiO2 
 PCOD9504984
Probable space group: C M M A
;
_chemical_formula_sum "Si O2"
_cell_formula_units_Z 64
_cell_length_a 17.167806
_cell_length_b 20.987652
_cell_length_c 8.631137
_cell_angle_alpha 90.000000
_cell_angle_beta 90.000000
_cell_angle_gamma 90.000000
_cell_volume 3109.901699
_symmetry_space_group_name_H-M "C M M A"
_symmetry_group_IT_number 67
_symmetry_cell_setting 'orthorhombic'
loop_
_space_group_symop_operation_xyz
x,y,z
-x,1/2-y,z
x,-y,-z
-x,1/2+y,-z
-x,-y,-z
x,1/2+y,-z
-x,y,z
x,1/2-y,z
1/2+x,1/2+y,z
1/2-x,-y,z
1/2+x,1/2-y,-z
1/2-x,y,-z
1/2-x,1/2-y,-z
1/2+x,y,-z
1/2-x,1/2+y,z
1/2+x,-y,z
loop_
_atom_site_type_symbol
_atom_site_label
_atom_site_fract_x
_atom_site_fract_y
_atom_site_fract_z
Si Si1 0.592056 0.820572 0.862434
Si Si2 0.581206 0.985129 0.677976
Si Si3 0.151334 0.431190 0.089118
Si Si4 0.784253 0.615050 0.325181
O O1 0.500000 0.822562 0.822029
O O2 0.605512 0.750000 0.931352
O O3 0.654226 0.830013 0.722564
O O4 0.614999 0.878317 0.977005
O O5 0.500000 0.952914 0.727670
O O6 0.660339 0.946305 0.683890
O O7 0.574720 0.000000 0.500000
O O8 0.590865 0.047366 0.780319
O O9 0.221508 0.399101 0.188273
O O10 0.165944 0.500000 0.000000
O O11 0.750000 0.621376 0.500000
#
# Coordination Sequence:
#
# PCOD9504984 Si02
#       4
#    16  16  16  16
#     4  11  27  49  70  96 135 182 229 280 340 405
#     4  11  23  38  62  98 139 180 219 273 338 397
#     4  12  25  40  69 105 136 174 225 285 337 402
#     4  12  25  41  67 100 138 175 227 277 337 398
#
# _framework density 20.579429999999999
#
# number of rings (size 3 to 8) (size 9 to 14) (size 15 to 20)
#    0.000    0.500    5.000    3.000    3.500    3.500 
#    0.000    0.000    0.000    3.000    0.000    0.000 
#    0.000    0.000    0.000    0.000    0.000    0.000 
#
# Total GULP energy -178208.703073 kJ/mol
# GULP energy per Si atom -5569.021971 kJ/mol
# Density = 2.053259 g / cm^3
# Si number density = 20.579430 Si / 1000 Ang^3
#
#
#
# Elastic Constant Matrix: (Units=GPa)
#
#
# Indices 1 2 3 4 5 6 
#
# 1 153.2199 41.0468 66.3152 0.0000 0.0000 0.0000
# 2 41.0468 127.7595 53.6332 0.0000 0.0000 0.0000
# 3 66.3152 53.6332 135.1026 0.0000 0.0000 0.0000
# 4 0.0000 0.0000 0.0000 18.4774 0.0000 0.0000
# 5 0.0000 0.0000 0.0000 0.0000 1167.4359 0.0000
# 6 0.0000 0.0000 0.0000 0.0000 0.0000 35.7848
#
#
#
# Elastic Compliance Matrix: (Units=1/GPa)
#
#
# Indices 1 2 3 4 5 6 
#
# 1 0.008429 -0.001165 -0.003675 0.000000 0.000000 0.000000
# 2 -0.001165 0.009554 -0.003221 0.000000 0.000000 0.000000
# 3 -0.003675 -0.003221 0.010484 0.000000 0.000000 0.000000
# 4 0.000000 0.000000 0.000000 0.054120 0.000000 0.000000
# 5 0.000000 0.000000 0.000000 0.000000 0.000857 0.000000
# 6 0.000000 0.000000 0.000000 0.000000 0.000000 0.027945
#
#
# Mechanical properties :
#
#
# Convention : Reuss Voigt Hill
#
# Bulk Modulus (GPa) = 81.00270 82.00806 81.50538
# Shear Modulus (GPa) = 37.98655 261.34539 149.66597
#
# Velocity S-wave (km/s) = 4.30100 11.28137 8.53721
# Velocity P-wave (km/s) = 8.00695 14.47855 11.69914
#
# Compressibility (1/GPa) = 0.01234527
#
# Stress axis : x y z
#
# Youngs Moduli (GPa) = 118.63357 104.67223 95.38267
#
# Poissons Ratio (x) = 0.12199 0.35052
# Poissons Ratio (y) = 0.13827 0.30718
# Poissons Ratio (z) = 0.43596 0.33710
#
# Static dielectric constant tensor:
#      x y z
#    x 1.817970 0.000000 0.000000 
#    y 0.000000 1.784260 0.000000 
#    z 0.000000 0.000000 1.765530 
# 
# From -- ./inp_files/9346.got.cif
#   From: 2010.05.17/outbox.cif.g08.bks.cpg/sg67_5_cif.got.tgz:9346.got - 2010.06.03 18:28:57.
