data_PCOD9504593
_publ_section_title
;
Structure prediction by ZEFSAII (Michael W. Deem and Ramdas Pophale) SiO2 
 PCOD9504593
Probable space group: C M M A
;
_chemical_formula_sum "Si O2"
_cell_formula_units_Z 52
_cell_length_a 13.667451
_cell_length_b 15.649281
_cell_length_c 9.833308
_cell_angle_alpha 90.000000
_cell_angle_beta 90.000000
_cell_angle_gamma 90.000000
_cell_volume 2103.204764
_symmetry_space_group_name_H-M "C M M A"
_symmetry_group_IT_number 67
_symmetry_cell_setting 'orthorhombic'
loop_
_space_group_symop_operation_xyz
x,y,z
-x,1/2-y,z
x,-y,-z
-x,1/2+y,-z
-x,-y,-z
x,1/2+y,-z
-x,y,z
x,1/2-y,z
1/2+x,1/2+y,z
1/2-x,-y,z
1/2+x,1/2-y,-z
1/2-x,y,-z
1/2-x,1/2-y,-z
1/2+x,y,-z
1/2-x,1/2+y,z
1/2+x,-y,z
loop_
_atom_site_type_symbol
_atom_site_label
_atom_site_fract_x
_atom_site_fract_y
_atom_site_fract_z
Si Si1 0.635358 0.096484 0.029917
Si Si2 0.500000 0.250000 0.941816
Si Si3 0.110258 0.092279 0.427812
Si Si4 0.199039 0.152979 0.696135
O O1 0.582823 0.173491 0.954036
O O2 0.628515 0.113222 0.191558
O O3 0.750000 0.101393 0.000000
O O4 0.603677 0.000000 0.000000
O O5 0.143284 0.152538 0.552009
O O6 0.198906 0.101735 0.321833
O O7 0.000000 0.110397 0.378555
O O8 0.111922 0.000000 0.500000
O O9 0.222061 0.250000 0.734344
#
# Coordination Sequence:
#
# PCOD9504593 Si02
#       4
#    16   4  16  16
#     4  11  27  47  74 107 147 196 243 308 376 434
#     4  12  24  52  72 110 140 192 260 302 364 448
#     4  10  23  41  67 106 140 183 236 290 362 439
#     4  11  23  42  72 100 141 187 232 297 361 433
#
# _framework density 24.724173
#
# number of rings (size 3 to 8) (size 9 to 14) (size 15 to 20)
#    0.000    1.231    1.538    4.615   10.769    2.462 
#    2.769    0.000    0.000    0.000    0.000    0.000 
#    0.000    0.000    0.000    0.000    0.000    0.000 
#
# Total GULP energy -145060.153062 kJ/mol
# GULP energy per Si atom -5579.236656 kJ/mol
# Density = 2.466790 g / cm^3
# Si number density = 24.724173 Si / 1000 Ang^3
#
#
#
# Elastic Constant Matrix: (Units=GPa)
#
#
# Indices 1 2 3 4 5 6 
#
# 1 163.9525 64.6982 -5.4232 0.0000 0.0000 0.0000
# 2 64.6982 208.1607 3.7398 0.0000 0.0000 0.0000
# 3 -5.4232 3.7398 53.7631 0.0000 0.0000 0.0000
# 4 0.0000 0.0000 0.0000 19.8865 0.0000 0.0000
# 5 0.0000 0.0000 0.0000 0.0000 -22.1171 0.0000
# 6 0.0000 0.0000 0.0000 0.0000 0.0000 63.9950
#
#
#
# Elastic Compliance Matrix: (Units=1/GPa)
#
#
# Indices 1 2 3 4 5 6 
#
# 1 0.006991 -0.002188 0.000857 0.000000 0.000000 0.000000
# 2 -0.002188 0.005495 -0.000603 0.000000 0.000000 0.000000
# 3 0.000857 -0.000603 0.018729 0.000000 0.000000 0.000000
# 4 0.000000 0.000000 0.000000 0.050285 0.000000 0.000000
# 5 0.000000 0.000000 0.000000 0.000000 -0.045214 0.000000
# 6 0.000000 0.000000 0.000000 0.000000 0.000000 0.015626
#
#
# Mechanical properties :
#
#
# Convention : Reuss Voigt Hill
#
# Bulk Modulus (GPa) = 36.56706 61.32289 48.94497
# Shear Modulus (GPa) = 77.04633 36.54363 56.79498
#
# Velocity S-wave (km/s) = 5.58838 3.84872 4.79805
# Velocity P-wave (km/s) = 7.51413 6.67883 7.10876
#
# Compressibility (1/GPa) = 0.02734702
#
# Stress axis : x y z
#
# Youngs Moduli (GPa) = 143.03601 181.98461 53.39438
#
# Poissons Ratio (x) = 0.39825 -0.04578
# Poissons Ratio (y) = 0.31301 0.03220
# Poissons Ratio (z) = -0.12265 0.10973
#
# Static dielectric constant tensor:
#      x y z
#    x 1.956090 0.000000 0.000000 
#    y 0.000000 1.980620 0.000000 
#    z 0.000000 0.000000 2.069260 
# 
# From -- ./inp_files/17203.got.cif
#   From: 2010.05.17/outbox.cif.g08.bks.cpg/sg67_9_cif.got.tgz:17203.got - 2010.06.03 18:28:57.
