data_PCOD9504161
_publ_section_title
;
Structure prediction by ZEFSAII (Michael W. Deem and Ramdas Pophale) SiO2 
 PCOD9504161
Probable space group: C M M A
;
_chemical_formula_sum "Si O2"
_cell_formula_units_Z 80
_cell_length_a 19.198497
_cell_length_b 8.839267
_cell_length_c 25.898344
_cell_angle_alpha 90.000000
_cell_angle_beta 90.000000
_cell_angle_gamma 90.000000
_cell_volume 4394.965577
_symmetry_space_group_name_H-M "C M M A"
_symmetry_group_IT_number 67
_symmetry_cell_setting 'orthorhombic'
loop_
_space_group_symop_operation_xyz
x,y,z
-x,1/2-y,z
x,-y,-z
-x,1/2+y,-z
-x,-y,-z
x,1/2+y,-z
-x,y,z
x,1/2-y,z
1/2+x,1/2+y,z
1/2-x,-y,z
1/2+x,1/2-y,-z
1/2-x,y,-z
1/2-x,1/2-y,-z
1/2+x,y,-z
1/2-x,1/2+y,z
1/2+x,-y,z
loop_
_atom_site_type_symbol
_atom_site_label
_atom_site_fract_x
_atom_site_fract_y
_atom_site_fract_z
Si Si1 0.082734 0.571216 0.142469
Si Si2 0.673302 0.070342 0.946361
Si Si3 0.326976 0.069662 0.647769
Si Si4 0.581571 0.569333 0.556506
Si Si5 0.081820 0.431471 0.737948
O O1 0.097589 0.750000 0.135040
O O2 0.125679 0.476070 0.101545
O O3 0.098564 0.534025 0.202246
O O4 0.000000 0.549882 0.135416
O O5 0.678592 0.250000 0.951423
O O6 0.750000 0.000000 0.938794
O O7 0.645587 0.000000 0.000000
O O8 0.323036 0.250000 0.645123
O O9 0.250000 0.000000 0.648818
O O10 0.369230 0.005399 0.598832
O O11 0.369396 0.017691 0.698331
O O12 0.594568 0.500000 0.500000
O O13 0.500000 0.540839 0.569292
O O14 0.591857 0.750000 0.555481
O O15 0.089577 0.250000 0.730814
O O16 0.000000 0.466603 0.729220
#
# Coordination Sequence:
#
# PCOD9504161 Si02
#       5
#    16  16  16  16  16
#     4   9  19  37  60  85 113 145 183 228 278 331
#     4  11  22  37  57  80 110 147 187 230 277 332
#     4  12  25  39  57  83 116 152 191 234 280 331
#     4  10  21  39  63  89 117 149 187 230 277 332
#     4   9  19  38  62  85 112 147 185 228 279 333
#
# _framework density 18.202645
#
# number of rings (size 3 to 8) (size 9 to 14) (size 15 to 20)
#    0.000    1.800    0.000    6.600    0.000    6.800 
#    0.000    4.000    0.000    0.000    0.000    0.000 
#    0.000    0.000    0.000    0.000    0.000    0.000 
#
# Total GULP energy -223546.396774 kJ/mol
# GULP energy per Si atom -5588.659919 kJ/mol
# Density = 1.816122 g / cm^3
# Si number density = 18.202645 Si / 1000 Ang^3
#
#
#
# Elastic Constant Matrix: (Units=GPa)
#
#
# Indices 1 2 3 4 5 6 
#
# 1 97.9455 87.6664 99.4563 0.0000 0.0000 0.0000
# 2 87.6664 145.9047 102.7804 0.0000 0.0000 0.0000
# 3 99.4563 102.7804 140.0826 0.0000 0.0000 0.0000
# 4 0.0000 0.0000 0.0000 34.3495 0.0000 0.0000
# 5 0.0000 0.0000 0.0000 0.0000 84.5000 0.0000
# 6 0.0000 0.0000 0.0000 0.0000 0.0000 29.2489
#
#
#
# Elastic Compliance Matrix: (Units=1/GPa)
#
#
# Indices 1 2 3 4 5 6 
#
# 1 0.041203 -0.008589 -0.022952 0.000000 0.000000 0.000000
# 2 -0.008589 0.015976 -0.005624 0.000000 0.000000 0.000000
# 3 -0.022952 -0.005624 0.027560 0.000000 0.000000 0.000000
# 4 0.000000 0.000000 0.000000 0.029113 0.000000 0.000000
# 5 0.000000 0.000000 0.000000 0.000000 0.011834 0.000000
# 6 0.000000 0.000000 0.000000 0.000000 0.000000 0.034189
#
#
# Mechanical properties :
#
#
# Convention : Reuss Voigt Hill
#
# Bulk Modulus (GPa) = 96.05700 107.08212 101.56956
# Shear Modulus (GPa) = 21.03721 35.88833 28.46277
#
# Velocity S-wave (km/s) = 3.40328 4.44509 3.95861
# Velocity P-wave (km/s) = 8.26611 9.23583 8.76439
#
# Compressibility (1/GPa) = 0.01041049
#
# Stress axis : x y z
#
# Youngs Moduli (GPa) = 24.27023 62.59406 36.28392
#
# Poissons Ratio (x) = 0.53759 0.83278
# Poissons Ratio (y) = 0.20845 0.20406
# Poissons Ratio (z) = 0.55704 0.35203
#
# Static dielectric constant tensor:
#      x y z
#    x 1.598030 0.000000 0.000000 
#    y 0.000000 1.604830 0.000000 
#    z 0.000000 0.000000 1.608110 
# 
# From -- ./inp_files/44447.got.cif
#   From: 2010.05.17/outbox.cif.g08.bks.cpg/sg67_23_cif.got.tgz:44447.got - 2010.06.03 18:28:57.
