data_PCOD9504624
_publ_section_title
;
Structure prediction by ZEFSAII (Michael W. Deem and Ramdas Pophale) SiO2 
 PCOD9504624
Probable space group: C M M A
;
_chemical_formula_sum "Si O2"
_cell_formula_units_Z 56
_cell_length_a 16.326845
_cell_length_b 10.205367
_cell_length_c 16.237684
_cell_angle_alpha 90.000000
_cell_angle_beta 90.000000
_cell_angle_gamma 90.000000
_cell_volume 2705.546374
_symmetry_space_group_name_H-M "C M M A"
_symmetry_group_IT_number 67
_symmetry_cell_setting 'orthorhombic'
loop_
_space_group_symop_operation_xyz
x,y,z
-x,1/2-y,z
x,-y,-z
-x,1/2+y,-z
-x,-y,-z
x,1/2+y,-z
-x,y,z
x,1/2-y,z
1/2+x,1/2+y,z
1/2-x,-y,z
1/2+x,1/2-y,-z
1/2-x,y,-z
1/2-x,1/2-y,-z
1/2+x,y,-z
1/2-x,1/2+y,z
1/2+x,-y,z
loop_
_atom_site_type_symbol
_atom_site_label
_atom_site_fract_x
_atom_site_fract_y
_atom_site_fract_z
Si Si1 0.500000 0.906004 0.421722
Si Si2 0.322276 0.102116 0.657609
Si Si3 0.591416 0.750000 0.847337
Si Si4 0.848193 0.750000 0.970719
Si Si5 0.838055 0.968434 0.844095
O O1 0.500000 0.750000 0.441797
O O2 0.414143 0.930748 0.373710
O O3 0.500000 0.000000 0.500000
O O4 0.302064 0.250000 0.629314
O O5 0.327225 0.102722 0.757067
O O6 0.250000 0.000000 0.634483
O O7 0.500000 0.750000 0.818197
O O8 0.627123 0.610453 0.821864
O O9 0.601992 0.750000 0.945613
O O10 0.873370 0.873952 0.913768
O O11 0.750000 0.750000 0.000000
O O12 0.750000 0.000000 0.880820
#
# Coordination Sequence:
#
# PCOD9504624 Si02
#       5
#     8  16   8   8  16
#     4  10  24  48  72 104 137 171 216 262 333 405
#     4  10  23  43  68 101 135 175 221 265 328 402
#     4  12  28  40  56  96 128 161 228 289 327 374
#     4  12  22  40  64  90 124 179 226 273 331 383
#     4  11  22  41  64  89 129 175 222 268 329 391
#
# _framework density 20.698222999999999
#
# number of rings (size 3 to 8) (size 9 to 14) (size 15 to 20)
#    0.000    1.143    4.286    0.857    8.000    4.000 
#    0.000    2.857    0.000    0.000    0.000    0.000 
#    0.000    0.000    0.000    0.000    0.000    0.000 
#
# Total GULP energy -156044.889517 kJ/mol
# GULP energy per Si atom -5573.031768 kJ/mol
# Density = 2.065111 g / cm^3
# Si number density = 20.698223 Si / 1000 Ang^3
#
#
#
# Elastic Constant Matrix: (Units=GPa)
#
#
# Indices 1 2 3 4 5 6 
#
# 1 100.0070 68.8236 3.8114 0.0000 0.0000 0.0000
# 2 68.8236 145.7307 16.4068 0.0000 0.0000 0.0000
# 3 3.8114 16.4068 47.2153 0.0000 0.0000 0.0000
# 4 0.0000 0.0000 0.0000 32.8496 0.0000 0.0000
# 5 0.0000 0.0000 0.0000 0.0000 32.7030 0.0000
# 6 0.0000 0.0000 0.0000 0.0000 0.0000 26.3367
#
#
#
# Elastic Compliance Matrix: (Units=1/GPa)
#
#
# Indices 1 2 3 4 5 6 
#
# 1 0.014889 -0.007177 0.001292 0.000000 0.000000 0.000000
# 2 -0.007177 0.010601 -0.003104 0.000000 0.000000 0.000000
# 3 0.001292 -0.003104 0.022154 0.000000 0.000000 0.000000
# 4 0.000000 0.000000 0.000000 0.030442 0.000000 0.000000
# 5 0.000000 0.000000 0.000000 0.000000 0.030578 0.000000
# 6 0.000000 0.000000 0.000000 0.000000 0.000000 0.037970
#
#
# Mechanical properties :
#
#
# Convention : Reuss Voigt Hill
#
# Bulk Modulus (GPa) = 33.70934 52.33739 43.02336
# Shear Modulus (GPa) = 28.65305 31.97195 30.31250
#
# Velocity S-wave (km/s) = 3.72469 3.93449 3.83103
# Velocity P-wave (km/s) = 5.90078 6.78094 6.35611
#
# Compressibility (1/GPa) = 0.02966537
#
# Stress axis : x y z
#
# Youngs Moduli (GPa) = 67.16238 94.33076 45.13858
#
# Poissons Ratio (x) = 0.67703 -0.05832
# Poissons Ratio (y) = 0.48204 0.14013
# Poissons Ratio (z) = -0.08678 0.29284
#
# Static dielectric constant tensor:
#      x y z
#    x 1.617130 0.000000 0.000000 
#    y 0.000000 1.782970 0.000000 
#    z 0.000000 0.000000 1.700640 
# 
# From -- ./inp_files/31643.got.cif
#   From: 2010.05.17/outbox.cif.g08.bks.cpg/sg67_16_cif.got.tgz:31643.got - 2010.06.03 18:28:57.
