data_PCOD9504292
_publ_section_title
;
Structure prediction by ZEFSAII (Michael W. Deem and Ramdas Pophale) SiO2 
 PCOD9504292
Probable space group: C M M A
;
_chemical_formula_sum "Si O2"
_cell_formula_units_Z 112
_cell_length_a 15.658190
_cell_length_b 15.019338
_cell_length_c 21.459943
_cell_angle_alpha 90.000000
_cell_angle_beta 90.000000
_cell_angle_gamma 90.000000
_cell_volume 5046.856003
_symmetry_space_group_name_H-M "C M M A"
_symmetry_group_IT_number 67
_symmetry_cell_setting 'orthorhombic'
loop_
_space_group_symop_operation_xyz
x,y,z
-x,1/2-y,z
x,-y,-z
-x,1/2+y,-z
-x,-y,-z
x,1/2+y,-z
-x,y,z
x,1/2-y,z
1/2+x,1/2+y,z
1/2-x,-y,z
1/2+x,1/2-y,-z
1/2-x,y,-z
1/2-x,1/2-y,-z
1/2+x,y,-z
1/2-x,1/2+y,z
1/2+x,-y,z
loop_
_atom_site_type_symbol
_atom_site_label
_atom_site_fract_x
_atom_site_fract_y
_atom_site_fract_z
Si Si1 0.903544 0.847393 0.206951
Si Si2 0.899143 0.604137 0.015086
Si Si3 0.754414 0.891194 0.571714
Si Si4 0.331747 0.460206 0.784862
Si Si5 0.594812 0.597985 0.337681
Si Si6 0.231530 0.352645 0.095234
Si Si7 0.092023 0.883168 0.352559
O O1 0.865077 0.750000 0.190009
O O2 0.901029 0.849326 0.282148
O O3 0.000000 0.842844 0.184094
O O4 0.877756 0.949666 0.192876
O O5 0.826820 0.620912 0.069169
O O6 0.000000 0.635097 0.022835
O O7 0.905362 0.500000 0.000000
O O8 0.843812 0.638819 0.956224
O O9 0.750000 0.863235 0.500000
O O10 0.836296 0.866191 0.613484
O O11 0.671247 0.856428 0.606656
O O12 0.750000 0.000000 0.571714
O O13 0.250000 0.500000 0.747955
O O14 0.379933 0.398190 0.735581
O O15 0.296642 0.408195 0.844518
O O16 0.500000 0.633825 0.347427
O O17 0.591951 0.490839 0.348123
O O18 0.232997 0.250000 0.109758
O O19 0.000000 0.856067 0.378225
#
# Coordination Sequence:
#
# PCOD9504292 Si02
#       7
#    16  16  16  16  16  16  16
#     4   9  18  34  58  86 113 147 198 260 326 388
#     4  10  21  42  72 100 131 174 221 272 325 369
#     4   9  16  26  43  70 105 147 197 249 299 361
#     4  11  21  36  57  83 124 167 204 254 312 375
#     4   9  17  30  49  73 106 151 198 248 310 373
#     4  11  24  41  65 100 138 177 220 261 310 380
#     4   8  14  26  45  71 103 138 181 240 308 371
#
# _framework density 22.192034
#
# number of rings (size 3 to 8) (size 9 to 14) (size 15 to 20)
#    0.000    2.429    0.000    6.000    0.000    3.429 
#    0.000    4.286    0.000    1.286    0.000    0.000 
#    0.000    0.000    0.000    0.143    0.000    0.143 
#
# Total GULP energy -312074.714308 kJ/mol
# GULP energy per Si atom -5572.762756 kJ/mol
# Density = 2.214152 g / cm^3
# Si number density = 22.192034 Si / 1000 Ang^3
#
#
#
# Elastic Constant Matrix: (Units=GPa)
#
#
# Indices 1 2 3 4 5 6 
#
# 1 208.0136 42.0303 98.6691 0.0000 0.0000 0.0000
# 2 42.0303 107.9137 30.6483 0.0000 0.0000 0.0000
# 3 98.6691 30.6483 141.2928 0.0000 0.0000 0.0000
# 4 0.0000 0.0000 0.0000 366.1784 0.0000 0.0000
# 5 0.0000 0.0000 0.0000 0.0000 -4.6337 0.0000
# 6 0.0000 0.0000 0.0000 0.0000 0.0000 143.5920
#
#
#
# Elastic Compliance Matrix: (Units=1/GPa)
#
#
# Indices 1 2 3 4 5 6 
#
# 1 0.007412 -0.001510 -0.004849 0.000000 0.000000 0.000000
# 2 -0.001510 0.010183 -0.001154 0.000000 0.000000 0.000000
# 3 -0.004849 -0.001154 0.010714 0.000000 0.000000 0.000000
# 4 0.000000 0.000000 0.000000 0.002731 0.000000 0.000000
# 5 0.000000 0.000000 0.000000 0.000000 -0.215812 0.000000
# 6 0.000000 0.000000 0.000000 0.000000 0.000000 0.006964
#
#
# Mechanical properties :
#
#
# Convention : Reuss Voigt Hill
#
# Bulk Modulus (GPa) = 75.28478 88.87949 82.08213
# Shear Modulus (GPa) = -31.57483 120.08552 44.25535
#
# Velocity S-wave (km/s) = -3.77609 7.36407 4.47049
# Velocity P-wave (km/s) = 3.87118 10.60392 7.98214
#
# Compressibility (1/GPa) = 0.01328290
#
# Stress axis : x y z
#
# Youngs Moduli (GPa) = 134.90809 98.20695 93.33601
#
# Poissons Ratio (x) = 0.14828 0.45257
# Poissons Ratio (y) = 0.20370 0.10774
# Poissons Ratio (z) = 0.65415 0.11336
#
# Static dielectric constant tensor:
#      x y z
#    x 1.902100 0.000000 0.000000 
#    y 0.000000 1.816070 0.000000 
#    z 0.000000 0.000000 1.815840 
# 
# From -- ./inp_files/41915.got.cif
#   From: 2010.05.17/outbox.cif.g08.bks.cpg/sg67_21_cif.got.tgz:41915.got - 2010.06.03 18:28:57.
