data_PCOD9504840
_publ_section_title
;
Structure prediction by ZEFSAII (Michael W. Deem and Ramdas Pophale) SiO2 
 PCOD9504840
Probable space group: C M M A
;
_chemical_formula_sum "Si O2"
_cell_formula_units_Z 64
_cell_length_a 26.055723
_cell_length_b 26.055723
_cell_length_c 4.906253
_cell_angle_alpha 90.000000
_cell_angle_beta 90.000000
_cell_angle_gamma 90.000000
_cell_volume 3330.858601
_symmetry_space_group_name_H-M "C M M A"
_symmetry_group_IT_number 67
_symmetry_cell_setting 'orthorhombic'
loop_
_space_group_symop_operation_xyz
x,y,z
-x,1/2-y,z
x,-y,-z
-x,1/2+y,-z
-x,-y,-z
x,1/2+y,-z
-x,y,z
x,1/2-y,z
1/2+x,1/2+y,z
1/2-x,-y,z
1/2+x,1/2-y,-z
1/2-x,y,-z
1/2-x,1/2-y,-z
1/2+x,y,-z
1/2-x,1/2+y,z
1/2+x,-y,z
loop_
_atom_site_type_symbol
_atom_site_label
_atom_site_fract_x
_atom_site_fract_y
_atom_site_fract_z
Si Si1 0.059810 0.141779 0.014866
Si Si2 0.285194 0.308397 0.765039
Si Si3 0.558397 0.535194 0.265039
Si Si4 0.608221 0.809810 0.485134
O O1 0.091549 0.158451 0.750000
O O2 0.000000 0.134625 0.938722
O O3 0.079098 0.089485 0.160730
O O4 0.065871 0.184129 0.250000
O O5 0.297123 0.250000 0.863672
O O6 0.250000 0.305593 0.500000
O O7 0.339485 0.329098 0.660730
O O8 0.250000 0.333177 0.000000
O O9 0.583177 0.500000 0.500000
O O10 0.500000 0.547123 0.363672
O O11 0.555593 0.500000 0.000000
O O12 0.615375 0.750000 0.561278
#
# Coordination Sequence:
#
# PCOD9504840 Si02
#       4
#    16  16  16  16
#     4  11  22  34  49  72 104 141 178 214 257 319
#     4   9  17  31  50  69  91 124 169 221 268 301
#     4   9  17  31  50  69  91 124 169 221 268 301
#     4  11  22  34  49  72 104 141 178 214 257 319
#
# _framework density 19.214265000000001
#
# number of rings (size 3 to 8) (size 9 to 14) (size 15 to 20)
#    0.000    2.000    0.000    4.500    0.000   11.000 
#    0.000    0.000    0.000    0.000    0.000    0.000 
#    0.000   28.000    0.000    0.000    0.000    0.000 
#
# Total GULP energy -178315.526800 kJ/mol
# GULP energy per Si atom -5572.360213 kJ/mol
# Density = 1.917053 g / cm^3
# Si number density = 19.214265 Si / 1000 Ang^3
#
#
#
# Elastic Constant Matrix: (Units=GPa)
#
#
# Indices 1 2 3 4 5 6 
#
# 1 79.7934 40.0166 44.7514 0.0000 0.0000 0.0000
# 2 40.0166 79.7933 44.7514 0.0000 0.0000 0.0000
# 3 44.7514 44.7514 147.3720 0.0000 0.0000 0.0000
# 4 0.0000 0.0000 0.0000 37.8574 0.0000 0.0000
# 5 0.0000 0.0000 0.0000 0.0000 37.8574 0.0000
# 6 0.0000 0.0000 0.0000 0.0000 0.0000 2.2245
#
#
#
# Elastic Compliance Matrix: (Units=1/GPa)
#
#
# Indices 1 2 3 4 5 6 
#
# 1 0.017968 -0.007172 -0.003278 0.000000 0.000000 0.000000
# 2 -0.007172 0.017968 -0.003278 0.000000 0.000000 0.000000
# 3 -0.003278 -0.003278 0.008776 0.000000 0.000000 0.000000
# 4 0.000000 0.000000 0.000000 0.026415 0.000000 0.000000
# 5 0.000000 0.000000 0.000000 0.000000 0.026415 0.000000
# 6 0.000000 0.000000 0.000000 0.000000 0.000000 0.449539
#
#
# Mechanical properties :
#
#
# Convention : Reuss Voigt Hill
#
# Bulk Modulus (GPa) = 57.95523 62.88861 60.42192
# Shear Modulus (GPa) = 8.61638 27.41713 18.01676
#
# Velocity S-wave (km/s) = 2.11993 3.78155 3.06547
# Velocity P-wave (km/s) = 6.01832 7.20195 6.63658
#
# Compressibility (1/GPa) = 0.01725470
#
# Stress axis : x y z
#
# Youngs Moduli (GPa) = 55.65481 55.65479 113.94085
#
# Poissons Ratio (x) = 0.39918 0.37352
# Poissons Ratio (y) = 0.39918 0.37352
# Poissons Ratio (z) = 0.18245 0.18245
#
# Static dielectric constant tensor:
#      x y z
#    x 1.727630 0.000000 0.000000 
#    y 0.000000 1.727630 0.000000 
#    z 0.000000 0.000000 1.696640 
# 
# From -- ./inp_files/4116.got.cif
#   From: 2010.05.17/outbox.cif.g08.bks.cpg/sg67_3_cif.got.tgz:4116.got - 2010.06.03 18:28:57.
