data_PCOD9504142
_publ_section_title
;
Structure prediction by ZEFSAII (Michael W. Deem and Ramdas Pophale) SiO2 
 PCOD9504142
Probable space group: C M M A
;
_chemical_formula_sum "Si O2"
_cell_formula_units_Z 112
_cell_length_a 15.804849
_cell_length_b 22.848978
_cell_length_c 14.973601
_cell_angle_alpha 90.000000
_cell_angle_beta 90.000000
_cell_angle_gamma 90.000000
_cell_volume 5407.336377
_symmetry_space_group_name_H-M "C M M A"
_symmetry_group_IT_number 67
_symmetry_cell_setting 'orthorhombic'
loop_
_space_group_symop_operation_xyz
x,y,z
-x,1/2-y,z
x,-y,-z
-x,1/2+y,-z
-x,-y,-z
x,1/2+y,-z
-x,y,z
x,1/2-y,z
1/2+x,1/2+y,z
1/2-x,-y,z
1/2+x,1/2-y,-z
1/2-x,y,-z
1/2-x,1/2-y,-z
1/2+x,y,-z
1/2-x,1/2+y,z
1/2+x,-y,z
loop_
_atom_site_type_symbol
_atom_site_label
_atom_site_fract_x
_atom_site_fract_y
_atom_site_fract_z
Si Si1 0.599111 0.881427 0.298152
Si Si2 0.249829 0.815178 0.392532
Si Si3 0.160728 0.425300 0.953790
Si Si4 0.596694 0.317815 0.141529
Si Si5 0.091626 0.115501 0.669857
Si Si6 0.649386 0.495603 0.606308
Si Si7 0.904100 0.036430 0.135259
O O1 0.500000 0.862742 0.290855
O O2 0.665623 0.834734 0.338840
O O3 0.626711 0.913798 0.204906
O O4 0.608927 0.934560 0.366846
O O5 0.226974 0.750000 0.361000
O O6 0.250000 0.813359 0.500000
O O7 0.175010 0.860181 0.375523
O O8 0.152734 0.359674 0.919303
O O9 0.144545 0.474651 0.877933
O O10 0.250000 0.434779 0.000000
O O11 0.096967 0.436930 0.035501
O O12 0.500000 0.317879 0.106843
O O13 0.622893 0.250000 0.150730
O O14 0.593454 0.352791 0.234736
O O15 0.102728 0.046116 0.662004
O O16 0.000000 0.130821 0.628680
O O17 0.640087 0.500000 0.500000
O O18 0.750000 0.500000 0.626664
O O19 0.000000 0.022411 0.162181
#
# Coordination Sequence:
#
# PCOD9504142 Si02
#       7
#    16  16  16  16  16  16  16
#     4  11  24  41  65  95 130 173 220 267 324 396
#     4  11  25  44  65  92 131 176 220 274 333 390
#     4  11  22  36  62  95 127 164 207 259 322 393
#     4  10  22  41  63  88 122 166 215 268 319 375
#     4  11  23  41  67  95 126 167 217 269 326 391
#     4  11  22  37  61  93 128 163 202 261 333 391
#     4  10  21  39  61  89 127 167 208 258 318 388
#
# _framework density 20.712600999999999
#
# number of rings (size 3 to 8) (size 9 to 14) (size 15 to 20)
#    0.000    1.286    1.429    5.143    2.000    7.714 
#    0.000    2.143    0.000    0.857    0.000    0.000 
#    0.000    0.000    0.000    0.000    0.000    0.000 
#
# Total GULP energy -312349.931933 kJ/mol
# GULP energy per Si atom -5577.677356 kJ/mol
# Density = 2.066546 g / cm^3
# Si number density = 20.712601 Si / 1000 Ang^3
#
#
#
# Elastic Constant Matrix: (Units=GPa)
#
#
# Indices 1 2 3 4 5 6 
#
# 1 78.5772 5.0408 13.9583 0.0000 0.0000 0.0000
# 2 5.0408 90.6128 8.8485 0.0000 0.0000 0.0000
# 3 13.9583 8.8485 64.6629 0.0000 0.0000 0.0000
# 4 0.0000 0.0000 0.0000 19.1955 0.0000 0.0000
# 5 0.0000 0.0000 0.0000 0.0000 18.4889 0.0000
# 6 0.0000 0.0000 0.0000 0.0000 0.0000 23.7761
#
#
#
# Elastic Compliance Matrix: (Units=1/GPa)
#
#
# Indices 1 2 3 4 5 6 
#
# 1 0.013253 -0.000464 -0.002797 0.000000 0.000000 0.000000
# 2 -0.000464 0.011202 -0.001433 0.000000 0.000000 0.000000
# 3 -0.002797 -0.001433 0.016265 0.000000 0.000000 0.000000
# 4 0.000000 0.000000 0.000000 0.052096 0.000000 0.000000
# 5 0.000000 0.000000 0.000000 0.000000 0.054086 0.000000
# 6 0.000000 0.000000 0.000000 0.000000 0.000000 0.042059
#
#
# Mechanical properties :
#
#
# Convention : Reuss Voigt Hill
#
# Bulk Modulus (GPa) = 31.91703 32.17201 32.04452
# Shear Modulus (GPa) = 23.94725 26.02580 24.98652
#
# Velocity S-wave (km/s) = 3.40394 3.54859 3.47701
# Velocity P-wave (km/s) = 5.55805 5.68826 5.62353
#
# Compressibility (1/GPa) = 0.03133124
#
# Stress axis : x y z
#
# Youngs Moduli (GPa) = 75.45448 89.27227 61.48287
#
# Poissons Ratio (x) = 0.04143 0.17199
# Poissons Ratio (y) = 0.03502 0.08808
# Poissons Ratio (z) = 0.21107 0.12790
#
# Static dielectric constant tensor:
#      x y z
#    x 1.816300 0.000000 0.000000 
#    y 0.000000 1.736960 0.000000 
#    z 0.000000 0.000000 1.783890 
# 
# From -- ./inp_files/27527.got.cif
#   From: 2010.05.17/outbox.cif.g08.bks.cpg/sg67_14_cif.got.tgz:27527.got - 2010.06.03 18:28:57.
