data_PCOD9504425
_publ_section_title
;
Structure prediction by ZEFSAII (Michael W. Deem and Ramdas Pophale) SiO2 
 PCOD9504425
Probable space group: C M M A
;
_chemical_formula_sum "Si O2"
_cell_formula_units_Z 64
_cell_length_a 27.003895
_cell_length_b 12.979851
_cell_length_c 8.694965
_cell_angle_alpha 90.000000
_cell_angle_beta 90.000000
_cell_angle_gamma 90.000000
_cell_volume 3047.642041
_symmetry_space_group_name_H-M "C M M A"
_symmetry_group_IT_number 67
_symmetry_cell_setting 'orthorhombic'
loop_
_space_group_symop_operation_xyz
x,y,z
-x,1/2-y,z
x,-y,-z
-x,1/2+y,-z
-x,-y,-z
x,1/2+y,-z
-x,y,z
x,1/2-y,z
1/2+x,1/2+y,z
1/2-x,-y,z
1/2+x,1/2-y,-z
1/2-x,y,-z
1/2-x,1/2-y,-z
1/2+x,y,-z
1/2-x,1/2+y,z
1/2+x,-y,z
loop_
_atom_site_type_symbol
_atom_site_label
_atom_site_fract_x
_atom_site_fract_y
_atom_site_fract_z
Si Si1 0.627161 0.927688 0.372147
Si Si2 0.125809 0.579778 0.119725
Si Si3 0.307010 0.750000 0.043785
Si Si4 0.556937 0.250000 0.647884
Si Si5 0.057734 0.750000 0.274760
Si Si6 0.197549 0.750000 0.584740
O O1 0.586914 0.850635 0.299679
O O2 0.666951 0.853254 0.453817
O O3 0.602682 0.000000 0.500000
O O4 0.649933 0.004410 0.246958
O O5 0.164553 0.652226 0.030017
O O6 0.086350 0.652097 0.204683
O O7 0.102115 0.500000 0.000000
O O8 0.250000 0.750000 0.000000
O O9 0.305411 0.750000 0.229063
O O10 0.500000 0.250000 0.693622
O O11 0.560436 0.250000 0.460838
O O12 0.000000 0.750000 0.232894
O O13 0.250000 0.750000 0.500000
#
# Coordination Sequence:
#
# PCOD9504425 Si02
#       6
#    16  16   8   8   8   8
#     4  11  23  42  66  95 130 176 217 269 330 389
#     4  11  23  44  66  90 135 176 216 268 335 399
#     4  11  26  44  66  92 129 170 216 272 334 397
#     4  10  22  39  65 101 134 168 223 281 329 384
#     4  10  22  39  65  99 132 172 222 277 329 390
#     4  11  26  44  64  98 129 162 220 280 327 391
#
# _framework density 20.999842000000001
#
# number of rings (size 3 to 8) (size 9 to 14) (size 15 to 20)
#    0.000    1.250    5.000    0.000    3.500    3.000 
#    0.000    1.250    0.000    0.000    0.000    0.000 
#    0.000    0.000    0.000    0.000    0.000    0.000 
#
# Total GULP energy -178665.898611 kJ/mol
# GULP energy per Si atom -5583.309332 kJ/mol
# Density = 2.095205 g / cm^3
# Si number density = 20.999842 Si / 1000 Ang^3
#
#
#
# Elastic Constant Matrix: (Units=GPa)
#
#
# Indices 1 2 3 4 5 6 
#
# 1 138.8908 54.8145 22.7272 0.0000 0.0000 0.0000
# 2 54.8145 154.9252 44.9797 0.0000 0.0000 0.0000
# 3 22.7272 44.9797 69.5904 0.0000 0.0000 0.0000
# 4 0.0000 0.0000 0.0000 31.8267 0.0000 0.0000
# 5 0.0000 0.0000 0.0000 0.0000 27.0255 0.0000
# 6 0.0000 0.0000 0.0000 0.0000 0.0000 2.4011
#
#
#
# Elastic Compliance Matrix: (Units=1/GPa)
#
#
# Indices 1 2 3 4 5 6 
#
# 1 0.008426 -0.002687 -0.001015 0.000000 0.000000 0.000000
# 2 -0.002687 0.008802 -0.004812 0.000000 0.000000 0.000000
# 3 -0.001015 -0.004812 0.017812 0.000000 0.000000 0.000000
# 4 0.000000 0.000000 0.000000 0.031420 0.000000 0.000000
# 5 0.000000 0.000000 0.000000 0.000000 0.037002 0.000000
# 6 0.000000 0.000000 0.000000 0.000000 0.000000 0.416482
#
#
# Mechanical properties :
#
#
# Convention : Reuss Voigt Hill
#
# Bulk Modulus (GPa) = 55.51755 67.60546 61.56150
# Shear Modulus (GPa) = 9.20849 28.30966 18.75907
#
# Velocity S-wave (km/s) = 2.09632 3.67562 2.99205
# Velocity P-wave (km/s) = 5.68805 7.09061 6.42770
#
# Compressibility (1/GPa) = 0.01801232
#
# Stress axis : x y z
#
# Youngs Moduli (GPa) = 118.67572 113.60632 56.14291
#
# Poissons Ratio (x) = 0.30520 0.05701
# Poissons Ratio (y) = 0.31882 0.27016
# Poissons Ratio (z) = 0.12051 0.54667
#
# Static dielectric constant tensor:
#      x y z
#    x 1.708390 0.000000 0.000000 
#    y 0.000000 1.765640 0.000000 
#    z 0.000000 0.000000 1.821600 
# 
# From -- ./inp_files/14393.got.cif
#   From: 2010.05.17/outbox.cif.g08.bks.cpg/sg67_8_cif.got.tgz:14393.got - 2010.06.03 18:28:57.
