data_PCOD9504137
_publ_section_title
;
Structure prediction by ZEFSAII (Michael W. Deem and Ramdas Pophale) SiO2 
 PCOD9504137
Probable space group: C M M A
;
_chemical_formula_sum "Si O2"
_cell_formula_units_Z 64
_cell_length_a 8.496393
_cell_length_b 27.956041
_cell_length_c 13.481631
_cell_angle_alpha 90.000000
_cell_angle_beta 90.000000
_cell_angle_gamma 90.000000
_cell_volume 3202.231293
_symmetry_space_group_name_H-M "C M M A"
_symmetry_group_IT_number 67
_symmetry_cell_setting 'orthorhombic'
loop_
_space_group_symop_operation_xyz
x,y,z
-x,1/2-y,z
x,-y,-z
-x,1/2+y,-z
-x,-y,-z
x,1/2+y,-z
-x,y,z
x,1/2-y,z
1/2+x,1/2+y,z
1/2-x,-y,z
1/2+x,1/2-y,-z
1/2-x,y,-z
1/2-x,1/2-y,-z
1/2+x,y,-z
1/2-x,1/2+y,z
1/2+x,-y,z
loop_
_atom_site_type_symbol
_atom_site_label
_atom_site_fract_x
_atom_site_fract_y
_atom_site_fract_z
Si Si1 0.690232 0.750000 0.113046
Si Si2 0.314629 0.653255 0.223126
Si Si3 0.173537 0.929598 0.100281
Si Si4 0.750000 0.000000 0.731647
Si Si5 0.811750 0.588637 0.389767
O O1 0.500000 0.750000 0.108766
O O2 0.738847 0.797148 0.174280
O O3 0.750000 0.750000 0.000000
O O4 0.500000 0.656331 0.246556
O O5 0.284259 0.611914 0.142336
O O6 0.221916 0.633949 0.319091
O O7 0.000000 0.909985 0.079929
O O8 0.157141 0.968905 0.186484
O O9 0.250000 0.948172 0.000000
O O10 0.786319 0.956300 0.656737
O O11 0.750000 0.596996 0.500000
O O12 0.000000 0.577465 0.388561
#
# Coordination Sequence:
#
# PCOD9504137 Si02
#       5
#     8  16  16   8  16
#     4  10  22  38  61  92 121 154 191 232 282 340
#     4  10  21  39  61  86 118 152 192 239 288 342
#     4  11  23  37  55  82 117 156 197 238 287 344
#     4  10  22  36  56  80 112 148 190 236 282 336
#     4  11  24  41  62  87 115 150 193 239 290 343
#
# _framework density 19.986065
#
# number of rings (size 3 to 8) (size 9 to 14) (size 15 to 20)
#    0.000    1.500    0.000    6.000    0.000   18.000 
#    0.000    0.625    0.000    0.000    0.000    0.000 
#    0.000    0.000    0.000    0.000    0.000    0.000 
#
# Total GULP energy -178216.942606 kJ/mol
# GULP energy per Si atom -5569.279456 kJ/mol
# Density = 1.994058 g / cm^3
# Si number density = 19.986065 Si / 1000 Ang^3
#
#
#
# Elastic Constant Matrix: (Units=GPa)
#
#
# Indices 1 2 3 4 5 6 
#
# 1 43.4353 21.9441 20.7814 0.0000 0.0000 0.0000
# 2 21.9441 141.1209 72.6192 0.0000 0.0000 0.0000
# 3 20.7814 72.6192 176.9397 0.0000 0.0000 0.0000
# 4 0.0000 0.0000 0.0000 18.5827 0.0000 0.0000
# 5 0.0000 0.0000 0.0000 0.0000 24.8743 0.0000
# 6 0.0000 0.0000 0.0000 0.0000 0.0000 59.6685
#
#
#
# Elastic Compliance Matrix: (Units=1/GPa)
#
#
# Indices 1 2 3 4 5 6 
#
# 1 0.025395 -0.003060 -0.001727 0.000000 0.000000 0.000000
# 2 -0.003060 0.009352 -0.003479 0.000000 0.000000 0.000000
# 3 -0.001727 -0.003479 0.007282 0.000000 0.000000 0.000000
# 4 0.000000 0.000000 0.000000 0.053813 0.000000 0.000000
# 5 0.000000 0.000000 0.000000 0.000000 0.040202 0.000000
# 6 0.000000 0.000000 0.000000 0.000000 0.000000 0.016759
#
#
# Mechanical properties :
#
#
# Convention : Reuss Voigt Hill
#
# Bulk Modulus (GPa) = 39.21926 65.79840 52.50883
# Shear Modulus (GPa) = 28.11592 37.03517 32.57555
#
# Velocity S-wave (km/s) = 3.75477 4.30938 4.04160
# Velocity P-wave (km/s) = 6.20191 7.59964 6.93607
#
# Compressibility (1/GPa) = 0.02549767
#
# Stress axis : x y z
#
# Youngs Moduli (GPa) = 39.37790 106.92672 137.32086
#
# Poissons Ratio (x) = 0.32724 0.23709
# Poissons Ratio (y) = 0.12051 0.47772
# Poissons Ratio (z) = 0.06799 0.37198
#
# Static dielectric constant tensor:
#      x y z
#    x 1.082440 0.000000 0.000000 
#    y 0.000000 1.704170 0.000000 
#    z 0.000000 0.000000 1.690720 
# 
# From -- ./inp_files/25017.got.cif
#   From: 2010.05.17/outbox.cif.g08.bks.cpg/sg67_13_cif.got.tgz:25017.got - 2010.06.03 18:28:57.
