data_PCOD9504388
_publ_section_title
;
Structure prediction by ZEFSAII (Michael W. Deem and Ramdas Pophale) SiO2 
 PCOD9504388
Probable space group: C M M A
;
_chemical_formula_sum "Si O2"
_cell_formula_units_Z 88
_cell_length_a 14.806343
_cell_length_b 14.193705
_cell_length_c 21.366377
_cell_angle_alpha 90.000000
_cell_angle_beta 90.000000
_cell_angle_gamma 90.000000
_cell_volume 4490.290800
_symmetry_space_group_name_H-M "C M M A"
_symmetry_group_IT_number 67
_symmetry_cell_setting 'orthorhombic'
loop_
_space_group_symop_operation_xyz
x,y,z
-x,1/2-y,z
x,-y,-z
-x,1/2+y,-z
-x,-y,-z
x,1/2+y,-z
-x,y,z
x,1/2-y,z
1/2+x,1/2+y,z
1/2-x,-y,z
1/2+x,1/2-y,-z
1/2-x,y,-z
1/2-x,1/2-y,-z
1/2+x,y,-z
1/2-x,1/2+y,z
1/2+x,-y,z
loop_
_atom_site_type_symbol
_atom_site_label
_atom_site_fract_x
_atom_site_fract_y
_atom_site_fract_z
Si Si1 0.109097 0.970611 0.603841
Si Si2 0.500000 0.135402 0.122689
Si Si3 0.810377 0.363678 0.817634
Si Si4 0.250000 0.000000 0.709866
Si Si5 0.194406 0.364433 0.061591
Si Si6 0.500000 0.634630 0.022717
Si Si7 0.109538 0.145516 0.516873
O O1 0.133586 0.068536 0.568719
O O2 0.000000 0.968052 0.614042
O O3 0.167987 0.965884 0.665841
O O4 0.133497 0.891805 0.552137
O O5 0.500000 0.250000 0.120830
O O6 0.409728 0.107534 0.158745
O O7 0.500000 0.106505 0.050103
O O8 0.808731 0.250000 0.810187
O O9 0.783386 0.416475 0.754854
O O10 0.742728 0.389655 0.874142
O O11 0.193792 0.250000 0.059986
O O12 0.091813 0.397176 0.055303
O O13 0.250000 0.393572 0.000000
O O14 0.500000 0.750000 0.023620
O O15 0.143601 0.250000 0.529371
O O16 0.000000 0.147309 0.517393
#
# Coordination Sequence:
#
# PCOD9504388 Si02
#       7
#    16   8  16   8  16   8  16
#     4   9  20  38  57  83 118 150 187 232 281 337
#     4   9  16  32  61  87 106 139 191 246 302 348
#     4  10  22  39  57  82 114 152 196 240 287 348
#     4  12  26  39  55  80 118 166 198 232 276 334
#     4   9  15  28  52  80 109 139 183 242 298 349
#     4   9  14  24  53  87 107 136 179 241 317 358
#     4   8  15  33  63  92 115 142 181 236 292 334
#
# _framework density 19.597839
#
# number of rings (size 3 to 8) (size 9 to 14) (size 15 to 20)
#    0.000    2.727    1.818    1.091    1.273    2.909 
#    1.636    1.364    0.000    1.091    0.000    0.000 
#    0.000    0.000    0.000    0.000    0.000    0.000 
#
# Total GULP energy -245764.354262 kJ/mol
# GULP energy per Si atom -5585.553506 kJ/mol
# Density = 1.955323 g / cm^3
# Si number density = 19.597839 Si / 1000 Ang^3
#
#
#
# Elastic Constant Matrix: (Units=GPa)
#
#
# Indices 1 2 3 4 5 6 
#
# 1 138.2992 13.1975 66.8457 0.0000 0.0000 0.0000
# 2 13.1975 69.0211 14.0416 0.0000 0.0000 0.0000
# 3 66.8457 14.0416 123.6225 0.0000 0.0000 0.0000
# 4 0.0000 0.0000 0.0000 10.6251 0.0000 0.0000
# 5 0.0000 0.0000 0.0000 0.0000 35.3845 0.0000
# 6 0.0000 0.0000 0.0000 0.0000 0.0000 8.5755
#
#
#
# Elastic Compliance Matrix: (Units=1/GPa)
#
#
# Indices 1 2 3 4 5 6 
#
# 1 0.009834 -0.000817 -0.005225 0.000000 0.000000 0.000000
# 2 -0.000817 0.014899 -0.001250 0.000000 0.000000 0.000000
# 3 -0.005225 -0.001250 0.011056 0.000000 0.000000 0.000000
# 4 0.000000 0.000000 0.000000 0.094117 0.000000 0.000000
# 5 0.000000 0.000000 0.000000 0.000000 0.028261 0.000000
# 6 0.000000 0.000000 0.000000 0.000000 0.000000 0.116612
#
#
# Mechanical properties :
#
#
# Convention : Reuss Voigt Hill
#
# Bulk Modulus (GPa) = 47.15981 57.67915 52.41948
# Shear Modulus (GPa) = 16.86730 26.70754 21.78742
#
# Velocity S-wave (km/s) = 2.93690 3.69559 3.33787
# Velocity P-wave (km/s) = 5.96796 6.90689 6.45452
#
# Compressibility (1/GPa) = 0.02120450
#
# Stress axis : x y z
#
# Youngs Moduli (GPa) = 101.68810 67.11864 90.44664
#
# Poissons Ratio (x) = 0.05487 0.47255
# Poissons Ratio (y) = 0.08313 0.11308
# Poissons Ratio (z) = 0.53128 0.08392
#
# Static dielectric constant tensor:
#      x y z
#    x 1.709760 0.000000 0.000000 
#    y 0.000000 1.727520 0.000000 
#    z 0.000000 0.000000 1.627430 
# 
# From -- ./inp_files/38345.got.cif
#   From: 2010.05.17/outbox.cif.g08.bks.cpg/sg67_20_cif.got.tgz:38345.got - 2010.06.03 18:28:57.
