data_PCOD9504302
_publ_section_title
;
Structure prediction by ZEFSAII (Michael W. Deem and Ramdas Pophale) SiO2 
 PCOD9504302
Probable space group: C M M A
;
_chemical_formula_sum "Si O2"
_cell_formula_units_Z 60
_cell_length_a 21.399836
_cell_length_b 23.310897
_cell_length_c 5.130955
_cell_angle_alpha 90.000000
_cell_angle_beta 90.000000
_cell_angle_gamma 90.000000
_cell_volume 2559.573684
_symmetry_space_group_name_H-M "C M M A"
_symmetry_group_IT_number 67
_symmetry_cell_setting 'orthorhombic'
loop_
_space_group_symop_operation_xyz
x,y,z
-x,1/2-y,z
x,-y,-z
-x,1/2+y,-z
-x,-y,-z
x,1/2+y,-z
-x,y,z
x,1/2-y,z
1/2+x,1/2+y,z
1/2-x,-y,z
1/2+x,1/2-y,-z
1/2-x,y,-z
1/2-x,1/2-y,-z
1/2+x,y,-z
1/2-x,1/2+y,z
1/2+x,-y,z
loop_
_atom_site_type_symbol
_atom_site_label
_atom_site_fract_x
_atom_site_fract_y
_atom_site_fract_z
Si Si1 0.250000 0.000000 0.000000
Si Si2 0.000000 0.317812 0.390479
Si Si3 0.000000 0.555618 0.807845
Si Si4 0.707504 0.750000 0.755356
Si Si5 0.638320 0.427110 0.799316
Si Si6 0.123619 0.143438 0.678931
O O1 0.299846 0.035329 0.829561
O O2 0.000000 0.372078 0.181686
O O3 0.058875 0.330807 0.574385
O O4 0.000000 0.250000 0.302954
O O5 0.071039 0.548621 0.697755
O O6 0.000000 0.500000 0.000000
O O7 0.750000 0.750000 0.500000
O O8 0.664515 0.694957 0.776614
O O9 0.750000 0.750000 0.000000
O O10 0.654676 0.380950 0.582245
O O11 0.621448 0.402820 0.087818
#
# Coordination Sequence:
#
# PCOD9504302 Si02
#       6
#     4   8   8   8  16  16
#     4  12  28  48  72 104 140 196 256 310 378 464
#     4  10  21  46  76 111 148 199 257 320 380 456
#     4  10  21  48  71 110 148 197 243 315 385 450
#     4  12  26  43  68 101 146 196 232 295 371 454
#     4  11  26  45  73 102 142 192 244 315 373 453
#     4  11  25  47  71 105 143 188 249 305 376 449
#
# _framework density 23.441403000000001
#
# number of rings (size 3 to 8) (size 9 to 14) (size 15 to 20)
#    0.000    1.067    2.667    2.400    5.600    2.133 
#    2.400    4.000    0.000    0.000    0.000    0.000 
#    0.000    0.000    0.000    0.000    0.000    0.000 
#
# Total GULP energy -167171.807544 kJ/mol
# GULP energy per Si atom -5572.393585 kJ/mol
# Density = 2.338805 g / cm^3
# Si number density = 23.441403 Si / 1000 Ang^3
#
#
#
# Elastic Constant Matrix: (Units=GPa)
#
#
# Indices 1 2 3 4 5 6 
#
# 1 184.2735 72.2988 13.1036 0.0000 0.0000 0.0000
# 2 72.2988 148.2706 49.9477 0.0000 0.0000 0.0000
# 3 13.1036 49.9477 79.8735 0.0000 0.0000 0.0000
# 4 0.0000 0.0000 0.0000 11.9884 0.0000 0.0000
# 5 0.0000 0.0000 0.0000 0.0000 35.2471 0.0000
# 6 0.0000 0.0000 0.0000 0.0000 0.0000 51.5532
#
#
#
# Elastic Compliance Matrix: (Units=1/GPa)
#
#
# Indices 1 2 3 4 5 6 
#
# 1 0.006802 -0.003726 0.001214 0.000000 0.000000 0.000000
# 2 -0.003726 0.010585 -0.006008 0.000000 0.000000 0.000000
# 3 0.001214 -0.006008 0.016078 0.000000 0.000000 0.000000
# 4 0.000000 0.000000 0.000000 0.083414 0.000000 0.000000
# 5 0.000000 0.000000 0.000000 0.000000 0.028371 0.000000
# 6 0.000000 0.000000 0.000000 0.000000 0.000000 0.019397
#
#
# Mechanical properties :
#
#
# Convention : Reuss Voigt Hill
#
# Bulk Modulus (GPa) = 60.88189 75.90196 68.39193
# Shear Modulus (GPa) = 26.71476 38.22890 32.47183
#
# Velocity S-wave (km/s) = 3.37952 4.04273 3.72591
# Velocity P-wave (km/s) = 6.42312 7.36487 6.91006
#
# Compressibility (1/GPa) = 0.01642524
#
# Stress axis : x y z
#
# Youngs Moduli (GPa) = 147.01171 94.47279 62.19816
#
# Poissons Ratio (x) = 0.35198 -0.07550
# Poissons Ratio (y) = 0.54773 0.37369
# Poissons Ratio (z) = -0.17846 0.56759
#
# Static dielectric constant tensor:
#      x y z
#    x 1.863350 0.000000 0.000000 
#    y 0.000000 1.986320 0.000000 
#    z 0.000000 0.000000 1.843190 
# 
# From -- ./inp_files/2792.got.cif
#   From: 2010.05.17/outbox.cif.g08.bks.cpg/sg67_2_cif.got.tgz:2792.got - 2010.06.03 18:28:57.
