data_PCOD9504069
_publ_section_title
;
Structure prediction by ZEFSAII (Michael W. Deem and Ramdas Pophale) SiO2 
 PCOD9504069
Probable space group: C M M A
;
_chemical_formula_sum "Si O2"
_cell_formula_units_Z 56
_cell_length_a 17.432686
_cell_length_b 28.242300
_cell_length_c 5.047022
_cell_angle_alpha 90.000000
_cell_angle_beta 90.000000
_cell_angle_gamma 90.000000
_cell_volume 2484.846510
_symmetry_space_group_name_H-M "C M M A"
_symmetry_group_IT_number 67
_symmetry_cell_setting 'orthorhombic'
loop_
_space_group_symop_operation_xyz
x,y,z
-x,1/2-y,z
x,-y,-z
-x,1/2+y,-z
-x,-y,-z
x,1/2+y,-z
-x,y,z
x,1/2-y,z
1/2+x,1/2+y,z
1/2-x,-y,z
1/2+x,1/2-y,-z
1/2-x,y,-z
1/2-x,1/2-y,-z
1/2+x,y,-z
1/2-x,1/2+y,z
1/2+x,-y,z
loop_
_atom_site_type_symbol
_atom_site_label
_atom_site_fract_x
_atom_site_fract_y
_atom_site_fract_z
Si Si1 0.912182 0.945220 0.410832
Si Si2 0.163190 0.098886 0.103978
Si Si3 0.911373 0.803614 0.981028
Si Si4 0.304560 0.250000 0.259546
O O1 0.850362 0.923708 0.611178
O O2 0.000000 0.927003 0.448816
O O3 0.914437 0.000000 0.500000
O O4 0.885757 0.931143 0.114338
O O5 0.129149 0.151554 0.140126
O O6 0.250000 0.100446 0.000000
O O7 0.907134 0.750000 0.857200
O O8 0.000000 0.813270 0.028583
O O9 0.861692 0.794396 0.245799
O O10 0.250000 0.250000 0.500000
O O11 0.250000 0.250000 0.000000
#
# Coordination Sequence:
#
# PCOD9504069 Si02
#       4
#    16  16  16   8
#     4  11  25  46  71  98 133 178 227 280 341 414
#     4  12  25  42  69 102 138 176 223 284 345 406
#     4   9  21  43  66  95 132 177 223 271 325 397
#     4  10  21  38  61  88 124 164 210 264 319 376
#
# _framework density 22.536601000000001
#
# number of rings (size 3 to 8) (size 9 to 14) (size 15 to 20)
#    0.857    0.571    0.000    5.143    0.000   10.286 
#    0.000    5.714    0.000    0.000    0.000    0.000 
#    0.000    0.000    0.000    0.000    0.000    0.000 
#
# Total GULP energy -156172.509393 kJ/mol
# GULP energy per Si atom -5577.589621 kJ/mol
# Density = 2.248531 g / cm^3
# Si number density = 22.536601 Si / 1000 Ang^3
#
#
#
# Elastic Constant Matrix: (Units=GPa)
#
#
# Indices 1 2 3 4 5 6 
#
# 1 153.2731 3.8230 -10.2171 0.0000 0.0000 0.0000
# 2 3.8230 80.0562 -4.8042 0.0000 0.0000 0.0000
# 3 -10.2171 -4.8042 71.4251 0.0000 0.0000 0.0000
# 4 0.0000 0.0000 0.0000 7.1768 0.0000 0.0000
# 5 0.0000 0.0000 0.0000 0.0000 17.7412 0.0000
# 6 0.0000 0.0000 0.0000 0.0000 0.0000 18.8888
#
#
#
# Elastic Compliance Matrix: (Units=1/GPa)
#
#
# Indices 1 2 3 4 5 6 
#
# 1 0.006592 -0.000259 0.000926 0.000000 0.000000 0.000000
# 2 -0.000259 0.012552 0.000807 0.000000 0.000000 0.000000
# 3 0.000926 0.000807 0.014187 0.000000 0.000000 0.000000
# 4 0.000000 0.000000 0.000000 0.139338 0.000000 0.000000
# 5 0.000000 0.000000 0.000000 0.000000 0.056366 0.000000
# 6 0.000000 0.000000 0.000000 0.000000 0.000000 0.052941
#
#
# Mechanical properties :
#
#
# Convention : Reuss Voigt Hill
#
# Bulk Modulus (GPa) = 27.56423 31.37309 29.46866
# Shear Modulus (GPa) = 17.17485 29.82485 23.49985
#
# Velocity S-wave (km/s) = 2.76359 3.64180 3.23265
# Velocity P-wave (km/s) = 4.73716 5.62448 5.19978
#
# Compressibility (1/GPa) = 0.03627890
#
# Stress axis : x y z
#
# Youngs Moduli (GPa) = 151.68824 79.66827 70.48518
#
# Poissons Ratio (x) = 0.02066 -0.06524
# Poissons Ratio (y) = 0.03933 -0.05689
# Poissons Ratio (z) = -0.14040 -0.06431
#
# Static dielectric constant tensor:
#      x y z
#    x 1.873590 0.000000 0.000000 
#    y 0.000000 1.933080 0.000000 
#    z 0.000000 0.000000 1.839440 
# 
# From -- ./inp_files/2035.got.cif
#   From: 2010.05.17/outbox.cif.g08.bks.cpg/sg67_2_cif.got.tgz:2035.got - 2010.06.03 18:28:57.
