data_PCOD9504187
_publ_section_title
;
Structure prediction by ZEFSAII (Michael W. Deem and Ramdas Pophale) SiO2 
 PCOD9504187
Probable space group: C M M A
;
_chemical_formula_sum "Si O2"
_cell_formula_units_Z 72
_cell_length_a 28.287893
_cell_length_b 14.569166
_cell_length_c 8.042477
_cell_angle_alpha 90.000000
_cell_angle_beta 90.000000
_cell_angle_gamma 90.000000
_cell_volume 3314.554160
_symmetry_space_group_name_H-M "C M M A"
_symmetry_group_IT_number 67
_symmetry_cell_setting 'orthorhombic'
loop_
_space_group_symop_operation_xyz
x,y,z
-x,1/2-y,z
x,-y,-z
-x,1/2+y,-z
-x,-y,-z
x,1/2+y,-z
-x,y,z
x,1/2-y,z
1/2+x,1/2+y,z
1/2-x,-y,z
1/2+x,1/2-y,-z
1/2-x,y,-z
1/2-x,1/2-y,-z
1/2+x,y,-z
1/2-x,1/2+y,z
1/2+x,-y,z
loop_
_atom_site_type_symbol
_atom_site_label
_atom_site_fract_x
_atom_site_fract_y
_atom_site_fract_z
Si Si1 0.231024 0.639390 0.319356
Si Si2 0.392985 0.000000 0.000000
Si Si3 0.135741 0.395267 0.543631
Si Si4 0.444674 0.851480 0.776030
Si Si5 0.826822 0.645638 0.816482
O O1 0.230208 0.750000 0.318733
O O2 0.250000 0.607813 0.500000
O O3 0.176912 0.608407 0.315237
O O4 0.272043 0.613472 0.191307
O O5 0.425639 0.063690 0.116306
O O6 0.359935 0.927088 0.094769
O O7 0.126760 0.500000 0.500000
O O8 0.088332 0.352359 0.613734
O O9 0.156153 0.350286 0.376438
O O10 0.500000 0.862385 0.739412
O O11 0.438530 0.750000 0.856691
O O12 0.828864 0.750000 0.885053
#
# Coordination Sequence:
#
# PCOD9504187 Si02
#       5
#    16   8  16  16  16
#     4   8  16  32  58  89 121 158 197 246 305 367
#     4  12  23  44  63  96 128 174 214 262 310 398
#     4  11  20  39  66  97 125 163 215 265 320 374
#     4  11  25  45  67  91 124 166 214 274 333 377
#     4  10  21  39  64  95 131 170 211 258 319 382
#
# _framework density 21.722377999999999
#
# number of rings (size 3 to 8) (size 9 to 14) (size 15 to 20)
#    0.000    1.778    2.222    4.333    0.000    4.444 
#    0.000    2.222    0.000    8.000    0.000    0.000 
#    0.000    0.000    0.000    0.000    0.000    0.000 
#
# Total GULP energy -201147.706402 kJ/mol
# GULP energy per Si atom -5587.436289 kJ/mol
# Density = 2.167294 g / cm^3
# Si number density = 21.722378 Si / 1000 Ang^3
#
#
#
# Elastic Constant Matrix: (Units=GPa)
#
#
# Indices 1 2 3 4 5 6 
#
# 1 189.6252 68.1561 51.1614 0.0000 0.0000 0.0000
# 2 68.1561 138.8931 19.8178 0.0000 0.0000 0.0000
# 3 51.1614 19.8178 46.8554 0.0000 0.0000 0.0000
# 4 0.0000 0.0000 0.0000 2.0749 0.0000 0.0000
# 5 0.0000 0.0000 0.0000 0.0000 24.5974 0.0000
# 6 0.0000 0.0000 0.0000 0.0000 0.0000 36.1038
#
#
#
# Elastic Compliance Matrix: (Units=1/GPa)
#
#
# Indices 1 2 3 4 5 6 
#
# 1 0.008534 -0.003042 -0.008031 0.000000 0.000000 0.000000
# 2 -0.003042 0.008746 -0.000378 0.000000 0.000000 0.000000
# 3 -0.008031 -0.000378 0.030272 0.000000 0.000000 0.000000
# 4 0.000000 0.000000 0.000000 0.481949 0.000000 0.000000
# 5 0.000000 0.000000 0.000000 0.000000 0.040655 0.000000
# 6 0.000000 0.000000 0.000000 0.000000 0.000000 0.027698
#
#
# Mechanical properties :
#
#
# Convention : Reuss Voigt Hill
#
# Bulk Modulus (GPa) = 40.56922 72.62716 56.59819
# Shear Modulus (GPa) = 7.94948 28.30445 18.12696
#
# Velocity S-wave (km/s) = 1.91508 3.61364 2.89188
# Velocity P-wave (km/s) = 4.85868 7.13569 6.10429
#
# Compressibility (1/GPa) = 0.02464923
#
# Stress axis : x y z
#
# Youngs Moduli (GPa) = 117.18242 114.33427 33.03409
#
# Poissons Ratio (x) = 0.34776 0.26531
# Poissons Ratio (y) = 0.35642 0.01249
# Poissons Ratio (z) = 0.94115 0.04324
#
# Static dielectric constant tensor:
#      x y z
#    x 1.772150 0.000000 0.000000 
#    y 0.000000 1.794170 0.000000 
#    z 0.000000 0.000000 1.833520 
# 
# From -- ./inp_files/13348.got.cif
#   From: 2010.05.17/outbox.cif.g08.bks.cpg/sg67_7_cif.got.tgz:13348.got - 2010.06.03 18:28:57.
