data_PCOD9504087
_publ_section_title
;
Structure prediction by ZEFSAII (Michael W. Deem and Ramdas Pophale) SiO2 
 PCOD9504087
Probable space group: C M M A
;
_chemical_formula_sum "Si O2"
_cell_formula_units_Z 96
_cell_length_a 23.121157
_cell_length_b 14.928307
_cell_length_c 11.992225
_cell_angle_alpha 90.000000
_cell_angle_beta 90.000000
_cell_angle_gamma 90.000000
_cell_volume 4139.233142
_symmetry_space_group_name_H-M "C M M A"
_symmetry_group_IT_number 67
_symmetry_cell_setting 'orthorhombic'
loop_
_space_group_symop_operation_xyz
x,y,z
-x,1/2-y,z
x,-y,-z
-x,1/2+y,-z
-x,-y,-z
x,1/2+y,-z
-x,y,z
x,1/2-y,z
1/2+x,1/2+y,z
1/2-x,-y,z
1/2+x,1/2-y,-z
1/2-x,y,-z
1/2-x,1/2-y,-z
1/2+x,y,-z
1/2-x,1/2+y,z
1/2+x,-y,z
loop_
_atom_site_type_symbol
_atom_site_label
_atom_site_fract_x
_atom_site_fract_y
_atom_site_fract_z
Si Si1 0.566620 0.550320 0.643174
Si Si2 0.841873 0.152840 0.057005
Si Si3 0.107215 0.144264 0.433071
Si Si4 0.239503 0.645126 0.621111
Si Si5 0.935397 0.523813 0.869152
Si Si6 0.274811 0.903715 0.851409
O O1 0.500000 0.575181 0.618931
O O2 0.605844 0.613222 0.564091
O O3 0.574285 0.443450 0.616292
O O4 0.575500 0.552512 0.776554
O O5 0.868610 0.250000 0.046822
O O6 0.827574 0.116810 0.932881
O O7 0.882859 0.092527 0.131719
O O8 0.779208 0.158080 0.114395
O O9 0.087934 0.250000 0.424672
O O10 0.169867 0.141330 0.373341
O O11 0.256154 0.750000 0.620031
O O12 0.250000 0.605114 0.500000
O O13 0.276819 0.601791 0.718971
O O14 0.000000 0.559456 0.842448
O O15 0.937373 0.500000 0.000000
O O16 0.250000 0.000000 0.880244
#
# Coordination Sequence:
#
# PCOD9504087 Si02
#       6
#    16  16  16  16  16  16
#     4  10  22  39  61  91 124 160 206 258 310 367
#     4  11  22  38  61  86 115 151 196 253 309 367
#     4  10  21  38  62  90 122 162 205 252 309 372
#     4  10  22  38  55  82 119 154 191 241 299 358
#     4  10  22  41  62  86 121 162 206 259 314 373
#     4  11  22  37  59  86 116 153 200 246 303 374
#
# _framework density 23.192703000000002
#
# number of rings (size 3 to 8) (size 9 to 14) (size 15 to 20)
#    0.000    1.667    0.000    6.000    0.000    9.333 
#    0.000    4.167    0.000    3.000    0.000    0.000 
#    0.000    0.000    0.000    0.000    0.000    0.000 
#
# Total GULP energy -267670.259720 kJ/mol
# GULP energy per Si atom -5576.463744 kJ/mol
# Density = 2.313992 g / cm^3
# Si number density = 23.192703 Si / 1000 Ang^3
#
#
#
# Elastic Constant Matrix: (Units=GPa)
#
#
# Indices 1 2 3 4 5 6 
#
# 1 62.0178 -5.9577 8.6539 0.0000 0.0000 0.0000
# 2 -5.9577 81.7846 -9.6608 0.0000 0.0000 0.0000
# 3 8.6539 -9.6608 140.6990 0.0000 0.0000 0.0000
# 4 0.0000 0.0000 0.0000 28.8254 0.0000 0.0000
# 5 0.0000 0.0000 0.0000 0.0000 26.0607 0.0000
# 6 0.0000 0.0000 0.0000 0.0000 0.0000 -74.5361
#
#
#
# Elastic Compliance Matrix: (Units=1/GPa)
#
#
# Indices 1 2 3 4 5 6 
#
# 1 0.016358 0.001082 -0.000932 0.000000 0.000000 0.000000
# 2 0.001082 0.012399 0.000785 0.000000 0.000000 0.000000
# 3 -0.000932 0.000785 0.007219 0.000000 0.000000 0.000000
# 4 0.000000 0.000000 0.000000 0.034692 0.000000 0.000000
# 5 0.000000 0.000000 0.000000 0.000000 0.038372 0.000000
# 6 0.000000 0.000000 0.000000 0.000000 0.000000 -0.013416
#
#
# Mechanical properties :
#
#
# Convention : Reuss Voigt Hill
#
# Bulk Modulus (GPa) = 26.42385 30.06359 28.24372
# Shear Modulus (GPa) = 47.00623 15.50105 31.25364
#
# Velocity S-wave (km/s) = 4.50685 2.58807 3.67490
# Velocity P-wave (km/s) = 6.20485 4.68204 5.49644
#
# Compressibility (1/GPa) = 0.03784461
#
# Stress axis : x y z
#
# Youngs Moduli (GPa) = 61.13092 80.65344 138.53151
#
# Poissons Ratio (x) = -0.08723 0.12909
# Poissons Ratio (y) = -0.06612 -0.10872
# Poissons Ratio (z) = 0.05697 -0.06330
#
# Static dielectric constant tensor:
#      x y z
#    x 1.890620 0.000000 0.000000 
#    y 0.000000 2.121980 0.000000 
#    z 0.000000 0.000000 1.990320 
# 
# From -- ./inp_files/21963.got.cif
#   From: 2010.05.17/outbox.cif.g08.bks.cpg/sg67_11_cif.got.tgz:21963.got - 2010.06.03 18:28:57.
