data_PCOD9504757
_publ_section_title
;
Structure prediction by ZEFSAII (Michael W. Deem and Ramdas Pophale) SiO2 
 PCOD9504757
Probable space group: C M M A
;
_chemical_formula_sum "Si O2"
_cell_formula_units_Z 112
_cell_length_a 14.247138
_cell_length_b 16.618375
_cell_length_c 26.117042
_cell_angle_alpha 90.000000
_cell_angle_beta 90.000000
_cell_angle_gamma 90.000000
_cell_volume 6183.582696
_symmetry_space_group_name_H-M "C M M A"
_symmetry_group_IT_number 67
_symmetry_cell_setting 'orthorhombic'
loop_
_space_group_symop_operation_xyz
x,y,z
-x,1/2-y,z
x,-y,-z
-x,1/2+y,-z
-x,-y,-z
x,1/2+y,-z
-x,y,z
x,1/2-y,z
1/2+x,1/2+y,z
1/2-x,-y,z
1/2+x,1/2-y,-z
1/2-x,y,-z
1/2-x,1/2-y,-z
1/2+x,y,-z
1/2-x,1/2+y,z
1/2+x,-y,z
loop_
_atom_site_type_symbol
_atom_site_label
_atom_site_fract_x
_atom_site_fract_y
_atom_site_fract_z
Si Si1 0.207035 0.840718 0.878692
Si Si2 0.894359 0.348300 0.526479
Si Si3 0.612881 0.345411 0.684959
Si Si4 0.612990 0.437261 0.787116
Si Si5 0.392854 0.460971 0.945512
Si Si6 0.393340 0.586170 0.851047
Si Si7 0.705617 0.652135 0.421763
O O1 0.178861 0.750000 0.887146
O O2 0.150872 0.879538 0.831490
O O3 0.315597 0.848434 0.863140
O O4 0.180587 0.894399 0.927605
O O5 0.895533 0.250000 0.527199
O O6 0.811815 0.374094 0.565149
O O7 0.859922 0.372365 0.469596
O O8 0.000000 0.375999 0.537339
O O9 0.500000 0.351418 0.678009
O O10 0.632539 0.250000 0.695145
O O11 0.641440 0.401386 0.732530
O O12 0.664634 0.370924 0.632941
O O13 0.500000 0.435343 0.789065
O O14 0.638215 0.528315 0.803945
O O15 0.500000 0.428218 0.947431
O O16 0.392794 0.527707 0.900678
O O17 0.372037 0.500000 0.000000
O O18 0.500000 0.614095 0.842852
O O19 0.705559 0.750000 0.422364
#
# Coordination Sequence:
#
# PCOD9504757 Si02
#       7
#    16  16  16  16  16  16  16
#     4  11  21  32  52  79 103 129 165 210 251 290
#     4   8  12  18  28  42  66 107 156 197 235 291
#     4   9  15  22  35  58  87 114 145 198 262 306
#     4   9  17  30  49  71  95 125 161 203 253 308
#     4   9  18  34  55  76 102 135 164 195 240 293
#     4   9  19  35  52  70  96 134 173 201 236 293
#     4   8  13  19  28  46  73 107 149 197 249 298
#
# _framework density 18.112476000000001
#
# number of rings (size 3 to 8) (size 9 to 14) (size 15 to 20)
#    0.000    3.000    0.000    4.714    0.000    4.857 
#    0.000    1.429    0.000    3.429    0.000    2.000 
#    0.000    0.000    0.000   10.286    0.000  121.143 
#
# Total GULP energy -312049.642605 kJ/mol
# GULP energy per Si atom -5572.315047 kJ/mol
# Density = 1.807125 g / cm^3
# Si number density = 18.112476 Si / 1000 Ang^3
#
#
#
# Elastic Constant Matrix: (Units=GPa)
#
#
# Indices 1 2 3 4 5 6 
#
# 1 68.6219 14.4297 33.3211 0.0000 0.0000 0.0000
# 2 14.4297 23.6569 19.3637 0.0000 0.0000 0.0000
# 3 33.3211 19.3637 118.5117 0.0000 0.0000 0.0000
# 4 0.0000 0.0000 0.0000 15.4150 0.0000 0.0000
# 5 0.0000 0.0000 0.0000 0.0000 25.0143 0.0000
# 6 0.0000 0.0000 0.0000 0.0000 0.0000 6.9989
#
#
#
# Elastic Compliance Matrix: (Units=1/GPa)
#
#
# Indices 1 2 3 4 5 6 
#
# 1 0.018079 -0.007927 -0.003788 0.000000 0.000000 0.000000
# 2 -0.007927 0.052272 -0.006312 0.000000 0.000000 0.000000
# 3 -0.003788 -0.006312 0.010534 0.000000 0.000000 0.000000
# 4 0.000000 0.000000 0.000000 0.064872 0.000000 0.000000
# 5 0.000000 0.000000 0.000000 0.000000 0.039977 0.000000
# 6 0.000000 0.000000 0.000000 0.000000 0.000000 0.142880
#
#
# Mechanical properties :
#
#
# Convention : Reuss Voigt Hill
#
# Bulk Modulus (GPa) = 22.30550 38.33550 30.32050
# Shear Modulus (GPa) = 13.17134 19.06405 16.11770
#
# Velocity S-wave (km/s) = 2.69959 3.24780 2.98630
# Velocity P-wave (km/s) = 4.69667 5.93932 5.35417
#
# Compressibility (1/GPa) = 0.04483199
#
# Stress axis : x y z
#
# Youngs Moduli (GPa) = 55.31360 19.13053 94.92763
#
# Poissons Ratio (x) = 0.15164 0.35958
# Poissons Ratio (y) = 0.43846 0.59919
# Poissons Ratio (z) = 0.20952 0.12075
#
# Static dielectric constant tensor:
#      x y z
#    x 1.655730 0.000000 0.000000 
#    y 0.000000 1.613280 0.000000 
#    z 0.000000 0.000000 1.606680 
# 
# From -- ./inp_files/44363.got.cif
#   From: 2010.05.17/outbox.cif.g08.bks.cpg/sg67_23_cif.got.tgz:44363.got - 2010.06.03 18:28:57.
