data_PCOD9504543
_publ_section_title
;
Structure prediction by ZEFSAII (Michael W. Deem and Ramdas Pophale) SiO2 
 PCOD9504543
Probable space group: C M M A
;
_chemical_formula_sum "Si O2"
_cell_formula_units_Z 68
_cell_length_a 27.775732
_cell_length_b 19.780939
_cell_length_c 6.298856
_cell_angle_alpha 90.000000
_cell_angle_beta 90.000000
_cell_angle_gamma 90.000000
_cell_volume 3460.780832
_symmetry_space_group_name_H-M "C M M A"
_symmetry_group_IT_number 67
_symmetry_cell_setting 'orthorhombic'
loop_
_space_group_symop_operation_xyz
x,y,z
-x,1/2-y,z
x,-y,-z
-x,1/2+y,-z
-x,-y,-z
x,1/2+y,-z
-x,y,z
x,1/2-y,z
1/2+x,1/2+y,z
1/2-x,-y,z
1/2+x,1/2-y,-z
1/2-x,y,-z
1/2-x,1/2-y,-z
1/2+x,y,-z
1/2-x,1/2+y,z
1/2+x,-y,z
loop_
_atom_site_type_symbol
_atom_site_label
_atom_site_fract_x
_atom_site_fract_y
_atom_site_fract_z
Si Si1 0.866186 0.576198 0.927875
Si Si2 0.708327 0.141087 0.654475
Si Si3 0.750000 0.250000 0.000000
Si Si4 0.625215 0.327616 0.321651
Si Si5 0.557120 0.077235 0.577280
O O1 0.820783 0.583240 0.773976
O O2 0.914724 0.590725 0.795760
O O3 0.870074 0.500000 0.000000
O O4 0.859360 0.630070 0.115485
O O5 0.750000 0.116680 0.500000
O O6 0.667510 0.172800 0.498293
O O7 0.730680 0.191708 0.828664
O O8 0.614693 0.250000 0.265986
O O9 0.580148 0.368954 0.415626
O O10 0.500000 0.084115 0.596385
O O11 0.567567 0.000000 0.500000
#
# Coordination Sequence:
#
# PCOD9504543 Si02
#       5
#    16  16   4  16  16
#     4  11  24  43  69  99 136 181 231 279 346 413
#     4  11  25  41  66  94 136 175 230 282 337 405
#     4  12  22  44  66  98 122 184 232 276 340 422
#     4  11  24  43  66 100 139 179 223 293 345 404
#     4  10  22  43  71 100 134 179 229 281 345 421
#
# _framework density 19.648745000000002
#
# number of rings (size 3 to 8) (size 9 to 14) (size 15 to 20)
#    0.000    1.176    3.529    1.765    4.941    2.824 
#    0.000    8.824    0.000    0.000    0.000    0.000 
#    0.000    0.000    0.000    0.000    0.000    0.000 
#
# Total GULP energy -189344.500822 kJ/mol
# GULP energy per Si atom -5568.955907 kJ/mol
# Density = 1.960402 g / cm^3
# Si number density = 19.648745 Si / 1000 Ang^3
#
#
#
# Elastic Constant Matrix: (Units=GPa)
#
#
# Indices 1 2 3 4 5 6 
#
# 1 108.1702 29.0290 56.5122 0.0000 0.0000 0.0000
# 2 29.0290 98.4982 43.2946 0.0000 0.0000 0.0000
# 3 56.5122 43.2946 116.6337 0.0000 0.0000 0.0000
# 4 0.0000 0.0000 0.0000 21.0257 0.0000 0.0000
# 5 0.0000 0.0000 0.0000 0.0000 23.8075 0.0000
# 6 0.0000 0.0000 0.0000 0.0000 0.0000 -42.6448
#
#
#
# Elastic Compliance Matrix: (Units=1/GPa)
#
#
# Indices 1 2 3 4 5 6 
#
# 1 0.012500 -0.001221 -0.005603 0.000000 0.000000 0.000000
# 2 -0.001221 0.012251 -0.003956 0.000000 0.000000 0.000000
# 3 -0.005603 -0.003956 0.012757 0.000000 0.000000 0.000000
# 4 0.000000 0.000000 0.000000 0.047561 0.000000 0.000000
# 5 0.000000 0.000000 0.000000 0.000000 0.042004 0.000000
# 6 0.000000 0.000000 0.000000 0.000000 0.000000 -0.023450
#
#
# Mechanical properties :
#
#
# Convention : Reuss Voigt Hill
#
# Bulk Modulus (GPa) = 62.70524 64.55261 63.62892
# Shear Modulus (GPa) = 38.31437 13.40210 25.85824
#
# Velocity S-wave (km/s) = 4.42063 2.61451 3.63164
# Velocity P-wave (km/s) = 7.61829 6.48374 7.07380
#
# Compressibility (1/GPa) = 0.01594763
#
# Stress axis : x y z
#
# Youngs Moduli (GPa) = 80.00204 81.62474 78.38683
#
# Poissons Ratio (x) = 0.09966 0.43922
# Poissons Ratio (y) = 0.09768 0.31010
# Poissons Ratio (z) = 0.44827 0.32291
#
# Static dielectric constant tensor:
#      x y z
#    x 1.682660 0.000000 0.000000 
#    y 0.000000 1.677180 0.000000 
#    z 0.000000 0.000000 1.706490 
# 
# From -- ./inp_files/2911.got.cif
#   From: 2010.05.17/outbox.cif.g08.bks.cpg/sg67_2_cif.got.tgz:2911.got - 2010.06.03 18:28:57.
