data_PCOD9504276
_publ_section_title
;
Structure prediction by ZEFSAII (Michael W. Deem and Ramdas Pophale) SiO2 
 PCOD9504276
Probable space group: C M M A
;
_chemical_formula_sum "Si O2"
_cell_formula_units_Z 100
_cell_length_a 30.464131
_cell_length_b 12.317706
_cell_length_c 14.097504
_cell_angle_alpha 90.000000
_cell_angle_beta 90.000000
_cell_angle_gamma 90.000000
_cell_volume 5290.063130
_symmetry_space_group_name_H-M "C M M A"
_symmetry_group_IT_number 67
_symmetry_cell_setting 'orthorhombic'
loop_
_space_group_symop_operation_xyz
x,y,z
-x,1/2-y,z
x,-y,-z
-x,1/2+y,-z
-x,-y,-z
x,1/2+y,-z
-x,y,z
x,1/2-y,z
1/2+x,1/2+y,z
1/2-x,-y,z
1/2+x,1/2-y,-z
1/2-x,y,-z
1/2-x,1/2-y,-z
1/2+x,y,-z
1/2-x,1/2+y,z
1/2+x,-y,z
loop_
_atom_site_type_symbol
_atom_site_label
_atom_site_fract_x
_atom_site_fract_y
_atom_site_fract_z
Si Si1 0.770651 0.750000 0.843142
Si Si2 0.703777 0.029192 0.818482
Si Si3 0.379777 0.042534 0.094474
Si Si4 0.950551 0.378174 0.760394
Si Si5 0.820536 0.250000 0.953151
Si Si6 0.911264 0.618663 0.443918
Si Si7 0.686871 0.375724 0.359108
Si Si8 0.250000 0.500000 0.500000
O O1 0.783647 0.853189 0.781683
O O2 0.720996 0.750000 0.881494
O O3 0.799147 0.750000 0.941659
O O4 0.750000 0.000000 0.871011
O O5 0.659960 0.037757 0.878984
O O6 0.692527 0.945981 0.735822
O O7 0.413501 0.061371 0.179085
O O8 0.351734 0.149182 0.069879
O O9 0.402960 0.000000 0.000000
O O10 0.946237 0.250000 0.782847
O O11 0.942262 0.388954 0.648243
O O12 0.000000 0.413159 0.783960
O O13 0.917067 0.500000 0.500000
O O14 0.916582 0.750000 0.480421
O O15 0.861790 0.615247 0.403019
O O16 0.694985 0.250000 0.338559
O O17 0.720160 0.424524 0.434624
#
# Coordination Sequence:
#
# PCOD9504276 Si02
#       8
#     8  16  16  16   8  16  16   4
#     4  11  24  38  52  87 128 161 216 257 304 364
#     4  12  24  36  56  88 120 165 209 248 305 368
#     4  12  23  38  62  89 123 165 211 256 324 376
#     4  10  22  41  68  96 121 158 212 268 325 394
#     4  11  22  36  57  82 126 163 199 272 304 360
#     4  10  21  41  67  97 127 161 208 264 328 394
#     4  11  24  39  57  85 122 163 204 253 307 370
#     4  12  22  40  60  90 120 158 216 256 310 368
#
# _framework density 18.903366999999999
#
# number of rings (size 3 to 8) (size 9 to 14) (size 15 to 20)
#    0.000    0.960    7.200    0.240    2.240    0.960 
#    2.880    0.000    1.760    0.000    0.000    0.000 
#    0.000    0.000    0.000    0.000    0.000    0.000 
#
# Total GULP energy -278567.471069 kJ/mol
# GULP energy per Si atom -5571.349421 kJ/mol
# Density = 1.886034 g / cm^3
# Si number density = 18.903367 Si / 1000 Ang^3
#
#
#
# Elastic Constant Matrix: (Units=GPa)
#
#
# Indices 1 2 3 4 5 6 
#
# 1 100.1523 23.0630 22.1840 0.0000 0.0000 0.0000
# 2 23.0630 126.8963 32.3819 0.0000 0.0000 0.0000
# 3 22.1840 32.3819 69.6733 0.0000 0.0000 0.0000
# 4 0.0000 0.0000 0.0000 33.4479 0.0000 0.0000
# 5 0.0000 0.0000 0.0000 0.0000 -3.9289 0.0000
# 6 0.0000 0.0000 0.0000 0.0000 0.0000 13.7658
#
#
#
# Elastic Compliance Matrix: (Units=1/GPa)
#
#
# Indices 1 2 3 4 5 6 
#
# 1 0.010913 -0.001244 -0.002896 0.000000 0.000000 0.000000
# 2 -0.001244 0.009083 -0.003825 0.000000 0.000000 0.000000
# 3 -0.002896 -0.003825 0.017053 0.000000 0.000000 0.000000
# 4 0.000000 0.000000 0.000000 0.029897 0.000000 0.000000
# 5 0.000000 0.000000 0.000000 0.000000 -0.254526 0.000000
# 6 0.000000 0.000000 0.000000 0.000000 0.000000 0.072644
#
#
# Mechanical properties :
#
#
# Convention : Reuss Voigt Hill
#
# Bulk Modulus (GPa) = 47.35590 50.21995 48.78793
# Shear Modulus (GPa) = -54.36805 23.26316 -15.55245
#
# Velocity S-wave (km/s) = -5.36875 3.51185 -2.87145
# Velocity P-wave (km/s) = 3.65039 6.56266 3.85636
#
# Compressibility (1/GPa) = 0.02111669
#
# Stress axis : x y z
#
# Youngs Moduli (GPa) = 91.63485 110.09927 58.64165
#
# Poissons Ratio (x) = 0.13699 0.16985
# Poissons Ratio (y) = 0.11402 0.22431
# Poissons Ratio (z) = 0.26541 0.42115
#
# Static dielectric constant tensor:
#      x y z
#    x 1.657310 0.000000 0.000000 
#    y 0.000000 1.913090 0.000000 
#    z 0.000000 0.000000 1.682310 
# 
# From -- ./inp_files/31115.got.cif
#   From: 2010.05.17/outbox.cif.g08.bks.cpg/sg67_16_cif.got.tgz:31115.got - 2010.06.03 18:28:57.
