data_PCOD9504066
_publ_section_title
;
Structure prediction by ZEFSAII (Michael W. Deem and Ramdas Pophale) SiO2 
 PCOD9504066
Probable space group: C M M A
;
_chemical_formula_sum "Si O2"
_cell_formula_units_Z 104
_cell_length_a 8.509516
_cell_length_b 20.684965
_cell_length_c 30.085295
_cell_angle_alpha 90.000000
_cell_angle_beta 90.000000
_cell_angle_gamma 90.000000
_cell_volume 5295.584763
_symmetry_space_group_name_H-M "C M M A"
_symmetry_group_IT_number 67
_symmetry_cell_setting 'orthorhombic'
loop_
_space_group_symop_operation_xyz
x,y,z
-x,1/2-y,z
x,-y,-z
-x,1/2+y,-z
-x,-y,-z
x,1/2+y,-z
-x,y,z
x,1/2-y,z
1/2+x,1/2+y,z
1/2-x,-y,z
1/2+x,1/2-y,-z
1/2-x,y,-z
1/2-x,1/2-y,-z
1/2+x,y,-z
1/2-x,1/2+y,z
1/2+x,-y,z
loop_
_atom_site_type_symbol
_atom_site_label
_atom_site_fract_x
_atom_site_fract_y
_atom_site_fract_z
Si Si1 0.189924 0.891916 0.950037
Si Si2 0.311938 0.177105 0.204383
Si Si3 0.187266 0.065047 0.142774
Si Si4 0.811721 0.250000 0.049960
Si Si5 0.311042 0.323214 0.449618
Si Si6 0.689826 0.676324 0.304096
Si Si7 0.188875 0.425845 0.378867
O O1 0.246333 0.932847 0.908318
O O2 0.239669 0.819741 0.933986
O O3 0.000000 0.894434 0.952910
O O4 0.250000 0.905337 0.000000
O O5 0.500000 0.173716 0.204104
O O6 0.263108 0.250000 0.191885
O O7 0.243184 0.126057 0.170395
O O8 0.251943 0.165424 0.254402
O O9 0.000000 0.064636 0.141424
O O10 0.250000 0.000000 0.164586
O O11 0.000000 0.250000 0.051381
O O12 0.750000 0.250000 0.000000
O O13 0.500000 0.326205 0.449001
O O14 0.264419 0.250000 0.434025
O O15 0.250000 0.329058 0.500000
O O16 0.243913 0.381745 0.420351
O O17 0.500000 0.676116 0.303468
O O18 0.739146 0.750000 0.317555
O O19 0.740947 0.618592 0.336768
O O20 0.250000 0.500000 0.378817
O O21 0.000000 0.428819 0.378801
#
# Coordination Sequence:
#
# PCOD9504066 Si02
#       7
#    16  16  16   8  16  16  16
#     4   9  19  34  55  80 108 144 184 228 277 332
#     4  10  22  40  63  91 119 149 189 238 289 344
#     4  11  24  40  59  83 115 154 192 234 284 342
#     4   8  14  28  48  74 102 128 168 214 262 314
#     4  10  21  38  61  88 119 158 205 255 306 358
#     4   9  19  38  63  88 115 152 196 241 292 350
#     4  11  23  38  58  87 123 161 202 246 297 354
#
# _framework density 19.639002000000001
#
# number of rings (size 3 to 8) (size 9 to 14) (size 15 to 20)
#    0.000    2.154    0.000    2.308    1.077    6.154 
#    0.000    6.154    0.000    0.000    0.000    0.000 
#    0.000    0.000    0.000    0.000    0.000    0.000 
#
# Total GULP energy -289965.208493 kJ/mol
# GULP energy per Si atom -5576.254009 kJ/mol
# Density = 1.959430 g / cm^3
# Si number density = 19.639002 Si / 1000 Ang^3
#
#
#
# Elastic Constant Matrix: (Units=GPa)
#
#
# Indices 1 2 3 4 5 6 
#
# 1 32.7236 42.5337 28.2592 0.0000 0.0000 0.0000
# 2 42.5337 194.8489 98.9578 0.0000 0.0000 0.0000
# 3 28.2592 98.9578 111.6596 0.0000 0.0000 0.0000
# 4 0.0000 0.0000 0.0000 -10.4757 0.0000 0.0000
# 5 0.0000 0.0000 0.0000 0.0000 22.7495 0.0000
# 6 0.0000 0.0000 0.0000 0.0000 0.0000 22.3195
#
#
#
# Elastic Compliance Matrix: (Units=1/GPa)
#
#
# Indices 1 2 3 4 5 6 
#
# 1 0.044020 -0.007185 -0.004773 0.000000 0.000000 0.000000
# 2 -0.007185 0.010506 -0.007492 0.000000 0.000000 0.000000
# 3 -0.004773 -0.007492 0.016804 0.000000 0.000000 0.000000
# 4 0.000000 0.000000 0.000000 -0.095459 0.000000 0.000000
# 5 0.000000 0.000000 0.000000 0.000000 0.043957 0.000000
# 6 0.000000 0.000000 0.000000 0.000000 0.000000 0.044804
#
#
# Mechanical properties :
#
#
# Convention : Reuss Voigt Hill
#
# Bulk Modulus (GPa) = 30.83683 75.41484 53.12583
# Shear Modulus (GPa) = 43.72873 18.21741 30.97307
#
# Velocity S-wave (km/s) = 4.72383 3.04898 3.97561
# Velocity P-wave (km/s) = 6.74453 7.13295 6.94146
#
# Compressibility (1/GPa) = 0.03242876
#
# Stress axis : x y z
#
# Youngs Moduli (GPa) = 22.71700 95.18679 59.51091
#
# Poissons Ratio (x) = 0.68393 0.28404
# Poissons Ratio (y) = 0.16322 0.44587
# Poissons Ratio (z) = 0.10843 0.71315
#
# Static dielectric constant tensor:
#      x y z
#    x 1.674300 0.000000 0.000000 
#    y 0.000000 1.730650 0.000000 
#    z 0.000000 0.000000 1.668720 
# 
# From -- ./inp_files/45321.got.cif
#   From: 2010.05.17/outbox.cif.g08.bks.cpg/sg67_23_cif.got.tgz:45321.got - 2010.06.03 18:28:57.
