data_PCOD9504405
_publ_section_title
;
Structure prediction by ZEFSAII (Michael W. Deem and Ramdas Pophale) SiO2 
 PCOD9504405
Probable space group: C M M A
;
_chemical_formula_sum "Si O2"
_cell_formula_units_Z 104
_cell_length_a 25.225513
_cell_length_b 21.704009
_cell_length_c 9.544844
_cell_angle_alpha 90.000000
_cell_angle_beta 90.000000
_cell_angle_gamma 90.000000
_cell_volume 5225.752086
_symmetry_space_group_name_H-M "C M M A"
_symmetry_group_IT_number 67
_symmetry_cell_setting 'orthorhombic'
loop_
_space_group_symop_operation_xyz
x,y,z
-x,1/2-y,z
x,-y,-z
-x,1/2+y,-z
-x,-y,-z
x,1/2+y,-z
-x,y,z
x,1/2-y,z
1/2+x,1/2+y,z
1/2-x,-y,z
1/2+x,1/2-y,-z
1/2-x,y,-z
1/2-x,1/2-y,-z
1/2+x,y,-z
1/2-x,1/2+y,z
1/2+x,-y,z
loop_
_atom_site_type_symbol
_atom_site_label
_atom_site_fract_x
_atom_site_fract_y
_atom_site_fract_z
Si Si1 0.693165 0.573584 0.172059
Si Si2 0.699833 0.178491 0.599951
Si Si3 0.500000 0.823459 0.980261
Si Si4 0.000000 0.517193 0.334620
Si Si5 0.580732 0.181920 0.520727
Si Si6 0.319858 0.563648 0.844188
Si Si7 0.922831 0.377613 0.759658
Si Si8 0.000000 0.118597 0.282651
O O1 0.685917 0.631991 0.272564
O O2 0.670385 0.506132 0.212209
O O3 0.757156 0.570514 0.173604
O O4 0.673481 0.575687 0.011216
O O5 0.709834 0.250000 0.645182
O O6 0.750000 0.160512 0.500000
O O7 0.644168 0.177894 0.519127
O O8 0.500000 0.750000 0.964962
O O9 0.449545 0.853539 0.901352
O O10 0.500000 0.842433 0.141752
O O11 0.000000 0.500000 0.500000
O O12 0.049731 0.558984 0.290238
O O13 0.000000 0.453488 0.251602
O O14 0.565765 0.250000 0.569486
O O15 0.563608 0.169969 0.362585
O O16 0.551112 0.134876 0.622632
O O17 0.360562 0.609719 0.772921
#
# Coordination Sequence:
#
# PCOD9504405 Si02
#       8
#    16  16   8   8  16  16  16   8
#     4   9  19  39  59  89 128 163 205 260 314 379
#     4  10  22  39  61  91 126 164 214 263 315 380
#     4  11  26  44  64  93 127 165 219 271 314 390
#     4  11  23  41  60  94 126 160 208 264 319 377
#     4  11  23  40  63  86 121 170 206 257 318 379
#     4   9  20  36  63  89 122 166 208 256 320 384
#     4  11  23  40  65  92 126 166 209 266 323 378
#     4  12  25  42  64  91 124 162 215 261 318 386
#
# _framework density 19.901441999999999
#
# number of rings (size 3 to 8) (size 9 to 14) (size 15 to 20)
#    0.000    1.692    1.538    3.462    4.308    2.462 
#    0.000    7.692    0.000    0.000    0.000    0.000 
#    0.000    0.000    0.000    0.000    0.000    0.000 
#
# Total GULP energy -289760.361125 kJ/mol
# GULP energy per Si atom -5572.314637 kJ/mol
# Density = 1.985614 g / cm^3
# Si number density = 19.901442 Si / 1000 Ang^3
#
#
#
# Elastic Constant Matrix: (Units=GPa)
#
#
# Indices 1 2 3 4 5 6 
#
# 1 75.0961 17.4317 19.3739 0.0000 0.0000 0.0000
# 2 17.4317 99.5067 33.5183 0.0000 0.0000 0.0000
# 3 19.3739 33.5183 77.7246 0.0000 0.0000 0.0000
# 4 0.0000 0.0000 0.0000 37.3680 0.0000 0.0000
# 5 0.0000 0.0000 0.0000 0.0000 9.1682 0.0000
# 6 0.0000 0.0000 0.0000 0.0000 0.0000 6.6771
#
#
#
# Elastic Compliance Matrix: (Units=1/GPa)
#
#
# Indices 1 2 3 4 5 6 
#
# 1 0.014430 -0.001540 -0.002933 0.000000 0.000000 0.000000
# 2 -0.001540 0.011922 -0.004757 0.000000 0.000000 0.000000
# 3 -0.002933 -0.004757 0.015649 0.000000 0.000000 0.000000
# 4 0.000000 0.000000 0.000000 0.026761 0.000000 0.000000
# 5 0.000000 0.000000 0.000000 0.000000 0.109073 0.000000
# 6 0.000000 0.000000 0.000000 0.000000 0.000000 0.149765
#
#
# Mechanical properties :
#
#
# Convention : Reuss Voigt Hill
#
# Bulk Modulus (GPa) = 42.48021 43.66390 43.07206
# Shear Modulus (GPa) = 14.12801 22.77623 18.45212
#
# Velocity S-wave (km/s) = 2.66728 3.38664 3.04826
# Velocity P-wave (km/s) = 5.55675 6.10575 5.83771
#
# Compressibility (1/GPa) = 0.02354037
#
# Stress axis : x y z
#
# Youngs Moduli (GPa) = 69.29820 83.87963 63.90364
#
# Poissons Ratio (x) = 0.12918 0.18742
# Poissons Ratio (y) = 0.10672 0.30401
# Poissons Ratio (z) = 0.20324 0.39905
#
# Static dielectric constant tensor:
#      x y z
#    x 1.701950 0.000000 0.000000 
#    y 0.000000 1.723250 0.000000 
#    z 0.000000 0.000000 1.687500 
# 
# From -- ./inp_files/13842.got.cif
#   From: 2010.05.17/outbox.cif.g08.bks.cpg/sg67_7_cif.got.tgz:13842.got - 2010.06.03 18:28:57.
