data_PCOD9504403
_publ_section_title
;
Structure prediction by ZEFSAII (Michael W. Deem and Ramdas Pophale) SiO2 
 PCOD9504403
Probable space group: C M M A
;
_chemical_formula_sum "Si O2"
_cell_formula_units_Z 80
_cell_length_a 26.215577
_cell_length_b 16.225779
_cell_length_c 9.217998
_cell_angle_alpha 90.000000
_cell_angle_beta 90.000000
_cell_angle_gamma 90.000000
_cell_volume 3921.042837
_symmetry_space_group_name_H-M "C M M A"
_symmetry_group_IT_number 67
_symmetry_cell_setting 'orthorhombic'
loop_
_space_group_symop_operation_xyz
x,y,z
-x,1/2-y,z
x,-y,-z
-x,1/2+y,-z
-x,-y,-z
x,1/2+y,-z
-x,y,z
x,1/2-y,z
1/2+x,1/2+y,z
1/2-x,-y,z
1/2+x,1/2-y,-z
1/2-x,y,-z
1/2-x,1/2-y,-z
1/2+x,y,-z
1/2-x,1/2+y,z
1/2+x,-y,z
loop_
_atom_site_type_symbol
_atom_site_label
_atom_site_fract_x
_atom_site_fract_y
_atom_site_fract_z
Si Si1 0.857771 0.651396 0.189982
Si Si2 0.654749 0.349503 0.855186
Si Si3 0.059142 0.080512 0.599681
Si Si4 0.555695 0.845108 0.304091
Si Si5 0.752129 0.901053 0.333092
O O1 0.868633 0.750000 0.194470
O O2 0.902342 0.601563 0.272068
O O3 0.804766 0.632345 0.269244
O O4 0.849138 0.625912 0.022901
O O5 0.654185 0.250000 0.852400
O O6 0.604355 0.382729 0.774294
O O7 0.704961 0.374390 0.767434
O O8 0.062973 0.150824 0.476622
O O9 0.000000 0.075224 0.646855
O O10 0.070882 0.000000 0.500000
O O11 0.500000 0.883042 0.272278
O O12 0.553440 0.750000 0.258831
O O13 0.750000 0.872193 0.500000
O O14 0.750000 0.000000 0.334214
#
# Coordination Sequence:
#
# PCOD9504403 Si02
#       5
#    16  16  16  16  16
#     4  11  24  40  63  92 124 164 208 258 316 378
#     4  10  22  40  61  90 127 163 205 257 313 377
#     4  10  22  39  61  91 126 163 207 258 310 370
#     4   9  18  35  60  86 115 157 203 246 298 362
#     4  11  25  41  62  90 122 164 211 259 314 376
#
# _framework density 20.402735
#
# number of rings (size 3 to 8) (size 9 to 14) (size 15 to 20)
#    0.000    1.800    0.000    3.000    5.600    8.400 
#    0.000    2.000    0.000    3.600    0.000    0.000 
#    0.000    0.000    0.000    0.000    0.000    0.000 
#
# Total GULP energy -223294.477917 kJ/mol
# GULP energy per Si atom -5582.361948 kJ/mol
# Density = 2.035630 g / cm^3
# Si number density = 20.402735 Si / 1000 Ang^3
#
#
#
# Elastic Constant Matrix: (Units=GPa)
#
#
# Indices 1 2 3 4 5 6 
#
# 1 185.8423 33.7920 126.5072 0.0000 0.0000 0.0000
# 2 33.7920 51.6765 33.7576 0.0000 0.0000 0.0000
# 3 126.5072 33.7576 179.2140 0.0000 0.0000 0.0000
# 4 0.0000 0.0000 0.0000 13.9924 0.0000 0.0000
# 5 0.0000 0.0000 0.0000 0.0000 108.6166 0.0000
# 6 0.0000 0.0000 0.0000 0.0000 0.0000 21.0893
#
#
#
# Elastic Compliance Matrix: (Units=1/GPa)
#
#
# Indices 1 2 3 4 5 6 
#
# 1 0.010599 -0.002330 -0.007043 0.000000 0.000000 0.000000
# 2 -0.002330 0.022579 -0.002608 0.000000 0.000000 0.000000
# 3 -0.007043 -0.002608 0.011043 0.000000 0.000000 0.000000
# 4 0.000000 0.000000 0.000000 0.071467 0.000000 0.000000
# 5 0.000000 0.000000 0.000000 0.000000 0.009207 0.000000
# 6 0.000000 0.000000 0.000000 0.000000 0.000000 0.047417
#
#
# Mechanical properties :
#
#
# Convention : Reuss Voigt Hill
#
# Bulk Modulus (GPa) = 49.36317 89.42737 69.39527
# Shear Modulus (GPa) = 24.62735 43.58472 34.10603
#
# Velocity S-wave (km/s) = 3.47805 4.62694 4.09301
# Velocity P-wave (km/s) = 6.35421 8.51299 7.51156
#
# Compressibility (1/GPa) = 0.02025802
#
# Stress axis : x y z
#
# Youngs Moduli (GPa) = 94.35074 44.28967 90.55736
#
# Poissons Ratio (x) = 0.10319 0.63777
# Poissons Ratio (y) = 0.21984 0.23620
# Poissons Ratio (z) = 0.66449 0.11552
#
# Static dielectric constant tensor:
#      x y z
#    x 1.719860 0.000000 0.000000 
#    y 0.000000 1.790520 0.000000 
#    z 0.000000 0.000000 1.711130 
# 
# From -- ./inp_files/13539.got.cif
#   From: 2010.05.17/outbox.cif.g08.bks.cpg/sg67_7_cif.got.tgz:13539.got - 2010.06.03 18:28:57.
