data_PCOD9504657
_publ_section_title
;
Structure prediction by ZEFSAII (Michael W. Deem and Ramdas Pophale) SiO2 
 PCOD9504657
Probable space group: C M M A
;
_chemical_formula_sum "Si O2"
_cell_formula_units_Z 52
_cell_length_a 7.843259
_cell_length_b 16.512295
_cell_length_c 22.090531
_cell_angle_alpha 90.000000
_cell_angle_beta 90.000000
_cell_angle_gamma 90.000000
_cell_volume 2860.949229
_symmetry_space_group_name_H-M "C M M A"
_symmetry_group_IT_number 67
_symmetry_cell_setting 'orthorhombic'
loop_
_space_group_symop_operation_xyz
x,y,z
-x,1/2-y,z
x,-y,-z
-x,1/2+y,-z
-x,-y,-z
x,1/2+y,-z
-x,y,z
x,1/2-y,z
1/2+x,1/2+y,z
1/2-x,-y,z
1/2+x,1/2-y,-z
1/2-x,y,-z
1/2-x,1/2-y,-z
1/2+x,y,-z
1/2-x,1/2+y,z
1/2+x,-y,z
loop_
_atom_site_type_symbol
_atom_site_label
_atom_site_fract_x
_atom_site_fract_y
_atom_site_fract_z
Si Si1 0.500000 0.250000 0.237398
Si Si2 0.000000 0.660429 0.355873
Si Si3 0.798545 0.594191 0.566023
Si Si4 0.297804 0.908270 0.929086
Si Si5 0.190335 0.750000 0.855414
O O1 0.500000 0.173970 0.283768
O O2 0.334813 0.250000 0.195565
O O3 0.173344 0.623195 0.381211
O O4 0.000000 0.750000 0.382815
O O5 0.750000 0.500000 0.561546
O O6 0.750000 0.630355 0.500000
O O7 0.000000 0.604894 0.576829
O O8 0.500000 0.899276 0.922717
O O9 0.214224 0.832115 0.894888
O O10 0.250000 0.000000 0.908511
O O11 0.250000 0.903702 0.000000
O O12 0.000000 0.750000 0.829824
#
# Coordination Sequence:
#
# PCOD9504657 Si02
#       5
#     4   8  16  16   8
#     4  10  26  48  58  82 126 166 210 258 302 354
#     4  10  24  41  59  88 127 153 207 252 302 362
#     4  11  19  36  65  94 125 159 194 248 315 374
#     4  11  21  37  62 101 133 157 201 260 315 381
#     4  12  23  43  69  85 123 174 211 253 318 366
#
# _framework density 18.175785000000001
#
# number of rings (size 3 to 8) (size 9 to 14) (size 15 to 20)
#    0.462    0.615    4.615    5.077    0.000    2.462 
#    0.000    1.538    0.000    0.000    0.000    0.000 
#    0.000    0.000    0.000    0.000    0.000    0.000 
#
# Total GULP energy -144905.272318 kJ/mol
# GULP energy per Si atom -5573.279705 kJ/mol
# Density = 1.813442 g / cm^3
# Si number density = 18.175785 Si / 1000 Ang^3
#
#
#
# Elastic Constant Matrix: (Units=GPa)
#
#
# Indices 1 2 3 4 5 6 
#
# 1 193.3099 37.3390 57.3358 0.0000 0.0000 0.0000
# 2 37.3390 99.3248 48.7119 0.0000 0.0000 0.0000
# 3 57.3358 48.7119 104.5438 0.0000 0.0000 0.0000
# 4 0.0000 0.0000 0.0000 28.2557 0.0000 0.0000
# 5 0.0000 0.0000 0.0000 0.0000 29.9262 0.0000
# 6 0.0000 0.0000 0.0000 0.0000 0.0000 23.9802
#
#
#
# Elastic Compliance Matrix: (Units=1/GPa)
#
#
# Indices 1 2 3 4 5 6 
#
# 1 0.006235 -0.000864 -0.003017 0.000000 0.000000 0.000000
# 2 -0.000864 0.013170 -0.005662 0.000000 0.000000 0.000000
# 3 -0.003017 -0.005662 0.013858 0.000000 0.000000 0.000000
# 4 0.000000 0.000000 0.000000 0.035391 0.000000 0.000000
# 5 0.000000 0.000000 0.000000 0.000000 0.033416 0.000000
# 6 0.000000 0.000000 0.000000 0.000000 0.000000 0.041701
#
#
# Mechanical properties :
#
#
# Convention : Reuss Voigt Hill
#
# Bulk Modulus (GPa) = 70.54167 75.99464 73.26815
# Shear Modulus (GPa) = 29.83600 33.35187 31.59394
#
# Velocity S-wave (km/s) = 4.05597 4.28829 4.17375
# Velocity P-wave (km/s) = 7.79933 8.14991 7.97654
#
# Compressibility (1/GPa) = 0.01417602
#
# Stress axis : x y z
#
# Youngs Moduli (GPa) = 160.39189 75.93040 72.15945
#
# Poissons Ratio (x) = 0.06563 0.21768
# Poissons Ratio (y) = 0.13864 0.40860
# Poissons Ratio (z) = 0.48384 0.42995
#
# Static dielectric constant tensor:
#      x y z
#    x 1.581860 0.000000 0.000000 
#    y 0.000000 1.540550 0.000000 
#    z 0.000000 0.000000 1.627470 
# 
# From -- ./inp_files/40392.got.cif
#   From: 2010.05.17/outbox.cif.g08.bks.cpg/sg67_21_cif.got.tgz:40392.got - 2010.06.03 18:28:57.
