data_PCOD9504907
_publ_section_title
;
Structure prediction by ZEFSAII (Michael W. Deem and Ramdas Pophale) SiO2 
 PCOD9504907
Probable space group: C M M A
;
_chemical_formula_sum "Si O2"
_cell_formula_units_Z 88
_cell_length_a 10.831672
_cell_length_b 29.887005
_cell_length_c 12.325719
_cell_angle_alpha 90.000000
_cell_angle_beta 90.000000
_cell_angle_gamma 90.000000
_cell_volume 3990.158608
_symmetry_space_group_name_H-M "C M M A"
_symmetry_group_IT_number 67
_symmetry_cell_setting 'orthorhombic'
loop_
_space_group_symop_operation_xyz
x,y,z
-x,1/2-y,z
x,-y,-z
-x,1/2+y,-z
-x,-y,-z
x,1/2+y,-z
-x,y,z
x,1/2-y,z
1/2+x,1/2+y,z
1/2-x,-y,z
1/2+x,1/2-y,-z
1/2-x,y,-z
1/2-x,1/2-y,-z
1/2+x,y,-z
1/2-x,1/2+y,z
1/2+x,-y,z
loop_
_atom_site_type_symbol
_atom_site_label
_atom_site_fract_x
_atom_site_fract_y
_atom_site_fract_z
Si Si1 0.186955 0.452778 0.205519
Si Si2 0.500000 0.631550 0.837880
Si Si3 0.500000 0.946523 0.016073
Si Si4 0.000000 0.992819 0.629132
Si Si5 0.750000 0.877047 0.500000
Si Si6 0.500000 0.591348 0.608902
Si Si7 0.281486 0.700111 0.874480
Si Si8 0.853322 0.859787 0.720681
O O1 0.250000 0.500000 0.175846
O O2 0.113574 0.468246 0.314308
O O3 0.227860 0.403704 0.243973
O O4 0.114662 0.439002 0.096438
O O5 0.500000 0.625231 0.708263
O O6 0.385543 0.662782 0.866423
O O7 0.500000 0.585695 0.911283
O O8 0.500000 0.000000 0.000000
O O9 0.000000 0.043628 0.668775
O O10 0.000000 0.000000 0.500000
O O11 0.626379 0.904079 0.538750
O O12 0.801346 0.849347 0.601688
O O13 0.317408 0.750000 0.836827
O O14 0.170340 0.680231 0.803043
O O15 0.250000 0.703039 0.000000
O O16 0.000000 0.871211 0.718018
#
# Coordination Sequence:
#
# PCOD9504907 Si02
#       8
#    16   8   8   8   8   8  16  16
#     4  11  24  42  61  94 143 193 244 300 365 443
#     4  12  24  49  75 105 147 189 244 307 374 451
#     4  11  25  41  62 102 138 191 239 296 367 445
#     4  11  22  39  59  96 138 184 255 294 356 432
#     4  12  24  44  72 106 146 188 254 304 386 456
#     4  12  24  43  74 105 145 202 243 315 367 452
#     4  11  27  47  77 111 141 188 245 308 378 450
#     4  12  24  46  73 104 148 193 244 309 378 445
#
# _framework density 22.054259999999999
#
# number of rings (size 3 to 8) (size 9 to 14) (size 15 to 20)
#    0.000    0.545    4.545    4.636    3.818    1.091 
#    0.000    0.455    0.000    0.000    0.000    0.000 
#    0.000    0.000    0.000    0.000    0.000    0.000 
#
# Total GULP energy -245381.109679 kJ/mol
# GULP energy per Si atom -5576.843402 kJ/mol
# Density = 2.200406 g / cm^3
# Si number density = 22.054260 Si / 1000 Ang^3
#
#
#
# Elastic Constant Matrix: (Units=GPa)
#
#
# Indices 1 2 3 4 5 6 
#
# 1 95.1094 34.3889 32.1883 0.0000 0.0000 0.0000
# 2 34.3889 119.9902 49.5509 0.0000 0.0000 0.0000
# 3 32.1883 49.5509 124.3824 0.0000 0.0000 0.0000
# 4 0.0000 0.0000 0.0000 13.9361 0.0000 0.0000
# 5 0.0000 0.0000 0.0000 0.0000 6.0127 0.0000
# 6 0.0000 0.0000 0.0000 0.0000 0.0000 149.1224
#
#
#
# Elastic Compliance Matrix: (Units=1/GPa)
#
#
# Indices 1 2 3 4 5 6 
#
# 1 0.012174 -0.002619 -0.002107 0.000000 0.000000 0.000000
# 2 -0.002619 0.010538 -0.003521 0.000000 0.000000 0.000000
# 3 -0.002107 -0.003521 0.009988 0.000000 0.000000 0.000000
# 4 0.000000 0.000000 0.000000 0.071756 0.000000 0.000000
# 5 0.000000 0.000000 0.000000 0.000000 0.166314 0.000000
# 6 0.000000 0.000000 0.000000 0.000000 0.000000 0.006706
#
#
# Mechanical properties :
#
#
# Convention : Reuss Voigt Hill
#
# Bulk Modulus (GPa) = 61.70197 63.52645 62.61421
# Shear Modulus (GPa) = 16.70165 48.70451 32.70308
#
# Velocity S-wave (km/s) = 2.75489 4.70445 3.85495
# Velocity P-wave (km/s) = 6.17716 7.64044 6.94743
#
# Compressibility (1/GPa) = 0.01620694
#
# Stress axis : x y z
#
# Youngs Moduli (GPa) = 82.14024 94.89091 100.12496
#
# Poissons Ratio (x) = 0.24851 0.21098
# Poissons Ratio (y) = 0.21512 0.35249
# Poissons Ratio (z) = 0.17309 0.33406
#
# Static dielectric constant tensor:
#      x y z
#    x 1.920260 0.000000 0.000000 
#    y 0.000000 1.829540 0.000000 
#    z 0.000000 0.000000 1.821480 
# 
# From -- ./inp_files/16923.got.cif
#   From: 2010.05.17/outbox.cif.g08.bks.cpg/sg67_9_cif.got.tgz:16923.got - 2010.06.03 18:28:57.
