data_PCOD9504200
_publ_section_title
;
Structure prediction by ZEFSAII (Michael W. Deem and Ramdas Pophale) SiO2 
 PCOD9504200
Probable space group: C M M A
;
_chemical_formula_sum "Si O2"
_cell_formula_units_Z 72
_cell_length_a 8.958151
_cell_length_b 24.644576
_cell_length_c 14.770753
_cell_angle_alpha 90.000000
_cell_angle_beta 90.000000
_cell_angle_gamma 90.000000
_cell_volume 3260.936675
_symmetry_space_group_name_H-M "C M M A"
_symmetry_group_IT_number 67
_symmetry_cell_setting 'orthorhombic'
loop_
_space_group_symop_operation_xyz
x,y,z
-x,1/2-y,z
x,-y,-z
-x,1/2+y,-z
-x,-y,-z
x,1/2+y,-z
-x,y,z
x,1/2-y,z
1/2+x,1/2+y,z
1/2-x,-y,z
1/2+x,1/2-y,-z
1/2-x,y,-z
1/2-x,1/2-y,-z
1/2+x,y,-z
1/2-x,1/2+y,z
1/2+x,-y,z
loop_
_atom_site_type_symbol
_atom_site_label
_atom_site_fract_x
_atom_site_fract_y
_atom_site_fract_z
Si Si1 0.821480 0.927235 0.404769
Si Si2 0.250000 0.500000 0.753619
Si Si3 0.332186 0.079639 0.087634
Si Si4 0.323432 0.809951 0.148886
Si Si5 0.829369 0.691172 0.338607
O O1 0.750000 0.942910 0.500000
O O2 0.724116 0.953110 0.322855
O O3 0.812772 0.862300 0.397142
O O4 0.000000 0.942159 0.395472
O O5 0.332995 0.538359 0.827304
O O6 0.500000 0.091256 0.061672
O O7 0.254466 0.136704 0.110686
O O8 0.250000 0.057012 0.000000
O O9 0.500000 0.813688 0.134910
O O10 0.272490 0.750000 0.115476
O O11 0.283503 0.810796 0.255268
O O12 0.813916 0.750000 0.384489
O O13 0.000000 0.688728 0.301017
#
# Coordination Sequence:
#
# PCOD9504200 Si02
#       5
#    16   8  16  16  16
#     4  11  25  44  67 101 135 177 227 277 337 401
#     4  12  26  46  70  94 128 178 230 284 336 398
#     4  12  27  47  72 103 135 177 226 277 340 404
#     4  10  21  39  67 103 139 177 221 272 334 400
#     4   9  18  38  67  97 133 177 223 273 335 405
#
# _framework density 22.079546000000001
#
# number of rings (size 3 to 8) (size 9 to 14) (size 15 to 20)
#    0.000    1.333    2.222    2.667    0.000   10.222 
#    0.000    0.000    0.000    0.000    0.000    0.000 
#    0.000    0.000    0.000    0.000    0.000    0.000 
#
# Total GULP energy -200471.692837 kJ/mol
# GULP energy per Si atom -5568.658134 kJ/mol
# Density = 2.202929 g / cm^3
# Si number density = 22.079546 Si / 1000 Ang^3
#
#
#
# Elastic Constant Matrix: (Units=GPa)
#
#
# Indices 1 2 3 4 5 6 
#
# 1 80.6559 63.7736 34.1947 0.0000 0.0000 0.0000
# 2 63.7736 179.0483 35.4642 0.0000 0.0000 0.0000
# 3 34.1947 35.4642 121.9576 0.0000 0.0000 0.0000
# 4 0.0000 0.0000 0.0000 -29.9057 0.0000 0.0000
# 5 0.0000 0.0000 0.0000 0.0000 17.3174 0.0000
# 6 0.0000 0.0000 0.0000 0.0000 0.0000 -39.5085
#
#
#
# Elastic Compliance Matrix: (Units=1/GPa)
#
#
# Indices 1 2 3 4 5 6 
#
# 1 0.018554 -0.005919 -0.003481 0.000000 0.000000 0.000000
# 2 -0.005919 0.007815 -0.000613 0.000000 0.000000 0.000000
# 3 -0.003481 -0.000613 0.009354 0.000000 0.000000 0.000000
# 4 0.000000 0.000000 0.000000 -0.033438 0.000000 0.000000
# 5 0.000000 0.000000 0.000000 0.000000 0.057745 0.000000
# 6 0.000000 0.000000 0.000000 0.000000 0.000000 -0.025311
#
#
# Mechanical properties :
#
#
# Convention : Reuss Voigt Hill
#
# Bulk Modulus (GPa) = 63.70738 72.05853 67.88296
# Shear Modulus (GPa) = 83.36478 6.12926 44.74702
#
# Velocity S-wave (km/s) = 6.15130 1.66794 4.50669
# Velocity P-wave (km/s) = 8.90885 6.03457 7.60867
#
# Compressibility (1/GPa) = 0.01569677
#
# Stress axis : x y z
#
# Youngs Moduli (GPa) = 53.89548 127.96248 106.90842
#
# Poissons Ratio (x) = 0.75744 0.37215
# Poissons Ratio (y) = 0.31902 0.06552
# Poissons Ratio (z) = 0.18761 0.07842
#
# Static dielectric constant tensor:
#      x y z
#    x 1.801370 0.000000 0.000000 
#    y 0.000000 1.855070 0.000000 
#    z 0.000000 0.000000 1.772600 
# 
# From -- ./inp_files/25101.got.cif
#   From: 2010.05.17/outbox.cif.g08.bks.cpg/sg67_13_cif.got.tgz:25101.got - 2010.06.03 18:28:57.
