data_PCOD9504765
_publ_section_title
;
Structure prediction by ZEFSAII (Michael W. Deem and Ramdas Pophale) SiO2 
 PCOD9504765
Probable space group: C M M A
;
_chemical_formula_sum "Si O2"
_cell_formula_units_Z 64
_cell_length_a 22.179384
_cell_length_b 15.384608
_cell_length_c 7.786835
_cell_angle_alpha 90.000000
_cell_angle_beta 90.000000
_cell_angle_gamma 90.000000
_cell_volume 2657.032626
_symmetry_space_group_name_H-M "C M M A"
_symmetry_group_IT_number 67
_symmetry_cell_setting 'orthorhombic'
loop_
_space_group_symop_operation_xyz
x,y,z
-x,1/2-y,z
x,-y,-z
-x,1/2+y,-z
-x,-y,-z
x,1/2+y,-z
-x,y,z
x,1/2-y,z
1/2+x,1/2+y,z
1/2-x,-y,z
1/2+x,1/2-y,-z
1/2-x,y,-z
1/2-x,1/2-y,-z
1/2+x,y,-z
1/2-x,1/2+y,z
1/2+x,-y,z
loop_
_atom_site_type_symbol
_atom_site_label
_atom_site_fract_x
_atom_site_fract_y
_atom_site_fract_z
Si Si1 0.243094 0.354612 0.296011
Si Si2 0.129176 0.347329 0.764165
Si Si3 0.500000 0.349911 0.736082
Si Si4 0.625011 0.409781 0.599187
Si Si5 0.500000 0.850229 0.856509
O O1 0.241109 0.250000 0.277745
O O2 0.250000 0.376121 0.500000
O O3 0.303923 0.384891 0.199579
O O4 0.177300 0.393301 0.261462
O O5 0.127381 0.250000 0.841489
O O6 0.129723 0.341575 0.557284
O O7 0.064714 0.390594 0.805187
O O8 0.500000 0.250000 0.671420
O O9 0.559501 0.398364 0.675699
O O10 0.500000 0.346308 0.940191
O O11 0.632838 0.500000 0.500000
O O12 0.500000 0.750000 0.785806
#
# Coordination Sequence:
#
# PCOD9504765 Si02
#       5
#    16  16   8  16   8
#     4   8  15  29  51  78 105 135 177 228 274 318
#     4   9  17  33  56  79 106 144 187 227 275 333
#     4  11  22  37  55  78 111 145 184 233 278 322
#     4  11  21  33  52  82 110 141 182 226 279 332
#     4   9  19  35  56  80 106 143 188 231 272 320
#
# _framework density 24.087021
#
# number of rings (size 3 to 8) (size 9 to 14) (size 15 to 20)
#    0.000    2.500    0.000    4.875    0.000    5.500 
#    0.000    3.750    0.000    6.000    0.000   10.500 
#    0.000    0.000    0.000    0.000    0.000    2.750 
#
# Total GULP energy -178440.129311 kJ/mol
# GULP energy per Si atom -5576.254041 kJ/mol
# Density = 2.403220 g / cm^3
# Si number density = 24.087021 Si / 1000 Ang^3
#
#
#
# Elastic Constant Matrix: (Units=GPa)
#
#
# Indices 1 2 3 4 5 6 
#
# 1 321.5462 37.1926 24.6829 0.0000 0.0000 0.0000
# 2 37.1926 94.3911 1.9346 0.0000 0.0000 0.0000
# 3 24.6829 1.9346 24.2282 0.0000 0.0000 0.0000
# 4 0.0000 0.0000 0.0000 5.8276 0.0000 0.0000
# 5 0.0000 0.0000 0.0000 0.0000 -44.2701 0.0000
# 6 0.0000 0.0000 0.0000 0.0000 0.0000 7.0613
#
#
#
# Elastic Compliance Matrix: (Units=1/GPa)
#
#
# Indices 1 2 3 4 5 6 
#
# 1 0.003531 -0.001320 -0.003492 0.000000 0.000000 0.000000
# 2 -0.001320 0.011105 0.000458 0.000000 0.000000 0.000000
# 3 -0.003492 0.000458 0.044795 0.000000 0.000000 0.000000
# 4 0.000000 0.000000 0.000000 0.171598 0.000000 0.000000
# 5 0.000000 0.000000 0.000000 0.000000 -0.022589 0.000000
# 6 0.000000 0.000000 0.000000 0.000000 0.000000 0.141617
#
#
# Mechanical properties :
#
#
# Convention : Reuss Voigt Hill
#
# Bulk Modulus (GPa) = 19.71486 63.08731 41.40108
# Shear Modulus (GPa) = 13.30950 18.81412 16.06181
#
# Velocity S-wave (km/s) = 2.35321 2.79783 2.58510
# Velocity P-wave (km/s) = 3.94792 6.05685 5.11231
#
# Compressibility (1/GPa) = 0.05072317
#
# Stress axis : x y z
#
# Youngs Moduli (GPa) = 283.23578 90.05121 22.32408
#
# Poissons Ratio (x) = 0.11883 0.07794
# Poissons Ratio (y) = 0.37376 -0.01022
# Poissons Ratio (z) = 0.98892 -0.04121
#
# Static dielectric constant tensor:
#      x y z
#    x 2.088480 0.000000 0.000000 
#    y 0.000000 1.982290 0.000000 
#    z 0.000000 0.000000 1.881010 
# 
# From -- ./inp_files/9399.got.cif
#   From: 2010.05.17/outbox.cif.g08.bks.cpg/sg67_5_cif.got.tgz:9399.got - 2010.06.03 18:28:57.
