data_PCOD9504065
_publ_section_title
;
Structure prediction by ZEFSAII (Michael W. Deem and Ramdas Pophale) SiO2 
 PCOD9504065
Probable space group: C M M A
;
_chemical_formula_sum "Si O2"
_cell_formula_units_Z 60
_cell_length_a 9.554066
_cell_length_b 13.952016
_cell_length_c 21.787012
_cell_angle_alpha 90.000000
_cell_angle_beta 90.000000
_cell_angle_gamma 90.000000
_cell_volume 2904.175620
_symmetry_space_group_name_H-M "C M M A"
_symmetry_group_IT_number 67
_symmetry_cell_setting 'orthorhombic'
loop_
_space_group_symop_operation_xyz
x,y,z
-x,1/2-y,z
x,-y,-z
-x,1/2+y,-z
-x,-y,-z
x,1/2+y,-z
-x,y,z
x,1/2-y,z
1/2+x,1/2+y,z
1/2-x,-y,z
1/2+x,1/2-y,-z
1/2-x,y,-z
1/2-x,1/2-y,-z
1/2+x,y,-z
1/2-x,1/2+y,z
1/2+x,-y,z
loop_
_atom_site_type_symbol
_atom_site_label
_atom_site_fract_x
_atom_site_fract_y
_atom_site_fract_z
Si Si1 0.159541 0.366587 0.677966
Si Si2 0.250000 0.500000 0.904986
Si Si3 0.500000 0.000000 0.000000
Si Si4 0.160063 0.366714 0.440466
Si Si5 0.839010 0.634994 0.796489
O O1 0.153272 0.250000 0.676708
O O2 0.256193 0.394108 0.620655
O O3 0.235179 0.392246 0.741411
O O4 0.000000 0.402009 0.673584
O O5 0.206674 0.585902 0.859511
O O6 0.378846 0.523881 0.948579
O O7 0.153016 0.250000 0.440518
O O8 0.250000 0.393494 0.500000
O O9 0.000000 0.401961 0.441954
O O10 0.834347 0.750000 0.802572
O O11 0.000000 0.608407 0.781977
#
# Coordination Sequence:
#
# PCOD9504065 Si02
#       5
#    16   8   4  16  16
#     4   9  17  28  45  73 107 143 190 243 289 341
#     4  11  22  44  64  90 121 158 186 240 285 348
#     4  10  24  42  66  90 124 152 190 234 290 338
#     4   9  15  23  37  60  97 144 190 238 293 345
#     4  10  21  38  61  88 119 156 197 240 291 346
#
# _framework density 20.659908000000001
#
# number of rings (size 3 to 8) (size 9 to 14) (size 15 to 20)
#    0.000    2.400    1.333    1.600    1.867    6.400 
#    0.000    4.000    0.000    0.000    0.000    0.933 
#    0.000    6.400    0.000    0.800    0.000    0.000 
#
# Total GULP energy -167152.845018 kJ/mol
# GULP energy per Si atom -5571.761501 kJ/mol
# Density = 2.061289 g / cm^3
# Si number density = 20.659908 Si / 1000 Ang^3
#
#
#
# Elastic Constant Matrix: (Units=GPa)
#
#
# Indices 1 2 3 4 5 6 
#
# 1 237.8964 21.6009 83.2885 0.0000 0.0000 0.0000
# 2 21.6009 63.0410 9.5324 0.0000 0.0000 0.0000
# 3 83.2885 9.5324 125.8245 0.0000 0.0000 0.0000
# 4 0.0000 0.0000 0.0000 -2.0618 0.0000 0.0000
# 5 0.0000 0.0000 0.0000 0.0000 38.7143 0.0000
# 6 0.0000 0.0000 0.0000 0.0000 0.0000 4.0867
#
#
#
# Elastic Compliance Matrix: (Units=1/GPa)
#
#
# Indices 1 2 3 4 5 6 
#
# 1 0.005586 -0.001371 -0.003594 0.000000 0.000000 0.000000
# 2 -0.001371 0.016383 -0.000334 0.000000 0.000000 0.000000
# 3 -0.003594 -0.000334 0.010352 0.000000 0.000000 0.000000
# 4 0.000000 0.000000 0.000000 -0.485021 0.000000 0.000000
# 5 0.000000 0.000000 0.000000 0.000000 0.025830 0.000000
# 6 0.000000 0.000000 0.000000 0.000000 0.000000 0.244694
#
#
# Mechanical properties :
#
#
# Convention : Reuss Voigt Hill
#
# Bulk Modulus (GPa) = 46.03202 72.84505 59.43853
# Shear Modulus (GPa) = -30.42503 28.97053 -0.72725
#
# Velocity S-wave (km/s) = -3.84169 3.74874 -0.59395
# Velocity P-wave (km/s) = 1.62822 7.35344 5.32561
#
# Compressibility (1/GPa) = 0.02172401
#
# Stress axis : x y z
#
# Youngs Moduli (GPa) = 179.01235 61.03951 96.60134
#
# Poissons Ratio (x) = 0.08367 0.34718
# Poissons Ratio (y) = 0.24537 0.03225
# Poissons Ratio (z) = 0.64335 0.02038
#
# Static dielectric constant tensor:
#      x y z
#    x 1.709290 0.000000 0.000000 
#    y 0.000000 1.807220 0.000000 
#    z 0.000000 0.000000 1.687450 
# 
# From -- ./inp_files/40399.got.cif
#   From: 2010.05.17/outbox.cif.g08.bks.cpg/sg67_21_cif.got.tgz:40399.got - 2010.06.03 18:28:57.
