data_PCOD9504181
_publ_section_title
;
Structure prediction by ZEFSAII (Michael W. Deem and Ramdas Pophale) SiO2 
 PCOD9504181
Probable space group: C M M A
;
_chemical_formula_sum "Si O2"
_cell_formula_units_Z 72
_cell_length_a 7.896206
_cell_length_b 15.427568
_cell_length_c 29.635631
_cell_angle_alpha 90.000000
_cell_angle_beta 90.000000
_cell_angle_gamma 90.000000
_cell_volume 3610.190490
_symmetry_space_group_name_H-M "C M M A"
_symmetry_group_IT_number 67
_symmetry_cell_setting 'orthorhombic'
loop_
_space_group_symop_operation_xyz
x,y,z
-x,1/2-y,z
x,-y,-z
-x,1/2+y,-z
-x,-y,-z
x,1/2+y,-z
-x,y,z
x,1/2-y,z
1/2+x,1/2+y,z
1/2-x,-y,z
1/2+x,1/2-y,-z
1/2-x,y,-z
1/2-x,1/2-y,-z
1/2+x,y,-z
1/2-x,1/2+y,z
1/2+x,-y,z
loop_
_atom_site_type_symbol
_atom_site_label
_atom_site_fract_x
_atom_site_fract_y
_atom_site_fract_z
Si Si1 0.500000 0.649527 0.714480
Si Si2 0.704253 0.601212 0.217889
Si Si3 0.192000 0.644111 0.550217
Si Si4 0.301029 0.750000 0.947922
Si Si5 0.000000 0.356710 0.613593
Si Si6 0.199475 0.900118 0.881075
O O1 0.500000 0.750000 0.705261
O O2 0.670169 0.632562 0.743195
O O3 0.500000 0.608139 0.664721
O O4 0.500000 0.614138 0.225255
O O5 0.750000 0.500000 0.214698
O O6 0.759055 0.634406 0.168051
O O7 0.190265 0.750000 0.550443
O O8 0.250000 0.618071 0.500000
O O9 0.332014 0.616374 0.586378
O O10 0.000000 0.615070 0.559319
O O11 0.500000 0.750000 0.945997
O O12 0.242119 0.835222 0.921119
O O13 0.250000 0.750000 0.000000
O O14 0.000000 0.250000 0.612772
O O15 0.000000 0.901973 0.876022
O O16 0.250000 0.000000 0.889095
#
# Coordination Sequence:
#
# PCOD9504181 Si02
#       6
#     8  16  16   8   8  16
#     4  11  24  36  56  88 128 155 196 251 316 367
#     4  10  21  39  64  88 116 158 207 254 296 364
#     4   9  14  22  40  62  91 140 193 228 277 352
#     4  12  26  42  64  92 130 168 204 254 310 369
#     4   9  18  30  40  68 111 146 179 242 296 348
#     4  10  22  40  64  93 122 157 209 259 305 366
#
# _framework density 19.943546999999999
#
# number of rings (size 3 to 8) (size 9 to 14) (size 15 to 20)
#    0.000    2.000    2.222    1.667    4.667    1.778 
#    0.000    4.444    0.000    0.000    0.000    0.000 
#    0.000    2.667    0.000    0.000    0.000    0.000 
#
# Total GULP energy -200753.186896 kJ/mol
# GULP energy per Si atom -5576.477414 kJ/mol
# Density = 1.989816 g / cm^3
# Si number density = 19.943547 Si / 1000 Ang^3
#
#
#
# Elastic Constant Matrix: (Units=GPa)
#
#
# Indices 1 2 3 4 5 6 
#
# 1 140.4456 19.5922 89.3935 0.0000 0.0000 0.0000
# 2 19.5922 42.3053 42.7627 0.0000 0.0000 0.0000
# 3 89.3935 42.7627 201.1213 0.0000 0.0000 0.0000
# 4 0.0000 0.0000 0.0000 129.9045 0.0000 0.0000
# 5 0.0000 0.0000 0.0000 0.0000 51.5339 0.0000
# 6 0.0000 0.0000 0.0000 0.0000 0.0000 19.6614
#
#
#
# Elastic Compliance Matrix: (Units=1/GPa)
#
#
# Indices 1 2 3 4 5 6 
#
# 1 0.009930 -0.000175 -0.004377 0.000000 0.000000 0.000000
# 2 -0.000175 0.030112 -0.006325 0.000000 0.000000 0.000000
# 3 -0.004377 -0.006325 0.008262 0.000000 0.000000 0.000000
# 4 0.000000 0.000000 0.000000 0.007698 0.000000 0.000000
# 5 0.000000 0.000000 0.000000 0.000000 0.019405 0.000000
# 6 0.000000 0.000000 0.000000 0.000000 0.000000 0.050861
#
#
# Mechanical properties :
#
#
# Convention : Reuss Voigt Hill
#
# Bulk Modulus (GPa) = 37.66217 76.37434 57.01825
# Shear Modulus (GPa) = 31.87334 55.69487 43.78410
#
# Velocity S-wave (km/s) = 4.00206 5.29026 4.69059
# Velocity P-wave (km/s) = 6.34671 8.70024 7.61495
#
# Compressibility (1/GPa) = 0.02655185
#
# Stress axis : x y z
#
# Youngs Moduli (GPa) = 100.70199 33.20961 121.03375
#
# Poissons Ratio (x) = 0.00581 0.52971
# Poissons Ratio (y) = 0.01762 0.76549
# Poissons Ratio (z) = 0.44073 0.21004
#
# Static dielectric constant tensor:
#      x y z
#    x 1.686300 0.000000 0.000000 
#    y 0.000000 1.745190 0.000000 
#    z 0.000000 0.000000 1.721670 
# 
# From -- ./inp_files/43155.got.cif
#   From: 2010.05.17/outbox.cif.g08.bks.cpg/sg67_22_cif.got.tgz:43155.got - 2010.06.03 18:28:57.
