data_PCOD9504691
_publ_section_title
;
Structure prediction by ZEFSAII (Michael W. Deem and Ramdas Pophale) SiO2 
 PCOD9504691
Probable space group: C M M A
;
_chemical_formula_sum "Si O2"
_cell_formula_units_Z 88
_cell_length_a 23.634208
_cell_length_b 14.892625
_cell_length_c 11.401948
_cell_angle_alpha 90.000000
_cell_angle_beta 90.000000
_cell_angle_gamma 90.000000
_cell_volume 4013.205173
_symmetry_space_group_name_H-M "C M M A"
_symmetry_group_IT_number 67
_symmetry_cell_setting 'orthorhombic'
loop_
_space_group_symop_operation_xyz
x,y,z
-x,1/2-y,z
x,-y,-z
-x,1/2+y,-z
-x,-y,-z
x,1/2+y,-z
-x,y,z
x,1/2-y,z
1/2+x,1/2+y,z
1/2-x,-y,z
1/2+x,1/2-y,-z
1/2-x,y,-z
1/2-x,1/2-y,-z
1/2+x,y,-z
1/2-x,1/2+y,z
1/2+x,-y,z
loop_
_atom_site_type_symbol
_atom_site_label
_atom_site_fract_x
_atom_site_fract_y
_atom_site_fract_z
Si Si1 0.250190 0.750000 0.645336
Si Si2 0.500000 0.479031 0.863507
Si Si3 0.129028 0.947322 0.876378
Si Si4 0.933273 0.750000 0.649125
Si Si5 0.651008 0.750000 0.173362
Si Si6 0.000000 0.654209 0.290316
Si Si7 0.696149 0.060681 0.323033
Si Si8 0.909970 0.096789 0.525605
O O1 0.250000 0.750000 0.500000
O O2 0.189146 0.750000 0.708400
O O3 0.280620 0.661179 0.695789
O O4 0.562425 0.438172 0.839106
O O5 0.500000 0.572532 0.796187
O O6 0.500000 0.500000 0.000000
O O7 0.156872 0.847669 0.886747
O O8 0.162518 0.008191 0.780608
O O9 0.131026 0.000000 0.000000
O O10 0.913098 0.750000 0.780823
O O11 0.910343 0.838701 0.584896
O O12 0.000000 0.750000 0.634954
O O13 0.945986 0.645430 0.374402
O O14 0.000000 0.750000 0.229150
O O15 0.651730 0.076624 0.426314
O O16 0.750000 0.000000 0.353600
O O17 0.936553 0.000000 0.500000
#
# Coordination Sequence:
#
# PCOD9504691 Si02
#       8
#     8   8  16   8   8   8  16  16
#     4  12  28  47  73 103 146 196 247 284 351 426
#     4  10  24  48  72 103 138 183 232 297 377 423
#     4  11  26  50  76 107 142 182 243 303 366 428
#     4  12  26  42  68 109 146 184 240 282 360 442
#     4  12  26  49  71 109 143 194 235 297 354 427
#     4  12  23  43  69 100 144 178 235 305 357 434
#     4  12  26  45  69 103 142 192 241 293 353 418
#     4  12  24  40  66 101 144 188 230 284 357 420
#
# _framework density 21.927610000000001
#
# number of rings (size 3 to 8) (size 9 to 14) (size 15 to 20)
#    0.000    0.364    5.455    3.000    3.818    1.091 
#    6.545    0.909    0.000    0.000    0.000    0.000 
#    0.000    0.000    0.000    0.000    0.000    0.000 
#
# Total GULP energy -245842.594776 kJ/mol
# GULP energy per Si atom -5587.331699 kJ/mol
# Density = 2.187770 g / cm^3
# Si number density = 21.927610 Si / 1000 Ang^3
#
#
#
# Elastic Constant Matrix: (Units=GPa)
#
#
# Indices 1 2 3 4 5 6 
#
# 1 142.0290 38.7283 23.5083 0.0000 0.0000 0.0000
# 2 38.7283 194.8593 36.0069 0.0000 0.0000 0.0000
# 3 23.5083 36.0069 55.6227 0.0000 0.0000 0.0000
# 4 0.0000 0.0000 0.0000 30.5035 0.0000 0.0000
# 5 0.0000 0.0000 0.0000 0.0000 44.8979 0.0000
# 6 0.0000 0.0000 0.0000 0.0000 0.0000 76.6188
#
#
#
# Elastic Compliance Matrix: (Units=1/GPa)
#
#
# Indices 1 2 3 4 5 6 
#
# 1 0.007760 -0.001063 -0.002591 0.000000 0.000000 0.000000
# 2 -0.001063 0.005975 -0.003418 0.000000 0.000000 0.000000
# 3 -0.002591 -0.003418 0.021286 0.000000 0.000000 0.000000
# 4 0.000000 0.000000 0.000000 0.032783 0.000000 0.000000
# 5 0.000000 0.000000 0.000000 0.000000 0.022273 0.000000
# 6 0.000000 0.000000 0.000000 0.000000 0.000000 0.013052
#
#
# Mechanical properties :
#
#
# Convention : Reuss Voigt Hill
#
# Bulk Modulus (GPa) = 47.90431 65.44423 56.67427
# Shear Modulus (GPa) = 40.24711 50.02188 45.13449
#
# Velocity S-wave (km/s) = 4.28887 4.78140 4.54182
# Velocity P-wave (km/s) = 6.81321 7.77128 7.30796
#
# Compressibility (1/GPa) = 0.02087495
#
# Stress axis : x y z
#
# Youngs Moduli (GPa) = 128.87148 167.36612 46.97875
#
# Poissons Ratio (x) = 0.17798 0.12173
# Poissons Ratio (y) = 0.13705 0.16059
# Poissons Ratio (z) = 0.33392 0.57212
#
# Static dielectric constant tensor:
#      x y z
#    x 1.858910 0.000000 0.000000 
#    y 0.000000 1.712960 0.000000 
#    z 0.000000 0.000000 1.702270 
# 
# From -- ./inp_files/21838.got.cif
#   From: 2010.05.17/outbox.cif.g08.bks.cpg/sg67_11_cif.got.tgz:21838.got - 2010.06.03 18:28:57.
