data_PCOD9504357
_publ_section_title
;
Structure prediction by ZEFSAII (Michael W. Deem and Ramdas Pophale) SiO2 
 PCOD9504357
Probable space group: C M M A
;
_chemical_formula_sum "Si O2"
_cell_formula_units_Z 80
_cell_length_a 18.513755
_cell_length_b 25.329464
_cell_length_c 8.992857
_cell_angle_alpha 90.000000
_cell_angle_beta 90.000000
_cell_angle_gamma 90.000000
_cell_volume 4217.141754
_symmetry_space_group_name_H-M "C M M A"
_symmetry_group_IT_number 67
_symmetry_cell_setting 'orthorhombic'
loop_
_space_group_symop_operation_xyz
x,y,z
-x,1/2-y,z
x,-y,-z
-x,1/2+y,-z
-x,-y,-z
x,1/2+y,-z
-x,y,z
x,1/2-y,z
1/2+x,1/2+y,z
1/2-x,-y,z
1/2+x,1/2-y,-z
1/2-x,y,-z
1/2-x,1/2-y,-z
1/2+x,y,-z
1/2-x,1/2+y,z
1/2+x,-y,z
loop_
_atom_site_type_symbol
_atom_site_label
_atom_site_fract_x
_atom_site_fract_y
_atom_site_fract_z
Si Si1 0.414489 0.058039 0.055332
Si Si2 0.776244 0.689025 0.327569
Si Si3 0.328137 0.556596 0.433884
Si Si4 0.304152 0.898303 0.132673
Si Si5 0.914750 0.880048 0.350517
O O1 0.500000 0.058250 0.038169
O O2 0.399318 0.074788 0.225576
O O3 0.379712 0.103467 0.953019
O O4 0.389248 0.000000 0.000000
O O5 0.772596 0.750000 0.281665
O O6 0.750000 0.686361 0.500000
O O7 0.726909 0.652095 0.221327
O O8 0.858050 0.666717 0.319003
O O9 0.345740 0.500000 0.500000
O O10 0.250000 0.571958 0.500000
O O11 0.315820 0.558175 0.259413
O O12 0.389183 0.596235 0.491670
O O13 0.250000 0.912964 0.000000
O O14 0.000000 0.867449 0.346607
#
# Coordination Sequence:
#
# PCOD9504357 Si02
#       5
#    16  16  16  16  16
#     4  10  22  38  57  89 132 168 199 242 305 375
#     4  11  23  44  65  85 116 156 209 269 318 367
#     4  11  21  36  58  89 125 158 204 249 289 367
#     4  12  21  38  63  92 120 162 205 252 313 359
#     4  11  21  40  61  85 122 162 206 250 306 375
#
# _framework density 18.970195
#
# number of rings (size 3 to 8) (size 9 to 14) (size 15 to 20)
#    0.000    1.000    6.000    1.200    0.000    4.000 
#    0.000    0.000    0.000    0.600    0.000    0.000 
#    0.000    0.000    0.000    0.000    0.000    0.000 
#
# Total GULP energy -223018.978920 kJ/mol
# GULP energy per Si atom -5575.474473 kJ/mol
# Density = 1.892702 g / cm^3
# Si number density = 18.970195 Si / 1000 Ang^3
#
#
#
# Elastic Constant Matrix: (Units=GPa)
#
#
# Indices 1 2 3 4 5 6 
#
# 1 71.2806 37.6007 36.6928 0.0000 0.0000 0.0000
# 2 37.6007 96.7821 31.7662 0.0000 0.0000 0.0000
# 3 36.6928 31.7662 129.7033 0.0000 0.0000 0.0000
# 4 0.0000 0.0000 0.0000 21.9094 0.0000 0.0000
# 5 0.0000 0.0000 0.0000 0.0000 30.4687 0.0000
# 6 0.0000 0.0000 0.0000 0.0000 0.0000 15.0190
#
#
#
# Elastic Compliance Matrix: (Units=1/GPa)
#
#
# Indices 1 2 3 4 5 6 
#
# 1 0.019342 -0.006218 -0.003949 0.000000 0.000000 0.000000
# 2 -0.006218 0.013235 -0.001482 0.000000 0.000000 0.000000
# 3 -0.003949 -0.001482 0.009190 0.000000 0.000000 0.000000
# 4 0.000000 0.000000 0.000000 0.045643 0.000000 0.000000
# 5 0.000000 0.000000 0.000000 0.000000 0.032821 0.000000
# 6 0.000000 0.000000 0.000000 0.000000 0.000000 0.066582
#
#
# Mechanical properties :
#
#
# Convention : Reuss Voigt Hill
#
# Bulk Modulus (GPa) = 54.14785 56.65394 55.40090
# Shear Modulus (GPa) = 23.11952 26.25983 24.68968
#
# Velocity S-wave (km/s) = 3.49482 3.72461 3.61154
# Velocity P-wave (km/s) = 6.70005 6.95892 6.83071
#
# Compressibility (1/GPa) = 0.01846795
#
# Stress axis : x y z
#
# Youngs Moduli (GPa) = 51.70079 75.55762 108.81344
#
# Poissons Ratio (x) = 0.46985 0.42969
# Poissons Ratio (y) = 0.32150 0.16129
# Poissons Ratio (z) = 0.20416 0.11199
#
# Static dielectric constant tensor:
#      x y z
#    x 1.672360 0.000000 0.000000 
#    y 0.000000 1.695870 0.000000 
#    z 0.000000 0.000000 1.731100 
# 
# From -- ./inp_files/9951.got.cif
#   From: 2010.05.17/outbox.cif.g08.bks.cpg/sg67_5_cif.got.tgz:9951.got - 2010.06.03 18:28:57.
