data_PCOD9504540
_publ_section_title
;
Structure prediction by ZEFSAII (Michael W. Deem and Ramdas Pophale) SiO2 
 PCOD9504540
Probable space group: C M M A
;
_chemical_formula_sum "Si O2"
_cell_formula_units_Z 108
_cell_length_a 27.861076
_cell_length_b 28.516979
_cell_length_c 6.338311
_cell_angle_alpha 90.000000
_cell_angle_beta 90.000000
_cell_angle_gamma 90.000000
_cell_volume 5035.875046
_symmetry_space_group_name_H-M "C M M A"
_symmetry_group_IT_number 67
_symmetry_cell_setting 'orthorhombic'
loop_
_space_group_symop_operation_xyz
x,y,z
-x,1/2-y,z
x,-y,-z
-x,1/2+y,-z
-x,-y,-z
x,1/2+y,-z
-x,y,z
x,1/2-y,z
1/2+x,1/2+y,z
1/2-x,-y,z
1/2+x,1/2-y,-z
1/2-x,y,-z
1/2-x,1/2-y,-z
1/2+x,y,-z
1/2-x,1/2+y,z
1/2+x,-y,z
loop_
_atom_site_type_symbol
_atom_site_label
_atom_site_fract_x
_atom_site_fract_y
_atom_site_fract_z
Si Si1 0.237924 0.198804 0.259076
Si Si2 0.250000 0.616618 0.000000
Si Si3 0.823920 0.567272 0.715743
Si Si4 0.864333 0.304489 0.016469
Si Si5 0.750000 0.000000 0.500000
Si Si6 0.120532 0.617933 0.343364
Si Si7 0.445616 0.357878 0.724104
Si Si8 0.915454 0.948452 0.973930
O O1 0.256982 0.250000 0.195308
O O2 0.250000 0.198109 0.500000
O O3 0.264348 0.152927 0.179310
O O4 0.183595 0.194205 0.168048
O O5 0.203993 0.590801 0.911288
O O6 0.784809 0.531632 0.635079
O O7 0.840521 0.600303 0.519800
O O8 0.870620 0.544000 0.814948
O O9 0.870260 0.250000 0.955705
O O10 0.865569 0.339005 0.812410
O O11 0.908329 0.323416 0.158772
O O12 0.075825 0.632691 0.491823
O O13 0.104520 0.574908 0.190533
O O14 0.500000 0.340539 0.717937
O O15 0.444051 0.406789 0.856753
O O16 0.938047 0.000000 0.000000
#
# Coordination Sequence:
#
# PCOD9504540 Si02
#       8
#    16   8  16  16   4  16  16  16
#     4  10  23  42  64  93 128 170 221 273 327 389
#     4  12  25  37  60  88 124 172 222 275 319 384
#     4  11  27  40  60  91 130 176 227 282 336 393
#     4  10  23  44  71  99 133 175 223 279 336 399
#     4  12  28  42  60  92 130 180 236 286 348 396
#     4  10  22  45  67  94 136 180 219 276 341 405
#     4  10  23  43  69 102 136 170 215 276 344 413
#     4  10  22  43  69  92 130 172 223 276 337 399
#
# _framework density 21.446123
#
# number of rings (size 3 to 8) (size 9 to 14) (size 15 to 20)
#    0.000    1.630    0.000    3.778    7.259    7.704 
#    0.000    6.667    0.000    0.000    0.000    0.000 
#    0.000    0.000    0.000    0.000    0.000    0.000 
#
# Total GULP energy -301211.496771 kJ/mol
# GULP energy per Si atom -5577.990681 kJ/mol
# Density = 2.139731 g / cm^3
# Si number density = 21.446123 Si / 1000 Ang^3
#
#
#
# Elastic Constant Matrix: (Units=GPa)
#
#
# Indices 1 2 3 4 5 6 
#
# 1 124.6168 27.2249 38.1290 0.0000 0.0000 0.0000
# 2 27.2249 114.5408 34.6366 0.0000 0.0000 0.0000
# 3 38.1290 34.6366 138.2348 0.0000 0.0000 0.0000
# 4 0.0000 0.0000 0.0000 61.4694 0.0000 0.0000
# 5 0.0000 0.0000 0.0000 0.0000 10.1335 0.0000
# 6 0.0000 0.0000 0.0000 0.0000 0.0000 14.3825
#
#
#
# Elastic Compliance Matrix: (Units=1/GPa)
#
#
# Indices 1 2 3 4 5 6 
#
# 1 0.008997 -0.001502 -0.002105 0.000000 0.000000 0.000000
# 2 -0.001502 0.009697 -0.002015 0.000000 0.000000 0.000000
# 3 -0.002105 -0.002015 0.008320 0.000000 0.000000 0.000000
# 4 0.000000 0.000000 0.000000 0.016268 0.000000 0.000000
# 5 0.000000 0.000000 0.000000 0.000000 0.098682 0.000000
# 6 0.000000 0.000000 0.000000 0.000000 0.000000 0.069529
#
#
# Mechanical properties :
#
#
# Convention : Reuss Voigt Hill
#
# Bulk Modulus (GPa) = 63.41776 64.15260 63.78518
# Shear Modulus (GPa) = 21.93038 35.69055 28.81046
#
# Velocity S-wave (km/s) = 3.20125 4.08388 3.66920
# Velocity P-wave (km/s) = 6.58019 7.22605 6.91067
#
# Compressibility (1/GPa) = 0.01576845
#
# Stress axis : x y z
#
# Youngs Moduli (GPa) = 111.14993 103.12533 120.19574
#
# Poissons Ratio (x) = 0.15488 0.25305
# Poissons Ratio (y) = 0.16693 0.24225
# Poissons Ratio (z) = 0.23400 0.20784
#
# Static dielectric constant tensor:
#      x y z
#    x 1.802930 0.000000 0.000000 
#    y 0.000000 2.120510 0.000000 
#    z 0.000000 0.000000 1.799690 
# 
# From -- ./inp_files/4969.got.cif
#   From: 2010.05.17/outbox.cif.g08.bks.cpg/sg67_3_cif.got.tgz:4969.got - 2010.06.03 18:28:57.
