data_PCOD9504920
_publ_section_title
;
Structure prediction by ZEFSAII (Michael W. Deem and Ramdas Pophale) SiO2 
 PCOD9504920
Probable space group: C M M A
;
_chemical_formula_sum "Si O2"
_cell_formula_units_Z 72
_cell_length_a 8.229430
_cell_length_b 27.858458
_cell_length_c 15.343288
_cell_angle_alpha 90.000000
_cell_angle_beta 90.000000
_cell_angle_gamma 90.000000
_cell_volume 3517.590393
_symmetry_space_group_name_H-M "C M M A"
_symmetry_group_IT_number 67
_symmetry_cell_setting 'orthorhombic'
loop_
_space_group_symop_operation_xyz
x,y,z
-x,1/2-y,z
x,-y,-z
-x,1/2+y,-z
-x,-y,-z
x,1/2+y,-z
-x,y,z
x,1/2-y,z
1/2+x,1/2+y,z
1/2-x,-y,z
1/2+x,1/2-y,-z
1/2-x,y,-z
1/2-x,1/2-y,-z
1/2+x,y,-z
1/2-x,1/2+y,z
1/2+x,-y,z
loop_
_atom_site_type_symbol
_atom_site_label
_atom_site_fract_x
_atom_site_fract_y
_atom_site_fract_z
Si Si1 0.816886 0.449200 0.854013
Si Si2 0.250000 0.372331 0.000000
Si Si3 0.810789 0.945940 0.665496
Si Si4 0.000000 0.693776 0.901574
Si Si5 0.689765 0.649779 0.597278
Si Si6 0.500000 0.305703 0.693709
O O1 0.750000 0.500000 0.888417
O O2 0.712125 0.435892 0.769156
O O3 0.000000 0.457237 0.821519
O O4 0.819891 0.409035 0.927974
O O5 0.145880 0.335999 0.057274
O O6 0.705740 0.907189 0.613746
O O7 0.000000 0.940962 0.642477
O O8 0.750000 0.000000 0.651070
O O9 0.000000 0.750000 0.925930
O O10 0.000000 0.690659 0.797774
O O11 0.500000 0.664226 0.611016
O O12 0.750000 0.661308 0.500000
O O13 0.831634 0.671643 0.658486
O O14 0.500000 0.250000 0.667825
#
# Coordination Sequence:
#
# PCOD9504920 Si02
#       6
#    16   8  16   8  16   8
#     4  11  23  37  59  95 132 174 225 274 338 416
#     4  12  24  40  68  92 126 176 218 286 346 398
#     4  11  22  39  64  97 141 189 230 280 341 411
#     4  11  26  48  69  96 133 175 236 292 350 419
#     4  12  24  45  71 107 144 180 232 290 345 422
#     4  11  26  50  76 101 137 189 233 292 365 421
#
# _framework density 20.468558000000002
#
# number of rings (size 3 to 8) (size 9 to 14) (size 15 to 20)
#    0.000    0.667    3.333    6.000    3.111    2.222 
#    2.000    2.222    0.000    0.000    0.000    0.000 
#    0.000    0.000    0.000    0.000    0.000    0.000 
#
# Total GULP energy -201038.055450 kJ/mol
# GULP energy per Si atom -5584.390429 kJ/mol
# Density = 2.042197 g / cm^3
# Si number density = 20.468558 Si / 1000 Ang^3
#
#
#
# Elastic Constant Matrix: (Units=GPa)
#
#
# Indices 1 2 3 4 5 6 
#
# 1 151.6237 44.0529 24.3169 0.0000 0.0000 0.0000
# 2 44.0529 111.3338 26.4426 0.0000 0.0000 0.0000
# 3 24.3169 26.4426 42.3822 0.0000 0.0000 0.0000
# 4 0.0000 0.0000 0.0000 -54.3083 0.0000 0.0000
# 5 0.0000 0.0000 0.0000 0.0000 -10.3476 0.0000
# 6 0.0000 0.0000 0.0000 0.0000 0.0000 19.5579
#
#
#
# Elastic Compliance Matrix: (Units=1/GPa)
#
#
# Indices 1 2 3 4 5 6 
#
# 1 0.007759 -0.002363 -0.002978 0.000000 0.000000 0.000000
# 2 -0.002363 0.011264 -0.005672 0.000000 0.000000 0.000000
# 3 -0.002978 -0.005672 0.028842 0.000000 0.000000 0.000000
# 4 0.000000 0.000000 0.000000 -0.018413 0.000000 0.000000
# 5 0.000000 0.000000 0.000000 0.000000 -0.096641 0.000000
# 6 0.000000 0.000000 0.000000 0.000000 0.000000 0.051130
#
#
# Mechanical properties :
#
#
# Convention : Reuss Voigt Hill
#
# Bulk Modulus (GPa) = 38.69938 54.99606 46.84772
# Shear Modulus (GPa) = 342.92083 5.01555 173.96819
#
# Velocity S-wave (km/s) = 12.95759 1.56706 9.22916
# Velocity P-wave (km/s) = 15.58247 5.49556 11.68363
#
# Compressibility (1/GPa) = 0.02584021
#
# Stress axis : x y z
#
# Youngs Moduli (GPa) = 128.87621 88.77713 34.67158
#
# Poissons Ratio (x) = 0.20978 0.10324
# Poissons Ratio (y) = 0.30454 0.19666
# Poissons Ratio (z) = 0.38375 0.50354
#
# Static dielectric constant tensor:
#      x y z
#    x 1.778380 0.000000 0.000000 
#    y 0.000000 1.714310 0.000000 
#    z 0.000000 0.000000 1.710850 
# 
# From -- ./inp_files/25147.got.cif
#   From: 2010.05.17/outbox.cif.g08.bks.cpg/sg67_13_cif.got.tgz:25147.got - 2010.06.03 18:28:57.
