data_PCOD9504272
_publ_section_title
;
Structure prediction by ZEFSAII (Michael W. Deem and Ramdas Pophale) SiO2 
 PCOD9504272
Probable space group: C M M A
;
_chemical_formula_sum "Si O2"
_cell_formula_units_Z 64
_cell_length_a 28.346599
_cell_length_b 19.842948
_cell_length_c 5.773612
_cell_angle_alpha 90.000000
_cell_angle_beta 90.000000
_cell_angle_gamma 90.000000
_cell_volume 3247.541797
_symmetry_space_group_name_H-M "C M M A"
_symmetry_group_IT_number 67
_symmetry_cell_setting 'orthorhombic'
loop_
_space_group_symop_operation_xyz
x,y,z
-x,1/2-y,z
x,-y,-z
-x,1/2+y,-z
-x,-y,-z
x,1/2+y,-z
-x,y,z
x,1/2-y,z
1/2+x,1/2+y,z
1/2-x,-y,z
1/2+x,1/2-y,-z
1/2-x,y,-z
1/2-x,1/2-y,-z
1/2+x,y,-z
1/2-x,1/2+y,z
1/2+x,-y,z
loop_
_atom_site_type_symbol
_atom_site_label
_atom_site_fract_x
_atom_site_fract_y
_atom_site_fract_z
Si Si1 0.402623 0.423809 0.089695
Si Si2 0.843499 0.326535 0.215190
Si Si3 0.000000 0.957943 0.249855
Si Si4 0.809285 0.573627 0.392881
Si Si5 0.750000 0.367396 0.000000
O O1 0.451925 0.414463 0.225647
O O2 0.357410 0.426740 0.250135
O O3 0.405470 0.500000 0.000000
O O4 0.386695 0.369705 0.894646
O O5 0.857266 0.250000 0.267514
O O6 0.820896 0.366685 0.428881
O O7 0.797854 0.326491 0.045547
O O8 0.000000 0.000000 0.500000
O O9 0.000000 0.000000 0.000000
O O10 0.804591 0.500000 0.500000
O O11 0.765735 0.588384 0.221251
#
# Coordination Sequence:
#
# PCOD9504272 Si02
#       5
#    16  16   8  16   8
#     4  10  21  41  66  96 127 167 218 280 335 409
#     4  11  24  41  62  89 129 175 221 276 342 410
#     4  10  22  38  73 106 135 168 222 279 340 403
#     4  11  22  39  62  90 132 167 229 281 347 406
#     4  10  25  39  58  88 126 170 230 274 338 406
#
# _framework density 19.707215999999999
#
# number of rings (size 3 to 8) (size 9 to 14) (size 15 to 20)
#    0.000    1.500    2.500    1.875    3.500    9.000 
#    0.000    0.625    0.000    0.000    0.000    0.000 
#    0.000    0.000    0.000    0.000    0.000    0.000 
#
# Total GULP energy -178162.189999 kJ/mol
# GULP energy per Si atom -5567.568437 kJ/mol
# Density = 1.966236 g / cm^3
# Si number density = 19.707216 Si / 1000 Ang^3
#
#
#
# Elastic Constant Matrix: (Units=GPa)
#
#
# Indices 1 2 3 4 5 6 
#
# 1 153.6902 39.5048 33.6768 0.0000 0.0000 0.0000
# 2 39.5048 159.6011 62.9270 0.0000 0.0000 0.0000
# 3 33.6768 62.9270 94.5667 0.0000 0.0000 0.0000
# 4 0.0000 0.0000 0.0000 18.7798 0.0000 0.0000
# 5 0.0000 0.0000 0.0000 0.0000 0.1147 0.0000
# 6 0.0000 0.0000 0.0000 0.0000 0.0000 -0.1697
#
#
#
# Elastic Compliance Matrix: (Units=1/GPa)
#
#
# Indices 1 2 3 4 5 6 
#
# 1 0.007183 -0.001043 -0.001864 0.000000 0.000000 0.000000
# 2 -0.001043 0.008646 -0.005382 0.000000 0.000000 0.000000
# 3 -0.001864 -0.005382 0.014819 0.000000 0.000000 0.000000
# 4 0.000000 0.000000 0.000000 0.053249 0.000000 0.000000
# 5 0.000000 0.000000 0.000000 0.000000 8.720745 0.000000
# 6 0.000000 0.000000 0.000000 0.000000 0.000000 -5.891766
#
#
# Mechanical properties :
#
#
# Convention : Reuss Voigt Hill
#
# Bulk Modulus (GPa) = 71.06839 75.56393 73.31616
# Shear Modulus (GPa) = 1.70407 21.86156 11.78282
#
# Velocity S-wave (km/s) = 0.93090 3.33426 2.44784
# Velocity P-wave (km/s) = 6.10703 7.29723 6.72850
#
# Compressibility (1/GPa) = 0.01407095
#
# Stress axis : x y z
#
# Youngs Moduli (GPa) = 139.21488 115.66537 67.47930
#
# Poissons Ratio (x) = 0.12065 0.12578
# Poissons Ratio (y) = 0.14521 0.36314
# Poissons Ratio (z) = 0.25949 0.62246
#
# Static dielectric constant tensor:
#      x y z
#    x 1.775100 0.000000 0.000000 
#    y 0.000000 1.482530 0.000000 
#    z 0.000000 0.000000 1.702920 
# 
# From -- ./inp_files/2246.got.cif
#   From: 2010.05.17/outbox.cif.g08.bks.cpg/sg67_2_cif.got.tgz:2246.got - 2010.06.03 18:28:57.
