data_PCOD9504874
_publ_section_title
;
Structure prediction by ZEFSAII (Michael W. Deem and Ramdas Pophale) SiO2 
 PCOD9504874
Probable space group: C M M A
;
_chemical_formula_sum "Si O2"
_cell_formula_units_Z 80
_cell_length_a 8.815123
_cell_length_b 19.306099
_cell_length_c 26.123599
_cell_angle_alpha 90.000000
_cell_angle_beta 90.000000
_cell_angle_gamma 90.000000
_cell_volume 4445.861345
_symmetry_space_group_name_H-M "C M M A"
_symmetry_group_IT_number 67
_symmetry_cell_setting 'orthorhombic'
loop_
_space_group_symop_operation_xyz
x,y,z
-x,1/2-y,z
x,-y,-z
-x,1/2+y,-z
-x,-y,-z
x,1/2+y,-z
-x,y,z
x,1/2-y,z
1/2+x,1/2+y,z
1/2-x,-y,z
1/2+x,1/2-y,-z
1/2-x,y,-z
1/2-x,1/2-y,-z
1/2+x,y,-z
1/2-x,1/2+y,z
1/2+x,-y,z
loop_
_atom_site_type_symbol
_atom_site_label
_atom_site_fract_x
_atom_site_fract_y
_atom_site_fract_z
Si Si1 0.819703 0.076382 0.446493
Si Si2 0.182112 0.576639 0.848800
Si Si3 0.679971 0.167781 0.358430
Si Si4 0.182743 0.669348 0.240471
Si Si5 0.817272 0.329935 0.055068
O O1 0.750000 0.103161 0.500000
O O2 0.772177 0.124423 0.399485
O O3 0.000000 0.071354 0.451165
O O4 0.750000 0.000000 0.438637
O O5 0.250000 0.500000 0.849121
O O6 0.238872 0.619285 0.799718
O O7 0.230426 0.619440 0.899383
O O8 0.000000 0.573015 0.848321
O O9 0.500000 0.153596 0.364607
O O10 0.702004 0.250000 0.365736
O O11 0.721128 0.152055 0.299438
O O12 0.224181 0.750000 0.231251
O O13 0.000000 0.664409 0.235751
O O14 0.771911 0.250000 0.065909
O O15 0.000000 0.331552 0.051964
O O16 0.750000 0.349394 0.000000
#
# Coordination Sequence:
#
# PCOD9504874 Si02
#       5
#    16  16  16  16  16
#     4  11  22  37  57  80 109 145 184 224 269 322
#     4  11  23  37  54  79 112 146 182 225 270 319
#     4   9  19  37  59  83 111 141 177 223 271 320
#     4   9  19  37  60  83 108 141 180 222 270 323
#     4   9  19  36  57  80 105 137 178 222 269 321
#
# _framework density 17.994264000000001
#
# number of rings (size 3 to 8) (size 9 to 14) (size 15 to 20)
#    0.000    2.200    0.000    4.800    0.000    5.600 
#    0.000    6.000    0.000    0.000    0.000    0.000 
#    0.000    0.000    0.000    0.000    0.000    0.000 
#
# Total GULP energy -223361.855334 kJ/mol
# GULP energy per Si atom -5584.046383 kJ/mol
# Density = 1.795331 g / cm^3
# Si number density = 17.994264 Si / 1000 Ang^3
#
#
#
# Elastic Constant Matrix: (Units=GPa)
#
#
# Indices 1 2 3 4 5 6 
#
# 1 77.1631 59.3722 76.0490 0.0000 0.0000 0.0000
# 2 59.3722 101.6819 108.4302 0.0000 0.0000 0.0000
# 3 76.0490 108.4302 165.3622 0.0000 0.0000 0.0000
# 4 0.0000 0.0000 0.0000 324.8660 0.0000 0.0000
# 5 0.0000 0.0000 0.0000 0.0000 31.5127 0.0000
# 6 0.0000 0.0000 0.0000 0.0000 0.0000 21.2111
#
#
#
# Elastic Compliance Matrix: (Units=1/GPa)
#
#
# Indices 1 2 3 4 5 6 
#
# 1 0.025488 -0.007922 -0.006527 0.000000 0.000000 0.000000
# 2 -0.007922 0.035161 -0.019412 0.000000 0.000000 0.000000
# 3 -0.006527 -0.019412 0.021778 0.000000 0.000000 0.000000
# 4 0.000000 0.000000 0.000000 0.003078 0.000000 0.000000
# 5 0.000000 0.000000 0.000000 0.000000 0.031733 0.000000
# 6 0.000000 0.000000 0.000000 0.000000 0.000000 0.047145
#
#
# Mechanical properties :
#
#
# Convention : Reuss Voigt Hill
#
# Bulk Modulus (GPa) = 68.00888 92.43447 80.22168
# Shear Modulus (GPa) = 21.09643 82.20833 51.65238
#
# Velocity S-wave (km/s) = 3.42774 6.76646 5.36351
# Velocity P-wave (km/s) = 7.31729 10.60788 9.11235
#
# Compressibility (1/GPa) = 0.01470396
#
# Stress axis : x y z
#
# Youngs Moduli (GPa) = 39.23401 28.44085 45.91845
#
# Poissons Ratio (x) = 0.22532 0.29971
# Poissons Ratio (y) = 0.31082 0.89137
# Poissons Ratio (z) = 0.25608 0.55209
#
# Static dielectric constant tensor:
#      x y z
#    x 1.600430 0.000000 0.000000 
#    y 0.000000 1.592450 0.000000 
#    z 0.000000 0.000000 1.598760 
# 
# From -- ./inp_files/43285.got.cif
#   From: 2010.05.17/outbox.cif.g08.bks.cpg/sg67_22_cif.got.tgz:43285.got - 2010.06.03 18:28:57.
