data_PCOD9504784
_publ_section_title
;
Structure prediction by ZEFSAII (Michael W. Deem and Ramdas Pophale) SiO2 
 PCOD9504784
Probable space group: C M M A
;
_chemical_formula_sum "Si O2"
_cell_formula_units_Z 96
_cell_length_a 22.111617
_cell_length_b 16.902477
_cell_length_c 12.431643
_cell_angle_alpha 90.000000
_cell_angle_beta 90.000000
_cell_angle_gamma 90.000000
_cell_volume 4646.215902
_symmetry_space_group_name_H-M "C M M A"
_symmetry_group_IT_number 67
_symmetry_cell_setting 'orthorhombic'
loop_
_space_group_symop_operation_xyz
x,y,z
-x,1/2-y,z
x,-y,-z
-x,1/2+y,-z
-x,-y,-z
x,1/2+y,-z
-x,y,z
x,1/2-y,z
1/2+x,1/2+y,z
1/2-x,-y,z
1/2+x,1/2-y,-z
1/2-x,y,-z
1/2-x,1/2-y,-z
1/2+x,y,-z
1/2-x,1/2+y,z
1/2+x,-y,z
loop_
_atom_site_type_symbol
_atom_site_label
_atom_site_fract_x
_atom_site_fract_y
_atom_site_fract_z
Si Si1 0.434192 0.653757 0.618789
Si Si2 0.652176 0.658197 0.236519
Si Si3 0.605125 0.657614 0.851528
Si Si4 0.680535 0.346423 0.520167
Si Si5 0.263590 0.589650 0.873211
Si Si6 0.930781 0.921022 0.939335
O O1 0.500000 0.627199 0.575224
O O2 0.433871 0.750000 0.610499
O O3 0.430764 0.633394 0.745057
O O4 0.372274 0.626493 0.561462
O O5 0.632818 0.750000 0.231360
O O6 0.657573 0.633252 0.360298
O O7 0.719058 0.648498 0.188024
O O8 0.609414 0.605853 0.160473
O O9 0.618684 0.750000 0.841427
O O10 0.667878 0.611564 0.852831
O O11 0.572709 0.642594 0.964675
O O12 0.682799 0.250000 0.514197
O O13 0.750000 0.373704 0.500000
O O14 0.250000 0.500000 0.839054
O O15 0.250000 0.595818 0.000000
O O16 0.000000 0.934185 0.906329
O O17 0.908101 0.000000 0.000000
#
# Coordination Sequence:
#
# PCOD9504784 Si02
#       6
#    16  16  16  16  16  16
#     4   9  18  33  55  85 119 156 197 245 304 360
#     4  11  22  36  60  91 117 148 197 248 295 349
#     4  11  21  35  60  88 115 148 197 253 293 344
#     4   9  18  34  56  85 121 156 194 249 314 369
#     4  11  22  36  56  82 117 156 190 227 290 362
#     4  11  24  40  56  79 119 164 197 235 297 364
#
# _framework density 20.661975999999999
#
# number of rings (size 3 to 8) (size 9 to 14) (size 15 to 20)
#    0.000    1.667    1.667    3.500    0.000    6.000 
#    0.000    1.667    0.000    9.500    0.000    7.000 
#    0.000    0.000    0.000    0.000    0.000    0.000 
#
# Total GULP energy -268035.943645 kJ/mol
# GULP energy per Si atom -5584.082159 kJ/mol
# Density = 2.061495 g / cm^3
# Si number density = 20.661976 Si / 1000 Ang^3
#
#
#
# Elastic Constant Matrix: (Units=GPa)
#
#
# Indices 1 2 3 4 5 6 
#
# 1 150.1058 23.5282 62.2478 0.0000 0.0000 0.0000
# 2 23.5282 45.9612 20.5049 0.0000 0.0000 0.0000
# 3 62.2478 20.5049 113.4775 0.0000 0.0000 0.0000
# 4 0.0000 0.0000 0.0000 -12.3164 0.0000 0.0000
# 5 0.0000 0.0000 0.0000 0.0000 21.1657 0.0000
# 6 0.0000 0.0000 0.0000 0.0000 0.0000 26.0671
#
#
#
# Elastic Compliance Matrix: (Units=1/GPa)
#
#
# Indices 1 2 3 4 5 6 
#
# 1 0.008898 -0.002586 -0.004413 0.000000 0.000000 0.000000
# 2 -0.002586 0.024417 -0.002994 0.000000 0.000000 0.000000
# 3 -0.004413 -0.002994 0.011774 0.000000 0.000000 0.000000
# 4 0.000000 0.000000 0.000000 -0.081192 0.000000 0.000000
# 5 0.000000 0.000000 0.000000 0.000000 0.047246 0.000000
# 6 0.000000 0.000000 0.000000 0.000000 0.000000 0.038362
#
#
# Mechanical properties :
#
#
# Convention : Reuss Voigt Hill
#
# Bulk Modulus (GPa) = 39.83613 58.01182 48.92397
# Shear Modulus (GPa) = 64.21928 20.53418 42.37673
#
# Velocity S-wave (km/s) = 5.58107 3.15590 4.53366
# Velocity P-wave (km/s) = 7.80083 6.43562 7.15088
#
# Compressibility (1/GPa) = 0.02510284
#
# Stress axis : x y z
#
# Youngs Moduli (GPa) = 112.39104 40.95557 84.93115
#
# Poissons Ratio (x) = 0.10590 0.37484
# Poissons Ratio (y) = 0.29062 0.25425
# Poissons Ratio (z) = 0.49603 0.12260
#
# Static dielectric constant tensor:
#      x y z
#    x 1.731040 0.000000 0.000000 
#    y 0.000000 1.776120 0.000000 
#    z 0.000000 0.000000 1.744970 
# 
# From -- ./inp_files/21960.got.cif
#   From: 2010.05.17/outbox.cif.g08.bks.cpg/sg67_11_cif.got.tgz:21960.got - 2010.06.03 18:28:57.
