data_PCOD9504826
_publ_section_title
;
Structure prediction by ZEFSAII (Michael W. Deem and Ramdas Pophale) SiO2 
 PCOD9504826
Probable space group: C M M A
;
_chemical_formula_sum "Si O2"
_cell_formula_units_Z 72
_cell_length_a 10.139907
_cell_length_b 14.825452
_cell_length_c 27.706484
_cell_angle_alpha 90.000000
_cell_angle_beta 90.000000
_cell_angle_gamma 90.000000
_cell_volume 4165.079846
_symmetry_space_group_name_H-M "C M M A"
_symmetry_group_IT_number 67
_symmetry_cell_setting 'orthorhombic'
loop_
_space_group_symop_operation_xyz
x,y,z
-x,1/2-y,z
x,-y,-z
-x,1/2+y,-z
-x,-y,-z
x,1/2+y,-z
-x,y,z
x,1/2-y,z
1/2+x,1/2+y,z
1/2-x,-y,z
1/2+x,1/2-y,-z
1/2-x,y,-z
1/2-x,1/2-y,-z
1/2+x,y,-z
1/2-x,1/2+y,z
1/2+x,-y,z
loop_
_atom_site_type_symbol
_atom_site_label
_atom_site_fract_x
_atom_site_fract_y
_atom_site_fract_z
Si Si1 0.000000 0.856971 0.940595
Si Si2 0.340590 0.750000 0.806574
Si Si3 0.841022 0.590391 0.376994
Si Si4 0.654173 0.750000 0.545399
Si Si5 0.840420 0.250000 0.695228
Si Si6 0.258611 0.099205 0.119672
Si Si7 0.000000 0.140606 0.949325
O O1 0.873121 0.882177 0.909985
O O2 0.000000 0.750000 0.945808
O O3 0.000000 0.891779 0.995476
O O4 0.500000 0.750000 0.808706
O O5 0.299316 0.750000 0.750884
O O6 0.287199 0.833714 0.836979
O O7 0.750000 0.500000 0.379243
O O8 0.824783 0.659475 0.422320
O O9 0.802546 0.657641 0.332597
O O10 0.000000 0.569164 0.373782
O O11 0.500000 0.750000 0.531134
O O12 0.750000 0.750000 0.500000
O O13 0.000000 0.250000 0.693338
O O14 0.374153 0.108016 0.080303
O O15 0.250000 0.000000 0.140121
O O16 0.000000 0.250000 0.948232
#
# Coordination Sequence:
#
# PCOD9504826 Si02
#       7
#     8   8  16   8   8  16   8
#     4  11  23  37  59  80 111 139 168 221 269 306
#     4  11  21  41  60  80 108 142 179 218 273 341
#     4   9  18  35  58  84 113 148 196 241 281 330
#     4   9  19  34  52  82 122 167 201 233 281 330
#     4   8  18  36  61  78 103 145 185 228 278 337
#     4  12  23  37  58  82 107 138 175 216 266 324
#     4  11  21  41  59  78 105 145 180 205 255 334
#
# _framework density 17.286581999999999
#
# number of rings (size 3 to 8) (size 9 to 14) (size 15 to 20)
#    0.000    1.778    3.333    2.667    0.000    6.667 
#    0.000    3.889    4.889    0.000    0.000    0.000 
#    0.000    0.000    0.000    0.000    0.000    0.000 
#
# Total GULP energy -200748.198621 kJ/mol
# GULP energy per Si atom -5576.338851 kJ/mol
# Density = 1.724724 g / cm^3
# Si number density = 17.286582 Si / 1000 Ang^3
#
#
#
# Elastic Constant Matrix: (Units=GPa)
#
#
# Indices 1 2 3 4 5 6 
#
# 1 124.3956 60.3985 72.1121 0.0000 0.0000 0.0000
# 2 60.3985 169.8772 73.7986 0.0000 0.0000 0.0000
# 3 72.1121 73.7986 158.2233 0.0000 0.0000 0.0000
# 4 0.0000 0.0000 0.0000 30.8613 0.0000 0.0000
# 5 0.0000 0.0000 0.0000 0.0000 8.7213 0.0000
# 6 0.0000 0.0000 0.0000 0.0000 0.0000 35.9384
#
#
#
# Elastic Compliance Matrix: (Units=1/GPa)
#
#
# Indices 1 2 3 4 5 6 
#
# 1 0.011595 -0.002291 -0.004216 0.000000 0.000000 0.000000
# 2 -0.002291 0.007835 -0.002610 0.000000 0.000000 0.000000
# 3 -0.004216 -0.002610 0.009459 0.000000 0.000000 0.000000
# 4 0.000000 0.000000 0.000000 0.032403 0.000000 0.000000
# 5 0.000000 0.000000 0.000000 0.000000 0.114662 0.000000
# 6 0.000000 0.000000 0.000000 0.000000 0.000000 0.027825
#
#
# Mechanical properties :
#
#
# Convention : Reuss Voigt Hill
#
# Bulk Modulus (GPa) = 93.85466 96.12382 94.98924
# Shear Modulus (GPa) = 22.16641 31.51667 26.84154
#
# Velocity S-wave (km/s) = 3.58479 4.27451 3.94475
# Velocity P-wave (km/s) = 8.45846 8.94923 8.70730
#
# Compressibility (1/GPa) = 0.01065477
#
# Stress axis : x y z
#
# Youngs Moduli (GPa) = 86.24159 127.63006 105.71699
#
# Poissons Ratio (x) = 0.29241 0.44571
# Poissons Ratio (y) = 0.19758 0.27595
# Poissons Ratio (z) = 0.36360 0.33315
#
# Static dielectric constant tensor:
#      x y z
#    x 1.553880 0.000000 0.000000 
#    y 0.000000 1.602310 0.000000 
#    z 0.000000 0.000000 1.575120 
# 
# From -- ./inp_files/43177.got.cif
#   From: 2010.05.17/outbox.cif.g08.bks.cpg/sg67_22_cif.got.tgz:43177.got - 2010.06.03 18:28:57.
