data_PCOD9504585
_publ_section_title
;
Structure prediction by ZEFSAII (Michael W. Deem and Ramdas Pophale) SiO2 
 PCOD9504585
Probable space group: C M M A
;
_chemical_formula_sum "Si O2"
_cell_formula_units_Z 60
_cell_length_a 9.040388
_cell_length_b 23.357242
_cell_length_c 15.257469
_cell_angle_alpha 90.000000
_cell_angle_beta 90.000000
_cell_angle_gamma 90.000000
_cell_volume 3221.744730
_symmetry_space_group_name_H-M "C M M A"
_symmetry_group_IT_number 67
_symmetry_cell_setting 'orthorhombic'
loop_
_space_group_symop_operation_xyz
x,y,z
-x,1/2-y,z
x,-y,-z
-x,1/2+y,-z
-x,-y,-z
x,1/2+y,-z
-x,y,z
x,1/2-y,z
1/2+x,1/2+y,z
1/2-x,-y,z
1/2+x,1/2-y,-z
1/2-x,y,-z
1/2-x,1/2-y,-z
1/2+x,y,-z
1/2-x,1/2+y,z
1/2+x,-y,z
loop_
_atom_site_type_symbol
_atom_site_label
_atom_site_fract_x
_atom_site_fract_y
_atom_site_fract_z
Si Si1 0.327099 0.319000 0.590739
Si Si2 0.500000 0.500000 0.500000
Si Si3 0.671595 0.610199 0.740900
Si Si4 0.250000 0.000000 0.631176
Si Si5 0.678487 0.063059 0.908066
O O1 0.500000 0.334819 0.590858
O O2 0.318034 0.250000 0.593921
O O3 0.250000 0.337945 0.500000
O O4 0.242064 0.345112 0.673317
O O5 0.626042 0.475948 0.567462
O O6 0.500000 0.622895 0.760041
O O7 0.680609 0.549517 0.690233
O O8 0.767388 0.602574 0.828552
O O9 0.500000 0.059010 0.912713
O O10 0.750000 0.000000 0.892897
O O11 0.750000 0.082630 0.000000
#
# Coordination Sequence:
#
# PCOD9504585 Si02
#       5
#    16   4  16   8  16
#     4  10  23  41  61  85 116 157 202 248 295 344
#     4  10  24  38  48  70 120 158 188 234 284 340
#     4  12  24  37  60  86 117 154 198 242 291 351
#     4  11  24  36  51  80 114 154 193 232 283 348
#     4  11  22  38  59  85 120 155 194 240 292 353
#
# _framework density 18.623448
#
# number of rings (size 3 to 8) (size 9 to 14) (size 15 to 20)
#    0.000    1.067    2.667    4.800    7.467    1.600 
#    0.000    0.000    0.000    0.800    0.000    0.000 
#    0.000    0.000    0.000    0.000    0.000    0.000 
#
# Total GULP energy -167077.090656 kJ/mol
# GULP energy per Si atom -5569.236355 kJ/mol
# Density = 1.858106 g / cm^3
# Si number density = 18.623448 Si / 1000 Ang^3
#
#
#
# Elastic Constant Matrix: (Units=GPa)
#
#
# Indices 1 2 3 4 5 6 
#
# 1 214.6423 28.4925 76.0603 0.0000 0.0000 0.0000
# 2 28.4925 36.6038 29.7336 0.0000 0.0000 0.0000
# 3 76.0603 29.7336 149.2033 0.0000 0.0000 0.0000
# 4 0.0000 0.0000 0.0000 3.7320 0.0000 0.0000
# 5 0.0000 0.0000 0.0000 0.0000 32.9858 0.0000
# 6 0.0000 0.0000 0.0000 0.0000 0.0000 26.6394
#
#
#
# Elastic Compliance Matrix: (Units=1/GPa)
#
#
# Indices 1 2 3 4 5 6 
#
# 1 0.005880 -0.002556 -0.002488 0.000000 0.000000 0.000000
# 2 -0.002556 0.033707 -0.005414 0.000000 0.000000 0.000000
# 3 -0.002488 -0.005414 0.009050 0.000000 0.000000 0.000000
# 4 0.000000 0.000000 0.000000 0.267951 0.000000 0.000000
# 5 0.000000 0.000000 0.000000 0.000000 0.030316 0.000000
# 6 0.000000 0.000000 0.000000 0.000000 0.000000 0.037538
#
#
# Mechanical properties :
#
#
# Convention : Reuss Voigt Hill
#
# Bulk Modulus (GPa) = 36.07486 74.33579 55.20532
# Shear Modulus (GPa) = 12.05987 30.41565 21.23776
#
# Velocity S-wave (km/s) = 2.54749 4.04566 3.38061
# Velocity P-wave (km/s) = 5.29770 7.86289 6.70413
#
# Compressibility (1/GPa) = 0.02772014
#
# Stress axis : x y z
#
# Youngs Moduli (GPa) = 170.07219 29.66730 110.50199
#
# Poissons Ratio (x) = 0.07582 0.27494
# Poissons Ratio (y) = 0.43467 0.59830
# Poissons Ratio (z) = 0.42315 0.16063
#
# Static dielectric constant tensor:
#      x y z
#    x 1.631460 0.000000 0.000000 
#    y 0.000000 1.687240 0.000000 
#    z 0.000000 0.000000 1.659090 
# 
# From -- ./inp_files/24762.got.cif
#   From: 2010.05.17/outbox.cif.g08.bks.cpg/sg67_13_cif.got.tgz:24762.got - 2010.06.03 18:28:57.
