data_PCOD9504033
_publ_section_title
;
Structure prediction by ZEFSAII (Michael W. Deem and Ramdas Pophale) SiO2 
 PCOD9504033
Probable space group: C M M A
;
_chemical_formula_sum "Si O2"
_cell_formula_units_Z 80
_cell_length_a 19.344103
_cell_length_b 8.695818
_cell_length_c 26.239686
_cell_angle_alpha 90.000000
_cell_angle_beta 90.000000
_cell_angle_gamma 90.000000
_cell_volume 4413.851029
_symmetry_space_group_name_H-M "C M M A"
_symmetry_group_IT_number 67
_symmetry_cell_setting 'orthorhombic'
loop_
_space_group_symop_operation_xyz
x,y,z
-x,1/2-y,z
x,-y,-z
-x,1/2+y,-z
-x,-y,-z
x,1/2+y,-z
-x,y,z
x,1/2-y,z
1/2+x,1/2+y,z
1/2-x,-y,z
1/2+x,1/2-y,-z
1/2-x,y,-z
1/2-x,1/2-y,-z
1/2+x,y,-z
1/2-x,1/2+y,z
1/2+x,-y,z
loop_
_atom_site_type_symbol
_atom_site_label
_atom_site_fract_x
_atom_site_fract_y
_atom_site_fract_z
Si Si1 0.419529 0.565764 0.556102
Si Si2 0.420795 0.937184 0.258631
Si Si3 0.327147 0.564969 0.353261
Si Si4 0.917797 0.566737 0.856638
Si Si5 0.173258 0.067548 0.946171
O O1 0.404304 0.500000 0.500000
O O2 0.500000 0.527657 0.567708
O O3 0.412668 0.750000 0.555592
O O4 0.369738 0.493929 0.598106
O O5 0.500000 0.987148 0.268715
O O6 0.421854 0.750000 0.258476
O O7 0.368712 0.986503 0.302611
O O8 0.400678 0.983676 0.201238
O O9 0.325138 0.750000 0.353868
O O10 0.250000 0.500000 0.353464
O O11 0.904514 0.750000 0.860584
O O12 0.874926 0.481338 0.899605
O O13 0.000000 0.543877 0.863167
O O14 0.177724 0.250000 0.950289
O O15 0.250000 0.000000 0.938266
O O16 0.147178 0.000000 0.000000
#
# Coordination Sequence:
#
# PCOD9504033 Si02
#       5
#    16  16  16  16  16
#     4  10  21  38  60  85 111 141 180 224 271 324
#     4   8  16  33  57  81 106 141 182 222 267 320
#     4  11  22  36  55  81 114 148 184 224 269 320
#     4   9  18  35  58  83 111 142 178 221 269 320
#     4  11  22  37  56  78 107 142 182 224 270 324
#
# _framework density 18.124760999999999
#
# number of rings (size 3 to 8) (size 9 to 14) (size 15 to 20)
#    0.000    2.200    0.000    5.400    0.000    4.000 
#    0.000    6.000    0.000    2.400    0.000    0.000 
#    0.000    0.000    0.000    0.000    0.000    0.000 
#
# Total GULP energy -223346.324506 kJ/mol
# GULP energy per Si atom -5583.658113 kJ/mol
# Density = 1.808351 g / cm^3
# Si number density = 18.124761 Si / 1000 Ang^3
#
#
#
# Elastic Constant Matrix: (Units=GPa)
#
#
# Indices 1 2 3 4 5 6 
#
# 1 107.6844 58.5178 118.9589 0.0000 0.0000 0.0000
# 2 58.5178 82.6536 68.5008 0.0000 0.0000 0.0000
# 3 118.9589 68.5008 183.7186 0.0000 0.0000 0.0000
# 4 0.0000 0.0000 0.0000 19.3925 0.0000 0.0000
# 5 0.0000 0.0000 0.0000 0.0000 -54.8517 0.0000
# 6 0.0000 0.0000 0.0000 0.0000 0.0000 17.6186
#
#
#
# Elastic Compliance Matrix: (Units=1/GPa)
#
#
# Indices 1 2 3 4 5 6 
#
# 1 0.036838 -0.009135 -0.020447 0.000000 0.000000 0.000000
# 2 -0.009135 0.019775 -0.001458 0.000000 0.000000 0.000000
# 3 -0.020447 -0.001458 0.019226 0.000000 0.000000 0.000000
# 4 0.000000 0.000000 0.000000 0.051566 0.000000 0.000000
# 5 0.000000 0.000000 0.000000 0.000000 -0.018231 0.000000
# 6 0.000000 0.000000 0.000000 0.000000 0.000000 0.056758
#
#
# Mechanical properties :
#
#
# Convention : Reuss Voigt Hill
#
# Bulk Modulus (GPa) = 72.68023 96.22351 84.45187
# Shear Modulus (GPa) = 21.49618 4.97050 13.23334
#
# Velocity S-wave (km/s) = 3.44759 1.65781 2.70501
# Velocity P-wave (km/s) = 7.48564 7.54117 7.51346
#
# Compressibility (1/GPa) = 0.01375890
#
# Stress axis : x y z
#
# Youngs Moduli (GPa) = 27.14559 50.56954 52.01243
#
# Poissons Ratio (x) = 0.46197 1.06349
# Poissons Ratio (y) = 0.24799 0.07583
# Poissons Ratio (z) = 0.55504 0.07373
#
# Static dielectric constant tensor:
#      x y z
#    x 1.594290 0.000000 0.000000 
#    y 0.000000 1.606520 0.000000 
#    z 0.000000 0.000000 1.608820 
# 
# From -- ./inp_files/44431.got.cif
#   From: 2010.05.17/outbox.cif.g08.bks.cpg/sg67_23_cif.got.tgz:44431.got - 2010.06.03 18:28:57.
