data_PCOD9504101
_publ_section_title
;
Structure prediction by ZEFSAII (Michael W. Deem and Ramdas Pophale) SiO2 
 PCOD9504101
Probable space group: C M M A
;
_chemical_formula_sum "Si O2"
_cell_formula_units_Z 72
_cell_length_a 9.867182
_cell_length_b 16.491886
_cell_length_c 23.195063
_cell_angle_alpha 90.000000
_cell_angle_beta 90.000000
_cell_angle_gamma 90.000000
_cell_volume 3774.496434
_symmetry_space_group_name_H-M "C M M A"
_symmetry_group_IT_number 67
_symmetry_cell_setting 'orthorhombic'
loop_
_space_group_symop_operation_xyz
x,y,z
-x,1/2-y,z
x,-y,-z
-x,1/2+y,-z
-x,-y,-z
x,1/2+y,-z
-x,y,z
x,1/2-y,z
1/2+x,1/2+y,z
1/2-x,-y,z
1/2+x,1/2-y,-z
1/2-x,y,-z
1/2-x,1/2-y,-z
1/2+x,y,-z
1/2-x,1/2+y,z
1/2+x,-y,z
loop_
_atom_site_type_symbol
_atom_site_label
_atom_site_fract_x
_atom_site_fract_y
_atom_site_fract_z
Si Si1 0.000000 0.075568 0.064771
Si Si2 0.660199 0.080308 0.623557
Si Si3 0.337136 0.250000 0.557963
Si Si4 0.000000 0.117784 0.938376
Si Si5 0.837949 0.920079 0.760123
Si Si6 0.269373 0.839151 0.128630
O O1 0.131872 0.096251 0.100797
O O2 0.000000 0.979457 0.059106
O O3 0.000000 0.131405 0.007203
O O4 0.500000 0.062446 0.613394
O O5 0.693174 0.165162 0.591505
O O6 0.677208 0.096084 0.692098
O O7 0.750000 0.000000 0.608721
O O8 0.500000 0.250000 0.547537
O O9 0.250000 0.250000 0.500000
O O10 0.872201 0.149913 0.903305
O O11 0.775715 0.853706 0.802991
O O12 0.000000 0.929525 0.771101
O O13 0.750000 0.000000 0.772832
O O14 0.323000 0.750000 0.116418
#
# Coordination Sequence:
#
# PCOD9504101 Si02
#       6
#     8  16   8   8  16  16
#     4  11  23  43  65  83 107 153 205 238 295 366
#     4   9  20  39  63  91 124 167 209 257 309 357
#     4  10  22  40  64  94 132 172 209 255 300 356
#     4  11  25  43  61  81 115 155 193 246 297 368
#     4  10  21  38  63  88 119 157 203 250 298 361
#     4  12  25  38  59  89 117 150 191 247 308 356
#
# _framework density 19.075392999999998
#
# number of rings (size 3 to 8) (size 9 to 14) (size 15 to 20)
#    0.000    1.556    1.111    3.333    3.111    5.778 
#    0.000    2.222    0.000    0.000    0.000    0.000 
#    0.000    0.000    0.000    0.000    0.000    0.000 
#
# Total GULP energy -200752.092371 kJ/mol
# GULP energy per Si atom -5576.447010 kJ/mol
# Density = 1.903198 g / cm^3
# Si number density = 19.075393 Si / 1000 Ang^3
#
#
#
# Elastic Constant Matrix: (Units=GPa)
#
#
# Indices 1 2 3 4 5 6 
#
# 1 54.6755 22.3112 41.2012 0.0000 0.0000 0.0000
# 2 22.3112 106.2711 54.0162 0.0000 0.0000 0.0000
# 3 41.2012 54.0162 89.6279 0.0000 0.0000 0.0000
# 4 0.0000 0.0000 0.0000 55.7793 0.0000 0.0000
# 5 0.0000 0.0000 0.0000 0.0000 49.7916 0.0000
# 6 0.0000 0.0000 0.0000 0.0000 0.0000 22.1212
#
#
#
# Elastic Compliance Matrix: (Units=1/GPa)
#
#
# Indices 1 2 3 4 5 6 
#
# 1 0.028051 0.000959 -0.013473 0.000000 0.000000 0.000000
# 2 0.000959 0.013598 -0.008636 0.000000 0.000000 0.000000
# 3 -0.013473 -0.008636 0.022555 0.000000 0.000000 0.000000
# 4 0.000000 0.000000 0.000000 0.017928 0.000000 0.000000
# 5 0.000000 0.000000 0.000000 0.000000 0.020084 0.000000
# 6 0.000000 0.000000 0.000000 0.000000 0.000000 0.045205
#
#
# Mechanical properties :
#
#
# Convention : Reuss Voigt Hill
#
# Bulk Modulus (GPa) = 45.65251 53.95910 49.80580
# Shear Modulus (GPa) = 25.37785 34.40816 29.89301
#
# Velocity S-wave (km/s) = 3.65142 4.25172 3.96295
# Velocity P-wave (km/s) = 6.46233 7.24234 6.86343
#
# Compressibility (1/GPa) = 0.02190460
#
# Stress axis : x y z
#
# Youngs Moduli (GPa) = 35.64951 73.53941 44.33581
#
# Poissons Ratio (x) = -0.07051 0.59732
# Poissons Ratio (y) = -0.03418 0.38288
# Poissons Ratio (z) = 0.48029 0.63508
#
# Static dielectric constant tensor:
#      x y z
#    x 1.468400 0.000000 0.000000 
#    y 0.000000 2.401310 0.000000 
#    z 0.000000 0.000000 1.677900 
# 
# From -- ./inp_files/43142.got.cif
#   From: 2010.05.17/outbox.cif.g08.bks.cpg/sg67_22_cif.got.tgz:43142.got - 2010.06.03 18:28:57.
