data_PCOD9504964
_publ_section_title
;
Structure prediction by ZEFSAII (Michael W. Deem and Ramdas Pophale) SiO2 
 PCOD9504964
Probable space group: C M M A
;
_chemical_formula_sum "Si O2"
_cell_formula_units_Z 72
_cell_length_a 22.509839
_cell_length_b 10.161314
_cell_length_c 19.267614
_cell_angle_alpha 90.000000
_cell_angle_beta 90.000000
_cell_angle_gamma 90.000000
_cell_volume 4407.072529
_symmetry_space_group_name_H-M "C M M A"
_symmetry_group_IT_number 67
_symmetry_cell_setting 'orthorhombic'
loop_
_space_group_symop_operation_xyz
x,y,z
-x,1/2-y,z
x,-y,-z
-x,1/2+y,-z
-x,-y,-z
x,1/2+y,-z
-x,y,z
x,1/2-y,z
1/2+x,1/2+y,z
1/2-x,-y,z
1/2+x,1/2-y,-z
1/2-x,y,-z
1/2-x,1/2-y,-z
1/2+x,y,-z
1/2-x,1/2+y,z
1/2+x,-y,z
loop_
_atom_site_type_symbol
_atom_site_label
_atom_site_fract_x
_atom_site_fract_y
_atom_site_fract_z
Si Si1 0.000000 0.598376 0.564263
Si Si2 0.429072 0.407435 0.782443
Si Si3 0.881178 0.986316 0.642947
Si Si4 0.307555 0.250000 0.588952
Si Si5 0.072319 0.400376 0.059175
Si Si6 0.665985 0.250000 0.428005
O O1 0.000000 0.500000 0.500000
O O2 0.941662 0.569756 0.609358
O O3 0.000000 0.750000 0.541563
O O4 0.500000 0.430982 0.776080
O O5 0.420251 0.250000 0.770066
O O6 0.394192 0.489598 0.724864
O O7 0.411056 0.435746 0.861820
O O8 0.830550 0.879946 0.626887
O O9 0.863763 0.121834 0.605894
O O10 0.336809 0.250000 0.511784
O O11 0.236654 0.250000 0.585332
O O12 0.090847 0.250000 0.045478
O O13 0.000000 0.401032 0.058436
O O14 0.093009 0.500000 0.000000
#
# Coordination Sequence:
#
# PCOD9504964 Si02
#       6
#     8  16  16   8  16   8
#     4  12  24  36  56  78 105 142 176 215 266 327
#     4   9  16  31  50  72 103 143 176 203 251 318
#     4  12  22  37  57  78 107 137 178 219 266 328
#     4  11  22  43  61  71  98 142 182 228 271 324
#     4   8  14  25  44  67  97 135 173 203 238 299
#     4  11  26  39  55  81 102 132 182 236 281 298
#
# _framework density 16.337375000000002
#
# number of rings (size 3 to 8) (size 9 to 14) (size 15 to 20)
#    0.000    1.778    3.333    4.000    1.556    1.778 
#    2.000    0.000    0.000    0.000    0.000    0.000 
#    0.000    5.333    0.000    0.000    0.000    0.000 
#
# Total GULP energy -200864.469689 kJ/mol
# GULP energy per Si atom -5579.568602 kJ/mol
# Density = 1.630019 g / cm^3
# Si number density = 16.337375 Si / 1000 Ang^3
#
#
#
# Elastic Constant Matrix: (Units=GPa)
#
#
# Indices 1 2 3 4 5 6 
#
# 1 40.8125 18.5625 18.9340 0.0000 0.0000 0.0000
# 2 18.5625 99.9178 55.2902 0.0000 0.0000 0.0000
# 3 18.9340 55.2902 132.9224 0.0000 0.0000 0.0000
# 4 0.0000 0.0000 0.0000 24.2645 0.0000 0.0000
# 5 0.0000 0.0000 0.0000 0.0000 11.9452 0.0000
# 6 0.0000 0.0000 0.0000 0.0000 0.0000 2.6967
#
#
#
# Elastic Compliance Matrix: (Units=1/GPa)
#
#
# Indices 1 2 3 4 5 6 
#
# 1 0.027300 -0.003793 -0.002311 0.000000 0.000000 0.000000
# 2 -0.003793 0.013528 -0.005087 0.000000 0.000000 0.000000
# 3 -0.002311 -0.005087 0.009968 0.000000 0.000000 0.000000
# 4 0.000000 0.000000 0.000000 0.041212 0.000000 0.000000
# 5 0.000000 0.000000 0.000000 0.000000 0.083716 0.000000
# 6 0.000000 0.000000 0.000000 0.000000 0.000000 0.370826
#
#
# Mechanical properties :
#
#
# Convention : Reuss Voigt Hill
#
# Bulk Modulus (GPa) = 35.19350 51.02515 43.10933
# Shear Modulus (GPa) = 8.64450 19.83899 14.24175
#
# Velocity S-wave (km/s) = 2.30277 3.48851 2.95571
# Velocity P-wave (km/s) = 5.35339 6.89393 6.17191
#
# Compressibility (1/GPa) = 0.02841434
#
# Stress axis : x y z
#
# Youngs Moduli (GPa) = 36.63067 73.92304 100.31895
#
# Poissons Ratio (x) = 0.28038 0.23184
# Poissons Ratio (y) = 0.13893 0.51029
# Poissons Ratio (z) = 0.08465 0.37602
#
# Static dielectric constant tensor:
#      x y z
#    x 1.537610 0.000000 0.000000 
#    y 0.000000 1.544220 0.000000 
#    z 0.000000 0.000000 1.565030 
# 
# From -- ./inp_files/36854.got.cif
#   From: 2010.05.17/outbox.cif.g08.bks.cpg/sg67_19_cif.got.tgz:36854.got - 2010.06.03 18:28:57.
