data_PCOD9504561
_publ_section_title
;
Structure prediction by ZEFSAII (Michael W. Deem and Ramdas Pophale) SiO2 
 PCOD9504561
Probable space group: C M M A
;
_chemical_formula_sum "Si O2"
_cell_formula_units_Z 84
_cell_length_a 15.115141
_cell_length_b 22.597724
_cell_length_c 12.011428
_cell_angle_alpha 90.000000
_cell_angle_beta 90.000000
_cell_angle_gamma 90.000000
_cell_volume 4102.716851
_symmetry_space_group_name_H-M "C M M A"
_symmetry_group_IT_number 67
_symmetry_cell_setting 'orthorhombic'
loop_
_space_group_symop_operation_xyz
x,y,z
-x,1/2-y,z
x,-y,-z
-x,1/2+y,-z
-x,-y,-z
x,1/2+y,-z
-x,y,z
x,1/2-y,z
1/2+x,1/2+y,z
1/2-x,-y,z
1/2+x,1/2-y,-z
1/2-x,y,-z
1/2-x,1/2-y,-z
1/2+x,y,-z
1/2-x,1/2+y,z
1/2+x,-y,z
loop_
_atom_site_type_symbol
_atom_site_label
_atom_site_fract_x
_atom_site_fract_y
_atom_site_fract_z
Si Si1 0.250000 0.000000 0.500000
Si Si2 0.101785 0.029393 0.338036
Si Si3 0.100986 0.394200 0.726475
Si Si4 0.144034 0.182357 0.511899
Si Si5 0.769799 0.316683 0.872062
Si Si6 0.902755 0.845181 0.740817
O O1 0.181438 0.037561 0.425863
O O2 0.116618 0.964225 0.288738
O O3 0.000000 0.030928 0.383404
O O4 0.106418 0.083590 0.253140
O O5 0.113216 0.362597 0.606733
O O6 0.166969 0.363022 0.811432
O O7 0.000000 0.386089 0.762652
O O8 0.121722 0.250000 0.544377
O O9 0.250000 0.178772 0.500000
O O10 0.104502 0.169381 0.390496
O O11 0.807621 0.250000 0.866304
O O12 0.677580 0.317004 0.805715
O O13 0.750000 0.331144 0.000000
O O14 0.000000 0.827469 0.780608
#
# Coordination Sequence:
#
# PCOD9504561 Si02
#       6
#     4  16  16  16  16  16
#     4  12  18  28  56  82 124 172 194 232 292 350
#     4  10  23  37  55  90 126 160 206 251 297 364
#     4  11  23  41  63  90 126 164 202 249 308 367
#     4  11  22  36  57  88 127 163 199 246 298 354
#     4  11  25  44  65  91 120 154 205 261 308 364
#     4  11  23  41  63  90 126 164 202 249 308 367
#
# _framework density 20.474236999999999
#
# number of rings (size 3 to 8) (size 9 to 14) (size 15 to 20)
#    0.000    1.143    1.905    4.286    2.667    7.619 
#    0.000    3.810    0.000    3.429    0.000    0.000 
#    0.000    0.000    0.000    0.000    0.000    0.000 
#
# Total GULP energy -234933.142891 kJ/mol
# GULP energy per Si atom -5593.646259 kJ/mol
# Density = 2.042764 g / cm^3
# Si number density = 20.474237 Si / 1000 Ang^3
#
#
#
# Elastic Constant Matrix: (Units=GPa)
#
#
# Indices 1 2 3 4 5 6 
#
# 1 133.9577 35.0877 32.1623 0.0000 0.0000 0.0000
# 2 35.0877 122.3973 32.3804 0.0000 0.0000 0.0000
# 3 32.1623 32.3804 83.8654 0.0000 0.0000 0.0000
# 4 0.0000 0.0000 0.0000 29.0922 0.0000 0.0000
# 5 0.0000 0.0000 0.0000 0.0000 -7.3718 0.0000
# 6 0.0000 0.0000 0.0000 0.0000 0.0000 43.9083
#
#
#
# Elastic Compliance Matrix: (Units=1/GPa)
#
#
# Indices 1 2 3 4 5 6 
#
# 1 0.008551 -0.001764 -0.002598 0.000000 0.000000 0.000000
# 2 -0.001764 0.009463 -0.002977 0.000000 0.000000 0.000000
# 3 -0.002598 -0.002977 0.014070 0.000000 0.000000 0.000000
# 4 0.000000 0.000000 0.000000 0.034374 0.000000 0.000000
# 5 0.000000 0.000000 0.000000 0.000000 -0.135653 0.000000
# 6 0.000000 0.000000 0.000000 0.000000 0.000000 0.022775
#
#
# Mechanical properties :
#
#
# Convention : Reuss Voigt Hill
#
# Bulk Modulus (GPa) = 57.45420 59.94236 58.69828
# Shear Modulus (GPa) = -192.75597 29.16508 -81.79545
#
# Velocity S-wave (km/s) = -9.71339 3.77832 -6.32749
# Velocity P-wave (km/s) = 9.88319 6.95520 4.96501
#
# Compressibility (1/GPa) = 0.01740517
#
# Stress axis : x y z
#
# Youngs Moduli (GPa) = 116.94704 105.66973 71.07403
#
# Poissons Ratio (x) = 0.18639 0.18466
# Poissons Ratio (y) = 0.20629 0.21161
# Poissons Ratio (z) = 0.30385 0.31462
#
# Static dielectric constant tensor:
#      x y z
#    x 1.734320 0.000000 0.000000 
#    y 0.000000 1.758510 0.000000 
#    z 0.000000 0.000000 1.692940 
# 
# From -- ./inp_files/18097.got.cif
#   From: 2010.05.17/outbox.cif.g08.bks.cpg/sg67_10_cif.got.tgz:18097.got - 2010.06.03 18:28:57.
