data_PCOD9504748
_publ_section_title
;
Structure prediction by ZEFSAII (Michael W. Deem and Ramdas Pophale) SiO2 
 PCOD9504748
Probable space group: C M M A
;
_chemical_formula_sum "Si O2"
_cell_formula_units_Z 96
_cell_length_a 27.780282
_cell_length_b 14.047483
_cell_length_c 11.258048
_cell_angle_alpha 90.000000
_cell_angle_beta 90.000000
_cell_angle_gamma 90.000000
_cell_volume 4393.374866
_symmetry_space_group_name_H-M "C M M A"
_symmetry_group_IT_number 67
_symmetry_cell_setting 'orthorhombic'
loop_
_space_group_symop_operation_xyz
x,y,z
-x,1/2-y,z
x,-y,-z
-x,1/2+y,-z
-x,-y,-z
x,1/2+y,-z
-x,y,z
x,1/2-y,z
1/2+x,1/2+y,z
1/2-x,-y,z
1/2+x,1/2-y,-z
1/2-x,y,-z
1/2-x,1/2-y,-z
1/2+x,y,-z
1/2-x,1/2+y,z
1/2+x,-y,z
loop_
_atom_site_type_symbol
_atom_site_label
_atom_site_fract_x
_atom_site_fract_y
_atom_site_fract_z
Si Si1 0.120795 0.141242 0.218354
Si Si2 0.366454 0.110929 0.508708
Si Si3 0.945578 0.250000 0.584750
Si Si4 0.606229 0.046339 0.127060
Si Si5 0.809966 0.639322 0.281349
Si Si6 0.274894 0.863761 0.121644
Si Si7 0.945613 0.250000 0.869612
O O1 0.103784 0.250000 0.190450
O O2 0.137951 0.141162 0.355228
O O3 0.169071 0.119440 0.142636
O O4 0.086754 0.048596 0.197818
O O5 0.413633 0.161810 0.457217
O O6 0.322086 0.133048 0.420426
O O7 0.373482 0.000000 0.500000
O O8 0.946996 0.250000 0.726313
O O9 0.000000 0.250000 0.538516
O O10 0.651065 0.080201 0.207024
O O11 0.578403 0.146753 0.103032
O O12 0.615521 0.000000 0.000000
O O13 0.817155 0.750000 0.248149
O O14 0.757917 0.608638 0.234193
O O15 0.272203 0.750000 0.115409
O O16 0.250000 0.898709 0.000000
O O17 0.000000 0.250000 0.917002
#
# Coordination Sequence:
#
# PCOD9504748 Si02
#       7
#    16  16   8  16  16  16   8
#     4  11  23  40  64  98 139 179 218 284 341 389
#     4  12  21  40  64  92 134 172 220 271 339 417
#     4  11  22  42  71  95 120 164 213 273 344 409
#     4  12  24  40  70  97 127 183 222 273 342 398
#     4  11  20  39  65  92 127 178 232 276 329 392
#     4   9  20  37  59  93 135 177 232 285 322 381
#     4  11  24  48  73 100 132 167 230 282 334 423
#
# _framework density 21.851082999999999
#
# number of rings (size 3 to 8) (size 9 to 14) (size 15 to 20)
#    0.000    1.000    5.833    1.000    1.167    3.333 
#    0.000    5.833    0.000    0.000    0.000    0.000 
#    0.000    0.000    0.000    0.000    0.000    0.000 
#
# Total GULP energy -267682.027298 kJ/mol
# GULP energy per Si atom -5576.708902 kJ/mol
# Density = 2.180135 g / cm^3
# Si number density = 21.851083 Si / 1000 Ang^3
#
#
#
# Elastic Constant Matrix: (Units=GPa)
#
#
# Indices 1 2 3 4 5 6 
#
# 1 47.4558 32.2241 8.0092 0.0000 0.0000 0.0000
# 2 32.2241 216.9636 22.3138 0.0000 0.0000 0.0000
# 3 8.0092 22.3138 103.9974 0.0000 0.0000 0.0000
# 4 0.0000 0.0000 0.0000 5.8251 0.0000 0.0000
# 5 0.0000 0.0000 0.0000 0.0000 10.2523 0.0000
# 6 0.0000 0.0000 0.0000 0.0000 0.0000 116.5065
#
#
#
# Elastic Compliance Matrix: (Units=1/GPa)
#
#
# Indices 1 2 3 4 5 6 
#
# 1 0.023555 -0.003387 -0.001087 0.000000 0.000000 0.000000
# 2 -0.003387 0.005200 -0.000855 0.000000 0.000000 0.000000
# 3 -0.001087 -0.000855 0.009883 0.000000 0.000000 0.000000
# 4 0.000000 0.000000 0.000000 0.171671 0.000000 0.000000
# 5 0.000000 0.000000 0.000000 0.000000 0.097539 0.000000
# 6 0.000000 0.000000 0.000000 0.000000 0.000000 0.008583
#
#
# Mechanical properties :
#
#
# Convention : Reuss Voigt Hill
#
# Bulk Modulus (GPa) = 35.73955 54.83454 45.28705
# Shear Modulus (GPa) = 14.86255 46.90811 30.88533
#
# Velocity S-wave (km/s) = 2.61084 4.63829 3.76366
# Velocity P-wave (km/s) = 5.04779 7.33718 6.29739
#
# Compressibility (1/GPa) = 0.02798021
#
# Stress axis : x y z
#
# Youngs Moduli (GPa) = 42.45305 192.30805 101.18588
#
# Poissons Ratio (x) = 0.65129 0.11003
# Poissons Ratio (y) = 0.14378 0.08650
# Poissons Ratio (z) = 0.04616 0.16440
#
# Static dielectric constant tensor:
#      x y z
#    x 1.827800 0.000000 0.000000 
#    y 0.000000 1.883360 0.000000 
#    z 0.000000 0.000000 1.830710 
# 
# From -- ./inp_files/23729.got.cif
#   From: 2010.05.17/outbox.cif.g08.bks.cpg/sg67_12_cif.got.tgz:23729.got - 2010.06.03 18:28:57.
