data_PCOD9504676
_publ_section_title
;
Structure prediction by ZEFSAII (Michael W. Deem and Ramdas Pophale) SiO2 
 PCOD9504676
Probable space group: C M M A
;
_chemical_formula_sum "Si O2"
_cell_formula_units_Z 88
_cell_length_a 7.981519
_cell_length_b 16.062095
_cell_length_c 32.061917
_cell_angle_alpha 90.000000
_cell_angle_beta 90.000000
_cell_angle_gamma 90.000000
_cell_volume 4110.335080
_symmetry_space_group_name_H-M "C M M A"
_symmetry_group_IT_number 67
_symmetry_cell_setting 'orthorhombic'
loop_
_space_group_symop_operation_xyz
x,y,z
-x,1/2-y,z
x,-y,-z
-x,1/2+y,-z
-x,-y,-z
x,1/2+y,-z
-x,y,z
x,1/2-y,z
1/2+x,1/2+y,z
1/2-x,-y,z
1/2+x,1/2-y,-z
1/2-x,y,-z
1/2-x,1/2-y,-z
1/2+x,y,-z
1/2-x,1/2+y,z
1/2+x,-y,z
loop_
_atom_site_type_symbol
_atom_site_label
_atom_site_fract_x
_atom_site_fract_y
_atom_site_fract_z
Si Si1 0.699236 0.902141 0.455454
Si Si2 0.192897 0.650164 0.723111
Si Si3 0.698914 0.590623 0.900924
Si Si4 0.297240 0.903143 0.365919
Si Si5 0.702094 0.345917 0.812406
Si Si6 0.297325 0.750000 0.951813
O O1 0.500000 0.898953 0.454212
O O2 0.750000 0.864730 0.500000
O O3 0.762607 0.867777 0.410796
O O4 0.750000 0.000000 0.456260
O O5 0.186931 0.750000 0.726522
O O6 0.270059 0.630074 0.678184
O O7 0.267501 0.621820 0.767468
O O8 0.000000 0.618927 0.721578
O O9 0.500000 0.595377 0.901953
O O10 0.750000 0.500000 0.916571
O O11 0.752625 0.602608 0.853000
O O12 0.766417 0.667556 0.928090
O O13 0.500000 0.892165 0.365481
O O14 0.250000 0.000000 0.366528
O O15 0.500000 0.343655 0.809082
O O16 0.760104 0.250000 0.818779
O O17 0.500000 0.750000 0.949183
O O18 0.250000 0.750000 0.000000
#
# Coordination Sequence:
#
# PCOD9504676 Si02
#       6
#    16  16  16  16  16   8
#     4   9  15  23  37  57  80 109 146 190 242 297
#     4   8  15  29  49  72  98 130 170 209 247 302
#     4  11  23  40  61  90 123 157 197 241 288 339
#     4   9  17  28  43  64  90 119 153 198 250 299
#     4   9  17  32  56  82 108 144 186 228 276 328
#     4  10  24  44  66  90 122 160 198 242 291 338
#
# _framework density 21.409445999999999
#
# number of rings (size 3 to 8) (size 9 to 14) (size 15 to 20)
#    0.000    2.727    0.909    2.727    0.000    3.273 
#    0.000    4.545    0.000    2.182    0.000    0.000 
#    0.000    0.000    0.000    0.000    0.000    4.909 
#
# Total GULP energy -245163.284996 kJ/mol
# GULP energy per Si atom -5571.892841 kJ/mol
# Density = 2.136072 g / cm^3
# Si number density = 21.409446 Si / 1000 Ang^3
#
#
#
# Elastic Constant Matrix: (Units=GPa)
#
#
# Indices 1 2 3 4 5 6 
#
# 1 24.0350 3.1694 13.2851 0.0000 0.0000 0.0000
# 2 3.1694 72.3741 65.0357 0.0000 0.0000 0.0000
# 3 13.2851 65.0357 209.3923 0.0000 0.0000 0.0000
# 4 0.0000 0.0000 0.0000 24.3205 0.0000 0.0000
# 5 0.0000 0.0000 0.0000 0.0000 23.2921 0.0000
# 6 0.0000 0.0000 0.0000 0.0000 0.0000 11.1458
#
#
#
# Elastic Compliance Matrix: (Units=1/GPa)
#
#
# Indices 1 2 3 4 5 6 
#
# 1 0.043151 0.000791 -0.002984 0.000000 0.000000 0.000000
# 2 0.000791 0.019181 -0.006008 0.000000 0.000000 0.000000
# 3 -0.002984 -0.006008 0.006831 0.000000 0.000000 0.000000
# 4 0.000000 0.000000 0.000000 0.041118 0.000000 0.000000
# 5 0.000000 0.000000 0.000000 0.000000 0.042933 0.000000
# 6 0.000000 0.000000 0.000000 0.000000 0.000000 0.089720
#
#
# Mechanical properties :
#
#
# Convention : Reuss Voigt Hill
#
# Bulk Modulus (GPa) = 18.95266 52.08684 35.51975
# Shear Modulus (GPa) = 18.05573 26.70577 22.38075
#
# Velocity S-wave (km/s) = 2.90721 3.53566 3.23672
# Velocity P-wave (km/s) = 4.48785 6.40700 5.53129
#
# Compressibility (1/GPa) = 0.05276304
#
# Stress axis : x y z
#
# Youngs Moduli (GPa) = 23.17456 52.13502 146.39238
#
# Poissons Ratio (x) = -0.04126 0.43677
# Poissons Ratio (y) = -0.01834 0.87948
# Poissons Ratio (z) = 0.06914 0.31321
#
# Static dielectric constant tensor:
#      x y z
#    x 1.783550 0.000000 0.000000 
#    y 0.000000 1.678720 0.000000 
#    z 0.000000 0.000000 1.850900 
# 
# From -- ./inp_files/45232.got.cif
#   From: 2010.05.17/outbox.cif.g08.bks.cpg/sg67_23_cif.got.tgz:45232.got - 2010.06.03 18:28:57.
