data_PCOD9504222
_publ_section_title
;
Structure prediction by ZEFSAII (Michael W. Deem and Ramdas Pophale) SiO2 
 PCOD9504222
Probable space group: C M M A
;
_chemical_formula_sum "Si O2"
_cell_formula_units_Z 116
_cell_length_a 18.146164
_cell_length_b 28.850722
_cell_length_c 11.047352
_cell_angle_alpha 90.000000
_cell_angle_beta 90.000000
_cell_angle_gamma 90.000000
_cell_volume 5783.619452
_symmetry_space_group_name_H-M "C M M A"
_symmetry_group_IT_number 67
_symmetry_cell_setting 'orthorhombic'
loop_
_space_group_symop_operation_xyz
x,y,z
-x,1/2-y,z
x,-y,-z
-x,1/2+y,-z
-x,-y,-z
x,1/2+y,-z
-x,y,z
x,1/2-y,z
1/2+x,1/2+y,z
1/2-x,-y,z
1/2+x,1/2-y,-z
1/2-x,y,-z
1/2-x,1/2-y,-z
1/2+x,y,-z
1/2-x,1/2+y,z
1/2+x,-y,z
loop_
_atom_site_type_symbol
_atom_site_label
_atom_site_fract_x
_atom_site_fract_y
_atom_site_fract_z
Si Si1 0.620609 0.332922 0.233724
Si Si2 0.823800 0.523824 0.294517
Si Si3 0.918772 0.090912 0.566274
Si Si4 0.085685 0.949688 0.859750
Si Si5 0.416671 0.861148 0.307172
Si Si6 0.729097 0.305152 0.637291
Si Si7 0.824082 0.590264 0.070686
Si Si8 0.500000 0.750000 0.786888
O O1 0.591928 0.366575 0.340775
O O2 0.701739 0.316885 0.277239
O O3 0.630619 0.365094 0.115398
O O4 0.564808 0.290787 0.216605
O O5 0.750000 0.500000 0.335450
O O6 0.861778 0.551422 0.401614
O O7 0.876494 0.486685 0.228901
O O8 0.803927 0.561698 0.191195
O O9 0.913595 0.110282 0.432159
O O10 0.000000 0.071203 0.586220
O O11 0.090694 0.898842 0.798316
O O12 0.000000 0.961183 0.876739
O O13 0.128243 0.943455 0.985656
O O14 0.500000 0.840154 0.300217
O O15 0.346856 0.827304 0.314863
O O16 0.719609 0.250000 0.630941
O O17 0.750000 0.321461 0.500000
O O18 0.750000 0.603166 0.000000
#
# Coordination Sequence:
#
# PCOD9504222 Si02
#       8
#    16  16  16  16  16  16  16   4
#     4  11  23  40  67  95 129 167 207 277 323 391
#     4  11  23  38  63  94 126 165 215 269 318 381
#     4  10  21  40  63  94 129 167 212 262 330 384
#     4  11  24  40  62  89 124 169 216 266 315 376
#     4  10  23  42  64  89 130 174 214 264 328 395
#     4  11  22  38  62  97 128 160 209 266 331 398
#     4  11  23  41  67  89 127 167 216 267 328 378
#     4  12  24  44  68 104 134 158 224 270 332 388
#
# _framework density 20.056643999999999
#
# number of rings (size 3 to 8) (size 9 to 14) (size 15 to 20)
#    0.000    1.241    4.138    1.655    2.897    2.483 
#    0.000    3.103    1.517    0.000    0.000    0.000 
#    0.000    0.000    0.000    0.000    0.000    0.000 
#
# Total GULP energy -323714.694707 kJ/mol
# GULP energy per Si atom -5581.287840 kJ/mol
# Density = 2.001099 g / cm^3
# Si number density = 20.056644 Si / 1000 Ang^3
#
#
#
# Elastic Constant Matrix: (Units=GPa)
#
#
# Indices 1 2 3 4 5 6 
#
# 1 146.8018 53.2893 16.4211 0.0000 0.0000 0.0000
# 2 53.2893 85.1850 0.4820 0.0000 0.0000 0.0000
# 3 16.4211 0.4820 22.2528 0.0000 0.0000 0.0000
# 4 0.0000 0.0000 0.0000 13.5043 0.0000 0.0000
# 5 0.0000 0.0000 0.0000 0.0000 8.7120 0.0000
# 6 0.0000 0.0000 0.0000 0.0000 0.0000 47.0674
#
#
#
# Elastic Compliance Matrix: (Units=1/GPa)
#
#
# Indices 1 2 3 4 5 6 
#
# 1 0.009824 -0.006106 -0.007118 0.000000 0.000000 0.000000
# 2 -0.006106 0.015535 0.004169 0.000000 0.000000 0.000000
# 3 -0.007118 0.004169 0.050100 0.000000 0.000000 0.000000
# 4 0.000000 0.000000 0.000000 0.074051 0.000000 0.000000
# 5 0.000000 0.000000 0.000000 0.000000 0.114785 0.000000
# 6 0.000000 0.000000 0.000000 0.000000 0.000000 0.021246
#
#
# Mechanical properties :
#
#
# Convention : Reuss Voigt Hill
#
# Bulk Modulus (GPa) = 17.43634 43.84714 30.64174
# Shear Modulus (GPa) = 15.49108 26.12655 20.80882
#
# Velocity S-wave (km/s) = 2.78216 3.61312 3.22452
# Velocity P-wave (km/s) = 4.36268 6.27019 5.40131
#
# Compressibility (1/GPa) = 0.05735147
#
# Stress axis : x y z
#
# Youngs Moduli (GPa) = 101.78734 64.37052 19.96002
#
# Poissons Ratio (x) = 0.39302 0.14207
# Poissons Ratio (y) = 0.62147 -0.08321
# Poissons Ratio (z) = 0.72447 -0.26836
#
# Static dielectric constant tensor:
#      x y z
#    x 1.715770 0.000000 0.000000 
#    y 0.000000 1.684890 0.000000 
#    z 0.000000 0.000000 1.710550 
# 
# From -- ./inp_files/19992.got.cif
#   From: 2010.05.17/outbox.cif.g08.bks.cpg/sg67_10_cif.got.tgz:19992.got - 2010.06.03 18:28:57.
