data_PCOD9504201
_publ_section_title
;
Structure prediction by ZEFSAII (Michael W. Deem and Ramdas Pophale) SiO2 
 PCOD9504201
Probable space group: C M M A
;
_chemical_formula_sum "Si O2"
_cell_formula_units_Z 88
_cell_length_a 9.882404
_cell_length_b 17.411898
_cell_length_c 26.476452
_cell_angle_alpha 90.000000
_cell_angle_beta 90.000000
_cell_angle_gamma 90.000000
_cell_volume 4555.840439
_symmetry_space_group_name_H-M "C M M A"
_symmetry_group_IT_number 67
_symmetry_cell_setting 'orthorhombic'
loop_
_space_group_symop_operation_xyz
x,y,z
-x,1/2-y,z
x,-y,-z
-x,1/2+y,-z
-x,-y,-z
x,1/2+y,-z
-x,y,z
x,1/2-y,z
1/2+x,1/2+y,z
1/2-x,-y,z
1/2+x,1/2-y,-z
1/2-x,y,-z
1/2-x,1/2-y,-z
1/2+x,y,-z
1/2-x,1/2+y,z
1/2+x,-y,z
loop_
_atom_site_type_symbol
_atom_site_label
_atom_site_fract_x
_atom_site_fract_y
_atom_site_fract_z
Si Si1 0.156597 0.428347 0.284200
Si Si2 0.354225 0.159694 0.218979
Si Si3 0.163331 0.250000 0.449104
Si Si4 0.658476 0.076449 0.594357
Si Si5 0.000000 0.160889 0.075075
Si Si6 0.000000 0.418013 0.971179
Si Si7 0.774511 0.412367 0.885982
O O1 0.250000 0.500000 0.269580
O O2 0.229163 0.360592 0.254554
O O3 0.164793 0.419740 0.344657
O O4 0.000000 0.437177 0.270187
O O5 0.500000 0.131757 0.240017
O O6 0.359867 0.250000 0.214749
O O7 0.335700 0.127299 0.162965
O O8 0.250000 0.250000 0.500000
O O9 0.193755 0.335446 0.423987
O O10 0.000000 0.250000 0.456150
O O11 0.500000 0.062414 0.580055
O O12 0.750000 0.000000 0.579532
O O13 0.867261 0.124022 0.098838
O O14 0.000000 0.250000 0.085328
O O15 0.000000 0.144054 0.015354
O O16 0.128221 0.410578 0.934558
O O17 0.000000 0.500000 0.000000
O O18 0.750000 0.500000 0.872177
#
# Coordination Sequence:
#
# PCOD9504201 Si02
#       7
#    16  16   8  16   8   8  16
#     4  10  21  39  67  94 125 168 222 270 328 396
#     4  11  25  42  60  90 130 167 205 260 325 382
#     4  10  22  40  62  94 138 182 234 286 343 400
#     4   9  20  39  64  94 131 176 227 285 336 400
#     4  12  28  42  66 102 128 152 204 260 304 365
#     4  12  24  46  70  96 118 164 212 250 310 383
#     4  12  24  44  70  90 126 161 205 255 309 381
#
# _framework density 19.315864999999999
#
# number of rings (size 3 to 8) (size 9 to 14) (size 15 to 20)
#    0.000    1.273    2.727    2.182    2.545    4.364 
#    0.000    1.818    0.000    0.000    0.000    0.000 
#    0.000    0.000    0.000    0.000    0.000    0.000 
#
# Total GULP energy -245476.824549 kJ/mol
# GULP energy per Si atom -5579.018740 kJ/mol
# Density = 1.927190 g / cm^3
# Si number density = 19.315865 Si / 1000 Ang^3
#
#
#
# Elastic Constant Matrix: (Units=GPa)
#
#
# Indices 1 2 3 4 5 6 
#
# 1 159.4444 82.9704 42.7109 0.0000 0.0000 0.0000
# 2 82.9704 158.1313 39.1614 0.0000 0.0000 0.0000
# 3 42.7109 39.1614 35.8837 0.0000 0.0000 0.0000
# 4 0.0000 0.0000 0.0000 43.9580 0.0000 0.0000
# 5 0.0000 0.0000 0.0000 0.0000 46.4877 0.0000
# 6 0.0000 0.0000 0.0000 0.0000 0.0000 39.5752
#
#
#
# Elastic Compliance Matrix: (Units=1/GPa)
#
#
# Indices 1 2 3 4 5 6 
#
# 1 0.010293 -0.003243 -0.008712 0.000000 0.000000 0.000000
# 2 -0.003243 0.009688 -0.006713 0.000000 0.000000 0.000000
# 3 -0.008712 -0.006713 0.045563 0.000000 0.000000 0.000000
# 4 0.000000 0.000000 0.000000 0.022749 0.000000 0.000000
# 5 0.000000 0.000000 0.000000 0.000000 0.021511 0.000000
# 6 0.000000 0.000000 0.000000 0.000000 0.000000 0.025268
#
#
# Mechanical properties :
#
#
# Convention : Reuss Voigt Hill
#
# Bulk Modulus (GPa) = 35.45026 75.90497 55.67761
# Shear Modulus (GPa) = 27.50100 38.57861 33.03980
#
# Velocity S-wave (km/s) = 3.77736 4.47391 4.14031
# Velocity P-wave (km/s) = 6.11697 8.12833 7.19330
#
# Compressibility (1/GPa) = 0.02820854
#
# Stress axis : x y z
#
# Youngs Moduli (GPa) = 97.15146 103.22129 21.94750
#
# Poissons Ratio (x) = 0.33477 0.19121
# Poissons Ratio (y) = 0.31508 0.14732
# Poissons Ratio (z) = 0.84640 0.69288
#
# Static dielectric constant tensor:
#      x y z
#    x 1.620980 0.000000 0.000000 
#    y 0.000000 1.697580 0.000000 
#    z 0.000000 0.000000 1.630560 
# 
# From -- ./inp_files/45276.got.cif
#   From: 2010.05.17/outbox.cif.g08.bks.cpg/sg67_23_cif.got.tgz:45276.got - 2010.06.03 18:28:57.
