data_PCOD9504124
_publ_section_title
;
Structure prediction by ZEFSAII (Michael W. Deem and Ramdas Pophale) SiO2 
 PCOD9504124
Probable space group: C M M A
;
_chemical_formula_sum "Si O2"
_cell_formula_units_Z 100
_cell_length_a 7.779684
_cell_length_b 32.144686
_cell_length_c 18.098362
_cell_angle_alpha 90.000000
_cell_angle_beta 90.000000
_cell_angle_gamma 90.000000
_cell_volume 4525.956915
_symmetry_space_group_name_H-M "C M M A"
_symmetry_group_IT_number 67
_symmetry_cell_setting 'orthorhombic'
loop_
_space_group_symop_operation_xyz
x,y,z
-x,1/2-y,z
x,-y,-z
-x,1/2+y,-z
-x,-y,-z
x,1/2+y,-z
-x,y,z
x,1/2-y,z
1/2+x,1/2+y,z
1/2-x,-y,z
1/2+x,1/2-y,-z
1/2-x,y,-z
1/2-x,1/2-y,-z
1/2+x,y,-z
1/2-x,1/2+y,z
1/2+x,-y,z
loop_
_atom_site_type_symbol
_atom_site_label
_atom_site_fract_x
_atom_site_fract_y
_atom_site_fract_z
Si Si1 0.500000 0.250000 0.237602
Si Si2 0.801312 0.863144 0.416968
Si Si3 0.706469 0.454090 0.802999
Si Si4 0.207450 0.115596 0.086225
Si Si5 0.705314 0.453567 0.633738
Si Si6 0.207014 0.293996 0.087241
Si Si7 0.812279 0.205231 0.305015
O O1 0.652590 0.213663 0.251783
O O2 0.750000 0.851818 0.500000
O O3 0.771860 0.912554 0.406811
O O4 0.705883 0.834541 0.357063
O O5 0.000000 0.854026 0.406197
O O6 0.500000 0.450141 0.799283
O O7 0.750000 0.500000 0.830453
O O8 0.773437 0.419642 0.859050
O O9 0.770797 0.450797 0.718705
O O10 0.269486 0.161053 0.112052
O O11 0.000000 0.116037 0.090406
O O12 0.250000 0.108904 0.000000
O O13 0.500000 0.450708 0.633676
O O14 0.750000 0.500000 0.605546
O O15 0.283697 0.250000 0.115007
O O16 0.000000 0.292584 0.094583
O O17 0.250000 0.294281 0.000000
O O18 0.812858 0.250000 0.348450
O O19 0.000000 0.202485 0.267008
#
# Coordination Sequence:
#
# PCOD9504124 Si02
#       7
#     4  16  16  16  16  16  16
#     4   8  14  32  50  78 114 150 188 220 274 320
#     4  12  23  37  56  83 111 139 175 222 273 326
#     4   9  19  35  54  72  98 132 171 210 256 311
#     4   9  17  29  46  73 103 132 164 210 256 301
#     4  10  21  39  58  77  99 134 176 220 268 325
#     4   8  13  22  38  61  91 125 161 196 240 289
#     4   9  17  32  52  79 113 149 185 225 272 329
#
# _framework density 22.094774999999998
#
# number of rings (size 3 to 8) (size 9 to 14) (size 15 to 20)
#    0.480    2.080    0.800    1.920    0.000    2.240 
#    0.000    3.200    0.000    0.960    0.000    4.480 
#    0.000    2.880    0.000    0.000    0.000    0.000 
#
# Total GULP energy -278379.222933 kJ/mol
# GULP energy per Si atom -5567.584459 kJ/mol
# Density = 2.204449 g / cm^3
# Si number density = 22.094775 Si / 1000 Ang^3
#
#
#
# Elastic Constant Matrix: (Units=GPa)
#
#
# Indices 1 2 3 4 5 6 
#
# 1 88.2640 2.9000 8.8092 0.0000 0.0000 0.0000
# 2 2.9000 117.1133 42.8511 0.0000 0.0000 0.0000
# 3 8.8092 42.8511 69.8297 0.0000 0.0000 0.0000
# 4 0.0000 0.0000 0.0000 41.2952 0.0000 0.0000
# 5 0.0000 0.0000 0.0000 0.0000 -278.2679 0.0000
# 6 0.0000 0.0000 0.0000 0.0000 0.0000 32.8633
#
#
#
# Elastic Compliance Matrix: (Units=1/GPa)
#
#
# Indices 1 2 3 4 5 6 
#
# 1 0.011483 0.000317 -0.001643 0.000000 0.000000 0.000000
# 2 0.000317 0.011020 -0.006802 0.000000 0.000000 0.000000
# 3 -0.001643 -0.006802 0.018702 0.000000 0.000000 0.000000
# 4 0.000000 0.000000 0.000000 0.024216 0.000000 0.000000
# 5 0.000000 0.000000 0.000000 0.000000 -0.003594 0.000000
# 6 0.000000 0.000000 0.000000 0.000000 0.000000 0.030429
#
#
# Mechanical properties :
#
#
# Convention : Reuss Voigt Hill
#
# Bulk Modulus (GPa) = 40.08326 42.70305 41.39316
# Shear Modulus (GPa) = 42.79743 -26.11208 8.34267
#
# Velocity S-wave (km/s) = 4.40590 -3.44149 1.94526
# Velocity P-wave (km/s) = 6.63804 1.89139 4.88062
#
# Compressibility (1/GPa) = 0.02494807
#
# Stress axis : x y z
#
# Youngs Moduli (GPa) = 87.08353 90.74562 53.46999
#
# Poissons Ratio (x) = -0.02875 0.08785
# Poissons Ratio (y) = -0.02759 0.36372
# Poissons Ratio (z) = 0.14308 0.61728
#
# Static dielectric constant tensor:
#      x y z
#    x 1.872500 0.000000 0.000000 
#    y 0.000000 1.837710 0.000000 
#    z 0.000000 0.000000 1.823800 
# 
# From -- ./inp_files/37317.got.cif
#   From: 2010.05.17/outbox.cif.g08.bks.cpg/sg67_19_cif.got.tgz:37317.got - 2010.06.03 18:28:57.
