data_PCOD9504722
_publ_section_title
;
Structure prediction by ZEFSAII (Michael W. Deem and Ramdas Pophale) SiO2 
 PCOD9504722
Probable space group: C M M A
;
_chemical_formula_sum "Si O2"
_cell_formula_units_Z 112
_cell_length_a 30.428255
_cell_length_b 14.778438
_cell_length_c 11.295760
_cell_angle_alpha 90.000000
_cell_angle_beta 90.000000
_cell_angle_gamma 90.000000
_cell_volume 5079.500852
_symmetry_space_group_name_H-M "C M M A"
_symmetry_group_IT_number 67
_symmetry_cell_setting 'orthorhombic'
loop_
_space_group_symop_operation_xyz
x,y,z
-x,1/2-y,z
x,-y,-z
-x,1/2+y,-z
-x,-y,-z
x,1/2+y,-z
-x,y,z
x,1/2-y,z
1/2+x,1/2+y,z
1/2-x,-y,z
1/2+x,1/2-y,-z
1/2-x,y,-z
1/2-x,1/2-y,-z
1/2+x,y,-z
1/2-x,1/2+y,z
1/2+x,-y,z
loop_
_atom_site_type_symbol
_atom_site_label
_atom_site_fract_x
_atom_site_fract_y
_atom_site_fract_z
Si Si1 0.049164 0.042456 0.289797
Si Si2 0.414929 0.357288 0.929852
Si Si3 0.643644 0.524014 0.364637
Si Si4 0.721507 0.353438 0.736089
Si Si5 0.183375 0.104640 0.023896
Si Si6 0.320622 0.852143 0.752916
Si Si7 0.949120 0.850879 0.188454
O O1 0.055027 0.086017 0.159147
O O2 0.094932 0.067963 0.353266
O O3 0.000000 0.066217 0.335257
O O4 0.051708 0.933642 0.278621
O O5 0.420669 0.250000 0.908872
O O6 0.364198 0.383988 0.914306
O O7 0.424219 0.374633 0.067755
O O8 0.651032 0.500000 0.500000
O O9 0.683569 0.585859 0.319384
O O10 0.647109 0.430809 0.289311
O O11 0.714840 0.250000 0.699760
O O12 0.716926 0.359295 0.878927
O O13 0.771737 0.378632 0.708391
O O14 0.180826 0.149410 0.895617
O O15 0.192514 0.000000 0.000000
O O16 0.330568 0.750000 0.711994
O O17 0.935283 0.750000 0.229133
O O18 0.000000 0.844168 0.151954
#
# Coordination Sequence:
#
# PCOD9504722 Si02
#       7
#    16  16  16  16  16  16  16
#     4  11  23  40  62  88 120 164 219 273 330 387
#     4  11  20  32  55  89 132 174 209 250 308 383
#     4  12  27  46  67  91 124 171 226 283 334 384
#     4  11  24  43  67  98 136 174 213 263 325 391
#     4  12  21  35  63 101 141 174 204 252 315 388
#     4  11  24  42  68 101 134 171 215 263 322 395
#     4   9  18  32  53  85 122 157 198 253 315 382
#
# _framework density 22.049410999999999
#
# number of rings (size 3 to 8) (size 9 to 14) (size 15 to 20)
#    0.000    1.000    2.857    4.714    0.000    7.429 
#    0.000    1.429    0.000    0.000    0.000    4.000 
#    0.000    0.000    0.000    0.000    0.000    0.000 
#
# Total GULP energy -313001.093080 kJ/mol
# GULP energy per Si atom -5589.305234 kJ/mol
# Density = 2.199923 g / cm^3
# Si number density = 22.049411 Si / 1000 Ang^3
#
#
#
# Elastic Constant Matrix: (Units=GPa)
#
#
# Indices 1 2 3 4 5 6 
#
# 1 151.7574 20.0718 17.4385 0.0000 0.0000 0.0000
# 2 20.0718 68.4288 -2.0995 0.0000 0.0000 0.0000
# 3 17.4385 -2.0995 46.3949 0.0000 0.0000 0.0000
# 4 0.0000 0.0000 0.0000 -8.7374 0.0000 0.0000
# 5 0.0000 0.0000 0.0000 0.0000 8.8330 0.0000
# 6 0.0000 0.0000 0.0000 0.0000 0.0000 -350.2697
#
#
#
# Elastic Compliance Matrix: (Units=1/GPa)
#
#
# Indices 1 2 3 4 5 6 
#
# 1 0.007203 -0.002199 -0.002807 0.000000 0.000000 0.000000
# 2 -0.002199 0.015305 0.001519 0.000000 0.000000 0.000000
# 3 -0.002807 0.001519 0.022678 0.000000 0.000000 0.000000
# 4 0.000000 0.000000 0.000000 -0.114451 0.000000 0.000000
# 5 0.000000 0.000000 0.000000 0.000000 0.113212 0.000000
# 6 0.000000 0.000000 0.000000 0.000000 0.000000 -0.002855
#
#
# Mechanical properties :
#
#
# Convention : Reuss Voigt Hill
#
# Bulk Modulus (GPa) = 26.16929 37.48920 31.82924
# Shear Modulus (GPa) = 82.23211 -54.62347 13.80432
#
# Velocity S-wave (km/s) = 6.11355 -4.98267 2.50484
# Velocity P-wave (km/s) = 7.85673 4.00792 4.77832
#
# Compressibility (1/GPa) = 0.03821273
#
# Stress axis : x y z
#
# Youngs Moduli (GPa) = 138.83440 65.33673 44.09593
#
# Poissons Ratio (x) = 0.14367 0.12377
# Poissons Ratio (y) = 0.30528 -0.06699
# Poissons Ratio (z) = 0.38969 -0.09925
#
# Static dielectric constant tensor:
#      x y z
#    x 1.720130 0.000000 0.000000 
#    y 0.000000 1.831230 0.000000 
#    z 0.000000 0.000000 1.780270 
# 
# From -- ./inp_files/18586.got.cif
#   From: 2010.05.17/outbox.cif.g08.bks.cpg/sg67_10_cif.got.tgz:18586.got - 2010.06.03 18:28:57.
