data_PCOD9504265
_publ_section_title
;
Structure prediction by ZEFSAII (Michael W. Deem and Ramdas Pophale) SiO2 
 PCOD9504265
Probable space group: C M M A
;
_chemical_formula_sum "Si O2"
_cell_formula_units_Z 56
_cell_length_a 26.031766
_cell_length_b 9.334763
_cell_length_c 12.586834
_cell_angle_alpha 90.000000
_cell_angle_beta 90.000000
_cell_angle_gamma 90.000000
_cell_volume 3058.605270
_symmetry_space_group_name_H-M "C M M A"
_symmetry_group_IT_number 67
_symmetry_cell_setting 'orthorhombic'
loop_
_space_group_symop_operation_xyz
x,y,z
-x,1/2-y,z
x,-y,-z
-x,1/2+y,-z
-x,-y,-z
x,1/2+y,-z
-x,y,z
x,1/2-y,z
1/2+x,1/2+y,z
1/2-x,-y,z
1/2+x,1/2-y,-z
1/2-x,y,-z
1/2-x,1/2-y,-z
1/2+x,y,-z
1/2-x,1/2+y,z
1/2+x,-y,z
loop_
_atom_site_type_symbol
_atom_site_label
_atom_site_fract_x
_atom_site_fract_y
_atom_site_fract_z
Si Si1 0.940789 0.750000 0.396598
Si Si2 0.197437 0.916945 0.691286
Si Si3 0.559089 0.750000 0.859046
Si Si4 0.655864 0.413843 0.104900
Si Si5 0.375199 0.000000 0.500000
O O1 0.939514 0.750000 0.268942
O O2 0.910907 0.614228 0.441653
O O3 0.000000 0.750000 0.430729
O O4 0.206712 0.750000 0.715271
O O5 0.250000 0.000000 0.667008
O O6 0.172476 0.997968 0.791969
O O7 0.160453 0.929711 0.589887
O O8 0.500000 0.750000 0.894067
O O9 0.594253 0.615778 0.894953
O O10 0.677202 0.250000 0.107894
O O11 0.671155 0.500000 0.000000
#
# Coordination Sequence:
#
# PCOD9504265 Si02
#       5
#     8  16   8  16   8
#     4  11  22  40  65  94 132 171 210 251 311 377
#     4  12  26  41  65  92 124 165 213 261 322 378
#     4   9  20  38  64  90 128 170 206 253 309 370
#     4  10  21  41  65  90 130 161 209 258 314 370
#     4  12  22  42  64  94 132 164 206 264 310 374
#
# _framework density 18.308997999999999
#
# number of rings (size 3 to 8) (size 9 to 14) (size 15 to 20)
#    0.857    0.286    4.286    2.571    2.000    2.286 
#    0.000    2.857    0.000    0.000    0.000    0.000 
#    0.000    0.000    0.000    0.000    0.000    0.000 
#
# Total GULP energy -156224.713165 kJ/mol
# GULP energy per Si atom -5579.454042 kJ/mol
# Density = 1.826733 g / cm^3
# Si number density = 18.308998 Si / 1000 Ang^3
#
#
#
# Elastic Constant Matrix: (Units=GPa)
#
#
# Indices 1 2 3 4 5 6 
#
# 1 84.6084 33.0848 8.9890 0.0000 0.0000 0.0000
# 2 33.0848 143.6773 32.2464 0.0000 0.0000 0.0000
# 3 8.9890 32.2464 89.8785 0.0000 0.0000 0.0000
# 4 0.0000 0.0000 0.0000 22.0439 0.0000 0.0000
# 5 0.0000 0.0000 0.0000 0.0000 -4.0053 0.0000
# 6 0.0000 0.0000 0.0000 0.0000 0.0000 28.4608
#
#
#
# Elastic Compliance Matrix: (Units=1/GPa)
#
#
# Indices 1 2 3 4 5 6 
#
# 1 0.012994 -0.002937 -0.000246 0.000000 0.000000 0.000000
# 2 -0.002937 0.008233 -0.002660 0.000000 0.000000 0.000000
# 3 -0.000246 -0.002660 0.012105 0.000000 0.000000 0.000000
# 4 0.000000 0.000000 0.000000 0.045364 0.000000 0.000000
# 5 0.000000 0.000000 0.000000 0.000000 -0.249671 0.000000
# 6 0.000000 0.000000 0.000000 0.000000 0.000000 0.035136
#
#
# Mechanical properties :
#
#
# Convention : Reuss Voigt Hill
#
# Bulk Modulus (GPa) = 46.19727 51.86717 49.03222
# Shear Modulus (GPa) = -42.75779 25.55615 -8.60082
#
# Velocity S-wave (km/s) = -4.83778 3.74013 -2.16974
# Velocity P-wave (km/s) = 2.43284 6.85869 4.53448
#
# Compressibility (1/GPa) = 0.02164630
#
# Stress axis : x y z
#
# Youngs Moduli (GPa) = 76.96032 121.45680 82.60945
#
# Poissons Ratio (x) = 0.35671 0.02031
# Poissons Ratio (y) = 0.22603 0.21976
# Poissons Ratio (z) = 0.01892 0.32310
#
# Static dielectric constant tensor:
#      x y z
#    x 1.633800 0.000000 0.000000 
#    y 0.000000 1.601300 0.000000 
#    z 0.000000 0.000000 1.600460 
# 
# From -- ./inp_files/22566.got.cif
#   From: 2010.05.17/outbox.cif.g08.bks.cpg/sg67_12_cif.got.tgz:22566.got - 2010.06.03 18:28:57.
