data_PCOD9504917
_publ_section_title
;
Structure prediction by ZEFSAII (Michael W. Deem and Ramdas Pophale) SiO2 
 PCOD9504917
Probable space group: C M M A
;
_chemical_formula_sum "Si O2"
_cell_formula_units_Z 56
_cell_length_a 21.949876
_cell_length_b 14.425856
_cell_length_c 9.572989
_cell_angle_alpha 90.000000
_cell_angle_beta 90.000000
_cell_angle_gamma 90.000000
_cell_volume 3031.246285
_symmetry_space_group_name_H-M "C M M A"
_symmetry_group_IT_number 67
_symmetry_cell_setting 'orthorhombic'
loop_
_space_group_symop_operation_xyz
x,y,z
-x,1/2-y,z
x,-y,-z
-x,1/2+y,-z
-x,-y,-z
x,1/2+y,-z
-x,y,z
x,1/2-y,z
1/2+x,1/2+y,z
1/2-x,-y,z
1/2+x,1/2-y,-z
1/2-x,y,-z
1/2-x,1/2-y,-z
1/2+x,y,-z
1/2-x,1/2+y,z
1/2+x,-y,z
loop_
_atom_site_type_symbol
_atom_site_label
_atom_site_fract_x
_atom_site_fract_y
_atom_site_fract_z
Si Si1 0.821536 0.988249 0.725583
Si Si2 0.600249 0.500000 0.000000
Si Si3 0.000000 0.638607 0.111385
Si Si4 0.000000 0.104972 0.554864
Si Si5 0.637150 0.645633 0.514453
O O1 0.846109 0.078944 0.643489
O O2 0.750000 0.000000 0.749609
O O3 0.834229 0.903168 0.620797
O O4 0.858380 0.976522 0.867425
O O5 0.557659 0.586946 0.957844
O O6 0.000000 0.615101 0.277048
O O7 0.000000 0.750000 0.095075
O O8 0.936261 0.145886 0.502145
O O9 0.000000 0.000000 0.500000
O O10 0.658930 0.750000 0.534543
#
# Coordination Sequence:
#
# PCOD9504917 Si02
#       5
#    16   8   8   8  16
#     4  11  24  41  61  88 124 166 212 257 302 365
#     4  11  23  42  64  90 125 165 208 254 310 385
#     4  11  23  40  64  93 127 163 201 261 323 373
#     4  12  19  38  65  95 124 156 202 256 322 374
#     4  11  22  39  64  91 122 160 205 259 316 370
#
# _framework density 18.474250000000001
#
# number of rings (size 3 to 8) (size 9 to 14) (size 15 to 20)
#    0.000    0.857    5.714    3.429    0.000    4.571 
#    0.000    0.000    0.000    5.143    0.000    0.000 
#    0.000    0.000    0.000    0.000    0.000    0.000 
#
# Total GULP energy -156460.351156 kJ/mol
# GULP energy per Si atom -5587.869684 kJ/mol
# Density = 1.843220 g / cm^3
# Si number density = 18.474250 Si / 1000 Ang^3
#
#
#
# Elastic Constant Matrix: (Units=GPa)
#
#
# Indices 1 2 3 4 5 6 
#
# 1 129.7337 13.7737 34.0319 0.0000 0.0000 0.0000
# 2 13.7737 135.0188 23.7581 0.0000 0.0000 0.0000
# 3 34.0319 23.7581 105.9733 0.0000 0.0000 0.0000
# 4 0.0000 0.0000 0.0000 2.3682 0.0000 0.0000
# 5 0.0000 0.0000 0.0000 0.0000 70.8292 0.0000
# 6 0.0000 0.0000 0.0000 0.0000 0.0000 -19.6415
#
#
#
# Elastic Compliance Matrix: (Units=1/GPa)
#
#
# Indices 1 2 3 4 5 6 
#
# 1 0.008438 -0.000400 -0.002620 0.000000 0.000000 0.000000
# 2 -0.000400 0.007729 -0.001604 0.000000 0.000000 0.000000
# 3 -0.002620 -0.001604 0.010637 0.000000 0.000000 0.000000
# 4 0.000000 0.000000 0.000000 0.422255 0.000000 0.000000
# 5 0.000000 0.000000 0.000000 0.000000 0.014118 0.000000
# 6 0.000000 0.000000 0.000000 0.000000 0.000000 -0.050913
#
#
# Mechanical properties :
#
#
# Convention : Reuss Voigt Hill
#
# Bulk Modulus (GPa) = 56.96012 57.09480 57.02746
# Shear Modulus (GPa) = 11.69956 30.65532 21.17744
#
# Velocity S-wave (km/s) = 2.51926 4.07794 3.38941
# Velocity P-wave (km/s) = 6.27386 7.29006 6.80096
#
# Compressibility (1/GPa) = 0.01755614
#
# Stress axis : x y z
#
# Youngs Moduli (GPa) = 118.51368 129.37477 94.00747
#
# Poissons Ratio (x) = 0.05172 0.24631
# Poissons Ratio (y) = 0.04737 0.15083
# Poissons Ratio (z) = 0.31052 0.20758
#
# Static dielectric constant tensor:
#      x y z
#    x 1.648140 0.000000 0.000000 
#    y 0.000000 1.642820 0.000000 
#    z 0.000000 0.000000 1.609790 
# 
# From -- ./inp_files/7707.got.cif
#   From: 2010.05.17/outbox.cif.g08.bks.cpg/sg67_4_cif.got.tgz:7707.got - 2010.06.03 18:28:57.
