data_PCOD9504855
_publ_section_title
;
Structure prediction by ZEFSAII (Michael W. Deem and Ramdas Pophale) SiO2 
 PCOD9504855
Probable space group: C M M A
;
_chemical_formula_sum "Si O2"
_cell_formula_units_Z 84
_cell_length_a 14.565809
_cell_length_b 19.177314
_cell_length_c 16.813081
_cell_angle_alpha 90.000000
_cell_angle_beta 90.000000
_cell_angle_gamma 90.000000
_cell_volume 4696.449916
_symmetry_space_group_name_H-M "C M M A"
_symmetry_group_IT_number 67
_symmetry_cell_setting 'orthorhombic'
loop_
_space_group_symop_operation_xyz
x,y,z
-x,1/2-y,z
x,-y,-z
-x,1/2+y,-z
-x,-y,-z
x,1/2+y,-z
-x,y,z
x,1/2-y,z
1/2+x,1/2+y,z
1/2-x,-y,z
1/2+x,1/2-y,-z
1/2-x,y,-z
1/2-x,1/2-y,-z
1/2+x,y,-z
1/2-x,1/2+y,z
1/2+x,-y,z
loop_
_atom_site_type_symbol
_atom_site_label
_atom_site_fract_x
_atom_site_fract_y
_atom_site_fract_z
Si Si1 0.103736 0.084400 0.503643
Si Si2 0.900026 0.833179 0.095663
Si Si3 0.752008 0.415706 0.367380
Si Si4 0.250000 0.500000 0.000000
Si Si5 0.894220 0.600623 0.923668
Si Si6 0.272204 0.333790 0.796332
O O1 0.164851 0.103209 0.427264
O O2 0.159783 0.102716 0.583334
O O3 0.000000 0.111133 0.502278
O O4 0.100602 0.000000 0.500000
O O5 0.902335 0.750000 0.101163
O O6 0.815310 0.855545 0.149409
O O7 0.000000 0.861241 0.121288
O O8 0.887908 0.852713 0.003559
O O9 0.750000 0.500000 0.354987
O O10 0.763715 0.374202 0.286281
O O11 0.180021 0.458593 0.057001
O O12 0.860844 0.642769 0.846865
O O13 0.000000 0.576694 0.916335
O O14 0.271486 0.250000 0.786039
#
# Coordination Sequence:
#
# PCOD9504855 Si02
#       6
#    16  16  16   4  16  16
#     4   8  15  33  57  79 104 140 183 227 280 339
#     4   9  18  35  57  77 101 144 196 234 273 330
#     4   9  19  33  55  82 109 140 182 233 282 339
#     4  12  22  40  58  82 112 146 196 248 280 330
#     4  11  23  38  58  81 110 150 192 236 285 333
#     4  11  22  36  55  82 118 153 187 234 289 343
#
# _framework density 17.885850000000001
#
# number of rings (size 3 to 8) (size 9 to 14) (size 15 to 20)
#    0.000    2.286    1.905    2.000    1.333    4.190 
#    0.000    1.905    0.000    1.143    0.000    0.000 
#    0.000    0.000    0.000    0.000    0.000    0.000 
#
# Total GULP energy -234091.901711 kJ/mol
# GULP energy per Si atom -5573.616707 kJ/mol
# Density = 1.784514 g / cm^3
# Si number density = 17.885850 Si / 1000 Ang^3
#
#
#
# Elastic Constant Matrix: (Units=GPa)
#
#
# Indices 1 2 3 4 5 6 
#
# 1 159.9065 38.9488 72.4096 0.0000 0.0000 0.0000
# 2 38.9488 45.6053 42.9422 0.0000 0.0000 0.0000
# 3 72.4096 42.9422 132.9236 0.0000 0.0000 0.0000
# 4 0.0000 0.0000 0.0000 140.3307 0.0000 0.0000
# 5 0.0000 0.0000 0.0000 0.0000 8.6008 0.0000
# 6 0.0000 0.0000 0.0000 0.0000 0.0000 47.3166
#
#
#
# Elastic Compliance Matrix: (Units=1/GPa)
#
#
# Indices 1 2 3 4 5 6 
#
# 1 0.008862 -0.004345 -0.003424 0.000000 0.000000 0.000000
# 2 -0.004345 0.033643 -0.008502 0.000000 0.000000 0.000000
# 3 -0.003424 -0.008502 0.012135 0.000000 0.000000 0.000000
# 4 0.000000 0.000000 0.000000 0.007126 0.000000 0.000000
# 5 0.000000 0.000000 0.000000 0.000000 0.116268 0.000000
# 6 0.000000 0.000000 0.000000 0.000000 0.000000 0.021134
#
#
# Mechanical properties :
#
#
# Convention : Reuss Voigt Hill
#
# Bulk Modulus (GPa) = 45.25068 71.89294 58.57181
# Shear Modulus (GPa) = 20.91371 51.52529 36.21950
#
# Velocity S-wave (km/s) = 3.42320 5.37312 4.50492
# Velocity P-wave (km/s) = 6.40148 8.87561 7.73807
#
# Compressibility (1/GPa) = 0.02209911
#
# Stress axis : x y z
#
# Youngs Moduli (GPa) = 112.83556 29.72351 82.40550
#
# Poissons Ratio (x) = 0.12914 0.28217
# Poissons Ratio (y) = 0.49023 0.70062
# Poissons Ratio (z) = 0.38637 0.25271
#
# Static dielectric constant tensor:
#      x y z
#    x 1.636630 0.000000 0.000000 
#    y 0.000000 1.619130 0.000000 
#    z 0.000000 0.000000 1.576410 
# 
# From -- ./inp_files/27056.got.cif
#   From: 2010.05.17/outbox.cif.g08.bks.cpg/sg67_14_cif.got.tgz:27056.got - 2010.06.03 18:28:57.
