data_PCOD9504945
_publ_section_title
;
Structure prediction by ZEFSAII (Michael W. Deem and Ramdas Pophale) SiO2 
 PCOD9504945
Probable space group: C M M A
;
_chemical_formula_sum "Si O2"
_cell_formula_units_Z 56
_cell_length_a 11.787578
_cell_length_b 14.628354
_cell_length_c 15.879745
_cell_angle_alpha 90.000000
_cell_angle_beta 90.000000
_cell_angle_gamma 90.000000
_cell_volume 2738.189907
_symmetry_space_group_name_H-M "C M M A"
_symmetry_group_IT_number 67
_symmetry_cell_setting 'orthorhombic'
loop_
_space_group_symop_operation_xyz
x,y,z
-x,1/2-y,z
x,-y,-z
-x,1/2+y,-z
-x,-y,-z
x,1/2+y,-z
-x,y,z
x,1/2-y,z
1/2+x,1/2+y,z
1/2-x,-y,z
1/2+x,1/2-y,-z
1/2-x,y,-z
1/2-x,1/2-y,-z
1/2+x,y,-z
1/2-x,1/2+y,z
1/2+x,-y,z
loop_
_atom_site_type_symbol
_atom_site_label
_atom_site_fract_x
_atom_site_fract_y
_atom_site_fract_z
Si Si1 0.798455 0.400604 0.325469
Si Si2 0.500000 0.141567 0.795819
Si Si3 0.364073 0.250000 0.261506
Si Si4 0.000000 0.607408 0.996468
Si Si5 0.372523 0.250000 0.546864
Si Si6 0.161500 0.750000 0.071430
O O1 0.750000 0.500000 0.347691
O O2 0.887367 0.401880 0.246975
O O3 0.688622 0.338610 0.305017
O O4 0.864086 0.341915 0.396411
O O5 0.500000 0.250000 0.774983
O O6 0.500000 0.134209 0.897499
O O7 0.500000 0.250000 0.255990
O O8 0.311054 0.250000 0.168205
O O9 0.000000 0.500000 0.000000
O O10 0.900845 0.655683 0.048619
O O11 0.500000 0.250000 0.505670
O O12 0.250000 0.250000 0.500000
O O13 0.250000 0.750000 0.000000
#
# Coordination Sequence:
#
# PCOD9504945 Si02
#       6
#    16   8   8   8   8   8
#     4  11  25  42  72 100 129 183 227 271 341 415
#     4  12  20  47  67  87 133 185 240 276 334 423
#     4  11  23  39  60  93 136 166 221 296 336 394
#     4  11  25  38  59  91 125 178 227 283 347 390
#     4  11  24  50  76 108 147 183 222 281 345 422
#     4  11  22  41  55  82 126 168 223 283 349 397
#
# _framework density 20.451466
#
# number of rings (size 3 to 8) (size 9 to 14) (size 15 to 20)
#    0.000    0.857    7.143    1.714    6.000    3.429 
#    0.000    1.429    0.000    0.000    0.000    0.000 
#    0.000    0.000    0.000    0.000    0.000    0.000 
#
# Total GULP energy -156026.389907 kJ/mol
# GULP energy per Si atom -5572.371068 kJ/mol
# Density = 2.040492 g / cm^3
# Si number density = 20.451466 Si / 1000 Ang^3
#
#
#
# Elastic Constant Matrix: (Units=GPa)
#
#
# Indices 1 2 3 4 5 6 
#
# 1 75.9614 20.1298 4.1516 0.0000 0.0000 0.0000
# 2 20.1298 170.2933 7.6055 0.0000 0.0000 0.0000
# 3 4.1516 7.6055 44.2617 0.0000 0.0000 0.0000
# 4 0.0000 0.0000 0.0000 11.9318 0.0000 0.0000
# 5 0.0000 0.0000 0.0000 0.0000 23.8316 0.0000
# 6 0.0000 0.0000 0.0000 0.0000 0.0000 7.7142
#
#
#
# Elastic Compliance Matrix: (Units=1/GPa)
#
#
# Indices 1 2 3 4 5 6 
#
# 1 0.013635 -0.001567 -0.001010 0.000000 0.000000 0.000000
# 2 -0.001567 0.006098 -0.000901 0.000000 0.000000 0.000000
# 3 -0.001010 -0.000901 0.022842 0.000000 0.000000 0.000000
# 4 0.000000 0.000000 0.000000 0.083809 0.000000 0.000000
# 5 0.000000 0.000000 0.000000 0.000000 0.041961 0.000000
# 6 0.000000 0.000000 0.000000 0.000000 0.000000 0.129631
#
#
# Mechanical properties :
#
#
# Convention : Reuss Voigt Hill
#
# Bulk Modulus (GPa) = 28.07364 39.36558 33.71961
# Shear Modulus (GPa) = 15.78262 25.93750 20.86006
#
# Velocity S-wave (km/s) = 2.78098 3.56511 3.19718
# Velocity P-wave (km/s) = 4.90597 6.01970 5.49114
#
# Compressibility (1/GPa) = 0.03562061
#
# Stress axis : x y z
#
# Youngs Moduli (GPa) = 73.34111 163.99788 43.77826
#
# Poissons Ratio (x) = 0.25693 0.04420
# Poissons Ratio (y) = 0.11490 0.03944
# Poissons Ratio (z) = 0.07405 0.14773
#
# Static dielectric constant tensor:
#      x y z
#    x 1.775640 0.000000 0.000000 
#    y 0.000000 1.804910 0.000000 
#    z 0.000000 0.000000 1.731140 
# 
# From -- ./inp_files/25609.got.cif
#   From: 2010.05.17/outbox.cif.g08.bks.cpg/sg67_13_cif.got.tgz:25609.got - 2010.06.03 18:28:57.
