data_PCOD9504886
_publ_section_title
;
Structure prediction by ZEFSAII (Michael W. Deem and Ramdas Pophale) SiO2 
 PCOD9504886
Probable space group: C M M A
;
_chemical_formula_sum "Si O2"
_cell_formula_units_Z 96
_cell_length_a 15.954321
_cell_length_b 19.421615
_cell_length_c 16.382300
_cell_angle_alpha 90.000000
_cell_angle_beta 90.000000
_cell_angle_gamma 90.000000
_cell_volume 5076.197854
_symmetry_space_group_name_H-M "C M M A"
_symmetry_group_IT_number 67
_symmetry_cell_setting 'orthorhombic'
loop_
_space_group_symop_operation_xyz
x,y,z
-x,1/2-y,z
x,-y,-z
-x,1/2+y,-z
-x,-y,-z
x,1/2+y,-z
-x,y,z
x,1/2-y,z
1/2+x,1/2+y,z
1/2-x,-y,z
1/2+x,1/2-y,-z
1/2-x,y,-z
1/2-x,1/2-y,-z
1/2+x,y,-z
1/2-x,1/2+y,z
1/2+x,-y,z
loop_
_atom_site_type_symbol
_atom_site_label
_atom_site_fract_x
_atom_site_fract_y
_atom_site_fract_z
Si Si1 0.397805 0.105848 0.449684
Si Si2 0.195507 0.069299 0.223340
Si Si3 0.843000 0.077706 0.034111
Si Si4 0.500000 0.331536 0.023211
Si Si5 0.000000 0.168714 0.782298
Si Si6 0.900604 0.953474 0.614939
Si Si7 0.169131 0.669525 0.296855
O O1 0.500000 0.116827 0.444344
O O2 0.371724 0.099528 0.544400
O O3 0.347237 0.157863 0.392856
O O4 0.376583 0.030657 0.411946
O O5 0.161601 0.078663 0.132233
O O6 0.127704 0.061334 0.294308
O O7 0.254878 0.130074 0.255461
O O8 0.250000 0.000000 0.221828
O O9 0.750000 0.096605 0.000000
O O10 0.916578 0.129049 0.006778
O O11 0.859590 0.000000 0.000000
O O12 0.500000 0.250000 0.001515
O O13 0.500000 0.336773 0.121193
O O14 0.915738 0.139348 0.744058
O O15 0.000000 0.250000 0.760439
O O16 0.000000 0.952075 0.609637
O O17 0.176506 0.750000 0.279063
#
# Coordination Sequence:
#
# PCOD9504886 Si02
#       7
#    16  16  16   8   8  16  16
#     4   9  17  35  58  86 119 154 196 252 304 364
#     4  12  23  39  62  90 122 164 208 258 314 368
#     4  11  24  44  65  96 132 166 216 275 328 389
#     4  11  25  43  67  96 127 172 216 262 334 400
#     4   9  20  37  61  91 119 153 198 247 305 369
#     4   9  20  36  59  86 116 157 205 246 302 366
#     4  11  22  37  61  93 126 161 203 255 312 370
#
# _framework density 18.911791999999998
#
# number of rings (size 3 to 8) (size 9 to 14) (size 15 to 20)
#    0.000    1.667    4.167    2.250    1.167    1.667 
#    0.000    1.667    0.000    1.000    0.000    0.000 
#    0.000    0.000    0.000    0.000    0.000    0.000 
#
# Total GULP energy -267850.891349 kJ/mol
# GULP energy per Si atom -5580.226903 kJ/mol
# Density = 1.886875 g / cm^3
# Si number density = 18.911792 Si / 1000 Ang^3
#
#
#
# Elastic Constant Matrix: (Units=GPa)
#
#
# Indices 1 2 3 4 5 6 
#
# 1 37.5758 32.6694 9.1165 0.0000 0.0000 0.0000
# 2 32.6694 71.1541 10.3075 0.0000 0.0000 0.0000
# 3 9.1165 10.3075 105.7165 0.0000 0.0000 0.0000
# 4 0.0000 0.0000 0.0000 11.1608 0.0000 0.0000
# 5 0.0000 0.0000 0.0000 0.0000 44.7673 0.0000
# 6 0.0000 0.0000 0.0000 0.0000 0.0000 16.3673
#
#
#
# Elastic Compliance Matrix: (Units=1/GPa)
#
#
# Indices 1 2 3 4 5 6 
#
# 1 0.044659 -0.020232 -0.001879 0.000000 0.000000 0.000000
# 2 -0.020232 0.023422 -0.000539 0.000000 0.000000 0.000000
# 3 -0.001879 -0.000539 0.009674 0.000000 0.000000 0.000000
# 4 0.000000 0.000000 0.000000 0.089599 0.000000 0.000000
# 5 0.000000 0.000000 0.000000 0.000000 0.022338 0.000000
# 6 0.000000 0.000000 0.000000 0.000000 0.000000 0.061098
#
#
# Mechanical properties :
#
#
# Convention : Reuss Voigt Hill
#
# Bulk Modulus (GPa) = 30.81210 35.40369 33.10790
# Shear Modulus (GPa) = 16.29158 25.28261 20.78709
#
# Velocity S-wave (km/s) = 2.93823 3.66029 3.31896
# Velocity P-wave (km/s) = 5.27625 6.05183 5.67730
#
# Compressibility (1/GPa) = 0.03245478
#
# Stress axis : x y z
#
# Youngs Moduli (GPa) = 22.39179 42.69581 103.37202
#
# Poissons Ratio (x) = 0.86384 0.19418
# Poissons Ratio (y) = 0.45304 0.05571
# Poissons Ratio (z) = 0.04206 0.02301
#
# Static dielectric constant tensor:
#      x y z
#    x 1.687670 0.000000 0.000000 
#    y 0.000000 1.642030 0.000000 
#    z 0.000000 0.000000 1.693370 
# 
# From -- ./inp_files/27286.got.cif
#   From: 2010.05.17/outbox.cif.g08.bks.cpg/sg67_14_cif.got.tgz:27286.got - 2010.06.03 18:28:57.
