data_PCOD9504639
_publ_section_title
;
Structure prediction by ZEFSAII (Michael W. Deem and Ramdas Pophale) SiO2 
 PCOD9504639
Probable space group: C M M A
;
_chemical_formula_sum "Si O2"
_cell_formula_units_Z 112
_cell_length_a 14.880766
_cell_length_b 14.542708
_cell_length_c 24.138871
_cell_angle_alpha 90.000000
_cell_angle_beta 90.000000
_cell_angle_gamma 90.000000
_cell_volume 5223.811840
_symmetry_space_group_name_H-M "C M M A"
_symmetry_group_IT_number 67
_symmetry_cell_setting 'orthorhombic'
loop_
_space_group_symop_operation_xyz
x,y,z
-x,1/2-y,z
x,-y,-z
-x,1/2+y,-z
-x,-y,-z
x,1/2+y,-z
-x,y,z
x,1/2-y,z
1/2+x,1/2+y,z
1/2-x,-y,z
1/2+x,1/2-y,-z
1/2-x,y,-z
1/2-x,1/2-y,-z
1/2+x,y,-z
1/2-x,1/2+y,z
1/2+x,-y,z
loop_
_atom_site_type_symbol
_atom_site_label
_atom_site_fract_x
_atom_site_fract_y
_atom_site_fract_z
Si Si1 0.898423 0.505392 0.605126
Si Si2 0.850561 0.494525 0.272510
Si Si3 0.253657 0.142961 0.433373
Si Si4 0.895890 0.362398 0.936601
Si Si5 0.891574 0.146206 0.816725
Si Si6 0.891525 0.857280 0.823860
Si Si7 0.609312 0.358756 0.944353
O O1 0.906044 0.508799 0.671700
O O2 0.836567 0.591780 0.587403
O O3 0.839607 0.416189 0.587267
O O4 0.000000 0.505553 0.581928
O O5 0.750000 0.500000 0.293652
O O6 0.869940 0.581560 0.233915
O O7 0.858731 0.410755 0.229619
O O8 0.258033 0.250000 0.416051
O O9 0.250000 0.139258 0.500000
O O10 0.896994 0.250000 0.937215
O O11 0.856334 0.386614 0.876857
O O12 0.000000 0.394005 0.936390
O O13 0.857445 0.392751 0.995822
O O14 0.859966 0.250000 0.807450
O O15 0.000000 0.148442 0.822033
O O16 0.867623 0.750000 0.820959
O O17 0.862480 0.895486 0.884330
O O18 0.000000 0.863902 0.823428
O O19 0.500000 0.364788 0.946201
O O20 0.631271 0.250000 0.942615
#
# Coordination Sequence:
#
# PCOD9504639 Si02
#       7
#    16  16  16  16  16  16  16
#     4  11  23  43  69  99 138 185 230 271 318 376
#     4  12  24  39  55  78 118 163 205 254 307 365
#     4  10  23  45  72 107 147 180 217 267 319 374
#     4   7  10  20  42  71  99 127 168 232 307 374
#     4   9  18  33  54  79 105 139 190 250 310 374
#     4   9  18  33  54  79 105 139 190 250 310 374
#     4   7  10  20  42  71  99 127 168 232 307 374
#
# _framework density 21.440280999999999
#
# number of rings (size 3 to 8) (size 9 to 14) (size 15 to 20)
#    0.000    2.714    1.429    4.714    0.000    3.429 
#    0.000    2.143    0.000    5.143    0.000    4.000 
#    0.000    0.000    0.000    0.000    0.000    0.000 
#
# Total GULP energy -312396.360251 kJ/mol
# GULP energy per Si atom -5578.506433 kJ/mol
# Density = 2.139148 g / cm^3
# Si number density = 21.440281 Si / 1000 Ang^3
#
#
#
# Elastic Constant Matrix: (Units=GPa)
#
#
# Indices 1 2 3 4 5 6 
#
# 1 107.0670 9.6068 16.8736 0.0000 0.0000 0.0000
# 2 9.6068 82.0820 30.4215 0.0000 0.0000 0.0000
# 3 16.8736 30.4215 122.2893 0.0000 0.0000 0.0000
# 4 0.0000 0.0000 0.0000 -248.4202 0.0000 0.0000
# 5 0.0000 0.0000 0.0000 0.0000 25.0498 0.0000
# 6 0.0000 0.0000 0.0000 0.0000 0.0000 12.9169
#
#
#
# Elastic Compliance Matrix: (Units=1/GPa)
#
#
# Indices 1 2 3 4 5 6 
#
# 1 0.009583 -0.000696 -0.001149 0.000000 0.000000 0.000000
# 2 -0.000696 0.013471 -0.003255 0.000000 0.000000 0.000000
# 3 -0.001149 -0.003255 0.009146 0.000000 0.000000 0.000000
# 4 0.000000 0.000000 0.000000 -0.004025 0.000000 0.000000
# 5 0.000000 0.000000 0.000000 0.000000 0.039921 0.000000
# 6 0.000000 0.000000 0.000000 0.000000 0.000000 0.077418
#
#
# Mechanical properties :
#
#
# Convention : Reuss Voigt Hill
#
# Bulk Modulus (GPa) = 45.45495 47.24915 46.35205
# Shear Modulus (GPa) = 30.66611 -25.12161 2.77225
#
# Velocity S-wave (km/s) = 3.78604 -3.42673 1.13834
# Velocity P-wave (km/s) = 6.35286 2.53551 4.83672
#
# Compressibility (1/GPa) = 0.02199981
#
# Stress axis : x y z
#
# Youngs Moduli (GPa) = 104.34609 74.23482 109.34143
#
# Poissons Ratio (x) = 0.05164 0.12566
# Poissons Ratio (y) = 0.07259 0.35592
# Poissons Ratio (z) = 0.11992 0.24164
#
# Static dielectric constant tensor:
#      x y z
#    x 1.818850 0.000000 0.000000 
#    y 0.000000 1.807960 0.000000 
#    z 0.000000 0.000000 1.798630 
# 
# From -- ./inp_files/42010.got.cif
#   From: 2010.05.17/outbox.cif.g08.bks.cpg/sg67_22_cif.got.tgz:42010.got - 2010.06.03 18:28:57.
