data_PCOD9504646
_publ_section_title
;
Structure prediction by ZEFSAII (Michael W. Deem and Ramdas Pophale) SiO2 
 PCOD9504646
Probable space group: C M M A
;
_chemical_formula_sum "Si O2"
_cell_formula_units_Z 68
_cell_length_a 24.483609
_cell_length_b 27.197896
_cell_length_c 5.066253
_cell_angle_alpha 90.000000
_cell_angle_beta 90.000000
_cell_angle_gamma 90.000000
_cell_volume 3373.631305
_symmetry_space_group_name_H-M "C M M A"
_symmetry_group_IT_number 67
_symmetry_cell_setting 'orthorhombic'
loop_
_space_group_symop_operation_xyz
x,y,z
-x,1/2-y,z
x,-y,-z
-x,1/2+y,-z
-x,-y,-z
x,1/2+y,-z
-x,y,z
x,1/2-y,z
1/2+x,1/2+y,z
1/2-x,-y,z
1/2+x,1/2-y,-z
1/2-x,y,-z
1/2-x,1/2-y,-z
1/2+x,y,-z
1/2-x,1/2+y,z
1/2+x,-y,z
loop_
_atom_site_type_symbol
_atom_site_label
_atom_site_fract_x
_atom_site_fract_y
_atom_site_fract_z
Si Si1 0.000000 0.250000 0.129458
Si Si2 0.288280 0.932633 0.744797
Si Si3 0.415977 0.250000 0.370455
Si Si4 0.879424 0.857020 0.293716
Si Si5 0.434919 0.095937 0.795459
Si Si6 0.623682 0.000000 0.000000
O O1 0.046767 0.250000 0.893008
O O2 0.047179 0.250000 0.365572
O O3 0.250000 0.943781 0.500000
O O4 0.319949 0.881484 0.704326
O O5 0.250000 0.931416 0.000000
O O6 0.336148 0.971888 0.798902
O O7 0.381552 0.300030 0.360507
O O8 0.915393 0.886051 0.510757
O O9 0.907272 0.868696 0.012470
O O10 0.500000 0.098461 0.816474
O O11 0.412634 0.041452 0.859275
#
# Coordination Sequence:
#
# PCOD9504646 Si02
#       6
#     4  16   8  16  16   8
#     4  10  24  34  68  92 120 166 212 238 308 366
#     4  11  24  43  65  92 120 165 214 269 319 367
#     4  11  24  42  62  97 130 161 214 254 305 368
#     4  11  25  41  63  93 130 163 214 260 311 374
#     4  11  24  40  62  93 131 173 202 253 316 383
#     4  10  24  42  64  94 126 164 216 264 312 376
#
# _framework density 20.156320000000001
#
# number of rings (size 3 to 8) (size 9 to 14) (size 15 to 20)
#    0.000    1.176    0.000    5.647    9.882   11.294 
#    0.000    7.059    0.000    0.000    0.000    0.000 
#    0.000    0.000    0.000    0.000    0.000    0.000 
#
# Total GULP energy -189777.348624 kJ/mol
# GULP energy per Si atom -5581.686724 kJ/mol
# Density = 2.011044 g / cm^3
# Si number density = 20.156320 Si / 1000 Ang^3
#
#
#
# Elastic Constant Matrix: (Units=GPa)
#
#
# Indices 1 2 3 4 5 6 
#
# 1 72.3828 11.2360 11.1602 0.0000 0.0000 0.0000
# 2 11.2360 109.3280 -12.0052 0.0000 0.0000 0.0000
# 3 11.1602 -12.0052 112.5348 0.0000 0.0000 0.0000
# 4 0.0000 0.0000 0.0000 11.8403 0.0000 0.0000
# 5 0.0000 0.0000 0.0000 0.0000 21.9558 0.0000
# 6 0.0000 0.0000 0.0000 0.0000 0.0000 -24.8837
#
#
#
# Elastic Compliance Matrix: (Units=1/GPa)
#
#
# Indices 1 2 3 4 5 6 
#
# 1 0.014317 -0.001647 -0.001596 0.000000 0.000000 0.000000
# 2 -0.001647 0.009445 0.001171 0.000000 0.000000 0.000000
# 3 -0.001596 0.001171 0.009169 0.000000 0.000000 0.000000
# 4 0.000000 0.000000 0.000000 0.084457 0.000000 0.000000
# 5 0.000000 0.000000 0.000000 0.000000 0.045546 0.000000
# 6 0.000000 0.000000 0.000000 0.000000 0.000000 -0.040187
#
#
# Mechanical properties :
#
#
# Convention : Reuss Voigt Hill
#
# Bulk Modulus (GPa) = 34.73624 35.00306 34.86965
# Shear Modulus (GPa) = 36.63382 20.70612 28.66997
#
# Velocity S-wave (km/s) = 4.26782 3.20859 3.77554
# Velocity P-wave (km/s) = 6.44644 5.57945 6.02855
#
# Compressibility (1/GPa) = 0.02878838
#
# Stress axis : x y z
#
# Youngs Moduli (GPa) = 69.84680 105.88077 109.05988
#
# Poissons Ratio (x) = 0.17434 0.17401
# Poissons Ratio (y) = 0.11501 -0.12769
# Poissons Ratio (z) = 0.11144 -0.12397
#
# Static dielectric constant tensor:
#      x y z
#    x 1.667810 0.000000 0.000000 
#    y 0.000000 1.750300 0.000000 
#    z 0.000000 0.000000 1.684760 
# 
# From -- ./inp_files/2936.got.cif
#   From: 2010.05.17/outbox.cif.g08.bks.cpg/sg67_2_cif.got.tgz:2936.got - 2010.06.03 18:28:57.
