data_PCOD9504076
_publ_section_title
;
Structure prediction by ZEFSAII (Michael W. Deem and Ramdas Pophale) SiO2 
 PCOD9504076
Probable space group: C M M A
;
_chemical_formula_sum "Si O2"
_cell_formula_units_Z 116
_cell_length_a 26.241144
_cell_length_b 23.725044
_cell_length_c 9.550382
_cell_angle_alpha 90.000000
_cell_angle_beta 90.000000
_cell_angle_gamma 90.000000
_cell_volume 5945.803250
_symmetry_space_group_name_H-M "C M M A"
_symmetry_group_IT_number 67
_symmetry_cell_setting 'orthorhombic'
loop_
_space_group_symop_operation_xyz
x,y,z
-x,1/2-y,z
x,-y,-z
-x,1/2+y,-z
-x,-y,-z
x,1/2+y,-z
-x,y,z
x,1/2-y,z
1/2+x,1/2+y,z
1/2-x,-y,z
1/2+x,1/2-y,-z
1/2-x,y,-z
1/2-x,1/2-y,-z
1/2+x,y,-z
1/2-x,1/2+y,z
1/2+x,-y,z
loop_
_atom_site_type_symbol
_atom_site_label
_atom_site_fract_x
_atom_site_fract_y
_atom_site_fract_z
Si Si1 0.114463 0.994372 0.350146
Si Si2 0.557698 0.183804 0.435777
Si Si3 0.901166 0.333282 0.040960
Si Si4 0.845683 0.686796 0.236784
Si Si5 0.696378 0.401980 0.429433
Si Si6 0.880535 0.125230 0.337491
Si Si7 0.000000 0.750000 0.965316
Si Si8 0.057549 0.443957 0.906949
O O1 0.165263 0.958199 0.385763
O O2 0.084409 0.958701 0.237741
O O3 0.086918 0.000000 0.500000
O O4 0.120558 0.058714 0.300422
O O5 0.500000 0.174417 0.386149
O O6 0.561235 0.250000 0.478565
O O7 0.599748 0.175727 0.314938
O O8 0.571480 0.144538 0.567355
O O9 0.880521 0.337285 0.199016
O O10 0.953747 0.298159 0.034865
O O11 0.859613 0.314025 0.926802
O O12 0.914166 0.396106 0.991771
O O13 0.829253 0.750000 0.276144
O O14 0.807144 0.639968 0.296401
O O15 0.750000 0.415369 0.500000
O O16 0.665553 0.369490 0.552661
O O17 0.000000 0.426023 0.880100
O O18 0.057151 0.500000 0.000000
#
# Coordination Sequence:
#
# PCOD9504076 Si02
#       8
#    16  16  16  16  16  16   4  16
#     4  10  21  39  61  90 120 158 207 265 318 380
#     4   9  20  34  55  82 123 167 213 256 308 369
#     4  12  23  38  59  90 133 170 218 253 305 368
#     4  10  21  38  61  90 122 164 210 263 311 374
#     4  10  22  44  70  92 116 158 212 270 337 389
#     4  10  23  37  57  92 125 162 202 266 321 379
#     4  12  28  36  62  98 130 188 224 244 296 380
#     4  11  22  37  59  87 126 175 205 247 309 381
#
# _framework density 19.509557999999998
#
# number of rings (size 3 to 8) (size 9 to 14) (size 15 to 20)
#    0.000    1.655    4.138    0.000    2.897    3.586 
#    0.000    0.690    0.000    0.828    0.000    0.000 
#    0.000    0.000    0.000    0.000    0.000    0.000 
#
# Total GULP energy -322924.498879 kJ/mol
# GULP energy per Si atom -5567.663774 kJ/mol
# Density = 1.946515 g / cm^3
# Si number density = 19.509558 Si / 1000 Ang^3
#
#
#
# Elastic Constant Matrix: (Units=GPa)
#
#
# Indices 1 2 3 4 5 6 
#
# 1 36.7946 -7.8268 12.0631 0.0000 0.0000 0.0000
# 2 -7.8268 83.4868 15.5577 0.0000 0.0000 0.0000
# 3 12.0631 15.5577 94.4698 0.0000 0.0000 0.0000
# 4 0.0000 0.0000 0.0000 11.9106 0.0000 0.0000
# 5 0.0000 0.0000 0.0000 0.0000 12.2516 0.0000
# 6 0.0000 0.0000 0.0000 0.0000 0.0000 13.8829
#
#
#
# Elastic Compliance Matrix: (Units=1/GPa)
#
#
# Indices 1 2 3 4 5 6 
#
# 1 0.029356 0.003560 -0.004335 0.000000 0.000000 0.000000
# 2 0.003560 0.012789 -0.002561 0.000000 0.000000 0.000000
# 3 -0.004335 -0.002561 0.011561 0.000000 0.000000 0.000000
# 4 0.000000 0.000000 0.000000 0.083959 0.000000 0.000000
# 5 0.000000 0.000000 0.000000 0.000000 0.081622 0.000000
# 6 0.000000 0.000000 0.000000 0.000000 0.000000 0.072031
#
#
# Mechanical properties :
#
#
# Convention : Reuss Voigt Hill
#
# Bulk Modulus (GPa) = 21.26097 28.25992 24.76044
# Shear Modulus (GPa) = 15.94044 20.60615 18.27330
#
# Velocity S-wave (km/s) = 2.86152 3.25346 3.06377
# Velocity P-wave (km/s) = 4.67324 5.35070 5.02340
#
# Compressibility (1/GPa) = 0.04703455
#
# Stress axis : x y z
#
# Youngs Moduli (GPa) = 34.06423 78.19295 86.50046
#
# Poissons Ratio (x) = -0.27836 0.37497
# Poissons Ratio (y) = -0.12127 0.22150
# Poissons Ratio (z) = 0.14766 0.20023
#
# Static dielectric constant tensor:
#      x y z
#    x 1.672810 0.000000 0.000000 
#    y 0.000000 1.732940 0.000000 
#    z 0.000000 0.000000 1.715280 
# 
# From -- ./inp_files/14033.got.cif
#   From: 2010.05.17/outbox.cif.g08.bks.cpg/sg67_8_cif.got.tgz:14033.got - 2010.06.03 18:28:57.
