data_PCOD9504544
_publ_section_title
;
Structure prediction by ZEFSAII (Michael W. Deem and Ramdas Pophale) SiO2 
 PCOD9504544
Probable space group: C M M A
;
_chemical_formula_sum "Si O2"
_cell_formula_units_Z 40
_cell_length_a 12.171228
_cell_length_b 14.819550
_cell_length_c 10.738068
_cell_angle_alpha 90.000000
_cell_angle_beta 90.000000
_cell_angle_gamma 90.000000
_cell_volume 1936.848110
_symmetry_space_group_name_H-M "C M M A"
_symmetry_group_IT_number 67
_symmetry_cell_setting 'orthorhombic'
loop_
_space_group_symop_operation_xyz
x,y,z
-x,1/2-y,z
x,-y,-z
-x,1/2+y,-z
-x,-y,-z
x,1/2+y,-z
-x,y,z
x,1/2-y,z
1/2+x,1/2+y,z
1/2-x,-y,z
1/2+x,1/2-y,-z
1/2-x,y,-z
1/2-x,1/2-y,-z
1/2+x,y,-z
1/2-x,1/2+y,z
1/2+x,-y,z
loop_
_atom_site_type_symbol
_atom_site_label
_atom_site_fract_x
_atom_site_fract_y
_atom_site_fract_z
Si Si1 0.500000 0.250000 0.338522
Si Si2 0.747949 0.250000 0.347990
Si Si3 0.750000 0.000000 0.000000
Si Si4 0.000000 0.952486 0.370145
Si Si5 0.624446 0.587415 0.221082
O O1 0.625117 0.250000 0.287154
O O2 0.500000 0.347758 0.400312
O O3 0.750000 0.250000 0.500000
O O4 0.809402 0.339289 0.299337
O O5 0.821908 0.062573 0.090388
O O6 0.000000 0.000000 0.500000
O O7 0.103776 0.991868 0.293205
O O8 0.500000 0.622245 0.204216
#
# Coordination Sequence:
#
# PCOD9504544 Si02
#       5
#     4   8   4   8  16
#     4  12  24  38  68 110 138 186 238 296 378 452
#     4  12  25  45  76 109 149 188 250 318 391 449
#     4  12  22  46  70 110 152 204 264 300 358 452
#     4  10  22  43  71 105 148 186 249 308 383 446
#     4  10  25  44  74 103 149 201 244 312 372 446
#
# _framework density 20.65211
#
# number of rings (size 3 to 8) (size 9 to 14) (size 15 to 20)
#    1.200    0.000    0.000    6.000    2.800    0.800 
#    3.600    6.000    0.000    0.000    0.000    0.000 
#    0.000    0.000    0.000    0.000    0.000    0.000 
#
# Total GULP energy -111419.830274 kJ/mol
# GULP energy per Si atom -5570.991514 kJ/mol
# Density = 2.060510 g / cm^3
# Si number density = 20.652110 Si / 1000 Ang^3
#
#
#
# Elastic Constant Matrix: (Units=GPa)
#
#
# Indices 1 2 3 4 5 6 
#
# 1 152.6888 47.4229 52.8929 0.0000 0.0000 0.0000
# 2 47.4229 173.9583 58.0059 0.0000 0.0000 0.0000
# 3 52.8929 58.0059 147.6396 0.0000 0.0000 0.0000
# 4 0.0000 0.0000 0.0000 26.6091 0.0000 0.0000
# 5 0.0000 0.0000 0.0000 0.0000 26.3997 0.0000
# 6 0.0000 0.0000 0.0000 0.0000 0.0000 48.5277
#
#
#
# Elastic Compliance Matrix: (Units=1/GPa)
#
#
# Indices 1 2 3 4 5 6 
#
# 1 0.007749 -0.001366 -0.002240 0.000000 0.000000 0.000000
# 2 -0.001366 0.006856 -0.002204 0.000000 0.000000 0.000000
# 3 -0.002240 -0.002204 0.008442 0.000000 0.000000 0.000000
# 4 0.000000 0.000000 0.000000 0.037581 0.000000 0.000000
# 5 0.000000 0.000000 0.000000 0.000000 0.037879 0.000000
# 6 0.000000 0.000000 0.000000 0.000000 0.000000 0.020607
#
#
# Mechanical properties :
#
#
# Convention : Reuss Voigt Hill
#
# Bulk Modulus (GPa) = 87.50881 87.88111 87.69496
# Shear Modulus (GPa) = 37.16301 41.37164 39.26732
#
# Velocity S-wave (km/s) = 4.24663 4.48064 4.36520
# Velocity P-wave (km/s) = 8.15536 8.33149 8.24389
#
# Compressibility (1/GPa) = 0.01142742
#
# Stress axis : x y z
#
# Youngs Moduli (GPa) = 129.04420 145.86129 118.46010
#
# Poissons Ratio (x) = 0.19921 0.26531
# Poissons Ratio (y) = 0.17624 0.26112
# Poissons Ratio (z) = 0.28901 0.32152
#
# Static dielectric constant tensor:
#      x y z
#    x 1.792380 0.000000 0.000000 
#    y 0.000000 1.767490 0.000000 
#    z 0.000000 0.000000 1.764360 
# 
# From -- ./inp_files/6079.got.cif
#   From: 2010.05.17/outbox.cif.g08.bks.cpg/sg67_4_cif.got.tgz:6079.got - 2010.06.03 18:28:57.
