data_PCOD9504981
_publ_section_title
;
Structure prediction by ZEFSAII (Michael W. Deem and Ramdas Pophale) SiO2 
 PCOD9504981
Probable space group: C M M A
;
_chemical_formula_sum "Si O2"
_cell_formula_units_Z 96
_cell_length_a 19.018782
_cell_length_b 18.552528
_cell_length_c 14.858707
_cell_angle_alpha 90.000000
_cell_angle_beta 90.000000
_cell_angle_gamma 90.000000
_cell_volume 5242.842545
_symmetry_space_group_name_H-M "C M M A"
_symmetry_group_IT_number 67
_symmetry_cell_setting 'orthorhombic'
loop_
_space_group_symop_operation_xyz
x,y,z
-x,1/2-y,z
x,-y,-z
-x,1/2+y,-z
-x,-y,-z
x,1/2+y,-z
-x,y,z
x,1/2-y,z
1/2+x,1/2+y,z
1/2-x,-y,z
1/2+x,1/2-y,-z
1/2-x,y,-z
1/2-x,1/2-y,-z
1/2+x,y,-z
1/2-x,1/2+y,z
1/2+x,-y,z
loop_
_atom_site_type_symbol
_atom_site_label
_atom_site_fract_x
_atom_site_fract_y
_atom_site_fract_z
Si Si1 0.683469 0.097431 0.751832
Si Si2 0.416220 0.071966 0.441119
Si Si3 0.419715 0.336435 0.895897
Si Si4 0.655263 0.570853 0.754338
Si Si5 0.584435 0.832808 0.903153
Si Si6 0.321270 0.835536 0.444363
O O1 0.634852 0.141346 0.819856
O O2 0.767080 0.104536 0.763444
O O3 0.672211 0.122326 0.649312
O O4 0.663537 0.014388 0.768899
O O5 0.500000 0.072840 0.428646
O O6 0.377283 0.075431 0.345445
O O7 0.387229 0.139714 0.496527
O O8 0.398516 0.000000 0.500000
O O9 0.500000 0.363213 0.879134
O O10 0.423697 0.250000 0.898851
O O11 0.395307 0.358302 0.996249
O O12 0.608961 0.612818 0.826756
O O13 0.500000 0.829932 0.903886
O O14 0.609607 0.750000 0.888132
O O15 0.319506 0.750000 0.428334
O O16 0.250000 0.855043 0.500000
#
# Coordination Sequence:
#
# PCOD9504981 Si02
#       6
#    16  16  16  16  16  16
#     4  11  23  38  61  89 120 159 200 247 302 361
#     4  11  23  40  63  88 119 160 202 246 298 357
#     4   9  20  40  63  87 120 161 202 249 304 359
#     4  11  23  38  61  89 120 159 200 247 302 361
#     4   9  20  40  63  87 120 161 202 249 304 359
#     4  11  23  40  63  88 119 160 202 246 298 357
#
# _framework density 18.310677999999999
#
# number of rings (size 3 to 8) (size 9 to 14) (size 15 to 20)
#    0.000    1.667    3.333    2.000    0.000    6.000 
#    0.000    5.000    0.000    0.000    0.000    0.000 
#    0.000    0.000    0.000    0.000    0.000    0.000 
#
# Total GULP energy -267773.878556 kJ/mol
# GULP energy per Si atom -5578.622470 kJ/mol
# Density = 1.826900 g / cm^3
# Si number density = 18.310678 Si / 1000 Ang^3
#
#
#
# Elastic Constant Matrix: (Units=GPa)
#
#
# Indices 1 2 3 4 5 6 
#
# 1 65.6294 32.7713 59.2818 0.0000 0.0000 0.0000
# 2 32.7713 34.7306 40.4547 0.0000 0.0000 0.0000
# 3 59.2818 40.4547 142.8915 0.0000 0.0000 0.0000
# 4 0.0000 0.0000 0.0000 18.5898 0.0000 0.0000
# 5 0.0000 0.0000 0.0000 0.0000 29.5404 0.0000
# 6 0.0000 0.0000 0.0000 0.0000 0.0000 28.5991
#
#
#
# Elastic Compliance Matrix: (Units=1/GPa)
#
#
# Indices 1 2 3 4 5 6 
#
# 1 0.033274 -0.022854 -0.007334 0.000000 0.000000 0.000000
# 2 -0.022854 0.058657 -0.007125 0.000000 0.000000 0.000000
# 3 -0.007334 -0.007125 0.012058 0.000000 0.000000 0.000000
# 4 0.000000 0.000000 0.000000 0.053793 0.000000 0.000000
# 5 0.000000 0.000000 0.000000 0.000000 0.033852 0.000000
# 6 0.000000 0.000000 0.000000 0.000000 0.000000 0.034966
#
#
# Mechanical properties :
#
#
# Convention : Reuss Voigt Hill
#
# Bulk Modulus (GPa) = 34.05660 56.47412 45.26536
# Shear Modulus (GPa) = 16.07646 22.72876 19.40261
#
# Velocity S-wave (km/s) = 2.96629 3.52701 3.25873
# Velocity P-wave (km/s) = 5.51104 6.89170 6.23967
#
# Compressibility (1/GPa) = 0.02936288
#
# Stress axis : x y z
#
# Youngs Moduli (GPa) = 30.05394 17.04823 82.93017
#
# Poissons Ratio (x) = 0.38961 0.60822
# Poissons Ratio (y) = 0.68684 0.59091
# Poissons Ratio (z) = 0.22042 0.12148
#
# Static dielectric constant tensor:
#      x y z
#    x 1.634070 0.000000 0.000000 
#    y 0.000000 1.625590 0.000000 
#    z 0.000000 0.000000 1.631180 
# 
# From -- ./inp_files/29320.got.cif
#   From: 2010.05.17/outbox.cif.g08.bks.cpg/sg67_15_cif.got.tgz:29320.got - 2010.06.03 18:28:57.
