data_PCOD9504590
_publ_section_title
;
Structure prediction by ZEFSAII (Michael W. Deem and Ramdas Pophale) SiO2 
 PCOD9504590
Probable space group: C M M A
;
_chemical_formula_sum "Si O2"
_cell_formula_units_Z 52
_cell_length_a 13.747505
_cell_length_b 15.588373
_cell_length_c 10.112786
_cell_angle_alpha 90.000000
_cell_angle_beta 90.000000
_cell_angle_gamma 90.000000
_cell_volume 2167.182537
_symmetry_space_group_name_H-M "C M M A"
_symmetry_group_IT_number 67
_symmetry_cell_setting 'orthorhombic'
loop_
_space_group_symop_operation_xyz
x,y,z
-x,1/2-y,z
x,-y,-z
-x,1/2+y,-z
-x,-y,-z
x,1/2+y,-z
-x,y,z
x,1/2-y,z
1/2+x,1/2+y,z
1/2-x,-y,z
1/2+x,1/2-y,-z
1/2-x,y,-z
1/2-x,1/2-y,-z
1/2+x,y,-z
1/2-x,1/2+y,z
1/2+x,-y,z
loop_
_atom_site_type_symbol
_atom_site_label
_atom_site_fract_x
_atom_site_fract_y
_atom_site_fract_z
Si Si1 0.136300 0.901762 0.470250
Si Si2 0.109081 0.348250 0.068063
Si Si3 0.000000 0.750000 0.555182
Si Si4 0.203190 0.092625 0.806927
O O1 0.250000 0.898207 0.500000
O O2 0.082330 0.826798 0.546199
O O3 0.132878 0.883759 0.312828
O O4 0.105297 0.000000 0.500000
O O5 0.105473 0.250000 0.021074
O O6 0.198402 0.353040 0.170112
O O7 0.000000 0.370348 0.116683
O O8 0.142659 0.404011 0.942768
O O9 0.250000 0.000000 0.780700
#
# Coordination Sequence:
#
# PCOD9504590 Si02
#       4
#    16  16   4  16
#     4  11  25  51  72 106 146 191 241 302 361 431
#     4  10  23  41  66 104 139 176 233 290 353 431
#     4  12  28  44  80 106 140 192 252 294 366 426
#     4  11  22  41  71  94 137 186 228 286 357 420
#
# _framework density 23.994285999999999
#
# number of rings (size 3 to 8) (size 9 to 14) (size 15 to 20)
#    0.000    1.231    3.077    4.615    6.462    2.462 
#    2.769    0.000    0.000    0.000    0.000    0.000 
#    0.000    0.000    0.000    0.000    0.000    0.000 
#
# Total GULP energy -144797.955129 kJ/mol
# GULP energy per Si atom -5569.152120 kJ/mol
# Density = 2.393967 g / cm^3
# Si number density = 23.994286 Si / 1000 Ang^3
#
#
#
# Elastic Constant Matrix: (Units=GPa)
#
#
# Indices 1 2 3 4 5 6 
#
# 1 155.2605 41.9371 7.7138 0.0000 0.0000 0.0000
# 2 41.9371 107.1781 3.6727 0.0000 0.0000 0.0000
# 3 7.7138 3.6727 83.6703 0.0000 0.0000 0.0000
# 4 0.0000 0.0000 0.0000 194.1001 0.0000 0.0000
# 5 0.0000 0.0000 0.0000 0.0000 -28.1681 0.0000
# 6 0.0000 0.0000 0.0000 0.0000 0.0000 28.1202
#
#
#
# Elastic Compliance Matrix: (Units=1/GPa)
#
#
# Indices 1 2 3 4 5 6 
#
# 1 0.007226 -0.002809 -0.000543 0.000000 0.000000 0.000000
# 2 -0.002809 0.010436 -0.000199 0.000000 0.000000 0.000000
# 3 -0.000543 -0.000199 0.012010 0.000000 0.000000 0.000000
# 4 0.000000 0.000000 0.000000 0.005152 0.000000 0.000000
# 5 0.000000 0.000000 0.000000 0.000000 -0.035501 0.000000
# 6 0.000000 0.000000 0.000000 0.000000 0.000000 0.035562
#
#
# Mechanical properties :
#
#
# Convention : Reuss Voigt Hill
#
# Bulk Modulus (GPa) = 44.30456 50.30625 47.30541
# Shear Modulus (GPa) = 100.98687 58.32946 79.65816
#
# Velocity S-wave (km/s) = 6.49456 4.93584 5.76809
# Velocity P-wave (km/s) = 8.64544 7.31401 8.00745
#
# Compressibility (1/GPa) = 0.02257104
#
# Stress axis : x y z
#
# Youngs Moduli (GPa) = 138.37960 95.82020 83.26068
#
# Poissons Ratio (x) = 0.26916 0.04520
# Poissons Ratio (y) = 0.38871 0.01658
# Poissons Ratio (z) = 0.07513 0.01908
#
# Static dielectric constant tensor:
#      x y z
#    x 1.923360 0.000000 0.000000 
#    y 0.000000 2.032410 0.000000 
#    z 0.000000 0.000000 2.055930 
# 
# From -- ./inp_files/17202.got.cif
#   From: 2010.05.17/outbox.cif.g08.bks.cpg/sg67_9_cif.got.tgz:17202.got - 2010.06.03 18:28:57.
