data_PCOD9504289
_publ_section_title
;
Structure prediction by ZEFSAII (Michael W. Deem and Ramdas Pophale) SiO2 
 PCOD9504289
Probable space group: C M M A
;
_chemical_formula_sum "Si O2"
_cell_formula_units_Z 60
_cell_length_a 15.024585
_cell_length_b 34.122413
_cell_length_c 5.400634
_cell_angle_alpha 90.000000
_cell_angle_beta 90.000000
_cell_angle_gamma 90.000000
_cell_volume 2768.770546
_symmetry_space_group_name_H-M "C M M A"
_symmetry_group_IT_number 67
_symmetry_cell_setting 'orthorhombic'
loop_
_space_group_symop_operation_xyz
x,y,z
-x,1/2-y,z
x,-y,-z
-x,1/2+y,-z
-x,-y,-z
x,1/2+y,-z
-x,y,z
x,1/2-y,z
1/2+x,1/2+y,z
1/2-x,-y,z
1/2+x,1/2-y,-z
1/2-x,y,-z
1/2-x,1/2-y,-z
1/2+x,y,-z
1/2-x,1/2+y,z
1/2+x,-y,z
loop_
_atom_site_type_symbol
_atom_site_label
_atom_site_fract_x
_atom_site_fract_y
_atom_site_fract_z
Si Si1 0.750000 0.500000 0.500000
Si Si2 0.901921 0.536171 0.807167
Si Si3 0.607486 0.667265 0.617736
Si Si4 0.809330 0.750000 0.255150
Si Si5 0.606097 0.872685 0.106186
O O1 0.816833 0.527248 0.646612
O O2 0.888436 0.580343 0.897092
O O3 0.000000 0.536191 0.681615
O O4 0.904017 0.500000 0.000000
O O5 0.500000 0.664387 0.606541
O O6 0.632720 0.710936 0.704094
O O7 0.640120 0.650261 0.351816
O O8 0.643554 0.641611 0.845406
O O9 0.750000 0.750000 0.500000
O O10 0.750000 0.750000 0.000000
O O11 0.500000 0.863880 0.102620
#
# Coordination Sequence:
#
# PCOD9504289 Si02
#       5
#     4  16  16   8  16
#     4  12  24  40  60 100 124 170 232 264 330 410
#     4  10  23  43  65  92 133 177 219 281 339 397
#     4  10  21  42  68  92 121 166 218 263 315 392
#     4  12  25  42  59  94 134 168 204 260 333 388
#     4   9  20  39  67  96 121 162 219 268 322 382
#
# _framework density 21.670268
#
# number of rings (size 3 to 8) (size 9 to 14) (size 15 to 20)
#    0.000    1.867    0.000    2.800    3.733    0.000 
#    7.200    5.333    0.000    0.000    0.000    0.000 
#    0.000    0.000    0.000    0.000    0.000    0.000 
#
# Total GULP energy -167261.085537 kJ/mol
# GULP energy per Si atom -5575.369518 kJ/mol
# Density = 2.162095 g / cm^3
# Si number density = 21.670268 Si / 1000 Ang^3
#
#
#
# Elastic Constant Matrix: (Units=GPa)
#
#
# Indices 1 2 3 4 5 6 
#
# 1 91.0784 14.5303 38.6271 0.0000 0.0000 0.0000
# 2 14.5303 112.8648 33.3897 0.0000 0.0000 0.0000
# 3 38.6271 33.3897 120.0021 0.0000 0.0000 0.0000
# 4 0.0000 0.0000 0.0000 22.3207 0.0000 0.0000
# 5 0.0000 0.0000 0.0000 0.0000 255.8115 0.0000
# 6 0.0000 0.0000 0.0000 0.0000 0.0000 45.0022
#
#
#
# Elastic Compliance Matrix: (Units=1/GPa)
#
#
# Indices 1 2 3 4 5 6 
#
# 1 0.012738 -0.000465 -0.003971 0.000000 0.000000 0.000000
# 2 -0.000465 0.009672 -0.002541 0.000000 0.000000 0.000000
# 3 -0.003971 -0.002541 0.010318 0.000000 0.000000 0.000000
# 4 0.000000 0.000000 0.000000 0.044802 0.000000 0.000000
# 5 0.000000 0.000000 0.000000 0.000000 0.003909 0.000000
# 6 0.000000 0.000000 0.000000 0.000000 0.000000 0.022221
#
#
# Mechanical properties :
#
#
# Convention : Reuss Voigt Hill
#
# Bulk Modulus (GPa) = 53.26646 55.22663 54.24654
# Shear Modulus (GPa) = 40.36415 80.45341 60.40878
#
# Velocity S-wave (km/s) = 4.32053 6.09974 5.28553
# Velocity P-wave (km/s) = 7.03726 8.66887 7.89533
#
# Compressibility (1/GPa) = 0.01877354
#
# Stress axis : x y z
#
# Youngs Moduli (GPa) = 78.50664 103.39239 96.91396
#
# Poissons Ratio (x) = 0.04810 0.38482
# Poissons Ratio (y) = 0.03652 0.24630
# Poissons Ratio (z) = 0.31173 0.26276
#
# Static dielectric constant tensor:
#      x y z
#    x 1.989060 0.000000 0.000000 
#    y 0.000000 1.251910 0.000000 
#    z 0.000000 0.000000 1.420270 
# 
# From -- ./inp_files/2173.got.cif
#   From: 2010.05.17/outbox.cif.g08.bks.cpg/sg67_2_cif.got.tgz:2173.got - 2010.06.03 18:28:57.
