data_PCOD9504626
_publ_section_title
;
Structure prediction by ZEFSAII (Michael W. Deem and Ramdas Pophale) SiO2 
 PCOD9504626
Probable space group: C M M A
;
_chemical_formula_sum "Si O2"
_cell_formula_units_Z 52
_cell_length_a 27.704682
_cell_length_b 17.844379
_cell_length_c 4.851742
_cell_angle_alpha 90.000000
_cell_angle_beta 90.000000
_cell_angle_gamma 90.000000
_cell_volume 2398.569499
_symmetry_space_group_name_H-M "C M M A"
_symmetry_group_IT_number 67
_symmetry_cell_setting 'orthorhombic'
loop_
_space_group_symop_operation_xyz
x,y,z
-x,1/2-y,z
x,-y,-z
-x,1/2+y,-z
-x,-y,-z
x,1/2+y,-z
-x,y,z
x,1/2-y,z
1/2+x,1/2+y,z
1/2-x,-y,z
1/2+x,1/2-y,-z
1/2-x,y,-z
1/2-x,1/2-y,-z
1/2+x,y,-z
1/2-x,1/2+y,z
1/2+x,-y,z
loop_
_atom_site_type_symbol
_atom_site_label
_atom_site_fract_x
_atom_site_fract_y
_atom_site_fract_z
Si Si1 0.861509 0.836254 0.856741
Si Si2 0.445377 0.554295 0.259490
Si Si3 0.250000 0.000000 0.000000
Si Si4 0.201036 0.124078 0.627199
O O1 0.863120 0.750000 0.762991
O O2 0.913293 0.875540 0.834286
O O3 0.830095 0.885684 0.645643
O O4 0.834059 0.837030 0.149999
O O5 0.425100 0.500000 0.500000
O O6 0.500000 0.576991 0.342188
O O7 0.448132 0.500000 0.000000
O O8 0.219349 0.947532 0.203812
O O9 0.250000 0.161238 0.500000
#
# Coordination Sequence:
#
# PCOD9504626 Si02
#       4
#    16  16   4  16
#     4  12  27  43  67 100 137 182 220 274 348 406
#     4  10  23  43  70 101 131 171 226 284 336 396
#     4  12  26  44  64 100 120 184 220 288 330 380
#     4  12  26  43  67  94 135 173 232 273 334 395
#
# _framework density 21.679589
#
# number of rings (size 3 to 8) (size 9 to 14) (size 15 to 20)
#    0.000    0.615    3.077    3.231    6.462    4.308 
#    0.000    0.000    0.000    9.231    0.000    0.000 
#    0.000    0.000    0.000    0.000    0.000    0.000 
#
# Total GULP energy -145096.265871 kJ/mol
# GULP energy per Si atom -5580.625610 kJ/mol
# Density = 2.163025 g / cm^3
# Si number density = 21.679589 Si / 1000 Ang^3
#
#
#
# Elastic Constant Matrix: (Units=GPa)
#
#
# Indices 1 2 3 4 5 6 
#
# 1 114.3069 44.1591 19.9924 0.0000 0.0000 0.0000
# 2 44.1591 99.5260 19.5633 0.0000 0.0000 0.0000
# 3 19.9924 19.5633 134.9831 0.0000 0.0000 0.0000
# 4 0.0000 0.0000 0.0000 12.9792 0.0000 0.0000
# 5 0.0000 0.0000 0.0000 0.0000 36.9567 0.0000
# 6 0.0000 0.0000 0.0000 0.0000 0.0000 -40.0625
#
#
#
# Elastic Compliance Matrix: (Units=1/GPa)
#
#
# Indices 1 2 3 4 5 6 
#
# 1 0.010668 -0.004552 -0.000920 0.000000 0.000000 0.000000
# 2 -0.004552 0.012285 -0.001106 0.000000 0.000000 0.000000
# 3 -0.000920 -0.001106 0.007705 0.000000 0.000000 0.000000
# 4 0.000000 0.000000 0.000000 0.077046 0.000000 0.000000
# 5 0.000000 0.000000 0.000000 0.000000 0.027059 0.000000
# 6 0.000000 0.000000 0.000000 0.000000 0.000000 -0.024961
#
#
# Mechanical properties :
#
#
# Convention : Reuss Voigt Hill
#
# Bulk Modulus (GPa) = 57.14246 57.36062 57.25154
# Shear Modulus (GPa) = 38.82191 19.64809 29.23500
#
# Velocity S-wave (km/s) = 4.23627 3.01374 3.67618
# Velocity P-wave (km/s) = 7.09528 6.21498 6.66967
#
# Compressibility (1/GPa) = 0.01750012
#
# Stress axis : x y z
#
# Youngs Moduli (GPa) = 93.73790 81.40028 129.78657
#
# Poissons Ratio (x) = 0.37057 0.11944
# Poissons Ratio (y) = 0.42674 0.14357
# Poissons Ratio (z) = 0.08626 0.09005
#
# Static dielectric constant tensor:
#      x y z
#    x 1.903300 0.000000 0.000000 
#    y 0.000000 1.757770 0.000000 
#    z 0.000000 0.000000 1.764210 
# 
# From -- ./inp_files/3894.got.cif
#   From: 2010.05.17/outbox.cif.g08.bks.cpg/sg67_2_cif.got.tgz:3894.got - 2010.06.03 18:28:57.
