data_PCOD9504501
_publ_section_title
;
Structure prediction by ZEFSAII (Michael W. Deem and Ramdas Pophale) SiO2 
 PCOD9504501
Probable space group: C M M A
;
_chemical_formula_sum "Si O2"
_cell_formula_units_Z 88
_cell_length_a 15.078676
_cell_length_b 11.457879
_cell_length_c 26.960159
_cell_angle_alpha 90.000000
_cell_angle_beta 90.000000
_cell_angle_gamma 90.000000
_cell_volume 4657.897102
_symmetry_space_group_name_H-M "C M M A"
_symmetry_group_IT_number 67
_symmetry_cell_setting 'orthorhombic'
loop_
_space_group_symop_operation_xyz
x,y,z
-x,1/2-y,z
x,-y,-z
-x,1/2+y,-z
-x,-y,-z
x,1/2+y,-z
-x,y,z
x,1/2-y,z
1/2+x,1/2+y,z
1/2-x,-y,z
1/2+x,1/2-y,-z
1/2-x,y,-z
1/2-x,1/2-y,-z
1/2+x,y,-z
1/2-x,1/2+y,z
1/2+x,-y,z
loop_
_atom_site_type_symbol
_atom_site_label
_atom_site_fract_x
_atom_site_fract_y
_atom_site_fract_z
Si Si1 0.149928 0.039013 0.713153
Si Si2 0.821659 0.889461 0.398069
Si Si3 0.103958 0.750000 0.107277
Si Si4 0.893919 0.750000 0.216456
Si Si5 0.000000 0.111406 0.124993
Si Si6 0.000000 0.388880 0.240441
Si Si7 0.355605 0.510714 0.942529
Si Si8 0.000000 0.114135 0.535208
O O1 0.141072 0.087463 0.657388
O O2 0.133874 0.138700 0.752838
O O3 0.250000 0.000000 0.717164
O O4 0.083781 0.936792 0.729108
O O5 0.789045 0.750000 0.400634
O O6 0.907761 0.895765 0.433672
O O7 0.750000 0.000000 0.406980
O O8 0.146355 0.750000 0.161589
O O9 0.125793 0.639042 0.075827
O O10 0.000000 0.750000 0.116046
O O11 0.000000 0.750000 0.215122
O O12 0.000000 0.067656 0.182522
O O13 0.000000 0.250000 0.126974
O O14 0.914070 0.069355 0.093988
O O15 0.000000 0.250000 0.238901
O O16 0.250000 0.500000 0.938852
O O17 0.382195 0.500000 0.000000
O O18 0.000000 0.250000 0.514892
O O19 0.000000 0.000000 0.500000
#
# Coordination Sequence:
#
# PCOD9504501 Si02
#       8
#    16  16   8   8   8   8  16   8
#     4  11  23  39  64  92 127 166 212 253 311 375
#     4  10  22  41  66  97 132 176 225 274 325 387
#     4  11  24  41  63  92 120 155 202 253 302 374
#     4  11  22  38  63  90 122 159 207 253 307 365
#     4  11  25  43  63  89 122 157 191 246 317 371
#     4  11  25  41  57  88 129 162 199 250 313 382
#     4  11  26  43  65  89 115 152 201 249 308 372
#     4  10  23  42  66  97 134 179 229 278 336 386
#
# _framework density 18.892645000000002
#
# number of rings (size 3 to 8) (size 9 to 14) (size 15 to 20)
#    0.000    1.273    2.727    1.909    3.818    5.455 
#    0.000    2.727    0.000    0.000    0.000    0.000 
#    0.000    0.000    0.000    0.000    0.000    0.000 
#
# Total GULP energy -245236.729938 kJ/mol
# GULP energy per Si atom -5573.562044 kJ/mol
# Density = 1.884964 g / cm^3
# Si number density = 18.892645 Si / 1000 Ang^3
#
#
#
# Elastic Constant Matrix: (Units=GPa)
#
#
# Indices 1 2 3 4 5 6 
#
# 1 91.5142 42.2679 52.9392 0.0000 0.0000 0.0000
# 2 42.2679 150.1569 74.9115 0.0000 0.0000 0.0000
# 3 52.9392 74.9115 105.1684 0.0000 0.0000 0.0000
# 4 0.0000 0.0000 0.0000 39.8501 0.0000 0.0000
# 5 0.0000 0.0000 0.0000 0.0000 51.9167 0.0000
# 6 0.0000 0.0000 0.0000 0.0000 0.0000 1.5508
#
#
#
# Elastic Compliance Matrix: (Units=1/GPa)
#
#
# Indices 1 2 3 4 5 6 
#
# 1 0.015468 -0.000729 -0.007267 0.000000 0.000000 0.000000
# 2 -0.000729 0.010365 -0.007016 0.000000 0.000000 0.000000
# 3 -0.007267 -0.007016 0.018164 0.000000 0.000000 0.000000
# 4 0.000000 0.000000 0.000000 0.025094 0.000000 0.000000
# 5 0.000000 0.000000 0.000000 0.000000 0.019262 0.000000
# 6 0.000000 0.000000 0.000000 0.000000 0.000000 0.644834
#
#
# Mechanical properties :
#
#
# Convention : Reuss Voigt Hill
#
# Bulk Modulus (GPa) = 71.56566 76.34184 73.95375
# Shear Modulus (GPa) = 6.51153 30.44491 18.47822
#
# Velocity S-wave (km/s) = 1.85852 4.01867 3.13079
# Velocity P-wave (km/s) = 6.52440 7.87584 7.23176
#
# Compressibility (1/GPa) = 0.01397318
#
# Stress axis : x y z
#
# Youngs Moduli (GPa) = 64.65108 96.47692 55.05267
#
# Poissons Ratio (x) = 0.07029 0.40007
# Poissons Ratio (y) = 0.04710 0.38627
# Poissons Ratio (z) = 0.46983 0.67692
#
# Static dielectric constant tensor:
#      x y z
#    x 1.637890 0.000000 0.000000 
#    y 0.000000 1.807260 0.000000 
#    z 0.000000 0.000000 1.679520 
# 
# From -- ./inp_files/41882.got.cif
#   From: 2010.05.17/outbox.cif.g08.bks.cpg/sg67_21_cif.got.tgz:41882.got - 2010.06.03 18:28:57.
