data_PCOD9504114
_publ_section_title
;
Structure prediction by ZEFSAII (Michael W. Deem and Ramdas Pophale) SiO2 
 PCOD9504114
Probable space group: C M M A
;
_chemical_formula_sum "Si O2"
_cell_formula_units_Z 64
_cell_length_a 8.655337
_cell_length_b 24.124171
_cell_length_c 15.694022
_cell_angle_alpha 90.000000
_cell_angle_beta 90.000000
_cell_angle_gamma 90.000000
_cell_volume 3276.956205
_symmetry_space_group_name_H-M "C M M A"
_symmetry_group_IT_number 67
_symmetry_cell_setting 'orthorhombic'
loop_
_space_group_symop_operation_xyz
x,y,z
-x,1/2-y,z
x,-y,-z
-x,1/2+y,-z
-x,-y,-z
x,1/2+y,-z
-x,y,z
x,1/2-y,z
1/2+x,1/2+y,z
1/2-x,-y,z
1/2+x,1/2-y,-z
1/2-x,y,-z
1/2-x,1/2-y,-z
1/2+x,y,-z
1/2-x,1/2+y,z
1/2+x,-y,z
loop_
_atom_site_type_symbol
_atom_site_label
_atom_site_fract_x
_atom_site_fract_y
_atom_site_fract_z
Si Si1 0.315395 0.369915 0.093080
Si Si2 0.816588 0.750000 0.642379
Si Si3 0.815298 0.061980 0.251603
Si Si4 0.315901 0.750000 0.830758
Si Si5 0.684564 0.868149 0.590239
O O1 0.500000 0.377454 0.094529
O O2 0.239863 0.407554 0.165751
O O3 0.282452 0.305751 0.117111
O O4 0.250000 0.382470 0.000000
O O5 0.777872 0.750000 0.742986
O O6 0.742765 0.805329 0.603847
O O7 0.000000 0.750000 0.628468
O O8 0.748828 0.096021 0.331603
O O9 0.000000 0.061534 0.255608
O O10 0.750000 0.000000 0.253235
O O11 0.500000 0.750000 0.809830
O O12 0.500000 0.869424 0.590330
O O13 0.750000 0.888549 0.500000
#
# Coordination Sequence:
#
# PCOD9504114 Si02
#       5
#    16   8  16   8  16
#     4  11  23  41  66  98 134 174 217 267 324 386
#     4  12  23  38  65  99 134 174 216 262 323 388
#     4  12  26  46  69  96 128 170 220 271 327 386
#     4  10  21  38  64  95 134 174 213 260 323 386
#     4  12  25  44  68  98 134 172 216 267 324 386
#
# _framework density 19.530318999999999
#
# number of rings (size 3 to 8) (size 9 to 14) (size 15 to 20)
#    0.000    0.500    2.500    7.125    0.000    2.000 
#    0.000    5.000    0.000    0.000    0.000    0.000 
#    0.000    0.000    0.000    0.000    0.000    0.000 
#
# Total GULP energy -179216.663841 kJ/mol
# GULP energy per Si atom -5600.520745 kJ/mol
# Density = 1.948587 g / cm^3
# Si number density = 19.530319 Si / 1000 Ang^3
#
#
#
# Elastic Constant Matrix: (Units=GPa)
#
#
# Indices 1 2 3 4 5 6 
#
# 1 184.6357 78.3620 95.9036 0.0000 0.0000 0.0000
# 2 78.3620 150.1655 77.9214 0.0000 0.0000 0.0000
# 3 95.9036 77.9214 192.2680 0.0000 0.0000 0.0000
# 4 0.0000 0.0000 0.0000 -14.9416 0.0000 0.0000
# 5 0.0000 0.0000 0.0000 0.0000 40.9969 0.0000
# 6 0.0000 0.0000 0.0000 0.0000 0.0000 20.2454
#
#
#
# Elastic Compliance Matrix: (Units=1/GPa)
#
#
# Indices 1 2 3 4 5 6 
#
# 1 0.008088 -0.002694 -0.002942 0.000000 0.000000 0.000000
# 2 -0.002694 0.009330 -0.002438 0.000000 0.000000 0.000000
# 3 -0.002942 -0.002438 0.007657 0.000000 0.000000 0.000000
# 4 0.000000 0.000000 0.000000 -0.066927 0.000000 0.000000
# 5 0.000000 0.000000 0.000000 0.000000 0.024392 0.000000
# 6 0.000000 0.000000 0.000000 0.000000 0.000000 0.049394
#
#
# Mechanical properties :
#
#
# Convention : Reuss Voigt Hill
#
# Bulk Modulus (GPa) = 112.02166 114.60480 113.31323
# Shear Modulus (GPa) = 97.93231 27.58563 62.75897
#
# Velocity S-wave (km/s) = 7.08891 3.76234 5.67485
# Velocity P-wave (km/s) = 11.15732 8.81371 10.05403
#
# Compressibility (1/GPa) = 0.00892685
#
# Stress axis : x y z
#
# Youngs Moduli (GPa) = 123.64527 107.18357 130.60486
#
# Poissons Ratio (x) = 0.28871 0.38430
# Poissons Ratio (y) = 0.33305 0.31836
# Poissons Ratio (z) = 0.36383 0.26127
#
# Static dielectric constant tensor:
#      x y z
#    x 1.649430 0.000000 0.000000 
#    y 0.000000 1.668940 0.000000 
#    z 0.000000 0.000000 1.660740 
# 
# From -- ./inp_files/24847.got.cif
#   From: 2010.05.17/outbox.cif.g08.bks.cpg/sg67_13_cif.got.tgz:24847.got - 2010.06.03 18:28:57.
