data_PCOD9504164
_publ_section_title
;
Structure prediction by ZEFSAII (Michael W. Deem and Ramdas Pophale) SiO2 
 PCOD9504164
Probable space group: C M M A
;
_chemical_formula_sum "Si O2"
_cell_formula_units_Z 100
_cell_length_a 26.070696
_cell_length_b 9.916908
_cell_length_c 20.603992
_cell_angle_alpha 90.000000
_cell_angle_beta 90.000000
_cell_angle_gamma 90.000000
_cell_volume 5326.970385
_symmetry_space_group_name_H-M "C M M A"
_symmetry_group_IT_number 67
_symmetry_cell_setting 'orthorhombic'
loop_
_space_group_symop_operation_xyz
x,y,z
-x,1/2-y,z
x,-y,-z
-x,1/2+y,-z
-x,-y,-z
x,1/2+y,-z
-x,y,z
x,1/2-y,z
1/2+x,1/2+y,z
1/2-x,-y,z
1/2+x,1/2-y,-z
1/2-x,y,-z
1/2-x,1/2-y,-z
1/2+x,y,-z
1/2-x,1/2+y,z
1/2+x,-y,z
loop_
_atom_site_type_symbol
_atom_site_label
_atom_site_fract_x
_atom_site_fract_y
_atom_site_fract_z
Si Si1 0.439088 0.909339 0.560336
Si Si2 0.297598 0.089152 0.230758
Si Si3 0.556818 0.408017 0.936563
Si Si4 0.310646 0.750000 0.410530
Si Si5 0.690012 0.250000 0.436873
Si Si6 0.327308 0.905860 0.110607
Si Si7 0.357660 0.016075 0.352663
Si Si8 0.750000 0.500000 0.000000
O O1 0.500000 0.919407 0.560895
O O2 0.427011 0.750000 0.553839
O O3 0.416453 0.970936 0.626442
O O4 0.419791 0.000000 0.500000
O O5 0.287383 0.250000 0.226049
O O6 0.343644 0.063402 0.280987
O O7 0.250000 0.000000 0.257398
O O8 0.309948 0.017770 0.162497
O O9 0.500000 0.431778 0.904415
O O10 0.557465 0.250000 0.954510
O O11 0.611896 0.429933 0.902224
O O12 0.557640 0.500000 0.000000
O O13 0.323028 0.750000 0.487228
O O14 0.249482 0.750000 0.416675
O O15 0.333176 0.624618 0.371799
O O16 0.667789 0.380618 0.402937
O O17 0.321848 0.750000 0.133792
O O18 0.289783 0.921824 0.047965
#
# Coordination Sequence:
#
# PCOD9504164 Si02
#       8
#    16  16  16   8   8  16  16   4
#     4  10  21  39  63  90 120 158 209 268 323 373
#     4  12  26  43  63  89 126 172 213 250 306 386
#     4   9  18  35  60  91 126 163 204 253 310 366
#     4  11  24  34  61  89 119 161 200 255 297 363
#     4  11  20  40  57  87 123 155 206 245 303 357
#     4  11  24  40  64  95 131 168 212 262 317 373
#     4  12  24  39  60  88 124 164 203 253 312 368
#     4  12  22  40  66  98 130 164 200 278 318 376
#
# _framework density 18.772394999999999
#
# number of rings (size 3 to 8) (size 9 to 14) (size 15 to 20)
#    0.000    1.120    3.200    3.600    3.360    2.560 
#    0.000    0.800    0.000    0.960    0.000    0.000 
#    0.000    0.000    0.000    0.000    0.000    0.000 
#
# Total GULP energy -278717.728283 kJ/mol
# GULP energy per Si atom -5574.354566 kJ/mol
# Density = 1.872967 g / cm^3
# Si number density = 18.772395 Si / 1000 Ang^3
#
#
#
# Elastic Constant Matrix: (Units=GPa)
#
#
# Indices 1 2 3 4 5 6 
#
# 1 104.0728 34.3363 24.7222 0.0000 0.0000 0.0000
# 2 34.3363 124.5786 39.9576 0.0000 0.0000 0.0000
# 3 24.7222 39.9576 71.1396 0.0000 0.0000 0.0000
# 4 0.0000 0.0000 0.0000 22.5669 0.0000 0.0000
# 5 0.0000 0.0000 0.0000 0.0000 26.6955 0.0000
# 6 0.0000 0.0000 0.0000 0.0000 0.0000 36.1119
#
#
#
# Elastic Compliance Matrix: (Units=1/GPa)
#
#
# Indices 1 2 3 4 5 6 
#
# 1 0.010943 -0.002191 -0.002572 0.000000 0.000000 0.000000
# 2 -0.002191 0.010230 -0.004984 0.000000 0.000000 0.000000
# 3 -0.002572 -0.004984 0.017750 0.000000 0.000000 0.000000
# 4 0.000000 0.000000 0.000000 0.044313 0.000000 0.000000
# 5 0.000000 0.000000 0.000000 0.000000 0.037460 0.000000
# 6 0.000000 0.000000 0.000000 0.000000 0.000000 0.027692
#
#
# Mechanical properties :
#
#
# Convention : Reuss Voigt Hill
#
# Bulk Modulus (GPa) = 51.47316 55.31371 53.39343
# Shear Modulus (GPa) = 28.67677 30.45984 29.56830
#
# Velocity S-wave (km/s) = 3.91270 4.03250 3.97305
# Velocity P-wave (km/s) = 6.92036 7.15618 7.03926
#
# Compressibility (1/GPa) = 0.01942760
#
# Stress axis : x y z
#
# Youngs Moduli (GPa) = 91.38664 97.75517 56.33703
#
# Poissons Ratio (x) = 0.21418 0.14490
# Poissons Ratio (y) = 0.20023 0.28080
# Poissons Ratio (z) = 0.23505 0.48725
#
# Static dielectric constant tensor:
#      x y z
#    x 1.742730 0.000000 0.000000 
#    y 0.000000 1.616130 0.000000 
#    z 0.000000 0.000000 1.647780 
# 
# From -- ./inp_files/40020.got.cif
#   From: 2010.05.17/outbox.cif.g08.bks.cpg/sg67_21_cif.got.tgz:40020.got - 2010.06.03 18:28:57.
