data_PCOD9504915
_publ_section_title
;
Structure prediction by ZEFSAII (Michael W. Deem and Ramdas Pophale) SiO2 
 PCOD9504915
Probable space group: C M M A
;
_chemical_formula_sum "Si O2"
_cell_formula_units_Z 80
_cell_length_a 18.260184
_cell_length_b 8.769827
_cell_length_c 26.719937
_cell_angle_alpha 90.000000
_cell_angle_beta 90.000000
_cell_angle_gamma 90.000000
_cell_volume 4278.894764
_symmetry_space_group_name_H-M "C M M A"
_symmetry_group_IT_number 67
_symmetry_cell_setting 'orthorhombic'
loop_
_space_group_symop_operation_xyz
x,y,z
-x,1/2-y,z
x,-y,-z
-x,1/2+y,-z
-x,-y,-z
x,1/2+y,-z
-x,y,z
x,1/2-y,z
1/2+x,1/2+y,z
1/2-x,-y,z
1/2+x,1/2-y,-z
1/2-x,y,-z
1/2-x,1/2-y,-z
1/2+x,y,-z
1/2-x,1/2+y,z
1/2+x,-y,z
loop_
_atom_site_type_symbol
_atom_site_label
_atom_site_fract_x
_atom_site_fract_y
_atom_site_fract_z
Si Si1 0.668589 0.567564 0.553154
Si Si2 0.331237 0.568325 0.743277
Si Si3 0.912825 0.930299 0.647443
Si Si4 0.912164 0.567202 0.838291
Si Si5 0.586808 0.432451 0.948918
O O1 0.642719 0.500000 0.500000
O O2 0.672393 0.750000 0.550468
O O3 0.750000 0.500000 0.561461
O O4 0.618279 0.513166 0.598502
O O5 0.328342 0.750000 0.739094
O O6 0.250000 0.500000 0.743156
O O7 0.375014 0.499288 0.696419
O O8 0.371567 0.518882 0.794179
O O9 0.896244 0.750000 0.644236
O O10 0.000000 0.948902 0.650879
O O11 0.900713 0.750000 0.833262
O O12 0.885771 0.519662 0.894025
O O13 0.000000 0.542594 0.835250
O O14 0.500000 0.471699 0.948451
O O15 0.591978 0.250000 0.951268
O O16 0.619019 0.500000 0.000000
#
# Coordination Sequence:
#
# PCOD9504915 Si02
#       5
#    16  16  16  16  16
#     4  11  22  39  63  90 122 157 196 236 277 329
#     4  12  25  40  59  82 110 145 187 232 280 336
#     4  11  24  42  63  87 117 151 187 231 283 334
#     4   9  18  34  55  80 112 147 182 225 278 331
#     4   8  14  25  44  72 106 142 178 218 266 321
#
# _framework density 18.696417
#
# number of rings (size 3 to 8) (size 9 to 14) (size 15 to 20)
#    0.000    1.800    0.000    7.200    0.000    5.600 
#    0.000    2.000    0.000    0.600    0.000    4.200 
#    0.000    0.000    0.000    0.000    0.000    0.000 
#
# Total GULP energy -223411.933606 kJ/mol
# GULP energy per Si atom -5585.298340 kJ/mol
# Density = 1.865386 g / cm^3
# Si number density = 18.696417 Si / 1000 Ang^3
#
#
#
# Elastic Constant Matrix: (Units=GPa)
#
#
# Indices 1 2 3 4 5 6 
#
# 1 50.7778 56.1184 62.7326 0.0000 0.0000 0.0000
# 2 56.1184 136.0993 83.6256 0.0000 0.0000 0.0000
# 3 62.7326 83.6256 185.0041 0.0000 0.0000 0.0000
# 4 0.0000 0.0000 0.0000 25.0290 0.0000 0.0000
# 5 0.0000 0.0000 0.0000 0.0000 78.3059 0.0000
# 6 0.0000 0.0000 0.0000 0.0000 0.0000 24.3256
#
#
#
# Elastic Compliance Matrix: (Units=1/GPa)
#
#
# Indices 1 2 3 4 5 6 
#
# 1 0.046157 -0.013036 -0.009759 0.000000 0.000000 0.000000
# 2 -0.013036 0.013855 -0.001842 0.000000 0.000000 0.000000
# 3 -0.009759 -0.001842 0.009547 0.000000 0.000000 0.000000
# 4 0.000000 0.000000 0.000000 0.039954 0.000000 0.000000
# 5 0.000000 0.000000 0.000000 0.000000 0.012770 0.000000
# 6 0.000000 0.000000 0.000000 0.000000 0.000000 0.041109
#
#
# Mechanical properties :
#
#
# Convention : Reuss Voigt Hill
#
# Bulk Modulus (GPa) = 49.29786 86.31492 67.80639
# Shear Modulus (GPa) = 22.78664 36.82576 29.80620
#
# Velocity S-wave (km/s) = 3.49488 4.44291 3.99710
# Velocity P-wave (km/s) = 6.53531 8.51974 7.59264
#
# Compressibility (1/GPa) = 0.02028486
#
# Stress axis : x y z
#
# Youngs Moduli (GPa) = 21.66531 72.17782 104.74366
#
# Poissons Ratio (x) = 0.94089 1.02217
# Poissons Ratio (y) = 0.28242 0.19297
# Poissons Ratio (z) = 0.21143 0.13297
#
# Static dielectric constant tensor:
#      x y z
#    x 1.623950 0.000000 0.000000 
#    y 0.000000 1.625480 0.000000 
#    z 0.000000 0.000000 1.654240 
# 
# From -- ./inp_files/44432.got.cif
#   From: 2010.05.17/outbox.cif.g08.bks.cpg/sg67_23_cif.got.tgz:44432.got - 2010.06.03 18:28:57.
