data_PCOD9504143
_publ_section_title
;
Structure prediction by ZEFSAII (Michael W. Deem and Ramdas Pophale) SiO2 
 PCOD9504143
Probable space group: C M M A
;
_chemical_formula_sum "Si O2"
_cell_formula_units_Z 120
_cell_length_a 23.154303
_cell_length_b 20.078733
_cell_length_c 12.044926
_cell_angle_alpha 90.000000
_cell_angle_beta 90.000000
_cell_angle_gamma 90.000000
_cell_volume 5599.795318
_symmetry_space_group_name_H-M "C M M A"
_symmetry_group_IT_number 67
_symmetry_cell_setting 'orthorhombic'
loop_
_space_group_symop_operation_xyz
x,y,z
-x,1/2-y,z
x,-y,-z
-x,1/2+y,-z
-x,-y,-z
x,1/2+y,-z
-x,y,z
x,1/2-y,z
1/2+x,1/2+y,z
1/2-x,-y,z
1/2+x,1/2-y,-z
1/2-x,y,-z
1/2-x,1/2-y,-z
1/2+x,y,-z
1/2-x,1/2+y,z
1/2+x,-y,z
loop_
_atom_site_type_symbol
_atom_site_label
_atom_site_fract_x
_atom_site_fract_y
_atom_site_fract_z
Si Si1 0.250000 0.000000 0.205624
Si Si2 0.267579 0.863010 0.689931
Si Si3 0.360750 0.971726 0.109648
Si Si4 0.850975 0.073648 0.518118
Si Si5 0.567723 0.547275 0.721760
Si Si6 0.877176 0.824210 0.167439
Si Si7 0.360657 0.821355 0.336094
Si Si8 0.147461 0.822650 0.911045
O O1 0.242312 0.064372 0.280096
O O2 0.194747 0.983269 0.133121
O O3 0.306505 0.877170 0.581757
O O4 0.312061 0.836496 0.783886
O O5 0.209460 0.821509 0.676750
O O6 0.332055 0.899189 0.094520
O O7 0.402316 0.986182 0.212446
O O8 0.390410 0.000000 0.000000
O O9 0.902447 0.057271 0.603203
O O10 0.872786 0.114913 0.412137
O O11 0.824606 0.000000 0.500000
O O12 0.500000 0.538601 0.715169
O O13 0.584878 0.614928 0.787715
O O14 0.894658 0.750000 0.206154
O O15 0.880354 0.823313 0.033423
O O16 0.378179 0.750000 0.386447
O O17 0.384365 0.822766 0.209247
O O18 0.179389 0.750000 0.909997
#
# Coordination Sequence:
#
# PCOD9504143 Si02
#       8
#     8  16  16  16  16  16  16  16
#     4  12  19  34  61  94 132 176 209 257 314 390
#     4  11  21  35  58  92 127 171 215 259 324 386
#     4  12  21  39  65  98 135 171 213 264 323 395
#     4  11  23  42  61  85 123 164 211 271 320 377
#     4  11  25  44  68  96 122 166 220 275 335 386
#     4  10  21  40  62  91 132 169 210 267 326 394
#     4  11  23  37  59  90 129 175 218 260 318 392
#     4  10  21  39  61  90 133 173 209 258 324 393
#
# _framework density 21.429355000000001
#
# number of rings (size 3 to 8) (size 9 to 14) (size 15 to 20)
#    0.000    1.067    5.333    2.600    0.000    5.067 
#    0.000    2.000    0.000    1.200    0.000    3.733 
#    0.000    0.000    0.000    0.000    0.000    0.000 
#
# Total GULP energy -334044.841053 kJ/mol
# GULP energy per Si atom -5567.414018 kJ/mol
# Density = 2.138058 g / cm^3
# Si number density = 21.429355 Si / 1000 Ang^3
#
#
#
# Elastic Constant Matrix: (Units=GPa)
#
#
# Indices 1 2 3 4 5 6 
#
# 1 73.4102 -4.2395 18.5816 0.0000 0.0000 0.0000
# 2 -4.2395 128.9949 35.4183 0.0000 0.0000 0.0000
# 3 18.5816 35.4183 123.7526 0.0000 0.0000 0.0000
# 4 0.0000 0.0000 0.0000 24.2622 0.0000 0.0000
# 5 0.0000 0.0000 0.0000 0.0000 0.3434 0.0000
# 6 0.0000 0.0000 0.0000 0.0000 0.0000 8.8658
#
#
#
# Elastic Compliance Matrix: (Units=1/GPa)
#
#
# Indices 1 2 3 4 5 6 
#
# 1 0.014316 0.001151 -0.002479 0.000000 0.000000 0.000000
# 2 0.001151 0.008506 -0.002607 0.000000 0.000000 0.000000
# 3 -0.002479 -0.002607 0.009199 0.000000 0.000000 0.000000
# 4 0.000000 0.000000 0.000000 0.041216 0.000000 0.000000
# 5 0.000000 0.000000 0.000000 0.000000 2.911886 0.000000
# 6 0.000000 0.000000 0.000000 0.000000 0.000000 0.112794
#
#
# Mechanical properties :
#
#
# Convention : Reuss Voigt Hill
#
# Bulk Modulus (GPa) = 41.40646 47.29760 44.35203
# Shear Modulus (GPa) = 1.60574 25.12076 13.36325
#
# Velocity S-wave (km/s) = 0.86657 3.42754 2.49990
# Velocity P-wave (km/s) = 4.51282 6.14682 5.39207
#
# Compressibility (1/GPa) = 0.02415082
#
# Stress axis : x y z
#
# Youngs Moduli (GPa) = 69.85166 117.56455 108.70650
#
# Poissons Ratio (x) = -0.13534 0.26949
# Poissons Ratio (y) = -0.08041 0.28343
# Poissons Ratio (z) = 0.17317 0.30652
#
# Static dielectric constant tensor:
#      x y z
#    x 1.740780 0.000000 0.000000 
#    y 0.000000 1.863100 0.000000 
#    z 0.000000 0.000000 1.876520 
# 
# From -- ./inp_files/22209.got.cif
#   From: 2010.05.17/outbox.cif.g08.bks.cpg/sg67_12_cif.got.tgz:22209.got - 2010.06.03 18:28:57.
