data_PCOD9504067
_publ_section_title
;
Structure prediction by ZEFSAII (Michael W. Deem and Ramdas Pophale) SiO2 
 PCOD9504067
Probable space group: C M M A
;
_chemical_formula_sum "Si O2"
_cell_formula_units_Z 64
_cell_length_a 16.050969
_cell_length_b 21.123623
_cell_length_c 8.984319
_cell_angle_alpha 90.000000
_cell_angle_beta 90.000000
_cell_angle_gamma 90.000000
_cell_volume 3046.174846
_symmetry_space_group_name_H-M "C M M A"
_symmetry_group_IT_number 67
_symmetry_cell_setting 'orthorhombic'
loop_
_space_group_symop_operation_xyz
x,y,z
-x,1/2-y,z
x,-y,-z
-x,1/2+y,-z
-x,-y,-z
x,1/2+y,-z
-x,y,z
x,1/2-y,z
1/2+x,1/2+y,z
1/2-x,-y,z
1/2+x,1/2-y,-z
1/2-x,y,-z
1/2-x,1/2-y,-z
1/2+x,y,-z
1/2-x,1/2+y,z
1/2+x,-y,z
loop_
_atom_site_type_symbol
_atom_site_label
_atom_site_fract_x
_atom_site_fract_y
_atom_site_fract_z
Si Si1 0.842576 0.435783 0.567616
Si Si2 0.403404 0.178421 0.614930
Si Si3 0.343878 0.677652 0.061125
Si Si4 0.903398 0.942515 0.109126
O O1 0.881067 0.500000 0.500000
O O2 0.750000 0.431884 0.500000
O O3 0.888192 0.373259 0.510366
O O4 0.846994 0.440924 0.744436
O O5 0.500000 0.175893 0.662206
O O6 0.385545 0.250000 0.562747
O O7 0.349030 0.165537 0.761946
O O8 0.374467 0.750000 0.038163
O O9 0.250000 0.674453 0.000000
O O10 0.394561 0.623519 0.977460
O O11 0.000000 0.952104 0.153893
O O12 0.879822 0.000000 0.000000
#
# Coordination Sequence:
#
# PCOD9504067 Si02
#       4
#    16  16  16  16
#     4  11  24  41  61  88 120 158 204 251 305 364
#     4  10  21  38  61  88 120 160 202 245 297 358
#     4  10  21  38  61  89 121 159 203 251 304 361
#     4  11  24  40  62  92 124 161 204 253 308 366
#
# _framework density 21.009955999999999
#
# number of rings (size 3 to 8) (size 9 to 14) (size 15 to 20)
#    0.000    1.500    0.000    4.500    0.000    9.500 
#    0.000    0.000    0.000    0.000    0.000    0.000 
#    0.000    0.000    0.000    0.000    0.000    0.000 
#
# Total GULP energy -178923.249936 kJ/mol
# GULP energy per Si atom -5591.351560 kJ/mol
# Density = 2.096214 g / cm^3
# Si number density = 21.009956 Si / 1000 Ang^3
#
#
#
# Elastic Constant Matrix: (Units=GPa)
#
#
# Indices 1 2 3 4 5 6 
#
# 1 61.3604 23.1710 36.4306 0.0000 0.0000 0.0000
# 2 23.1710 130.4978 80.9701 0.0000 0.0000 0.0000
# 3 36.4306 80.9701 128.7451 0.0000 0.0000 0.0000
# 4 0.0000 0.0000 0.0000 40.1489 0.0000 0.0000
# 5 0.0000 0.0000 0.0000 0.0000 22.6917 0.0000
# 6 0.0000 0.0000 0.0000 0.0000 0.0000 27.0693
#
#
#
# Elastic Compliance Matrix: (Units=1/GPa)
#
#
# Indices 1 2 3 4 5 6 
#
# 1 0.019588 -0.000064 -0.005503 0.000000 0.000000 0.000000
# 2 -0.000064 0.012567 -0.007886 0.000000 0.000000 0.000000
# 3 -0.005503 -0.007886 0.014284 0.000000 0.000000 0.000000
# 4 0.000000 0.000000 0.000000 0.024907 0.000000 0.000000
# 5 0.000000 0.000000 0.000000 0.000000 0.044069 0.000000
# 6 0.000000 0.000000 0.000000 0.000000 0.000000 0.036942
#
#
# Mechanical properties :
#
#
# Convention : Reuss Voigt Hill
#
# Bulk Modulus (GPa) = 51.19040 66.86074 59.02557
# Shear Modulus (GPa) = 26.91450 29.98410 28.44930
#
# Velocity S-wave (km/s) = 3.58304 3.78185 3.68378
# Velocity P-wave (km/s) = 6.44479 7.13879 6.80064
#
# Compressibility (1/GPa) = 0.01953491
#
# Stress axis : x y z
#
# Youngs Moduli (GPa) = 51.05086 79.57300 70.00954
#
# Poissons Ratio (x) = 0.00508 0.38524
# Poissons Ratio (y) = 0.00326 0.55207
# Poissons Ratio (z) = 0.28092 0.62748
#
# Static dielectric constant tensor:
#      x y z
#    x 1.803520 0.000000 0.000000 
#    y 0.000000 1.754780 0.000000 
#    z 0.000000 0.000000 1.718780 
# 
# From -- ./inp_files/7992.got.cif
#   From: 2010.05.17/outbox.cif.g08.bks.cpg/sg67_4_cif.got.tgz:7992.got - 2010.06.03 18:28:57.
