data_PCOD9504353
_publ_section_title
;
Structure prediction by ZEFSAII (Michael W. Deem and Ramdas Pophale) SiO2 
 PCOD9504353
Probable space group: C M M A
;
_chemical_formula_sum "Si O2"
_cell_formula_units_Z 112
_cell_length_a 16.451975
_cell_length_b 16.459333
_cell_length_c 18.095567
_cell_angle_alpha 90.000000
_cell_angle_beta 90.000000
_cell_angle_gamma 90.000000
_cell_volume 4900.072079
_symmetry_space_group_name_H-M "C M M A"
_symmetry_group_IT_number 67
_symmetry_cell_setting 'orthorhombic'
loop_
_space_group_symop_operation_xyz
x,y,z
-x,1/2-y,z
x,-y,-z
-x,1/2+y,-z
-x,-y,-z
x,1/2+y,-z
-x,y,z
x,1/2-y,z
1/2+x,1/2+y,z
1/2-x,-y,z
1/2+x,1/2-y,-z
1/2-x,y,-z
1/2-x,1/2-y,-z
1/2+x,y,-z
1/2-x,1/2+y,z
1/2+x,-y,z
loop_
_atom_site_type_symbol
_atom_site_label
_atom_site_fract_x
_atom_site_fract_y
_atom_site_fract_z
Si Si1 0.163581 0.160795 0.669832
Si Si2 0.314233 0.336775 0.566533
Si Si3 0.860876 0.090365 0.966905
Si Si4 0.151671 0.510553 0.627450
Si Si5 0.295534 0.158273 0.895075
Si Si6 0.588087 0.391819 0.184865
Si Si7 0.092500 0.921905 0.781597
O O1 0.128958 0.250000 0.653704
O O2 0.256023 0.163890 0.639348
O O3 0.153530 0.143218 0.757545
O O4 0.123172 0.082803 0.629623
O O5 0.358846 0.250000 0.564259
O O6 0.250000 0.337718 0.500000
O O7 0.360739 0.422236 0.564360
O O8 0.774006 0.096172 0.922986
O O9 0.912533 0.129051 0.900938
O O10 0.858574 0.148291 0.037604
O O11 0.878094 0.000000 0.000000
O O12 0.250000 0.500000 0.634075
O O13 0.113885 0.555286 0.698070
O O14 0.263700 0.250000 0.892354
O O15 0.341523 0.133738 0.821038
O O16 0.500000 0.372510 0.218462
O O17 0.597353 0.489324 0.180809
O O18 0.000000 0.891370 0.787862
#
# Coordination Sequence:
#
# PCOD9504353 Si02
#       7
#    16  16  16  16  16  16  16
#     4   9  19  34  53  83 120 155 193 247 305 367
#     4   9  18  34  58  90 123 157 204 260 309 359
#     4  11  22  38  62  83 111 151 199 253 308 371
#     4   9  19  33  57  87 117 155 201 250 304 364
#     4  11  24  38  55  81 112 148 192 250 308 367
#     4  10  22  38  59  84 113 153 201 248 304 370
#     4  10  22  38  57  82 114 153 197 244 300 366
#
# _framework density 22.856805999999999
#
# number of rings (size 3 to 8) (size 9 to 14) (size 15 to 20)
#    0.000    2.143    1.429    1.714    6.000    5.714 
#    0.000    0.000    0.000    0.857    0.000    9.000 
#    0.000    0.000    0.000    0.000    0.000    0.000 
#
# Total GULP energy -311807.491434 kJ/mol
# GULP energy per Si atom -5567.990918 kJ/mol
# Density = 2.280478 g / cm^3
# Si number density = 22.856806 Si / 1000 Ang^3
#
#
#
# Elastic Constant Matrix: (Units=GPa)
#
#
# Indices 1 2 3 4 5 6 
#
# 1 41.3542 10.6000 5.8444 0.0000 0.0000 0.0000
# 2 10.6000 167.9052 31.8993 0.0000 0.0000 0.0000
# 3 5.8444 31.8993 44.2562 0.0000 0.0000 0.0000
# 4 0.0000 0.0000 0.0000 10.3508 0.0000 0.0000
# 5 0.0000 0.0000 0.0000 0.0000 8.7219 0.0000
# 6 0.0000 0.0000 0.0000 0.0000 0.0000 -1.3960
#
#
#
# Elastic Compliance Matrix: (Units=1/GPa)
#
#
# Indices 1 2 3 4 5 6 
#
# 1 0.024813 -0.001094 -0.002488 0.000000 0.000000 0.000000
# 2 -0.001094 0.006949 -0.004864 0.000000 0.000000 0.000000
# 3 -0.002488 -0.004864 0.026430 0.000000 0.000000 0.000000
# 4 0.000000 0.000000 0.000000 0.096611 0.000000 0.000000
# 5 0.000000 0.000000 0.000000 0.000000 0.114654 0.000000
# 6 0.000000 0.000000 0.000000 0.000000 0.000000 -0.716337
#
#
# Mechanical properties :
#
#
# Convention : Reuss Voigt Hill
#
# Bulk Modulus (GPa) = 24.21319 38.91143 31.56231
# Shear Modulus (GPa) = -12.01288 17.21346 2.60029
#
# Velocity S-wave (km/s) = -2.29502 2.74724 1.06776
# Velocity P-wave (km/s) = 1.89568 5.20808 3.91904
#
# Compressibility (1/GPa) = 0.04129980
#
# Stress axis : x y z
#
# Youngs Moduli (GPa) = 40.30087 143.90725 37.83519
#
# Poissons Ratio (x) = 0.15739 0.09415
# Poissons Ratio (y) = 0.04408 0.18404
# Poissons Ratio (z) = 0.10029 0.70000
#
# Static dielectric constant tensor:
#      x y z
#    x 1.996980 0.000000 0.000000 
#    y 0.000000 1.918840 0.000000 
#    z 0.000000 0.000000 1.961150 
# 
# From -- ./inp_files/35112.got.cif
#   From: 2010.05.17/outbox.cif.g08.bks.cpg/sg67_18_cif.got.tgz:35112.got - 2010.06.03 18:28:57.
