data_PCOD9504473
_publ_section_title
;
Structure prediction by ZEFSAII (Michael W. Deem and Ramdas Pophale) SiO2 
 PCOD9504473
Probable space group: C M M A
;
_chemical_formula_sum "Si O2"
_cell_formula_units_Z 88
_cell_length_a 26.997495
_cell_length_b 13.200922
_cell_length_c 14.887355
_cell_angle_alpha 90.000000
_cell_angle_beta 90.000000
_cell_angle_gamma 90.000000
_cell_volume 5305.731628
_symmetry_space_group_name_H-M "C M M A"
_symmetry_group_IT_number 67
_symmetry_cell_setting 'orthorhombic'
loop_
_space_group_symop_operation_xyz
x,y,z
-x,1/2-y,z
x,-y,-z
-x,1/2+y,-z
-x,-y,-z
x,1/2+y,-z
-x,y,z
x,1/2-y,z
1/2+x,1/2+y,z
1/2-x,-y,z
1/2+x,1/2-y,-z
1/2-x,y,-z
1/2-x,1/2-y,-z
1/2+x,y,-z
1/2-x,1/2+y,z
1/2+x,-y,z
loop_
_atom_site_type_symbol
_atom_site_label
_atom_site_fract_x
_atom_site_fract_y
_atom_site_fract_z
Si Si1 0.291559 0.250000 0.730306
Si Si2 0.871116 0.579147 0.420099
Si Si3 0.440843 0.250000 0.705724
Si Si4 0.773580 0.750000 0.099290
Si Si5 0.441329 0.250000 0.490583
Si Si6 0.788597 0.250000 0.581842
Si Si7 0.132304 0.574453 0.741946
Si Si8 0.806725 0.970621 0.104240
O O1 0.272958 0.250000 0.832752
O O2 0.242846 0.250000 0.671789
O O3 0.324274 0.348752 0.709823
O O4 0.865518 0.500000 0.500000
O O5 0.916986 0.651983 0.444459
O O6 0.823693 0.652268 0.419123
O O7 0.876379 0.514916 0.329192
O O8 0.500000 0.250000 0.717159
O O9 0.429765 0.250000 0.597860
O O10 0.414816 0.350290 0.746695
O O11 0.806175 0.849760 0.113185
O O12 0.750000 0.750000 0.000000
O O13 0.500000 0.250000 0.481156
O O14 0.750000 0.250000 0.500000
O O15 0.153460 0.525946 0.833364
O O16 0.750000 0.000000 0.130396
O O17 0.812869 0.000000 0.000000
#
# Coordination Sequence:
#
# PCOD9504473 Si02
#       8
#     8  16   8   8   8   8  16  16
#     4  11  21  33  51  75 108 158 192 225 270 331
#     4  11  22  36  52  79 110 144 187 234 283 346
#     4  10  22  41  65  87 109 144 201 258 303 355
#     4  12  19  32  54  83 119 153 199 234 270 333
#     4  10  22  41  60  81 106 139 186 248 307 350
#     4  11  24  33  45  68 111 156 188 212 261 341
#     4  11  22  36  58  83 116 150 196 243 291 346
#     4  11  21  36  57  87 123 162 198 236 284 335
#
# _framework density 16.585837000000001
#
# number of rings (size 3 to 8) (size 9 to 14) (size 15 to 20)
#    0.000    1.091    5.455    2.182    2.545    4.364 
#    0.000    0.000    0.000    0.545    0.000    1.273 
#    0.000    0.000    0.000    0.000    0.000    0.000 
#
# Total GULP energy -245670.614541 kJ/mol
# GULP energy per Si atom -5583.423058 kJ/mol
# Density = 1.654809 g / cm^3
# Si number density = 16.585837 Si / 1000 Ang^3
#
#
#
# Elastic Constant Matrix: (Units=GPa)
#
#
# Indices 1 2 3 4 5 6 
#
# 1 108.9685 61.2432 52.7281 0.0000 0.0000 0.0000
# 2 61.2432 151.2608 42.0619 0.0000 0.0000 0.0000
# 3 52.7281 42.0619 86.3490 0.0000 0.0000 0.0000
# 4 0.0000 0.0000 0.0000 30.0602 0.0000 0.0000
# 5 0.0000 0.0000 0.0000 0.0000 22.5455 0.0000
# 6 0.0000 0.0000 0.0000 0.0000 0.0000 7.3550
#
#
#
# Elastic Compliance Matrix: (Units=1/GPa)
#
#
# Indices 1 2 3 4 5 6 
#
# 1 0.014903 -0.004052 -0.007126 0.000000 0.000000 0.000000
# 2 -0.004052 0.008749 -0.001787 0.000000 0.000000 0.000000
# 3 -0.007126 -0.001787 0.016803 0.000000 0.000000 0.000000
# 4 0.000000 0.000000 0.000000 0.033267 0.000000 0.000000
# 5 0.000000 0.000000 0.000000 0.000000 0.044355 0.000000
# 6 0.000000 0.000000 0.000000 0.000000 0.000000 0.135961
#
#
# Mechanical properties :
#
#
# Convention : Reuss Voigt Hill
#
# Bulk Modulus (GPa) = 68.85572 73.18273 71.01923
# Shear Modulus (GPa) = 17.55557 24.69514 21.12535
#
# Velocity S-wave (km/s) = 3.25694 3.86285 3.57276
# Velocity P-wave (km/s) = 7.46649 8.00718 7.74155
#
# Compressibility (1/GPa) = 0.01452312
#
# Stress axis : x y z
#
# Youngs Moduli (GPa) = 67.10182 114.30182 59.51296
#
# Poissons Ratio (x) = 0.46318 0.42411
# Poissons Ratio (y) = 0.27191 0.10636
# Poissons Ratio (z) = 0.47819 0.20428
#
# Static dielectric constant tensor:
#      x y z
#    x 1.531950 0.000000 0.000000 
#    y 0.000000 1.580660 0.000000 
#    z 0.000000 0.000000 1.450270 
# 
# From -- ./inp_files/30716.got.cif
#   From: 2010.05.17/outbox.cif.g08.bks.cpg/sg67_16_cif.got.tgz:30716.got - 2010.06.03 18:28:57.
