data_PCOD9504974
_publ_section_title
;
Structure prediction by ZEFSAII (Michael W. Deem and Ramdas Pophale) SiO2 
 PCOD9504974
Probable space group: C M M A
;
_chemical_formula_sum "Si O2"
_cell_formula_units_Z 80
_cell_length_a 17.613779
_cell_length_b 9.520843
_cell_length_c 26.584487
_cell_angle_alpha 90.000000
_cell_angle_beta 90.000000
_cell_angle_gamma 90.000000
_cell_volume 4458.165952
_symmetry_space_group_name_H-M "C M M A"
_symmetry_group_IT_number 67
_symmetry_cell_setting 'orthorhombic'
loop_
_space_group_symop_operation_xyz
x,y,z
-x,1/2-y,z
x,-y,-z
-x,1/2+y,-z
-x,-y,-z
x,1/2+y,-z
-x,y,z
x,1/2-y,z
1/2+x,1/2+y,z
1/2-x,-y,z
1/2+x,1/2-y,-z
1/2-x,y,-z
1/2-x,1/2-y,-z
1/2+x,y,-z
1/2-x,1/2+y,z
1/2+x,-y,z
loop_
_atom_site_type_symbol
_atom_site_label
_atom_site_fract_x
_atom_site_fract_y
_atom_site_fract_z
Si Si1 0.091507 0.585401 0.339630
Si Si2 0.092754 0.588489 0.048601
Si Si3 0.590882 0.912550 0.144935
Si Si4 0.907602 0.412852 0.547661
Si Si5 0.828672 0.917490 0.748472
O O1 0.112853 0.750000 0.331888
O O2 0.116216 0.542583 0.396199
O O3 0.124785 0.485316 0.297308
O O4 0.000000 0.579948 0.337994
O O5 0.116983 0.750000 0.045849
O O6 0.117033 0.514012 0.100240
O O7 0.000000 0.587080 0.048538
O O8 0.117250 0.500000 0.000000
O O9 0.500000 0.928057 0.150270
O O10 0.605633 0.750000 0.130795
O O11 0.628626 0.940269 0.198569
O O12 0.879500 0.500000 0.500000
O O13 0.887463 0.250000 0.541606
O O14 0.000000 0.420707 0.547538
O O15 0.818959 0.750000 0.741698
O O16 0.750000 0.000000 0.750485
#
# Coordination Sequence:
#
# PCOD9504974 Si02
#       5
#    16  16  16  16  16
#     4   9  18  33  53  77 105 135 168 208 252 299
#     4   9  16  26  44  72 103 132 161 196 241 291
#     4   9  18  33  52  74 100 129 164 206 248 294
#     4   8  14  25  43  70 102 132 161 197 243 293
#     4  11  23  37  53  73 100 135 173 213 258 305
#
# _framework density 17.944597999999999
#
# number of rings (size 3 to 8) (size 9 to 14) (size 15 to 20)
#    0.000    2.800    0.000    3.000    0.000    6.000 
#    0.000    4.000    0.000    1.200    0.000    8.400 
#    0.000    0.000    0.000    0.000    0.000    0.000 
#
# Total GULP energy -222995.954595 kJ/mol
# GULP energy per Si atom -5574.898865 kJ/mol
# Density = 1.790376 g / cm^3
# Si number density = 17.944598 Si / 1000 Ang^3
#
#
#
# Elastic Constant Matrix: (Units=GPa)
#
#
# Indices 1 2 3 4 5 6 
#
# 1 14.4137 34.1678 35.9807 0.0000 0.0000 0.0000
# 2 34.1678 135.1558 130.7276 0.0000 0.0000 0.0000
# 3 35.9807 130.7276 190.5003 0.0000 0.0000 0.0000
# 4 0.0000 0.0000 0.0000 41.9283 0.0000 0.0000
# 5 0.0000 0.0000 0.0000 0.0000 -9.3101 0.0000
# 6 0.0000 0.0000 0.0000 0.0000 0.0000 16.3468
#
#
#
# Elastic Compliance Matrix: (Units=1/GPa)
#
#
# Indices 1 2 3 4 5 6 
#
# 1 0.177249 -0.036961 -0.008114 0.000000 0.000000 0.000000
# 2 -0.036961 0.029711 -0.013408 0.000000 0.000000 0.000000
# 3 -0.008114 -0.013408 0.015983 0.000000 0.000000 0.000000
# 4 0.000000 0.000000 0.000000 0.023850 0.000000 0.000000
# 5 0.000000 0.000000 0.000000 0.000000 -0.107411 0.000000
# 6 0.000000 0.000000 0.000000 0.000000 0.000000 0.061174
#
#
# Mechanical properties :
#
#
# Convention : Reuss Voigt Hill
#
# Bulk Modulus (GPa) = 9.43598 82.42468 45.93033
# Shear Modulus (GPa) = 14.17039 19.07258 16.62149
#
# Velocity S-wave (km/s) = 2.81316 3.26369 3.04677
# Velocity P-wave (km/s) = 3.97765 7.76111 6.16670
#
# Compressibility (1/GPa) = 0.10597735
#
# Stress axis : x y z
#
# Youngs Moduli (GPa) = 5.64179 33.65723 62.56703
#
# Poissons Ratio (x) = 1.24400 0.50768
# Poissons Ratio (y) = 0.20852 0.83889
# Poissons Ratio (z) = 0.04578 0.45127
#
# Static dielectric constant tensor:
#      x y z
#    x 1.601040 0.000000 0.000000 
#    y 0.000000 1.600240 0.000000 
#    z 0.000000 0.000000 1.609420 
# 
# From -- ./inp_files/43265.got.cif
#   From: 2010.05.17/outbox.cif.g08.bks.cpg/sg67_22_cif.got.tgz:43265.got - 2010.06.03 18:28:57.
