data_PCOD9504846
_publ_section_title
;
Structure prediction by ZEFSAII (Michael W. Deem and Ramdas Pophale) SiO2 
 PCOD9504846
Probable space group: C M M A
;
_chemical_formula_sum "Si O2"
_cell_formula_units_Z 116
_cell_length_a 18.807303
_cell_length_b 14.889587
_cell_length_c 23.801907
_cell_angle_alpha 90.000000
_cell_angle_beta 90.000000
_cell_angle_gamma 90.000000
_cell_volume 6665.318810
_symmetry_space_group_name_H-M "C M M A"
_symmetry_group_IT_number 67
_symmetry_cell_setting 'orthorhombic'
loop_
_space_group_symop_operation_xyz
x,y,z
-x,1/2-y,z
x,-y,-z
-x,1/2+y,-z
-x,-y,-z
x,1/2+y,-z
-x,y,z
x,1/2-y,z
1/2+x,1/2+y,z
1/2-x,-y,z
1/2+x,1/2-y,-z
1/2-x,y,-z
1/2-x,1/2-y,-z
1/2+x,y,-z
1/2-x,1/2+y,z
1/2+x,-y,z
loop_
_atom_site_type_symbol
_atom_site_label
_atom_site_fract_x
_atom_site_fract_y
_atom_site_fract_z
Si Si1 0.500000 0.750000 0.763716
Si Si2 0.679318 0.644016 0.424480
Si Si3 0.834145 0.991492 0.136397
Si Si4 0.417179 0.500638 0.631801
Si Si5 0.077491 0.436972 0.758752
Si Si6 0.155367 0.644088 0.444174
Si Si7 0.417534 0.857096 0.941764
Si Si8 0.416669 0.355566 0.925793
O O1 0.560884 0.830680 0.762961
O O2 0.669639 0.750000 0.413326
O O3 0.634138 0.581353 0.384019
O O4 0.763867 0.625398 0.423570
O O5 0.655165 0.627044 0.488969
O O6 0.864119 0.969360 0.197835
O O7 0.864293 0.913067 0.096005
O O8 0.750000 0.000000 0.135199
O O9 0.868760 0.082107 0.112244
O O10 0.500000 0.475882 0.625668
O O11 0.406067 0.535940 0.694989
O O12 0.397728 0.581104 0.589303
O O13 0.000000 0.479487 0.773692
O O14 0.141232 0.750000 0.435507
O O15 0.500000 0.880700 0.927891
O O16 0.410799 0.750000 0.932927
O O17 0.406115 0.875393 0.007822
O O18 0.500000 0.371897 0.914287
O O19 0.402632 0.250000 0.917771
#
# Coordination Sequence:
#
# PCOD9504846 Si02
#       8
#     4  16  16  16  16  16  16  16
#     4   8  20  44  68  80  94 144 194 248 276 322
#     4   9  19  37  54  79 112 153 192 216 257 330
#     4  12  24  35  53  85 118 143 177 230 287 333
#     4  11  22  34  56  83 111 139 178 235 293 329
#     4   9  22  40  61  80 104 138 188 231 279 330
#     4   9  19  34  57  80 110 150 189 225 265 325
#     4   9  19  35  61  86 107 145 195 231 266 320
#     4   9  19  38  58  80 111 152 191 222 262 328
#
# _framework density 17.403517999999998
#
# number of rings (size 3 to 8) (size 9 to 14) (size 15 to 20)
#    0.414    1.931    0.000    4.138    1.931    6.621 
#    0.000    3.448    0.000    0.828    0.000    0.000 
#    0.000    0.000    0.000    0.000    0.000    0.000 
#
# Total GULP energy -323082.625552 kJ/mol
# GULP energy per Si atom -5570.390096 kJ/mol
# Density = 1.736391 g / cm^3
# Si number density = 17.403518 Si / 1000 Ang^3
#
#
#
# Elastic Constant Matrix: (Units=GPa)
#
#
# Indices 1 2 3 4 5 6 
#
# 1 82.5483 49.9416 50.5388 0.0000 0.0000 0.0000
# 2 49.9416 55.3284 34.5063 0.0000 0.0000 0.0000
# 3 50.5388 34.5063 49.9893 0.0000 0.0000 0.0000
# 4 0.0000 0.0000 0.0000 15.9138 0.0000 0.0000
# 5 0.0000 0.0000 0.0000 0.0000 -134.4704 0.0000
# 6 0.0000 0.0000 0.0000 0.0000 0.0000 20.9243
#
#
#
# Elastic Compliance Matrix: (Units=1/GPa)
#
#
# Indices 1 2 3 4 5 6 
#
# 1 0.041220 -0.019696 -0.028078 0.000000 0.000000 0.000000
# 2 -0.019696 0.041148 -0.008491 0.000000 0.000000 0.000000
# 3 -0.028078 -0.008491 0.054251 0.000000 0.000000 0.000000
# 4 0.000000 0.000000 0.000000 0.062838 0.000000 0.000000
# 5 0.000000 0.000000 0.000000 0.000000 -0.007437 0.000000
# 6 0.000000 0.000000 0.000000 0.000000 0.000000 0.047791
#
#
# Mechanical properties :
#
#
# Convention : Reuss Voigt Hill
#
# Bulk Modulus (GPa) = 41.50988 50.87105 46.19046
# Shear Modulus (GPa) = 13.87458 -16.00116 -1.06329
#
# Velocity S-wave (km/s) = 2.82659 -3.03549 -0.78249
# Velocity P-wave (km/s) = 5.87843 4.12410 5.07761
#
# Compressibility (1/GPa) = 0.02409065
#
# Stress axis : x y z
#
# Youngs Moduli (GPa) = 24.25992 24.30280 18.43269
#
# Poissons Ratio (x) = 0.47867 0.51755
# Poissons Ratio (y) = 0.47782 0.15650
# Poissons Ratio (z) = 0.68116 0.20635
#
# Static dielectric constant tensor:
#      x y z
#    x 1.576370 0.000000 0.000000 
#    y 0.000000 1.589910 0.000000 
#    z 0.000000 0.000000 1.589740 
# 
# From -- ./inp_files/42229.got.cif
#   From: 2010.05.17/outbox.cif.g08.bks.cpg/sg67_22_cif.got.tgz:42229.got - 2010.06.03 18:28:57.
