data_PCOD9504381
_publ_section_title
;
Structure prediction by ZEFSAII (Michael W. Deem and Ramdas Pophale) SiO2 
 PCOD9504381
Probable space group: C M M A
;
_chemical_formula_sum "Si O2"
_cell_formula_units_Z 56
_cell_length_a 20.747885
_cell_length_b 14.836898
_cell_length_c 9.327958
_cell_angle_alpha 90.000000
_cell_angle_beta 90.000000
_cell_angle_gamma 90.000000
_cell_volume 2871.464987
_symmetry_space_group_name_H-M "C M M A"
_symmetry_group_IT_number 67
_symmetry_cell_setting 'orthorhombic'
loop_
_space_group_symop_operation_xyz
x,y,z
-x,1/2-y,z
x,-y,-z
-x,1/2+y,-z
-x,-y,-z
x,1/2+y,-z
-x,y,z
x,1/2-y,z
1/2+x,1/2+y,z
1/2-x,-y,z
1/2+x,1/2-y,-z
1/2-x,y,-z
1/2-x,1/2-y,-z
1/2+x,y,-z
1/2-x,1/2+y,z
1/2+x,-y,z
loop_
_atom_site_type_symbol
_atom_site_label
_atom_site_fract_x
_atom_site_fract_y
_atom_site_fract_z
Si Si1 0.618107 0.111211 0.164492
Si Si2 0.863356 0.250000 0.334183
Si Si3 0.930777 0.750000 0.381828
Si Si4 0.730425 0.250000 0.166181
Si Si5 0.923263 0.090091 0.158572
O O1 0.574520 0.163844 0.278416
O O2 0.613243 0.004341 0.184076
O O3 0.686446 0.160849 0.184345
O O4 0.594456 0.125266 0.000917
O O5 0.873186 0.250000 0.504187
O O6 0.791317 0.250000 0.271067
O O7 0.899592 0.163047 0.271143
O O8 0.000000 0.750000 0.457615
O O9 0.750000 0.250000 0.000000
O O10 0.000000 0.074645 0.164485
#
# Coordination Sequence:
#
# PCOD9504381 Si02
#       5
#    16   8   8   8  16
#     4  10  22  38  65  89 121 166 211 269 316 374
#     4  12  25  38  60  91 130 174 207 257 324 380
#     4  11  22  40  62  93 131 171 209 265 334 392
#     4  11  21  43  62  92 124 164 214 256 313 385
#     4  11  21  39  63  96 123 160 218 271 319 373
#
# _framework density 19.502241000000001
#
# number of rings (size 3 to 8) (size 9 to 14) (size 15 to 20)
#    0.000    1.143    2.857    5.571    0.000    4.571 
#    0.000    2.857    0.000    6.857    0.000    0.000 
#    0.000    0.000    0.000    0.000    0.000    0.000 
#
# Total GULP energy -156395.132911 kJ/mol
# GULP energy per Si atom -5585.540461 kJ/mol
# Density = 1.945785 g / cm^3
# Si number density = 19.502241 Si / 1000 Ang^3
#
#
#
# Elastic Constant Matrix: (Units=GPa)
#
#
# Indices 1 2 3 4 5 6 
#
# 1 118.1494 38.2065 42.0132 0.0000 0.0000 0.0000
# 2 38.2065 120.3212 61.8259 0.0000 0.0000 0.0000
# 3 42.0132 61.8259 98.2380 0.0000 0.0000 0.0000
# 4 0.0000 0.0000 0.0000 -5.8072 0.0000 0.0000
# 5 0.0000 0.0000 0.0000 0.0000 31.4959 0.0000
# 6 0.0000 0.0000 0.0000 0.0000 0.000019206.4745
#
#
#
# Elastic Compliance Matrix: (Units=1/GPa)
#
#
# Indices 1 2 3 4 5 6 
#
# 1 0.010154 -0.001467 -0.003419 0.000000 0.000000 0.000000
# 2 -0.001467 0.012495 -0.007236 0.000000 0.000000 0.000000
# 3 -0.003419 -0.007236 0.016196 0.000000 0.000000 0.000000
# 4 0.000000 0.000000 0.000000 -0.172199 0.000000 0.000000
# 5 0.000000 0.000000 0.000000 0.000000 0.031750 0.000000
# 6 0.000000 0.000000 0.000000 0.000000 0.000000 0.000052
#
#
# Mechanical properties :
#
#
# Convention : Reuss Voigt Hill
#
# Bulk Modulus (GPa) = 68.49525 68.97778 68.73652
# Shear Modulus (GPa) = -69.02375 3859.41016 1895.19321
#
# Velocity S-wave (km/s) = -5.95563 44.53373 31.20724
# Velocity P-wave (km/s) = 3.47775 51.76663 36.52184
#
# Compressibility (1/GPa) = 0.01459955
#
# Stress axis : x y z
#
# Youngs Moduli (GPa) = 98.48130 80.02936 61.74442
#
# Poissons Ratio (x) = 0.11744 0.21111
# Poissons Ratio (y) = 0.14452 0.44681
# Poissons Ratio (z) = 0.33671 0.57912
#
# Static dielectric constant tensor:
#      x y z
#    x 1.695790 0.000000 0.000000 
#    y 0.000000 1.666890 0.000000 
#    z 0.000000 0.000000 1.663970 
# 
# From -- ./inp_files/7714.got.cif
#   From: 2010.05.17/outbox.cif.g08.bks.cpg/sg67_4_cif.got.tgz:7714.got - 2010.06.03 18:28:57.
