data_PCOD9504092
_publ_section_title
;
Structure prediction by ZEFSAII (Michael W. Deem and Ramdas Pophale) SiO2 
 PCOD9504092
Probable space group: C M M A
;
_chemical_formula_sum "Si O2"
_cell_formula_units_Z 88
_cell_length_a 10.894889
_cell_length_b 14.601603
_cell_length_c 27.977547
_cell_angle_alpha 90.000000
_cell_angle_beta 90.000000
_cell_angle_gamma 90.000000
_cell_volume 4450.747742
_symmetry_space_group_name_H-M "C M M A"
_symmetry_group_IT_number 67
_symmetry_cell_setting 'orthorhombic'
loop_
_space_group_symop_operation_xyz
x,y,z
-x,1/2-y,z
x,-y,-z
-x,1/2+y,-z
-x,-y,-z
x,1/2+y,-z
-x,y,z
x,1/2-y,z
1/2+x,1/2+y,z
1/2-x,-y,z
1/2+x,1/2-y,-z
1/2-x,y,-z
1/2-x,1/2-y,-z
1/2+x,y,-z
1/2-x,1/2+y,z
1/2+x,-y,z
loop_
_atom_site_type_symbol
_atom_site_label
_atom_site_fract_x
_atom_site_fract_y
_atom_site_fract_z
Si Si1 0.356567 0.567138 0.400521
Si Si2 0.136570 0.250000 0.464112
Si Si3 0.632864 0.601133 0.857349
Si Si4 0.852462 0.145930 0.298348
Si Si5 0.137221 0.639265 0.033607
Si Si6 0.136649 0.098634 0.192001
O O1 0.500000 0.533157 0.400785
O O2 0.250000 0.500000 0.419214
O O3 0.356585 0.660317 0.430922
O O4 0.317844 0.593601 0.346383
O O5 0.250000 0.250000 0.500000
O O6 0.000000 0.250000 0.487218
O O7 0.500000 0.645115 0.848583
O O8 0.646704 0.594209 0.914283
O O9 0.753899 0.646836 0.836207
O O10 0.627769 0.502201 0.831449
O O11 0.803494 0.250000 0.297682
O O12 0.827392 0.098219 0.247774
O O13 0.000000 0.152187 0.301452
O O14 0.143963 0.750000 0.040482
O O15 0.000000 0.619430 0.014030
O O16 0.250000 0.612586 0.000000
O O17 0.000000 0.139598 0.188400
#
# Coordination Sequence:
#
# PCOD9504092 Si02
#       6
#    16   8  16  16  16  16
#     4  10  21  38  62  92 125 164 209 259 313 366
#     4  10  22  42  66  92 128 172 214 262 319 376
#     4   9  18  32  48  70 104 136 166 212 277 334
#     4   9  17  33  57  82 112 152 198 242 287 343
#     4   9  18  33  52  72  96 130 170 216 272 335
#     4   9  18  31  49  73  99 135 179 219 258 317
#
# _framework density 19.771958000000001
#
# number of rings (size 3 to 8) (size 9 to 14) (size 15 to 20)
#    0.000    2.727    0.909    0.000    2.545    2.545 
#    0.000    3.636    0.000   10.909    0.000    0.000 
#    0.000    0.000    0.000    0.000    0.000    0.000 
#
# Total GULP energy -245086.948900 kJ/mol
# GULP energy per Si atom -5570.157930 kJ/mol
# Density = 1.972696 g / cm^3
# Si number density = 19.771958 Si / 1000 Ang^3
#
#
#
# Elastic Constant Matrix: (Units=GPa)
#
#
# Indices 1 2 3 4 5 6 
#
# 1 171.9313 31.5867 63.2735 0.0000 0.0000 0.0000
# 2 31.5867 90.1197 17.4267 0.0000 0.0000 0.0000
# 3 63.2735 17.4267 81.5324 0.0000 0.0000 0.0000
# 4 0.0000 0.0000 0.0000 20.0599 0.0000 0.0000
# 5 0.0000 0.0000 0.0000 0.0000 36.2765 0.0000
# 6 0.0000 0.0000 0.0000 0.0000 0.0000 8.1726
#
#
#
# Elastic Compliance Matrix: (Units=1/GPa)
#
#
# Indices 1 2 3 4 5 6 
#
# 1 0.008400 -0.001756 -0.006143 0.000000 0.000000 0.000000
# 2 -0.001756 0.011942 -0.001190 0.000000 0.000000 0.000000
# 3 -0.006143 -0.001190 0.017287 0.000000 0.000000 0.000000
# 4 0.000000 0.000000 0.000000 0.049851 0.000000 0.000000
# 5 0.000000 0.000000 0.000000 0.000000 0.027566 0.000000
# 6 0.000000 0.000000 0.000000 0.000000 0.000000 0.122359
#
#
# Mechanical properties :
#
#
# Convention : Reuss Voigt Hill
#
# Bulk Modulus (GPa) = 51.41270 63.12856 57.27063
# Shear Modulus (GPa) = 19.07914 28.32157 23.70036
#
# Velocity S-wave (km/s) = 3.10975 3.78883 3.46596
# Velocity P-wave (km/s) = 6.24126 7.15108 6.71160
#
# Compressibility (1/GPa) = 0.01945045
#
# Stress axis : x y z
#
# Youngs Moduli (GPa) = 119.05139 83.73865 57.84747
#
# Poissons Ratio (x) = 0.14706 0.35537
# Poissons Ratio (y) = 0.20907 0.06882
# Poissons Ratio (z) = 0.73137 0.09962
#
# Static dielectric constant tensor:
#      x y z
#    x 1.752160 0.000000 0.000000 
#    y 0.000000 1.730860 0.000000 
#    z 0.000000 0.000000 1.675790 
# 
# From -- ./inp_files/41398.got.cif
#   From: 2010.05.17/outbox.cif.g08.bks.cpg/sg67_21_cif.got.tgz:41398.got - 2010.06.03 18:28:57.
