data_PCOD9504011
_publ_section_title
;
Structure prediction by ZEFSAII (Michael W. Deem and Ramdas Pophale) SiO2 
 PCOD9504011
Probable space group: C M M A
;
_chemical_formula_sum "Si O2"
_cell_formula_units_Z 64
_cell_length_a 28.201807
_cell_length_b 9.687434
_cell_length_c 13.439148
_cell_angle_alpha 90.000000
_cell_angle_beta 90.000000
_cell_angle_gamma 90.000000
_cell_volume 3671.617486
_symmetry_space_group_name_H-M "C M M A"
_symmetry_group_IT_number 67
_symmetry_cell_setting 'orthorhombic'
loop_
_space_group_symop_operation_xyz
x,y,z
-x,1/2-y,z
x,-y,-z
-x,1/2+y,-z
-x,-y,-z
x,1/2+y,-z
-x,y,z
x,1/2-y,z
1/2+x,1/2+y,z
1/2-x,-y,z
1/2+x,1/2-y,-z
1/2-x,y,-z
1/2-x,1/2-y,-z
1/2+x,y,-z
1/2-x,1/2+y,z
1/2+x,-y,z
loop_
_atom_site_type_symbol
_atom_site_label
_atom_site_fract_x
_atom_site_fract_y
_atom_site_fract_z
Si Si1 0.855488 0.517890 0.712456
Si Si2 0.694820 0.750000 0.405236
Si Si3 0.801263 0.750000 0.356390
Si Si4 0.444033 0.584655 0.399043
Si Si5 0.203593 0.084916 0.101334
O O1 0.833509 0.618423 0.630057
O O2 0.828721 0.377041 0.690507
O O3 0.911071 0.524772 0.688625
O O4 0.838665 0.570119 0.819758
O O5 0.744449 0.750000 0.344394
O O6 0.697070 0.750000 0.523610
O O7 0.432587 0.500000 0.500000
O O8 0.500000 0.566108 0.379643
O O9 0.435795 0.750000 0.411221
O O10 0.212702 0.250000 0.086143
O O11 0.250000 0.000000 0.140353
O O12 0.192677 0.000000 0.000000
#
# Coordination Sequence:
#
# PCOD9504011 Si02
#       5
#    16   8   8  16  16
#     4  12  23  36  57  83 113 155 194 234 288 341
#     4  11  20  38  50  80 118 151 192 222 278 339
#     4  11  24  32  54  80 118 157 184 230 272 349
#     4  10  21  38  59  84 114 151 195 241 287 339
#     4  11  23  39  60  84 115 149 196 243 289 342
#
# _framework density 17.431009
#
# number of rings (size 3 to 8) (size 9 to 14) (size 15 to 20)
#    0.000    1.000    2.500    6.000    5.250    2.000 
#    0.000    0.000    0.000    0.750    0.000    0.000 
#    0.000    0.000    0.000    0.000    0.000    0.000 
#
# Total GULP energy -178510.954614 kJ/mol
# GULP energy per Si atom -5578.467332 kJ/mol
# Density = 1.739134 g / cm^3
# Si number density = 17.431009 Si / 1000 Ang^3
#
#
#
# Elastic Constant Matrix: (Units=GPa)
#
#
# Indices 1 2 3 4 5 6 
#
# 1 100.6911 27.4512 41.9061 0.0000 0.0000 0.0000
# 2 27.4512 111.4242 13.9013 0.0000 0.0000 0.0000
# 3 41.9061 13.9013 69.3191 0.0000 0.0000 0.0000
# 4 0.0000 0.0000 0.0000 22.5487 0.0000 0.0000
# 5 0.0000 0.0000 0.0000 0.0000 33.1392 0.0000
# 6 0.0000 0.0000 0.0000 0.0000 0.0000 107.2130
#
#
#
# Elastic Compliance Matrix: (Units=1/GPa)
#
#
# Indices 1 2 3 4 5 6 
#
# 1 0.013885 -0.002435 -0.007906 0.000000 0.000000 0.000000
# 2 -0.002435 0.009632 -0.000460 0.000000 0.000000 0.000000
# 3 -0.007906 -0.000460 0.019298 0.000000 0.000000 0.000000
# 4 0.000000 0.000000 0.000000 0.044349 0.000000 0.000000
# 5 0.000000 0.000000 0.000000 0.000000 0.030176 0.000000
# 6 0.000000 0.000000 0.000000 0.000000 0.000000 0.009327
#
#
# Mechanical properties :
#
#
# Convention : Reuss Voigt Hill
#
# Bulk Modulus (GPa) = 47.13811 49.77239 48.45525
# Shear Modulus (GPa) = 32.18768 45.79188 38.98978
#
# Velocity S-wave (km/s) = 4.30184 5.13102 4.73462
# Velocity P-wave (km/s) = 7.19554 7.98242 7.59918
#
# Compressibility (1/GPa) = 0.02121426
#
# Stress axis : x y z
#
# Youngs Moduli (GPa) = 72.01765 103.82196 51.81942
#
# Poissons Ratio (x) = 0.25276 0.40969
# Poissons Ratio (y) = 0.17533 0.02383
# Poissons Ratio (z) = 0.56938 0.04774
#
# Static dielectric constant tensor:
#      x y z
#    x 1.622690 0.000000 0.000000 
#    y 0.000000 1.559910 0.000000 
#    z 0.000000 0.000000 1.595690 
# 
# From -- ./inp_files/24990.got.cif
#   From: 2010.05.17/outbox.cif.g08.bks.cpg/sg67_13_cif.got.tgz:24990.got - 2010.06.03 18:28:57.
