data_PCOD9504802
_publ_section_title
;
Structure prediction by ZEFSAII (Michael W. Deem and Ramdas Pophale) SiO2 
 PCOD9504802
Probable space group: C M M A
;
_chemical_formula_sum "Si O2"
_cell_formula_units_Z 112
_cell_length_a 27.916786
_cell_length_b 13.907095
_cell_length_c 15.360973
_cell_angle_alpha 90.000000
_cell_angle_beta 90.000000
_cell_angle_gamma 90.000000
_cell_volume 5963.765586
_symmetry_space_group_name_H-M "C M M A"
_symmetry_group_IT_number 67
_symmetry_cell_setting 'orthorhombic'
loop_
_space_group_symop_operation_xyz
x,y,z
-x,1/2-y,z
x,-y,-z
-x,1/2+y,-z
-x,-y,-z
x,1/2+y,-z
-x,y,z
x,1/2-y,z
1/2+x,1/2+y,z
1/2-x,-y,z
1/2+x,1/2-y,-z
1/2-x,y,-z
1/2-x,1/2-y,-z
1/2+x,y,-z
1/2-x,1/2+y,z
1/2+x,-y,z
loop_
_atom_site_type_symbol
_atom_site_label
_atom_site_fract_x
_atom_site_fract_y
_atom_site_fract_z
Si Si1 0.198116 0.610498 0.029682
Si Si2 0.705315 0.134350 0.384369
Si Si3 0.304518 0.468395 0.211577
Si Si4 0.371139 0.865619 0.251216
Si Si5 0.815577 0.134740 0.424382
Si Si6 0.090728 0.356864 0.969141
Si Si7 0.444454 0.535050 0.136025
O O1 0.193393 0.607612 0.133756
O O2 0.146382 0.647581 0.000875
O O3 0.198776 0.500000 0.000000
O O4 0.250000 0.649116 0.000000
O O5 0.702653 0.250000 0.375337
O O6 0.682812 0.082766 0.301759
O O7 0.762060 0.108599 0.391277
O O8 0.681119 0.103349 0.475266
O O9 0.250000 0.500000 0.214799
O O10 0.333864 0.566884 0.198249
O O11 0.367842 0.750000 0.236481
O O12 0.355462 0.885192 0.351555
O O13 0.420836 0.910121 0.217681
O O14 0.814045 0.250000 0.430269
O O15 0.075920 0.250000 0.942536
O O16 0.082760 0.437173 0.894255
O O17 0.061788 0.395089 0.052567
O O18 0.500000 0.513457 0.149749
#
# Coordination Sequence:
#
# PCOD9504802 Si02
#       7
#    16  16  16  16  16  16  16
#     4  11  21  37  55  77 126 168 202 234 273 341
#     4   9  18  32  51  80 118 153 195 236 276 342
#     4  12  21  32  55  81 113 162 206 235 282 345
#     4  11  22  38  57  81 116 151 193 247 304 356
#     4   8  16  32  52  79 115 154 189 235 292 343
#     4  11  22  39  62  87 119 155 197 249 304 355
#     4  11  24  42  63  87 112 144 199 259 310 367
#
# _framework density 18.780080000000002
#
# number of rings (size 3 to 8) (size 9 to 14) (size 15 to 20)
#    0.000    1.571    5.714    2.143    0.000    3.429 
#    0.000    0.000    0.000    0.429    0.000    2.000 
#    0.000    1.143    0.000    0.000    0.000    0.000 
#
# Total GULP energy -312214.445374 kJ/mol
# GULP energy per Si atom -5575.257953 kJ/mol
# Density = 1.873734 g / cm^3
# Si number density = 18.780080 Si / 1000 Ang^3
#
#
#
# Elastic Constant Matrix: (Units=GPa)
#
#
# Indices 1 2 3 4 5 6 
#
# 1 99.6479 31.2039 24.0916 0.0000 0.0000 0.0000
# 2 31.2039 114.6723 31.1237 0.0000 0.0000 0.0000
# 3 24.0916 31.1237 111.7441 0.0000 0.0000 0.0000
# 4 0.0000 0.0000 0.0000 -14.5916 0.0000 0.0000
# 5 0.0000 0.0000 0.0000 0.0000 18.6373 0.0000
# 6 0.0000 0.0000 0.0000 0.0000 0.0000 -15.0839
#
#
#
# Elastic Compliance Matrix: (Units=1/GPa)
#
#
# Indices 1 2 3 4 5 6 
#
# 1 0.011262 -0.002602 -0.001703 0.000000 0.000000 0.000000
# 2 -0.002602 0.010035 -0.002234 0.000000 0.000000 0.000000
# 3 -0.001703 -0.002234 0.009938 0.000000 0.000000 0.000000
# 4 0.000000 0.000000 0.000000 -0.068533 0.000000 0.000000
# 5 0.000000 0.000000 0.000000 0.000000 0.053656 0.000000
# 6 0.000000 0.000000 0.000000 0.000000 0.000000 -0.066296
#
#
# Mechanical properties :
#
#
# Convention : Reuss Voigt Hill
#
# Bulk Modulus (GPa) = 55.07681 55.43362 55.25521
# Shear Modulus (GPa) = -162.30647 13.76869 -74.26889
#
# Velocity S-wave (km/s) = -9.30658 2.71062 -6.29543
# Velocity P-wave (km/s) = 9.27859 6.27518 4.83293
#
# Compressibility (1/GPa) = 0.01815646
#
# Stress axis : x y z
#
# Youngs Moduli (GPa) = 88.79420 99.65180 100.61931
#
# Poissons Ratio (x) = 0.25932 0.17138
# Poissons Ratio (y) = 0.23107 0.22478
# Poissons Ratio (z) = 0.15124 0.22262
#
# Static dielectric constant tensor:
#      x y z
#    x 1.648340 0.000000 0.000000 
#    y 0.000000 1.714050 0.000000 
#    z 0.000000 0.000000 1.719090 
# 
# From -- ./inp_files/30808.got.cif
#   From: 2010.05.17/outbox.cif.g08.bks.cpg/sg67_16_cif.got.tgz:30808.got - 2010.06.03 18:28:57.
