data_PCOD9504904
_publ_section_title
;
Structure prediction by ZEFSAII (Michael W. Deem and Ramdas Pophale) SiO2 
 PCOD9504904
Probable space group: C M M A
;
_chemical_formula_sum "Si O2"
_cell_formula_units_Z 72
_cell_length_a 18.347495
_cell_length_b 23.601392
_cell_length_c 8.924850
_cell_angle_alpha 90.000000
_cell_angle_beta 90.000000
_cell_angle_gamma 90.000000
_cell_volume 3864.695860
_symmetry_space_group_name_H-M "C M M A"
_symmetry_group_IT_number 67
_symmetry_cell_setting 'orthorhombic'
loop_
_space_group_symop_operation_xyz
x,y,z
-x,1/2-y,z
x,-y,-z
-x,1/2+y,-z
-x,-y,-z
x,1/2+y,-z
-x,y,z
x,1/2-y,z
1/2+x,1/2+y,z
1/2-x,-y,z
1/2+x,1/2-y,-z
1/2-x,y,-z
1/2-x,1/2-y,-z
1/2+x,y,-z
1/2-x,1/2+y,z
1/2+x,-y,z
loop_
_atom_site_type_symbol
_atom_site_label
_atom_site_fract_x
_atom_site_fract_y
_atom_site_fract_z
Si Si1 0.500000 0.408438 0.804321
Si Si2 0.278227 0.922295 0.669797
Si Si3 0.500000 0.685167 0.939577
Si Si4 0.500000 0.185840 0.551745
Si Si5 0.125730 0.313647 0.694438
Si Si6 0.852384 0.021757 0.170570
O O1 0.500000 0.365984 0.664474
O O2 0.429193 0.448003 0.808154
O O3 0.500000 0.365420 0.943812
O O4 0.250000 0.930028 0.500000
O O5 0.313174 0.861011 0.688461
O O6 0.211537 0.934808 0.782484
O O7 0.338498 0.968852 0.717861
O O8 0.500000 0.750000 0.000093
O O9 0.428455 0.679797 0.835560
O O10 0.500000 0.250000 0.617052
O O11 0.571377 0.181563 0.447156
O O12 0.156172 0.250000 0.696884
O O13 0.845157 0.000000 0.000000
#
# Coordination Sequence:
#
# PCOD9504904 Si02
#       6
#     8  16   8   8  16  16
#     4  12  22  37  60  84 108 148 196 225 269 338
#     4  11  22  39  58  82 114 147 184 231 280 326
#     4   9  19  36  59  85 115 146 182 232 276 321
#     4   9  19  35  57  87 119 144 176 233 282 317
#     4   9  19  38  61  84 112 148 185 223 277 336
#     4  11  24  39  56  80 114 150 185 232 281 323
#
# _framework density 18.630185999999998
#
# number of rings (size 3 to 8) (size 9 to 14) (size 15 to 20)
#    0.000    1.778    0.000    7.333    0.000    2.222 
#    0.000    5.556    0.000    5.333    0.000    0.000 
#    0.000    0.000    0.000    0.000    0.000    0.000 
#
# Total GULP energy -201030.425799 kJ/mol
# GULP energy per Si atom -5584.178494 kJ/mol
# Density = 1.858778 g / cm^3
# Si number density = 18.630186 Si / 1000 Ang^3
#
#
#
# Elastic Constant Matrix: (Units=GPa)
#
#
# Indices 1 2 3 4 5 6 
#
# 1 121.6210 111.5247 59.5040 0.0000 0.0000 0.0000
# 2 111.5247 187.6419 83.5678 0.0000 0.0000 0.0000
# 3 59.5040 83.5678 95.8917 0.0000 0.0000 0.0000
# 4 0.0000 0.0000 0.0000 -7.5097 0.0000 0.0000
# 5 0.0000 0.0000 0.0000 0.0000 60.5027 0.0000
# 6 0.0000 0.0000 0.0000 0.0000 0.0000 48.4126
#
#
#
# Elastic Compliance Matrix: (Units=1/GPa)
#
#
# Indices 1 2 3 4 5 6 
#
# 1 0.018626 -0.009680 -0.003122 0.000000 0.000000 0.000000
# 2 -0.009680 0.013740 -0.005968 0.000000 0.000000 0.000000
# 3 -0.003122 -0.005968 0.017567 0.000000 0.000000 0.000000
# 4 0.000000 0.000000 0.000000 -0.133162 0.000000 0.000000
# 5 0.000000 0.000000 0.000000 0.000000 0.016528 0.000000
# 6 0.000000 0.000000 0.000000 0.000000 0.000000 0.020656
#
#
# Mechanical properties :
#
#
# Convention : Reuss Voigt Hill
#
# Bulk Modulus (GPa) = 80.68869 101.59417 91.14143
# Shear Modulus (GPa) = -1143.21431 30.31834 -556.44798
#
# Velocity S-wave (km/s) = -24.79854 4.03845 -17.30113
# Velocity P-wave (km/s) = 27.86668 8.74047 18.71037
#
# Compressibility (1/GPa) = 0.01239331
#
# Stress axis : x y z
#
# Youngs Moduli (GPa) = 53.68768 72.77852 56.92598
#
# Poissons Ratio (x) = 0.70449 0.17774
# Poissons Ratio (y) = 0.51969 0.33972
# Poissons Ratio (z) = 0.16763 0.43432
#
# Static dielectric constant tensor:
#      x y z
#    x 1.636810 0.000000 0.000000 
#    y 0.000000 1.635920 0.000000 
#    z 0.000000 0.000000 1.653330 
# 
# From -- ./inp_files/11097.got.cif
#   From: 2010.05.17/outbox.cif.g08.bks.cpg/sg67_6_cif.got.tgz:11097.got - 2010.06.03 18:28:57.
