data_PCOD9504900
_publ_section_title
;
Structure prediction by ZEFSAII (Michael W. Deem and Ramdas Pophale) SiO2 
 PCOD9504900
Probable space group: C M M A
;
_chemical_formula_sum "Si O2"
_cell_formula_units_Z 80
_cell_length_a 22.761260
_cell_length_b 14.881733
_cell_length_c 10.797310
_cell_angle_alpha 90.000000
_cell_angle_beta 90.000000
_cell_angle_gamma 90.000000
_cell_volume 3657.340360
_symmetry_space_group_name_H-M "C M M A"
_symmetry_group_IT_number 67
_symmetry_cell_setting 'orthorhombic'
loop_
_space_group_symop_operation_xyz
x,y,z
-x,1/2-y,z
x,-y,-z
-x,1/2+y,-z
-x,-y,-z
x,1/2+y,-z
-x,y,z
x,1/2-y,z
1/2+x,1/2+y,z
1/2-x,-y,z
1/2+x,1/2-y,-z
1/2-x,y,-z
1/2-x,1/2-y,-z
1/2+x,y,-z
1/2-x,1/2+y,z
1/2+x,-y,z
loop_
_atom_site_type_symbol
_atom_site_label
_atom_site_fract_x
_atom_site_fract_y
_atom_site_fract_z
Si Si1 0.652758 0.349392 0.552992
Si Si2 0.568184 0.145975 0.924704
Si Si3 0.931188 0.519539 0.686008
Si Si4 0.872937 0.145720 0.817356
Si Si5 0.735873 0.894853 0.681994
O O1 0.626852 0.250000 0.539644
O O2 0.605409 0.424786 0.584533
O O3 0.693210 0.371054 0.433861
O O4 0.701458 0.349409 0.662309
O O5 0.500000 0.138648 0.965351
O O6 0.578197 0.250000 0.887529
O O7 0.575954 0.080353 0.809812
O O8 0.607337 0.124501 0.043405
O O9 0.905254 0.422959 0.724229
O O10 0.000000 0.513548 0.656100
O O11 0.888124 0.250000 0.792748
O O12 0.803436 0.132615 0.797751
O O13 0.750000 0.000000 0.680469
#
# Coordination Sequence:
#
# PCOD9504900 Si02
#       5
#    16  16  16  16  16
#     4  11  22  39  66  93 122 164 208 259 314 370
#     4   9  19  38  63  91 127 168 208 252 309 373
#     4  11  23  39  63  94 129 168 210 255 306 369
#     4  11  22  38  63  94 124 164 211 258 307 368
#     4  11  22  42  67  89 122 159 208 259 317 374
#
# _framework density 21.873819000000001
#
# number of rings (size 3 to 8) (size 9 to 14) (size 15 to 20)
#    0.000    1.400    2.000    5.400    0.000    4.000 
#    0.000    4.000    0.000    8.400    0.000    0.000 
#    0.000    0.000    0.000    0.000    0.000    0.000 
#
# Total GULP energy -223731.931499 kJ/mol
# GULP energy per Si atom -5593.298287 kJ/mol
# Density = 2.182403 g / cm^3
# Si number density = 21.873819 Si / 1000 Ang^3
#
#
#
# Elastic Constant Matrix: (Units=GPa)
#
#
# Indices 1 2 3 4 5 6 
#
# 1 96.9078 27.9728 21.1179 0.0000 0.0000 0.0000
# 2 27.9728 136.8482 23.1575 0.0000 0.0000 0.0000
# 3 21.1179 23.1575 46.4737 0.0000 0.0000 0.0000
# 4 0.0000 0.0000 0.0000 -2.3487 0.0000 0.0000
# 5 0.0000 0.0000 0.0000 0.0000 39.3551 0.0000
# 6 0.0000 0.0000 0.0000 0.0000 0.0000 27.1460
#
#
#
# Elastic Compliance Matrix: (Units=1/GPa)
#
#
# Indices 1 2 3 4 5 6 
#
# 1 0.011781 -0.001641 -0.004536 0.000000 0.000000 0.000000
# 2 -0.001641 0.008209 -0.003345 0.000000 0.000000 0.000000
# 3 -0.004536 -0.003345 0.025245 0.000000 0.000000 0.000000
# 4 0.000000 0.000000 0.000000 -0.425765 0.000000 0.000000
# 5 0.000000 0.000000 0.000000 0.000000 0.025410 0.000000
# 6 0.000000 0.000000 0.000000 0.000000 0.000000 0.036838
#
#
# Mechanical properties :
#
#
# Convention : Reuss Voigt Hill
#
# Bulk Modulus (GPa) = 38.17877 47.19176 42.68527
# Shear Modulus (GPa) = -17.21117 26.69590 4.74236
#
# Velocity S-wave (km/s) = -2.80811 3.49728 1.47403
# Velocity P-wave (km/s) = 2.64160 6.15868 4.73853
#
# Compressibility (1/GPa) = 0.02619256
#
# Stress axis : x y z
#
# Youngs Moduli (GPa) = 84.88173 121.82146 39.61113
#
# Poissons Ratio (x) = 0.19986 0.17967
# Poissons Ratio (y) = 0.13925 0.13249
# Poissons Ratio (z) = 0.38502 0.40748
#
# Static dielectric constant tensor:
#      x y z
#    x 1.782760 0.000000 0.000000 
#    y 0.000000 1.825150 0.000000 
#    z 0.000000 0.000000 1.845180 
# 
# From -- ./inp_files/21639.got.cif
#   From: 2010.05.17/outbox.cif.g08.bks.cpg/sg67_11_cif.got.tgz:21639.got - 2010.06.03 18:28:57.
