data_PCOD9504157
_publ_section_title
;
Structure prediction by ZEFSAII (Michael W. Deem and Ramdas Pophale) SiO2 
 PCOD9504157
Probable space group: C M M A
;
_chemical_formula_sum "Si O2"
_cell_formula_units_Z 64
_cell_length_a 16.142962
_cell_length_b 13.965776
_cell_length_c 12.683351
_cell_angle_alpha 90.000000
_cell_angle_beta 90.000000
_cell_angle_gamma 90.000000
_cell_volume 2859.448689
_symmetry_space_group_name_H-M "C M M A"
_symmetry_group_IT_number 67
_symmetry_cell_setting 'orthorhombic'
loop_
_space_group_symop_operation_xyz
x,y,z
-x,1/2-y,z
x,-y,-z
-x,1/2+y,-z
-x,-y,-z
x,1/2+y,-z
-x,y,z
x,1/2-y,z
1/2+x,1/2+y,z
1/2-x,-y,z
1/2+x,1/2-y,-z
1/2-x,y,-z
1/2-x,1/2-y,-z
1/2+x,y,-z
1/2-x,1/2+y,z
1/2+x,-y,z
loop_
_atom_site_type_symbol
_atom_site_label
_atom_site_fract_x
_atom_site_fract_y
_atom_site_fract_z
Si Si1 0.120684 0.023815 0.116055
Si Si2 0.223438 0.137964 0.822296
Si Si3 0.316065 0.865282 0.586181
Si Si4 0.000000 0.134181 0.269689
Si Si5 0.500000 0.865893 0.521417
O O1 0.205360 0.085691 0.111392
O O2 0.073614 0.084712 0.204381
O O3 0.138832 0.917031 0.155350
O O4 0.087687 0.000000 0.000000
O O5 0.222384 0.250000 0.843059
O O6 0.229663 0.119284 0.697454
O O7 0.323393 0.750000 0.575651
O O8 0.250000 0.897886 0.500000
O O9 0.411500 0.900376 0.570652
O O10 0.000000 0.250000 0.256958
O O11 0.000000 0.115103 0.394978
O O12 0.500000 0.750000 0.533128
#
# Coordination Sequence:
#
# PCOD9504157 Si02
#       5
#    16  16  16   8   8
#     4  11  24  41  61  91 124 157 216 274 312 378
#     4  10  21  39  63  88 121 164 205 257 324 382
#     4   9  17  32  56  87 123 164 211 261 317 386
#     4  11  23  42  66  90 125 170 211 258 326 393
#     4   9  18  34  59  90 125 166 210 262 320 385
#
# _framework density 22.381937000000001
#
# number of rings (size 3 to 8) (size 9 to 14) (size 15 to 20)
#    0.000    2.000    0.000    4.125    0.000    8.000 
#    0.000   11.875    0.000    0.000    0.000    0.000 
#    0.000    0.000    0.000    0.000    0.000    0.000 
#
# Total GULP energy -178296.547394 kJ/mol
# GULP energy per Si atom -5571.767106 kJ/mol
# Density = 2.233099 g / cm^3
# Si number density = 22.381937 Si / 1000 Ang^3
#
#
#
# Elastic Constant Matrix: (Units=GPa)
#
#
# Indices 1 2 3 4 5 6 
#
# 1 114.1673 23.3228 33.4318 0.0000 0.0000 0.0000
# 2 23.3228 109.8675 24.7764 0.0000 0.0000 0.0000
# 3 33.4318 24.7764 79.6959 0.0000 0.0000 0.0000
# 4 0.0000 0.0000 0.0000 31.6926 0.0000 0.0000
# 5 0.0000 0.0000 0.0000 0.0000 111.7695 0.0000
# 6 0.0000 0.0000 0.0000 0.0000 0.0000 -24.0334
#
#
#
# Elastic Compliance Matrix: (Units=1/GPa)
#
#
# Indices 1 2 3 4 5 6 
#
# 1 0.010152 -0.001285 -0.003859 0.000000 0.000000 0.000000
# 2 -0.001285 0.009951 -0.002555 0.000000 0.000000 0.000000
# 3 -0.003859 -0.002555 0.014961 0.000000 0.000000 0.000000
# 4 0.000000 0.000000 0.000000 0.031553 0.000000 0.000000
# 5 0.000000 0.000000 0.000000 0.000000 0.008947 0.000000
# 6 0.000000 0.000000 0.000000 0.000000 0.000000 -0.041609
#
#
# Mechanical properties :
#
#
# Convention : Reuss Voigt Hill
#
# Bulk Modulus (GPa) = 50.84878 51.86588 51.35733
# Shear Modulus (GPa) = 89.43483 38.69905 64.06694
#
# Velocity S-wave (km/s) = 6.32813 4.16267 5.35598
# Velocity P-wave (km/s) = 8.72706 6.80641 7.82588
#
# Compressibility (1/GPa) = 0.01966615
#
# Stress axis : x y z
#
# Youngs Moduli (GPa) = 98.50665 100.49550 66.84154
#
# Poissons Ratio (x) = 0.12911 0.25795
# Poissons Ratio (y) = 0.12655 0.17075
# Poissons Ratio (z) = 0.38015 0.25673
#
# Static dielectric constant tensor:
#      x y z
#    x 2.114980 0.000000 0.000000 
#    y 0.000000 1.821090 0.000000 
#    z 0.000000 0.000000 1.930690 
# 
# From -- ./inp_files/17533.got.cif
#   From: 2010.05.17/outbox.cif.g08.bks.cpg/sg67_9_cif.got.tgz:17533.got - 2010.06.03 18:28:57.
