data_PCOD9504675
_publ_section_title
;
Structure prediction by ZEFSAII (Michael W. Deem and Ramdas Pophale) SiO2 
 PCOD9504675
Probable space group: C M M A
;
_chemical_formula_sum "Si O2"
_cell_formula_units_Z 88
_cell_length_a 9.346913
_cell_length_b 15.017329
_cell_length_c 31.560199
_cell_angle_alpha 90.000000
_cell_angle_beta 90.000000
_cell_angle_gamma 90.000000
_cell_volume 4429.968404
_symmetry_space_group_name_H-M "C M M A"
_symmetry_group_IT_number 67
_symmetry_cell_setting 'orthorhombic'
loop_
_space_group_symop_operation_xyz
x,y,z
-x,1/2-y,z
x,-y,-z
-x,1/2+y,-z
-x,-y,-z
x,1/2+y,-z
-x,y,z
x,1/2-y,z
1/2+x,1/2+y,z
1/2-x,-y,z
1/2+x,1/2-y,-z
1/2-x,y,-z
1/2-x,1/2-y,-z
1/2+x,y,-z
1/2-x,1/2+y,z
1/2+x,-y,z
loop_
_atom_site_type_symbol
_atom_site_label
_atom_site_fract_x
_atom_site_fract_y
_atom_site_fract_z
Si Si1 0.336480 0.140980 0.041608
Si Si2 0.174090 0.353472 0.216669
Si Si3 0.165987 0.140801 0.124610
Si Si4 0.666331 0.358147 0.690784
Si Si5 0.330344 0.750000 0.544258
Si Si6 0.329536 0.087766 0.393349
O O1 0.500000 0.111317 0.039756
O O2 0.336345 0.250000 0.041690
O O3 0.260258 0.112496 0.084939
O O4 0.250000 0.113065 0.000000
O O5 0.219701 0.250000 0.216890
O O6 0.218763 0.390574 0.170987
O O7 0.215575 0.390577 0.262573
O O8 0.000000 0.353856 0.216260
O O9 0.167669 0.250000 0.125727
O O10 0.000000 0.115240 0.118717
O O11 0.500000 0.384917 0.683961
O O12 0.667612 0.250000 0.691665
O O13 0.765161 0.389452 0.652717
O O14 0.500000 0.750000 0.536152
O O15 0.250000 0.750000 0.500000
O O16 0.296685 0.834336 0.573623
O O17 0.500000 0.076904 0.390560
O O18 0.250000 0.000000 0.408425
#
# Coordination Sequence:
#
# PCOD9504675 Si02
#       6
#    16  16  16  16   8  16
#     4   9  15  20  25  34  51  80 123 176 234 297
#     4   7  11  20  36  59  84 112 151 196 245 305
#     4   8  12  19  30  43  63  92 129 179 234 290
#     4   9  16  29  52  79 106 141 182 223 271 330
#     4  10  24  44  66  90 122 156 194 240 289 338
#     4  11  23  40  60  88 121 155 194 239 286 337
#
# _framework density 19.864702000000001
#
# number of rings (size 3 to 8) (size 9 to 14) (size 15 to 20)
#    0.000    3.091    0.909    3.273    0.000    4.000 
#    0.000    2.727    0.000    3.273    0.000    0.000 
#    0.000    0.000    0.000    0.000    0.000    0.909 
#
# Total GULP energy -245380.524546 kJ/mol
# GULP energy per Si atom -5576.830103 kJ/mol
# Density = 1.981949 g / cm^3
# Si number density = 19.864702 Si / 1000 Ang^3
#
#
#
# Elastic Constant Matrix: (Units=GPa)
#
#
# Indices 1 2 3 4 5 6 
#
# 1 95.0914 39.3750 100.5588 0.0000 0.0000 0.0000
# 2 39.3750 70.2509 52.3083 0.0000 0.0000 0.0000
# 3 100.5588 52.3083 221.0666 0.0000 0.0000 0.0000
# 4 0.0000 0.0000 0.0000 -20.1972 0.0000 0.0000
# 5 0.0000 0.0000 0.0000 0.0000 34.9814 0.0000
# 6 0.0000 0.0000 0.0000 0.0000 0.0000 11.8653
#
#
#
# Elastic Compliance Matrix: (Units=1/GPa)
#
#
# Indices 1 2 3 4 5 6 
#
# 1 0.022146 -0.005962 -0.008663 0.000000 0.000000 0.000000
# 2 -0.005962 0.018884 -0.001756 0.000000 0.000000 0.000000
# 3 -0.008663 -0.001756 0.008880 0.000000 0.000000 0.000000
# 4 0.000000 0.000000 0.000000 -0.049512 0.000000 0.000000
# 5 0.000000 0.000000 0.000000 0.000000 0.028587 0.000000
# 6 0.000000 0.000000 0.000000 0.000000 0.000000 0.084280
#
#
# Mechanical properties :
#
#
# Convention : Reuss Voigt Hill
#
# Bulk Modulus (GPa) = 58.31942 85.65481 71.98711
# Shear Modulus (GPa) = 32.95038 18.27435 25.61236
#
# Velocity S-wave (km/s) = 4.07718 3.03634 3.59463
# Velocity P-wave (km/s) = 7.18238 7.45018 7.31751
#
# Compressibility (1/GPa) = 0.01714695
#
# Stress axis : x y z
#
# Youngs Moduli (GPa) = 45.15444 52.95448 112.61586
#
# Poissons Ratio (x) = 0.31573 0.97560
# Poissons Ratio (y) = 0.26922 0.19778
# Poissons Ratio (z) = 0.39118 0.09300
#
# Static dielectric constant tensor:
#      x y z
#    x 1.661050 0.000000 0.000000 
#    y 0.000000 4.406350 0.000000 
#    z 0.000000 0.000000 1.707410 
# 
# From -- ./inp_files/45246.got.cif
#   From: 2010.05.17/outbox.cif.g08.bks.cpg/sg67_23_cif.got.tgz:45246.got - 2010.06.03 18:28:57.
