data_PCOD9504408
_publ_section_title
;
Structure prediction by ZEFSAII (Michael W. Deem and Ramdas Pophale) SiO2 
 PCOD9504408
Probable space group: C M M A
;
_chemical_formula_sum "Si O2"
_cell_formula_units_Z 92
_cell_length_a 23.015231
_cell_length_b 9.272151
_cell_length_c 22.134357
_cell_angle_alpha 90.000000
_cell_angle_beta 90.000000
_cell_angle_gamma 90.000000
_cell_volume 4723.487214
_symmetry_space_group_name_H-M "C M M A"
_symmetry_group_IT_number 67
_symmetry_cell_setting 'orthorhombic'
loop_
_space_group_symop_operation_xyz
x,y,z
-x,1/2-y,z
x,-y,-z
-x,1/2+y,-z
-x,-y,-z
x,1/2+y,-z
-x,y,z
x,1/2-y,z
1/2+x,1/2+y,z
1/2-x,-y,z
1/2+x,1/2-y,-z
1/2-x,y,-z
1/2-x,1/2-y,-z
1/2+x,y,-z
1/2-x,1/2+y,z
1/2+x,-y,z
loop_
_atom_site_type_symbol
_atom_site_label
_atom_site_fract_x
_atom_site_fract_y
_atom_site_fract_z
Si Si1 0.000000 0.750000 0.028109
Si Si2 0.606921 0.422626 0.564225
Si Si3 0.906980 0.500000 0.000000
Si Si4 0.000000 0.419358 0.775824
Si Si5 0.810054 0.079801 0.327901
Si Si6 0.500000 0.578599 0.630071
Si Si7 0.309173 0.081078 0.903721
Si Si8 0.881792 0.576587 0.788352
O O1 0.948845 0.624768 0.024476
O O2 0.612238 0.500000 0.500000
O O3 0.596547 0.250000 0.558112
O O4 0.663450 0.443623 0.605891
O O5 0.554898 0.498869 0.600602
O O6 0.863084 0.446143 0.051933
O O7 0.057884 0.495975 0.799846
O O8 0.000000 0.250000 0.791056
O O9 0.000000 0.435641 0.702728
O O10 0.800881 0.250000 0.319631
O O11 0.857164 0.036242 0.277454
O O12 0.750000 0.000000 0.319126
O O13 0.500000 0.750000 0.615967
O O14 0.295965 0.250000 0.903132
O O15 0.333072 0.038904 0.837536
O O16 0.250000 0.000000 0.919994
O O17 0.891434 0.750000 0.790485
#
# Coordination Sequence:
#
# PCOD9504408 Si02
#       8
#     4  16   8   8  16   8  16  16
#     4  10  24  42  70  96 136 178 220 274 318 392
#     4  11  23  39  60  86 118 157 202 250 310 371
#     4  11  23  46  68  98 137 179 222 268 332 379
#     4  11  23  38  62  97 127 161 206 258 316 381
#     4  10  22  39  62  85 116 158 201 251 308 367
#     4  11  22  38  61  89 122 154 198 248 308 373
#     4  11  25  43  69 100 133 175 224 270 322 386
#     4  10  22  43  64  92 126 167 208 256 316 380
#
# _framework density 19.477136999999999
#
# number of rings (size 3 to 8) (size 9 to 14) (size 15 to 20)
#    0.000    1.391    2.609    2.087    1.217    5.913 
#    1.565    1.739    0.000    0.000    0.000    0.000 
#    0.000    0.000    0.000    0.000    0.000    0.000 
#
# Total GULP energy -256524.394164 kJ/mol
# GULP energy per Si atom -5576.617264 kJ/mol
# Density = 1.943281 g / cm^3
# Si number density = 19.477137 Si / 1000 Ang^3
#
#
#
# Elastic Constant Matrix: (Units=GPa)
#
#
# Indices 1 2 3 4 5 6 
#
# 1 140.0500 44.1263 6.2885 0.0000 0.0000 0.0000
# 2 44.1263 52.9388 6.0041 0.0000 0.0000 0.0000
# 3 6.2885 6.0041 42.6979 0.0000 0.0000 0.0000
# 4 0.0000 0.0000 0.0000 -275.3680 0.0000 0.0000
# 5 0.0000 0.0000 0.0000 0.0000 -17.3127 0.0000
# 6 0.0000 0.0000 0.0000 0.0000 0.0000 42.3038
#
#
#
# Elastic Compliance Matrix: (Units=1/GPa)
#
#
# Indices 1 2 3 4 5 6 
#
# 1 0.009687 -0.008041 -0.000296 0.000000 0.000000 0.000000
# 2 -0.008041 0.025870 -0.002454 0.000000 0.000000 0.000000
# 3 -0.000296 -0.002454 0.023809 0.000000 0.000000 0.000000
# 4 0.000000 0.000000 0.000000 -0.003632 0.000000 0.000000
# 5 0.000000 0.000000 0.000000 0.000000 -0.057761 0.000000
# 6 0.000000 0.000000 0.000000 0.000000 0.000000 0.023639
#
#
# Mechanical properties :
#
#
# Convention : Reuss Voigt Hill
#
# Bulk Modulus (GPa) = 26.46525 38.72493 32.59509
# Shear Modulus (GPa) = 89.62357 -38.12420 25.74969
#
# Velocity S-wave (km/s) = 6.79078 -4.42903 3.63994
# Velocity P-wave (km/s) = 8.66623 2.49593 5.86830
#
# Compressibility (1/GPa) = 0.03778540
#
# Stress axis : x y z
#
# Youngs Moduli (GPa) = 103.22998 38.65415 42.00100
#
# Poissons Ratio (x) = 0.31082 0.01243
# Poissons Ratio (y) = 0.83007 0.10305
# Poissons Ratio (z) = 0.03056 0.09484
#
# Static dielectric constant tensor:
#      x y z
#    x 1.641320 0.000000 0.000000 
#    y 0.000000 1.652080 0.000000 
#    z 0.000000 0.000000 1.709170 
# 
# From -- ./inp_files/42436.got.cif
#   From: 2010.05.17/outbox.cif.g08.bks.cpg/sg67_22_cif.got.tgz:42436.got - 2010.06.03 18:28:57.
