data_PCOD9504325
_publ_section_title
;
Structure prediction by ZEFSAII (Michael W. Deem and Ramdas Pophale) SiO2 
 PCOD9504325
Probable space group: C M M A
;
_chemical_formula_sum "Si O2"
_cell_formula_units_Z 32
_cell_length_a 9.590077
_cell_length_b 17.065577
_cell_length_c 9.062784
_cell_angle_alpha 90.000000
_cell_angle_beta 90.000000
_cell_angle_gamma 90.000000
_cell_volume 1483.217019
_symmetry_space_group_name_H-M "C M M A"
_symmetry_group_IT_number 67
_symmetry_cell_setting 'orthorhombic'
loop_
_space_group_symop_operation_xyz
x,y,z
-x,1/2-y,z
x,-y,-z
-x,1/2+y,-z
-x,-y,-z
x,1/2+y,-z
-x,y,z
x,1/2-y,z
1/2+x,1/2+y,z
1/2-x,-y,z
1/2+x,1/2-y,-z
1/2-x,y,-z
1/2-x,1/2-y,-z
1/2+x,y,-z
1/2-x,1/2+y,z
1/2+x,-y,z
loop_
_atom_site_type_symbol
_atom_site_label
_atom_site_fract_x
_atom_site_fract_y
_atom_site_fract_z
Si Si1 0.651055 0.612001 0.750327
Si Si2 0.333402 0.750000 0.344240
Si Si3 0.750000 0.500000 0.000000
Si Si4 0.750000 0.000000 0.500000
O O1 0.500000 0.651694 0.748960
O O2 0.776921 0.673461 0.740453
O O3 0.664533 0.556476 0.891739
O O4 0.663217 0.556140 0.607481
O O5 0.500000 0.750000 0.363071
O O6 0.250000 0.750000 0.500000
#
# Coordination Sequence:
#
# PCOD9504325 Si02
#       4
#    16   8   4   4
#     4  11  23  43  69  99 137 178 224 278 334 397
#     4  12  26  43  68 101 136 176 226 280 336 399
#     4  10  26  44  68 104 138 176 228 272 338 400
#     4  10  22  36  68 100 134 168 230 278 334 392
#
# _framework density 21.574725000000001
#
# number of rings (size 3 to 8) (size 9 to 14) (size 15 to 20)
#    0.000    1.000    2.500    3.750    0.000   11.000 
#    0.000    0.000    0.000    0.000    0.000    0.000 
#    0.000    0.000    0.000    0.000    0.000    0.000 
#
# Total GULP energy -89447.609872 kJ/mol
# GULP energy per Si atom -5590.475617 kJ/mol
# Density = 2.152562 g / cm^3
# Si number density = 21.574725 Si / 1000 Ang^3
#
#
#
# Elastic Constant Matrix: (Units=GPa)
#
#
# Indices 1 2 3 4 5 6 
#
# 1 203.6092 60.2654 41.5993 0.0000 0.0000 0.0000
# 2 60.2654 120.7344 45.1711 0.0000 0.0000 0.0000
# 3 41.5993 45.1711 130.3358 0.0000 0.0000 0.0000
# 4 0.0000 0.0000 0.0000 25.2507 0.0000 0.0000
# 5 0.0000 0.0000 0.0000 0.0000 -5.8861 0.0000
# 6 0.0000 0.0000 0.0000 0.0000 0.0000 86.8509
#
#
#
# Elastic Compliance Matrix: (Units=1/GPa)
#
#
# Indices 1 2 3 4 5 6 
#
# 1 0.005871 -0.002562 -0.000986 0.000000 0.000000 0.000000
# 2 -0.002562 0.010634 -0.002868 0.000000 0.000000 0.000000
# 3 -0.000986 -0.002868 0.008981 0.000000 0.000000 0.000000
# 4 0.000000 0.000000 0.000000 0.039603 0.000000 0.000000
# 5 0.000000 0.000000 0.000000 0.000000 -0.169892 0.000000
# 6 0.000000 0.000000 0.000000 0.000000 0.000000 0.011514
#
#
# Mechanical properties :
#
#
# Convention : Reuss Voigt Hill
#
# Bulk Modulus (GPa) = 79.01917 83.19456 81.10687
# Shear Modulus (GPa) = -65.58345 41.75266 -11.91540
#
# Velocity S-wave (km/s) = -5.51944 4.40393 -2.35262
# Velocity P-wave (km/s) = 1.97831 8.03146 5.50412
#
# Compressibility (1/GPa) = 0.01265516
#
# Stress axis : x y z
#
# Youngs Moduli (GPa) = 170.32747 94.03511 111.34395
#
# Poissons Ratio (x) = 0.24089 0.10979
# Poissons Ratio (y) = 0.43632 0.31933
# Poissons Ratio (z) = 0.16795 0.26969
#
# Static dielectric constant tensor:
#      x y z
#    x 1.766260 0.000000 0.000000 
#    y 0.000000 1.784890 0.000000 
#    z 0.000000 0.000000 1.768270 
# 
# From -- ./inp_files/5281.got.cif
#   From: 2010.05.17/outbox.cif.g08.bks.cpg/sg67_3_cif.got.tgz:5281.got - 2010.06.03 18:28:57.
