data_PCOD9504111
_publ_section_title
;
Structure prediction by ZEFSAII (Michael W. Deem and Ramdas Pophale) SiO2 
 PCOD9504111
Probable space group: C M M A
;
_chemical_formula_sum "Si O2"
_cell_formula_units_Z 112
_cell_length_a 17.414631
_cell_length_b 29.376920
_cell_length_c 11.497045
_cell_angle_alpha 90.000000
_cell_angle_beta 90.000000
_cell_angle_gamma 90.000000
_cell_volume 5881.752807
_symmetry_space_group_name_H-M "C M M A"
_symmetry_group_IT_number 67
_symmetry_cell_setting 'orthorhombic'
loop_
_space_group_symop_operation_xyz
x,y,z
-x,1/2-y,z
x,-y,-z
-x,1/2+y,-z
-x,-y,-z
x,1/2+y,-z
-x,y,z
x,1/2-y,z
1/2+x,1/2+y,z
1/2-x,-y,z
1/2+x,1/2-y,-z
1/2-x,y,-z
1/2-x,1/2-y,-z
1/2+x,y,-z
1/2-x,1/2+y,z
1/2+x,-y,z
loop_
_atom_site_type_symbol
_atom_site_label
_atom_site_fract_x
_atom_site_fract_y
_atom_site_fract_z
Si Si1 0.591287 0.953193 0.937219
Si Si2 0.586195 0.889853 0.508901
Si Si3 0.323661 0.619361 0.084464
Si Si4 0.591209 0.802869 0.227451
Si Si5 0.142582 0.537500 0.321684
Si Si6 0.814030 0.936246 0.679538
Si Si7 0.158125 0.801465 0.509104
O O1 0.500000 0.955972 0.923633
O O2 0.629202 0.950381 0.811660
O O3 0.615173 0.909444 0.010415
O O4 0.617434 0.000000 0.000000
O O5 0.500000 0.884305 0.465308
O O6 0.589527 0.931785 0.597882
O O7 0.644321 0.901870 0.405838
O O8 0.616293 0.842037 0.559668
O O9 0.361755 0.664002 0.141834
O O10 0.306149 0.585968 0.193593
O O11 0.250000 0.627223 0.000000
O O12 0.500000 0.814643 0.231156
O O13 0.597169 0.750000 0.190551
O O14 0.627110 0.804816 0.357844
O O15 0.137041 0.482938 0.326641
O O16 0.228576 0.550940 0.358701
O O17 0.140414 0.750000 0.468790
O O18 0.250000 0.807419 0.500000
#
# Coordination Sequence:
#
# PCOD9504111 Si02
#       7
#    16  16  16  16  16  16  16
#     4  11  23  38  59  87 123 163 207 256 307 367
#     4  12  25  39  61  92 127 162 206 261 321 380
#     4  12  23  38  65  94 123 164 213 265 312 375
#     4  10  22  42  66  94 128 167 212 264 326 391
#     4  11  23  41  60  86 123 168 211 251 306 378
#     4  11  23  39  62  84 122 166 209 255 309 372
#     4  10  21  38  64  93 124 163 210 262 318 384
#
# _framework density 19.041943
#
# number of rings (size 3 to 8) (size 9 to 14) (size 15 to 20)
#    0.000    1.000    4.286    3.000    0.000    4.857 
#    0.000    0.000    0.000    0.857    0.000    0.000 
#    0.000    0.000    0.000    0.000    0.000    0.000 
#
# Total GULP energy -312679.634292 kJ/mol
# GULP energy per Si atom -5583.564898 kJ/mol
# Density = 1.899860 g / cm^3
# Si number density = 19.041943 Si / 1000 Ang^3
#
#
#
# Elastic Constant Matrix: (Units=GPa)
#
#
# Indices 1 2 3 4 5 6 
#
# 1 89.4745 46.8327 29.2988 0.0000 0.0000 0.0000
# 2 46.8327 129.8650 27.7333 0.0000 0.0000 0.0000
# 3 29.2988 27.7333 64.9666 0.0000 0.0000 0.0000
# 4 0.0000 0.0000 0.0000 26.3275 0.0000 0.0000
# 5 0.0000 0.0000 0.0000 0.0000 12.1414 0.0000
# 6 0.0000 0.0000 0.0000 0.0000 0.0000 33.9516
#
#
#
# Elastic Compliance Matrix: (Units=1/GPa)
#
#
# Indices 1 2 3 4 5 6 
#
# 1 0.015088 -0.004388 -0.004931 0.000000 0.000000 0.000000
# 2 -0.004388 0.009749 -0.002183 0.000000 0.000000 0.000000
# 3 -0.004931 -0.002183 0.018548 0.000000 0.000000 0.000000
# 4 0.000000 0.000000 0.000000 0.037983 0.000000 0.000000
# 5 0.000000 0.000000 0.000000 0.000000 0.082363 0.000000
# 6 0.000000 0.000000 0.000000 0.000000 0.000000 0.029454
#
#
# Mechanical properties :
#
#
# Convention : Reuss Voigt Hill
#
# Bulk Modulus (GPa) = 49.06516 54.67064 51.86790
# Shear Modulus (GPa) = 22.42335 26.51353 24.46844
#
# Velocity S-wave (km/s) = 3.43531 3.73550 3.58855
# Velocity P-wave (km/s) = 6.44654 6.88319 6.66844
#
# Compressibility (1/GPa) = 0.02038106
#
# Stress axis : x y z
#
# Youngs Moduli (GPa) = 66.27843 102.57604 53.91365
#
# Poissons Ratio (x) = 0.45010 0.26586
# Poissons Ratio (y) = 0.29083 0.11768
# Poissons Ratio (z) = 0.32683 0.22390
#
# Static dielectric constant tensor:
#      x y z
#    x 1.654480 0.000000 0.000000 
#    y 0.000000 1.725460 0.000000 
#    z 0.000000 0.000000 1.663320 
# 
# From -- ./inp_files/18570.got.cif
#   From: 2010.05.17/outbox.cif.g08.bks.cpg/sg67_10_cif.got.tgz:18570.got - 2010.06.03 18:28:57.
