data_PCOD9504436
_publ_section_title
;
Structure prediction by ZEFSAII (Michael W. Deem and Ramdas Pophale) SiO2 
 PCOD9504436
Probable space group: C M M A
;
_chemical_formula_sum "Si O2"
_cell_formula_units_Z 80
_cell_length_a 15.320217
_cell_length_b 24.917509
_cell_length_c 11.394541
_cell_angle_alpha 90.000000
_cell_angle_beta 90.000000
_cell_angle_gamma 90.000000
_cell_volume 4349.770825
_symmetry_space_group_name_H-M "C M M A"
_symmetry_group_IT_number 67
_symmetry_cell_setting 'orthorhombic'
loop_
_space_group_symop_operation_xyz
x,y,z
-x,1/2-y,z
x,-y,-z
-x,1/2+y,-z
-x,-y,-z
x,1/2+y,-z
-x,y,z
x,1/2-y,z
1/2+x,1/2+y,z
1/2-x,-y,z
1/2+x,1/2-y,-z
1/2-x,y,-z
1/2-x,1/2-y,-z
1/2+x,y,-z
1/2-x,1/2+y,z
1/2+x,-y,z
loop_
_atom_site_type_symbol
_atom_site_label
_atom_site_fract_x
_atom_site_fract_y
_atom_site_fract_z
Si Si1 0.343842 0.479288 0.182780
Si Si2 0.601979 0.686488 0.747868
Si Si3 0.646263 0.380286 0.026120
Si Si4 0.906301 0.596323 0.772980
Si Si5 0.227996 0.896309 0.365176
O O1 0.250000 0.500000 0.138094
O O2 0.378755 0.436267 0.090117
O O3 0.399093 0.532017 0.206957
O O4 0.320307 0.446163 0.300910
O O5 0.500000 0.674682 0.724207
O O6 0.615468 0.750000 0.740441
O O7 0.623768 0.664923 0.878806
O O8 0.665293 0.653977 0.660857
O O9 0.750000 0.380909 0.000000
O O10 0.600930 0.376942 0.900936
O O11 0.820389 0.611516 0.700671
O O12 0.000000 0.609235 0.718265
O O13 0.250000 0.905782 0.500000
#
# Coordination Sequence:
#
# PCOD9504436 Si02
#       5
#    16  16  16  16  16
#     4   9  18  31  52  79 113 149 188 222 271 329
#     4  10  22  40  63  88 112 143 188 240 297 354
#     4  11  18  34  58  85 113 152 184 229 287 348
#     4  11  22  34  54  85 118 152 191 230 279 336
#     4  10  22  40  59  79 112 153 194 242 283 330
#
# _framework density 18.391774999999999
#
# number of rings (size 3 to 8) (size 9 to 14) (size 15 to 20)
#    0.000    1.800    6.000    1.200    0.000   10.000 
#    0.000    1.000    0.000    0.600    0.000    0.000 
#    0.000    0.000    0.000    0.000    0.000    0.000 
#
# Total GULP energy -223204.974728 kJ/mol
# GULP energy per Si atom -5580.124368 kJ/mol
# Density = 1.834991 g / cm^3
# Si number density = 18.391775 Si / 1000 Ang^3
#
#
#
# Elastic Constant Matrix: (Units=GPa)
#
#
# Indices 1 2 3 4 5 6 
#
# 1 93.8854 17.3229 4.0462 0.0000 0.0000 0.0000
# 2 17.3229 47.6186 -1.8580 0.0000 0.0000 0.0000
# 3 4.0462 -1.8580 94.2237 0.0000 0.0000 0.0000
# 4 0.0000 0.0000 0.0000 6.2601 0.0000 0.0000
# 5 0.0000 0.0000 0.0000 0.0000 0.8357 0.0000
# 6 0.0000 0.0000 0.0000 0.0000 0.0000 18.0958
#
#
#
# Elastic Compliance Matrix: (Units=1/GPa)
#
#
# Indices 1 2 3 4 5 6 
#
# 1 0.011449 -0.004187 -0.000574 0.000000 0.000000 0.000000
# 2 -0.004187 0.022548 0.000624 0.000000 0.000000 0.000000
# 3 -0.000574 0.000624 0.010650 0.000000 0.000000 0.000000
# 4 0.000000 0.000000 0.000000 0.159741 0.000000 0.000000
# 5 0.000000 0.000000 0.000000 0.000000 1.196588 0.000000
# 6 0.000000 0.000000 0.000000 0.000000 0.000000 0.055261
#
#
# Mechanical properties :
#
#
# Convention : Reuss Voigt Hill
#
# Bulk Modulus (GPa) = 27.49334 30.52776 29.01055
# Shear Modulus (GPa) = 3.38608 19.45277 11.41942
#
# Velocity S-wave (km/s) = 1.35834 3.25574 2.49449
# Velocity P-wave (km/s) = 4.17627 5.54687 4.90963
#
# Compressibility (1/GPa) = 0.03637245
#
# Stress axis : x y z
#
# Youngs Moduli (GPa) = 87.34669 44.35017 93.89662
#
# Poissons Ratio (x) = 0.18571 0.05392
# Poissons Ratio (y) = 0.36574 -0.05863
# Poissons Ratio (z) = 0.05015 -0.02769
#
# Static dielectric constant tensor:
#      x y z
#    x 1.671950 0.000000 0.000000 
#    y 0.000000 1.630820 0.000000 
#    z 0.000000 0.000000 1.626060 
# 
# From -- ./inp_files/17896.got.cif
#   From: 2010.05.17/outbox.cif.g08.bks.cpg/sg67_9_cif.got.tgz:17896.got - 2010.06.03 18:28:57.
