data_PCOD9504433
_publ_section_title
;
Structure prediction by ZEFSAII (Michael W. Deem and Ramdas Pophale) SiO2 
 PCOD9504433
Probable space group: C M M A
;
_chemical_formula_sum "Si O2"
_cell_formula_units_Z 72
_cell_length_a 8.585459
_cell_length_b 14.845957
_cell_length_c 27.077781
_cell_angle_alpha 90.000000
_cell_angle_beta 90.000000
_cell_angle_gamma 90.000000
_cell_volume 3451.316505
_symmetry_space_group_name_H-M "C M M A"
_symmetry_group_IT_number 67
_symmetry_cell_setting 'orthorhombic'
loop_
_space_group_symop_operation_xyz
x,y,z
-x,1/2-y,z
x,-y,-z
-x,1/2+y,-z
-x,-y,-z
x,1/2+y,-z
-x,y,z
x,1/2-y,z
1/2+x,1/2+y,z
1/2-x,-y,z
1/2+x,1/2-y,-z
1/2-x,y,-z
1/2-x,1/2-y,-z
1/2+x,y,-z
1/2-x,1/2+y,z
1/2+x,-y,z
loop_
_atom_site_type_symbol
_atom_site_label
_atom_site_fract_x
_atom_site_fract_y
_atom_site_fract_z
Si Si1 0.811520 0.250000 0.444723
Si Si2 0.313489 0.602591 0.259337
Si Si3 0.686574 0.102816 0.158073
Si Si4 0.313336 0.102820 0.050692
Si Si5 0.687946 0.601037 0.367869
O O1 0.750000 0.250000 0.500000
O O2 0.760042 0.336171 0.412619
O O3 0.000000 0.250000 0.446018
O O4 0.500000 0.601900 0.256059
O O5 0.250000 0.500000 0.260272
O O6 0.249127 0.644394 0.208836
O O7 0.268058 0.638762 0.313419
O O8 0.500000 0.100833 0.160588
O O9 0.731027 0.142158 0.104389
O O10 0.750000 0.000000 0.157493
O O11 0.500000 0.101054 0.047983
O O12 0.250000 0.000000 0.051411
O O13 0.250000 0.144299 0.000000
O O14 0.500000 0.598258 0.368403
O O15 0.750000 0.500000 0.372695
#
# Coordination Sequence:
#
# PCOD9504433 Si02
#       5
#     8  16  16  16  16
#     4  10  22  40  58  80 110 142 175 212 253 300
#     4   9  15  24  40  61  83 112 149 190 237 288
#     4   9  15  21  30  47  71 101 139 186 235 284
#     4   9  15  20  26  37  58  92 135 180 228 278
#     4   9  19  35  55  78 106 138 173 213 257 303
#
# _framework density 20.861605000000001
#
# number of rings (size 3 to 8) (size 9 to 14) (size 15 to 20)
#    0.000    2.889    0.000    4.000    0.000    4.889 
#    0.000    2.222    0.000    0.000    0.000    0.000 
#    0.000    0.000    0.000    1.000    0.000   12.889 
#
# Total GULP energy -200642.990157 kJ/mol
# GULP energy per Si atom -5573.416393 kJ/mol
# Density = 2.081412 g / cm^3
# Si number density = 20.861605 Si / 1000 Ang^3
#
#
#
# Elastic Constant Matrix: (Units=GPa)
#
#
# Indices 1 2 3 4 5 6 
#
# 1 45.3816 11.3068 58.2163 0.0000 0.0000 0.0000
# 2 11.3068 81.1848 64.5986 0.0000 0.0000 0.0000
# 3 58.2163 64.5986 286.3367 0.0000 0.0000 0.0000
# 4 0.0000 0.0000 0.0000 729.7811 0.0000 0.0000
# 5 0.0000 0.0000 0.0000 0.0000 39.1539 0.0000
# 6 0.0000 0.0000 0.0000 0.0000 0.0000 -1.6977
#
#
#
# Elastic Compliance Matrix: (Units=1/GPa)
#
#
# Indices 1 2 3 4 5 6 
#
# 1 0.029855 0.000819 -0.006255 0.000000 0.000000 0.000000
# 2 0.000819 0.015035 -0.003558 0.000000 0.000000 0.000000
# 3 -0.006255 -0.003558 0.005567 0.000000 0.000000 0.000000
# 4 0.000000 0.000000 0.000000 0.001370 0.000000 0.000000
# 5 0.000000 0.000000 0.000000 0.000000 0.025540 0.000000
# 6 0.000000 0.000000 0.000000 0.000000 0.000000 -0.589025
#
#
# Mechanical properties :
#
#
# Convention : Reuss Voigt Hill
#
# Bulk Modulus (GPa) = 30.79930 75.68294 53.24112
# Shear Modulus (GPa) = -10.35525 172.03290 80.83882
#
# Velocity S-wave (km/s) = -2.23037 9.09081 6.23171
# Velocity P-wave (km/s) = 2.85709 12.10570 8.79519
#
# Compressibility (1/GPa) = 0.03246827
#
# Stress axis : x y z
#
# Youngs Moduli (GPa) = 33.49533 66.51160 179.63490
#
# Poissons Ratio (x) = -0.05446 1.12356
# Poissons Ratio (y) = -0.02743 0.63922
# Poissons Ratio (z) = 0.20950 0.23668
#
# Static dielectric constant tensor:
#      x y z
#    x 1.701500 0.000000 0.000000 
#    y 0.000000 1.068600 0.000000 
#    z 0.000000 0.000000 1.818190 
# 
# From -- ./inp_files/43111.got.cif
#   From: 2010.05.17/outbox.cif.g08.bks.cpg/sg67_22_cif.got.tgz:43111.got - 2010.06.03 18:28:57.
