data_PCOD9504177
_publ_section_title
;
Structure prediction by ZEFSAII (Michael W. Deem and Ramdas Pophale) SiO2 
 PCOD9504177
Probable space group: C M M A
;
_chemical_formula_sum "Si O2"
_cell_formula_units_Z 112
_cell_length_a 15.357461
_cell_length_b 24.799641
_cell_length_c 13.891136
_cell_angle_alpha 90.000000
_cell_angle_beta 90.000000
_cell_angle_gamma 90.000000
_cell_volume 5290.571382
_symmetry_space_group_name_H-M "C M M A"
_symmetry_group_IT_number 67
_symmetry_cell_setting 'orthorhombic'
loop_
_space_group_symop_operation_xyz
x,y,z
-x,1/2-y,z
x,-y,-z
-x,1/2+y,-z
-x,-y,-z
x,1/2+y,-z
-x,y,z
x,1/2-y,z
1/2+x,1/2+y,z
1/2-x,-y,z
1/2+x,1/2-y,-z
1/2-x,y,-z
1/2-x,1/2-y,-z
1/2+x,y,-z
1/2-x,1/2+y,z
1/2+x,-y,z
loop_
_atom_site_type_symbol
_atom_site_label
_atom_site_fract_x
_atom_site_fract_y
_atom_site_fract_z
Si Si1 0.500000 0.989746 0.128616
Si Si2 0.102578 0.000334 0.390700
Si Si3 0.739633 0.188511 0.272434
Si Si4 0.677614 0.858244 0.916952
Si Si5 0.170178 0.536300 0.213331
Si Si6 0.101231 0.814410 0.440457
Si Si7 0.000000 0.897707 0.002972
Si Si8 0.101882 0.873086 0.644631
O O1 0.585610 0.002202 0.186919
O O2 0.500000 0.043271 0.057749
O O3 0.500000 0.926535 0.100535
O O4 0.110639 0.062439 0.358152
O O5 0.000000 0.984631 0.387826
O O6 0.131141 0.000000 0.500000
O O7 0.159366 0.959364 0.327386
O O8 0.765991 0.250000 0.292292
O O9 0.698768 0.185406 0.165109
O O10 0.666762 0.173751 0.352621
O O11 0.825095 0.151687 0.285393
O O12 0.677165 0.911041 0.849369
O O13 0.584142 0.863116 0.969057
O O14 0.750000 0.858816 0.000000
O O15 0.250000 0.500000 0.186915
O O16 0.108939 0.750000 0.461444
O O17 0.118736 0.847886 0.537870
O O18 0.000000 0.824745 0.412484
O O19 0.000000 0.860322 0.667591
#
# Coordination Sequence:
#
# PCOD9504177 Si02
#       8
#     8  16  16  16  16  16   8  16
#     4   9  18  36  59  88 118 159 210 267 311 362
#     4  10  22  39  58  91 135 178 212 258 312 372
#     4  11  24  42  67  94 128 166 213 278 332 387
#     4  11  25  43  63  98 122 165 217 270 330 386
#     4  11  21  37  62  88 124 171 213 258 307 381
#     4   9  19  37  64  95 125 167 218 268 318 379
#     4   9  20  38  63  88 120 159 206 265 324 374
#     4  10  21  39  63  95 133 175 215 261 313 391
#
# _framework density 21.169736
#
# number of rings (size 3 to 8) (size 9 to 14) (size 15 to 20)
#    0.000    1.857    0.714    2.571    3.000    4.000 
#    3.857    0.000    0.000    0.000    0.000    0.000 
#    0.000    0.000    0.000    0.000    0.000    0.000 
#
# Total GULP energy -312512.872704 kJ/mol
# GULP energy per Si atom -5580.587013 kJ/mol
# Density = 2.112155 g / cm^3
# Si number density = 21.169736 Si / 1000 Ang^3
#
#
#
# Elastic Constant Matrix: (Units=GPa)
#
#
# Indices 1 2 3 4 5 6 
#
# 1 106.1599 21.1562 19.1905 0.0000 0.0000 0.0000
# 2 21.1562 57.6315 14.9196 0.0000 0.0000 0.0000
# 3 19.1905 14.9196 51.7984 0.0000 0.0000 0.0000
# 4 0.0000 0.0000 0.0000 37.9517 0.0000 0.0000
# 5 0.0000 0.0000 0.0000 0.0000 34.2805 0.0000
# 6 0.0000 0.0000 0.0000 0.0000 0.0000 20.6907
#
#
#
# Elastic Compliance Matrix: (Units=1/GPa)
#
#
# Indices 1 2 3 4 5 6 
#
# 1 0.010585 -0.003102 -0.003028 0.000000 0.000000 0.000000
# 2 -0.003102 0.019659 -0.004513 0.000000 0.000000 0.000000
# 3 -0.003028 -0.004513 0.021727 0.000000 0.000000 0.000000
# 4 0.000000 0.000000 0.000000 0.026349 0.000000 0.000000
# 5 0.000000 0.000000 0.000000 0.000000 0.029171 0.000000
# 6 0.000000 0.000000 0.000000 0.000000 0.000000 0.048331
#
#
# Mechanical properties :
#
#
# Convention : Reuss Voigt Hill
#
# Bulk Modulus (GPa) = 32.58927 36.23581 34.41254
# Shear Modulus (GPa) = 26.68982 29.27284 27.98133
#
# Velocity S-wave (km/s) = 3.55456 3.72259 3.63955
# Velocity P-wave (km/s) = 5.68104 5.96916 5.82688
#
# Compressibility (1/GPa) = 0.03068495
#
# Stress axis : x y z
#
# Youngs Moduli (GPa) = 94.47042 50.86818 46.02473
#
# Poissons Ratio (x) = 0.15779 0.13937
# Poissons Ratio (y) = 0.29303 0.20772
# Poissons Ratio (z) = 0.28608 0.22957
#
# Static dielectric constant tensor:
#      x y z
#    x 1.711400 0.000000 0.000000 
#    y 0.000000 1.676750 0.000000 
#    z 0.000000 0.000000 1.948380 
# 
# From -- ./inp_files/27773.got.cif
#   From: 2010.05.17/outbox.cif.g08.bks.cpg/sg67_14_cif.got.tgz:27773.got - 2010.06.03 18:28:57.
