data_PCOD9504175
_publ_section_title
;
Structure prediction by ZEFSAII (Michael W. Deem and Ramdas Pophale) SiO2 
 PCOD9504175
Probable space group: C M M A
;
_chemical_formula_sum "Si O2"
_cell_formula_units_Z 88
_cell_length_a 8.594902
_cell_length_b 16.197178
_cell_length_c 31.960766
_cell_angle_alpha 90.000000
_cell_angle_beta 90.000000
_cell_angle_gamma 90.000000
_cell_volume 4449.359154
_symmetry_space_group_name_H-M "C M M A"
_symmetry_group_IT_number 67
_symmetry_cell_setting 'orthorhombic'
loop_
_space_group_symop_operation_xyz
x,y,z
-x,1/2-y,z
x,-y,-z
-x,1/2+y,-z
-x,-y,-z
x,1/2+y,-z
-x,y,z
x,1/2-y,z
1/2+x,1/2+y,z
1/2-x,-y,z
1/2+x,1/2-y,-z
1/2-x,y,-z
1/2-x,1/2-y,-z
1/2+x,y,-z
1/2-x,1/2+y,z
1/2+x,-y,z
loop_
_atom_site_type_symbol
_atom_site_label
_atom_site_fract_x
_atom_site_fract_y
_atom_site_fract_z
Si Si1 0.682718 0.592323 0.542236
Si Si2 0.189463 0.654265 0.717298
Si Si3 0.811953 0.595301 0.899853
Si Si4 0.322423 0.849097 0.372398
Si Si5 0.312684 0.408473 0.806967
Si Si6 0.813272 0.750000 0.047141
O O1 0.500000 0.588803 0.537564
O O2 0.750000 0.500000 0.543919
O O3 0.750000 0.633162 0.500000
O O4 0.727736 0.632130 0.586182
O O5 0.230715 0.750000 0.717120
O O6 0.240778 0.617976 0.672361
O O7 0.246124 0.622818 0.762089
O O8 0.000000 0.647918 0.716516
O O9 0.750000 0.500000 0.905770
O O10 0.769998 0.626691 0.852557
O O11 0.747200 0.665674 0.930601
O O12 0.000000 0.591670 0.902946
O O13 0.500000 0.879595 0.378317
O O14 0.330187 0.750000 0.368125
O O15 0.500000 0.404825 0.804965
O O16 0.250000 0.500000 0.809707
O O17 0.000000 0.750000 0.047769
O O18 0.750000 0.750000 0.000000
#
# Coordination Sequence:
#
# PCOD9504175 Si02
#       6
#    16  16  16  16  16   8
#     4  11  22  37  56  76 100 130 169 218 270 328
#     4   8  15  29  51  77 105 142 184 222 265 320
#     4  10  21  39  63  93 128 167 208 257 310 365
#     4   9  18  34  54  77 107 141 178 219 265 322
#     4   9  18  32  54  81 113 149 190 233 278 335
#     4  12  26  44  66  94 126 162 210 260 311 374
#
# _framework density 19.778129
#
# number of rings (size 3 to 8) (size 9 to 14) (size 15 to 20)
#    0.000    2.364    0.000    4.636    1.273    2.545 
#    0.000    4.545    0.000    1.091    0.000    0.000 
#    0.000    0.000    0.000    0.000    0.000    0.000 
#
# Total GULP energy -245032.641549 kJ/mol
# GULP energy per Si atom -5568.923672 kJ/mol
# Density = 1.973311 g / cm^3
# Si number density = 19.778129 Si / 1000 Ang^3
#
#
#
# Elastic Constant Matrix: (Units=GPa)
#
#
# Indices 1 2 3 4 5 6 
#
# 1 81.2206 23.9361 62.4509 0.0000 0.0000 0.0000
# 2 23.9361 53.8717 64.4586 0.0000 0.0000 0.0000
# 3 62.4509 64.4586 225.6776 0.0000 0.0000 0.0000
# 4 0.0000 0.0000 0.0000 40.9275 0.0000 0.0000
# 5 0.0000 0.0000 0.0000 0.0000 22.3987 0.0000
# 6 0.0000 0.0000 0.0000 0.0000 0.0000 18.5720
#
#
#
# Elastic Compliance Matrix: (Units=1/GPa)
#
#
# Indices 1 2 3 4 5 6 
#
# 1 0.015901 -0.002735 -0.003619 0.000000 0.000000 0.000000
# 2 -0.002735 0.028670 -0.007432 0.000000 0.000000 0.000000
# 3 -0.003619 -0.007432 0.007555 0.000000 0.000000 0.000000
# 4 0.000000 0.000000 0.000000 0.024433 0.000000 0.000000
# 5 0.000000 0.000000 0.000000 0.000000 0.044645 0.000000
# 6 0.000000 0.000000 0.000000 0.000000 0.000000 0.053844
#
#
# Mechanical properties :
#
#
# Convention : Reuss Voigt Hill
#
# Bulk Modulus (GPa) = 40.72531 73.60679 57.16605
# Shear Modulus (GPa) = 23.71842 30.37460 27.04651
#
# Velocity S-wave (km/s) = 3.46674 3.92314 3.70198
# Velocity P-wave (km/s) = 6.05476 7.60384 6.87308
#
# Compressibility (1/GPa) = 0.02455475
#
# Stress axis : x y z
#
# Youngs Moduli (GPa) = 62.88999 34.87918 132.35587
#
# Poissons Ratio (x) = 0.09538 0.47901
# Poissons Ratio (y) = 0.17198 0.98369
# Poissons Ratio (z) = 0.22760 0.25923
#
# Static dielectric constant tensor:
#      x y z
#    x 1.699330 0.000000 0.000000 
#    y 0.000000 1.686550 0.000000 
#    z 0.000000 0.000000 1.789620 
# 
# From -- ./inp_files/45230.got.cif
#   From: 2010.05.17/outbox.cif.g08.bks.cpg/sg67_23_cif.got.tgz:45230.got - 2010.06.03 18:28:57.
