data_PCOD9504879
_publ_section_title
;
Structure prediction by ZEFSAII (Michael W. Deem and Ramdas Pophale) SiO2 
 PCOD9504879
Probable space group: C M M A
;
_chemical_formula_sum "Si O2"
_cell_formula_units_Z 80
_cell_length_a 15.124285
_cell_length_b 9.779468
_cell_length_c 24.463499
_cell_angle_alpha 90.000000
_cell_angle_beta 90.000000
_cell_angle_gamma 90.000000
_cell_volume 3618.334029
_symmetry_space_group_name_H-M "C M M A"
_symmetry_group_IT_number 67
_symmetry_cell_setting 'orthorhombic'
loop_
_space_group_symop_operation_xyz
x,y,z
-x,1/2-y,z
x,-y,-z
-x,1/2+y,-z
-x,-y,-z
x,1/2+y,-z
-x,y,z
x,1/2-y,z
1/2+x,1/2+y,z
1/2-x,-y,z
1/2+x,1/2-y,-z
1/2-x,y,-z
1/2-x,1/2-y,-z
1/2+x,y,-z
1/2-x,1/2+y,z
1/2+x,-y,z
loop_
_atom_site_type_symbol
_atom_site_label
_atom_site_fract_x
_atom_site_fract_y
_atom_site_fract_z
Si Si1 0.391906 0.908637 0.947975
Si Si2 0.107945 0.098806 0.748020
Si Si3 0.329594 0.250000 0.572442
Si Si4 0.900533 0.008733 0.628807
Si Si5 0.874909 0.250000 0.546783
Si Si6 0.891808 0.093012 0.155140
O O1 0.500000 0.904195 0.948183
O O2 0.362161 0.750000 0.949537
O O3 0.365117 0.992305 0.893998
O O4 0.365091 0.000000 0.000000
O O5 0.137509 0.250000 0.766061
O O6 0.133016 0.073966 0.685104
O O7 0.000000 0.101089 0.749476
O O8 0.136328 0.978358 0.788345
O O9 0.344790 0.383189 0.607993
O O10 0.229779 0.250000 0.553610
O O11 0.391047 0.250000 0.518035
O O12 0.905432 0.118413 0.580220
O O13 0.000000 0.958213 0.639948
O O14 0.862052 0.250000 0.149014
O O15 0.000000 0.096373 0.154649
#
# Coordination Sequence:
#
# PCOD9504879 Si02
#       6
#    16  16   8  16   8  16
#     4   9  15  22  32  48  75 114 163 212 255 307
#     4   9  17  30  46  66  94 126 163 210 265 320
#     4  11  25  39  59  83 113 143 180 223 276 334
#     4  11  22  37  59  85 110 140 183 232 275 324
#     4  11  23  43  59  79 111 151 180 215 274 346
#     4   9  16  24  37  57  83 117 158 208 264 315
#
# _framework density 22.109621000000001
#
# number of rings (size 3 to 8) (size 9 to 14) (size 15 to 20)
#    0.000    2.200    1.000    3.000    1.400    8.800 
#    0.000    0.000    0.000    0.000    0.000    0.000 
#    0.000    0.000    0.000    0.000    0.000    6.000 
#
# Total GULP energy -223487.128305 kJ/mol
# GULP energy per Si atom -5587.178208 kJ/mol
# Density = 2.205930 g / cm^3
# Si number density = 22.109621 Si / 1000 Ang^3
#
#
#
# Elastic Constant Matrix: (Units=GPa)
#
#
# Indices 1 2 3 4 5 6 
#
# 1 37.5921 10.8718 1.5435 0.0000 0.0000 0.0000
# 2 10.8718 199.3969 68.7508 0.0000 0.0000 0.0000
# 3 1.5435 68.7508 119.0116 0.0000 0.0000 0.0000
# 4 0.0000 0.0000 0.0000 -60.3906 0.0000 0.0000
# 5 0.0000 0.0000 0.0000 0.0000 -43.1144 0.0000
# 6 0.0000 0.0000 0.0000 0.0000 0.0000 15.4386
#
#
#
# Elastic Compliance Matrix: (Units=1/GPa)
#
#
# Indices 1 2 3 4 5 6 
#
# 1 0.027065 -0.001692 0.000626 0.000000 0.000000 0.000000
# 2 -0.001692 0.006368 -0.003657 0.000000 0.000000 0.000000
# 3 0.000626 -0.003657 0.010507 0.000000 0.000000 0.000000
# 4 0.000000 0.000000 0.000000 -0.016559 0.000000 0.000000
# 5 0.000000 0.000000 0.000000 0.000000 -0.023194 0.000000
# 6 0.000000 0.000000 0.000000 0.000000 0.000000 0.064773
#
#
# Mechanical properties :
#
#
# Convention : Reuss Voigt Hill
#
# Bulk Modulus (GPa) = 28.98933 57.59253 43.29093
# Shear Modulus (GPa) = 55.61576 0.70902 28.16239
#
# Velocity S-wave (km/s) = 5.02087 0.56690 3.57285
# Velocity P-wave (km/s) = 6.83757 5.15109 6.05335
#
# Compressibility (1/GPa) = 0.03449544
#
# Stress axis : x y z
#
# Youngs Moduli (GPa) = 36.94834 157.02978 95.17528
#
# Poissons Ratio (x) = 0.26563 -0.05960
# Poissons Ratio (y) = 0.06250 0.34804
# Poissons Ratio (z) = -0.02314 0.57424
#
# Static dielectric constant tensor:
#      x y z
#    x 1.852470 0.000000 0.000000 
#    y 0.000000 1.625990 0.000000 
#    z 0.000000 0.000000 1.795680 
# 
# From -- ./inp_files/42308.got.cif
#   From: 2010.05.17/outbox.cif.g08.bks.cpg/sg67_22_cif.got.tgz:42308.got - 2010.06.03 18:28:57.
