data_PCOD9504070
_publ_section_title
;
Structure prediction by ZEFSAII (Michael W. Deem and Ramdas Pophale) SiO2 
 PCOD9504070
Probable space group: C M M A
;
_chemical_formula_sum "Si O2"
_cell_formula_units_Z 112
_cell_length_a 14.145254
_cell_length_b 32.185565
_cell_length_c 11.743038
_cell_angle_alpha 90.000000
_cell_angle_beta 90.000000
_cell_angle_gamma 90.000000
_cell_volume 5346.288046
_symmetry_space_group_name_H-M "C M M A"
_symmetry_group_IT_number 67
_symmetry_cell_setting 'orthorhombic'
loop_
_space_group_symop_operation_xyz
x,y,z
-x,1/2-y,z
x,-y,-z
-x,1/2+y,-z
-x,-y,-z
x,1/2+y,-z
-x,y,z
x,1/2-y,z
1/2+x,1/2+y,z
1/2-x,-y,z
1/2+x,1/2-y,-z
1/2-x,y,-z
1/2-x,1/2-y,-z
1/2+x,y,-z
1/2-x,1/2+y,z
1/2+x,-y,z
loop_
_atom_site_type_symbol
_atom_site_label
_atom_site_fract_x
_atom_site_fract_y
_atom_site_fract_z
Si Si1 0.111343 0.384314 0.542353
Si Si2 0.218508 0.456482 0.681613
Si Si3 0.386074 0.461232 0.079591
Si Si4 0.608622 0.598263 0.277857
Si Si5 0.386000 0.125483 0.962275
Si Si6 0.384942 0.704307 0.635957
Si Si7 0.614966 0.704901 0.901536
O O1 0.168296 0.422465 0.599769
O O2 0.115544 0.384698 0.405598
O O3 0.146802 0.339063 0.581753
O O4 0.000000 0.388862 0.574925
O O5 0.250000 0.500000 0.627322
O O6 0.154909 0.463551 0.793432
O O7 0.316691 0.438113 0.726727
O O8 0.500000 0.461276 0.087284
O O9 0.358795 0.500000 0.000000
O O10 0.356656 0.417956 0.019428
O O11 0.500000 0.584437 0.260308
O O12 0.634361 0.627573 0.172085
O O13 0.500000 0.125848 0.971617
O O14 0.351084 0.165124 0.030679
O O15 0.500000 0.704139 0.627583
O O16 0.354090 0.750000 0.591636
O O17 0.359305 0.702350 0.768984
O O18 0.500000 0.704327 0.904086
O O19 0.644283 0.750000 0.947081
#
# Coordination Sequence:
#
# PCOD9504070 Si02
#       7
#    16  16  16  16  16  16  16
#     4  10  21  39  61  86 116 151 196 247 298 351
#     4  12  25  39  60  86 113 148 196 245 295 351
#     4  10  21  38  61  89 117 144 183 238 297 355
#     4  10  23  40  56  77 113 158 198 238 283 340
#     4   9  17  32  53  78 112 150 182 219 276 338
#     4   8  14  28  55  89 118 145 184 238 298 356
#     4   8  13  23  45  79 113 142 177 223 275 336
#
# _framework density 20.949113000000001
#
# number of rings (size 3 to 8) (size 9 to 14) (size 15 to 20)
#    0.000    2.429    0.000    3.429    0.000    7.714 
#    0.000    2.143    0.000    7.286    0.000    3.000 
#    0.000    0.000    0.000    0.000    0.000    0.000 
#
# Total GULP energy -312589.583216 kJ/mol
# GULP energy per Si atom -5581.956843 kJ/mol
# Density = 2.090143 g / cm^3
# Si number density = 20.949113 Si / 1000 Ang^3
#
#
#
# Elastic Constant Matrix: (Units=GPa)
#
#
# Indices 1 2 3 4 5 6 
#
# 1 79.1645 34.7241 28.6406 0.0000 0.0000 0.0000
# 2 34.7241 191.7227 67.4297 0.0000 0.0000 0.0000
# 3 28.6406 67.4297 96.5528 0.0000 0.0000 0.0000
# 4 0.0000 0.0000 0.0000 -4.2949 0.0000 0.0000
# 5 0.0000 0.0000 0.0000 0.0000 11.2437 0.0000
# 6 0.0000 0.0000 0.0000 0.0000 0.0000 1.8566
#
#
#
# Elastic Compliance Matrix: (Units=1/GPa)
#
#
# Indices 1 2 3 4 5 6 
#
# 1 0.014457 -0.001472 -0.003261 0.000000 0.000000 0.000000
# 2 -0.001472 0.007064 -0.004497 0.000000 0.000000 0.000000
# 3 -0.003261 -0.004497 0.014465 0.000000 0.000000 0.000000
# 4 0.000000 0.000000 0.000000 -0.232834 0.000000 0.000000
# 5 0.000000 0.000000 0.000000 0.000000 0.088938 0.000000
# 6 0.000000 0.000000 0.000000 0.000000 0.000000 0.538609
#
#
# Mechanical properties :
#
#
# Convention : Reuss Voigt Hill
#
# Bulk Modulus (GPa) = 57.05288 69.89209 63.47248
# Shear Modulus (GPa) = 10.98903 17.53747 14.26325
#
# Velocity S-wave (km/s) = 2.29281 2.89649 2.61214
# Velocity P-wave (km/s) = 5.85683 6.67992 6.28187
#
# Compressibility (1/GPa) = 0.01752760
#
# Stress axis : x y z
#
# Youngs Moduli (GPa) = 69.17017 141.56470 69.13424
#
# Poissons Ratio (x) = 0.20833 0.22543
# Poissons Ratio (y) = 0.10179 0.31088
# Poissons Ratio (z) = 0.22554 0.63657
#
# Static dielectric constant tensor:
#      x y z
#    x 1.772850 0.000000 0.000000 
#    y 0.000000 1.764550 0.000000 
#    z 0.000000 0.000000 1.730100 
# 
# From -- ./inp_files/18614.got.cif
#   From: 2010.05.17/outbox.cif.g08.bks.cpg/sg67_10_cif.got.tgz:18614.got - 2010.06.03 18:28:57.
