data_PCOD9504733
_publ_section_title
;
Structure prediction by ZEFSAII (Michael W. Deem and Ramdas Pophale) SiO2 
 PCOD9504733
Probable space group: C M M A
;
_chemical_formula_sum "Si O2"
_cell_formula_units_Z 96
_cell_length_a 29.782853
_cell_length_b 8.472147
_cell_length_c 21.007210
_cell_angle_alpha 90.000000
_cell_angle_beta 90.000000
_cell_angle_gamma 90.000000
_cell_volume 5300.638144
_symmetry_space_group_name_H-M "C M M A"
_symmetry_group_IT_number 67
_symmetry_cell_setting 'orthorhombic'
loop_
_space_group_symop_operation_xyz
x,y,z
-x,1/2-y,z
x,-y,-z
-x,1/2+y,-z
-x,-y,-z
x,1/2+y,-z
-x,y,z
x,1/2-y,z
1/2+x,1/2+y,z
1/2-x,-y,z
1/2+x,1/2-y,-z
1/2-x,y,-z
1/2-x,1/2-y,-z
1/2+x,y,-z
1/2-x,1/2+y,z
1/2+x,-y,z
loop_
_atom_site_type_symbol
_atom_site_label
_atom_site_fract_x
_atom_site_fract_y
_atom_site_fract_z
Si Si1 0.549407 0.558067 0.238710
Si Si2 0.854108 0.560178 0.567794
Si Si3 0.549385 0.558198 0.387936
Si Si4 0.199159 0.438550 0.690650
Si Si5 0.799975 0.437761 0.929572
Si Si6 0.356194 0.060232 0.812186
O O1 0.500000 0.504717 0.216983
O O2 0.549413 0.750000 0.237191
O O3 0.554276 0.515297 0.313285
O O4 0.592642 0.504853 0.199702
O O5 0.837007 0.500000 0.500000
O O6 0.853351 0.750000 0.569636
O O7 0.905956 0.504474 0.576428
O O8 0.825675 0.496320 0.626855
O O9 0.500000 0.502956 0.410111
O O10 0.548939 0.750000 0.390679
O O11 0.198904 0.250000 0.693195
O O12 0.250000 0.500000 0.691315
O O13 0.172802 0.505371 0.751653
O O14 0.798487 0.250000 0.930959
O O15 0.750000 0.500000 0.913820
O O16 0.834243 0.495599 0.876217
O O17 0.811321 0.500000 0.000000
O O18 0.355759 0.250000 0.814059
#
# Coordination Sequence:
#
# PCOD9504733 Si02
#       6
#    16  16  16  16  16  16
#     4   8  14  27  52  84 113 144 183 225 271 325
#     4  11  22  38  57  80 109 145 184 229 281 337
#     4   8  14  28  52  80 109 142 180 223 272 328
#     4  12  25  41  59  81 108 141 185 234 281 333
#     4  11  22  38  58  85 119 155 192 232 277 331
#     4  11  20  35  60  89 118 150 186 229 277 327
#
# _framework density 18.111027
#
# number of rings (size 3 to 8) (size 9 to 14) (size 15 to 20)
#    0.000    1.833    1.667    6.000    0.000    0.667 
#    0.000    1.667    0.000    5.000    0.000    0.000 
#    0.000    0.000    0.000    0.000    0.000    0.000 
#
# Total GULP energy -268036.612944 kJ/mol
# GULP energy per Si atom -5584.096103 kJ/mol
# Density = 1.806981 g / cm^3
# Si number density = 18.111027 Si / 1000 Ang^3
#
#
#
# Elastic Constant Matrix: (Units=GPa)
#
#
# Indices 1 2 3 4 5 6 
#
# 1 142.3368 31.8539 76.0947 0.0000 0.0000 0.0000
# 2 31.8539 84.6184 28.2142 0.0000 0.0000 0.0000
# 3 76.0947 28.2142 104.4840 0.0000 0.0000 0.0000
# 4 0.0000 0.0000 0.0000 26.0967 0.0000 0.0000
# 5 0.0000 0.0000 0.0000 0.0000 -11.5538 0.0000
# 6 0.0000 0.0000 0.0000 0.0000 0.0000 15.4870
#
#
#
# Elastic Compliance Matrix: (Units=1/GPa)
#
#
# Indices 1 2 3 4 5 6 
#
# 1 0.011729 -0.001722 -0.008077 0.000000 0.000000 0.000000
# 2 -0.001722 0.013240 -0.002321 0.000000 0.000000 0.000000
# 3 -0.008077 -0.002321 0.016080 0.000000 0.000000 0.000000
# 4 0.000000 0.000000 0.000000 0.038319 0.000000 0.000000
# 5 0.000000 0.000000 0.000000 0.000000 -0.086552 0.000000
# 6 0.000000 0.000000 0.000000 0.000000 0.000000 0.064570
#
#
# Mechanical properties :
#
#
# Convention : Reuss Voigt Hill
#
# Bulk Modulus (GPa) = 59.49360 67.08498 63.28929
# Shear Modulus (GPa) = 57.31937 19.02440 38.17188
#
# Velocity S-wave (km/s) = 5.63184 3.24455 4.59591
# Velocity P-wave (km/s) = 8.67242 7.15245 7.94885
#
# Compressibility (1/GPa) = 0.01680853
#
# Stress axis : x y z
#
# Youngs Moduli (GPa) = 85.25764 75.52902 62.18856
#
# Poissons Ratio (x) = 0.13007 0.50231
# Poissons Ratio (y) = 0.14683 0.14434
# Poissons Ratio (z) = 0.68864 0.17530
#
# Static dielectric constant tensor:
#      x y z
#    x 1.634710 0.000000 0.000000 
#    y 0.000000 1.631430 0.000000 
#    z 0.000000 0.000000 1.598520 
# 
# From -- ./inp_files/39889.got.cif
#   From: 2010.05.17/outbox.cif.g08.bks.cpg/sg67_20_cif.got.tgz:39889.got - 2010.06.03 18:28:57.
