data_PCOD9504258
_publ_section_title
;
Structure prediction by ZEFSAII (Michael W. Deem and Ramdas Pophale) SiO2 
 PCOD9504258
Probable space group: C M M A
;
_chemical_formula_sum "Si O2"
_cell_formula_units_Z 92
_cell_length_a 9.589653
_cell_length_b 23.671238
_cell_length_c 24.733132
_cell_angle_alpha 90.000000
_cell_angle_beta 90.000000
_cell_angle_gamma 90.000000
_cell_volume 5614.395204
_symmetry_space_group_name_H-M "C M M A"
_symmetry_group_IT_number 67
_symmetry_cell_setting 'orthorhombic'
loop_
_space_group_symop_operation_xyz
x,y,z
-x,1/2-y,z
x,-y,-z
-x,1/2+y,-z
-x,-y,-z
x,1/2+y,-z
-x,y,z
x,1/2-y,z
1/2+x,1/2+y,z
1/2-x,-y,z
1/2+x,1/2-y,-z
1/2-x,y,-z
1/2-x,1/2-y,-z
1/2+x,y,-z
1/2-x,1/2+y,z
1/2+x,-y,z
loop_
_atom_site_type_symbol
_atom_site_label
_atom_site_fract_x
_atom_site_fract_y
_atom_site_fract_z
Si Si1 0.000000 0.557811 0.534323
Si Si2 0.661951 0.360875 0.730392
Si Si3 0.000000 0.750000 0.392411
Si Si4 0.268430 0.934911 0.374034
Si Si5 0.335120 0.557955 0.170694
Si Si6 0.331997 0.560211 0.049878
Si Si7 0.158419 0.750000 0.286825
Si Si8 0.500000 0.376646 0.426731
O O1 0.000000 0.500000 0.500000
O O2 0.130079 0.561607 0.574434
O O3 0.000000 0.605641 0.489090
O O4 0.500000 0.344413 0.736198
O O5 0.676900 0.397950 0.675892
O O6 0.701851 0.399616 0.781422
O O7 0.758479 0.306087 0.727841
O O8 0.868408 0.750000 0.351517
O O9 0.000000 0.809124 0.422794
O O10 0.130404 0.904811 0.396190
O O11 0.250000 0.000000 0.355934
O O12 0.500000 0.544817 0.175198
O O13 0.250000 0.500000 0.175489
O O14 0.314799 0.583808 0.110507
O O15 0.500000 0.554526 0.039774
O O16 0.250000 0.500000 0.053778
O O17 0.250000 0.589285 0.000000
O O18 0.500000 0.750000 0.735746
#
# Coordination Sequence:
#
# PCOD9504258 Si02
#       8
#     8  16   4  16  16  16   8   8
#     4  12  24  40  58  86 114 142 182 230 278 341
#     4  11  22  38  57  82 109 141 183 226 277 328
#     4  10  22  44  58  80 110 144 180 218 274 332
#     4  12  22  38  60  85 111 144 180 224 279 332
#     4   9  19  33  49  77 115 146 180 227 271 320
#     4   9  15  25  43  67 103 147 184 217 260 314
#     4  10  21  41  61  78 101 140 184 225 273 334
#     4  12  24  40  62  80 114 144 181 227 277 332
#
# _framework density 16.386448000000001
#
# number of rings (size 3 to 8) (size 9 to 14) (size 15 to 20)
#    0.261    1.217    4.348    2.348    0.000    1.391 
#    0.000    2.609    0.000    0.000    0.000    0.609 
#    0.000    0.000    0.000    0.000    0.000    0.000 
#
# Total GULP energy -256345.467485 kJ/mol
# GULP energy per Si atom -5572.727554 kJ/mol
# Density = 1.634915 g / cm^3
# Si number density = 16.386448 Si / 1000 Ang^3
#
#
#
# Elastic Constant Matrix: (Units=GPa)
#
#
# Indices 1 2 3 4 5 6 
#
# 1 99.3938 59.4388 51.6940 0.0000 0.0000 0.0000
# 2 59.4388 125.9101 62.0717 0.0000 0.0000 0.0000
# 3 51.6940 62.0717 137.5081 0.0000 0.0000 0.0000
# 4 0.0000 0.0000 0.0000 12.4960 0.0000 0.0000
# 5 0.0000 0.0000 0.0000 0.0000 20.7919 0.0000
# 6 0.0000 0.0000 0.0000 0.0000 0.0000 25.3517
#
#
#
# Elastic Compliance Matrix: (Units=1/GPa)
#
#
# Indices 1 2 3 4 5 6 
#
# 1 0.015005 -0.005534 -0.003143 0.000000 0.000000 0.000000
# 2 -0.005534 0.012257 -0.003452 0.000000 0.000000 0.000000
# 3 -0.003143 -0.003452 0.010012 0.000000 0.000000 0.000000
# 4 0.000000 0.000000 0.000000 0.080025 0.000000 0.000000
# 5 0.000000 0.000000 0.000000 0.000000 0.048096 0.000000
# 6 0.000000 0.000000 0.000000 0.000000 0.000000 0.039445
#
#
# Mechanical properties :
#
#
# Convention : Reuss Voigt Hill
#
# Bulk Modulus (GPa) = 76.83149 78.80235 77.81692
# Shear Modulus (GPa) = 21.41910 24.36842 22.89376
#
# Velocity S-wave (km/s) = 3.61934 3.86049 3.74186
# Velocity P-wave (km/s) = 8.02840 8.25018 8.14004
#
# Compressibility (1/GPa) = 0.01301550
#
# Stress axis : x y z
#
# Youngs Moduli (GPa) = 66.64438 81.58888 99.87901
#
# Poissons Ratio (x) = 0.45152 0.31390
# Poissons Ratio (y) = 0.36882 0.34480
# Poissons Ratio (z) = 0.20945 0.28166
#
# Static dielectric constant tensor:
#      x y z
#    x 1.568040 0.000000 0.000000 
#    y 0.000000 1.455190 0.000000 
#    z 0.000000 0.000000 1.573840 
# 
# From -- ./inp_files/40864.got.cif
#   From: 2010.05.17/outbox.cif.g08.bks.cpg/sg67_21_cif.got.tgz:40864.got - 2010.06.03 18:28:57.
