data_PCOD9504781
_publ_section_title
;
Structure prediction by ZEFSAII (Michael W. Deem and Ramdas Pophale) SiO2 
 PCOD9504781
Probable space group: C M M A
;
_chemical_formula_sum "Si O2"
_cell_formula_units_Z 80
_cell_length_a 15.688350
_cell_length_b 10.356163
_cell_length_c 25.752422
_cell_angle_alpha 90.000000
_cell_angle_beta 90.000000
_cell_angle_gamma 90.000000
_cell_volume 4184.024582
_symmetry_space_group_name_H-M "C M M A"
_symmetry_group_IT_number 67
_symmetry_cell_setting 'orthorhombic'
loop_
_space_group_symop_operation_xyz
x,y,z
-x,1/2-y,z
x,-y,-z
-x,1/2+y,-z
-x,-y,-z
x,1/2+y,-z
-x,y,z
x,1/2-y,z
1/2+x,1/2+y,z
1/2-x,-y,z
1/2+x,1/2-y,-z
1/2-x,y,-z
1/2-x,1/2-y,-z
1/2+x,y,-z
1/2-x,1/2+y,z
1/2+x,-y,z
loop_
_atom_site_type_symbol
_atom_site_label
_atom_site_fract_x
_atom_site_fract_y
_atom_site_fract_z
Si Si1 0.598846 0.092968 0.658134
Si Si2 0.164156 0.250000 0.939139
Si Si3 0.401241 0.995106 0.879175
Si Si4 0.366846 0.250000 0.945241
Si Si5 0.895461 0.900645 0.770534
Si Si6 0.395415 0.100383 0.544040
O O1 0.500000 0.050415 0.657560
O O2 0.598171 0.250000 0.659516
O O3 0.634935 0.051155 0.713946
O O4 0.635178 0.059075 0.601716
O O5 0.143638 0.378464 0.907641
O O6 0.264975 0.250000 0.946246
O O7 0.112357 0.250000 0.993538
O O8 0.500000 0.959716 0.873401
O O9 0.396206 0.123799 0.914198
O O10 0.366665 0.024583 0.821601
O O11 0.872230 0.750000 0.776536
O O12 0.000000 0.903728 0.769730
O O13 0.500000 0.099803 0.545397
O O14 0.370854 0.250000 0.534234
O O15 0.368404 0.000000 0.500000
#
# Coordination Sequence:
#
# PCOD9504781 Si02
#       6
#    16   8  16   8  16  16
#     4   7  10  17  31  50  72 102 141 186 229 266
#     4  11  25  39  53  75 109 135 156 199 258 306
#     4  11  21  35  57  81 101 127 168 213 248 286
#     4  11  23  41  57  73  99 139 172 193 236 310
#     4   8  13  24  43  66  88 112 152 200 238 279
#     4   8  12  17  26  41  64  97 139 182 219 261
#
# _framework density 19.120346999999999
#
# number of rings (size 3 to 8) (size 9 to 14) (size 15 to 20)
#    0.000    3.000    1.000    4.200    0.000    4.000 
#    0.000    0.000    2.200    0.000    0.000    0.000 
#    0.000    0.000    0.000    0.000    0.000    6.000 
#
# Total GULP energy -222780.828416 kJ/mol
# GULP energy per Si atom -5569.520710 kJ/mol
# Density = 1.907683 g / cm^3
# Si number density = 19.120347 Si / 1000 Ang^3
#
#
#
# Elastic Constant Matrix: (Units=GPa)
#
#
# Indices 1 2 3 4 5 6 
#
# 1 21.7484 -0.0712 3.6523 0.0000 0.0000 0.0000
# 2 -0.0712 82.1793 69.7214 0.0000 0.0000 0.0000
# 3 3.6523 69.7214 216.1540 0.0000 0.0000 0.0000
# 4 0.0000 0.0000 0.0000 -31.6776 0.0000 0.0000
# 5 0.0000 0.0000 0.0000 0.0000 -67.3840 0.0000
# 6 0.0000 0.0000 0.0000 0.0000 0.0000 16.2784
#
#
#
# Elastic Compliance Matrix: (Units=1/GPa)
#
#
# Indices 1 2 3 4 5 6 
#
# 1 0.046167 0.000966 -0.001092 0.000000 0.000000 0.000000
# 2 0.000966 0.016773 -0.005427 0.000000 0.000000 0.000000
# 3 -0.001092 -0.005427 0.006395 0.000000 0.000000 0.000000
# 4 0.000000 0.000000 0.000000 -0.031568 0.000000 0.000000
# 5 0.000000 0.000000 0.000000 0.000000 -0.014840 0.000000
# 6 0.000000 0.000000 0.000000 0.000000 0.000000 0.061431
#
#
# Mechanical properties :
#
#
# Convention : Reuss Voigt Hill
#
# Bulk Modulus (GPa) = 17.17297 51.85408 34.51352
# Shear Modulus (GPa) = 43.52642 -0.10469 21.71086
#
# Velocity S-wave (km/s) = 4.77639 -0.23425 3.37335
# Velocity P-wave (km/s) = 6.27850 5.20630 5.76737
#
# Compressibility (1/GPa) = 0.05823105
#
# Stress axis : x y z
#
# Youngs Moduli (GPa) = 21.66058 59.61835 156.36808
#
# Poissons Ratio (x) = -0.05761 0.17071
# Poissons Ratio (y) = -0.02093 0.84855
# Poissons Ratio (z) = 0.02365 0.32353
#
# Static dielectric constant tensor:
#      x y z
#    x 1.678610 0.000000 0.000000 
#    y 0.000000 1.615680 0.000000 
#    z 0.000000 0.000000 1.736610 
# 
# From -- ./inp_files/43646.got.cif
#   From: 2010.05.17/outbox.cif.g08.bks.cpg/sg67_22_cif.got.tgz:43646.got - 2010.06.03 18:28:57.
