data_PCOD9504650
_publ_section_title
;
Structure prediction by ZEFSAII (Michael W. Deem and Ramdas Pophale) SiO2 
 PCOD9504650
Probable space group: C M M A
;
_chemical_formula_sum "Si O2"
_cell_formula_units_Z 64
_cell_length_a 24.488631
_cell_length_b 10.136378
_cell_length_c 12.912310
_cell_angle_alpha 90.000000
_cell_angle_beta 90.000000
_cell_angle_gamma 90.000000
_cell_volume 3205.171327
_symmetry_space_group_name_H-M "C M M A"
_symmetry_group_IT_number 67
_symmetry_cell_setting 'orthorhombic'
loop_
_space_group_symop_operation_xyz
x,y,z
-x,1/2-y,z
x,-y,-z
-x,1/2+y,-z
-x,-y,-z
x,1/2+y,-z
-x,y,z
x,1/2-y,z
1/2+x,1/2+y,z
1/2-x,-y,z
1/2+x,1/2-y,-z
1/2-x,y,-z
1/2-x,1/2-y,-z
1/2+x,y,-z
1/2-x,1/2+y,z
1/2+x,-y,z
loop_
_atom_site_type_symbol
_atom_site_label
_atom_site_fract_x
_atom_site_fract_y
_atom_site_fract_z
Si Si1 0.347070 0.404891 0.098738
Si Si2 0.740360 0.250000 0.378537
Si Si3 0.065153 0.250000 0.364228
Si Si4 0.888506 0.750000 0.409574
Si Si5 0.935778 0.969285 0.264659
Si Si6 0.250000 0.000000 0.752148
O O1 0.340504 0.250000 0.072177
O O2 0.402031 0.425538 0.164618
O O3 0.298558 0.450331 0.174866
O O4 0.346612 0.500000 0.000000
O O5 0.750000 0.250000 0.500000
O O6 0.674223 0.250000 0.371855
O O7 0.764296 0.378065 0.322207
O O8 0.101459 0.250000 0.467857
O O9 0.075486 0.380326 0.297084
O O10 0.000000 0.250000 0.393294
O O11 0.916837 0.877288 0.359313
O O12 0.000000 0.953142 0.247976
#
# Coordination Sequence:
#
# PCOD9504650 Si02
#       6
#    16   8   8   8  16   8
#     4  12  28  48  72 104 129 178 234 286 348 407
#     4  12  28  42  69 108 141 183 227 271 345 400
#     4  10  24  38  64 104 135 182 228 264 328 407
#     4  12  22  44  66 101 136 187 229 272 336 412
#     4  11  23  44  69 100 142 179 222 283 340 407
#     4  12  24  50  68  98 142 176 228 278 332 416
#
# _framework density 19.967732999999999
#
# number of rings (size 3 to 8) (size 9 to 14) (size 15 to 20)
#    0.000    0.500    5.000    2.625    7.000    5.500 
#    0.000    0.000    0.000    0.000    0.000    0.000 
#    0.000    0.000    0.000    0.000    0.000    0.000 
#
# Total GULP energy -179095.121278 kJ/mol
# GULP energy per Si atom -5596.722540 kJ/mol
# Density = 1.992229 g / cm^3
# Si number density = 19.967733 Si / 1000 Ang^3
#
#
#
# Elastic Constant Matrix: (Units=GPa)
#
#
# Indices 1 2 3 4 5 6 
#
# 1 78.5163 44.1229 32.0878 0.0000 0.0000 0.0000
# 2 44.1229 190.8239 61.5966 0.0000 0.0000 0.0000
# 3 32.0878 61.5966 121.9225 0.0000 0.0000 0.0000
# 4 0.0000 0.0000 0.0000 -41.7979 0.0000 0.0000
# 5 0.0000 0.0000 0.0000 0.0000 7.3063 0.0000
# 6 0.0000 0.0000 0.0000 0.0000 0.0000 29.0354
#
#
#
# Elastic Compliance Matrix: (Units=1/GPa)
#
#
# Indices 1 2 3 4 5 6 
#
# 1 0.015339 -0.002681 -0.002683 0.000000 0.000000 0.000000
# 2 -0.002681 0.006730 -0.002695 0.000000 0.000000 0.000000
# 3 -0.002683 -0.002695 0.010269 0.000000 0.000000 0.000000
# 4 0.000000 0.000000 0.000000 -0.023925 0.000000 0.000000
# 5 0.000000 0.000000 0.000000 0.000000 0.136868 0.000000
# 6 0.000000 0.000000 0.000000 0.000000 0.000000 0.034441
#
#
# Mechanical properties :
#
#
# Convention : Reuss Voigt Hill
#
# Bulk Modulus (GPa) = 61.64299 74.09747 67.87023
# Shear Modulus (GPa) = 24.84520 15.80578 20.32549
#
# Velocity S-wave (km/s) = 3.53124 2.81653 3.19394
# Velocity P-wave (km/s) = 6.89671 6.91132 6.90402
#
# Compressibility (1/GPa) = 0.01622245
#
# Stress axis : x y z
#
# Youngs Moduli (GPa) = 65.19312 148.58637 97.37790
#
# Poissons Ratio (x) = 0.39833 0.26122
# Poissons Ratio (y) = 0.17477 0.26239
# Poissons Ratio (z) = 0.17489 0.40038
#
# Static dielectric constant tensor:
#      x y z
#    x 1.715580 0.000000 0.000000 
#    y 0.000000 1.748270 0.000000 
#    z 0.000000 0.000000 1.666700 
# 
# From -- ./inp_files/29801.got.cif
#   From: 2010.05.17/outbox.cif.g08.bks.cpg/sg67_15_cif.got.tgz:29801.got - 2010.06.03 18:28:57.
