data_PCOD9504254
_publ_section_title
;
Structure prediction by ZEFSAII (Michael W. Deem and Ramdas Pophale) SiO2 
 PCOD9504254
Probable space group: C M M A
;
_chemical_formula_sum "Si O2"
_cell_formula_units_Z 36
_cell_length_a 24.197533
_cell_length_b 9.237041
_cell_length_c 7.283162
_cell_angle_alpha 90.000000
_cell_angle_beta 90.000000
_cell_angle_gamma 90.000000
_cell_volume 1627.885790
_symmetry_space_group_name_H-M "C M M A"
_symmetry_group_IT_number 67
_symmetry_cell_setting 'orthorhombic'
loop_
_space_group_symop_operation_xyz
x,y,z
-x,1/2-y,z
x,-y,-z
-x,1/2+y,-z
-x,-y,-z
x,1/2+y,-z
-x,y,z
x,1/2-y,z
1/2+x,1/2+y,z
1/2-x,-y,z
1/2+x,1/2-y,-z
1/2-x,y,-z
1/2-x,1/2-y,-z
1/2+x,y,-z
1/2-x,1/2+y,z
1/2+x,-y,z
loop_
_atom_site_type_symbol
_atom_site_label
_atom_site_fract_x
_atom_site_fract_y
_atom_site_fract_z
Si Si1 0.438752 0.422273 0.803245
Si Si2 0.830126 0.083367 0.674554
Si Si3 0.250000 0.500000 0.000000
O O1 0.500000 0.440057 0.717790
O O2 0.428678 0.250000 0.822265
O O3 0.387513 0.500270 0.709640
O O4 0.441324 0.500000 0.000000
O O5 0.840066 0.250000 0.628414
O O6 0.805883 0.000000 0.500000
O O7 0.791540 0.077694 0.856244
#
# Coordination Sequence:
#
# PCOD9504254 Si02
#       3
#    16  16   4
#     4  10  21  40  69 104 141 181 226 278 343 413
#     4  12  27  46  72 104 140 182 233 286 345 412
#     4  12  28  48  74 100 134 184 236 290 350 410
#
# _framework density 22.114571999999999
#
# number of rings (size 3 to 8) (size 9 to 14) (size 15 to 20)
#    0.000    0.889    2.222    4.000    0.000   10.667 
#    0.000    0.000    0.000    0.000    0.000    0.000 
#    0.000    0.000    0.000    0.000    0.000    0.000 
#
# Total GULP energy -100521.851622 kJ/mol
# GULP energy per Si atom -5584.547312 kJ/mol
# Density = 2.206424 g / cm^3
# Si number density = 22.114572 Si / 1000 Ang^3
#
#
#
# Elastic Constant Matrix: (Units=GPa)
#
#
# Indices 1 2 3 4 5 6 
#
# 1 190.7834 102.0655 58.0560 0.0000 0.0000 0.0000
# 2 102.0655 219.6956 66.7964 0.0000 0.0000 0.0000
# 3 58.0560 66.7964 131.5723 0.0000 0.0000 0.0000
# 4 0.0000 0.0000 0.0000 26.3190 0.0000 0.0000
# 5 0.0000 0.0000 0.0000 0.0000 -5.3863 0.0000
# 6 0.0000 0.0000 0.0000 0.0000 0.0000 -167.1894
#
#
#
# Elastic Compliance Matrix: (Units=1/GPa)
#
#
# Indices 1 2 3 4 5 6 
#
# 1 0.007310 -0.002856 -0.001775 0.000000 0.000000 0.000000
# 2 -0.002856 0.006499 -0.002039 0.000000 0.000000 0.000000
# 3 -0.001775 -0.002039 0.009419 0.000000 0.000000 0.000000
# 4 0.000000 0.000000 0.000000 0.037995 0.000000 0.000000
# 5 0.000000 0.000000 0.000000 0.000000 -0.185656 0.000000
# 6 0.000000 0.000000 0.000000 0.000000 0.000000 -0.005981
#
#
# Mechanical properties :
#
#
# Convention : Reuss Voigt Hill
#
# Bulk Modulus (GPa) = 101.15026 110.65412 105.90219
# Shear Modulus (GPa) = -43.94507 -8.24244 -26.09376
#
# Velocity S-wave (km/s) = -4.46259 -1.93268 -3.43874
# Velocity P-wave (km/s) = 4.39153 6.72049 5.67673
#
# Compressibility (1/GPa) = 0.00988628
#
# Stress axis : x y z
#
# Youngs Moduli (GPa) = 136.80250 153.87994 106.16961
#
# Poissons Ratio (x) = 0.43951 0.18850
# Poissons Ratio (y) = 0.39073 0.21647
# Poissons Ratio (z) = 0.24288 0.31375
#
# Static dielectric constant tensor:
#      x y z
#    x 1.867480 0.000000 0.000000 
#    y 0.000000 1.749270 0.000000 
#    z 0.000000 0.000000 1.783800 
# 
# From -- ./inp_files/4373.got.cif
#   From: 2010.05.17/outbox.cif.g08.bks.cpg/sg67_3_cif.got.tgz:4373.got - 2010.06.03 18:28:57.
