data_PCOD9504136
_publ_section_title
;
Structure prediction by ZEFSAII (Michael W. Deem and Ramdas Pophale) SiO2 
 PCOD9504136
Probable space group: C M M A
;
_chemical_formula_sum "Si O2"
_cell_formula_units_Z 64
_cell_length_a 14.981747
_cell_length_b 8.618591
_cell_length_c 25.270506
_cell_angle_alpha 90.000000
_cell_angle_beta 90.000000
_cell_angle_gamma 90.000000
_cell_volume 3262.966900
_symmetry_space_group_name_H-M "C M M A"
_symmetry_group_IT_number 67
_symmetry_cell_setting 'orthorhombic'
loop_
_space_group_symop_operation_xyz
x,y,z
-x,1/2-y,z
x,-y,-z
-x,1/2+y,-z
-x,-y,-z
x,1/2+y,-z
-x,y,z
x,1/2-y,z
1/2+x,1/2+y,z
1/2-x,-y,z
1/2+x,1/2-y,-z
1/2-x,y,-z
1/2-x,1/2-y,-z
1/2+x,y,-z
1/2-x,1/2+y,z
1/2+x,-y,z
loop_
_atom_site_type_symbol
_atom_site_label
_atom_site_fract_x
_atom_site_fract_y
_atom_site_fract_z
Si Si1 0.351214 0.064766 0.946205
Si Si2 0.349837 0.064058 0.442792
Si Si3 0.649045 0.563158 0.171278
Si Si4 0.500000 0.065132 0.248445
Si Si5 0.500000 0.935365 0.366665
O O1 0.348986 0.250000 0.950178
O O2 0.386857 0.023807 0.887980
O O3 0.250000 0.000000 0.945352
O O4 0.393702 0.000000 0.000000
O O5 0.349027 0.250000 0.444158
O O6 0.380351 0.000000 0.500000
O O7 0.250000 0.000000 0.434708
O O8 0.414587 0.002828 0.397432
O O9 0.649834 0.750000 0.175695
O O10 0.750000 0.500000 0.175690
O O11 0.585801 0.490947 0.215310
O O12 0.500000 0.250000 0.253237
O O13 0.500000 0.989520 0.306203
O O14 0.500000 0.750000 0.369868
#
# Coordination Sequence:
#
# PCOD9504136 Si02
#       5
#    16  16  16   8   8
#     4   9  16  27  49  79 111 144 184 231 288 351
#     4  11  22  40  65  97 131 165 203 245 294 350
#     4  10  21  39  61  86 116 154 195 243 298 356
#     4  12  26  43  62  87 116 154 203 252 297 352
#     4  12  25  43  64  89 122 162 203 250 300 350
#
# _framework density 19.614051
#
# number of rings (size 3 to 8) (size 9 to 14) (size 15 to 20)
#    0.000    1.500    0.000    7.875    0.000    4.000 
#    0.000    5.625    0.000    0.000    0.000    0.000 
#    0.000    0.000    0.000    0.000    0.000    0.000 
#
# Total GULP energy -178858.540211 kJ/mol
# GULP energy per Si atom -5589.329382 kJ/mol
# Density = 1.956941 g / cm^3
# Si number density = 19.614051 Si / 1000 Ang^3
#
#
#
# Elastic Constant Matrix: (Units=GPa)
#
#
# Indices 1 2 3 4 5 6 
#
# 1 96.0745 43.9623 79.7305 0.0000 0.0000 0.0000
# 2 43.9623 167.0021 82.9536 0.0000 0.0000 0.0000
# 3 79.7305 82.9536 202.1059 0.0000 0.0000 0.0000
# 4 0.0000 0.0000 0.0000 36.5552 0.0000 0.0000
# 5 0.0000 0.0000 0.0000 0.0000 48.1489 0.0000
# 6 0.0000 0.0000 0.0000 0.0000 0.0000 24.8754
#
#
#
# Elastic Compliance Matrix: (Units=1/GPa)
#
#
# Indices 1 2 3 4 5 6 
#
# 1 0.015706 -0.001327 -0.005651 0.000000 0.000000 0.000000
# 2 -0.001327 0.007634 -0.002609 0.000000 0.000000 0.000000
# 3 -0.005651 -0.002609 0.008248 0.000000 0.000000 0.000000
# 4 0.000000 0.000000 0.000000 0.027356 0.000000 0.000000
# 5 0.000000 0.000000 0.000000 0.000000 0.020769 0.000000
# 6 0.000000 0.000000 0.000000 0.000000 0.000000 0.040200
#
#
# Mechanical properties :
#
#
# Convention : Reuss Voigt Hill
#
# Bulk Modulus (GPa) = 80.56971 97.60838 89.08904
# Shear Modulus (GPa) = 34.90990 39.15164 37.03077
#
# Velocity S-wave (km/s) = 4.22339 4.47262 4.34979
# Velocity P-wave (km/s) = 8.05912 8.74900 8.41114
#
# Compressibility (1/GPa) = 0.01241161
#
# Stress axis : x y z
#
# Youngs Moduli (GPa) = 63.67121 131.00007 121.23740
#
# Poissons Ratio (x) = 0.17390 0.68512
# Poissons Ratio (y) = 0.08452 0.31637
# Poissons Ratio (z) = 0.35981 0.34184
#
# Static dielectric constant tensor:
#      x y z
#    x 1.762870 0.000000 0.000000 
#    y 0.000000 1.649780 0.000000 
#    z 0.000000 0.000000 1.690810 
# 
# From -- ./inp_files/40443.got.cif
#   From: 2010.05.17/outbox.cif.g08.bks.cpg/sg67_21_cif.got.tgz:40443.got - 2010.06.03 18:28:57.
