data_PCOD9504449
_publ_section_title
;
Structure prediction by ZEFSAII (Michael W. Deem and Ramdas Pophale) SiO2 
 PCOD9504449
Probable space group: C M M A
;
_chemical_formula_sum "Si O2"
_cell_formula_units_Z 88
_cell_length_a 24.632295
_cell_length_b 14.945066
_cell_length_c 10.962086
_cell_angle_alpha 90.000000
_cell_angle_beta 90.000000
_cell_angle_gamma 90.000000
_cell_volume 4035.486690
_symmetry_space_group_name_H-M "C M M A"
_symmetry_group_IT_number 67
_symmetry_cell_setting 'orthorhombic'
loop_
_space_group_symop_operation_xyz
x,y,z
-x,1/2-y,z
x,-y,-z
-x,1/2+y,-z
-x,-y,-z
x,1/2+y,-z
-x,y,z
x,1/2-y,z
1/2+x,1/2+y,z
1/2-x,-y,z
1/2+x,1/2-y,-z
1/2-x,y,-z
1/2-x,1/2-y,-z
1/2+x,y,-z
1/2-x,1/2+y,z
1/2+x,-y,z
loop_
_atom_site_type_symbol
_atom_site_label
_atom_site_fract_x
_atom_site_fract_y
_atom_site_fract_z
Si Si1 0.087021 0.932148 0.896401
Si Si2 0.305956 0.442964 0.280247
Si Si3 0.300197 0.750000 0.588022
Si Si4 0.314301 0.142951 0.022021
Si Si5 0.896527 0.250000 0.395972
Si Si6 0.443090 0.250000 0.844307
Si Si7 0.910751 0.954763 0.621747
O O1 0.059002 0.838069 0.921397
O O2 0.069518 0.962909 0.761704
O O3 0.150466 0.902707 0.914993
O O4 0.072568 0.000000 0.000000
O O5 0.250000 0.500000 0.274877
O O6 0.298604 0.344036 0.339646
O O7 0.326493 0.412555 0.145541
O O8 0.349981 0.502313 0.355760
O O9 0.250000 0.750000 0.500000
O O10 0.350335 0.750000 0.496347
O O11 0.326206 0.250000 0.033004
O O12 0.250000 0.134807 0.000000
O O13 0.891747 0.250000 0.247683
O O14 0.918830 0.149929 0.408018
O O15 0.500000 0.250000 0.771199
O O16 0.933059 0.000000 0.500000
#
# Coordination Sequence:
#
# PCOD9504449 Si02
#       7
#    16  16   8  16   8   8  16
#     4  11  22  40  67  98 129 172 218 273 338 395
#     4  12  24  36  53  84 128 178 225 268 314 375
#     4  12  24  37  54  88 130 175 223 271 320 391
#     4  11  23  39  57  88 134 184 228 265 321 394
#     4  10  22  40  62  87 123 166 203 262 332 397
#     4  10  24  45  70 101 131 165 221 288 349 401
#     4  11  22  37  59  88 122 165 213 262 323 385
#
# _framework density 21.806539000000001
#
# number of rings (size 3 to 8) (size 9 to 14) (size 15 to 20)
#    0.000    0.909    5.455    2.182    0.000    1.818 
#    0.000    0.909    0.000    8.727    0.000    7.636 
#    0.000    0.000    0.000    0.000    0.000    0.000 
#
# Total GULP energy -244974.987932 kJ/mol
# GULP energy per Si atom -5567.613362 kJ/mol
# Density = 2.175691 g / cm^3
# Si number density = 21.806539 Si / 1000 Ang^3
#
#
#
# Elastic Constant Matrix: (Units=GPa)
#
#
# Indices 1 2 3 4 5 6 
#
# 1 35.3120 21.8278 24.7675 0.0000 0.0000 0.0000
# 2 21.8278 207.0668 84.1172 0.0000 0.0000 0.0000
# 3 24.7675 84.1172 139.1754 0.0000 0.0000 0.0000
# 4 0.0000 0.0000 0.0000 38.8627 0.0000 0.0000
# 5 0.0000 0.0000 0.0000 0.0000 -2.5124 0.0000
# 6 0.0000 0.0000 0.0000 0.0000 0.0000 -94.1106
#
#
#
# Elastic Compliance Matrix: (Units=1/GPa)
#
#
# Indices 1 2 3 4 5 6 
#
# 1 0.032676 -0.001434 -0.004948 0.000000 0.000000 0.000000
# 2 -0.001434 0.006464 -0.003652 0.000000 0.000000 0.000000
# 3 -0.004948 -0.003652 0.010273 0.000000 0.000000 0.000000
# 4 0.000000 0.000000 0.000000 0.025732 0.000000 0.000000
# 5 0.000000 0.000000 0.000000 0.000000 -0.398031 0.000000
# 6 0.000000 0.000000 0.000000 0.000000 0.000000 -0.010626
#
#
# Mechanical properties :
#
#
# Convention : Reuss Voigt Hill
#
# Bulk Modulus (GPa) = 34.07758 71.44213 52.75985
# Shear Modulus (GPa) = -16.46566 5.17073 -5.64747
#
# Velocity S-wave (km/s) = -2.75085 1.54154 -1.61103
# Velocity P-wave (km/s) = 2.36042 6.00011 4.55922
#
# Compressibility (1/GPa) = 0.02934481
#
# Stress axis : x y z
#
# Youngs Moduli (GPa) = 30.60328 154.70457 97.34556
#
# Poissons Ratio (x) = 0.22192 0.48167
# Poissons Ratio (y) = 0.04390 0.35546
# Poissons Ratio (z) = 0.15143 0.56490
#
# Static dielectric constant tensor:
#      x y z
#    x 1.869810 0.000000 0.000000 
#    y 0.000000 1.863680 0.000000 
#    z 0.000000 0.000000 1.794780 
# 
# From -- ./inp_files/22865.got.cif
#   From: 2010.05.17/outbox.cif.g08.bks.cpg/sg67_12_cif.got.tgz:22865.got - 2010.06.03 18:28:57.
