data_PCOD9504017
_publ_section_title
;
Structure prediction by ZEFSAII (Michael W. Deem and Ramdas Pophale) SiO2 
 PCOD9504017
Probable space group: C M M A
;
_chemical_formula_sum "Si O2"
_cell_formula_units_Z 96
_cell_length_a 15.144813
_cell_length_b 15.940878
_cell_length_c 21.213411
_cell_angle_alpha 90.000000
_cell_angle_beta 90.000000
_cell_angle_gamma 90.000000
_cell_volume 5121.375972
_symmetry_space_group_name_H-M "C M M A"
_symmetry_group_IT_number 67
_symmetry_cell_setting 'orthorhombic'
loop_
_space_group_symop_operation_xyz
x,y,z
-x,1/2-y,z
x,-y,-z
-x,1/2+y,-z
-x,-y,-z
x,1/2+y,-z
-x,y,z
x,1/2-y,z
1/2+x,1/2+y,z
1/2-x,-y,z
1/2+x,1/2-y,-z
1/2-x,y,-z
1/2-x,1/2-y,-z
1/2+x,y,-z
1/2-x,1/2+y,z
1/2+x,-y,z
loop_
_atom_site_type_symbol
_atom_site_label
_atom_site_fract_x
_atom_site_fract_y
_atom_site_fract_z
Si Si1 0.750000 0.898455 0.742060
Si Si2 0.750000 0.899986 0.401988
Si Si3 0.898507 0.154926 0.838277
Si Si4 0.601187 0.650183 0.500000
Si Si5 0.601493 0.654926 0.161723
Si Si6 0.643817 0.500000 0.927777
O O1 0.750000 0.869252 0.669834
O O2 0.665806 0.866269 0.780738
O O3 0.834194 0.866269 0.780738
O O4 0.750000 0.000000 0.743932
O O5 0.662219 0.874216 0.440338
O O6 0.837781 0.874216 0.440338
O O7 0.750000 0.000000 0.400304
O O8 0.879670 0.250000 0.861142
O O9 0.000000 0.151880 0.817666
O O10 0.885458 0.083501 0.890906
O O11 0.500000 0.616482 0.500000
O O12 0.594872 0.750000 0.500000
O O13 0.500000 0.651880 0.182334
O O14 0.620330 0.750000 0.138858
O O15 0.614542 0.583501 0.109094
O O16 0.750000 0.500000 0.926983
O O17 0.613298 0.500000 0.000000
#
# Coordination Sequence:
#
# PCOD9504017 Si02
#       6
#    16  16  16  16  16  16
#     4  11  22  40  61  86 121 158 199 248 303 356
#     4  10  22  37  60  88 116 156 198 243 296 347
#     4  11  23  39  62  89 119 159 202 247 302 359
#     4  10  21  38  59  85 120 158 197 243 294 349
#     4  11  23  39  62  89 119 159 202 247 302 359
#     4  11  23  41  65  90 121 159 198 248 303 357
#
# _framework density 18.744961
#
# number of rings (size 3 to 8) (size 9 to 14) (size 15 to 20)
#    0.000    1.333    3.333    3.000    0.000    7.333 
#    0.000   10.000    0.000    0.000    0.000    0.000 
#    0.000    0.000    0.000    0.000    0.000    0.000 
#
# Total GULP energy -268026.272557 kJ/mol
# GULP energy per Si atom -5583.880678 kJ/mol
# Density = 1.870230 g / cm^3
# Si number density = 18.744961 Si / 1000 Ang^3
#
#
#
# Elastic Constant Matrix: (Units=GPa)
#
#
# Indices 1 2 3 4 5 6 
#
# 1 158.0690 49.6810 82.7624 0.0000 0.0000 0.0000
# 2 49.6810 131.2846 70.2940 0.0000 0.0000 0.0000
# 3 82.7624 70.2940 180.3853 0.0000 0.0000 0.0000
# 4 0.0000 0.0000 0.0000 -13.6215 0.0000 0.0000
# 5 0.0000 0.0000 0.0000 0.0000 -32.4405 0.0000
# 6 0.0000 0.0000 0.0000 0.0000 0.0000 20.7556
#
#
#
# Elastic Compliance Matrix: (Units=1/GPa)
#
#
# Indices 1 2 3 4 5 6 
#
# 1 0.008534 -0.001432 -0.003358 0.000000 0.000000 0.000000
# 2 -0.001432 0.009866 -0.003188 0.000000 0.000000 0.000000
# 3 -0.003358 -0.003188 0.008326 0.000000 0.000000 0.000000
# 4 0.000000 0.000000 0.000000 -0.073413 0.000000 0.000000
# 5 0.000000 0.000000 0.000000 0.000000 -0.030826 0.000000
# 6 0.000000 0.000000 0.000000 0.000000 0.000000 0.048180
#
#
# Mechanical properties :
#
#
# Convention : Reuss Voigt Hill
#
# Bulk Modulus (GPa) = 92.83126 97.24597 95.03861
# Shear Modulus (GPa) = -510.82544 12.73883 -249.04331
#
# Velocity S-wave (km/s) = -16.52589 2.60972 -11.53894
# Velocity P-wave (km/s) = 17.73441 7.81485 11.25694
#
# Compressibility (1/GPa) = 0.01077223
#
# Stress axis : x y z
#
# Youngs Moduli (GPa) = 117.17276 101.36239 120.09988
#
# Poissons Ratio (x) = 0.14513 0.40326
# Poissons Ratio (y) = 0.16777 0.38283
# Poissons Ratio (z) = 0.39343 0.32310
#
# Static dielectric constant tensor:
#      x y z
#    x 1.656160 0.000000 0.000000 
#    y 0.000000 1.662470 0.000000 
#    z 0.000000 0.000000 1.634690 
# 
# From -- ./inp_files/38380.got.cif
#   From: 2010.05.17/outbox.cif.g08.bks.cpg/sg67_20_cif.got.tgz:38380.got - 2010.06.03 18:28:57.
