data_PCOD9504815
_publ_section_title
;
Structure prediction by ZEFSAII (Michael W. Deem and Ramdas Pophale) SiO2 
 PCOD9504815
Probable space group: C M M A
;
_chemical_formula_sum "Si O2"
_cell_formula_units_Z 60
_cell_length_a 13.848763
_cell_length_b 25.369980
_cell_length_c 9.172489
_cell_angle_alpha 90.000000
_cell_angle_beta 90.000000
_cell_angle_gamma 90.000000
_cell_volume 3222.688338
_symmetry_space_group_name_H-M "C M M A"
_symmetry_group_IT_number 67
_symmetry_cell_setting 'orthorhombic'
loop_
_space_group_symop_operation_xyz
x,y,z
-x,1/2-y,z
x,-y,-z
-x,1/2+y,-z
-x,-y,-z
x,1/2+y,-z
-x,y,z
x,1/2-y,z
1/2+x,1/2+y,z
1/2-x,-y,z
1/2+x,1/2-y,-z
1/2-x,y,-z
1/2-x,1/2-y,-z
1/2+x,y,-z
1/2-x,1/2+y,z
1/2+x,-y,z
loop_
_atom_site_type_symbol
_atom_site_label
_atom_site_fract_x
_atom_site_fract_y
_atom_site_fract_z
Si Si1 0.211508 0.059846 0.842220
Si Si2 0.204515 0.750000 0.158950
Si Si3 0.290010 0.152822 0.662400
Si Si4 0.500000 0.750000 0.977731
Si Si5 0.000000 0.849182 0.801161
Si Si6 0.500000 0.060552 0.050019
O O1 0.253733 0.096404 0.718434
O O2 0.096801 0.066404 0.855798
O O3 0.250000 0.000000 0.826635
O O4 0.250000 0.078695 0.000000
O O5 0.240978 0.801472 0.242095
O O6 0.091650 0.750000 0.127406
O O7 0.250000 0.750000 0.000000
O O8 0.250000 0.160685 0.500000
O O9 0.404376 0.153969 0.700242
O O10 0.500000 0.699527 0.084966
O O11 0.000000 0.900727 0.908553
O O12 0.500000 0.000000 0.000000
#
# Coordination Sequence:
#
# PCOD9504815 Si02
#       6
#    16   8  16   4   8   8
#     4  11  21  39  64  95 122 164 215 262 302 361
#     4  12  23  44  67  95 119 161 213 259 301 363
#     4  12  26  42  63  93 134 165 202 255 316 381
#     4  12  24  38  74  96 118 156 216 262 306 356
#     4  12  22  40  65  91 123 169 203 255 319 361
#     4  12  20  35  67  95 121 160 216 266 306 354
#
# _framework density 18.617996000000002
#
# number of rings (size 3 to 8) (size 9 to 14) (size 15 to 20)
#    0.000    0.267    8.000    2.800    0.000    2.667 
#    0.000    0.000    0.000    4.800    0.000    0.000 
#    0.000    0.000    0.000    0.000    0.000    0.000 
#
# Total GULP energy -167601.690962 kJ/mol
# GULP energy per Si atom -5586.723032 kJ/mol
# Density = 1.857562 g / cm^3
# Si number density = 18.617996 Si / 1000 Ang^3
#
#
#
# Elastic Constant Matrix: (Units=GPa)
#
#
# Indices 1 2 3 4 5 6 
#
# 1 234.8797 42.8382 70.1218 0.0000 0.0000 0.0000
# 2 42.8382 94.2673 65.0190 0.0000 0.0000 0.0000
# 3 70.1218 65.0190 139.1326 0.0000 0.0000 0.0000
# 4 0.0000 0.0000 0.0000 106.7834 0.0000 0.0000
# 5 0.0000 0.0000 0.0000 0.0000 19.0473 0.0000
# 6 0.0000 0.0000 0.0000 0.0000 0.0000 24.7095
#
#
#
# Elastic Compliance Matrix: (Units=1/GPa)
#
#
# Indices 1 2 3 4 5 6 
#
# 1 0.005052 -0.000796 -0.002174 0.000000 0.000000 0.000000
# 2 -0.000796 0.015779 -0.006973 0.000000 0.000000 0.000000
# 3 -0.002174 -0.006973 0.011541 0.000000 0.000000 0.000000
# 4 0.000000 0.000000 0.000000 0.009365 0.000000 0.000000
# 5 0.000000 0.000000 0.000000 0.000000 0.052501 0.000000
# 6 0.000000 0.000000 0.000000 0.000000 0.000000 0.040470
#
#
# Mechanical properties :
#
#
# Convention : Reuss Voigt Hill
#
# Bulk Modulus (GPa) = 80.08439 91.58197 85.83318
# Shear Modulus (GPa) = 31.49487 49.46141 40.47814
#
# Velocity S-wave (km/s) = 4.11741 5.15986 4.66783
# Velocity P-wave (km/s) = 8.10629 9.20845 8.67490
#
# Compressibility (1/GPa) = 0.01248683
#
# Stress axis : x y z
#
# Youngs Moduli (GPa) = 197.95176 63.37473 86.64433
#
# Poissons Ratio (x) = 0.05046 0.18836
# Poissons Ratio (y) = 0.15762 0.60413
# Poissons Ratio (z) = 0.43033 0.44188
#
# Static dielectric constant tensor:
#      x y z
#    x 1.637210 0.000000 0.000000 
#    y 0.000000 1.637010 0.000000 
#    z 0.000000 0.000000 1.601840 
# 
# From -- ./inp_files/6553.got.cif
#   From: 2010.05.17/outbox.cif.g08.bks.cpg/sg67_4_cif.got.tgz:6553.got - 2010.06.03 18:28:57.
