data_PCOD9504516
_publ_section_title
;
Structure prediction by ZEFSAII (Michael W. Deem and Ramdas Pophale) SiO2 
 PCOD9504516
Probable space group: C M M A
;
_chemical_formula_sum "Si O2"
_cell_formula_units_Z 80
_cell_length_a 26.893888
_cell_length_b 9.210630
_cell_length_c 17.163846
_cell_angle_alpha 90.000000
_cell_angle_beta 90.000000
_cell_angle_gamma 90.000000
_cell_volume 4251.650313
_symmetry_space_group_name_H-M "C M M A"
_symmetry_group_IT_number 67
_symmetry_cell_setting 'orthorhombic'
loop_
_space_group_symop_operation_xyz
x,y,z
-x,1/2-y,z
x,-y,-z
-x,1/2+y,-z
-x,-y,-z
x,1/2+y,-z
-x,y,z
x,1/2-y,z
1/2+x,1/2+y,z
1/2-x,-y,z
1/2+x,1/2-y,-z
1/2-x,y,-z
1/2-x,1/2-y,-z
1/2+x,y,-z
1/2-x,1/2+y,z
1/2+x,-y,z
loop_
_atom_site_type_symbol
_atom_site_label
_atom_site_fract_x
_atom_site_fract_y
_atom_site_fract_z
Si Si1 0.704037 0.750000 0.887245
Si Si2 0.399056 0.074102 0.418468
Si Si3 0.819844 0.250000 0.064785
Si Si4 0.802047 0.417085 0.352787
Si Si5 0.443043 0.575879 0.270651
Si Si6 0.845475 0.477687 0.185918
O O1 0.762172 0.750000 0.907568
O O2 0.686367 0.616148 0.836482
O O3 0.678308 0.750000 0.972241
O O4 0.399624 0.250000 0.420698
O O5 0.412812 0.000000 0.500000
O O6 0.344520 0.011337 0.395512
O O7 0.434374 0.008048 0.351562
O O8 0.844236 0.384944 0.107564
O O9 0.800125 0.250000 0.381345
O O10 0.750000 0.500000 0.360318
O O11 0.818475 0.411705 0.261892
O O12 0.500000 0.561915 0.245394
O O13 0.432150 0.750000 0.279249
O O14 0.402396 0.507737 0.212652
#
# Coordination Sequence:
#
# PCOD9504516 Si02
#       6
#     8  16   8  16  16  16
#     4  11  24  32  59  89 126 161 197 241 297 361
#     4  11  23  40  61  89 124 155 194 247 301 360
#     4  11  20  40  55  87 124 165 199 235 297 359
#     4  11  22  36  58  85 119 165 209 248 295 355
#     4  10  22  42  66  87 113 157 206 252 305 356
#     4  11  21  37  58  86 120 159 201 253 294 357
#
# _framework density 18.816223000000001
#
# number of rings (size 3 to 8) (size 9 to 14) (size 15 to 20)
#    0.000    1.200    2.000    6.000    7.000    2.800 
#    0.000    2.000    0.000    3.600    0.000    0.000 
#    0.000    0.000    0.000    0.000    0.000    0.000 
#
# Total GULP energy -223277.154984 kJ/mol
# GULP energy per Si atom -5581.928875 kJ/mol
# Density = 1.877340 g / cm^3
# Si number density = 18.816223 Si / 1000 Ang^3
#
#
#
# Elastic Constant Matrix: (Units=GPa)
#
#
# Indices 1 2 3 4 5 6 
#
# 1 84.7414 9.5846 13.9278 0.0000 0.0000 0.0000
# 2 9.5846 90.3960 16.0589 0.0000 0.0000 0.0000
# 3 13.9278 16.0589 82.5584 0.0000 0.0000 0.0000
# 4 0.0000 0.0000 0.0000 73.9397 0.0000 0.0000
# 5 0.0000 0.0000 0.0000 0.0000 11.9056 0.0000
# 6 0.0000 0.0000 0.0000 0.0000 0.0000 -188.5635
#
#
#
# Elastic Compliance Matrix: (Units=1/GPa)
#
#
# Indices 1 2 3 4 5 6 
#
# 1 0.012217 -0.000963 -0.001874 0.000000 0.000000 0.000000
# 2 -0.000963 0.011534 -0.002081 0.000000 0.000000 0.000000
# 3 -0.001874 -0.002081 0.012834 0.000000 0.000000 0.000000
# 4 0.000000 0.000000 0.000000 0.013525 0.000000 0.000000
# 5 0.000000 0.000000 0.000000 0.000000 0.083994 0.000000
# 6 0.000000 0.000000 0.000000 0.000000 0.000000 -0.005303
#
#
# Mechanical properties :
#
#
# Convention : Reuss Voigt Hill
#
# Bulk Modulus (GPa) = 37.38309 37.42648 37.40479
# Shear Modulus (GPa) = 33.88629 -6.00200 13.94214
#
# Velocity S-wave (km/s) = 4.24831 -1.78794 2.72502
# Velocity P-wave (km/s) = 6.63135 3.95871 5.46106
#
# Compressibility (1/GPa) = 0.02675006
#
# Stress axis : x y z
#
# Youngs Moduli (GPa) = 81.85005 86.69852 77.92047
#
# Poissons Ratio (x) = 0.08345 0.14601
# Poissons Ratio (y) = 0.07878 0.16217
# Poissons Ratio (z) = 0.15338 0.18044
#
# Static dielectric constant tensor:
#      x y z
#    x 1.646290 0.000000 0.000000 
#    y 0.000000 1.632280 0.000000 
#    z 0.000000 0.000000 1.639510 
# 
# From -- ./inp_files/35815.got.cif
#   From: 2010.05.17/outbox.cif.g08.bks.cpg/sg67_18_cif.got.tgz:35815.got - 2010.06.03 18:28:57.
