data_PCOD9504541
_publ_section_title
;
Structure prediction by ZEFSAII (Michael W. Deem and Ramdas Pophale) SiO2 
 PCOD9504541
Probable space group: C M M A
;
_chemical_formula_sum "Si O2"
_cell_formula_units_Z 68
_cell_length_a 15.192988
_cell_length_b 10.400507
_cell_length_c 20.451210
_cell_angle_alpha 90.000000
_cell_angle_beta 90.000000
_cell_angle_gamma 90.000000
_cell_volume 3231.593409
_symmetry_space_group_name_H-M "C M M A"
_symmetry_group_IT_number 67
_symmetry_cell_setting 'orthorhombic'
loop_
_space_group_symop_operation_xyz
x,y,z
-x,1/2-y,z
x,-y,-z
-x,1/2+y,-z
-x,-y,-z
x,1/2+y,-z
-x,y,z
x,1/2-y,z
1/2+x,1/2+y,z
1/2-x,-y,z
1/2+x,1/2-y,-z
1/2-x,y,-z
1/2-x,1/2-y,-z
1/2+x,y,-z
1/2-x,1/2+y,z
1/2+x,-y,z
loop_
_atom_site_type_symbol
_atom_site_label
_atom_site_fract_x
_atom_site_fract_y
_atom_site_fract_z
Si Si1 0.102091 0.107927 0.296293
Si Si2 0.605387 0.397462 0.401845
Si Si3 0.397307 0.750000 0.913395
Si Si4 0.893399 0.750000 0.939211
Si Si5 0.149321 0.015678 0.155063
Si Si6 0.750000 0.500000 0.500000
O O1 0.144329 0.250000 0.302615
O O2 0.104387 0.062495 0.221347
O O3 0.000000 0.121745 0.313670
O O4 0.132976 0.997461 0.345227
O O5 0.500000 0.419594 0.420526
O O6 0.608464 0.250000 0.378924
O O7 0.679777 0.417642 0.457277
O O8 0.500000 0.750000 0.925675
O O9 0.378067 0.621482 0.873428
O O10 0.358059 0.750000 0.986558
O O11 0.863019 0.623854 0.900240
O O12 0.000000 0.750000 0.937624
O O13 0.250000 0.000000 0.173180
#
# Coordination Sequence:
#
# PCOD9504541 Si02
#       6
#    16  16   8   8  16   4
#     4  10  22  43  69  94 130 180 226 268 323 394
#     4  10  24  45  71 103 139 180 226 276 326 386
#     4  11  25  41  65  95 125 169 222 275 330 395
#     4  11  23  45  67  87 125 177 224 263 326 411
#     4  12  25  40  63  96 131 169 215 277 338 388
#     4  12  24  44  72 108 142 180 212 270 330 410
#
# _framework density 21.042251
#
# number of rings (size 3 to 8) (size 9 to 14) (size 15 to 20)
#    0.000    1.176    1.176    4.235    3.294    6.588 
#    0.000    2.353    0.000    0.000    0.000    0.000 
#    0.000    0.000    0.000    0.000    0.000    0.000 
#
# Total GULP energy -189737.709110 kJ/mol
# GULP energy per Si atom -5580.520856 kJ/mol
# Density = 2.099436 g / cm^3
# Si number density = 21.042251 Si / 1000 Ang^3
#
#
#
# Elastic Constant Matrix: (Units=GPa)
#
#
# Indices 1 2 3 4 5 6 
#
# 1 71.4426 21.7221 13.1026 0.0000 0.0000 0.0000
# 2 21.7221 205.8296 83.6224 0.0000 0.0000 0.0000
# 3 13.1026 83.6224 109.9836 0.0000 0.0000 0.0000
# 4 0.0000 0.0000 0.0000 1.8736 0.0000 0.0000
# 5 0.0000 0.0000 0.0000 0.0000 -80.4759 0.0000
# 6 0.0000 0.0000 0.0000 0.0000 0.0000 20.3222
#
#
#
# Elastic Compliance Matrix: (Units=1/GPa)
#
#
# Indices 1 2 3 4 5 6 
#
# 1 0.014512 -0.001200 -0.000817 0.000000 0.000000 0.000000
# 2 -0.001200 0.007129 -0.005277 0.000000 0.000000 0.000000
# 3 -0.000817 -0.005277 0.013202 0.000000 0.000000 0.000000
# 4 0.000000 0.000000 0.000000 0.533722 0.000000 0.000000
# 5 0.000000 0.000000 0.000000 0.000000 -0.012426 0.000000
# 6 0.000000 0.000000 0.000000 0.000000 0.000000 0.049207
#
#
# Mechanical properties :
#
#
# Convention : Reuss Voigt Hill
#
# Bulk Modulus (GPa) = 49.36972 69.35000 59.35986
# Shear Modulus (GPa) = 7.97848 6.26455 7.12152
#
# Velocity S-wave (km/s) = 1.94933 1.72731 1.84167
# Velocity P-wave (km/s) = 5.34599 6.08335 5.72655
#
# Compressibility (1/GPa) = 0.02025533
#
# Stress axis : x y z
#
# Youngs Moduli (GPa) = 68.90947 140.27112 75.74570
#
# Poissons Ratio (x) = 0.16828 0.06186
# Poissons Ratio (y) = 0.08267 0.39974
# Poissons Ratio (z) = 0.05628 0.74027
#
# Static dielectric constant tensor:
#      x y z
#    x 1.767270 0.000000 0.000000 
#    y 0.000000 1.742680 0.000000 
#    z 0.000000 0.000000 1.760540 
# 
# From -- ./inp_files/38823.got.cif
#   From: 2010.05.17/outbox.cif.g08.bks.cpg/sg67_20_cif.got.tgz:38823.got - 2010.06.03 18:28:57.
