data_PCOD9504718
_publ_section_title
;
Structure prediction by ZEFSAII (Michael W. Deem and Ramdas Pophale) SiO2 
 PCOD9504718
Probable space group: C M M A
;
_chemical_formula_sum "Si O2"
_cell_formula_units_Z 116
_cell_length_a 15.596686
_cell_length_b 27.717316
_cell_length_c 14.656301
_cell_angle_alpha 90.000000
_cell_angle_beta 90.000000
_cell_angle_gamma 90.000000
_cell_volume 6335.893632
_symmetry_space_group_name_H-M "C M M A"
_symmetry_group_IT_number 67
_symmetry_cell_setting 'orthorhombic'
loop_
_space_group_symop_operation_xyz
x,y,z
-x,1/2-y,z
x,-y,-z
-x,1/2+y,-z
-x,-y,-z
x,1/2+y,-z
-x,y,z
x,1/2-y,z
1/2+x,1/2+y,z
1/2-x,-y,z
1/2+x,1/2-y,-z
1/2-x,y,-z
1/2-x,1/2-y,-z
1/2+x,y,-z
1/2-x,1/2+y,z
1/2+x,-y,z
loop_
_atom_site_type_symbol
_atom_site_label
_atom_site_fract_x
_atom_site_fract_y
_atom_site_fract_z
Si Si1 0.604665 0.556163 0.101655
Si Si2 0.855154 0.824848 0.596652
Si Si3 0.397549 0.897264 0.713281
Si Si4 0.599970 0.415798 0.705451
Si Si5 0.648781 0.490220 0.397408
Si Si6 0.604531 0.056267 0.100119
Si Si7 0.500000 0.750000 0.347163
Si Si8 0.344004 0.195295 0.389278
O O1 0.500000 0.557059 0.103849
O O2 0.634363 0.584684 0.190920
O O3 0.629646 0.499869 0.110418
O O4 0.631856 0.572942 0.000965
O O5 0.855436 0.878693 0.637160
O O6 0.924585 0.792019 0.646961
O O7 0.759115 0.805070 0.606672
O O8 0.876154 0.822123 0.488908
O O9 0.500000 0.900153 0.714777
O O10 0.367006 0.936689 0.639412
O O11 0.365325 0.913626 0.813051
O O12 0.371581 0.843868 0.684354
O O13 0.500000 0.402748 0.706757
O O14 0.607691 0.470343 0.669418
O O15 0.616740 0.500000 0.500000
O O16 0.750000 0.500000 0.396856
O O17 0.500000 0.056965 0.100110
O O18 0.374319 0.250000 0.374011
#
# Coordination Sequence:
#
# PCOD9504718 Si02
#       8
#    16  16  16  16  16  16   4  16
#     4   8  14  27  51  78 110 139 174 227 279 325
#     4  11  22  38  58  83 111 142 183 235 281 327
#     4  11  22  34  56  83 109 145 193 232 272 332
#     4  11  20  31  55  85 106 136 182 225 273 333
#     4  11  23  37  47  68 112 154 181 216 275 338
#     4   8  14  29  50  78 109 142 179 226 275 323
#     4  12  20  38  64  84 108 138 192 248 264 320
#     4  11  23  40  56  78 111 151 185 229 288 329
#
# _framework density 18.308388999999998
#
# number of rings (size 3 to 8) (size 9 to 14) (size 15 to 20)
#    0.000    1.793    3.448    3.310    0.966    4.690 
#    0.000    0.000    0.000    4.138    1.793    0.966 
#    0.000    0.000    0.000    0.000    0.000    0.000 
#
# Total GULP energy -323233.242799 kJ/mol
# GULP energy per Si atom -5572.986945 kJ/mol
# Density = 1.826672 g / cm^3
# Si number density = 18.308389 Si / 1000 Ang^3
#
#
#
# Elastic Constant Matrix: (Units=GPa)
#
#
# Indices 1 2 3 4 5 6 
#
# 1 35.7078 4.7977 7.0564 0.0000 0.0000 0.0000
# 2 4.7977 107.3646 64.4121 0.0000 0.0000 0.0000
# 3 7.0564 64.4121 134.1700 0.0000 0.0000 0.0000
# 4 0.0000 0.0000 0.0000 7.9148 0.0000 0.0000
# 5 0.0000 0.0000 0.0000 0.0000 19.1376 0.0000
# 6 0.0000 0.0000 0.0000 0.0000 0.0000 27.6036
#
#
#
# Elastic Compliance Matrix: (Units=1/GPa)
#
#
# Indices 1 2 3 4 5 6 
#
# 1 0.028320 -0.000522 -0.001239 0.000000 0.000000 0.000000
# 2 -0.000522 0.013091 -0.006257 0.000000 0.000000 0.000000
# 3 -0.001239 -0.006257 0.010522 0.000000 0.000000 0.000000
# 4 0.000000 0.000000 0.000000 0.126346 0.000000 0.000000
# 5 0.000000 0.000000 0.000000 0.000000 0.052253 0.000000
# 6 0.000000 0.000000 0.000000 0.000000 0.000000 0.036227
#
#
# Mechanical properties :
#
#
# Convention : Reuss Voigt Hill
#
# Bulk Modulus (GPa) = 27.85749 47.75273 37.80511
# Shear Modulus (GPa) = 16.96276 24.32960 20.64618
#
# Velocity S-wave (km/s) = 3.04715 3.64933 3.36175
# Velocity P-wave (km/s) = 5.25632 6.62540 5.98017
#
# Compressibility (1/GPa) = 0.03589698
#
# Stress axis : x y z
#
# Youngs Moduli (GPa) = 35.31069 76.38551 95.03494
#
# Poissons Ratio (x) = 0.03990 0.11771
# Poissons Ratio (y) = 0.01845 0.59468
# Poissons Ratio (z) = 0.04374 0.47798
#
# Static dielectric constant tensor:
#      x y z
#    x 1.676290 0.000000 0.000000 
#    y 0.000000 1.637080 0.000000 
#    z 0.000000 0.000000 1.662720 
# 
# From -- ./inp_files/28778.got.cif
#   From: 2010.05.17/outbox.cif.g08.bks.cpg/sg67_15_cif.got.tgz:28778.got - 2010.06.03 18:28:57.
