data_PCOD9504832
_publ_section_title
;
Structure prediction by ZEFSAII (Michael W. Deem and Ramdas Pophale) SiO2 
 PCOD9504832
Probable space group: C M M A
;
_chemical_formula_sum "Si O2"
_cell_formula_units_Z 72
_cell_length_a 10.080684
_cell_length_b 14.704394
_cell_length_c 27.095723
_cell_angle_alpha 90.000000
_cell_angle_beta 90.000000
_cell_angle_gamma 90.000000
_cell_volume 4016.408486
_symmetry_space_group_name_H-M "C M M A"
_symmetry_group_IT_number 67
_symmetry_cell_setting 'orthorhombic'
loop_
_space_group_symop_operation_xyz
x,y,z
-x,1/2-y,z
x,-y,-z
-x,1/2+y,-z
-x,-y,-z
x,1/2+y,-z
-x,y,z
x,1/2-y,z
1/2+x,1/2+y,z
1/2-x,-y,z
1/2+x,1/2-y,-z
1/2-x,y,-z
1/2-x,1/2-y,-z
1/2+x,y,-z
1/2-x,1/2+y,z
1/2+x,-y,z
loop_
_atom_site_type_symbol
_atom_site_label
_atom_site_fract_x
_atom_site_fract_y
_atom_site_fract_z
Si Si1 0.000000 0.861066 0.952489
Si Si2 0.154827 0.750000 0.799796
Si Si3 0.842267 0.590345 0.373540
Si Si4 0.657087 0.750000 0.547456
Si Si5 0.843498 0.250000 0.705614
Si Si6 0.233081 0.099452 0.121713
Si Si7 0.000000 0.143568 0.935528
O O1 0.873680 0.895818 0.922292
O O2 0.000000 0.750000 0.949857
O O3 0.000000 0.894219 0.008872
O O4 0.249266 0.750000 0.752669
O O5 0.187110 0.834283 0.835415
O O6 0.000000 0.750000 0.786229
O O7 0.750000 0.500000 0.373413
O O8 0.818464 0.658946 0.419782
O O9 0.819986 0.659011 0.327222
O O10 0.000000 0.565931 0.373794
O O11 0.500000 0.750000 0.535122
O O12 0.750000 0.750000 0.500000
O O13 0.000000 0.250000 0.718938
O O14 0.371426 0.122745 0.096248
O O15 0.250000 0.000000 0.143046
O O16 0.000000 0.250000 0.944346
#
# Coordination Sequence:
#
# PCOD9504832 Si02
#       7
#     8   8  16   8   8  16   8
#     4  11  21  43  61  82 119 149 178 227 277 332
#     4  12  25  45  60  83 118 148 182 237 296 349
#     4   9  19  38  61  89 122 159 206 257 300 350
#     4   9  19  35  55  86 132 177 214 252 300 348
#     4   9  22  42  65  84 112 151 194 246 301 355
#     4  12  24  40  60  85 115 146 183 228 279 341
#     4  11  23  37  65  88 109 149 188 221 273 338
#
# _framework density 17.926463999999999
#
# number of rings (size 3 to 8) (size 9 to 14) (size 15 to 20)
#    0.000    1.556    3.333    2.667    1.556    7.556 
#    0.000    6.667    0.000    0.000    0.000    0.000 
#    0.000    0.000    0.000    0.000    0.000    0.000 
#
# Total GULP energy -200894.511791 kJ/mol
# GULP energy per Si atom -5580.403105 kJ/mol
# Density = 1.788566 g / cm^3
# Si number density = 17.926464 Si / 1000 Ang^3
#
#
#
# Elastic Constant Matrix: (Units=GPa)
#
#
# Indices 1 2 3 4 5 6 
#
# 1 156.6470 56.0845 82.1541 0.0000 0.0000 0.0000
# 2 56.0845 143.0510 42.5734 0.0000 0.0000 0.0000
# 3 82.1541 42.5734 131.3255 0.0000 0.0000 0.0000
# 4 0.0000 0.0000 0.0000 27.2013 0.0000 0.0000
# 5 0.0000 0.0000 0.0000 0.0000 37.9534 0.0000
# 6 0.0000 0.0000 0.0000 0.0000 0.0000 38.3303
#
#
#
# Elastic Compliance Matrix: (Units=1/GPa)
#
#
# Indices 1 2 3 4 5 6 
#
# 1 0.010148 -0.002312 -0.005599 0.000000 0.000000 0.000000
# 2 -0.002312 0.008264 -0.001232 0.000000 0.000000 0.000000
# 3 -0.005599 -0.001232 0.011517 0.000000 0.000000 0.000000
# 4 0.000000 0.000000 0.000000 0.036763 0.000000 0.000000
# 5 0.000000 0.000000 0.000000 0.000000 0.026348 0.000000
# 6 0.000000 0.000000 0.000000 0.000000 0.000000 0.026089
#
#
# Mechanical properties :
#
#
# Convention : Reuss Voigt Hill
#
# Bulk Modulus (GPa) = 85.89998 88.07193 86.98596
# Shear Modulus (GPa) = 35.38672 37.37777 36.38225
#
# Velocity S-wave (km/s) = 4.44778 4.57120 4.50991
# Velocity P-wave (km/s) = 8.62549 8.78051 8.70335
#
# Compressibility (1/GPa) = 0.01164145
#
# Stress axis : x y z
#
# Youngs Moduli (GPa) = 98.54229 121.00843 86.83117
#
# Poissons Ratio (x) = 0.27982 0.48614
# Poissons Ratio (y) = 0.22787 0.10701
# Poissons Ratio (z) = 0.55171 0.14914
#
# Static dielectric constant tensor:
#      x y z
#    x 1.535910 0.000000 0.000000 
#    y 0.000000 1.638300 0.000000 
#    z 0.000000 0.000000 1.594750 
# 
# From -- ./inp_files/43167.got.cif
#   From: 2010.05.17/outbox.cif.g08.bks.cpg/sg67_22_cif.got.tgz:43167.got - 2010.06.03 18:28:57.
