data_PCOD9504145
_publ_section_title
;
Structure prediction by ZEFSAII (Michael W. Deem and Ramdas Pophale) SiO2 
 PCOD9504145
Probable space group: C M M A
;
_chemical_formula_sum "Si O2"
_cell_formula_units_Z 72
_cell_length_a 16.127070
_cell_length_b 8.914372
_cell_length_c 24.832164
_cell_angle_alpha 90.000000
_cell_angle_beta 90.000000
_cell_angle_gamma 90.000000
_cell_volume 3569.938975
_symmetry_space_group_name_H-M "C M M A"
_symmetry_group_IT_number 67
_symmetry_cell_setting 'orthorhombic'
loop_
_space_group_symop_operation_xyz
x,y,z
-x,1/2-y,z
x,-y,-z
-x,1/2+y,-z
-x,-y,-z
x,1/2+y,-z
-x,y,z
x,1/2-y,z
1/2+x,1/2+y,z
1/2-x,-y,z
1/2+x,1/2-y,-z
1/2-x,y,-z
1/2-x,1/2-y,-z
1/2+x,y,-z
1/2-x,1/2+y,z
1/2+x,-y,z
loop_
_atom_site_type_symbol
_atom_site_label
_atom_site_fract_x
_atom_site_fract_y
_atom_site_fract_z
Si Si1 0.339184 0.427112 0.163923
Si Si2 0.595470 0.577436 0.267273
Si Si3 0.500000 0.931496 0.559723
Si Si4 0.162138 0.930754 0.617193
Si Si5 0.600143 0.921152 0.054820
O O1 0.333248 0.250000 0.160121
O O2 0.250000 0.500000 0.173051
O O3 0.392415 0.474936 0.215553
O O4 0.373992 0.492171 0.108259
O O5 0.500000 0.570742 0.285423
O O6 0.612992 0.750000 0.251053
O O7 0.650781 0.539638 0.318802
O O8 0.500000 0.750000 0.559400
O O9 0.500000 0.000000 0.500000
O O10 0.416769 0.993353 0.588524
O O11 0.160125 0.750000 0.609435
O O12 0.250000 0.000000 0.599285
O O13 0.500000 0.918530 0.053062
O O14 0.630248 0.750000 0.057327
O O15 0.629534 0.000000 0.000000
#
# Coordination Sequence:
#
# PCOD9504145 Si02
#       5
#    16  16   8  16  16
#     4  12  25  39  57  85 120 159 205 256 310 376
#     4  10  21  40  65  93 128 168 209 261 321 382
#     4  12  26  46  72 102 138 182 229 280 333 394
#     4  11  23  43  69 102 139 180 226 278 335 397
#     4  10  21  39  62  86 114 150 194 247 307 374
#
# _framework density 20.168412
#
# number of rings (size 3 to 8) (size 9 to 14) (size 15 to 20)
#    0.000    1.111    1.111    5.667    0.000    8.889 
#    0.000    4.444    0.000    0.000    0.000    0.000 
#    0.000    0.000    0.000    0.000    0.000    0.000 
#
# Total GULP energy -201334.749889 kJ/mol
# GULP energy per Si atom -5592.631941 kJ/mol
# Density = 2.012251 g / cm^3
# Si number density = 20.168412 Si / 1000 Ang^3
#
#
#
# Elastic Constant Matrix: (Units=GPa)
#
#
# Indices 1 2 3 4 5 6 
#
# 1 107.5410 57.1070 43.4859 0.0000 0.0000 0.0000
# 2 57.1070 165.4233 79.7157 0.0000 0.0000 0.0000
# 3 43.4859 79.7157 106.7426 0.0000 0.0000 0.0000
# 4 0.0000 0.0000 0.0000 33.2188 0.0000 0.0000
# 5 0.0000 0.0000 0.0000 0.0000 6.9695 0.0000
# 6 0.0000 0.0000 0.0000 0.0000 0.0000 33.2044
#
#
#
# Elastic Compliance Matrix: (Units=1/GPa)
#
#
# Indices 1 2 3 4 5 6 
#
# 1 0.011891 -0.002766 -0.002779 0.000000 0.000000 0.000000
# 2 -0.002766 0.010087 -0.006406 0.000000 0.000000 0.000000
# 3 -0.002779 -0.006406 0.015284 0.000000 0.000000 0.000000
# 4 0.000000 0.000000 0.000000 0.030103 0.000000 0.000000
# 5 0.000000 0.000000 0.000000 0.000000 0.143483 0.000000
# 6 0.000000 0.000000 0.000000 0.000000 0.000000 0.030116
#
#
# Mechanical properties :
#
#
# Convention : Reuss Voigt Hill
#
# Bulk Modulus (GPa) = 74.84495 82.25827 78.55161
# Shear Modulus (GPa) = 18.56520 27.97175 23.26847
#
# Velocity S-wave (km/s) = 3.03728 3.72816 3.40031
# Velocity P-wave (km/s) = 7.03496 7.70756 7.37893
#
# Compressibility (1/GPa) = 0.01336095
#
# Stress axis : x y z
#
# Youngs Moduli (GPa) = 84.09566 99.13696 65.42578
#
# Poissons Ratio (x) = 0.27422 0.18180
# Poissons Ratio (y) = 0.23261 0.41913
# Poissons Ratio (z) = 0.23367 0.63509
#
# Static dielectric constant tensor:
#      x y z
#    x 1.734090 0.000000 0.000000 
#    y 0.000000 1.691800 0.000000 
#    z 0.000000 0.000000 1.702660 
# 
# From -- ./inp_files/44246.got.cif
#   From: 2010.05.17/outbox.cif.g08.bks.cpg/sg67_23_cif.got.tgz:44246.got - 2010.06.03 18:28:57.
