data_PCOD9504546
_publ_section_title
;
Structure prediction by ZEFSAII (Michael W. Deem and Ramdas Pophale) SiO2 
 PCOD9504546
Probable space group: C M M A
;
_chemical_formula_sum "Si O2"
_cell_formula_units_Z 104
_cell_length_a 8.517332
_cell_length_b 20.091053
_cell_length_c 30.163637
_cell_angle_alpha 90.000000
_cell_angle_beta 90.000000
_cell_angle_gamma 90.000000
_cell_volume 5161.666977
_symmetry_space_group_name_H-M "C M M A"
_symmetry_group_IT_number 67
_symmetry_cell_setting 'orthorhombic'
loop_
_space_group_symop_operation_xyz
x,y,z
-x,1/2-y,z
x,-y,-z
-x,1/2+y,-z
-x,-y,-z
x,1/2+y,-z
-x,y,z
x,1/2-y,z
1/2+x,1/2+y,z
1/2-x,-y,z
1/2+x,1/2-y,-z
1/2-x,y,-z
1/2-x,1/2-y,-z
1/2+x,y,-z
1/2-x,1/2+y,z
1/2+x,-y,z
loop_
_atom_site_type_symbol
_atom_site_label
_atom_site_fract_x
_atom_site_fract_y
_atom_site_fract_z
Si Si1 0.687253 0.391073 0.857853
Si Si2 0.250000 0.500000 0.209886
Si Si3 0.673960 0.400526 0.709167
Si Si4 0.682844 0.070109 0.381774
Si Si5 0.688798 0.575735 0.953755
Si Si6 0.320246 0.750000 0.258307
Si Si7 0.690124 0.173712 0.452566
Si Si8 0.820408 0.750000 0.168772
O O1 0.500000 0.405926 0.851433
O O2 0.788455 0.442619 0.827466
O O3 0.735894 0.396316 0.909045
O O4 0.728848 0.316376 0.844500
O O5 0.316394 0.553552 0.246577
O O6 0.500000 0.411281 0.690620
O O7 0.790582 0.421320 0.670670
O O8 0.693080 0.321619 0.718090
O O9 0.500000 0.069150 0.389866
O O10 0.748538 0.130016 0.411408
O O11 0.750000 0.000000 0.396138
O O12 0.500000 0.577790 0.952122
O O13 0.750000 0.500000 0.954228
O O14 0.750000 0.606696 0.000000
O O15 0.500000 0.750000 0.239495
O O16 0.186827 0.750000 0.221620
O O17 0.500000 0.174242 0.453176
O O18 0.743761 0.250000 0.447799
O O19 0.750000 0.148246 0.500000
O O20 0.000000 0.750000 0.152338
#
# Coordination Sequence:
#
# PCOD9504546 Si02
#       8
#    16   8  16  16  16   8  16   8
#     4  12  25  44  68  94 130 171 213 264 323 378
#     4  12  24  38  69  96 129 164 216 260 314 372
#     4  11  24  42  64  90 125 166 212 260 311 374
#     4  11  24  40  61  88 125 163 204 255 309 369
#     4  11  22  39  64  96 132 167 211 262 320 381
#     4  10  22  44  64  85 120 167 214 260 319 375
#     4   9  20  40  64  91 121 156 201 252 308 367
#     4  12  26  42  63  93 128 165 217 266 317 385
#
# _framework density 20.148530000000001
#
# number of rings (size 3 to 8) (size 9 to 14) (size 15 to 20)
#    0.000    1.077    3.077    3.923    1.077    4.615 
#    0.000    1.923    0.000    0.000    0.000    0.000 
#    0.000    0.000    0.000    0.000    0.000    0.000 
#
# Total GULP energy -289583.025054 kJ/mol
# GULP energy per Si atom -5568.904328 kJ/mol
# Density = 2.010267 g / cm^3
# Si number density = 20.148530 Si / 1000 Ang^3
#
#
#
# Elastic Constant Matrix: (Units=GPa)
#
#
# Indices 1 2 3 4 5 6 
#
# 1 60.4625 20.8318 15.6981 0.0000 0.0000 0.0000
# 2 20.8318 118.3890 34.5538 0.0000 0.0000 0.0000
# 3 15.6981 34.5538 101.4092 0.0000 0.0000 0.0000
# 4 0.0000 0.0000 0.0000 40.1619 0.0000 0.0000
# 5 0.0000 0.0000 0.0000 0.0000 22.8361 0.0000
# 6 0.0000 0.0000 0.0000 0.0000 0.0000 12.7316
#
#
#
# Elastic Compliance Matrix: (Units=1/GPa)
#
#
# Indices 1 2 3 4 5 6 
#
# 1 0.017926 -0.002603 -0.001888 0.000000 0.000000 0.000000
# 2 -0.002603 0.009758 -0.002922 0.000000 0.000000 0.000000
# 3 -0.001888 -0.002922 0.011149 0.000000 0.000000 0.000000
# 4 0.000000 0.000000 0.000000 0.024899 0.000000 0.000000
# 5 0.000000 0.000000 0.000000 0.000000 0.043790 0.000000
# 6 0.000000 0.000000 0.000000 0.000000 0.000000 0.078545
#
#
# Mechanical properties :
#
#
# Convention : Reuss Voigt Hill
#
# Bulk Modulus (GPa) = 41.65505 46.93645 44.29575
# Shear Modulus (GPa) = 23.93544 29.09106 26.51325
#
# Velocity S-wave (km/s) = 3.45040 3.80390 3.63146
# Velocity P-wave (km/s) = 6.04918 6.52983 6.29409
#
# Compressibility (1/GPa) = 0.02400669
#
# Stress axis : x y z
#
# Youngs Moduli (GPa) = 55.78401 102.48444 89.69542
#
# Poissons Ratio (x) = 0.26680 0.16934
# Poissons Ratio (y) = 0.14522 0.26207
# Poissons Ratio (z) = 0.10532 0.29944
#
# Static dielectric constant tensor:
#      x y z
#    x 1.688970 0.000000 0.000000 
#    y 0.000000 0.596270 0.000000 
#    z 0.000000 0.000000 1.722040 
# 
# From -- ./inp_files/43625.got.cif
#   From: 2010.05.17/outbox.cif.g08.bks.cpg/sg67_22_cif.got.tgz:43625.got - 2010.06.03 18:28:57.
