data_PCOD9504849
_publ_section_title
;
Structure prediction by ZEFSAII (Michael W. Deem and Ramdas Pophale) SiO2 
 PCOD9504849
Probable space group: C M M A
;
_chemical_formula_sum "Si O2"
_cell_formula_units_Z 96
_cell_length_a 26.887832
_cell_length_b 17.601952
_cell_length_c 11.970392
_cell_angle_alpha 90.000000
_cell_angle_beta 90.000000
_cell_angle_gamma 90.000000
_cell_volume 5665.327114
_symmetry_space_group_name_H-M "C M M A"
_symmetry_group_IT_number 67
_symmetry_cell_setting 'orthorhombic'
loop_
_space_group_symop_operation_xyz
x,y,z
-x,1/2-y,z
x,-y,-z
-x,1/2+y,-z
-x,-y,-z
x,1/2+y,-z
-x,y,z
x,1/2-y,z
1/2+x,1/2+y,z
1/2-x,-y,z
1/2+x,1/2-y,-z
1/2-x,y,-z
1/2-x,1/2-y,-z
1/2+x,y,-z
1/2-x,1/2+y,z
1/2+x,-y,z
loop_
_atom_site_type_symbol
_atom_site_label
_atom_site_fract_x
_atom_site_fract_y
_atom_site_fract_z
Si Si1 0.178402 0.159012 0.271885
Si Si2 0.134262 0.411071 0.485396
Si Si3 0.693987 0.089328 0.971275
Si Si4 0.057066 0.158145 0.655882
Si Si5 0.368245 0.837785 0.838673
Si Si6 0.210408 0.164031 0.638445
O O1 0.169032 0.250000 0.256928
O O2 0.140971 0.120183 0.360105
O O3 0.181271 0.114281 0.154716
O O4 0.233218 0.151842 0.326701
O O5 0.125264 0.500000 0.500000
O O6 0.090684 0.368361 0.552550
O O7 0.185611 0.391698 0.550310
O O8 0.750000 0.119120 0.000000
O O9 0.651846 0.122359 0.052040
O O10 0.695327 0.000000 0.000000
O O11 0.058495 0.250000 0.658066
O O12 0.084608 0.131321 0.769507
O O13 0.000000 0.133536 0.648593
O O14 0.378070 0.750000 0.865410
O O15 0.323143 0.840877 0.749400
O O16 0.204786 0.250000 0.593249
#
# Coordination Sequence:
#
# PCOD9504849 Si02
#       6
#    16  16  16  16  16  16
#     4  11  22  35  53  78 113 156 192 223 271 329
#     4  11  23  33  53  81 115 144 176 228 283 336
#     4  11  23  33  51  78 118 153 185 222 267 323
#     4   9  19  38  63  83 101 134 183 235 280 330
#     4   9  17  33  55  77 102 139 185 226 262 311
#     4   9  18  33  52  73 106 147 188 221 256 318
#
# _framework density 16.945181999999999
#
# number of rings (size 3 to 8) (size 9 to 14) (size 15 to 20)
#    0.000    2.000    1.667    3.500    4.667    3.667 
#    0.000    0.000    0.000    1.500    0.000    2.333 
#    0.000    0.000    0.000    0.000    0.000    0.000 
#
# Total GULP energy -267651.232113 kJ/mol
# GULP energy per Si atom -5576.067336 kJ/mol
# Density = 1.690661 g / cm^3
# Si number density = 16.945182 Si / 1000 Ang^3
#
#
#
# Elastic Constant Matrix: (Units=GPa)
#
#
# Indices 1 2 3 4 5 6 
#
# 1 95.4188 28.8512 54.6083 0.0000 0.0000 0.0000
# 2 28.8512 53.0614 42.4274 0.0000 0.0000 0.0000
# 3 54.6083 42.4274 119.1123 0.0000 0.0000 0.0000
# 4 0.0000 0.0000 0.0000 23.3882 0.0000 0.0000
# 5 0.0000 0.0000 0.0000 0.0000 10.5238 0.0000
# 6 0.0000 0.0000 0.0000 0.0000 0.0000 15.6496
#
#
#
# Elastic Compliance Matrix: (Units=1/GPa)
#
#
# Indices 1 2 3 4 5 6 
#
# 1 0.014694 -0.003640 -0.005440 0.000000 0.000000 0.000000
# 2 -0.003640 0.027253 -0.008039 0.000000 0.000000 0.000000
# 3 -0.005440 -0.008039 0.013753 0.000000 0.000000 0.000000
# 4 0.000000 0.000000 0.000000 0.042757 0.000000 0.000000
# 5 0.000000 0.000000 0.000000 0.000000 0.095022 0.000000
# 6 0.000000 0.000000 0.000000 0.000000 0.000000 0.063899
#
#
# Mechanical properties :
#
#
# Convention : Reuss Voigt Hill
#
# Bulk Modulus (GPa) = 46.59274 57.70736 52.15005
# Shear Modulus (GPa) = 16.73531 19.35937 18.04734
#
# Velocity S-wave (km/s) = 3.14604 3.38371 3.26704
# Velocity P-wave (km/s) = 6.38378 7.02818 6.71371
#
# Compressibility (1/GPa) = 0.02146257
#
# Stress axis : x y z
#
# Youngs Moduli (GPa) = 68.05469 36.69350 72.71187
#
# Poissons Ratio (x) = 0.13355 0.39557
# Poissons Ratio (y) = 0.24770 0.58451
# Poissons Ratio (z) = 0.37023 0.29497
#
# Static dielectric constant tensor:
#      x y z
#    x 1.567090 0.000000 0.000000 
#    y 0.000000 1.593640 0.000000 
#    z 0.000000 0.000000 1.586650 
# 
# From -- ./inp_files/22943.got.cif
#   From: 2010.05.17/outbox.cif.g08.bks.cpg/sg67_12_cif.got.tgz:22943.got - 2010.06.03 18:28:57.
