data_PCOD9504618
_publ_section_title
;
Structure prediction by ZEFSAII (Michael W. Deem and Ramdas Pophale) SiO2 
 PCOD9504618
Probable space group: C M M A
;
_chemical_formula_sum "Si O2"
_cell_formula_units_Z 72
_cell_length_a 24.427618
_cell_length_b 11.612033
_cell_length_c 11.129856
_cell_angle_alpha 90.000000
_cell_angle_beta 90.000000
_cell_angle_gamma 90.000000
_cell_volume 3157.031583
_symmetry_space_group_name_H-M "C M M A"
_symmetry_group_IT_number 67
_symmetry_cell_setting 'orthorhombic'
loop_
_space_group_symop_operation_xyz
x,y,z
-x,1/2-y,z
x,-y,-z
-x,1/2+y,-z
-x,-y,-z
x,1/2+y,-z
-x,y,z
x,1/2-y,z
1/2+x,1/2+y,z
1/2-x,-y,z
1/2+x,1/2-y,-z
1/2-x,y,-z
1/2-x,1/2-y,-z
1/2+x,y,-z
1/2-x,1/2+y,z
1/2+x,-y,z
loop_
_atom_site_type_symbol
_atom_site_label
_atom_site_fract_x
_atom_site_fract_y
_atom_site_fract_z
Si Si1 0.000000 0.872905 0.938975
Si Si2 0.109522 0.414588 0.201045
Si Si3 0.730123 0.876814 0.136742
Si Si4 0.857961 0.877033 0.524986
Si Si5 0.938216 0.880888 0.303288
O O1 0.054695 0.870288 0.858995
O O2 0.000000 0.750000 0.009545
O O3 0.000000 0.000000 0.000000
O O4 0.164605 0.383284 0.134507
O O5 0.119655 0.378469 0.339216
O O6 0.099386 0.550815 0.211033
O O7 0.745489 0.750000 0.190922
O O8 0.750000 0.000000 0.192601
O O9 0.750000 0.876085 0.000000
O O10 0.831444 0.750000 0.505539
O O11 0.908755 0.883750 0.432345
O O12 0.827699 0.000000 0.500000
O O13 0.941298 0.750000 0.267173
O O14 0.000000 0.929356 0.308779
#
# Coordination Sequence:
#
# PCOD9504618 Si02
#       5
#     8  16  16  16  16
#     4  12  28  42  59  90 130 168 207 260 325 388
#     4  11  22  40  65  93 128 169 213 257 321 382
#     4  10  23  43  67  88 112 153 215 277 324 370
#     4   9  18  31  56  90 131 168 203 240 289 371
#     4   9  18  33  58  99 144 179 204 236 298 385
#
# _framework density 22.806234
#
# number of rings (size 3 to 8) (size 9 to 14) (size 15 to 20)
#    0.000    2.000    1.111    2.000    4.667    3.111 
#    0.000    0.000    0.000    6.000    0.000   21.778 
#    0.000    0.000    0.000    0.000    0.000    0.000 
#
# Total GULP energy -200614.292267 kJ/mol
# GULP energy per Si atom -5572.619230 kJ/mol
# Density = 2.275433 g / cm^3
# Si number density = 22.806234 Si / 1000 Ang^3
#
#
#
# Elastic Constant Matrix: (Units=GPa)
#
#
# Indices 1 2 3 4 5 6 
#
# 1 100.6813 33.8970 40.4232 0.0000 0.0000 0.0000
# 2 33.8970 228.7689 24.1257 0.0000 0.0000 0.0000
# 3 40.4232 24.1257 76.8538 0.0000 0.0000 0.0000
# 4 0.0000 0.0000 0.0000 4.5464 0.0000 0.0000
# 5 0.0000 0.0000 0.0000 0.0000 -20.0120 0.0000
# 6 0.0000 0.0000 0.0000 0.0000 0.0000 -92.0629
#
#
#
# Elastic Compliance Matrix: (Units=1/GPa)
#
#
# Indices 1 2 3 4 5 6 
#
# 1 0.012922 -0.001239 -0.006408 0.000000 0.000000 0.000000
# 2 -0.001239 0.004640 -0.000805 0.000000 0.000000 0.000000
# 3 -0.006408 -0.000805 0.016635 0.000000 0.000000 0.000000
# 4 0.000000 0.000000 0.000000 0.219954 0.000000 0.000000
# 5 0.000000 0.000000 0.000000 0.000000 -0.049970 0.000000
# 6 0.000000 0.000000 0.000000 0.000000 0.000000 -0.010862
#
#
# Mechanical properties :
#
#
# Convention : Reuss Voigt Hill
#
# Bulk Modulus (GPa) = 57.82548 67.02175 62.42362
# Shear Modulus (GPa) = 23.14968 -0.98182 11.08393
#
# Velocity S-wave (km/s) = 3.18946 -0.65684 2.20694
# Velocity P-wave (km/s) = 6.24289 5.37364 5.82450
#
# Compressibility (1/GPa) = 0.01729341
#
# Stress axis : x y z
#
# Youngs Moduli (GPa) = 77.38645 215.53241 60.11526
#
# Poissons Ratio (x) = 0.26703 0.38521
# Poissons Ratio (y) = 0.09588 0.04838
# Poissons Ratio (z) = 0.49588 0.17347
#
# Static dielectric constant tensor:
#      x y z
#    x 1.791190 0.000000 0.000000 
#    y 0.000000 2.056620 0.000000 
#    z 0.000000 0.000000 1.826550 
# 
# From -- ./inp_files/22690.got.cif
#   From: 2010.05.17/outbox.cif.g08.bks.cpg/sg67_12_cif.got.tgz:22690.got - 2010.06.03 18:28:57.
