data_PCOD9504497
_publ_section_title
;
Structure prediction by ZEFSAII (Michael W. Deem and Ramdas Pophale) SiO2 
 PCOD9504497
Probable space group: C M M A
;
_chemical_formula_sum "Si O2"
_cell_formula_units_Z 56
_cell_length_a 10.128839
_cell_length_b 30.864863
_cell_length_c 9.928156
_cell_angle_alpha 90.000000
_cell_angle_beta 90.000000
_cell_angle_gamma 90.000000
_cell_volume 3103.792034
_symmetry_space_group_name_H-M "C M M A"
_symmetry_group_IT_number 67
_symmetry_cell_setting 'orthorhombic'
loop_
_space_group_symop_operation_xyz
x,y,z
-x,1/2-y,z
x,-y,-z
-x,1/2+y,-z
-x,-y,-z
x,1/2+y,-z
-x,y,z
x,1/2-y,z
1/2+x,1/2+y,z
1/2-x,-y,z
1/2+x,1/2-y,-z
1/2-x,y,-z
1/2-x,1/2-y,-z
1/2+x,y,-z
1/2-x,1/2+y,z
1/2+x,-y,z
loop_
_atom_site_type_symbol
_atom_site_label
_atom_site_fract_x
_atom_site_fract_y
_atom_site_fract_z
Si Si1 0.340494 0.750000 0.133437
Si Si2 0.500000 0.044499 0.417356
Si Si3 0.000000 0.957737 0.095257
Si Si4 0.250000 0.401868 0.000000
Si Si5 0.843726 0.656605 0.753043
Si Si6 0.750000 0.103032 0.500000
O O1 0.500000 0.750000 0.102494
O O2 0.310041 0.793467 0.216963
O O3 0.250000 0.750000 0.000000
O O4 0.500000 0.034792 0.256633
O O5 0.627345 0.072481 0.460427
O O6 0.500000 0.000000 0.500000
O O7 0.131059 0.930843 0.057417
O O8 0.000000 0.000000 0.000000
O O9 0.194843 0.371403 0.117204
O O10 0.777855 0.634096 0.625856
O O11 0.000000 0.654286 0.733045
#
# Coordination Sequence:
#
# PCOD9504497 Si02
#       6
#     8   8   8   8  16   8
#     4  10  22  41  66 102 136 168 212 273 324 380
#     4  12  28  44  66  95 130 172 219 276 337 387
#     4  12  28  42  64  97 126 166 219 272 329 383
#     4  12  23  41  68  92 130 168 212 265 323 392
#     4  11  23  42  69  98 132 171 216 266 325 389
#     4  12  25  45  68  92 134 176 220 263 329 400
#
# _framework density 18.042446000000002
#
# number of rings (size 3 to 8) (size 9 to 14) (size 15 to 20)
#    0.000    0.571    7.143    0.857    4.000    2.857 
#    2.571    0.000    0.000    0.000    0.000    0.000 
#    0.000    0.000    0.000    0.000    0.000    0.000 
#
# Total GULP energy -156504.968039 kJ/mol
# GULP energy per Si atom -5589.463144 kJ/mol
# Density = 1.800138 g / cm^3
# Si number density = 18.042446 Si / 1000 Ang^3
#
#
#
# Elastic Constant Matrix: (Units=GPa)
#
#
# Indices 1 2 3 4 5 6 
#
# 1 114.0734 79.7069 54.7384 0.0000 0.0000 0.0000
# 2 79.7069 189.8312 101.2635 0.0000 0.0000 0.0000
# 3 54.7384 101.2635 174.1938 0.0000 0.0000 0.0000
# 4 0.0000 0.0000 0.0000 45.0610 0.0000 0.0000
# 5 0.0000 0.0000 0.0000 0.0000 30.9361 0.0000
# 6 0.0000 0.0000 0.0000 0.0000 0.000034730.5248
#
#
#
# Elastic Compliance Matrix: (Units=1/GPa)
#
#
# Indices 1 2 3 4 5 6 
#
# 1 0.012600 -0.004607 -0.001281 0.000000 0.000000 0.000000
# 2 -0.004607 0.009320 -0.003970 0.000000 0.000000 0.000000
# 3 -0.001281 -0.003970 0.008451 0.000000 0.000000 0.000000
# 4 0.000000 0.000000 0.000000 0.022192 0.000000 0.000000
# 5 0.000000 0.000000 0.000000 0.000000 0.032325 0.000000
# 6 0.000000 0.000000 0.000000 0.000000 0.000000 0.000029
#
#
# Mechanical properties :
#
#
# Convention : Reuss Voigt Hill
#
# Bulk Modulus (GPa) = 93.85765 105.50179 99.67972
# Shear Modulus (GPa) = 46.21644 6977.46369 3511.84007
#
# Velocity S-wave (km/s) = 5.06666 62.25468 44.16625
# Velocity P-wave (km/s) = 9.29308 72.29196 51.53877
#
# Compressibility (1/GPa) = 0.01065443
#
# Stress axis : x y z
#
# Youngs Moduli (GPa) = 79.36328 107.29293 118.32336
#
# Poissons Ratio (x) = 0.49432 0.15160
# Poissons Ratio (y) = 0.36564 0.46979
# Poissons Ratio (z) = 0.10168 0.42599
#
# Static dielectric constant tensor:
#      x y z
#    x 1.604980 0.000000 0.000000 
#    y 0.000000 1.601150 0.000000 
#    z 0.000000 0.000000 1.821190 
# 
# From -- ./inp_files/6686.got.cif
#   From: 2010.05.17/outbox.cif.g08.bks.cpg/sg67_4_cif.got.tgz:6686.got - 2010.06.03 18:28:57.
