data_PCOD9504777
_publ_section_title
;
Structure prediction by ZEFSAII (Michael W. Deem and Ramdas Pophale) SiO2 
 PCOD9504777
Probable space group: C M M A
;
_chemical_formula_sum "Si O2"
_cell_formula_units_Z 112
_cell_length_a 27.213487
_cell_length_b 15.474387
_cell_length_c 15.906218
_cell_angle_alpha 90.000000
_cell_angle_beta 90.000000
_cell_angle_gamma 90.000000
_cell_volume 6698.299743
_symmetry_space_group_name_H-M "C M M A"
_symmetry_group_IT_number 67
_symmetry_cell_setting 'orthorhombic'
loop_
_space_group_symop_operation_xyz
x,y,z
-x,1/2-y,z
x,-y,-z
-x,1/2+y,-z
-x,-y,-z
x,1/2+y,-z
-x,y,z
x,1/2-y,z
1/2+x,1/2+y,z
1/2-x,-y,z
1/2+x,1/2-y,-z
1/2-x,y,-z
1/2-x,1/2-y,-z
1/2+x,y,-z
1/2-x,1/2+y,z
1/2+x,-y,z
loop_
_atom_site_type_symbol
_atom_site_label
_atom_site_fract_x
_atom_site_fract_y
_atom_site_fract_z
Si Si1 0.807064 0.105287 0.315552
Si Si2 0.306875 0.895446 1.000000
Si Si3 0.441760 0.500000 0.101014
Si Si4 0.126954 0.847463 0.842400
Si Si5 0.807064 0.894712 0.315552
Si Si6 0.190421 0.599654 0.500000
Si Si7 0.626954 0.652537 0.842400
O O1 0.843285 0.136192 0.243342
O O2 0.750000 0.130788 0.300073
O O3 0.822609 0.136781 0.408863
O O4 0.807461 1.000000 0.316467
O O5 0.334358 0.861528 0.917899
O O6 0.250000 0.870385 0.000000
O O7 0.334359 0.861528 0.082101
O O8 0.309498 0.000000 0.000000
O O9 0.500000 0.500000 0.113964
O O10 0.415523 0.583077 0.141294
O O11 0.415523 0.416924 0.141294
O O12 0.432516 0.500000 0.000000
O O13 0.108059 0.750000 0.844864
O O14 0.822608 0.863219 0.408863
O O15 0.843285 0.863807 0.243342
O O16 0.173260 0.500000 0.500000
O O17 0.250000 0.597724 0.500000
O O18 0.608059 0.750000 0.844864
#
# Coordination Sequence:
#
# PCOD9504777 Si02
#       7
#    16  16  16  16  16  16  16
#     4   9  16  29  50  77 113 151 184 216 252 301
#     4  11  21  35  53  75 111 150 179 208 248 304
#     4  11  24  44  62  77 100 131 175 230 281 321
#     4  12  22  35  55  81 108 139 177 214 265 320
#     4   9  16  29  50  77 113 151 184 216 252 301
#     4   7  12  24  45  73 105 147 189 218 247 290
#     4  12  22  35  55  81 108 139 177 214 265 320
#
# _framework density 16.720661
#
# number of rings (size 3 to 8) (size 9 to 14) (size 15 to 20)
#    0.000    1.857    4.286    3.000    0.000    5.714 
#    0.000    2.143    0.000    2.571    0.000    2.000 
#    0.000    2.286    0.000    0.000    0.000    0.000 
#
# Total GULP energy -312469.972691 kJ/mol
# GULP energy per Si atom -5579.820941 kJ/mol
# Density = 1.668260 g / cm^3
# Si number density = 16.720661 Si / 1000 Ang^3
#
#
#
# Elastic Constant Matrix: (Units=GPa)
#
#
# Indices 1 2 3 4 5 6 
#
# 1 102.2395 48.6950 60.0744 0.0000 0.0000 0.0000
# 2 48.6950 110.3156 39.9079 0.0000 0.0000 0.0000
# 3 60.0744 39.9079 157.5903 0.0000 0.0000 0.0000
# 4 0.0000 0.0000 0.0000 -33.7699 0.0000 0.0000
# 5 0.0000 0.0000 0.0000 0.0000 0.8645 0.0000
# 6 0.0000 0.0000 0.0000 0.0000 0.0000 -7.4670
#
#
#
# Elastic Compliance Matrix: (Units=1/GPa)
#
#
# Indices 1 2 3 4 5 6 
#
# 1 0.014673 -0.004903 -0.004352 0.000000 0.000000 0.000000
# 2 -0.004903 0.011617 -0.001073 0.000000 0.000000 0.000000
# 3 -0.004352 -0.001073 0.008276 0.000000 0.000000 0.000000
# 4 0.000000 0.000000 0.000000 -0.029612 0.000000 0.000000
# 5 0.000000 0.000000 0.000000 0.000000 1.156686 0.000000
# 6 0.000000 0.000000 0.000000 0.000000 0.000000 -0.133922
#
#
# Mechanical properties :
#
#
# Convention : Reuss Voigt Hill
#
# Bulk Modulus (GPa) = 71.88320 74.16666 73.02493
# Shear Modulus (GPa) = 4.74829 6.69006 5.71917
#
# Velocity S-wave (km/s) = 1.68699 2.00244 1.85145
# Velocity P-wave (km/s) = 6.84679 7.05684 6.95261
#
# Compressibility (1/GPa) = 0.01391146
#
# Stress axis : x y z
#
# Youngs Moduli (GPa) = 68.15178 86.07965 120.82698
#
# Poissons Ratio (x) = 0.42201 0.52584
# Poissons Ratio (y) = 0.33412 0.12965
# Poissons Ratio (z) = 0.29659 0.09236
#
# Static dielectric constant tensor:
#      x y z
#    x 1.514190 0.000000 0.000000 
#    y 0.000000 1.602730 0.000000 
#    z 0.000000 0.000000 1.583050 
# 
# From -- ./inp_files/30802.got.cif
#   From: 2010.05.17/outbox.cif.g08.bks.cpg/sg67_16_cif.got.tgz:30802.got - 2010.06.03 18:28:57.
