data_PCOD9504178
_publ_section_title
;
Structure prediction by ZEFSAII (Michael W. Deem and Ramdas Pophale) SiO2 
 PCOD9504178
Probable space group: C M M A
;
_chemical_formula_sum "Si O2"
_cell_formula_units_Z 112
_cell_length_a 29.169692
_cell_length_b 30.485686
_cell_length_c 5.994323
_cell_angle_alpha 90.000000
_cell_angle_beta 90.000000
_cell_angle_gamma 90.000000
_cell_volume 5330.500108
_symmetry_space_group_name_H-M "C M M A"
_symmetry_group_IT_number 67
_symmetry_cell_setting 'orthorhombic'
loop_
_space_group_symop_operation_xyz
x,y,z
-x,1/2-y,z
x,-y,-z
-x,1/2+y,-z
-x,-y,-z
x,1/2+y,-z
-x,y,z
x,1/2-y,z
1/2+x,1/2+y,z
1/2-x,-y,z
1/2+x,1/2-y,-z
1/2-x,y,-z
1/2-x,1/2-y,-z
1/2+x,y,-z
1/2-x,1/2+y,z
1/2+x,-y,z
loop_
_atom_site_type_symbol
_atom_site_label
_atom_site_fract_x
_atom_site_fract_y
_atom_site_fract_z
Si Si1 0.885667 0.799665 0.305353
Si Si2 0.861838 0.135177 0.302810
Si Si3 0.202190 0.175339 0.940919
Si Si4 0.728447 0.086893 0.247158
Si Si5 0.949209 0.037826 0.812911
Si Si6 0.354941 0.953404 0.570631
Si Si7 0.052145 0.138056 0.984882
O O1 0.899456 0.750000 0.361007
O O2 0.866829 0.828346 0.508108
O O3 0.841625 0.798188 0.141652
O O4 0.926484 0.828285 0.195704
O O5 0.855822 0.085962 0.393193
O O6 0.819379 0.147785 0.146331
O O7 0.910271 0.138133 0.177486
O O8 0.217803 0.138750 0.761666
O O9 0.250000 0.198487 0.000000
O O10 0.750000 0.076952 0.500000
O O11 0.678672 0.064211 0.240069
O O12 0.750000 0.076355 0.000000
O O13 0.906253 0.037626 0.650925
O O14 0.948909 0.087543 0.905234
O O15 0.000000 0.030896 0.713912
O O16 0.943126 0.000000 0.000000
O O17 0.335263 0.000000 0.500000
O O18 0.000000 0.150288 0.045077
#
# Coordination Sequence:
#
# PCOD9504178 Si02
#       7
#    16  16  16  16  16  16  16
#     4  11  24  42  66  95 131 169 225 289 347 417
#     4  11  22  42  63  97 134 174 228 285 345 412
#     4  10  22  41  70  91 132 175 220 283 352 412
#     4  11  24  44  70 100 141 190 237 293 346 416
#     4  10  21  39  63  97 135 172 222 283 346 416
#     4  12  23  39  65  98 136 187 231 282 349 418
#     4  10  22  42  67  93 132 180 223 281 349 417
#
# _framework density 21.011161999999999
#
# number of rings (size 3 to 8) (size 9 to 14) (size 15 to 20)
#    0.000    1.286    2.857    3.429    0.000    5.714 
#    0.000    3.571    0.000    0.000    0.000    0.000 
#    0.000    0.000    0.000    0.000    0.000    0.000 
#
# Total GULP energy -312191.990656 kJ/mol
# GULP energy per Si atom -5574.856976 kJ/mol
# Density = 2.096334 g / cm^3
# Si number density = 21.011162 Si / 1000 Ang^3
#
#
#
# Elastic Constant Matrix: (Units=GPa)
#
#
# Indices 1 2 3 4 5 6 
#
# 1 147.3583 29.0281 46.9203 0.0000 0.0000 0.0000
# 2 29.0281 136.4755 40.7883 0.0000 0.0000 0.0000
# 3 46.9203 40.7883 88.8818 0.0000 0.0000 0.0000
# 4 0.0000 0.0000 0.0000 -2.4016 0.0000 0.0000
# 5 0.0000 0.0000 0.0000 0.0000 108.1275 0.0000
# 6 0.0000 0.0000 0.0000 0.0000 0.0000 31.5587
#
#
#
# Elastic Compliance Matrix: (Units=1/GPa)
#
#
# Indices 1 2 3 4 5 6 
#
# 1 0.008189 -0.000521 -0.004084 0.000000 0.000000 0.000000
# 2 -0.000521 0.008525 -0.003637 0.000000 0.000000 0.000000
# 3 -0.004084 -0.003637 0.015076 0.000000 0.000000 0.000000
# 4 0.000000 0.000000 0.000000 -0.416382 0.000000 0.000000
# 5 0.000000 0.000000 0.000000 0.000000 0.009248 0.000000
# 6 0.000000 0.000000 0.000000 0.000000 0.000000 0.031687
#
#
# Mechanical properties :
#
#
# Convention : Reuss Voigt Hill
#
# Bulk Modulus (GPa) = 65.33457 67.35433 66.34445
# Shear Modulus (GPa) = -15.52456 44.52217 14.49881
#
# Velocity S-wave (km/s) = -2.72117 4.60823 2.62974
# Velocity P-wave (km/s) = 4.61407 7.77434 6.39258
#
# Compressibility (1/GPa) = 0.01530583
#
# Stress axis : x y z
#
# Youngs Moduli (GPa) = 122.11205 117.29914 66.33152
#
# Poissons Ratio (x) = 0.06115 0.27089
# Poissons Ratio (y) = 0.06366 0.24125
# Poissons Ratio (z) = 0.49868 0.42662
#
# Static dielectric constant tensor:
#      x y z
#    x 1.770830 0.000000 0.000000 
#    y 0.000000 1.879420 0.000000 
#    z 0.000000 0.000000 1.848150 
# 
# From -- ./inp_files/4916.got.cif
#   From: 2010.05.17/outbox.cif.g08.bks.cpg/sg67_3_cif.got.tgz:4916.got - 2010.06.03 18:28:57.
