data_PCOD9504655
_publ_section_title
;
Structure prediction by ZEFSAII (Michael W. Deem and Ramdas Pophale) SiO2 
 PCOD9504655
Probable space group: C M M A
;
_chemical_formula_sum "Si O2"
_cell_formula_units_Z 88
_cell_length_a 16.099624
_cell_length_b 20.380956
_cell_length_c 11.901656
_cell_angle_alpha 90.000000
_cell_angle_beta 90.000000
_cell_angle_gamma 90.000000
_cell_volume 3905.239544
_symmetry_space_group_name_H-M "C M M A"
_symmetry_group_IT_number 67
_symmetry_cell_setting 'orthorhombic'
loop_
_space_group_symop_operation_xyz
x,y,z
-x,1/2-y,z
x,-y,-z
-x,1/2+y,-z
-x,-y,-z
x,1/2+y,-z
-x,y,z
x,1/2-y,z
1/2+x,1/2+y,z
1/2-x,-y,z
1/2+x,1/2-y,-z
1/2-x,y,-z
1/2-x,1/2-y,-z
1/2+x,y,-z
1/2-x,1/2+y,z
1/2+x,-y,z
loop_
_atom_site_type_symbol
_atom_site_label
_atom_site_fract_x
_atom_site_fract_y
_atom_site_fract_z
Si Si1 0.127286 0.250000 0.212316
Si Si2 0.095104 0.879408 0.645252
Si Si3 0.592853 0.377533 0.218223
Si Si4 0.848506 0.137926 0.024139
Si Si5 0.655533 0.478739 0.817144
Si Si6 0.161587 0.326026 0.563298
O O1 0.118886 0.192071 0.307602
O O2 0.131837 0.307014 0.114807
O O3 0.150190 0.934076 0.705648
O O4 0.104840 0.873325 0.511923
O O5 0.000000 0.892741 0.677097
O O6 0.500000 0.361362 0.257028
O O7 0.608474 0.349252 0.094431
O O8 0.604463 0.455352 0.202558
O O9 0.658647 0.350342 0.308479
O O10 0.750000 0.136806 0.000000
O O11 0.872464 0.068424 0.080953
O O12 0.750000 0.500000 0.839343
O O13 0.134929 0.250000 0.564062
O O14 0.250000 0.329406 0.500000
#
# Coordination Sequence:
#
# PCOD9504655 Si02
#       6
#     8  16  16  16  16  16
#     4  10  24  40  69 104 139 177 238 284 346 423
#     4  11  23  43  72 102 138 184 233 289 353 422
#     4  12  27  43  67 105 145 182 231 297 361 414
#     4  11  24  42  72 101 143 188 234 287 347 425
#     4  11  23  44  72 100 139 186 241 288 344 416
#     4  11  26  46  73 100 138 185 238 288 352 425
#
# _framework density 22.533828
#
# number of rings (size 3 to 8) (size 9 to 14) (size 15 to 20)
#    0.000    0.909    2.727    3.273    3.818    6.909 
#    0.000    3.636    0.000    0.000    0.000    0.000 
#    0.000    0.000    0.000    0.000    0.000    0.000 
#
# Total GULP energy -245178.286029 kJ/mol
# GULP energy per Si atom -5572.233773 kJ/mol
# Density = 2.248254 g / cm^3
# Si number density = 22.533828 Si / 1000 Ang^3
#
#
#
# Elastic Constant Matrix: (Units=GPa)
#
#
# Indices 1 2 3 4 5 6 
#
# 1 53.0446 -3.9959 3.3442 0.0000 0.0000 0.0000
# 2 -3.9959 49.4719 5.9001 0.0000 0.0000 0.0000
# 3 3.3442 5.9001 122.4954 0.0000 0.0000 0.0000
# 4 0.0000 0.0000 0.0000 26.6731 0.0000 0.0000
# 5 0.0000 0.0000 0.0000 0.0000 -2.5918 0.0000
# 6 0.0000 0.0000 0.0000 0.0000 0.0000 -5.9625
#
#
#
# Elastic Compliance Matrix: (Units=1/GPa)
#
#
# Indices 1 2 3 4 5 6 
#
# 1 0.019011 0.001607 -0.000596 0.000000 0.000000 0.000000
# 2 0.001607 0.020466 -0.001030 0.000000 0.000000 0.000000
# 3 -0.000596 -0.001030 0.008229 0.000000 0.000000 0.000000
# 4 0.000000 0.000000 0.000000 0.037491 0.000000 0.000000
# 5 0.000000 0.000000 0.000000 0.000000 -0.385839 0.000000
# 6 0.000000 0.000000 0.000000 0.000000 0.000000 -0.167715
#
#
# Mechanical properties :
#
#
# Convention : Reuss Voigt Hill
#
# Bulk Modulus (GPa) = 20.97868 26.16763 23.57315
# Shear Modulus (GPa) = -11.05146 18.27466 3.61160
#
# Velocity S-wave (km/s) = -2.21699 2.85087 1.26737
# Velocity P-wave (km/s) = 1.66634 4.74072 3.55325
#
# Compressibility (1/GPa) = 0.04766744
#
# Stress axis : x y z
#
# Youngs Moduli (GPa) = 52.60196 48.86141 121.51486
#
# Poissons Ratio (x) = -0.07850 0.07247
# Poissons Ratio (y) = -0.08451 0.12511
# Poissons Ratio (z) = 0.03137 0.05031
#
# Static dielectric constant tensor:
#      x y z
#    x 1.909010 0.000000 0.000000 
#    y 0.000000 1.779810 0.000000 
#    z 0.000000 0.000000 1.859000 
# 
# From -- ./inp_files/19446.got.cif
#   From: 2010.05.17/outbox.cif.g08.bks.cpg/sg67_10_cif.got.tgz:19446.got - 2010.06.03 18:28:57.
