data_PCOD9504021
_publ_section_title
;
Structure prediction by ZEFSAII (Michael W. Deem and Ramdas Pophale) SiO2 
 PCOD9504021
Probable space group: C M M A
;
_chemical_formula_sum "Si O2"
_cell_formula_units_Z 88
_cell_length_a 27.253047
_cell_length_b 25.254205
_cell_length_c 6.151413
_cell_angle_alpha 90.000000
_cell_angle_beta 90.000000
_cell_angle_gamma 90.000000
_cell_volume 4233.734823
_symmetry_space_group_name_H-M "C M M A"
_symmetry_group_IT_number 67
_symmetry_cell_setting 'orthorhombic'
loop_
_space_group_symop_operation_xyz
x,y,z
-x,1/2-y,z
x,-y,-z
-x,1/2+y,-z
-x,-y,-z
x,1/2+y,-z
-x,y,z
x,1/2-y,z
1/2+x,1/2+y,z
1/2-x,-y,z
1/2+x,1/2-y,-z
1/2-x,y,-z
1/2-x,1/2-y,-z
1/2+x,y,-z
1/2-x,1/2+y,z
1/2+x,-y,z
loop_
_atom_site_type_symbol
_atom_site_label
_atom_site_fract_x
_atom_site_fract_y
_atom_site_fract_z
Si Si1 0.443517 0.085221 0.850539
Si Si2 0.302637 0.860000 0.111830
Si Si3 0.774852 0.250000 0.256536
Si Si4 0.887901 0.130981 0.771679
Si Si5 0.057517 0.692128 0.571383
Si Si6 0.648047 0.445708 0.603037
O O1 0.500000 0.068575 0.825489
O O2 0.436348 0.142507 0.732479
O O3 0.402701 0.047628 0.741029
O O4 0.428887 0.097893 0.097027
O O5 0.302252 0.806264 0.252247
O O6 0.315319 0.912661 0.245984
O O7 0.250000 0.865850 0.000000
O O8 0.345321 0.852991 0.935652
O O9 0.750000 0.250000 0.500000
O O10 0.750000 0.250000 0.000000
O O11 0.911792 0.179354 0.643179
O O12 0.864756 0.092464 0.595161
O O13 0.070147 0.750000 0.663426
O O14 0.000000 0.692490 0.514863
O O15 0.666052 0.500000 0.500000
#
# Coordination Sequence:
#
# PCOD9504021 Si02
#       6
#    16  16   8  16  16  16
#     4   9  19  37  57  87 125 166 214 262 323 396
#     4  10  24  43  66  95 126 170 216 272 341 407
#     4  10  24  44  74 100 135 172 221 288 342 416
#     4  10  21  38  59  89 123 165 214 267 328 390
#     4   9  18  33  56  86 124 166 207 258 319 391
#     4  10  23  43  65  90 129 167 214 279 328 395
#
# _framework density 20.785430999999999
#
# number of rings (size 3 to 8) (size 9 to 14) (size 15 to 20)
#    0.000    2.364    0.000    0.545    6.364    4.727 
#   13.091    5.455    0.000    0.000    0.000    0.000 
#    0.000    0.000    0.000    0.000    0.000    0.000 
#
# Total GULP energy -245406.506176 kJ/mol
# GULP energy per Si atom -5577.420595 kJ/mol
# Density = 2.073812 g / cm^3
# Si number density = 20.785431 Si / 1000 Ang^3
#
#
#
# Elastic Constant Matrix: (Units=GPa)
#
#
# Indices 1 2 3 4 5 6 
#
# 1 79.0781 32.4310 30.3152 0.0000 0.0000 0.0000
# 2 32.4310 71.2793 9.7758 0.0000 0.0000 0.0000
# 3 30.3152 9.7758 69.8030 0.0000 0.0000 0.0000
# 4 0.0000 0.0000 0.0000 17.0608 0.0000 0.0000
# 5 0.0000 0.0000 0.0000 0.0000 15.3364 0.0000
# 6 0.0000 0.0000 0.0000 0.0000 0.0000 20.1485
#
#
#
# Elastic Compliance Matrix: (Units=1/GPa)
#
#
# Indices 1 2 3 4 5 6 
#
# 1 0.018332 -0.007391 -0.006927 0.000000 0.000000 0.000000
# 2 -0.007391 0.017284 0.000789 0.000000 0.000000 0.000000
# 3 -0.006927 0.000789 0.017224 0.000000 0.000000 0.000000
# 4 0.000000 0.000000 0.000000 0.058614 0.000000 0.000000
# 5 0.000000 0.000000 0.000000 0.000000 0.065204 0.000000
# 6 0.000000 0.000000 0.000000 0.000000 0.000000 0.049631
#
#
# Mechanical properties :
#
#
# Convention : Reuss Voigt Hill
#
# Bulk Modulus (GPa) = 38.78471 40.57827 39.68149
# Shear Modulus (GPa) = 19.08833 20.35169 19.72001
#
# Velocity S-wave (km/s) = 3.03372 3.13250 3.08351
# Velocity P-wave (km/s) = 5.56519 5.71387 5.64002
#
# Compressibility (1/GPa) = 0.02578336
#
# Stress axis : x y z
#
# Youngs Moduli (GPa) = 54.54897 57.85757 58.05967
#
# Poissons Ratio (x) = 0.42762 0.40215
# Poissons Ratio (y) = 0.40317 -0.04582
# Poissons Ratio (z) = 0.37783 -0.04566
#
# Static dielectric constant tensor:
#      x y z
#    x 1.770920 0.000000 0.000000 
#    y 0.000000 1.746210 0.000000 
#    z 0.000000 0.000000 1.781340 
# 
# From -- ./inp_files/3620.got.cif
#   From: 2010.05.17/outbox.cif.g08.bks.cpg/sg67_2_cif.got.tgz:3620.got - 2010.06.03 18:28:57.
