data_PCOD9504619
_publ_section_title
;
Structure prediction by ZEFSAII (Michael W. Deem and Ramdas Pophale) SiO2 
 PCOD9504619
Probable space group: C M M A
;
_chemical_formula_sum "Si O2"
_cell_formula_units_Z 72
_cell_length_a 28.477502
_cell_length_b 16.062847
_cell_length_c 7.971720
_cell_angle_alpha 90.000000
_cell_angle_beta 90.000000
_cell_angle_gamma 90.000000
_cell_volume 3646.501947
_symmetry_space_group_name_H-M "C M M A"
_symmetry_group_IT_number 67
_symmetry_cell_setting 'orthorhombic'
loop_
_space_group_symop_operation_xyz
x,y,z
-x,1/2-y,z
x,-y,-z
-x,1/2+y,-z
-x,-y,-z
x,1/2+y,-z
-x,y,z
x,1/2-y,z
1/2+x,1/2+y,z
1/2-x,-y,z
1/2+x,1/2-y,-z
1/2-x,y,-z
1/2-x,1/2-y,-z
1/2+x,y,-z
1/2-x,1/2+y,z
1/2+x,-y,z
loop_
_atom_site_type_symbol
_atom_site_label
_atom_site_fract_x
_atom_site_fract_y
_atom_site_fract_z
Si Si1 0.266474 0.750000 0.688850
Si Si2 0.056487 0.750000 0.120479
Si Si3 0.273037 0.578954 0.184714
Si Si4 0.368395 0.079533 0.625185
Si Si5 0.055904 0.914587 0.901912
Si Si6 0.868243 0.750000 0.410371
O O1 0.250000 0.750000 0.500000
O O2 0.244493 0.667296 0.758242
O O3 0.322295 0.750000 0.706955
O O4 0.085852 0.750000 0.292754
O O5 0.000000 0.750000 0.150356
O O6 0.068219 0.832924 0.012459
O O7 0.250000 0.500000 0.277494
O O8 0.327837 0.573760 0.231393
O O9 0.250000 0.576230 0.000000
O O10 0.416773 0.083058 0.727358
O O11 0.364469 0.165967 0.521615
O O12 0.365597 0.000000 0.500000
O O13 0.000000 0.911800 0.874839
O O14 0.067051 0.000000 0.000000
#
# Coordination Sequence:
#
# PCOD9504619 Si02
#       6
#     8   8  16  16  16   8
#     4  12  23  42  62  89 132 165 205 261 319 372
#     4  10  23  43  67  94 129 171 217 263 317 387
#     4  11  26  42  63  92 124 171 213 259 309 382
#     4  12  25  41  65  97 130 167 213 267 323 378
#     4  10  23  43  67  93 126 168 213 264 319 383
#     4  12  25  39  64  96 125 172 207 266 321 371
#
# _framework density 19.744951
#
# number of rings (size 3 to 8) (size 9 to 14) (size 15 to 20)
#    0.000    0.889    2.222    3.667    6.222    1.333 
#    0.000    0.000    0.000    0.000    0.000    0.000 
#    0.000    0.000    0.000    0.000    0.000    0.000 
#
# Total GULP energy -200858.741473 kJ/mol
# GULP energy per Si atom -5579.409485 kJ/mol
# Density = 1.970001 g / cm^3
# Si number density = 19.744951 Si / 1000 Ang^3
#
#
#
# Elastic Constant Matrix: (Units=GPa)
#
#
# Indices 1 2 3 4 5 6 
#
# 1 58.3247 28.8416 32.8694 0.0000 0.0000 0.0000
# 2 28.8416 181.0853 42.5825 0.0000 0.0000 0.0000
# 3 32.8694 42.5825 84.4478 0.0000 0.0000 0.0000
# 4 0.0000 0.0000 0.0000 31.5375 0.0000 0.0000
# 5 0.0000 0.0000 0.0000 0.0000 44.1436 0.0000
# 6 0.0000 0.0000 0.0000 0.0000 0.0000 20.4367
#
#
#
# Elastic Compliance Matrix: (Units=1/GPa)
#
#
# Indices 1 2 3 4 5 6 
#
# 1 0.022427 -0.001724 -0.007860 0.000000 0.000000 0.000000
# 2 -0.001724 0.006398 -0.002555 0.000000 0.000000 0.000000
# 3 -0.007860 -0.002555 0.016189 0.000000 0.000000 0.000000
# 4 0.000000 0.000000 0.000000 0.031708 0.000000 0.000000
# 5 0.000000 0.000000 0.000000 0.000000 0.022653 0.000000
# 6 0.000000 0.000000 0.000000 0.000000 0.000000 0.048932
#
#
# Mechanical properties :
#
#
# Convention : Reuss Voigt Hill
#
# Bulk Modulus (GPa) = 48.22403 59.16052 53.69227
# Shear Modulus (GPa) = 27.85548 33.86117 30.85832
#
# Velocity S-wave (km/s) = 3.76009 4.14566 3.95757
# Velocity P-wave (km/s) = 6.58236 7.27618 6.93795
#
# Compressibility (1/GPa) = 0.02073655
#
# Stress axis : x y z
#
# Youngs Moduli (GPa) = 44.58824 156.30807 61.76873
#
# Poissons Ratio (x) = 0.26943 0.48551
# Poissons Ratio (y) = 0.07686 0.15782
# Poissons Ratio (z) = 0.35047 0.39938
#
# Static dielectric constant tensor:
#      x y z
#    x 1.532690 0.000000 0.000000 
#    y 0.000000 1.611420 0.000000 
#    z 0.000000 0.000000 1.714540 
# 
# From -- ./inp_files/13379.got.cif
#   From: 2010.05.17/outbox.cif.g08.bks.cpg/sg67_7_cif.got.tgz:13379.got - 2010.06.03 18:28:57.
