data_PCOD9504962
_publ_section_title
;
Structure prediction by ZEFSAII (Michael W. Deem and Ramdas Pophale) SiO2 
 PCOD9504962
Probable space group: C M M A
;
_chemical_formula_sum "Si O2"
_cell_formula_units_Z 96
_cell_length_a 14.458784
_cell_length_b 16.592093
_cell_length_c 20.586672
_cell_angle_alpha 90.000000
_cell_angle_beta 90.000000
_cell_angle_gamma 90.000000
_cell_volume 4938.773262
_symmetry_space_group_name_H-M "C M M A"
_symmetry_group_IT_number 67
_symmetry_cell_setting 'orthorhombic'
loop_
_space_group_symop_operation_xyz
x,y,z
-x,1/2-y,z
x,-y,-z
-x,1/2+y,-z
-x,-y,-z
x,1/2+y,-z
-x,y,z
x,1/2-y,z
1/2+x,1/2+y,z
1/2-x,-y,z
1/2+x,1/2-y,-z
1/2-x,y,-z
1/2-x,1/2-y,-z
1/2+x,y,-z
1/2-x,1/2+y,z
1/2+x,-y,z
loop_
_atom_site_type_symbol
_atom_site_label
_atom_site_fract_x
_atom_site_fract_y
_atom_site_fract_z
Si Si1 0.895546 0.153146 0.084622
Si Si2 0.689874 0.345717 0.315407
Si Si3 0.297182 0.089629 0.564906
Si Si4 0.000000 0.652621 0.376298
Si Si5 0.111248 0.156218 0.940881
Si Si6 0.266127 0.093490 0.172448
Si Si7 0.500000 0.849628 0.469188
O O1 0.899474 0.250000 0.079691
O O2 0.826004 0.130373 0.140834
O O3 0.000000 0.123494 0.095933
O O4 0.863298 0.125232 0.012907
O O5 0.684189 0.250000 0.316720
O O6 0.765935 0.371695 0.367625
O O7 0.592185 0.379227 0.342007
O O8 0.709477 0.370966 0.242169
O O9 0.250000 0.127879 0.500000
O O10 0.406813 0.106093 0.556610
O O11 0.250000 0.000000 0.566861
O O12 0.000000 0.637436 0.452977
O O13 0.000000 0.750000 0.369489
O O14 0.141496 0.250000 0.935308
O O15 0.155319 0.109685 0.881279
O O16 0.000000 0.154837 0.938145
O O17 0.250000 0.000000 0.180795
O O18 0.500000 0.750000 0.457850
#
# Coordination Sequence:
#
# PCOD9504962 Si02
#       7
#    16  16  16   8  16  16   8
#     4   9  19  39  63  86 116 157 206 254 303 367
#     4  11  23  42  64  90 123 168 218 265 309 378
#     4  11  24  41  66  99 139 171 211 266 338 392
#     4   9  20  37  65  95 119 153 209 271 315 354
#     4   9  19  37  64  92 114 149 205 260 305 363
#     4  12  25  38  56  87 128 163 200 248 319 377
#     4  11  22  42  72 104 131 172 227 274 320 394
#
# _framework density 19.438025
#
# number of rings (size 3 to 8) (size 9 to 14) (size 15 to 20)
#    0.000    1.667    1.667    4.000    1.167    6.000 
#    1.500    1.667    0.000    0.000    0.000    0.000 
#    0.000    0.000    0.000    0.000    0.000    0.000 
#
# Total GULP energy -267904.816478 kJ/mol
# GULP energy per Si atom -5581.350343 kJ/mol
# Density = 1.939378 g / cm^3
# Si number density = 19.438025 Si / 1000 Ang^3
#
#
#
# Elastic Constant Matrix: (Units=GPa)
#
#
# Indices 1 2 3 4 5 6 
#
# 1 156.9932 30.9558 86.0482 0.0000 0.0000 0.0000
# 2 30.9558 56.7523 31.4061 0.0000 0.0000 0.0000
# 3 86.0482 31.4061 161.3231 0.0000 0.0000 0.0000
# 4 0.0000 0.0000 0.0000 39.1165 0.0000 0.0000
# 5 0.0000 0.0000 0.0000 0.0000 132.1851 0.0000
# 6 0.0000 0.0000 0.0000 0.0000 0.0000 34.3169
#
#
#
# Elastic Compliance Matrix: (Units=1/GPa)
#
#
# Indices 1 2 3 4 5 6 
#
# 1 0.009336 -0.002619 -0.004470 0.000000 0.000000 0.000000
# 2 -0.002619 0.020482 -0.002591 0.000000 0.000000 0.000000
# 3 -0.004470 -0.002591 0.009087 0.000000 0.000000 0.000000
# 4 0.000000 0.000000 0.000000 0.025565 0.000000 0.000000
# 5 0.000000 0.000000 0.000000 0.000000 0.007565 0.000000
# 6 0.000000 0.000000 0.000000 0.000000 0.000000 0.029140
#
#
# Mechanical properties :
#
#
# Convention : Reuss Voigt Hill
#
# Bulk Modulus (GPa) = 51.15853 74.65431 62.90642
# Shear Modulus (GPa) = 39.35449 56.23426 47.79437
#
# Velocity S-wave (km/s) = 4.50445 5.38450 4.96402
# Velocity P-wave (km/s) = 7.30954 8.78333 8.08010
#
# Compressibility (1/GPa) = 0.01954708
#
# Stress axis : x y z
#
# Youngs Moduli (GPa) = 107.11163 48.82219 110.04353
#
# Poissons Ratio (x) = 0.12785 0.49189
# Poissons Ratio (y) = 0.28050 0.28509
# Poissons Ratio (z) = 0.47878 0.12648
#
# Static dielectric constant tensor:
#      x y z
#    x 1.707430 0.000000 0.000000 
#    y 0.000000 1.704900 0.000000 
#    z 0.000000 0.000000 1.659050 
# 
# From -- ./inp_files/38541.got.cif
#   From: 2010.05.17/outbox.cif.g08.bks.cpg/sg67_20_cif.got.tgz:38541.got - 2010.06.03 18:28:57.
