data_PCOD9504823
_publ_section_title
;
Structure prediction by ZEFSAII (Michael W. Deem and Ramdas Pophale) SiO2 
 PCOD9504823
Probable space group: C M M A
;
_chemical_formula_sum "Si O2"
_cell_formula_units_Z 48
_cell_length_a 18.655374
_cell_length_b 16.631901
_cell_length_c 7.922194
_cell_angle_alpha 90.000000
_cell_angle_beta 90.000000
_cell_angle_gamma 90.000000
_cell_volume 2458.053463
_symmetry_space_group_name_H-M "C M M A"
_symmetry_group_IT_number 67
_symmetry_cell_setting 'orthorhombic'
loop_
_space_group_symop_operation_xyz
x,y,z
-x,1/2-y,z
x,-y,-z
-x,1/2+y,-z
-x,-y,-z
x,1/2+y,-z
-x,y,z
x,1/2-y,z
1/2+x,1/2+y,z
1/2-x,-y,z
1/2+x,1/2-y,-z
1/2-x,y,-z
1/2-x,1/2-y,-z
1/2+x,y,-z
1/2-x,1/2+y,z
1/2+x,-y,z
loop_
_atom_site_type_symbol
_atom_site_label
_atom_site_fract_x
_atom_site_fract_y
_atom_site_fract_z
Si Si1 0.500000 0.579513 0.381102
Si Si2 0.726947 0.250000 0.689283
Si Si3 0.750000 0.000000 0.000000
Si Si4 0.000000 0.750000 0.408702
Si Si5 0.378425 0.250000 0.123120
Si Si6 0.134239 0.884139 0.843695
O O1 0.500000 0.500000 0.500000
O O2 0.500000 0.666526 0.481242
O O3 0.568417 0.578775 0.257156
O O4 0.750000 0.250000 0.500000
O O5 0.796014 0.250000 0.812339
O O6 0.676194 0.324597 0.722039
O O7 0.695064 0.946305 0.104358
O O8 0.068660 0.750000 0.282718
O O9 0.389093 0.171354 0.004078
#
# Coordination Sequence:
#
# PCOD9504823 Si02
#       6
#     8   8   4   4   8  16
#     4  12  29  46  67 104 145 185 227 289 353 415
#     4  11  21  40  70  99 132 178 227 288 347 408
#     4  12  24  40  74  96 132 172 230 292 328 400
#     4  12  26  46  68 100 138 186 228 280 360 400
#     4  11  21  44  72  99 129 188 233 283 342 418
#     4  11  24  44  67 100 135 178 233 279 344 412
#
# _framework density 19.527647999999999
#
# number of rings (size 3 to 8) (size 9 to 14) (size 15 to 20)
#    0.000    0.667    3.333    6.000    4.667    3.333 
#    0.000    0.000    0.000    0.000    0.000    0.000 
#    0.000    0.000    0.000    0.000    0.000    0.000 
#
# Total GULP energy -134057.218176 kJ/mol
# GULP energy per Si atom -5585.717424 kJ/mol
# Density = 1.948320 g / cm^3
# Si number density = 19.527648 Si / 1000 Ang^3
#
#
#
# Elastic Constant Matrix: (Units=GPa)
#
#
# Indices 1 2 3 4 5 6 
#
# 1 180.5475 71.0825 68.6807 0.0000 0.0000 0.0000
# 2 71.0825 140.4099 58.8780 0.0000 0.0000 0.0000
# 3 68.6807 58.8780 108.8696 0.0000 0.0000 0.0000
# 4 0.0000 0.0000 0.0000 1.5165 0.0000 0.0000
# 5 0.0000 0.0000 0.0000 0.0000 95.6367 0.0000
# 6 0.0000 0.0000 0.0000 0.0000 0.0000 20.0944
#
#
#
# Elastic Compliance Matrix: (Units=1/GPa)
#
#
# Indices 1 2 3 4 5 6 
#
# 1 0.007898 -0.002469 -0.003647 0.000000 0.000000 0.000000
# 2 -0.002469 0.009983 -0.003841 0.000000 0.000000 0.000000
# 3 -0.003647 -0.003841 0.013564 0.000000 0.000000 0.000000
# 4 0.000000 0.000000 0.000000 0.659405 0.000000 0.000000
# 5 0.000000 0.000000 0.000000 0.000000 0.010456 0.000000
# 6 0.000000 0.000000 0.000000 0.000000 0.000000 0.049765
#
#
# Mechanical properties :
#
#
# Convention : Reuss Voigt Hill
#
# Bulk Modulus (GPa) = 86.73459 91.90105 89.31782
# Shear Modulus (GPa) = 6.45303 38.86190 22.65747
#
# Velocity S-wave (km/s) = 1.81982 4.46589 3.40998
# Velocity P-wave (km/s) = 6.99488 8.58815 7.83214
#
# Compressibility (1/GPa) = 0.01152943
#
# Stress axis : x y z
#
# Youngs Moduli (GPa) = 126.61049 100.17364 73.72691
#
# Poissons Ratio (x) = 0.24733 0.26891
# Poissons Ratio (y) = 0.31261 0.28320
# Poissons Ratio (z) = 0.46179 0.38478
#
# Static dielectric constant tensor:
#      x y z
#    x 1.689760 0.000000 0.000000 
#    y 0.000000 1.632390 0.000000 
#    z 0.000000 0.000000 1.720980 
# 
# From -- ./inp_files/7429.got.cif
#   From: 2010.05.17/outbox.cif.g08.bks.cpg/sg67_4_cif.got.tgz:7429.got - 2010.06.03 18:28:57.
