data_PCOD9504975
_publ_section_title
;
Structure prediction by ZEFSAII (Michael W. Deem and Ramdas Pophale) SiO2 
 PCOD9504975
Probable space group: C M M A
;
_chemical_formula_sum "Si O2"
_cell_formula_units_Z 80
_cell_length_a 9.467877
_cell_length_b 17.981366
_cell_length_c 26.526396
_cell_angle_alpha 90.000000
_cell_angle_beta 90.000000
_cell_angle_gamma 90.000000
_cell_volume 4515.995878
_symmetry_space_group_name_H-M "C M M A"
_symmetry_group_IT_number 67
_symmetry_cell_setting 'orthorhombic'
loop_
_space_group_symop_operation_xyz
x,y,z
-x,1/2-y,z
x,-y,-z
-x,1/2+y,-z
-x,-y,-z
x,1/2+y,-z
-x,y,z
x,1/2-y,z
1/2+x,1/2+y,z
1/2-x,-y,z
1/2+x,1/2-y,-z
1/2-x,y,-z
1/2-x,1/2-y,-z
1/2+x,y,-z
1/2-x,1/2+y,z
1/2+x,-y,z
loop_
_atom_site_type_symbol
_atom_site_label
_atom_site_fract_x
_atom_site_fract_y
_atom_site_fract_z
Si Si1 0.832360 0.337282 0.549294
Si Si2 0.162378 0.840525 0.854514
Si Si3 0.337874 0.659110 0.950937
Si Si4 0.165384 0.660498 0.740135
Si Si5 0.330730 0.422229 0.346794
O O1 0.796909 0.250000 0.556431
O O2 0.750000 0.364675 0.500000
O O3 0.800298 0.380809 0.600405
O O4 0.000000 0.342535 0.540117
O O5 0.164587 0.750000 0.854571
O O6 0.263756 0.865783 0.899231
O O7 0.200512 0.863153 0.797562
O O8 0.000000 0.862344 0.864451
O O9 0.500000 0.635440 0.953931
O O10 0.336676 0.750000 0.950645
O O11 0.250000 0.635735 0.000000
O O12 0.175624 0.750000 0.737762
O O13 0.267345 0.624827 0.699308
O O14 0.000000 0.641299 0.730838
O O15 0.500000 0.430636 0.342174
O O16 0.250000 0.500000 0.346911
#
# Coordination Sequence:
#
# PCOD9504975 Si02
#       5
#    16  16  16  16  16
#     4   9  19  36  57  80 104 132 167 206 248 295
#     4   8  14  25  40  59  85 117 154 196 241 292
#     4   9  15  21  31  50  79 116 155 194 239 291
#     4   9  18  33  53  75  99 130 168 209 255 306
#     4  11  23  37  53  75 105 137 171 211 253 299
#
# _framework density 17.714808000000001
#
# number of rings (size 3 to 8) (size 9 to 14) (size 15 to 20)
#    0.000    2.800    0.000    3.000    0.000    6.400 
#    0.000    6.000    0.000    0.000    0.000    0.000 
#    0.000    0.800    0.000    8.400    0.000   11.600 
#
# Total GULP energy -223009.772429 kJ/mol
# GULP energy per Si atom -5575.244311 kJ/mol
# Density = 1.767449 g / cm^3
# Si number density = 17.714808 Si / 1000 Ang^3
#
#
#
# Elastic Constant Matrix: (Units=GPa)
#
#
# Indices 1 2 3 4 5 6 
#
# 1 119.3321 35.4376 118.7140 0.0000 0.0000 0.0000
# 2 35.4376 24.8371 40.1093 0.0000 0.0000 0.0000
# 3 118.7140 40.1093 181.3995 0.0000 0.0000 0.0000
# 4 0.0000 0.0000 0.0000 -7.6062 0.0000 0.0000
# 5 0.0000 0.0000 0.0000 0.0000 39.7123 0.0000
# 6 0.0000 0.0000 0.0000 0.0000 0.0000 16.1576
#
#
#
# Elastic Compliance Matrix: (Units=1/GPa)
#
#
# Indices 1 2 3 4 5 6 
#
# 1 0.027507 -0.015828 -0.014502 0.000000 0.000000 0.000000
# 2 -0.015828 0.071731 -0.005502 0.000000 0.000000 0.000000
# 3 -0.014502 -0.005502 0.016220 0.000000 0.000000 0.000000
# 4 0.000000 0.000000 0.000000 -0.131472 0.000000 0.000000
# 5 0.000000 0.000000 0.000000 0.000000 0.025181 0.000000
# 6 0.000000 0.000000 0.000000 0.000000 0.000000 0.061890
#
#
# Mechanical properties :
#
#
# Convention : Reuss Voigt Hill
#
# Bulk Modulus (GPa) = 22.83422 79.34341 51.08881
# Shear Modulus (GPa) = 31.78232 18.40659 25.09446
#
# Velocity S-wave (km/s) = 4.24029 3.22693 3.76783
# Velocity P-wave (km/s) = 6.07382 7.66620 6.91599
#
# Compressibility (1/GPa) = 0.04379393
#
# Stress axis : x y z
#
# Youngs Moduli (GPa) = 36.35408 13.94093 61.65338
#
# Poissons Ratio (x) = 0.22066 0.89409
# Poissons Ratio (y) = 0.57543 0.33921
# Poissons Ratio (z) = 0.52720 0.07670
#
# Static dielectric constant tensor:
#      x y z
#    x 1.589720 0.000000 0.000000 
#    y 0.000000 1.590590 0.000000 
#    z 0.000000 0.000000 1.595010 
# 
# From -- ./inp_files/43229.got.cif
#   From: 2010.05.17/outbox.cif.g08.bks.cpg/sg67_22_cif.got.tgz:43229.got - 2010.06.03 18:28:57.
