data_PCOD9504271
_publ_section_title
;
Structure prediction by ZEFSAII (Michael W. Deem and Ramdas Pophale) SiO2 
 PCOD9504271
Probable space group: C M M A
;
_chemical_formula_sum "Si O2"
_cell_formula_units_Z 68
_cell_length_a 9.567354
_cell_length_b 16.581588
_cell_length_c 21.068889
_cell_angle_alpha 90.000000
_cell_angle_beta 90.000000
_cell_angle_gamma 90.000000
_cell_volume 3342.409051
_symmetry_space_group_name_H-M "C M M A"
_symmetry_group_IT_number 67
_symmetry_cell_setting 'orthorhombic'
loop_
_space_group_symop_operation_xyz
x,y,z
-x,1/2-y,z
x,-y,-z
-x,1/2+y,-z
-x,-y,-z
x,1/2+y,-z
-x,y,z
x,1/2-y,z
1/2+x,1/2+y,z
1/2-x,-y,z
1/2+x,1/2-y,-z
1/2-x,y,-z
1/2-x,1/2-y,-z
1/2+x,y,-z
1/2-x,1/2+y,z
1/2+x,-y,z
loop_
_atom_site_type_symbol
_atom_site_label
_atom_site_fract_x
_atom_site_fract_y
_atom_site_fract_z
Si Si1 0.341131 0.841785 0.270928
Si Si2 0.250000 0.371131 0.500000
Si Si3 0.833603 0.081115 0.137225
Si Si4 0.161976 0.075765 0.634743
Si Si5 0.500000 0.750000 0.467023
Si Si6 0.668876 0.250000 0.933851
O O1 0.500000 0.856590 0.294520
O O2 0.338974 0.750000 0.246654
O O3 0.310983 0.899586 0.211824
O O4 0.231860 0.850963 0.327455
O O5 0.184772 0.417085 0.559731
O O6 0.376464 0.318876 0.528432
O O7 0.795958 0.165291 0.101742
O O8 0.000000 0.068206 0.127958
O O9 0.750000 0.000000 0.118891
O O10 0.000000 0.068770 0.649265
O O11 0.250000 0.000000 0.658153
O O12 0.500000 0.250000 0.941432
O O13 0.750000 0.250000 0.000000
#
# Coordination Sequence:
#
# PCOD9504271 Si02
#       6
#    16   8  16  16   4   8
#     4  10  22  40  67  93 123 166 211 258 323 385
#     4  11  25  42  66  86 120 154 200 254 322 384
#     4  10  21  41  66  95 132 175 219 269 321 382
#     4  12  27  42  60  88 122 159 205 260 319 383
#     4  10  24  42  62  90 110 144 194 250 310 382
#     4  10  22  42  66  96 137 176 220 265 316 379
#
# _framework density 20.344607
#
# number of rings (size 3 to 8) (size 9 to 14) (size 15 to 20)
#    0.000    1.412    2.353    1.765    6.588    5.647 
#    0.000    2.353    0.000    0.000    0.000    0.000 
#    0.000    0.000    0.000    0.000    0.000    0.000 
#
# Total GULP energy -189271.307358 kJ/mol
# GULP energy per Si atom -5566.803158 kJ/mol
# Density = 2.029830 g / cm^3
# Si number density = 20.344607 Si / 1000 Ang^3
#
#
#
# Elastic Constant Matrix: (Units=GPa)
#
#
# Indices 1 2 3 4 5 6 
#
# 1 126.9213 51.3971 43.4521 0.0000 0.0000 0.0000
# 2 51.3971 128.4393 37.0576 0.0000 0.0000 0.0000
# 3 43.4521 37.0576 83.6679 0.0000 0.0000 0.0000
# 4 0.0000 0.0000 0.0000 84.7850 0.0000 0.0000
# 5 0.0000 0.0000 0.0000 0.0000 22.7765 0.0000
# 6 0.0000 0.0000 0.0000 0.0000 0.0000 31.8304
#
#
#
# Elastic Compliance Matrix: (Units=1/GPa)
#
#
# Indices 1 2 3 4 5 6 
#
# 1 0.010512 -0.003017 -0.004123 0.000000 0.000000 0.000000
# 2 -0.003017 0.009792 -0.002770 0.000000 0.000000 0.000000
# 3 -0.004123 -0.002770 0.015320 0.000000 0.000000 0.000000
# 4 0.000000 0.000000 0.000000 0.011795 0.000000 0.000000
# 5 0.000000 0.000000 0.000000 0.000000 0.043905 0.000000
# 6 0.000000 0.000000 0.000000 0.000000 0.000000 0.031417
#
#
# Mechanical properties :
#
#
# Convention : Reuss Voigt Hill
#
# Bulk Modulus (GPa) = 63.27516 66.98246 65.12881
# Shear Modulus (GPa) = 33.82266 41.68649 37.75458
#
# Velocity S-wave (km/s) = 4.08178 4.53152 4.31252
# Velocity P-wave (km/s) = 7.30642 7.77013 7.54184
#
# Compressibility (1/GPa) = 0.01580399
#
# Stress axis : x y z
#
# Youngs Moduli (GPa) = 95.12737 102.12010 65.27266
#
# Poissons Ratio (x) = 0.30810 0.26913
# Poissons Ratio (y) = 0.28700 0.18083
# Poissons Ratio (z) = 0.39222 0.28291
#
# Static dielectric constant tensor:
#      x y z
#    x 1.682120 0.000000 0.000000 
#    y 0.000000 1.802380 0.000000 
#    z 0.000000 0.000000 1.719430 
# 
# From -- ./inp_files/40547.got.cif
#   From: 2010.05.17/outbox.cif.g08.bks.cpg/sg67_21_cif.got.tgz:40547.got - 2010.06.03 18:28:57.
