data_PCOD9504845
_publ_section_title
;
Structure prediction by ZEFSAII (Michael W. Deem and Ramdas Pophale) SiO2 
 PCOD9504845
Probable space group: C M M A
;
_chemical_formula_sum "Si O2"
_cell_formula_units_Z 96
_cell_length_a 16.664658
_cell_length_b 14.815568
_cell_length_c 18.308099
_cell_angle_alpha 90.000000
_cell_angle_beta 90.000000
_cell_angle_gamma 90.000000
_cell_volume 4520.203254
_symmetry_space_group_name_H-M "C M M A"
_symmetry_group_IT_number 67
_symmetry_cell_setting 'orthorhombic'
loop_
_space_group_symop_operation_xyz
x,y,z
-x,1/2-y,z
x,-y,-z
-x,1/2+y,-z
-x,-y,-z
x,1/2+y,-z
-x,y,z
x,1/2-y,z
1/2+x,1/2+y,z
1/2-x,-y,z
1/2+x,1/2-y,-z
1/2-x,y,-z
1/2-x,1/2-y,-z
1/2+x,y,-z
1/2-x,1/2+y,z
1/2+x,-y,z
loop_
_atom_site_type_symbol
_atom_site_label
_atom_site_fract_x
_atom_site_fract_y
_atom_site_fract_z
Si Si1 0.660840 0.606593 0.018892
Si Si2 0.135218 0.853300 0.559662
Si Si3 0.677485 0.646691 0.604481
Si Si4 0.906496 0.345946 0.872283
Si Si5 0.096441 0.452991 0.164257
Si Si6 0.590161 0.009693 0.678238
O O1 0.637639 0.609686 0.103680
O O2 0.658155 0.500000 0.000000
O O3 0.750000 0.639169 0.000000
O O4 0.601999 0.650291 0.960190
O O5 0.108956 0.750000 0.571265
O O6 0.228447 0.859655 0.585068
O O7 0.133348 0.871367 0.473085
O O8 0.090863 0.925002 0.608926
O O9 0.660503 0.750000 0.626335
O O10 0.649143 0.572814 0.661744
O O11 0.870681 0.250000 0.846911
O O12 0.874279 0.442553 0.845444
O O13 0.000000 0.345697 0.852425
O O14 0.111585 0.434051 0.249096
O O15 0.000000 0.450433 0.150055
O O16 0.500000 0.973773 0.690287
#
# Coordination Sequence:
#
# PCOD9504845 Si02
#       6
#    16  16  16  16  16  16
#     4   9  17  32  51  73  98 126 169 217 259 300
#     4   9  19  38  59  79 108 150 197 236 278 331
#     4   9  19  37  59  81 109 149 194 237 280 331
#     4   9  17  31  52  73  94 129 173 213 260 318
#     4   9  19  35  52  72 106 145 172 209 269 336
#     4  11  22  34  53  84 117 151 188 226 281 342
#
# _framework density 21.237983
#
# number of rings (size 3 to 8) (size 9 to 14) (size 15 to 20)
#    0.000    2.667    0.000    2.500    0.000    6.333 
#   12.000    4.167    0.000    1.000    0.000    0.000 
#    0.000    0.000    0.000    0.000    0.000    0.000 
#
# Total GULP energy -267679.217603 kJ/mol
# GULP energy per Si atom -5576.650367 kJ/mol
# Density = 2.118964 g / cm^3
# Si number density = 21.237983 Si / 1000 Ang^3
#
#
#
# Elastic Constant Matrix: (Units=GPa)
#
#
# Indices 1 2 3 4 5 6 
#
# 1 32.5659 12.6052 20.5160 0.0000 0.0000 0.0000
# 2 12.6052 38.5920 11.5545 0.0000 0.0000 0.0000
# 3 20.5160 11.5545 65.1636 0.0000 0.0000 0.0000
# 4 0.0000 0.0000 0.0000 51.7094 0.0000 0.0000
# 5 0.0000 0.0000 0.0000 0.0000 22.3850 0.0000
# 6 0.0000 0.0000 0.0000 0.0000 0.0000 -14.7965
#
#
#
# Elastic Compliance Matrix: (Units=1/GPa)
#
#
# Indices 1 2 3 4 5 6 
#
# 1 0.041830 -0.010265 -0.011350 0.000000 0.000000 0.000000
# 2 -0.010265 0.029884 -0.002067 0.000000 0.000000 0.000000
# 3 -0.011350 -0.002067 0.019286 0.000000 0.000000 0.000000
# 4 0.000000 0.000000 0.000000 0.019339 0.000000 0.000000
# 5 0.000000 0.000000 0.000000 0.000000 0.044673 0.000000
# 6 0.000000 0.000000 0.000000 0.000000 0.000000 -0.067584
#
#
# Mechanical properties :
#
#
# Convention : Reuss Voigt Hill
#
# Bulk Modulus (GPa) = 22.91648 25.07477 23.99563
# Shear Modulus (GPa) = 33.48146 17.96931 25.72538
#
# Velocity S-wave (km/s) = 3.97481 2.91192 3.48414
# Velocity P-wave (km/s) = 5.64617 4.81019 5.24486
#
# Compressibility (1/GPa) = 0.04363672
#
# Stress axis : x y z
#
# Youngs Moduli (GPa) = 23.90618 33.46297 51.85158
#
# Poissons Ratio (x) = 0.34349 0.58850
# Poissons Ratio (y) = 0.24539 0.10718
# Poissons Ratio (z) = 0.27133 0.06917
#
# Static dielectric constant tensor:
#      x y z
#    x 1.793060 0.000000 0.000000 
#    y 0.000000 1.790250 0.000000 
#    z 0.000000 0.000000 1.777120 
# 
# From -- ./inp_files/29297.got.cif
#   From: 2010.05.17/outbox.cif.g08.bks.cpg/sg67_15_cif.got.tgz:29297.got - 2010.06.03 18:28:57.
