data_PCOD9504119
_publ_section_title
;
Structure prediction by ZEFSAII (Michael W. Deem and Ramdas Pophale) SiO2 
 PCOD9504119
Probable space group: C M M A
;
_chemical_formula_sum "Si O2"
_cell_formula_units_Z 112
_cell_length_a 15.758345
_cell_length_b 28.647460
_cell_length_c 12.765098
_cell_angle_alpha 90.000000
_cell_angle_beta 90.000000
_cell_angle_gamma 90.000000
_cell_volume 5762.631904
_symmetry_space_group_name_H-M "C M M A"
_symmetry_group_IT_number 67
_symmetry_cell_setting 'orthorhombic'
loop_
_space_group_symop_operation_xyz
x,y,z
-x,1/2-y,z
x,-y,-z
-x,1/2+y,-z
-x,-y,-z
x,1/2+y,-z
-x,y,z
x,1/2-y,z
1/2+x,1/2+y,z
1/2-x,-y,z
1/2+x,1/2-y,-z
1/2-x,y,-z
1/2-x,1/2-y,-z
1/2+x,y,-z
1/2-x,1/2+y,z
1/2+x,-y,z
loop_
_atom_site_type_symbol
_atom_site_label
_atom_site_fract_x
_atom_site_fract_y
_atom_site_fract_z
Si Si1 0.906993 0.354821 0.600368
Si Si2 0.733003 0.303569 0.667279
Si Si3 0.625342 0.609868 0.818912
Si Si4 0.899531 0.886487 0.625975
Si Si5 0.089660 0.946024 0.973439
Si Si6 0.197280 0.197590 0.898791
Si Si7 0.709416 0.052377 0.777135
O O1 0.822453 0.322826 0.617524
O O2 0.915287 0.384442 0.706281
O O3 0.894329 0.388045 0.500326
O O4 0.000000 0.330548 0.584972
O O5 0.717515 0.250000 0.632177
O O6 0.656020 0.339526 0.648444
O O7 0.747469 0.301862 0.792832
O O8 0.625783 0.660787 0.871274
O O9 0.716555 0.590157 0.785567
O O10 0.597379 0.577600 0.913672
O O11 0.854221 0.929505 0.686214
O O12 0.000000 0.882916 0.653698
O O13 0.162439 0.941547 0.888331
O O14 0.000000 0.930684 0.925069
O O15 0.087331 0.000000 0.000000
O O16 0.166851 0.250000 0.919192
O O17 0.250000 0.181840 0.000000
O O18 0.750000 0.000000 0.765576
#
# Coordination Sequence:
#
# PCOD9504119 Si02
#       7
#    16  16  16  16  16  16  16
#     4  10  22  41  64  91 128 169 214 265 319 380
#     4  10  21  38  65  97 128 168 213 263 322 388
#     4  11  21  37  64  91 121 166 209 259 322 372
#     4  11  24  43  65  93 130 170 214 269 325 383
#     4  11  23  38  60  92 127 158 201 259 316 382
#     4   9  17  32  57  89 122 161 207 248 302 376
#     4  12  23  40  64  91 123 166 213 264 321 388
#
# _framework density 19.435565
#
# number of rings (size 3 to 8) (size 9 to 14) (size 15 to 20)
#    0.000    1.429    4.286    2.571    0.000    1.714 
#    0.000    2.857    0.000    3.000    0.000    4.000 
#    0.000    0.000    0.000    0.000    0.000    0.000 
#
# Total GULP energy -311736.061238 kJ/mol
# GULP energy per Si atom -5566.715379 kJ/mol
# Density = 1.939133 g / cm^3
# Si number density = 19.435565 Si / 1000 Ang^3
#
#
#
# Elastic Constant Matrix: (Units=GPa)
#
#
# Indices 1 2 3 4 5 6 
#
# 1 122.2027 36.2489 23.9472 0.0000 0.0000 0.0000
# 2 36.2489 78.7500 36.8925 0.0000 0.0000 0.0000
# 3 23.9472 36.8925 104.8721 0.0000 0.0000 0.0000
# 4 0.0000 0.0000 0.0000 20.6329 0.0000 0.0000
# 5 0.0000 0.0000 0.0000 0.0000 47.7630 0.0000
# 6 0.0000 0.0000 0.0000 0.0000 0.0000 7.4239
#
#
#
# Elastic Compliance Matrix: (Units=1/GPa)
#
#
# Indices 1 2 3 4 5 6 
#
# 1 0.009527 -0.004030 -0.000758 0.000000 0.000000 0.000000
# 2 -0.004030 0.016909 -0.005028 0.000000 0.000000 0.000000
# 3 -0.000758 -0.005028 0.011477 0.000000 0.000000 0.000000
# 4 0.000000 0.000000 0.000000 0.048466 0.000000 0.000000
# 5 0.000000 0.000000 0.000000 0.000000 0.020937 0.000000
# 6 0.000000 0.000000 0.000000 0.000000 0.000000 0.134700
#
#
# Mechanical properties :
#
#
# Convention : Reuss Voigt Hill
#
# Bulk Modulus (GPa) = 54.70085 55.55577 55.12831
# Shear Modulus (GPa) = 18.67467 29.07970 23.87718
#
# Velocity S-wave (km/s) = 3.10312 3.87228 3.50884
# Velocity P-wave (km/s) = 6.40663 6.97420 6.69643
#
# Compressibility (1/GPa) = 0.01828125
#
# Stress axis : x y z
#
# Youngs Moduli (GPa) = 104.96327 59.13952 87.12901
#
# Poissons Ratio (x) = 0.23836 0.06601
# Poissons Ratio (y) = 0.42305 0.43809
# Poissons Ratio (z) = 0.07952 0.29736
#
# Static dielectric constant tensor:
#      x y z
#    x 1.908910 0.000000 0.000000 
#    y 0.000000 1.894000 0.000000 
#    z 0.000000 0.000000 1.839170 
# 
# From -- ./inp_files/18612.got.cif
#   From: 2010.05.17/outbox.cif.g08.bks.cpg/sg67_10_cif.got.tgz:18612.got - 2010.06.03 18:28:57.
