data_PCOD9504989
_publ_section_title
;
Structure prediction by ZEFSAII (Michael W. Deem and Ramdas Pophale) SiO2 
 PCOD9504989
Probable space group: C M M A
;
_chemical_formula_sum "Si O2"
_cell_formula_units_Z 112
_cell_length_a 23.381669
_cell_length_b 14.653403
_cell_length_c 13.830604
_cell_angle_alpha 90.000000
_cell_angle_beta 90.000000
_cell_angle_gamma 90.000000
_cell_volume 4738.655631
_symmetry_space_group_name_H-M "C M M A"
_symmetry_group_IT_number 67
_symmetry_cell_setting 'orthorhombic'
loop_
_space_group_symop_operation_xyz
x,y,z
-x,1/2-y,z
x,-y,-z
-x,1/2+y,-z
-x,-y,-z
x,1/2+y,-z
-x,y,z
x,1/2-y,z
1/2+x,1/2+y,z
1/2-x,-y,z
1/2+x,1/2-y,-z
1/2-x,y,-z
1/2-x,1/2-y,-z
1/2+x,y,-z
1/2-x,1/2+y,z
1/2+x,-y,z
loop_
_atom_site_type_symbol
_atom_site_label
_atom_site_fract_x
_atom_site_fract_y
_atom_site_fract_z
Si Si1 0.630418 0.352266 0.660828
Si Si2 0.067146 0.142172 0.920896
Si Si3 0.231586 0.140054 0.846878
Si Si4 0.261801 0.898842 0.639509
Si Si5 0.837566 0.858924 0.955001
Si Si6 0.931302 0.023705 0.730706
Si Si7 0.880507 0.352542 0.561658
O O1 0.614130 0.250000 0.690465
O O2 0.699566 0.354970 0.653179
O O3 0.602706 0.428527 0.728025
O O4 0.608675 0.370562 0.551209
O O5 0.082306 0.250000 0.903728
O O6 0.099357 0.110668 0.018361
O O7 0.081215 0.083578 0.826168
O O8 0.000000 0.137425 0.935790
O O9 0.232728 0.250000 0.831806
O O10 0.211942 0.097445 0.747441
O O11 0.194007 0.125666 0.941852
O O12 0.294841 0.103892 0.874774
O O13 0.311441 0.855851 0.575557
O O14 0.250000 0.000000 0.604878
O O15 0.838534 0.750000 0.936774
O O16 0.909722 0.078730 0.635928
O O17 0.000000 0.010294 0.725890
O O18 0.899808 0.250000 0.584773
#
# Coordination Sequence:
#
# PCOD9504989 Si02
#       7
#    16  16  16  16  16  16  16
#     4  11  25  42  60  85 121 166 210 252 303 370
#     4   9  17  31  56  90 124 158 200 254 311 362
#     4   9  17  31  53  82 116 153 191 236 291 362
#     4  12  23  37  61  90 122 157 202 252 309 370
#     4   8  15  29  52  82 118 156 191 233 294 361
#     4  11  23  39  61  90 125 160 206 259 305 358
#     4  11  23  40  63  90 122 159 200 255 319 372
#
# _framework density 23.635396
#
# number of rings (size 3 to 8) (size 9 to 14) (size 15 to 20)
#    0.000    1.857    1.429    4.286    0.000    5.143 
#    0.000    2.857    0.000    0.857    0.000    4.000 
#    0.000    0.000    0.000    0.000    0.000    0.000 
#
# Total GULP energy -313286.160062 kJ/mol
# GULP energy per Si atom -5594.395715 kJ/mol
# Density = 2.358160 g / cm^3
# Si number density = 23.635396 Si / 1000 Ang^3
#
#
#
# Elastic Constant Matrix: (Units=GPa)
#
#
# Indices 1 2 3 4 5 6 
#
# 1 94.5778 21.0166 14.3873 0.0000 0.0000 0.0000
# 2 21.0166 79.6259 13.2353 0.0000 0.0000 0.0000
# 3 14.3873 13.2353 71.9552 0.0000 0.0000 0.0000
# 4 0.0000 0.0000 0.0000 15.8627 0.0000 0.0000
# 5 0.0000 0.0000 0.0000 0.0000 34.3753 0.0000
# 6 0.0000 0.0000 0.0000 0.0000 0.0000 17.5617
#
#
#
# Elastic Compliance Matrix: (Units=1/GPa)
#
#
# Indices 1 2 3 4 5 6 
#
# 1 0.011451 -0.002725 -0.001788 0.000000 0.000000 0.000000
# 2 -0.002725 0.013603 -0.001957 0.000000 0.000000 0.000000
# 3 -0.001788 -0.001957 0.014615 0.000000 0.000000 0.000000
# 4 0.000000 0.000000 0.000000 0.063041 0.000000 0.000000
# 5 0.000000 0.000000 0.000000 0.000000 0.029091 0.000000
# 6 0.000000 0.000000 0.000000 0.000000 0.000000 0.056942
#
#
# Mechanical properties :
#
#
# Convention : Reuss Voigt Hill
#
# Bulk Modulus (GPa) = 37.41410 38.15970 37.78690
# Shear Modulus (GPa) = 23.74238 26.72792 25.23515
#
# Velocity S-wave (km/s) = 3.17286 3.36645 3.27109
# Velocity P-wave (km/s) = 5.41173 5.59382 5.50353
#
# Compressibility (1/GPa) = 0.02672789
#
# Stress axis : x y z
#
# Youngs Moduli (GPa) = 87.32929 73.51140 68.42228
#
# Poissons Ratio (x) = 0.20033 0.12236
# Poissons Ratio (y) = 0.23798 0.13392
# Poissons Ratio (z) = 0.15617 0.14388
#
# Static dielectric constant tensor:
#      x y z
#    x 1.923910 0.000000 0.000000 
#    y 0.000000 1.886630 0.000000 
#    z 0.000000 0.000000 1.875470 
# 
# From -- ./inp_files/30194.got.cif
#   From: 2010.05.17/outbox.cif.g08.bks.cpg/sg67_16_cif.got.tgz:30194.got - 2010.06.03 18:28:57.
