data_PCOD9504623
_publ_section_title
;
Structure prediction by ZEFSAII (Michael W. Deem and Ramdas Pophale) SiO2 
 PCOD9504623
Probable space group: C M M A
;
_chemical_formula_sum "Si O2"
_cell_formula_units_Z 40
_cell_length_a 25.247982
_cell_length_b 10.847642
_cell_length_c 6.257639
_cell_angle_alpha 90.000000
_cell_angle_beta 90.000000
_cell_angle_gamma 90.000000
_cell_volume 1713.848865
_symmetry_space_group_name_H-M "C M M A"
_symmetry_group_IT_number 67
_symmetry_cell_setting 'orthorhombic'
loop_
_space_group_symop_operation_xyz
x,y,z
-x,1/2-y,z
x,-y,-z
-x,1/2+y,-z
-x,-y,-z
x,1/2+y,-z
-x,y,z
x,1/2-y,z
1/2+x,1/2+y,z
1/2-x,-y,z
1/2+x,1/2-y,-z
1/2-x,y,-z
1/2-x,1/2-y,-z
1/2+x,y,-z
1/2-x,1/2+y,z
1/2+x,-y,z
loop_
_atom_site_type_symbol
_atom_site_label
_atom_site_fract_x
_atom_site_fract_y
_atom_site_fract_z
Si Si1 0.854352 0.500000 0.500000
Si Si2 0.192094 0.117717 0.110549
Si Si3 0.059173 0.893483 0.183177
O O1 0.815692 0.413987 0.358175
O O2 0.894375 0.579347 0.353565
O O3 0.167730 0.250000 0.069813
O O4 0.250000 0.123485 0.000000
O O5 0.167212 0.000000 0.000000
O O6 0.062647 0.750000 0.107801
O O7 0.000000 0.903785 0.282298
O O8 0.059978 0.000000 0.000000
#
# Coordination Sequence:
#
# PCOD9504623 Si02
#       3
#     8  16  16
#     4  12  23  39  70 100 128 174 225 271 324 392
#     4  10  24  45  66  92 128 170 220 277 331 385
#     4  10  23  43  67  99 137 173 214 268 329 395
#
# _framework density 23.339281
#
# number of rings (size 3 to 8) (size 9 to 14) (size 15 to 20)
#    0.000    1.600    0.000    3.000    0.000   12.800 
#    0.000   14.000    0.000    0.000    0.000    0.000 
#    0.000    0.000    0.000    0.000    0.000    0.000 
#
# Total GULP energy -111377.484201 kJ/mol
# GULP energy per Si atom -5568.874210 kJ/mol
# Density = 2.328616 g / cm^3
# Si number density = 23.339281 Si / 1000 Ang^3
#
#
#
# Elastic Constant Matrix: (Units=GPa)
#
#
# Indices 1 2 3 4 5 6 
#
# 1 179.5522 13.4811 68.8137 0.0000 0.0000 0.0000
# 2 13.4811 251.6404 64.7588 0.0000 0.0000 0.0000
# 3 68.8137 64.7588 101.4166 0.0000 0.0000 0.0000
# 4 0.0000 0.0000 0.0000 8.5203 0.0000 0.0000
# 5 0.0000 0.0000 0.0000 0.0000 48.4711 0.0000
# 6 0.0000 0.0000 0.0000 0.0000 0.0000 96.5273
#
#
#
# Elastic Compliance Matrix: (Units=1/GPa)
#
#
# Indices 1 2 3 4 5 6 
#
# 1 0.007785 0.001128 -0.006003 0.000000 0.000000 0.000000
# 2 0.001128 0.004919 -0.003906 0.000000 0.000000 0.000000
# 3 -0.006003 -0.003906 0.016427 0.000000 0.000000 0.000000
# 4 0.000000 0.000000 0.000000 0.117367 0.000000 0.000000
# 5 0.000000 0.000000 0.000000 0.000000 0.020631 0.000000
# 6 0.000000 0.000000 0.000000 0.000000 0.000000 0.010360
#
#
# Mechanical properties :
#
#
# Convention : Reuss Voigt Hill
#
# Bulk Modulus (GPa) = 86.43348 91.85737 89.14543
# Shear Modulus (GPa) = 25.13736 56.40745 40.77240
#
# Velocity S-wave (km/s) = 3.28539 4.92148 4.18418
# Velocity P-wave (km/s) = 7.17674 8.46979 7.84994
#
# Compressibility (1/GPa) = 0.01156959
#
# Stress axis : x y z
#
# Youngs Moduli (GPa) = 128.44849 203.30611 60.87436
#
# Poissons Ratio (x) = -0.22926 0.36540
# Poissons Ratio (y) = -0.14485 0.23777
# Poissons Ratio (z) = 0.77101 0.79410
#
# Static dielectric constant tensor:
#      x y z
#    x 1.982520 0.000000 0.000000 
#    y 0.000000 1.884500 0.000000 
#    z 0.000000 0.000000 2.025790 
# 
# From -- ./inp_files/632.got.cif
#   From: 2010.05.17/outbox.cif.g08.bks.cpg/sg67_1_cif.got.tgz:632.got - 2010.06.03 18:28:57.
