data_PCOD9504728
_publ_section_title
;
Structure prediction by ZEFSAII (Michael W. Deem and Ramdas Pophale) SiO2 
 PCOD9504728
Probable space group: C M M A
;
_chemical_formula_sum "Si O2"
_cell_formula_units_Z 96
_cell_length_a 8.578704
_cell_length_b 29.635223
_cell_length_c 21.044608
_cell_angle_alpha 90.000000
_cell_angle_beta 90.000000
_cell_angle_gamma 90.000000
_cell_volume 5350.208700
_symmetry_space_group_name_H-M "C M M A"
_symmetry_group_IT_number 67
_symmetry_cell_setting 'orthorhombic'
loop_
_space_group_symop_operation_xyz
x,y,z
-x,1/2-y,z
x,-y,-z
-x,1/2+y,-z
-x,-y,-z
x,1/2+y,-z
-x,y,z
x,1/2-y,z
1/2+x,1/2+y,z
1/2-x,-y,z
1/2+x,1/2-y,-z
1/2-x,y,-z
1/2-x,1/2-y,-z
1/2+x,y,-z
1/2-x,1/2+y,z
1/2+x,-y,z
loop_
_atom_site_type_symbol
_atom_site_label
_atom_site_fract_x
_atom_site_fract_y
_atom_site_fract_z
Si Si1 0.187796 0.394428 0.313032
Si Si2 0.312019 0.199535 0.888525
Si Si3 0.686058 0.950031 0.569997
Si Si4 0.311955 0.949165 0.808238
Si Si5 0.814435 0.605923 0.066525
Si Si6 0.689280 0.700315 0.260572
O O1 0.255872 0.415559 0.376900
O O2 0.244538 0.423721 0.253076
O O3 0.240648 0.342959 0.300134
O O4 0.000000 0.395649 0.315525
O O5 0.500000 0.197176 0.892754
O O6 0.264034 0.250000 0.909408
O O7 0.240379 0.157492 0.924699
O O8 0.269049 0.194914 0.813810
O O9 0.500000 0.951743 0.568334
O O10 0.750000 0.938680 0.500000
O O11 0.750000 0.000000 0.585996
O O12 0.500000 0.949093 0.804816
O O13 0.262339 0.922510 0.871997
O O14 0.250000 0.000000 0.809923
O O15 0.000000 0.604824 0.064708
O O16 0.750000 0.587938 0.000000
O O17 0.500000 0.700638 0.262243
O O18 0.743163 0.750000 0.281753
#
# Coordination Sequence:
#
# PCOD9504728 Si02
#       6
#    16  16  16  16  16  16
#     4  11  20  34  60  88 116 149 183 225 274 323
#     4   9  17  33  57  82 108 140 179 223 273 329
#     4  11  22  38  58  84 119 153 191 230 273 327
#     4  11  24  40  57  80 107 139 182 231 278 329
#     4  11  24  39  56  77 106 141 182 228 281 336
#     4   8  15  29  53  84 113 143 180 221 268 323
#
# _framework density 17.943225999999999
#
# number of rings (size 3 to 8) (size 9 to 14) (size 15 to 20)
#    0.000    1.833    1.667    5.000    0.000    3.000 
#    0.000    1.667    0.000    2.500    0.000    0.000 
#    0.000    0.000    0.000    0.000    0.000    0.000 
#
# Total GULP energy -268075.981480 kJ/mol
# GULP energy per Si atom -5584.916281 kJ/mol
# Density = 1.790239 g / cm^3
# Si number density = 17.943226 Si / 1000 Ang^3
#
#
#
# Elastic Constant Matrix: (Units=GPa)
#
#
# Indices 1 2 3 4 5 6 
#
# 1 64.2630 31.8373 31.5914 0.0000 0.0000 0.0000
# 2 31.8373 135.0571 74.4861 0.0000 0.0000 0.0000
# 3 31.5914 74.4861 102.6550 0.0000 0.0000 0.0000
# 4 0.0000 0.0000 0.0000 -14.7375 0.0000 0.0000
# 5 0.0000 0.0000 0.0000 0.0000 24.8415 0.0000
# 6 0.0000 0.0000 0.0000 0.0000 0.0000 16.2619
#
#
#
# Elastic Compliance Matrix: (Units=1/GPa)
#
#
# Indices 1 2 3 4 5 6 
#
# 1 0.018671 -0.002055 -0.004255 0.000000 0.000000 0.000000
# 2 -0.002055 0.012570 -0.008489 0.000000 0.000000 0.000000
# 3 -0.004255 -0.008489 0.017210 0.000000 0.000000 0.000000
# 4 0.000000 0.000000 0.000000 -0.067854 0.000000 0.000000
# 5 0.000000 0.000000 0.000000 0.000000 0.040255 0.000000
# 6 0.000000 0.000000 0.000000 0.000000 0.000000 0.061494
#
#
# Mechanical properties :
#
#
# Convention : Reuss Voigt Hill
#
# Bulk Modulus (GPa) = 53.03734 64.20053 58.61894
# Shear Modulus (GPa) = 42.29147 16.21051 29.25099
#
# Velocity S-wave (km/s) = 4.86012 3.00898 4.04195
# Velocity P-wave (km/s) = 7.81773 6.92311 7.38398
#
# Compressibility (1/GPa) = 0.01885464
#
# Stress axis : x y z
#
# Youngs Moduli (GPa) = 53.55990 79.55307 58.10527
#
# Poissons Ratio (x) = 0.16345 0.24724
# Poissons Ratio (y) = 0.11004 0.49323
# Poissons Ratio (z) = 0.22790 0.67530
#
# Static dielectric constant tensor:
#      x y z
#    x 1.607450 0.000000 0.000000 
#    y 0.000000 1.616480 0.000000 
#    z 0.000000 0.000000 1.597280 
# 
# From -- ./inp_files/37132.got.cif
#   From: 2010.05.17/outbox.cif.g08.bks.cpg/sg67_19_cif.got.tgz:37132.got - 2010.06.03 18:28:57.
