data_PCOD9504167
_publ_section_title
;
Structure prediction by ZEFSAII (Michael W. Deem and Ramdas Pophale) SiO2 
 PCOD9504167
Probable space group: C M M A
;
_chemical_formula_sum "Si O2"
_cell_formula_units_Z 96
_cell_length_a 17.993367
_cell_length_b 11.657129
_cell_length_c 23.777832
_cell_angle_alpha 90.000000
_cell_angle_beta 90.000000
_cell_angle_gamma 90.000000
_cell_volume 4987.424046
_symmetry_space_group_name_H-M "C M M A"
_symmetry_group_IT_number 67
_symmetry_cell_setting 'orthorhombic'
loop_
_space_group_symop_operation_xyz
x,y,z
-x,1/2-y,z
x,-y,-z
-x,1/2+y,-z
-x,-y,-z
x,1/2+y,-z
-x,y,z
x,1/2-y,z
1/2+x,1/2+y,z
1/2-x,-y,z
1/2+x,1/2-y,-z
1/2-x,y,-z
1/2-x,1/2-y,-z
1/2+x,y,-z
1/2-x,1/2+y,z
1/2+x,-y,z
loop_
_atom_site_type_symbol
_atom_site_label
_atom_site_fract_x
_atom_site_fract_y
_atom_site_fract_z
Si Si1 0.161694 0.015132 0.066257
Si Si2 0.222639 0.622269 0.435844
Si Si3 0.914025 0.386312 0.835783
Si Si4 0.412115 0.750000 0.108533
Si Si5 0.661366 0.990465 0.269288
Si Si6 0.912199 0.250000 0.244285
Si Si7 0.583069 0.883360 0.627588
O O1 0.130044 0.137954 0.085682
O O2 0.250000 0.000000 0.076413
O O3 0.118577 0.923197 0.104274
O O4 0.148523 0.000000 0.000000
O O5 0.243747 0.750000 0.411664
O O6 0.250000 0.500000 0.411202
O O7 0.250000 0.624146 0.500000
O O8 0.134254 0.613594 0.427646
O O9 0.911002 0.250000 0.828905
O O10 0.867302 0.446837 0.787045
O O11 0.000000 0.424336 0.831281
O O12 0.500000 0.750000 0.092895
O O13 0.408597 0.750000 0.176286
O O14 0.630427 0.861754 0.266079
O O15 0.750000 0.000000 0.271916
O O16 0.623968 0.050809 0.322687
O O17 0.000000 0.250000 0.259683
O O18 0.500000 0.926627 0.618738
O O19 0.579246 0.750000 0.644657
#
# Coordination Sequence:
#
# PCOD9504167 Si02
#       7
#    16  16  16   8  16   8  16
#     4  11  26  42  64  90 123 159 207 263 322 385
#     4   9  18  36  62  91 125 164 210 261 309 365
#     4  11  24  41  63  90 122 159 205 259 316 384
#     4  11  24  43  67  89 121 165 207 259 324 393
#     4  12  25  39  64  92 126 166 211 261 320 387
#     4  11  24  42  63  91 128 168 211 263 328 393
#     4  10  21  39  63  90 127 170 213 259 315 379
#
# _framework density 19.248414
#
# number of rings (size 3 to 8) (size 9 to 14) (size 15 to 20)
#    0.000    1.333    1.667    3.500    4.667    3.333 
#    1.500    1.667    0.000    1.000    0.000    0.000 
#    0.000    0.000    0.000    0.000    0.000    0.000 
#
# Total GULP energy -267965.432834 kJ/mol
# GULP energy per Si atom -5582.613184 kJ/mol
# Density = 1.920460 g / cm^3
# Si number density = 19.248414 Si / 1000 Ang^3
#
#
#
# Elastic Constant Matrix: (Units=GPa)
#
#
# Indices 1 2 3 4 5 6 
#
# 1 193.4490 70.8598 70.9144 0.0000 0.0000 0.0000
# 2 70.8598 117.7826 20.2044 0.0000 0.0000 0.0000
# 3 70.9144 20.2044 85.9095 0.0000 0.0000 0.0000
# 4 0.0000 0.0000 0.0000 69.3276 0.0000 0.0000
# 5 0.0000 0.0000 0.0000 0.0000 36.0322 0.0000
# 6 0.0000 0.0000 0.0000 0.0000 0.0000 28.5129
#
#
#
# Elastic Compliance Matrix: (Units=1/GPa)
#
#
# Indices 1 2 3 4 5 6 
#
# 1 0.009179 -0.004400 -0.006542 0.000000 0.000000 0.000000
# 2 -0.004400 0.010956 0.001055 0.000000 0.000000 0.000000
# 3 -0.006542 0.001055 0.016792 0.000000 0.000000 0.000000
# 4 0.000000 0.000000 0.000000 0.014424 0.000000 0.000000
# 5 0.000000 0.000000 0.000000 0.000000 0.027753 0.000000
# 6 0.000000 0.000000 0.000000 0.000000 0.000000 0.035072
#
#
# Mechanical properties :
#
#
# Convention : Reuss Voigt Hill
#
# Bulk Modulus (GPa) = 58.29580 80.12205 69.20892
# Shear Modulus (GPa) = 35.79885 42.45205 39.12545
#
# Velocity S-wave (km/s) = 4.31726 4.70135 4.51339
# Velocity P-wave (km/s) = 7.42990 8.43717 7.94951
#
# Compressibility (1/GPa) = 0.01715390
#
# Stress axis : x y z
#
# Youngs Moduli (GPa) = 108.94002 91.27097 59.55104
#
# Poissons Ratio (x) = 0.40161 0.38960
# Poissons Ratio (y) = 0.47936 -0.06285
# Poissons Ratio (z) = 0.71272 -0.09633
#
# Static dielectric constant tensor:
#      x y z
#    x 1.652060 0.000000 0.000000 
#    y 0.000000 1.699580 0.000000 
#    z 0.000000 0.000000 1.646770 
# 
# From -- ./inp_files/42169.got.cif
#   From: 2010.05.17/outbox.cif.g08.bks.cpg/sg67_22_cif.got.tgz:42169.got - 2010.06.03 18:28:57.
