data_PCOD9504010
_publ_section_title
;
Structure prediction by ZEFSAII (Michael W. Deem and Ramdas Pophale) SiO2 
 PCOD9504010
Probable space group: C M M A
;
_chemical_formula_sum "Si O2"
_cell_formula_units_Z 64
_cell_length_a 8.220036
_cell_length_b 25.367982
_cell_length_c 12.623784
_cell_angle_alpha 90.000000
_cell_angle_beta 90.000000
_cell_angle_gamma 90.000000
_cell_volume 2632.383714
_symmetry_space_group_name_H-M "C M M A"
_symmetry_group_IT_number 67
_symmetry_cell_setting 'orthorhombic'
loop_
_space_group_symop_operation_xyz
x,y,z
-x,1/2-y,z
x,-y,-z
-x,1/2+y,-z
-x,-y,-z
x,1/2+y,-z
-x,y,z
x,1/2-y,z
1/2+x,1/2+y,z
1/2-x,-y,z
1/2+x,1/2-y,-z
1/2-x,y,-z
1/2-x,1/2-y,-z
1/2+x,y,-z
1/2-x,1/2+y,z
1/2+x,-y,z
loop_
_atom_site_type_symbol
_atom_site_label
_atom_site_fract_x
_atom_site_fract_y
_atom_site_fract_z
Si Si1 0.312556 0.169038 0.113630
Si Si2 0.812653 0.579283 0.386265
Si Si3 0.189941 0.808329 0.659257
Si Si4 0.312399 0.943254 0.159621
O O1 0.500000 0.183235 0.129370
O O2 0.209825 0.189088 0.213271
O O3 0.293014 0.105491 0.118032
O O4 0.250000 0.187125 0.000000
O O5 0.750000 0.561342 0.500000
O O6 0.794213 0.642985 0.382861
O O7 0.707262 0.559425 0.287455
O O8 0.000000 0.564793 0.369256
O O9 0.240915 0.750000 0.624544
O O10 0.000000 0.816658 0.632786
O O11 0.500000 0.934965 0.131066
O O12 0.250000 0.000000 0.124510
#
# Coordination Sequence:
#
# PCOD9504010 Si02
#       4
#    16  16  16  16
#     4  11  22  38  59  84 114 149 188 231 280 331
#     4  11  22  38  59  84 114 149 188 231 280 331
#     4  10  21  38  59  84 114 148 187 232 281 333
#     4  11  22  39  60  85 115 147 186 230 279 333
#
# _framework density 24.312563999999998
#
# number of rings (size 3 to 8) (size 9 to 14) (size 15 to 20)
#    0.000    1.250    0.000   10.500    0.000    4.000 
#    0.000    5.000    0.000    0.000    0.000    0.000 
#    0.000    0.000    0.000    0.000    0.000    0.000 
#
# Total GULP energy -179343.153535 kJ/mol
# GULP energy per Si atom -5604.473548 kJ/mol
# Density = 2.425723 g / cm^3
# Si number density = 24.312564 Si / 1000 Ang^3
#
#
#
# Elastic Constant Matrix: (Units=GPa)
#
#
# Indices 1 2 3 4 5 6 
#
# 1 104.9401 2.8768 -11.4123 0.0000 0.0000 0.0000
# 2 2.8768 127.0931 -11.4594 0.0000 0.0000 0.0000
# 3 -11.4123 -11.4594 117.1098 0.0000 0.0000 0.0000
# 4 0.0000 0.0000 0.0000 -24.8413 0.0000 0.0000
# 5 0.0000 0.0000 0.0000 0.0000 28.1011 0.0000
# 6 0.0000 0.0000 0.0000 0.0000 0.0000 10.0778
#
#
#
# Elastic Compliance Matrix: (Units=1/GPa)
#
#
# Indices 1 2 3 4 5 6 
#
# 1 0.009634 -0.000135 0.000926 0.000000 0.000000 0.000000
# 2 -0.000135 0.007940 0.000764 0.000000 0.000000 0.000000
# 3 0.000926 0.000764 0.008704 0.000000 0.000000 0.000000
# 4 0.000000 0.000000 0.000000 -0.040256 0.000000 0.000000
# 5 0.000000 0.000000 0.000000 0.000000 0.035586 0.000000
# 6 0.000000 0.000000 0.000000 0.000000 0.000000 0.099228
#
#
# Mechanical properties :
#
#
# Convention : Reuss Voigt Hill
#
# Bulk Modulus (GPa) = 34.02816 34.35036 34.18926
# Shear Modulus (GPa) = 39.20891 27.27671 33.24281
#
# Velocity S-wave (km/s) = 4.02020 3.35314 3.70173
# Velocity P-wave (km/s) = 5.96455 5.39914 5.68887
#
# Compressibility (1/GPa) = 0.02938742
#
# Stress axis : x y z
#
# Youngs Moduli (GPa) = 103.80340 125.94194 114.89046
#
# Poissons Ratio (x) = 0.01695 -0.10635
# Poissons Ratio (y) = 0.01397 -0.08776
# Poissons Ratio (z) = -0.09608 -0.09620
#
# Static dielectric constant tensor:
#      x y z
#    x 1.799330 0.000000 0.000000 
#    y 0.000000 1.973970 0.000000 
#    z 0.000000 0.000000 1.950480 
# 
# From -- ./inp_files/24822.got.cif
#   From: 2010.05.17/outbox.cif.g08.bks.cpg/sg67_13_cif.got.tgz:24822.got - 2010.06.03 18:28:57.
