data_PCOD9505923
_publ_section_title
;
Structure prediction by ZEFSAII (Michael W. Deem and Ramdas Pophale) SiO2 
 PCOD9505923
Probable space group: C C C A
;
_chemical_formula_sum "Si O2"
_cell_formula_units_Z 88
_cell_length_a 7.283336
_cell_length_b 19.472331
_cell_length_c 25.330008
_cell_angle_alpha 90.000000
_cell_angle_beta 90.000000
_cell_angle_gamma 90.000000
_cell_volume 3592.391134
_symmetry_space_group_name_H-M "C C C A"
_symmetry_group_IT_number 68
_space_group.IT_coordinate_system_code '2'
_symmetry_cell_setting 'orthorhombic'
loop_
_space_group_symop_operation_xyz
x,y,z
-x,1/2-y,z
x,1/2-y,1/2-z
-x,y,1/2-z
-x,-y,-z
x,1/2+y,-z
-x,1/2+y,1/2+z
x,-y,1/2+z
1/2+x,1/2+y,z
1/2-x,-y,z
1/2+x,-y,1/2-z
1/2-x,1/2+y,1/2-z
1/2-x,1/2-y,-z
1/2+x,y,-z
1/2-x,y,1/2+z
1/2+x,1/2-y,1/2+z
loop_
_atom_site_type_symbol
_atom_site_label
_atom_site_fract_x
_atom_site_fract_y
_atom_site_fract_z
Si Si1 0.780897 0.895141 0.557721
Si Si2 0.845574 0.899223 0.442525
Si Si3 0.250000 0.500000 0.644565
Si Si4 0.726341 0.754336 0.917518
Si Si5 0.130761 0.560488 0.324346
Si Si6 0.200731 0.715375 0.300639
O O1 0.824364 0.928119 0.501230
O O2 0.562620 0.893205 0.563777
O O3 0.844919 0.943442 0.605602
O O4 0.824223 0.814130 0.562065
O O5 0.741227 0.826267 0.446486
O O6 0.798752 0.930145 0.385476
O O7 0.416276 0.538226 0.674521
O O8 0.500000 0.750000 0.919342
O O9 0.783443 0.765525 0.856993
O O10 0.250000 0.500000 0.299744
O O11 0.169085 0.633890 0.297917
O O12 0.291651 0.750000 0.250000
O O13 0.000000 0.750000 0.303401
#
# Coordination Sequence:
#
# PCOD9505923 Si02
#       6
#    16  16   8  16  16  16
#     4  10  19  30  49  77 116 166 203 253 302 368
#     4   9  19  30  50  77 116 160 212 251 297 372
#     4  10  22  34  54  86 130 172 204 250 320 380
#     4   8  15  31  49  77 109 148 207 259 305 369
#     4  10  22  38  61  93 129 166 207 265 321 381
#     4   9  17  35  69  90 113 164 216 253 328 398
#
# _framework density 24.496217999999999
#
# number of rings (size 3 to 8) (size 9 to 14) (size 15 to 20)
#    0.000    2.727    0.000    3.818    3.818    1.455 
#    0.000    0.000   18.000    4.364    0.000    0.000 
#    0.000    0.000    0.000    0.000    0.000    0.000 
#
# Total GULP energy -245535.644547 kJ/mol
# GULP energy per Si atom -5580.355558 kJ/mol
# Density = 2.444046 g / cm^3
# Si number density = 24.496218 Si / 1000 Ang^3
#
#
#
# Elastic Constant Matrix: (Units=GPa)
#
#
# Indices 1 2 3 4 5 6 
#
# 1 91.4031 32.7218 8.9736 0.0000 0.0000 0.0000
# 2 32.7218 165.3288 29.3226 0.0000 0.0000 0.0000
# 3 8.9736 29.3226 96.0496 0.0000 0.0000 0.0000
# 4 0.0000 0.0000 0.0000 -5.6290 0.0000 0.0000
# 5 0.0000 0.0000 0.0000 0.0000 6.5097 0.0000
# 6 0.0000 0.0000 0.0000 0.0000 0.0000 20.5797
#
#
#
# Elastic Compliance Matrix: (Units=1/GPa)
#
#
# Indices 1 2 3 4 5 6 
#
# 1 0.011790 -0.002261 -0.000411 0.000000 0.000000 0.000000
# 2 -0.002261 0.006828 -0.001873 0.000000 0.000000 0.000000
# 3 -0.000411 -0.001873 0.011022 0.000000 0.000000 0.000000
# 4 0.000000 0.000000 0.000000 -0.177652 0.000000 0.000000
# 5 0.000000 0.000000 0.000000 0.000000 0.153616 0.000000
# 6 0.000000 0.000000 0.000000 0.000000 0.000000 0.048592
#
#
# Mechanical properties :
#
#
# Convention : Reuss Voigt Hill
#
# Bulk Modulus (GPa) = 48.66317 54.97972 51.82144
# Shear Modulus (GPa) = 71.29006 23.07633 47.18320
#
# Velocity S-wave (km/s) = 5.40052 3.07259 4.39354
# Velocity P-wave (km/s) = 7.66787 5.92289 6.85116
#
# Compressibility (1/GPa) = 0.02054942
#
# Stress axis : x y z
#
# Youngs Moduli (GPa) = 84.81619 146.45118 90.73061
#
# Poissons Ratio (x) = 0.33106 0.03733
# Poissons Ratio (y) = 0.19173 0.16997
# Poissons Ratio (z) = 0.03489 0.27436
#
# Static dielectric constant tensor:
#      x y z
#    x 1.519690 0.000000 0.000000 
#    y 0.000000 2.000010 0.000000 
#    z 0.000000 0.000000 2.050520 
# 
# From -- ./inp_files/54044.got.cif
#   From: 2010.05.17/outbox.cif.g08.bks.cpg/sg68_28_cif.got.tgz:54044.got - 2010.06.03 18:57:09.
