data_PCOD9505505
_publ_section_title
;
Structure prediction by ZEFSAII (Michael W. Deem and Ramdas Pophale) SiO2 
 PCOD9505505
Probable space group: C C C A
;
_chemical_formula_sum "Si O2"
_cell_formula_units_Z 120
_cell_length_a 14.525412
_cell_length_b 20.517430
_cell_length_c 19.162200
_cell_angle_alpha 90.000000
_cell_angle_beta 90.000000
_cell_angle_gamma 90.000000
_cell_volume 5710.797868
_symmetry_space_group_name_H-M "C C C A"
_symmetry_group_IT_number 68
_space_group.IT_coordinate_system_code '2'
_symmetry_cell_setting 'orthorhombic'
loop_
_space_group_symop_operation_xyz
x,y,z
-x,1/2-y,z
x,1/2-y,1/2-z
-x,y,1/2-z
-x,-y,-z
x,1/2+y,-z
-x,1/2+y,1/2+z
x,-y,1/2+z
1/2+x,1/2+y,z
1/2-x,-y,z
1/2+x,-y,1/2-z
1/2-x,1/2+y,1/2-z
1/2-x,1/2-y,-z
1/2+x,y,-z
1/2-x,y,1/2+z
1/2+x,1/2-y,1/2+z
loop_
_atom_site_type_symbol
_atom_site_label
_atom_site_fract_x
_atom_site_fract_y
_atom_site_fract_z
Si Si1 0.547659 0.309217 0.824368
Si Si2 0.567714 0.936928 0.812858
Si Si3 0.758365 0.817353 0.181104
Si Si4 0.491429 0.941538 0.402268
Si Si5 0.714805 0.567521 0.425932
Si Si6 0.189828 0.319511 0.841932
Si Si7 0.250000 0.500000 0.314266
Si Si8 0.186583 0.601614 0.930974
O O1 0.500000 0.250000 0.866254
O O2 0.500000 0.311026 0.750000
O O3 0.653871 0.291682 0.818655
O O4 0.532124 0.382212 0.850153
O O5 0.500000 0.919205 0.750000
O O6 0.607108 0.872140 0.851748
O O7 0.658027 0.972836 0.779348
O O8 0.520680 0.990918 0.864076
O O9 0.748345 0.876944 0.127723
O O10 0.825531 0.758474 0.157834
O O11 0.779984 0.833735 0.261546
O O12 0.393777 0.944665 0.440682
O O13 0.579083 0.912254 0.443014
O O14 0.750000 0.500000 0.395610
O O15 0.760409 0.582610 0.499811
O O16 0.270076 0.332509 0.899098
O O17 0.212811 0.445002 0.366418
#
# Coordination Sequence:
#
# PCOD9505505 Si02
#       8
#    16  16  16  16  16  16   8  16
#     4  10  17  31  59  92 126 158 204 269 328 379
#     4  10  21  36  61  95 126 170 215 267 322 389
#     4  10  22  40  62  95 129 171 207 270 323 379
#     4  10  22  37  60  93 124 162 216 272 320 387
#     4  11  25  41  62  94 131 166 212 274 329 376
#     4  10  21  41  67  90 129 172 216 255 324 393
#     4   8  18  36  56  86 126 164 208 260 320 380
#     4  10  19  41  63  91 122 172 208 261 323 393
#
# _framework density 21.012824999999999
#
# number of rings (size 3 to 8) (size 9 to 14) (size 15 to 20)
#    0.000    2.000    0.667    3.600    1.867    6.400 
#    1.200    1.333    0.000    0.000    0.000    0.000 
#    0.000    0.000    0.000    0.000    0.000    0.000 
#
# Total GULP energy -334100.517211 kJ/mol
# GULP energy per Si atom -5568.341954 kJ/mol
# Density = 2.096500 g / cm^3
# Si number density = 21.012825 Si / 1000 Ang^3
#
#
#
# Elastic Constant Matrix: (Units=GPa)
#
#
# Indices 1 2 3 4 5 6 
#
# 1 104.0687 23.7521 32.9196 0.0000 0.0000 0.0000
# 2 23.7521 114.9192 33.1741 0.0000 0.0000 0.0000
# 3 32.9196 33.1741 40.9128 0.0000 0.0000 0.0000
# 4 0.0000 0.0000 0.0000 -21.6347 0.0000 0.0000
# 5 0.0000 0.0000 0.0000 0.0000 8.2464 0.0000
# 6 0.0000 0.0000 0.0000 0.0000 0.0000 29.7539
#
#
#
# Elastic Compliance Matrix: (Units=1/GPa)
#
#
# Indices 1 2 3 4 5 6 
#
# 1 0.012906 0.000431 -0.010734 0.000000 0.000000 0.000000
# 2 0.000431 0.011375 -0.009571 0.000000 0.000000 0.000000
# 3 -0.010734 -0.009571 0.040840 0.000000 0.000000 0.000000
# 4 0.000000 0.000000 0.000000 -0.046222 0.000000 0.000000
# 5 0.000000 0.000000 0.000000 0.000000 0.121265 0.000000
# 6 0.000000 0.000000 0.000000 0.000000 0.000000 0.033609
#
#
# Mechanical properties :
#
#
# Convention : Reuss Voigt Hill
#
# Bulk Modulus (GPa) = 39.41082 48.84356 44.12719
# Shear Modulus (GPa) = 22.52461 14.61010 18.56736
#
# Velocity S-wave (km/s) = 3.27761 2.63970 2.97580
# Velocity P-wave (km/s) = 5.75499 5.70840 5.73174
#
# Compressibility (1/GPa) = 0.02537374
#
# Stress axis : x y z
#
# Youngs Moduli (GPa) = 77.48241 87.90856 24.48594
#
# Poissons Ratio (x) = -0.03791 0.26284
# Poissons Ratio (y) = -0.03341 0.23435
# Poissons Ratio (z) = 0.83172 0.84135
#
# Static dielectric constant tensor:
#      x y z
#    x 1.815660 0.000000 0.000000 
#    y 0.000000 1.962780 0.000000 
#    z 0.000000 0.000000 1.737520 
# 
# From -- ./inp_files/38946.got.cif
#   From: 2010.05.17/outbox.cif.g08.bks.cpg/sg68_20_cif.got.tgz:38946.got - 2010.06.03 18:57:09.
