data_PCOD9505030
_publ_section_title
;
Structure prediction by ZEFSAII (Michael W. Deem and Ramdas Pophale) SiO2 
 PCOD9505030
Probable space group: C M M A
;
_chemical_formula_sum "Si O2"
_cell_formula_units_Z 88
_cell_length_a 17.560837
_cell_length_b 14.332592
_cell_length_c 16.960062
_cell_angle_alpha 90.000000
_cell_angle_beta 90.000000
_cell_angle_gamma 90.000000
_cell_volume 4268.717215
_symmetry_space_group_name_H-M "C M M A"
_symmetry_group_IT_number 67
_symmetry_cell_setting 'orthorhombic'
loop_
_space_group_symop_operation_xyz
x,y,z
-x,1/2-y,z
x,-y,-z
-x,1/2+y,-z
-x,-y,-z
x,1/2+y,-z
-x,y,z
x,1/2-y,z
1/2+x,1/2+y,z
1/2-x,-y,z
1/2+x,1/2-y,-z
1/2-x,y,-z
1/2-x,1/2-y,-z
1/2+x,y,-z
1/2-x,1/2+y,z
1/2+x,-y,z
loop_
_atom_site_type_symbol
_atom_site_label
_atom_site_fract_x
_atom_site_fract_y
_atom_site_fract_z
Si Si1 0.624431 0.500000 0.000000
Si Si2 0.611590 0.856687 0.876853
Si Si3 0.913717 0.477055 0.411583
Si Si4 0.704005 0.641849 0.118310
Si Si5 0.195339 0.138559 0.297777
Si Si6 0.623867 0.640266 0.696825
O O1 0.582987 0.567801 0.938516
O O2 0.672301 0.429061 0.945392
O O3 0.589229 0.750000 0.894215
O O4 0.704259 0.859937 0.881635
O O5 0.595087 0.877356 0.785627
O O6 0.887112 0.500000 0.500000
O O7 0.857057 0.412427 0.361182
O O8 0.915396 0.574301 0.365099
O O9 0.000000 0.438240 0.415565
O O10 0.681806 0.750000 0.102580
O O11 0.677143 0.614204 0.206441
O O12 0.186302 0.250000 0.304556
O O13 0.285345 0.118832 0.307351
O O14 0.614223 0.750000 0.681462
#
# Coordination Sequence:
#
# PCOD9505030 Si02
#       6
#     8  16  16  16  16  16
#     4  12  17  20  38  68 107 146 167 198 259 312
#     4   9  17  27  41  67 101 135 173 213 253 301
#     4  11  24  38  54  81 112 137 167 215 273 328
#     4   9  17  27  41  67 101 135 173 213 253 301
#     4   9  19  37  58  78 105 143 183 221 261 309
#     4   9  19  37  58  78 105 143 183 221 261 309
#
# _framework density 20.615093000000002
#
# number of rings (size 3 to 8) (size 9 to 14) (size 15 to 20)
#    0.000    2.364    0.000    6.000    0.000    7.273 
#    0.000    3.636    0.000    0.000    0.000   10.182 
#    0.000   23.273    0.000    0.000    0.000    0.000 
#
# Total GULP energy -245861.718090 kJ/mol
# GULP energy per Si atom -5587.766320 kJ/mol
# Density = 2.056817 g / cm^3
# Si number density = 20.615093 Si / 1000 Ang^3
#
#
#
# Elastic Constant Matrix: (Units=GPa)
#
#
# Indices 1 2 3 4 5 6 
#
# 1 78.8475 33.0518 50.2681 0.0000 0.0000 0.0000
# 2 33.0518 89.7878 80.8288 0.0000 0.0000 0.0000
# 3 50.2681 80.8288 159.2748 0.0000 0.0000 0.0000
# 4 0.0000 0.0000 0.0000 -143.5423 0.0000 0.0000
# 5 0.0000 0.0000 0.0000 0.0000 121.1985 0.0000
# 6 0.0000 0.0000 0.0000 0.0000 0.0000 -11.2670
#
#
#
# Elastic Compliance Matrix: (Units=1/GPa)
#
#
# Indices 1 2 3 4 5 6 
#
# 1 0.016177 -0.002502 -0.003836 0.000000 0.000000 0.000000
# 2 -0.002502 0.020892 -0.009813 0.000000 0.000000 0.000000
# 3 -0.003836 -0.009813 0.012469 0.000000 0.000000 0.000000
# 4 0.000000 0.000000 0.000000 -0.006967 0.000000 0.000000
# 5 0.000000 0.000000 0.000000 0.000000 0.008251 0.000000
# 6 0.000000 0.000000 0.000000 0.000000 0.000000 -0.088755
#
#
# Mechanical properties :
#
#
# Convention : Reuss Voigt Hill
#
# Bulk Modulus (GPa) = 58.01469 72.91193 65.46331
# Shear Modulus (GPa) = 44191.21577 4.19526 22097.70552
#
# Velocity S-wave (km/s) = 146.57038 1.42810 103.64583
# Velocity P-wave (km/s) = 169.32820 6.17773 119.81278
#
# Compressibility (1/GPa) = 0.01723701
#
# Stress axis : x y z
#
# Youngs Moduli (GPa) = 61.81629 47.86577 80.19995
#
# Poissons Ratio (x) = 0.11974 0.30765
# Poissons Ratio (y) = 0.15464 0.78697
# Poissons Ratio (z) = 0.23713 0.46969
#
# Static dielectric constant tensor:
#      x y z
#    x 1.728560 0.000000 0.000000 
#    y 0.000000 1.738930 0.000000 
#    z 0.000000 0.000000 1.719890 
# 
# From -- ./inp_files/29161.got.cif
#   From: 2010.05.17/outbox.cif.g08.bks.cpg/sg67_15_cif.got.tgz:29161.got - 2010.06.03 18:28:57.
