data_PCOD9505040
_publ_section_title
;
Structure prediction by ZEFSAII (Michael W. Deem and Ramdas Pophale) SiO2 
 PCOD9505040
Probable space group: C M M A
;
_chemical_formula_sum "Si O2"
_cell_formula_units_Z 80
_cell_length_a 24.017379
_cell_length_b 14.332659
_cell_length_c 11.167594
_cell_angle_alpha 90.000000
_cell_angle_beta 90.000000
_cell_angle_gamma 90.000000
_cell_volume 3844.253305
_symmetry_space_group_name_H-M "C M M A"
_symmetry_group_IT_number 67
_symmetry_cell_setting 'orthorhombic'
loop_
_space_group_symop_operation_xyz
x,y,z
-x,1/2-y,z
x,-y,-z
-x,1/2+y,-z
-x,-y,-z
x,1/2+y,-z
-x,y,z
x,1/2-y,z
1/2+x,1/2+y,z
1/2-x,-y,z
1/2+x,1/2-y,-z
1/2-x,y,-z
1/2-x,1/2-y,-z
1/2+x,y,-z
1/2-x,1/2+y,z
1/2+x,-y,z
loop_
_atom_site_type_symbol
_atom_site_label
_atom_site_fract_x
_atom_site_fract_y
_atom_site_fract_z
Si Si1 0.104692 0.859987 0.686301
Si Si2 0.769023 0.607576 0.629347
Si Si3 0.099064 0.026215 0.868206
Si Si4 0.711845 0.643577 0.883933
Si Si5 0.000000 0.137466 0.475339
Si Si6 0.000000 0.362292 0.748709
O O1 0.098929 0.750000 0.716334
O O2 0.165139 0.877351 0.631126
O O3 0.055574 0.887580 0.595819
O O4 0.101289 0.929439 0.797040
O O5 0.750000 0.500000 0.629515
O O6 0.750000 0.646167 0.500000
O O7 0.744719 0.643239 0.756797
O O8 0.159833 0.074137 0.872926
O O9 0.055076 0.095868 0.808794
O O10 0.080306 0.000000 0.000000
O O11 0.692101 0.750000 0.904556
O O12 0.750000 0.619473 0.000000
O O13 0.000000 0.104857 0.610921
O O14 0.000000 0.250000 0.480944
O O15 0.000000 0.250000 0.754638
#
# Coordination Sequence:
#
# PCOD9505040 Si02
#       6
#    16  16  16  16   8   8
#     4  11  24  44  69  99 138 185 229 284 349 414
#     4  11  24  41  67 103 141 182 235 289 353 414
#     4  12  26  44  70 100 137 179 231 287 340 413
#     4  11  25  45  70  99 137 188 233 283 353 425
#     4   9  23  45  72 101 135 180 230 280 349 419
#     4  11  26  47  72 103 136 177 227 287 349 411
#
# _framework density 20.810283999999999
#
# number of rings (size 3 to 8) (size 9 to 14) (size 15 to 20)
#    0.000    1.000    2.000    3.300    2.800    6.400 
#    0.000    1.000    0.000    0.600    0.000    0.000 
#    0.000    0.000    0.000    0.000    0.000    0.000 
#
# Total GULP energy -223673.642793 kJ/mol
# GULP energy per Si atom -5591.841070 kJ/mol
# Density = 2.076292 g / cm^3
# Si number density = 20.810284 Si / 1000 Ang^3
#
#
#
# Elastic Constant Matrix: (Units=GPa)
#
#
# Indices 1 2 3 4 5 6 
#
# 1 143.2883 72.4630 88.0296 0.0000 0.0000 0.0000
# 2 72.4630 148.0222 71.3452 0.0000 0.0000 0.0000
# 3 88.0296 71.3452 201.0879 0.0000 0.0000 0.0000
# 4 0.0000 0.0000 0.0000 76.2107 0.0000 0.0000
# 5 0.0000 0.0000 0.0000 0.0000 -17.9139 0.0000
# 6 0.0000 0.0000 0.0000 0.0000 0.0000 23.5276
#
#
#
# Elastic Compliance Matrix: (Units=1/GPa)
#
#
# Indices 1 2 3 4 5 6 
#
# 1 0.011001 -0.003696 -0.003505 0.000000 0.000000 0.000000
# 2 -0.003696 0.009391 -0.001714 0.000000 0.000000 0.000000
# 3 -0.003505 -0.001714 0.007115 0.000000 0.000000 0.000000
# 4 0.000000 0.000000 0.000000 0.013122 0.000000 0.000000
# 5 0.000000 0.000000 0.000000 0.000000 -0.055823 0.000000
# 6 0.000000 0.000000 0.000000 0.000000 0.000000 0.042503
#
#
# Mechanical properties :
#
#
# Convention : Reuss Voigt Hill
#
# Bulk Modulus (GPa) = 103.32471 106.23045 104.77758
# Shear Modulus (GPa) = 103.37891 33.73559 68.55725
#
# Velocity S-wave (km/s) = 7.05583 4.03066 5.74591
# Velocity P-wave (km/s) = 10.77674 8.53344 9.72002
#
# Compressibility (1/GPa) = 0.00967823
#
# Stress axis : x y z
#
# Youngs Moduli (GPa) = 90.89837 106.48083 140.54470
#
# Poissons Ratio (x) = 0.39360 0.49254
# Poissons Ratio (y) = 0.33600 0.24087
# Poissons Ratio (z) = 0.31856 0.18249
#
# Static dielectric constant tensor:
#      x y z
#    x 1.701360 0.000000 0.000000 
#    y 0.000000 1.761930 0.000000 
#    z 0.000000 0.000000 1.745860 
# 
# From -- ./inp_files/21663.got.cif
#   From: 2010.05.17/outbox.cif.g08.bks.cpg/sg67_11_cif.got.tgz:21663.got - 2010.06.03 18:28:57.
