data_PCOD9505629
_publ_section_title
;
Structure prediction by ZEFSAII (Michael W. Deem and Ramdas Pophale) SiO2 
 PCOD9505629
Probable space group: C C C A
;
_chemical_formula_sum "Si O2"
_cell_formula_units_Z 104
_cell_length_a 29.650739
_cell_length_b 8.587864
_cell_length_c 22.005423
_cell_angle_alpha 90.000000
_cell_angle_beta 90.000000
_cell_angle_gamma 90.000000
_cell_volume 5603.384203
_symmetry_space_group_name_H-M "C C C A"
_symmetry_group_IT_number 68
_space_group.IT_coordinate_system_code '2'
_symmetry_cell_setting 'orthorhombic'
loop_
_space_group_symop_operation_xyz
x,y,z
-x,1/2-y,z
x,1/2-y,1/2-z
-x,y,1/2-z
-x,-y,-z
x,1/2+y,-z
-x,1/2+y,1/2+z
x,-y,1/2+z
1/2+x,1/2+y,z
1/2-x,-y,z
1/2+x,-y,1/2-z
1/2-x,1/2+y,1/2-z
1/2-x,1/2-y,-z
1/2+x,y,-z
1/2-x,y,1/2+z
1/2+x,1/2-y,1/2+z
loop_
_atom_site_type_symbol
_atom_site_label
_atom_site_fract_x
_atom_site_fract_y
_atom_site_fract_z
Si Si1 0.047385 0.445914 0.472113
Si Si2 0.965243 0.947995 0.194004
Si Si3 0.803771 0.750000 0.750000
Si Si4 0.666348 0.188716 0.345877
Si Si5 0.860896 0.979015 0.229261
Si Si6 0.579089 0.735501 0.914949
Si Si7 0.250000 0.000000 0.168938
Si Si8 0.000000 0.750000 0.877717
O O1 0.075051 0.383750 0.529333
O O2 0.064637 0.596221 0.437775
O O3 0.038943 0.310363 0.423083
O O4 0.000000 0.500000 0.500000
O O5 0.914116 0.975131 0.217388
O O6 0.953271 0.822475 0.140524
O O7 0.000000 0.913183 0.250000
O O8 0.984042 0.104020 0.162172
O O9 0.837657 0.640537 0.787761
O O10 0.773915 0.870022 0.788559
O O11 0.643950 0.062755 0.300255
O O12 0.668143 0.345585 0.305059
O O13 0.630442 0.242075 0.395018
O O14 0.712189 0.102899 0.365422
#
# Coordination Sequence:
#
# PCOD9505629 Si02
#       8
#    16  16   8  16  16  16   8   8
#     4  12  22  40  62  81 108 158 223 257 282 332
#     4  11  25  39  55  87 132 167 196 243 306 369
#     4  10  18  30  59  78 124 160 199 236 272 374
#     4   9  20  37  57  83 117 150 195 244 305 379
#     4   9  20  35  50  85 123 161 194 233 293 361
#     4  11  23  42  62  84 116 157 212 260 301 351
#     4  10  18  34  58  88 110 156 196 236 310 374
#     4  12  25  38  56  82 113 162 216 252 280 346
#
# _framework density 18.560213000000001
#
# number of rings (size 3 to 8) (size 9 to 14) (size 15 to 20)
#    0.000    1.538    3.077    2.077    4.308    1.231 
#    5.538    0.000    0.000    0.923    0.000    0.000 
#    0.000    0.000    0.000    0.000    0.000    0.000 
#
# Total GULP energy -289754.562595 kJ/mol
# GULP energy per Si atom -5572.203127 kJ/mol
# Density = 1.851797 g / cm^3
# Si number density = 18.560213 Si / 1000 Ang^3
#
#
#
# Elastic Constant Matrix: (Units=GPa)
#
#
# Indices 1 2 3 4 5 6 
#
# 1 112.5687 62.2215 45.7839 0.0000 0.0000 0.0000
# 2 62.2215 125.2246 56.2528 0.0000 0.0000 0.0000
# 3 45.7839 56.2528 92.7621 0.0000 0.0000 0.0000
# 4 0.0000 0.0000 0.0000 8.0364 0.0000 0.0000
# 5 0.0000 0.0000 0.0000 0.0000 6.3954 0.0000
# 6 0.0000 0.0000 0.0000 0.0000 0.0000 40.8729
#
#
#
# Elastic Compliance Matrix: (Units=1/GPa)
#
#
# Indices 1 2 3 4 5 6 
#
# 1 0.012997 -0.004915 -0.003434 0.000000 0.000000 0.000000
# 2 -0.004915 0.012834 -0.005357 0.000000 0.000000 0.000000
# 3 -0.003434 -0.005357 0.015724 0.000000 0.000000 0.000000
# 4 0.000000 0.000000 0.000000 0.124434 0.000000 0.000000
# 5 0.000000 0.000000 0.000000 0.000000 0.156363 0.000000
# 6 0.000000 0.000000 0.000000 0.000000 0.000000 0.024466
#
#
# Mechanical properties :
#
#
# Convention : Reuss Voigt Hill
#
# Bulk Modulus (GPa) = 70.70942 73.23021 71.96981
# Shear Modulus (GPa) = 13.19451 22.14741 17.67096
#
# Velocity S-wave (km/s) = 2.66917 3.45813 3.08894
# Velocity P-wave (km/s) = 6.90502 7.44889 7.18211
#
# Compressibility (1/GPa) = 0.01414239
#
# Stress axis : x y z
#
# Youngs Moduli (GPa) = 76.94021 77.91527 63.59766
#
# Poissons Ratio (x) = 0.38298 0.21840
# Poissons Ratio (y) = 0.37819 0.34070
# Poissons Ratio (z) = 0.26422 0.41740
#
# Static dielectric constant tensor:
#      x y z
#    x 1.665680 0.000000 0.000000 
#    y 0.000000 1.674130 0.000000 
#    z 0.000000 0.000000 1.655070 
# 
# From -- ./inp_files/41594.got.cif
#   From: 2010.05.17/outbox.cif.g08.bks.cpg/sg68_21_cif.got.tgz:41594.got - 2010.06.03 18:57:09.
