data_PCOD9505631
_publ_section_title
;
Structure prediction by ZEFSAII (Michael W. Deem and Ramdas Pophale) SiO2 
 PCOD9505631
Probable space group: C C C A
;
_chemical_formula_sum "Si O2"
_cell_formula_units_Z 96
_cell_length_a 9.980898
_cell_length_b 21.607681
_cell_length_c 27.121773
_cell_angle_alpha 90.000000
_cell_angle_beta 90.000000
_cell_angle_gamma 90.000000
_cell_volume 5849.191682
_symmetry_space_group_name_H-M "C C C A"
_symmetry_group_IT_number 68
_space_group.IT_coordinate_system_code '2'
_symmetry_cell_setting 'orthorhombic'
loop_
_space_group_symop_operation_xyz
x,y,z
-x,1/2-y,z
x,1/2-y,1/2-z
-x,y,1/2-z
-x,-y,-z
x,1/2+y,-z
-x,1/2+y,1/2+z
x,-y,1/2+z
1/2+x,1/2+y,z
1/2-x,-y,z
1/2+x,-y,1/2-z
1/2-x,1/2+y,1/2-z
1/2-x,1/2-y,-z
1/2+x,y,-z
1/2-x,y,1/2+z
1/2+x,1/2-y,1/2+z
loop_
_atom_site_type_symbol
_atom_site_label
_atom_site_fract_x
_atom_site_fract_y
_atom_site_fract_z
Si Si1 0.008424 0.675452 0.194551
Si Si2 0.269140 0.826971 0.879668
Si Si3 0.314788 0.817020 0.605254
Si Si4 0.083884 0.896943 0.015578
Si Si5 0.682105 0.440217 0.451792
Si Si6 0.010914 0.678355 0.919920
O O1 0.150928 0.659548 0.170096
O O2 0.000000 0.750000 0.198128
O O3 0.000000 0.650271 0.250000
O O4 0.892559 0.660273 0.154379
O O5 0.316594 0.758094 0.895790
O O6 0.308445 0.878810 0.918969
O O7 0.108142 0.828012 0.879927
O O8 0.384921 0.846693 0.557666
O O9 0.157549 0.833735 0.601840
O O10 0.973267 0.944932 0.034980
O O11 0.222564 0.927705 0.998760
O O12 0.022450 0.863959 0.967023
O O13 0.750000 0.500000 0.427107
O O14 0.000000 0.750000 0.936748
#
# Coordination Sequence:
#
# PCOD9505631 Si02
#       6
#    16  16  16  16  16  16
#     4   9  17  30  51  75  96 118 153 202 253 299
#     4   9  19  32  49  70 100 129 164 200 243 293
#     4  10  18  31  49  74 100 126 163 202 245 298
#     4  11  20  31  49  69 100 130 165 201 238 285
#     4  11  22  33  45  68 100 137 168 196 235 287
#     4   9  19  28  45  72 101 131 160 192 240 293
#
# _framework density 16.412524999999999
#
# number of rings (size 3 to 8) (size 9 to 14) (size 15 to 20)
#    0.000    2.167    3.333    0.500    2.333    2.000 
#    0.000    0.833    0.000    5.000    0.000    5.833 
#    0.000    0.000    0.000    0.000    0.000    0.000 
#
# Total GULP energy -267278.414262 kJ/mol
# GULP energy per Si atom -5568.300297 kJ/mol
# Density = 1.637517 g / cm^3
# Si number density = 16.412525 Si / 1000 Ang^3
#
#
#
# Elastic Constant Matrix: (Units=GPa)
#
#
# Indices 1 2 3 4 5 6 
#
# 1 116.2719 25.0997 54.5789 0.0000 0.0000 0.0000
# 2 25.0997 38.1938 21.3587 0.0000 0.0000 0.0000
# 3 54.5789 21.3587 94.1958 0.0000 0.0000 0.0000
# 4 0.0000 0.0000 0.0000 3.8463 0.0000 0.0000
# 5 0.0000 0.0000 0.0000 0.0000 16.0444 0.0000
# 6 0.0000 0.0000 0.0000 0.0000 0.0000 18.1188
#
#
#
# Elastic Compliance Matrix: (Units=1/GPa)
#
#
# Indices 1 2 3 4 5 6 
#
# 1 0.012532 -0.004781 -0.006177 0.000000 0.000000 0.000000
# 2 -0.004781 0.031809 -0.004442 0.000000 0.000000 0.000000
# 3 -0.006177 -0.004442 0.015203 0.000000 0.000000 0.000000
# 4 0.000000 0.000000 0.000000 0.259991 0.000000 0.000000
# 5 0.000000 0.000000 0.000000 0.000000 0.062327 0.000000
# 6 0.000000 0.000000 0.000000 0.000000 0.000000 0.055191
#
#
# Mechanical properties :
#
#
# Convention : Reuss Voigt Hill
#
# Bulk Modulus (GPa) = 34.79229 50.08177 42.43703
# Shear Modulus (GPa) = 10.47262 17.44350 13.95806
#
# Velocity S-wave (km/s) = 2.52878 3.26362 2.91941
# Velocity P-wave (km/s) = 5.45628 6.69195 6.10546
#
# Compressibility (1/GPa) = 0.02874200
#
# Stress axis : x y z
#
# Youngs Moduli (GPa) = 79.79334 31.43807 65.77783
#
# Poissons Ratio (x) = 0.15032 0.40633
# Poissons Ratio (y) = 0.38152 0.29219
# Poissons Ratio (z) = 0.49291 0.13965
#
# Static dielectric constant tensor:
#      x y z
#    x 1.592050 0.000000 0.000000 
#    y 0.000000 1.570970 0.000000 
#    z 0.000000 0.000000 1.533440 
# 
# From -- ./inp_files/44528.got.cif
#   From: 2010.05.17/outbox.cif.g08.bks.cpg/sg68_23_cif.got.tgz:44528.got - 2010.06.03 18:57:09.
