data_PCOD9505547
_publ_section_title
;
Structure prediction by ZEFSAII (Michael W. Deem and Ramdas Pophale) SiO2 
 PCOD9505547
Probable space group: C C C A
;
_chemical_formula_sum "Si O2"
_cell_formula_units_Z 112
_cell_length_a 19.655158
_cell_length_b 15.525053
_cell_length_c 17.907772
_cell_angle_alpha 90.000000
_cell_angle_beta 90.000000
_cell_angle_gamma 90.000000
_cell_volume 5464.509523
_symmetry_space_group_name_H-M "C C C A"
_symmetry_group_IT_number 68
_space_group.IT_coordinate_system_code '2'
_symmetry_cell_setting 'orthorhombic'
loop_
_space_group_symop_operation_xyz
x,y,z
-x,1/2-y,z
x,1/2-y,1/2-z
-x,y,1/2-z
-x,-y,-z
x,1/2+y,-z
-x,1/2+y,1/2+z
x,-y,1/2+z
1/2+x,1/2+y,z
1/2-x,-y,z
1/2+x,-y,1/2-z
1/2-x,1/2+y,1/2-z
1/2-x,1/2-y,-z
1/2+x,y,-z
1/2-x,y,1/2+z
1/2+x,1/2-y,1/2+z
loop_
_atom_site_type_symbol
_atom_site_label
_atom_site_fract_x
_atom_site_fract_y
_atom_site_fract_z
Si Si1 0.779737 0.909831 0.145276
Si Si2 0.351503 0.147904 0.913977
Si Si3 0.063896 0.512456 0.839068
Si Si4 0.813597 0.934382 0.430108
Si Si5 0.914912 0.019093 0.663866
Si Si6 0.754184 0.164436 0.794778
Si Si7 0.903174 0.799069 0.824992
O O1 0.727326 0.839802 0.113317
O O2 0.769367 0.908377 0.233851
O O3 0.750000 0.000000 0.115406
O O4 0.860404 0.911134 0.133916
O O5 0.384921 0.072079 0.864301
O O6 0.393703 0.233056 0.893569
O O7 0.342988 0.112862 0.997071
O O8 0.125550 0.487428 0.892181
O O9 0.081329 0.484967 0.753971
O O10 0.054137 0.615669 0.839696
O O11 0.992263 0.470315 0.861993
O O12 0.789329 0.862272 0.371083
O O13 0.750000 0.000000 0.443644
O O14 0.777887 0.250000 0.750000
O O15 0.673617 0.169708 0.806578
O O16 0.925342 0.750000 0.750000
#
# Coordination Sequence:
#
# PCOD9505547 Si02
#       7
#    16  16  16  16  16  16  16
#     4  10  17  35  61  85 118 157 206 247 298 365
#     4  11  23  38  60  94 128 158 201 257 323 372
#     4  11  22  38  63  93 121 165 213 253 309 376
#     4  12  24  40  62  93 127 165 208 259 308 376
#     4  10  21  37  62  92 120 166 205 255 302 374
#     4  11  20  35  62  91 117 160 202 258 310 357
#     4  11  19  37  63  93 123 158 201 260 323 373
#
# _framework density 20.495892000000001
#
# number of rings (size 3 to 8) (size 9 to 14) (size 15 to 20)
#    0.000    1.143    7.143    2.571    0.000    1.714 
#    0.000    0.000    0.000    3.429    0.000    0.000 
#    0.000    0.000    0.000    0.000    0.000    0.000 
#
# Total GULP energy -312518.506286 kJ/mol
# GULP energy per Si atom -5580.687612 kJ/mol
# Density = 2.044924 g / cm^3
# Si number density = 20.495892 Si / 1000 Ang^3
#
#
#
# Elastic Constant Matrix: (Units=GPa)
#
#
# Indices 1 2 3 4 5 6 
#
# 1 115.2991 11.3047 30.3710 0.0000 0.0000 0.0000
# 2 11.3047 46.4085 18.5907 0.0000 0.0000 0.0000
# 3 30.3710 18.5907 99.7136 0.0000 0.0000 0.0000
# 4 0.0000 0.0000 0.0000 26.7283 0.0000 0.0000
# 5 0.0000 0.0000 0.0000 0.0000 4.0842 0.0000
# 6 0.0000 0.0000 0.0000 0.0000 0.0000 17.2131
#
#
#
# Elastic Compliance Matrix: (Units=1/GPa)
#
#
# Indices 1 2 3 4 5 6 
#
# 1 0.009496 -0.001248 -0.002660 0.000000 0.000000 0.000000
# 2 -0.001248 0.023451 -0.003992 0.000000 0.000000 0.000000
# 3 -0.002660 -0.003992 0.011583 0.000000 0.000000 0.000000
# 4 0.000000 0.000000 0.000000 0.037414 0.000000 0.000000
# 5 0.000000 0.000000 0.000000 0.000000 0.244847 0.000000
# 6 0.000000 0.000000 0.000000 0.000000 0.000000 0.058095
#
#
# Mechanical properties :
#
#
# Convention : Reuss Voigt Hill
#
# Bulk Modulus (GPa) = 34.80570 42.43932 38.62251
# Shear Modulus (GPa) = 12.18733 23.01544 17.60138
#
# Velocity S-wave (km/s) = 2.44113 3.35465 2.93367
# Velocity P-wave (km/s) = 4.99642 5.97964 5.51000
#
# Compressibility (1/GPa) = 0.02873093
#
# Stress axis : x y z
#
# Youngs Moduli (GPa) = 105.30730 42.64220 86.33247
#
# Poissons Ratio (x) = 0.05320 0.22962
# Poissons Ratio (y) = 0.13139 0.34465
# Poissons Ratio (z) = 0.28009 0.17024
#
# Static dielectric constant tensor:
#      x y z
#    x 1.758730 0.000000 0.000000 
#    y 0.000000 1.801510 0.000000 
#    z 0.000000 0.000000 1.732900 
# 
# From -- ./inp_files/33129.got.cif
#   From: 2010.05.17/outbox.cif.g08.bks.cpg/sg68_17_cif.got.tgz:33129.got - 2010.06.03 18:57:09.
