data_PCOD9505671
_publ_section_title
;
Structure prediction by ZEFSAII (Michael W. Deem and Ramdas Pophale) SiO2 
 PCOD9505671
Probable space group: C C C A
;
_chemical_formula_sum "Si O2"
_cell_formula_units_Z 88
_cell_length_a 12.430589
_cell_length_b 17.649610
_cell_length_c 22.675321
_cell_angle_alpha 90.000000
_cell_angle_beta 90.000000
_cell_angle_gamma 90.000000
_cell_volume 4974.853137
_symmetry_space_group_name_H-M "C C C A"
_symmetry_group_IT_number 68
_space_group.IT_coordinate_system_code '2'
_symmetry_cell_setting 'orthorhombic'
loop_
_space_group_symop_operation_xyz
x,y,z
-x,1/2-y,z
x,1/2-y,1/2-z
-x,y,1/2-z
-x,-y,-z
x,1/2+y,-z
-x,1/2+y,1/2+z
x,-y,1/2+z
1/2+x,1/2+y,z
1/2-x,-y,z
1/2+x,-y,1/2-z
1/2-x,1/2+y,1/2-z
1/2-x,1/2-y,-z
1/2+x,y,-z
1/2-x,y,1/2+z
1/2+x,1/2-y,1/2+z
loop_
_atom_site_type_symbol
_atom_site_label
_atom_site_fract_x
_atom_site_fract_y
_atom_site_fract_z
Si Si1 0.784434 0.136531 0.388358
Si Si2 0.998424 0.953010 0.913489
Si Si3 0.910071 0.567195 0.793044
Si Si4 0.345524 0.938044 0.516206
Si Si5 0.373921 0.730000 0.181905
Si Si6 0.750000 0.500000 0.702389
O O1 0.708557 0.128373 0.445439
O O2 0.799302 0.217698 0.358694
O O3 0.904456 0.108712 0.405590
O O4 0.745216 0.073220 0.340384
O O5 0.039585 0.974620 0.848762
O O6 0.095000 0.923477 0.954649
O O7 0.938446 0.023088 0.944226
O O8 0.852652 0.640224 0.821293
O O9 0.846165 0.514701 0.748155
O O10 0.000000 0.602874 0.750000
O O11 0.250000 0.000000 0.508209
O O12 0.500000 0.750000 0.168871
O O13 0.353776 0.750000 0.250000
#
# Coordination Sequence:
#
# PCOD9505671 Si02
#       6
#    16  16  16  16  16   8
#     4  11  18  34  53  76 108 138 177 217 267 312
#     4  10  18  32  51  73 108 136 176 216 266 305
#     4  12  20  32  52  82 110 131 172 220 270 316
#     4   9  19  33  50  74 104 144 180 217 257 315
#     4  11  17  30  52  77 105 138 167 212 266 317
#     4  12  20  30  50  82 110 128 174 224 264 318
#
# _framework density 17.688965
#
# number of rings (size 3 to 8) (size 9 to 14) (size 15 to 20)
#    0.000    1.273   10.000    0.000    1.273    0.000 
#    0.000    0.909    0.000    0.000    0.000    7.636 
#    0.000    0.000    0.000    0.000    0.000    0.000 
#
# Total GULP energy -245060.681516 kJ/mol
# GULP energy per Si atom -5569.560944 kJ/mol
# Density = 1.764870 g / cm^3
# Si number density = 17.688965 Si / 1000 Ang^3
#
#
#
# Elastic Constant Matrix: (Units=GPa)
#
#
# Indices 1 2 3 4 5 6 
#
# 1 67.4163 22.0889 52.0091 0.0000 0.0000 0.0000
# 2 22.0889 47.0071 25.2876 0.0000 0.0000 0.0000
# 3 52.0091 25.2876 118.8242 0.0000 0.0000 0.0000
# 4 0.0000 0.0000 0.0000 13.7883 0.0000 0.0000
# 5 0.0000 0.0000 0.0000 0.0000 44.7044 0.0000
# 6 0.0000 0.0000 0.0000 0.0000 0.0000 14.9063
#
#
#
# Elastic Compliance Matrix: (Units=1/GPa)
#
#
# Indices 1 2 3 4 5 6 
#
# 1 0.023961 -0.006344 -0.009138 0.000000 0.000000 0.000000
# 2 -0.006344 0.025703 -0.002693 0.000000 0.000000 0.000000
# 3 -0.009138 -0.002693 0.012989 0.000000 0.000000 0.000000
# 4 0.000000 0.000000 0.000000 0.072525 0.000000 0.000000
# 5 0.000000 0.000000 0.000000 0.000000 0.022369 0.000000
# 6 0.000000 0.000000 0.000000 0.000000 0.000000 0.067086
#
#
# Mechanical properties :
#
#
# Convention : Reuss Voigt Hill
#
# Bulk Modulus (GPa) = 38.01820 48.00210 43.01015
# Shear Modulus (GPa) = 18.53564 23.60394 21.06979
#
# Velocity S-wave (km/s) = 3.24059 3.65689 3.45501
# Velocity P-wave (km/s) = 5.96164 6.71015 6.34694
#
# Compressibility (1/GPa) = 0.02630319
#
# Stress axis : x y z
#
# Youngs Moduli (GPa) = 41.73426 38.90552 76.99102
#
# Poissons Ratio (x) = 0.24681 0.70352
# Poissons Ratio (y) = 0.26476 0.20737
# Poissons Ratio (z) = 0.38135 0.10479
#
# Static dielectric constant tensor:
#      x y z
#    x 1.676030 0.000000 0.000000 
#    y 0.000000 1.649640 0.000000 
#    z 0.000000 0.000000 1.623620 
# 
# From -- ./inp_files/50176.got.cif
#   From: 2010.05.17/outbox.cif.g08.bks.cpg/sg68_26_cif.got.tgz:50176.got - 2010.06.03 18:57:09.
