data_PCOD9505904
_publ_section_title
;
Structure prediction by ZEFSAII (Michael W. Deem and Ramdas Pophale) SiO2 
 PCOD9505904
Probable space group: C C C A
;
_chemical_formula_sum "Si O2"
_cell_formula_units_Z 128
_cell_length_a 11.956273
_cell_length_b 24.523113
_cell_length_c 25.336029
_cell_angle_alpha 90.000000
_cell_angle_beta 90.000000
_cell_angle_gamma 90.000000
_cell_volume 7428.651240
_symmetry_space_group_name_H-M "C C C A"
_symmetry_group_IT_number 68
_space_group.IT_coordinate_system_code '2'
_symmetry_cell_setting 'orthorhombic'
loop_
_space_group_symop_operation_xyz
x,y,z
-x,1/2-y,z
x,1/2-y,1/2-z
-x,y,1/2-z
-x,-y,-z
x,1/2+y,-z
-x,1/2+y,1/2+z
x,-y,1/2+z
1/2+x,1/2+y,z
1/2-x,-y,z
1/2+x,-y,1/2-z
1/2-x,1/2+y,1/2-z
1/2-x,1/2-y,-z
1/2+x,y,-z
1/2-x,y,1/2+z
1/2+x,1/2-y,1/2+z
loop_
_atom_site_type_symbol
_atom_site_label
_atom_site_fract_x
_atom_site_fract_y
_atom_site_fract_z
Si Si1 0.778292 0.437942 0.358446
Si Si2 0.957621 0.912416 0.190282
Si Si3 0.025249 0.563059 0.992981
Si Si4 0.338089 0.861780 0.543205
Si Si5 0.699109 0.862931 0.553216
Si Si6 0.014313 0.032635 0.187071
Si Si7 0.315090 0.442532 0.894946
Si Si8 0.488246 0.809784 0.883900
O O1 0.750000 0.500000 0.376467
O O2 0.676119 0.421885 0.318630
O O3 0.776488 0.394367 0.405288
O O4 0.901007 0.440172 0.334014
O O5 0.992149 0.859811 0.156926
O O6 0.000000 0.906153 0.250000
O O7 0.012207 0.968840 0.169527
O O8 0.117138 0.588810 0.032375
O O9 0.915775 0.596832 0.009269
O O10 0.080736 0.565739 0.935231
O O11 0.000000 0.500000 0.000000
O O12 0.255773 0.838944 0.498742
O O13 0.270879 0.895812 0.587408
O O14 0.415499 0.819086 0.572814
O O15 0.627228 0.818991 0.584816
O O16 0.127115 0.057692 0.162583
O O17 0.000000 0.033088 0.250000
O O18 0.250000 0.500000 0.902924
O O19 0.500000 0.750000 0.860048
#
# Coordination Sequence:
#
# PCOD9505904 Si02
#       8
#    16  16  16  16  16  16  16  16
#     4   9  18  30  49  72 104 139 165 196 241 303
#     4   9  19  35  53  74  99 126 169 214 253 300
#     4  10  19  28  46  74 106 134 165 197 243 297
#     4  10  20  33  48  75 105 132 169 206 245 302
#     4   9  20  31  48  74  99 135 166 196 245 297
#     4  10  21  33  48  73 106 142 168 195 248 310
#     4  11  20  29  48  72 104 141 170 204 244 303
#     4  10  21  37  53  71  96 127 170 220 258 290
#
# _framework density 17.230585000000001
#
# number of rings (size 3 to 8) (size 9 to 14) (size 15 to 20)
#    0.000    2.250    1.250    1.500    7.000    4.250 
#    0.000    0.000    0.000    0.000    0.000    0.000 
#    0.000    4.000    0.000    0.000    0.000    0.000 
#
# Total GULP energy -356605.755467 kJ/mol
# GULP energy per Si atom -5571.964929 kJ/mol
# Density = 1.719137 g / cm^3
# Si number density = 17.230585 Si / 1000 Ang^3
#
#
#
# Elastic Constant Matrix: (Units=GPa)
#
#
# Indices 1 2 3 4 5 6 
#
# 1 63.6563 20.1368 33.3608 0.0000 0.0000 0.0000
# 2 20.1368 54.3635 29.1912 0.0000 0.0000 0.0000
# 3 33.3608 29.1912 68.2323 0.0000 0.0000 0.0000
# 4 0.0000 0.0000 0.0000 11.6928 0.0000 0.0000
# 5 0.0000 0.0000 0.0000 0.0000 27.7659 0.0000
# 6 0.0000 0.0000 0.0000 0.0000 0.0000 5.7602
#
#
#
# Elastic Compliance Matrix: (Units=1/GPa)
#
#
# Indices 1 2 3 4 5 6 
#
# 1 0.021494 -0.003010 -0.009221 0.000000 0.000000 0.000000
# 2 -0.003010 0.024302 -0.008925 0.000000 0.000000 0.000000
# 3 -0.009221 -0.008925 0.022983 0.000000 0.000000 0.000000
# 4 0.000000 0.000000 0.000000 0.085523 0.000000 0.000000
# 5 0.000000 0.000000 0.000000 0.000000 0.036015 0.000000
# 6 0.000000 0.000000 0.000000 0.000000 0.000000 0.173604
#
#
# Mechanical properties :
#
#
# Convention : Reuss Voigt Hill
#
# Bulk Modulus (GPa) = 37.78467 39.06996 38.42732
# Shear Modulus (GPa) = 12.04655 15.94802 13.99729
#
# Velocity S-wave (km/s) = 2.64699 3.04561 2.85327
# Velocity P-wave (km/s) = 5.59629 5.92382 5.76239
#
# Compressibility (1/GPa) = 0.02646576
#
# Stress axis : x y z
#
# Youngs Moduli (GPa) = 46.52392 41.14853 43.51079
#
# Poissons Ratio (x) = 0.12387 0.40123
# Poissons Ratio (y) = 0.14005 0.38834
# Poissons Ratio (z) = 0.42901 0.36726
#
# Static dielectric constant tensor:
#      x y z
#    x 1.638840 0.000000 0.000000 
#    y 0.000000 1.551540 0.000000 
#    z 0.000000 0.000000 1.610780 
# 
# From -- ./inp_files/47368.got.cif
#   From: 2010.05.17/outbox.cif.g08.bks.cpg/sg68_24_cif.got.tgz:47368.got - 2010.06.03 18:57:09.
