data_PCOD9505735
_publ_section_title
;
Structure prediction by ZEFSAII (Michael W. Deem and Ramdas Pophale) SiO2 
 PCOD9505735
Probable space group: C C C A
;
_chemical_formula_sum "Si O2"
_cell_formula_units_Z 104
_cell_length_a 20.149300
_cell_length_b 27.278524
_cell_length_c 7.874922
_cell_angle_alpha 90.000000
_cell_angle_beta 90.000000
_cell_angle_gamma 90.000000
_cell_volume 4328.397041
_symmetry_space_group_name_H-M "C C C A"
_symmetry_group_IT_number 68
_space_group.IT_coordinate_system_code '2'
_symmetry_cell_setting 'orthorhombic'
loop_
_space_group_symop_operation_xyz
x,y,z
-x,1/2-y,z
x,1/2-y,1/2-z
-x,y,1/2-z
-x,-y,-z
x,1/2+y,-z
-x,1/2+y,1/2+z
x,-y,1/2+z
1/2+x,1/2+y,z
1/2-x,-y,z
1/2+x,-y,1/2-z
1/2-x,1/2+y,1/2-z
1/2-x,1/2-y,-z
1/2+x,y,-z
1/2-x,y,1/2+z
1/2+x,1/2-y,1/2+z
loop_
_atom_site_type_symbol
_atom_site_label
_atom_site_fract_x
_atom_site_fract_y
_atom_site_fract_z
Si Si1 0.694729 0.460010 0.801170
Si Si2 0.627114 0.340328 0.981950
Si Si3 0.739775 0.391451 0.521470
Si Si4 0.442088 0.941320 0.389424
Si Si5 0.605806 0.137718 0.135984
Si Si6 0.578744 0.742049 0.948579
Si Si7 0.000000 0.563921 0.250000
O O1 0.750000 0.500000 0.762398
O O2 0.702617 0.410829 0.687694
O O3 0.715567 0.438633 0.982216
O O4 0.618819 0.474832 0.820342
O O5 0.597981 0.345144 0.171098
O O6 0.611738 0.284164 0.935845
O O7 0.706232 0.348616 0.006896
O O8 0.588592 0.385465 0.891998
O O9 0.679509 0.382092 0.393450
O O10 0.500000 0.943622 0.250000
O O11 0.459838 0.956685 0.584290
O O12 0.594503 0.184933 0.017074
O O13 0.551647 0.095463 0.134485
O O14 0.500000 0.750000 0.957155
O O15 0.599854 0.750000 0.750000
#
# Coordination Sequence:
#
# PCOD9505735 Si02
#       7
#    16  16  16  16  16  16   8
#     4  11  24  42  68  96 127 167 217 274 338 409
#     4   9  19  34  57  93 131 172 222 268 318 392
#     4  11  21  39  63  91 125 169 216 267 335 399
#     4  10  21  40  70 100 134 172 217 276 338 397
#     4  10  18  33  61  91 128 174 217 267 322 390
#     4   9  16  29  53  87 125 171 226 265 315 381
#     4  10  20  38  67 100 128 174 218 268 330 396
#
# _framework density 24.027370999999999
#
# number of rings (size 3 to 8) (size 9 to 14) (size 15 to 20)
#    0.000    2.000    1.538    4.154    0.000    0.615 
#    0.000    0.000    1.692   18.923    0.000    0.000 
#    0.000    0.000    0.000    0.000    0.000    0.000 
#
# Total GULP energy -289600.440436 kJ/mol
# GULP energy per Si atom -5569.239239 kJ/mol
# Density = 2.397268 g / cm^3
# Si number density = 24.027371 Si / 1000 Ang^3
#
#
#
# Elastic Constant Matrix: (Units=GPa)
#
#
# Indices 1 2 3 4 5 6 
#
# 1 121.9432 56.3401 39.1088 0.0000 0.0000 0.0000
# 2 56.3401 92.8992 30.4321 0.0000 0.0000 0.0000
# 3 39.1088 30.4321 76.3838 0.0000 0.0000 0.0000
# 4 0.0000 0.0000 0.0000 25.0788 0.0000 0.0000
# 5 0.0000 0.0000 0.0000 0.0000 21.4090 0.0000
# 6 0.0000 0.0000 0.0000 0.0000 0.0000 6.1839
#
#
#
# Elastic Compliance Matrix: (Units=1/GPa)
#
#
# Indices 1 2 3 4 5 6 
#
# 1 0.012292 -0.006203 -0.003822 0.000000 0.000000 0.000000
# 2 -0.006203 0.015510 -0.003004 0.000000 0.000000 0.000000
# 3 -0.003822 -0.003004 0.016246 0.000000 0.000000 0.000000
# 4 0.000000 0.000000 0.000000 0.039874 0.000000 0.000000
# 5 0.000000 0.000000 0.000000 0.000000 0.046709 0.000000
# 6 0.000000 0.000000 0.000000 0.000000 0.000000 0.161711
#
#
# Mechanical properties :
#
#
# Convention : Reuss Voigt Hill
#
# Bulk Modulus (GPa) = 55.58520 60.33203 57.95861
# Shear Modulus (GPa) = 15.41326 21.55736 18.48531
#
# Velocity S-wave (km/s) = 2.53551 2.99858 2.77671
# Velocity P-wave (km/s) = 5.63525 6.09531 5.86979
#
# Compressibility (1/GPa) = 0.01799040
#
# Stress axis : x y z
#
# Youngs Moduli (GPa) = 81.35262 64.47477 61.55538
#
# Poissons Ratio (x) = 0.39991 0.23529
# Poissons Ratio (y) = 0.50460 0.18489
# Poissons Ratio (z) = 0.31097 0.19365
#
# Static dielectric constant tensor:
#      x y z
#    x 1.952920 0.000000 0.000000 
#    y 0.000000 2.091400 0.000000 
#    z 0.000000 0.000000 2.028850 
# 
# From -- ./inp_files/7371.got.cif
#   From: 2010.05.17/outbox.cif.g08.bks.cpg/sg68_4_cif.got.tgz:7371.got - 2010.06.03 18:57:09.
