data_PCOD9505925
_publ_section_title
;
Structure prediction by ZEFSAII (Michael W. Deem and Ramdas Pophale) SiO2 
 PCOD9505925
Probable space group: C C C A
;
_chemical_formula_sum "Si O2"
_cell_formula_units_Z 80
_cell_length_a 23.205535
_cell_length_b 13.643618
_cell_length_c 10.435470
_cell_angle_alpha 90.000000
_cell_angle_beta 90.000000
_cell_angle_gamma 90.000000
_cell_volume 3303.947599
_symmetry_space_group_name_H-M "C C C A"
_symmetry_group_IT_number 68
_space_group.IT_coordinate_system_code '2'
_symmetry_cell_setting 'orthorhombic'
loop_
_space_group_symop_operation_xyz
x,y,z
-x,1/2-y,z
x,1/2-y,1/2-z
-x,y,1/2-z
-x,-y,-z
x,1/2+y,-z
-x,1/2+y,1/2+z
x,-y,1/2+z
1/2+x,1/2+y,z
1/2-x,-y,z
1/2+x,-y,1/2-z
1/2-x,1/2+y,1/2-z
1/2-x,1/2-y,-z
1/2+x,y,-z
1/2-x,y,1/2+z
1/2+x,1/2-y,1/2+z
loop_
_atom_site_type_symbol
_atom_site_label
_atom_site_fract_x
_atom_site_fract_y
_atom_site_fract_z
Si Si1 0.953193 0.105780 0.076460
Si Si2 0.665020 0.807771 0.049082
Si Si3 0.213341 0.833624 0.352674
Si Si4 0.566138 0.045894 0.851776
Si Si5 0.815587 0.521917 0.155871
O O1 0.943299 0.034116 0.199240
O O2 0.021088 0.128061 0.098161
O O3 0.901427 0.184109 0.091256
O O4 0.947892 0.047633 0.942368
O O5 0.687549 0.707733 0.983965
O O6 0.668355 0.890593 0.939699
O O7 0.717028 0.837768 0.143827
O O8 0.198859 0.750000 0.250000
O O9 0.186682 0.933517 0.299768
O O10 0.634755 0.057701 0.860005
O O11 0.750000 0.500000 0.122359
#
# Coordination Sequence:
#
# PCOD9505925 Si02
#       5
#    16  16  16  16  16
#     4   9  17  32  51  77 108 144 187 233 288 343
#     4   9  18  32  50  74 109 151 189 232 292 357
#     4   9  18  32  49  75 111 149 187 233 291 358
#     4   9  18  30  49  79 110 141 182 237 287 335
#     4  10  19  30  49  81 113 144 188 241 293 345
#
# _framework density 24.213457999999999
#
# number of rings (size 3 to 8) (size 9 to 14) (size 15 to 20)
#    0.000    2.800    0.000    1.200    0.000    4.000 
#    0.000    2.000    0.000    0.000    0.000  211.400 
#    0.000    0.000    0.000    0.000    0.000    0.000 
#
# Total GULP energy -222864.330102 kJ/mol
# GULP energy per Si atom -5571.608253 kJ/mol
# Density = 2.415835 g / cm^3
# Si number density = 24.213458 Si / 1000 Ang^3
#
#
#
# Elastic Constant Matrix: (Units=GPa)
#
#
# Indices 1 2 3 4 5 6 
#
# 1 249.6654 62.0546 17.1550 0.0000 0.0000 0.0000
# 2 62.0546 45.1131 22.0707 0.0000 0.0000 0.0000
# 3 17.1550 22.0707 82.0128 0.0000 0.0000 0.0000
# 4 0.0000 0.0000 0.0000 17.5949 0.0000 0.0000
# 5 0.0000 0.0000 0.0000 0.0000 12.7787 0.0000
# 6 0.0000 0.0000 0.0000 0.0000 0.0000 39.5264
#
#
#
# Elastic Compliance Matrix: (Units=1/GPa)
#
#
# Indices 1 2 3 4 5 6 
#
# 1 0.006178 -0.009059 0.001146 0.000000 0.000000 0.000000
# 2 -0.009059 0.038810 -0.008549 0.000000 0.000000 0.000000
# 3 0.001146 -0.008549 0.014254 0.000000 0.000000 0.000000
# 4 0.000000 0.000000 0.000000 0.056835 0.000000 0.000000
# 5 0.000000 0.000000 0.000000 0.000000 0.078255 0.000000
# 6 0.000000 0.000000 0.000000 0.000000 0.000000 0.025300
#
#
# Mechanical properties :
#
#
# Convention : Reuss Voigt Hill
#
# Bulk Modulus (GPa) = 37.99810 64.37244 51.18527
# Shear Modulus (GPa) = 19.13297 32.34742 25.74019
#
# Velocity S-wave (km/s) = 2.81406 3.65900 3.26399
# Velocity P-wave (km/s) = 5.12695 6.67039 5.94894
#
# Compressibility (1/GPa) = 0.02631711
#
# Stress axis : x y z
#
# Youngs Moduli (GPa) = 161.85907 25.76673 70.15409
#
# Poissons Ratio (x) = 0.23341 -0.08036
# Poissons Ratio (y) = 1.46624 0.59977
# Poissons Ratio (z) = -0.18541 0.22029
#
# Static dielectric constant tensor:
#      x y z
#    x 2.049120 0.000000 0.000000 
#    y 0.000000 1.974090 0.000000 
#    z 0.000000 0.000000 1.970190 
# 
# From -- ./inp_files/16235.got.cif
#   From: 2010.05.17/outbox.cif.g08.bks.cpg/sg68_9_cif.got.tgz:16235.got - 2010.06.03 18:57:09.
