data_PCOD9505045
_publ_section_title
;
Structure prediction by ZEFSAII (Michael W. Deem and Ramdas Pophale) SiO2 
 PCOD9505045
Probable space group: C M M A
;
_chemical_formula_sum "Si O2"
_cell_formula_units_Z 56
_cell_length_a 8.265792
_cell_length_b 27.326767
_cell_length_c 11.208148
_cell_angle_alpha 90.000000
_cell_angle_beta 90.000000
_cell_angle_gamma 90.000000
_cell_volume 2531.667016
_symmetry_space_group_name_H-M "C M M A"
_symmetry_group_IT_number 67
_symmetry_cell_setting 'orthorhombic'
loop_
_space_group_symop_operation_xyz
x,y,z
-x,1/2-y,z
x,-y,-z
-x,1/2+y,-z
-x,-y,-z
x,1/2+y,-z
-x,y,z
x,1/2-y,z
1/2+x,1/2+y,z
1/2-x,-y,z
1/2+x,1/2-y,-z
1/2-x,y,-z
1/2-x,1/2-y,-z
1/2+x,y,-z
1/2-x,1/2+y,z
1/2+x,-y,z
loop_
_atom_site_type_symbol
_atom_site_label
_atom_site_fract_x
_atom_site_fract_y
_atom_site_fract_z
Si Si1 0.000000 0.806312 0.539788
Si Si2 0.817694 0.053981 0.722308
Si Si3 0.750000 0.119299 0.500000
Si Si4 0.810384 0.139967 0.136295
Si Si5 0.500000 0.694049 0.750178
O O1 0.145025 0.841647 0.573919
O O2 0.000000 0.806242 0.394694
O O3 0.000000 0.750000 0.580057
O O4 0.825036 0.083570 0.597515
O O5 0.704869 0.085618 0.808817
O O6 0.000000 0.052163 0.771188
O O7 0.750000 0.000000 0.702620
O O8 0.665146 0.169591 0.202516
O O9 0.000000 0.156552 0.145097
O O10 0.750000 0.139862 0.000000
O O11 0.500000 0.750000 0.789799
#
# Coordination Sequence:
#
# PCOD9505045 Si02
#       5
#     8  16   8  16   8
#     4  11  24  42  67  98 140 183 226 277 341 413
#     4  12  26  44  68 101 136 180 234 287 350 416
#     4  12  22  42  68  94 142 172 222 284 336 402
#     4  12  24  46  72 100 143 181 229 287 346 411
#     4  11  24  48  70 100 144 184 232 289 341 412
#
# _framework density 22.119813000000001
#
# number of rings (size 3 to 8) (size 9 to 14) (size 15 to 20)
#    0.000    0.286    7.143    1.714    4.000    2.857 
#    0.000    2.857    0.000    0.000    0.000    0.000 
#    0.000    0.000    0.000    0.000    0.000    0.000 
#
# Total GULP energy -156301.300207 kJ/mol
# GULP energy per Si atom -5582.189293 kJ/mol
# Density = 2.206947 g / cm^3
# Si number density = 22.119813 Si / 1000 Ang^3
#
#
#
# Elastic Constant Matrix: (Units=GPa)
#
#
# Indices 1 2 3 4 5 6 
#
# 1 186.2844 66.9281 32.8826 0.0000 0.0000 0.0000
# 2 66.9281 185.6471 23.9505 0.0000 0.0000 0.0000
# 3 32.8826 23.9505 88.1673 0.0000 0.0000 0.0000
# 4 0.0000 0.0000 0.0000 17.2119 0.0000 0.0000
# 5 0.0000 0.0000 0.0000 0.0000 36.2013 0.0000
# 6 0.0000 0.0000 0.0000 0.0000 0.0000 21.9288
#
#
#
# Elastic Compliance Matrix: (Units=1/GPa)
#
#
# Indices 1 2 3 4 5 6 
#
# 1 0.006441 -0.002085 -0.001836 0.000000 0.000000 0.000000
# 2 -0.002085 0.006257 -0.000922 0.000000 0.000000 0.000000
# 3 -0.001836 -0.000922 0.012277 0.000000 0.000000 0.000000
# 4 0.000000 0.000000 0.000000 0.058099 0.000000 0.000000
# 5 0.000000 0.000000 0.000000 0.000000 0.027623 0.000000
# 6 0.000000 0.000000 0.000000 0.000000 0.000000 0.045602
#
#
# Mechanical properties :
#
#
# Convention : Reuss Voigt Hill
#
# Bulk Modulus (GPa) = 65.40475 78.62457 72.01466
# Shear Modulus (GPa) = 29.22542 37.49089 33.35815
#
# Velocity S-wave (km/s) = 3.63882 4.12138 3.88760
# Velocity P-wave (km/s) = 6.87657 7.63346 7.26488
#
# Compressibility (1/GPa) = 0.01528941
#
# Stress axis : x y z
#
# Youngs Moduli (GPa) = 155.24496 159.81286 81.45146
#
# Poissons Ratio (x) = 0.33327 0.14954
# Poissons Ratio (y) = 0.32374 0.07510
# Poissons Ratio (z) = 0.28501 0.14735
#
# Static dielectric constant tensor:
#      x y z
#    x 1.712270 0.000000 0.000000 
#    y 0.000000 1.779780 0.000000 
#    z 0.000000 0.000000 1.812310 
# 
# From -- ./inp_files/15574.got.cif
#   From: 2010.05.17/outbox.cif.g08.bks.cpg/sg67_8_cif.got.tgz:15574.got - 2010.06.03 18:28:57.
