data_PCOD9505424
_publ_section_title
;
Structure prediction by ZEFSAII (Michael W. Deem and Ramdas Pophale) SiO2 
 PCOD9505424
Probable space group: C C C A
;
_chemical_formula_sum "Si O2"
_cell_formula_units_Z 72
_cell_length_a 12.831125
_cell_length_b 31.913533
_cell_length_c 8.881262
_cell_angle_alpha 90.000000
_cell_angle_beta 90.000000
_cell_angle_gamma 90.000000
_cell_volume 3636.757168
_symmetry_space_group_name_H-M "C C C A"
_symmetry_group_IT_number 68
_space_group.IT_coordinate_system_code '2'
_symmetry_cell_setting 'orthorhombic'
loop_
_space_group_symop_operation_xyz
x,y,z
-x,1/2-y,z
x,1/2-y,1/2-z
-x,y,1/2-z
-x,-y,-z
x,1/2+y,-z
-x,1/2+y,1/2+z
x,-y,1/2+z
1/2+x,1/2+y,z
1/2-x,-y,z
1/2+x,-y,1/2-z
1/2-x,1/2+y,1/2-z
1/2-x,1/2-y,-z
1/2+x,y,-z
1/2-x,y,1/2+z
1/2+x,1/2-y,1/2+z
loop_
_atom_site_type_symbol
_atom_site_label
_atom_site_fract_x
_atom_site_fract_y
_atom_site_fract_z
Si Si1 0.905187 0.030928 0.053803
Si Si2 0.500000 0.250000 0.750000
Si Si3 0.500000 0.750000 0.750000
Si Si4 0.859050 0.177544 0.285771
Si Si5 0.500000 0.101723 0.750000
Si Si6 0.250000 0.500000 0.313037
Si Si7 0.175084 0.289338 0.956489
O O1 0.957955 0.073480 0.112901
O O2 0.840011 0.016941 0.202175
O O3 0.816099 0.030845 0.923637
O O4 0.000000 0.000000 0.000000
O O5 0.572203 0.282369 0.658641
O O6 0.577152 0.776002 0.857230
O O7 0.746871 0.180855 0.356344
O O8 0.912698 0.133519 0.311291
O O9 0.854103 0.187286 0.108882
O O10 0.250000 0.250000 0.000000
#
# Coordination Sequence:
#
# PCOD9505424 Si02
#       7
#    16   4   4  16   8   8  16
#     4  11  21  45  70 104 137 185 234 285 361 439
#     4  10  16  36  60  84 118 186 210 262 342 400
#     4  12  24  36  78  96 126 182 272 274 350 434
#     4  11  24  39  64  95 139 177 232 292 345 411
#     4  11  26  41  68 103 144 182 230 302 358 413
#     4  10  22  38  82 100 128 182 242 284 344 454
#     4  12  22  42  65  97 131 188 241 283 345 427
#
# _framework density 19.797858000000002
#
# number of rings (size 3 to 8) (size 9 to 14) (size 15 to 20)
#    0.000    0.889    6.667    0.667    3.111    1.778 
#    0.000    0.000    9.778    0.000    0.000    0.000 
#    0.000    0.000    0.000    0.000    0.000    0.000 
#
# Total GULP energy -200726.132944 kJ/mol
# GULP energy per Si atom -5575.725915 kJ/mol
# Density = 1.975280 g / cm^3
# Si number density = 19.797858 Si / 1000 Ang^3
#
#
#
# Elastic Constant Matrix: (Units=GPa)
#
#
# Indices 1 2 3 4 5 6 
#
# 1 163.9806 69.5992 72.0192 0.0000 0.0000 0.0000
# 2 69.5992 126.0766 48.3924 0.0000 0.0000 0.0000
# 3 72.0192 48.3924 133.5687 0.0000 0.0000 0.0000
# 4 0.0000 0.0000 0.0000 22.5973 0.0000 0.0000
# 5 0.0000 0.0000 0.0000 0.0000 57.3423 0.0000
# 6 0.0000 0.0000 0.0000 0.0000 0.0000 42.8795
#
#
#
# Elastic Compliance Matrix: (Units=1/GPa)
#
#
# Indices 1 2 3 4 5 6 
#
# 1 0.009284 -0.003721 -0.003658 0.000000 0.000000 0.000000
# 2 -0.003721 0.010704 -0.001872 0.000000 0.000000 0.000000
# 3 -0.003658 -0.001872 0.010137 0.000000 0.000000 0.000000
# 4 0.000000 0.000000 0.000000 0.044253 0.000000 0.000000
# 5 0.000000 0.000000 0.000000 0.000000 0.017439 0.000000
# 6 0.000000 0.000000 0.000000 0.000000 0.000000 0.023321
#
#
# Mechanical properties :
#
#
# Convention : Reuss Voigt Hill
#
# Bulk Modulus (GPa) = 86.02732 89.29416 87.66074
# Shear Modulus (GPa) = 36.35956 40.13815 38.24885
#
# Velocity S-wave (km/s) = 4.29014 4.50755 4.40019
# Velocity P-wave (km/s) = 8.25152 8.50244 8.37792
#
# Compressibility (1/GPa) = 0.01162421
#
# Stress axis : x y z
#
# Youngs Moduli (GPa) = 107.71022 93.41929 98.64707
#
# Poissons Ratio (x) = 0.34764 0.36082
# Poissons Ratio (y) = 0.40082 0.18465
# Poissons Ratio (z) = 0.39397 0.17486
#
# Static dielectric constant tensor:
#      x y z
#    x 1.777900 0.000000 0.000000 
#    y 0.000000 1.716520 0.000000 
#    z 0.000000 0.000000 1.734780 
# 
# From -- ./inp_files/5339.got.cif
#   From: 2010.05.17/outbox.cif.g08.bks.cpg/sg68_3_cif.got.tgz:5339.got - 2010.06.03 18:57:09.
