data_PCOD9505536
_publ_section_title
;
Structure prediction by ZEFSAII (Michael W. Deem and Ramdas Pophale) SiO2 
 PCOD9505536
Probable space group: C C C A
;
_chemical_formula_sum "Si O2"
_cell_formula_units_Z 68
_cell_length_a 17.027281
_cell_length_b 5.791136
_cell_length_c 31.437912
_cell_angle_alpha 90.000000
_cell_angle_beta 90.000000
_cell_angle_gamma 90.000000
_cell_volume 3100.007619
_symmetry_space_group_name_H-M "C C C A"
_symmetry_group_IT_number 68
_space_group.IT_coordinate_system_code '2'
_symmetry_cell_setting 'orthorhombic'
loop_
_space_group_symop_operation_xyz
x,y,z
-x,1/2-y,z
x,1/2-y,1/2-z
-x,y,1/2-z
-x,-y,-z
x,1/2+y,-z
-x,1/2+y,1/2+z
x,-y,1/2+z
1/2+x,1/2+y,z
1/2-x,-y,z
1/2+x,-y,1/2-z
1/2-x,1/2+y,1/2-z
1/2-x,1/2-y,-z
1/2+x,y,-z
1/2-x,y,1/2+z
1/2+x,1/2-y,1/2+z
loop_
_atom_site_type_symbol
_atom_site_label
_atom_site_fract_x
_atom_site_fract_y
_atom_site_fract_z
Si Si1 0.334342 0.611695 0.099345
Si Si2 0.750000 0.500000 0.549252
Si Si3 0.206002 0.750000 0.750000
Si Si4 0.579672 0.891988 0.186926
Si Si5 0.103719 0.591826 0.509329
Si Si6 0.000000 0.750000 0.250000
O O1 0.250000 0.500000 0.107496
O O2 0.306409 0.860557 0.081607
O O3 0.387764 0.565807 0.140023
O O4 0.379417 0.523199 0.057953
O O5 0.813580 0.383760 0.517188
O O6 0.250000 0.500000 0.748519
O O7 0.148461 0.748520 0.790404
O O8 0.500000 0.750000 0.183778
O O9 0.555822 0.100640 0.218642
O O10 0.069445 0.852992 0.509228
#
# Coordination Sequence:
#
# PCOD9505536 Si02
#       6
#    16   8   8  16  16   4
#     4  11  21  36  63 108 133 176 250 301 347 433
#     4  10  18  34  64  98 152 176 226 302 374 416
#     4  12  26  48  79 111 136 174 244 322 372 434
#     4  12  27  47  74  98 146 199 238 298 387 459
#     4  10  17  34  59  96 146 190 220 291 369 419
#     4  12  24  56  72  84 144 218 242 282 390 482
#
# _framework density 21.93543
#
# number of rings (size 3 to 8) (size 9 to 14) (size 15 to 20)
#    0.000    0.941    5.882    2.824    1.647    1.882 
#    0.000    0.000    0.000    5.647    0.000    0.000 
#    0.000    0.000    0.000    0.000    0.000    0.000 
#
# Total GULP energy -189309.997070 kJ/mol
# GULP energy per Si atom -5567.941090 kJ/mol
# Density = 2.188550 g / cm^3
# Si number density = 21.935430 Si / 1000 Ang^3
#
#
#
# Elastic Constant Matrix: (Units=GPa)
#
#
# Indices 1 2 3 4 5 6 
#
# 1 71.6642 42.5298 53.9064 0.0000 0.0000 0.0000
# 2 42.5298 87.0925 56.8350 0.0000 0.0000 0.0000
# 3 53.9064 56.8350 192.9742 0.0000 0.0000 0.0000
# 4 0.0000 0.0000 0.0000 1607.1483 0.0000 0.0000
# 5 0.0000 0.0000 0.0000 0.0000 144.3648 0.0000
# 6 0.0000 0.0000 0.0000 0.0000 0.0000 40.5517
#
#
#
# Elastic Compliance Matrix: (Units=1/GPa)
#
#
# Indices 1 2 3 4 5 6 
#
# 1 0.021502 -0.008146 -0.003607 0.000000 0.000000 0.000000
# 2 -0.008146 0.017300 -0.002820 0.000000 0.000000 0.000000
# 3 -0.003607 -0.002820 0.007020 0.000000 0.000000 0.000000
# 4 0.000000 0.000000 0.000000 0.000622 0.000000 0.000000
# 5 0.000000 0.000000 0.000000 0.000000 0.006927 0.000000
# 6 0.000000 0.000000 0.000000 0.000000 0.000000 0.024660
#
#
# Mechanical properties :
#
#
# Convention : Reuss Voigt Hill
#
# Bulk Modulus (GPa) = 59.96583 73.14148 66.55366
# Shear Modulus (GPa) = 44.35177 371.64361 207.99769
#
# Velocity S-wave (km/s) = 4.50146 13.03050 9.74826
# Velocity P-wave (km/s) = 7.37660 16.11857 12.53441
#
# Compressibility (1/GPa) = 0.01667616
#
# Stress axis : x y z
#
# Youngs Moduli (GPa) = 46.50819 57.80348 142.44672
#
# Poissons Ratio (x) = 0.47086 0.51384
# Poissons Ratio (y) = 0.37885 0.40166
# Poissons Ratio (z) = 0.16777 0.16299
#
# Static dielectric constant tensor:
#      x y z
#    x 1.839160 0.000000 0.000000 
#    y 0.000000 2.063140 0.000000 
#    z 0.000000 0.000000 1.775960 
# 
# From -- ./inp_files/55749.got.cif
#   From: 2010.05.17/outbox.cif.g08.bks.cpg/sg68_28_cif.got.tgz:55749.got - 2010.06.03 18:57:09.
