data_PCOD9505327
_publ_section_title
;
Structure prediction by ZEFSAII (Michael W. Deem and Ramdas Pophale) SiO2 
 PCOD9505327
Probable space group: C C C A
;
_chemical_formula_sum "Si O2"
_cell_formula_units_Z 56
_cell_length_a 33.166013
_cell_length_b 5.455714
_cell_length_c 13.184341
_cell_angle_alpha 90.000000
_cell_angle_beta 90.000000
_cell_angle_gamma 90.000000
_cell_volume 2385.631109
_symmetry_space_group_name_H-M "C C C A"
_symmetry_group_IT_number 68
_space_group.IT_coordinate_system_code '2'
_symmetry_cell_setting 'orthorhombic'
loop_
_space_group_symop_operation_xyz
x,y,z
-x,1/2-y,z
x,1/2-y,1/2-z
-x,y,1/2-z
-x,-y,-z
x,1/2+y,-z
-x,1/2+y,1/2+z
x,-y,1/2+z
1/2+x,1/2+y,z
1/2-x,-y,z
1/2+x,-y,1/2-z
1/2-x,1/2+y,1/2-z
1/2-x,1/2-y,-z
1/2+x,y,-z
1/2-x,y,1/2+z
1/2+x,1/2-y,1/2+z
loop_
_atom_site_type_symbol
_atom_site_label
_atom_site_fract_x
_atom_site_fract_y
_atom_site_fract_z
Si Si1 0.835392 0.873336 0.392464
Si Si2 0.369018 0.367834 0.624622
Si Si3 0.250000 0.000000 0.682961
Si Si4 0.044676 0.727085 0.565985
O O1 0.855161 0.860463 0.504552
O O2 0.847712 0.616966 0.344397
O O3 0.853738 0.108308 0.338147
O O4 0.787869 0.923434 0.386708
O O5 0.417127 0.345319 0.633465
O O6 0.241947 0.750000 0.750000
O O7 0.047645 0.497414 0.486137
O O8 0.000000 0.750000 0.612937
#
# Coordination Sequence:
#
# PCOD9505327 Si02
#       4
#    16  16   8  16
#     4  10  20  33  54  71 101 131 167 219 258 315
#     4  10  17  32  52  83 105 131 166 200 262 314
#     4  12  26  42  52  70  96 134 184 228 272 310
#     4  10  16  25  43  74 118 145 150 182 237 320
#
# _framework density 23.473873999999999
#
# number of rings (size 3 to 8) (size 9 to 14) (size 15 to 20)
#    0.000    1.714    5.714    1.714    0.000    4.571 
#    0.000    0.000    0.000    0.000    0.000    0.000 
#    0.000   27.429    0.000    0.000    0.000    0.000 
#
# Total GULP energy -156025.932253 kJ/mol
# GULP energy per Si atom -5572.354723 kJ/mol
# Density = 2.342045 g / cm^3
# Si number density = 23.473874 Si / 1000 Ang^3
#
#
#
# Elastic Constant Matrix: (Units=GPa)
#
#
# Indices 1 2 3 4 5 6 
#
# 1 218.0855 27.9321 -5.1680 0.0000 0.0000 0.0000
# 2 27.9321 200.2163 23.3443 0.0000 0.0000 0.0000
# 3 -5.1680 23.3443 58.8485 0.0000 0.0000 0.0000
# 4 0.0000 0.0000 0.0000 40.5804 0.0000 0.0000
# 5 0.0000 0.0000 0.0000 0.0000 -40.8381 0.0000
# 6 0.0000 0.0000 0.0000 0.0000 0.0000 54.8874
#
#
#
# Elastic Compliance Matrix: (Units=1/GPa)
#
#
# Indices 1 2 3 4 5 6 
#
# 1 0.004697 -0.000737 0.000705 0.000000 0.000000 0.000000
# 2 -0.000737 0.005353 -0.002188 0.000000 0.000000 0.000000
# 3 0.000705 -0.002188 0.017923 0.000000 0.000000 0.000000
# 4 0.000000 0.000000 0.000000 0.024642 0.000000 0.000000
# 5 0.000000 0.000000 0.000000 0.000000 -0.024487 0.000000
# 6 0.000000 0.000000 0.000000 0.000000 0.000000 0.018219
#
#
# Mechanical properties :
#
#
# Convention : Reuss Voigt Hill
#
# Bulk Modulus (GPa) = 42.49752 63.26301 52.88026
# Shear Modulus (GPa) = 85.27917 39.66206 62.47062
#
# Velocity S-wave (km/s) = 6.03393 4.11497 5.16436
# Velocity P-wave (km/s) = 8.16626 7.04174 7.62476
#
# Compressibility (1/GPa) = 0.02353079
#
# Stress axis : x y z
#
# Youngs Moduli (GPa) = 212.92410 186.82550 55.79526
#
# Poissons Ratio (x) = 0.13777 -0.03933
# Poissons Ratio (y) = 0.15701 0.12208
# Poissons Ratio (z) = -0.15010 0.40878
#
# Static dielectric constant tensor:
#      x y z
#    x 1.920180 0.000000 0.000000 
#    y 0.000000 1.882020 0.000000 
#    z 0.000000 0.000000 1.916840 
# 
# From -- ./inp_files/18358.got.cif
#   From: 2010.05.17/outbox.cif.g08.bks.cpg/sg68_10_cif.got.tgz:18358.got - 2010.06.03 18:57:09.
