data_PCOD9505319
_publ_section_title
;
Structure prediction by ZEFSAII (Michael W. Deem and Ramdas Pophale) SiO2 
 PCOD9505319
Probable space group: C C C A
;
_chemical_formula_sum "Si O2"
_cell_formula_units_Z 68
_cell_length_a 34.214532
_cell_length_b 16.859909
_cell_length_c 5.423401
_cell_angle_alpha 90.000000
_cell_angle_beta 90.000000
_cell_angle_gamma 90.000000
_cell_volume 3128.509996
_symmetry_space_group_name_H-M "C C C A"
_symmetry_group_IT_number 68
_space_group.IT_coordinate_system_code '2'
_symmetry_cell_setting 'orthorhombic'
loop_
_space_group_symop_operation_xyz
x,y,z
-x,1/2-y,z
x,1/2-y,1/2-z
-x,y,1/2-z
-x,-y,-z
x,1/2+y,-z
-x,1/2+y,1/2+z
x,-y,1/2+z
1/2+x,1/2+y,z
1/2-x,-y,z
1/2+x,-y,1/2-z
1/2-x,1/2+y,1/2-z
1/2-x,1/2-y,-z
1/2+x,y,-z
1/2-x,y,1/2+z
1/2+x,1/2-y,1/2+z
loop_
_atom_site_type_symbol
_atom_site_label
_atom_site_fract_x
_atom_site_fract_y
_atom_site_fract_z
Si Si1 0.500000 0.250000 0.250000
Si Si2 0.643548 0.593641 0.573765
Si Si3 0.734522 0.091656 0.552557
Si Si4 0.612051 0.914679 0.425728
Si Si5 0.023128 0.899486 0.493964
O O1 0.525713 0.306901 0.419680
O O2 0.689289 0.596280 0.517892
O O3 0.630882 0.628026 0.837760
O O4 0.632618 0.500373 0.598581
O O5 0.619602 0.625460 0.338331
O O6 0.757968 0.127288 0.321839
O O7 0.750000 0.000000 0.576130
O O8 0.566602 0.930885 0.476815
O O9 0.000000 0.931697 0.250000
O O10 0.000000 0.904527 0.750000
#
# Coordination Sequence:
#
# PCOD9505319 Si02
#       5
#     4  16  16  16  16
#     4   8  22  36  58  64  90 100 158 200 250 282
#     4  10  19  30  42  67 100 134 153 186 223 256
#     4  10  16  25  41  60  86 130 170 185 203 247
#     4  10  18  31  46  63  95 125 155 185 234 265
#     4  10  20  35  52  71  84 116 154 195 240 281
#
# _framework density 21.735586000000001
#
# number of rings (size 3 to 8) (size 9 to 14) (size 15 to 20)
#    0.706    1.412    0.000    8.824    0.000    0.000 
#    0.000   14.118    0.000    0.000    0.000    0.000 
#    0.000    0.000    0.000   78.353    0.000    0.000 
#
# Total GULP energy -189537.688379 kJ/mol
# GULP energy per Si atom -5574.637893 kJ/mol
# Density = 2.168612 g / cm^3
# Si number density = 21.735586 Si / 1000 Ang^3
#
#
#
# Elastic Constant Matrix: (Units=GPa)
#
#
# Indices 1 2 3 4 5 6 
#
# 1 69.3850 -9.2852 -21.4956 0.0000 0.0000 0.0000
# 2 -9.2852 26.4678 -2.8980 0.0000 0.0000 0.0000
# 3 -21.4956 -2.8980 161.9545 0.0000 0.0000 0.0000
# 4 0.0000 0.0000 0.0000 -39.8566 0.0000 0.0000
# 5 0.0000 0.0000 0.0000 0.0000 40.5039 0.0000
# 6 0.0000 0.0000 0.0000 0.0000 0.0000 -4.2605
#
#
#
# Elastic Compliance Matrix: (Units=1/GPa)
#
#
# Indices 1 2 3 4 5 6 
#
# 1 0.015875 0.005811 0.002211 0.000000 0.000000 0.000000
# 2 0.005811 0.039983 0.001487 0.000000 0.000000 0.000000
# 3 0.002211 0.001487 0.006495 0.000000 0.000000 0.000000
# 4 0.000000 0.000000 0.000000 -0.025090 0.000000 0.000000
# 5 0.000000 0.000000 0.000000 0.000000 0.024689 0.000000
# 6 0.000000 0.000000 0.000000 0.000000 0.000000 -0.234715
#
#
# Mechanical properties :
#
#
# Convention : Reuss Voigt Hill
#
# Bulk Modulus (GPa) = 12.28942 21.16106 16.72524
# Shear Modulus (GPa) = -30.36604 18.70977 -5.82814
#
# Velocity S-wave (km/s) = -3.74179 2.93710 -1.63927
# Velocity P-wave (km/s) = 3.60578 4.61074 2.03190
#
# Compressibility (1/GPa) = 0.08137080
#
# Stress axis : x y z
#
# Youngs Moduli (GPa) = 62.99223 25.01052 153.97317
#
# Poissons Ratio (x) = -0.14534 -0.34044
# Poissons Ratio (y) = -0.36606 -0.22892
# Poissons Ratio (z) = -0.13928 -0.03718
#
# Static dielectric constant tensor:
#      x y z
#    x 1.271170 0.000000 0.000000 
#    y 0.000000 1.856980 0.000000 
#    z 0.000000 0.000000 1.926630 
# 
# From -- ./inp_files/2426.got.cif
#   From: 2010.05.17/outbox.cif.g08.bks.cpg/sg68_2_cif.got.tgz:2426.got - 2010.06.03 18:57:09.
