data_PCOD9505227
_publ_section_title
;
Structure prediction by ZEFSAII (Michael W. Deem and Ramdas Pophale) SiO2 
 PCOD9505227
Probable space group: C M M A
;
_chemical_formula_sum "Si O2"
_cell_formula_units_Z 48
_cell_length_a 9.000000
_cell_length_b 24.000000
_cell_length_c 27.000000
_cell_angle_alpha 90.000000
_cell_angle_beta 90.000000
_cell_angle_gamma 90.000000
_cell_volume 5832.000000
_symmetry_space_group_name_H-M "C M M A"
_symmetry_group_IT_number 67
_symmetry_cell_setting 'orthorhombic'
loop_
_space_group_symop_operation_xyz
x,y,z
-x,1/2-y,z
x,-y,-z
-x,1/2+y,-z
-x,-y,-z
x,1/2+y,-z
-x,y,z
x,1/2-y,z
1/2+x,1/2+y,z
1/2-x,-y,z
1/2+x,1/2-y,-z
1/2-x,y,-z
1/2-x,1/2-y,-z
1/2+x,y,-z
1/2-x,1/2+y,z
1/2+x,-y,z
loop_
_atom_site_type_symbol
_atom_site_label
_atom_site_fract_x
_atom_site_fract_y
_atom_site_fract_z
Si Si1 0.177536 0.376023 0.156813
Si Si2 0.681278 0.062380 0.253262
Si Si3 0.178377 0.750000 0.290621
Si Si4 0.819534 0.860177 0.661567
Si Si5 0.678724 0.684400 0.446442
Si Si6 0.823924 0.250000 0.184443
Si Si7 0.180115 0.061687 0.052726
O O1 0.262990 0.403919 0.203811
O O2 0.202622 0.308997 0.156977
O O3 0.213850 0.403016 0.102928
O O4 0.000000 0.385078 0.164976
O O5 0.500000 0.061521 0.254426
O O6 0.745721 0.092086 0.303470
O O7 0.750000 0.000000 0.250348
O O8 0.254805 0.696251 0.314779
O O9 0.222098 0.750000 0.232997
O O10 0.000000 0.750000 0.297245
O O11 0.783735 0.853181 0.602273
O O12 0.000000 0.862927 0.665954
O O13 0.500000 0.682368 0.451505
O O14 0.718982 0.750000 0.436668
O O15 0.750000 0.669176 0.500000
O O16 0.000000 0.250000 0.198738
O O17 0.000000 0.058613 0.047897
O O18 0.250000 0.000000 0.059732
O O19 0.250000 0.082376 0.000000
#
# Coordination Sequence:
#
# PCOD9505227 Si02
#       7
#    16  16   8  16  16   8  16
#     4  10  21  37  58  83 112 148 185 224 276 334
#     4  12  25  39  57  83 112 144 185 231 279 331
#     4  12  22  32  51  84 113 146 190 228 271 327
#     4  11  21  37  57  79 113 152 185 225 280 332
#     4   9  18  32  51  78 110 146 183 222 271 325
#     4  10  20  36  57  78 112 154 184 218 272 335
#     4  10  20  35  56  81 107 141 186 232 280 329
#
# _framework density 8.2304530000000007
#
# number of rings (size 3 to 8) (size 9 to 14) (size 15 to 20)
#    0.000    1.500    2.500    4.250    0.000    4.000 
#    0.000    0.417    0.000    0.500    0.000    3.500 
#    0.000    0.000    0.000    0.000    0.000    0.000 
#
# Total GULP energy -267708.132434 kJ/mol
# GULP energy per Si atom -5577.252759 kJ/mol
# Density = 0.821172 g / cm^3
# Si number density = 8.230453 Si / 1000 Ang^3
#
#
#
# Elastic Constant Matrix: (Units=GPa)
#
#
# Indices 1 2 3 4 5 6 
#
# 1 101.5585 40.9136 57.3761 0.0000 0.0000 0.0000
# 2 40.9136 114.3068 64.5964 0.0000 0.0000 0.0000
# 3 57.3761 64.5964 167.6380 0.0000 0.0000 0.0000
# 4 0.0000 0.0000 0.0000 34.2596 0.0000 0.0000
# 5 0.0000 0.0000 0.0000 0.0000 36.8140 0.0000
# 6 0.0000 0.0000 0.0000 0.0000 0.0000 23.2546
#
#
#
# Elastic Compliance Matrix: (Units=1/GPa)
#
#
# Indices 1 2 3 4 5 6 
#
# 1 0.012826 -0.002697 -0.003350 0.000000 0.000000 0.000000
# 2 -0.002697 0.011751 -0.003605 0.000000 0.000000 0.000000
# 3 -0.003350 -0.003605 0.008501 0.000000 0.000000 0.000000
# 4 0.000000 0.000000 0.000000 0.029189 0.000000 0.000000
# 5 0.000000 0.000000 0.000000 0.000000 0.027164 0.000000
# 6 0.000000 0.000000 0.000000 0.000000 0.000000 0.043002
#
#
# Mechanical properties :
#
#
# Convention : Reuss Voigt Hill
#
# Bulk Modulus (GPa) = 72.60744 78.80839 75.70791
# Shear Modulus (GPa) = 31.98379 33.57345 32.77862
#
# Velocity S-wave (km/s) = 4.41275 4.52108 4.46724
# Velocity P-wave (km/s) = 8.37663 8.67373 8.52647
#
# Compressibility (1/GPa) = 0.01377269
#
# Stress axis : x y z
#
# Youngs Moduli (GPa) = 77.96609 85.09911 117.63275
#
# Poissons Ratio (x) = 0.22955 0.39413
# Poissons Ratio (y) = 0.21031 0.42405
# Poissons Ratio (z) = 0.26122 0.30677
#
# Static dielectric constant tensor:
#      x y z
#    x 1.555730 0.000000 0.000000 
#    y 0.000000 1.561400 0.000000 
#    z 0.000000 0.000000 1.561890 
# 
# From -- ./inp_files/43683.got.cif
#   From: 2010.05.17/outbox.ucp.g08.bks.cvg/sg67_22_cif.got.tgz:43683.got - 2010.06.11 16:47:20.
