data_PCOD9505469
_publ_section_title
;
Structure prediction by ZEFSAII (Michael W. Deem and Ramdas Pophale) SiO2 
 PCOD9505469
Probable space group: C C C A
;
_chemical_formula_sum "Si O2"
_cell_formula_units_Z 92
_cell_length_a 17.977501
_cell_length_b 14.930766
_cell_length_c 16.279917
_cell_angle_alpha 90.000000
_cell_angle_beta 90.000000
_cell_angle_gamma 90.000000
_cell_volume 4369.820493
_symmetry_space_group_name_H-M "C C C A"
_symmetry_group_IT_number 68
_space_group.IT_coordinate_system_code '2'
_symmetry_cell_setting 'orthorhombic'
loop_
_space_group_symop_operation_xyz
x,y,z
-x,1/2-y,z
x,1/2-y,1/2-z
-x,y,1/2-z
-x,-y,-z
x,1/2+y,-z
-x,1/2+y,1/2+z
x,-y,1/2+z
1/2+x,1/2+y,z
1/2-x,-y,z
1/2+x,-y,1/2-z
1/2-x,1/2+y,1/2-z
1/2-x,1/2-y,-z
1/2+x,y,-z
1/2-x,y,1/2+z
1/2+x,1/2-y,1/2+z
loop_
_atom_site_type_symbol
_atom_site_label
_atom_site_fract_x
_atom_site_fract_y
_atom_site_fract_z
Si Si1 0.081554 0.416830 0.677553
Si Si2 0.220010 0.750000 0.750000
Si Si3 0.287458 0.342738 0.095791
Si Si4 0.674166 0.159511 0.468128
Si Si5 0.074090 0.036645 0.630997
Si Si6 0.701192 0.582533 0.155000
Si Si7 0.000000 0.750000 0.250000
O O1 0.153820 0.417185 0.621268
O O2 0.094077 0.445876 0.772149
O O3 0.049162 0.315801 0.693056
O O4 0.014336 0.471003 0.635309
O O5 0.271434 0.790926 0.820117
O O6 0.178587 0.663412 0.785540
O O7 0.325484 0.267105 0.038041
O O8 0.208088 0.367154 0.056217
O O9 0.600785 0.115447 0.429933
O O10 0.739664 0.122592 0.408815
O O11 0.128195 0.954798 0.610463
O O12 0.750000 0.500000 0.192765
#
# Coordination Sequence:
#
# PCOD9505469 Si02
#       7
#    16   8  16  16  16  16   4
#     4  10  17  28  53  79 107 141 188 238 289 341
#     4  10  19  32  58  84 110 146 193 246 283 336
#     4  10  17  29  48  80 108 138 186 233 283 345
#     4   9  18  29  47  72 112 148 175 226 295 347
#     4   9  18  32  49  76 109 145 176 229 292 340
#     4   9  17  33  51  73 109 149 188 234 285 339
#     4   8  14  24  44  76 104 134 170 232 294 328
#
# _framework density 21.053497
#
# number of rings (size 3 to 8) (size 9 to 14) (size 15 to 20)
#    0.000    2.783    0.000    5.739    0.000    0.000 
#    0.000    8.696    0.000    4.174    0.000    9.739 
#    0.000    8.348    0.000    0.000    0.000    0.000 
#
# Total GULP energy -256110.752770 kJ/mol
# GULP energy per Si atom -5567.625060 kJ/mol
# Density = 2.100558 g / cm^3
# Si number density = 21.053497 Si / 1000 Ang^3
#
#
#
# Elastic Constant Matrix: (Units=GPa)
#
#
# Indices 1 2 3 4 5 6 
#
# 1 68.6607 -5.9144 27.6959 0.0000 0.0000 0.0000
# 2 -5.9144 53.2982 -6.5603 0.0000 0.0000 0.0000
# 3 27.6959 -6.5603 54.9376 0.0000 0.0000 0.0000
# 4 0.0000 0.0000 0.0000 10.3241 0.0000 0.0000
# 5 0.0000 0.0000 0.0000 0.0000 13.9799 0.0000
# 6 0.0000 0.0000 0.0000 0.0000 0.0000 46.6276
#
#
#
# Elastic Compliance Matrix: (Units=1/GPa)
#
#
# Indices 1 2 3 4 5 6 
#
# 1 0.018325 0.000910 -0.009130 0.000000 0.000000 0.000000
# 2 0.000910 0.019087 0.001821 0.000000 0.000000 0.000000
# 3 -0.009130 0.001821 0.023023 0.000000 0.000000 0.000000
# 4 0.000000 0.000000 0.000000 0.096860 0.000000 0.000000
# 5 0.000000 0.000000 0.000000 0.000000 0.071531 0.000000
# 6 0.000000 0.000000 0.000000 0.000000 0.000000 0.021447
#
#
# Mechanical properties :
#
#
# Convention : Reuss Voigt Hill
#
# Bulk Modulus (GPa) = 20.99228 23.03767 22.01497
# Shear Modulus (GPa) = 17.92429 24.96469 21.44449
#
# Velocity S-wave (km/s) = 2.92099 3.44724 3.19497
# Velocity P-wave (km/s) = 4.62264 5.17792 4.90814
#
# Compressibility (1/GPa) = 0.04763656
#
# Stress axis : x y z
#
# Youngs Moduli (GPa) = 54.56885 52.39054 43.43568
#
# Poissons Ratio (x) = -0.04766 0.39656
# Poissons Ratio (y) = -0.04965 -0.07908
# Poissons Ratio (z) = 0.49821 -0.09538
#
# Static dielectric constant tensor:
#      x y z
#    x 1.806850 0.000000 0.000000 
#    y 0.000000 1.842390 0.000000 
#    z 0.000000 0.000000 1.849790 
# 
# From -- ./inp_files/32059.got.cif
#   From: 2010.05.17/outbox.cif.g08.bks.cpg/sg68_17_cif.got.tgz:32059.got - 2010.06.03 18:57:09.
