data_PCOD9505891
_publ_section_title
;
Structure prediction by ZEFSAII (Michael W. Deem and Ramdas Pophale) SiO2 
 PCOD9505891
Probable space group: C C C A
;
_chemical_formula_sum "Si O2"
_cell_formula_units_Z 52
_cell_length_a 21.436677
_cell_length_b 9.481532
_cell_length_c 12.049084
_cell_angle_alpha 90.000000
_cell_angle_beta 90.000000
_cell_angle_gamma 90.000000
_cell_volume 2449.006915
_symmetry_space_group_name_H-M "C C C A"
_symmetry_group_IT_number 68
_space_group.IT_coordinate_system_code '2'
_symmetry_cell_setting 'orthorhombic'
loop_
_space_group_symop_operation_xyz
x,y,z
-x,1/2-y,z
x,1/2-y,1/2-z
-x,y,1/2-z
-x,-y,-z
x,1/2+y,-z
-x,1/2+y,1/2+z
x,-y,1/2+z
1/2+x,1/2+y,z
1/2-x,-y,z
1/2+x,-y,1/2-z
1/2-x,1/2+y,1/2-z
1/2-x,1/2-y,-z
1/2+x,y,-z
1/2-x,y,1/2+z
1/2+x,1/2-y,1/2+z
loop_
_atom_site_type_symbol
_atom_site_label
_atom_site_fract_x
_atom_site_fract_y
_atom_site_fract_z
Si Si1 0.920075 0.934119 0.575896
Si Si2 0.085722 0.240185 0.625775
Si Si3 0.000000 0.250000 0.250000
Si Si4 0.704297 0.872033 0.966969
O O1 0.945370 0.870606 0.459018
O O2 0.845902 0.898041 0.566352
O O3 0.956490 0.851890 0.673248
O O4 0.919130 0.102518 0.578553
O O5 0.063245 0.250000 0.750000
O O6 0.156697 0.180535 0.627505
O O7 0.750000 0.000000 0.939287
O O8 0.750000 0.750000 0.000000
#
# Coordination Sequence:
#
# PCOD9505891 Si02
#       4
#    16  16   4  16
#     4  10  25  45  70 104 146 198 250 311 373 445
#     4  10  23  45  70 107 145 191 249 301 386 443
#     4  12  28  48  76 104 160 204 266 308 368 460
#     4  10  18  41  67 102 147 180 241 310 375 452
#
# _framework density 21.233097000000001
#
# number of rings (size 3 to 8) (size 9 to 14) (size 15 to 20)
#    1.846    0.000    3.077    0.000    4.308    1.231 
#    8.308    0.000    0.000    0.000    0.000    0.000 
#    0.000    0.000    0.000    0.000    0.000    0.000 
#
# Total GULP energy -144775.390345 kJ/mol
# GULP energy per Si atom -5568.284244 kJ/mol
# Density = 2.118477 g / cm^3
# Si number density = 21.233097 Si / 1000 Ang^3
#
#
#
# Elastic Constant Matrix: (Units=GPa)
#
#
# Indices 1 2 3 4 5 6 
#
# 1 188.3934 53.2274 36.0202 0.0000 0.0000 0.0000
# 2 53.2274 175.2644 59.4517 0.0000 0.0000 0.0000
# 3 36.0202 59.4517 131.2739 0.0000 0.0000 0.0000
# 4 0.0000 0.0000 0.0000 24.9713 0.0000 0.0000
# 5 0.0000 0.0000 0.0000 0.0000 73.0400 0.0000
# 6 0.0000 0.0000 0.0000 0.0000 0.0000 35.9497
#
#
#
# Elastic Compliance Matrix: (Units=1/GPa)
#
#
# Indices 1 2 3 4 5 6 
#
# 1 0.005906 -0.001470 -0.000955 0.000000 0.000000 0.000000
# 2 -0.001470 0.007107 -0.002815 0.000000 0.000000 0.000000
# 3 -0.000955 -0.002815 0.009155 0.000000 0.000000 0.000000
# 4 0.000000 0.000000 0.000000 0.040046 0.000000 0.000000
# 5 0.000000 0.000000 0.000000 0.000000 0.013691 0.000000
# 6 0.000000 0.000000 0.000000 0.000000 0.000000 0.027817
#
#
# Mechanical properties :
#
#
# Convention : Reuss Voigt Hill
#
# Bulk Modulus (GPa) = 85.56047 88.03671 86.79859
# Shear Modulus (GPa) = 42.33803 49.87437 46.10620
#
# Velocity S-wave (km/s) = 4.47023 4.85180 4.66492
# Velocity P-wave (km/s) = 8.18701 8.54041 8.36558
#
# Compressibility (1/GPa) = 0.01168764
#
# Stress axis : x y z
#
# Youngs Moduli (GPa) = 169.32363 140.70618 109.23330
#
# Poissons Ratio (x) = 0.20679 0.10431
# Poissons Ratio (y) = 0.24885 0.30753
# Poissons Ratio (z) = 0.16169 0.39614
#
# Static dielectric constant tensor:
#      x y z
#    x 1.752160 0.000000 0.000000 
#    y 0.000000 -12.202740 0.000000 
#    z 0.000000 0.000000 1.804930 
# 
# From -- ./inp_files/8479.got.cif
#   From: 2010.05.17/outbox.cif.g08.bks.cpg/sg68_5_cif.got.tgz:8479.got - 2010.06.03 18:57:09.
