data_PCOD9505725
_publ_section_title
;
Structure prediction by ZEFSAII (Michael W. Deem and Ramdas Pophale) SiO2 
 PCOD9505725
Probable space group: C C C A
;
_chemical_formula_sum "Si O2"
_cell_formula_units_Z 104
_cell_length_a 20.292246
_cell_length_b 15.327691
_cell_length_c 15.742802
_cell_angle_alpha 90.000000
_cell_angle_beta 90.000000
_cell_angle_gamma 90.000000
_cell_volume 4896.535286
_symmetry_space_group_name_H-M "C C C A"
_symmetry_group_IT_number 68
_space_group.IT_coordinate_system_code '2'
_symmetry_cell_setting 'orthorhombic'
loop_
_space_group_symop_operation_xyz
x,y,z
-x,1/2-y,z
x,1/2-y,1/2-z
-x,y,1/2-z
-x,-y,-z
x,1/2+y,-z
-x,1/2+y,1/2+z
x,-y,1/2+z
1/2+x,1/2+y,z
1/2-x,-y,z
1/2+x,-y,1/2-z
1/2-x,1/2+y,1/2-z
1/2-x,1/2-y,-z
1/2+x,y,-z
1/2-x,y,1/2+z
1/2+x,1/2-y,1/2+z
loop_
_atom_site_type_symbol
_atom_site_label
_atom_site_fract_x
_atom_site_fract_y
_atom_site_fract_z
Si Si1 0.503691 0.144087 0.444144
Si Si2 0.101823 0.320950 0.084567
Si Si3 0.764814 0.400513 0.695691
Si Si4 0.631994 0.181969 0.045604
Si Si5 0.232036 0.595907 0.508802
Si Si6 0.660038 0.250000 0.750000
Si Si7 0.101938 0.178716 0.686085
O O1 0.500000 0.250000 0.431823
O O2 0.539640 0.134641 0.535602
O O3 0.427952 0.114997 0.435655
O O4 0.550794 0.118084 0.365550
O O5 0.112817 0.299797 0.182695
O O6 0.108551 0.225316 0.042208
O O7 0.165653 0.372216 0.051576
O O8 0.750000 0.500000 0.724063
O O9 0.772223 0.403863 0.593246
O O10 0.709787 0.327049 0.716787
O O11 0.836941 0.370881 0.728761
O O12 0.632602 0.259256 0.113608
O O13 0.705602 0.151867 0.036063
O O14 0.250000 0.500000 0.537793
O O15 0.072237 0.250000 0.750000
#
# Coordination Sequence:
#
# PCOD9505725 Si02
#       7
#    16  16  16  16  16   8  16
#     4   8  18  34  56  82 111 145 201 242 280 365
#     4  10  19  36  56  81 110 149 191 237 291 349
#     4  11  22  35  56  88 120 153 198 246 298 346
#     4  10  19  36  57  83 112 148 201 241 289 359
#     4  11  21  36  59  83 114 152 196 247 292 349
#     4  12  22  34  59  86 121 156 190 252 294 338
#     4  10  18  33  58  83 113 155 187 240 302 344
#
# _framework density 21.239507
#
# number of rings (size 3 to 8) (size 9 to 14) (size 15 to 20)
#    0.000    2.154    5.385    1.385    0.000    3.385 
#    0.000    4.231    0.000    0.000    0.000    0.000 
#    0.000    0.000    0.000    0.000    0.000    0.000 
#
# Total GULP energy -289609.052608 kJ/mol
# GULP energy per Si atom -5569.404858 kJ/mol
# Density = 2.119117 g / cm^3
# Si number density = 21.239507 Si / 1000 Ang^3
#
#
#
# Elastic Constant Matrix: (Units=GPa)
#
#
# Indices 1 2 3 4 5 6 
#
# 1 93.1881 25.6877 -3.2903 0.0000 0.0000 0.0000
# 2 25.6877 44.6870 9.3006 0.0000 0.0000 0.0000
# 3 -3.2903 9.3006 62.0932 0.0000 0.0000 0.0000
# 4 0.0000 0.0000 0.0000 14.3902 0.0000 0.0000
# 5 0.0000 0.0000 0.0000 0.0000 17.8399 0.0000
# 6 0.0000 0.0000 0.0000 0.0000 0.0000 -4.6696
#
#
#
# Elastic Compliance Matrix: (Units=1/GPa)
#
#
# Indices 1 2 3 4 5 6 
#
# 1 0.012956 -0.007835 0.001860 0.000000 0.000000 0.000000
# 2 -0.007835 0.027836 -0.004585 0.000000 0.000000 0.000000
# 3 0.001860 -0.004585 0.016890 0.000000 0.000000 0.000000
# 4 0.000000 0.000000 0.000000 0.069492 0.000000 0.000000
# 5 0.000000 0.000000 0.000000 0.000000 0.056054 0.000000
# 6 0.000000 0.000000 0.000000 0.000000 0.000000 -0.214151
#
#
# Mechanical properties :
#
#
# Convention : Reuss Voigt Hill
#
# Bulk Modulus (GPa) = 27.34964 29.26269 28.30616
# Shear Modulus (GPa) = 2097.77896 16.73012 1057.25454
#
# Velocity S-wave (km/s) = 31.46144 2.80962 22.33513
# Velocity P-wave (km/s) = 36.50572 4.93282 26.04803
#
# Compressibility (1/GPa) = 0.03656356
#
# Stress axis : x y z
#
# Youngs Moduli (GPa) = 77.18197 35.92495 59.20631
#
# Poissons Ratio (x) = 0.28147 -0.11013
# Poissons Ratio (y) = 0.60471 0.27143
# Poissons Ratio (z) = -0.14357 0.16470
#
# Static dielectric constant tensor:
#      x y z
#    x 2.120250 0.000000 0.000000 
#    y 0.000000 1.923760 0.000000 
#    z 0.000000 0.000000 1.875710 
# 
# From -- ./inp_files/32996.got.cif
#   From: 2010.05.17/outbox.cif.g08.bks.cpg/sg68_17_cif.got.tgz:32996.got - 2010.06.03 18:57:09.
