data_PCOD9505381
_publ_section_title
;
Structure prediction by ZEFSAII (Michael W. Deem and Ramdas Pophale) SiO2 
 PCOD9505381
Probable space group: C C C A
;
_chemical_formula_sum "Si O2"
_cell_formula_units_Z 88
_cell_length_a 9.047464
_cell_length_b 27.962834
_cell_length_c 18.057227
_cell_angle_alpha 90.000000
_cell_angle_beta 90.000000
_cell_angle_gamma 90.000000
_cell_volume 4568.347226
_symmetry_space_group_name_H-M "C C C A"
_symmetry_group_IT_number 68
_space_group.IT_coordinate_system_code '2'
_symmetry_cell_setting 'orthorhombic'
loop_
_space_group_symop_operation_xyz
x,y,z
-x,1/2-y,z
x,1/2-y,1/2-z
-x,y,1/2-z
-x,-y,-z
x,1/2+y,-z
-x,1/2+y,1/2+z
x,-y,1/2+z
1/2+x,1/2+y,z
1/2-x,-y,z
1/2+x,-y,1/2-z
1/2-x,1/2+y,1/2-z
1/2-x,1/2-y,-z
1/2+x,y,-z
1/2-x,y,1/2+z
1/2+x,1/2-y,1/2+z
loop_
_atom_site_type_symbol
_atom_site_label
_atom_site_fract_x
_atom_site_fract_y
_atom_site_fract_z
Si Si1 0.158574 0.629811 0.097368
Si Si2 0.644895 0.382661 0.701194
Si Si3 0.000306 0.647035 0.947974
Si Si4 0.769509 0.293658 0.792288
Si Si5 0.343524 0.953762 0.783237
Si Si6 0.000000 0.750000 0.611287
O O1 0.328263 0.636195 0.069215
O O2 0.133909 0.675728 0.150551
O O3 0.144694 0.583044 0.148308
O O4 0.050133 0.630101 0.028197
O O5 0.500000 0.393191 0.750000
O O6 0.595855 0.377364 0.617013
O O7 0.706624 0.332752 0.734335
O O8 0.760813 0.423679 0.719164
O O9 0.033825 0.703696 0.938518
O O10 0.841630 0.250000 0.750000
O O11 0.632475 0.269414 0.836825
O O12 0.500000 0.968327 0.750000
O O13 0.250000 0.000000 0.804205
#
# Coordination Sequence:
#
# PCOD9505381 Si02
#       6
#    16  16  16  16  16   8
#     4  10  25  40  60  94 132 171 207 262 321 388
#     4  11  18  37  66  92 122 169 217 265 306 371
#     4  11  22  38  60  91 138 174 215 257 315 371
#     4  10  16  31  58  89 121 168 226 262 300 356
#     4  11  25  45  71  96 120 153 212 268 325 384
#     4  10  17  30  60  86 123 174 224 252 299 360
#
# _framework density 19.262983999999999
#
# number of rings (size 3 to 8) (size 9 to 14) (size 15 to 20)
#    0.000    1.455    7.273    0.818    2.545    2.909 
#    0.000    1.818    0.000    4.909    0.000    0.000 
#    0.000    0.000    0.000    0.000    0.000    0.000 
#
# Total GULP energy -245787.666454 kJ/mol
# GULP energy per Si atom -5586.083329 kJ/mol
# Density = 1.921914 g / cm^3
# Si number density = 19.262984 Si / 1000 Ang^3
#
#
#
# Elastic Constant Matrix: (Units=GPa)
#
#
# Indices 1 2 3 4 5 6 
#
# 1 50.0263 23.3255 31.0134 0.0000 0.0000 0.0000
# 2 23.3255 104.6173 47.5187 0.0000 0.0000 0.0000
# 3 31.0134 47.5187 112.0650 0.0000 0.0000 0.0000
# 4 0.0000 0.0000 0.0000 8.9262 0.0000 0.0000
# 5 0.0000 0.0000 0.0000 0.0000 7.4792 0.0000
# 6 0.0000 0.0000 0.0000 0.0000 0.0000 17.3520
#
#
#
# Elastic Compliance Matrix: (Units=1/GPa)
#
#
# Indices 1 2 3 4 5 6 
#
# 1 0.024865 -0.002995 -0.005611 0.000000 0.000000 0.000000
# 2 -0.002995 0.012200 -0.004344 0.000000 0.000000 0.000000
# 3 -0.005611 -0.004344 0.012318 0.000000 0.000000 0.000000
# 4 0.000000 0.000000 0.000000 0.112029 0.000000 0.000000
# 5 0.000000 0.000000 0.000000 0.000000 0.133704 0.000000
# 6 0.000000 0.000000 0.000000 0.000000 0.000000 0.057630
#
#
# Mechanical properties :
#
#
# Convention : Reuss Voigt Hill
#
# Bulk Modulus (GPa) = 42.58630 52.26930 47.42780
# Shear Modulus (GPa) = 12.93748 17.74157 15.33953
#
# Velocity S-wave (km/s) = 2.59438 3.03812 2.82498
# Velocity P-wave (km/s) = 5.57945 6.28493 5.94267
#
# Compressibility (1/GPa) = 0.02348173
#
# Stress axis : x y z
#
# Youngs Moduli (GPa) = 40.21786 81.96996 81.18045
#
# Poissons Ratio (x) = 0.24551 0.45551
# Poissons Ratio (y) = 0.12046 0.35265
# Poissons Ratio (z) = 0.22567 0.35608
#
# Static dielectric constant tensor:
#      x y z
#    x 1.710420 0.000000 0.000000 
#    y 0.000000 1.662630 0.000000 
#    z 0.000000 0.000000 1.665170 
# 
# From -- ./inp_files/28515.got.cif
#   From: 2010.05.17/outbox.cif.g08.bks.cpg/sg68_15_cif.got.tgz:28515.got - 2010.06.03 18:57:09.
