data_PCOD9505740
_publ_section_title
;
Structure prediction by ZEFSAII (Michael W. Deem and Ramdas Pophale) SiO2 
 PCOD9505740
Probable space group: C C C A
;
_chemical_formula_sum "Si O2"
_cell_formula_units_Z 104
_cell_length_a 25.031111
_cell_length_b 25.136859
_cell_length_c 8.057779
_cell_angle_alpha 90.000000
_cell_angle_beta 90.000000
_cell_angle_gamma 90.000000
_cell_volume 5069.982812
_symmetry_space_group_name_H-M "C C C A"
_symmetry_group_IT_number 68
_space_group.IT_coordinate_system_code '2'
_symmetry_cell_setting 'orthorhombic'
loop_
_space_group_symop_operation_xyz
x,y,z
-x,1/2-y,z
x,1/2-y,1/2-z
-x,y,1/2-z
-x,-y,-z
x,1/2+y,-z
-x,1/2+y,1/2+z
x,-y,1/2+z
1/2+x,1/2+y,z
1/2-x,-y,z
1/2+x,-y,1/2-z
1/2-x,1/2+y,1/2-z
1/2-x,1/2-y,-z
1/2+x,y,-z
1/2-x,y,1/2+z
1/2+x,1/2-y,1/2+z
loop_
_atom_site_type_symbol
_atom_site_label
_atom_site_fract_x
_atom_site_fract_y
_atom_site_fract_z
Si Si1 0.734567 0.367094 0.919816
Si Si2 0.923009 0.544893 0.078370
Si Si3 0.595366 0.158512 0.040922
Si Si4 0.940771 0.931515 0.792280
Si Si5 0.189803 0.199274 0.136164
Si Si6 0.827910 0.092911 0.764780
Si Si7 0.500000 0.868365 0.750000
O O1 0.699154 0.349501 0.763958
O O2 0.778567 0.410599 0.862394
O O3 0.768179 0.316390 0.991591
O O4 0.697926 0.387251 0.065956
O O5 0.947202 0.486843 0.108583
O O6 0.868487 0.546576 0.186026
O O7 0.962019 0.591081 0.147242
O O8 0.913846 0.556666 0.884900
O O9 0.634414 0.137969 0.185626
O O10 0.538021 0.165850 0.128300
O O11 0.587872 0.110135 0.911207
O O12 0.630548 0.201727 0.942980
O O13 0.000000 0.910977 0.750000
O O14 0.200079 0.250000 0.250000
#
# Coordination Sequence:
#
# PCOD9505740 Si02
#       7
#    16  16  16  16  16  16   8
#     4   9  18  35  57  84 115 143 186 230 284 328
#     4  11  20  32  54  83 116 144 183 229 270 325
#     4  10  21  34  54  84 111 146 185 232 287 335
#     4  12  21  34  55  84 113 146 187 233 275 315
#     4  10  19  34  58  88 111 142 185 235 283 337
#     4   9  19  34  56  82 113 149 178 228 277 333
#     4  10  18  34  50  80 115 142 183 226 276 326
#
# _framework density 20.512891
#
# number of rings (size 3 to 8) (size 9 to 14) (size 15 to 20)
#    0.000    1.846    2.308    3.692    0.000    0.000 
#    0.000    0.000    0.000   31.846    4.000    0.000 
#    0.000    0.000    0.000    0.000    0.000    0.000 
#
# Total GULP energy -289821.420891 kJ/mol
# GULP energy per Si atom -5573.488863 kJ/mol
# Density = 2.046620 g / cm^3
# Si number density = 20.512891 Si / 1000 Ang^3
#
#
#
# Elastic Constant Matrix: (Units=GPa)
#
#
# Indices 1 2 3 4 5 6 
#
# 1 99.0561 13.2905 46.0013 0.0000 0.0000 0.0000
# 2 13.2905 6.0450 6.3612 0.0000 0.0000 0.0000
# 3 46.0013 6.3612 113.5832 0.0000 0.0000 0.0000
# 4 0.0000 0.0000 0.0000 17.7655 0.0000 0.0000
# 5 0.0000 0.0000 0.0000 0.0000 49.2165 0.0000
# 6 0.0000 0.0000 0.0000 0.0000 0.0000 1.3508
#
#
#
# Elastic Compliance Matrix: (Units=1/GPa)
#
#
# Indices 1 2 3 4 5 6 
#
# 1 0.016599 -0.031262 -0.004972 0.000000 0.000000 0.000000
# 2 -0.031262 0.234666 -0.000481 0.000000 0.000000 0.000000
# 3 -0.004972 -0.000481 0.010845 0.000000 0.000000 0.000000
# 4 0.000000 0.000000 0.000000 0.056289 0.000000 0.000000
# 5 0.000000 0.000000 0.000000 0.000000 0.020318 0.000000
# 6 0.000000 0.000000 0.000000 0.000000 0.000000 0.740294
#
#
# Mechanical properties :
#
#
# Convention : Reuss Voigt Hill
#
# Bulk Modulus (GPa) = 5.29999 38.88782 22.09390
# Shear Modulus (GPa) = 4.11410 23.86865 13.99138
#
# Velocity S-wave (km/s) = 1.41773 3.41485 2.61449
# Velocity P-wave (km/s) = 2.29550 5.87768 4.46186
#
# Compressibility (1/GPa) = 0.18867972
#
# Stress axis : x y z
#
# Youngs Moduli (GPa) = 60.24624 4.26137 92.21195
#
# Poissons Ratio (x) = 0.13322 0.45844
# Poissons Ratio (y) = 1.88342 0.04438
# Poissons Ratio (z) = 0.29952 0.00205
#
# Static dielectric constant tensor:
#      x y z
#    x 1.779700 0.000000 0.000000 
#    y 0.000000 1.701610 0.000000 
#    z 0.000000 0.000000 1.749240 
# 
# From -- ./inp_files/7367.got.cif
#   From: 2010.05.17/outbox.cif.g08.bks.cpg/sg68_4_cif.got.tgz:7367.got - 2010.06.03 18:57:09.
