data_PCOD9505416
_publ_section_title
;
Structure prediction by ZEFSAII (Michael W. Deem and Ramdas Pophale) SiO2 
 PCOD9505416
Probable space group: C C C A
;
_chemical_formula_sum "Si O2"
_cell_formula_units_Z 60
_cell_length_a 32.243989
_cell_length_b 16.198076
_cell_length_c 5.419463
_cell_angle_alpha 90.000000
_cell_angle_beta 90.000000
_cell_angle_gamma 90.000000
_cell_volume 2830.534497
_symmetry_space_group_name_H-M "C C C A"
_symmetry_group_IT_number 68
_space_group.IT_coordinate_system_code '2'
_symmetry_cell_setting 'orthorhombic'
loop_
_space_group_symop_operation_xyz
x,y,z
-x,1/2-y,z
x,1/2-y,1/2-z
-x,y,1/2-z
-x,-y,-z
x,1/2+y,-z
-x,1/2+y,1/2+z
x,-y,1/2+z
1/2+x,1/2+y,z
1/2-x,-y,z
1/2+x,-y,1/2-z
1/2-x,1/2+y,1/2-z
1/2-x,1/2-y,-z
1/2+x,y,-z
1/2-x,y,1/2+z
1/2+x,1/2-y,1/2+z
loop_
_atom_site_type_symbol
_atom_site_label
_atom_site_fract_x
_atom_site_fract_y
_atom_site_fract_z
Si Si1 0.932859 0.669649 0.097920
Si Si2 0.363570 0.052990 0.901321
Si Si3 0.000000 0.552141 0.250000
Si Si4 0.500000 0.250000 0.750000
Si Si5 0.767472 0.094718 0.095589
O O1 0.918840 0.750000 0.250000
O O2 0.896651 0.624674 0.950881
O O3 0.957745 0.605367 0.267806
O O4 0.969586 0.697016 0.916926
O O5 0.316829 0.087771 0.913124
O O6 0.368478 0.990306 0.134365
O O7 0.000000 0.500000 0.500000
O O8 0.748835 0.133600 0.848494
O O9 0.750000 0.000000 0.099968
#
# Coordination Sequence:
#
# PCOD9505416 Si02
#       5
#    16  16   8   4  16
#     4  12  27  45  68  93 135 186 218 276 343 410
#     4  12  24  40  67 108 133 165 231 284 322 391
#     4  12  24  44  69  97 124 162 224 286 332 384
#     4  12  24  52  68  84 132 198 230 254 346 422
#     4  10  16  34  61  95 133 172 201 269 341 389
#
# _framework density 21.197410999999999
#
# number of rings (size 3 to 8) (size 9 to 14) (size 15 to 20)
#    0.000    0.533    8.000    2.400    3.733    0.000 
#    0.000    0.000    0.000    1.600    0.000    0.000 
#    0.000    0.000    0.000    0.000    0.000    0.000 
#
# Total GULP energy -167780.590772 kJ/mol
# GULP energy per Si atom -5592.686359 kJ/mol
# Density = 2.114916 g / cm^3
# Si number density = 21.197411 Si / 1000 Ang^3
#
#
#
# Elastic Constant Matrix: (Units=GPa)
#
#
# Indices 1 2 3 4 5 6 
#
# 1 139.4475 29.4245 11.9197 0.0000 0.0000 0.0000
# 2 29.4245 50.4948 26.7171 0.0000 0.0000 0.0000
# 3 11.9197 26.7171 147.2910 0.0000 0.0000 0.0000
# 4 0.0000 0.0000 0.0000 -5.2926 0.0000 0.0000
# 5 0.0000 0.0000 0.0000 0.0000 -132.4039 0.0000
# 6 0.0000 0.0000 0.0000 0.0000 0.0000 7.7574
#
#
#
# Elastic Compliance Matrix: (Units=1/GPa)
#
#
# Indices 1 2 3 4 5 6 
#
# 1 0.008183 -0.004887 0.000224 0.000000 0.000000 0.000000
# 2 -0.004887 0.024825 -0.004108 0.000000 0.000000 0.000000
# 3 0.000224 -0.004108 0.007516 0.000000 0.000000 0.000000
# 4 0.000000 0.000000 0.000000 -0.188942 0.000000 0.000000
# 5 0.000000 0.000000 0.000000 0.000000 -0.007553 0.000000
# 6 0.000000 0.000000 0.000000 0.000000 0.000000 0.128909
#
#
# Mechanical properties :
#
#
# Convention : Reuss Voigt Hill
#
# Bulk Modulus (GPa) = 43.50920 52.59511 48.05215
# Shear Modulus (GPa) = -2688.92428 -8.04302 -1348.48365
#
# Velocity S-wave (km/s) = -35.65486 -1.95002 -25.24947
# Velocity P-wave (km/s) = 40.92011 4.44925 28.76334
#
# Compressibility (1/GPa) = 0.02298365
#
# Stress axis : x y z
#
# Youngs Moduli (GPa) = 122.20113 40.28163 133.04595
#
# Poissons Ratio (x) = 0.19686 -0.02984
# Poissons Ratio (y) = 0.59722 0.54649
# Poissons Ratio (z) = -0.02740 0.16546
#
# Static dielectric constant tensor:
#      x y z
#    x 1.720750 0.000000 0.000000 
#    y 0.000000 1.798710 0.000000 
#    z 0.000000 0.000000 1.935530 
# 
# From -- ./inp_files/1007.got.cif
#   From: 2010.05.17/outbox.cif.g08.bks.cpg/sg68_1_cif.got.tgz:1007.got - 2010.06.03 18:57:09.
