data_PCOD9505877
_publ_section_title
;
Structure prediction by ZEFSAII (Michael W. Deem and Ramdas Pophale) SiO2 
 PCOD9505877
Probable space group: C C C A
;
_chemical_formula_sum "Si O2"
_cell_formula_units_Z 84
_cell_length_a 24.125179
_cell_length_b 5.674562
_cell_length_c 30.774870
_cell_angle_alpha 90.000000
_cell_angle_beta 90.000000
_cell_angle_gamma 90.000000
_cell_volume 4213.074287
_symmetry_space_group_name_H-M "C C C A"
_symmetry_group_IT_number 68
_space_group.IT_coordinate_system_code '2'
_symmetry_cell_setting 'orthorhombic'
loop_
_space_group_symop_operation_xyz
x,y,z
-x,1/2-y,z
x,1/2-y,1/2-z
-x,y,1/2-z
-x,-y,-z
x,1/2+y,-z
-x,1/2+y,1/2+z
x,-y,1/2+z
1/2+x,1/2+y,z
1/2-x,-y,z
1/2+x,-y,1/2-z
1/2-x,1/2+y,1/2-z
1/2-x,1/2-y,-z
1/2+x,y,-z
1/2-x,y,1/2+z
1/2+x,1/2-y,1/2+z
loop_
_atom_site_type_symbol
_atom_site_label
_atom_site_fract_x
_atom_site_fract_y
_atom_site_fract_z
Si Si1 0.000000 0.750000 0.250000
Si Si2 0.589130 0.541959 0.811373
Si Si3 0.565060 0.242113 0.974399
Si Si4 0.680821 0.091214 0.322773
Si Si5 0.750000 0.500000 0.867024
Si Si6 0.861812 0.291478 0.390030
Si Si7 0.667774 0.750000 0.250000
O O1 0.034836 0.586886 0.216778
O O2 0.622567 0.784705 0.812231
O O3 0.593548 0.430896 0.859476
O O4 0.629036 0.374430 0.784602
O O5 0.500000 0.250000 0.960920
O O6 0.607023 0.233501 0.934044
O O7 0.573312 0.495182 0.999090
O O8 0.726590 0.285452 0.336983
O O9 0.663737 0.928774 0.363531
O O10 0.695642 0.947941 0.279398
O O11 0.805049 0.557891 0.894472
#
# Coordination Sequence:
#
# PCOD9505877 Si02
#       7
#     4  16  16  16   8  16   8
#     4  12  20  38  56  94 134 174 228 286 326 382
#     4  10  22  36  60  86 132 175 222 275 328 396
#     4  10  24  47  75 109 143 175 220 281 342 425
#     4  10  20  39  64  87 128 175 230 278 341 397
#     4  10  22  40  68  96 130 178 224 292 332 422
#     4  10  23  42  70  95 131 179 223 275 350 409
#     4  10  18  39  60  83 128 173 226 283 330 384
#
# _framework density 19.937933000000001
#
# number of rings (size 3 to 8) (size 9 to 14) (size 15 to 20)
#    0.000    1.905    1.905    0.571    5.333    1.905 
#    1.714    0.952  150.857    0.000    0.000    0.000 
#    0.000    0.000    0.000    0.000    0.000    0.000 
#
# Total GULP energy -233938.713265 kJ/mol
# GULP energy per Si atom -5569.969363 kJ/mol
# Density = 1.989255 g / cm^3
# Si number density = 19.937933 Si / 1000 Ang^3
#
#
#
# Elastic Constant Matrix: (Units=GPa)
#
#
# Indices 1 2 3 4 5 6 
#
# 1 105.4811 39.9299 64.4338 0.0000 0.0000 0.0000
# 2 39.9299 105.6087 49.2556 0.0000 0.0000 0.0000
# 3 64.4338 49.2556 110.9438 0.0000 0.0000 0.0000
# 4 0.0000 0.0000 0.0000 15.7135 0.0000 0.0000
# 5 0.0000 0.0000 0.0000 0.0000 17.8287 0.0000
# 6 0.0000 0.0000 0.0000 0.0000 0.0000 182.5377
#
#
#
# Elastic Compliance Matrix: (Units=1/GPa)
#
#
# Indices 1 2 3 4 5 6 
#
# 1 0.015031 -0.002032 -0.007827 0.000000 0.000000 0.000000
# 2 -0.002032 0.012216 -0.004243 0.000000 0.000000 0.000000
# 3 -0.007827 -0.004243 0.015443 0.000000 0.000000 0.000000
# 4 0.000000 0.000000 0.000000 0.063639 0.000000 0.000000
# 5 0.000000 0.000000 0.000000 0.000000 0.056089 0.000000
# 6 0.000000 0.000000 0.000000 0.000000 0.000000 0.005478
#
#
# Mechanical properties :
#
#
# Convention : Reuss Voigt Hill
#
# Bulk Modulus (GPa) = 69.03851 69.91914 69.47882
# Shear Modulus (GPa) = 24.88394 54.44361 39.66377
#
# Velocity S-wave (km/s) = 3.53664 5.23124 4.46507
# Velocity P-wave (km/s) = 7.16791 8.46359 7.84255
#
# Compressibility (1/GPa) = 0.01448467
#
# Stress axis : x y z
#
# Youngs Moduli (GPa) = 66.52813 81.85685 64.75218
#
# Poissons Ratio (x) = 0.16637 0.50685
# Poissons Ratio (y) = 0.13522 0.27476
# Poissons Ratio (z) = 0.52075 0.34734
#
# Static dielectric constant tensor:
#      x y z
#    x 1.718290 0.000000 0.000000 
#    y 0.000000 1.848140 0.000000 
#    z 0.000000 0.000000 1.588820 
# 
# From -- ./inp_files/56012.got.cif
#   From: 2010.05.17/outbox.cif.g08.bks.cpg/sg68_29_cif.got.tgz:56012.got - 2010.06.03 18:57:09.
