data_PCOD9505555
_publ_section_title
;
Structure prediction by ZEFSAII (Michael W. Deem and Ramdas Pophale) SiO2 
 PCOD9505555
Probable space group: C C C A
;
_chemical_formula_sum "Si O2"
_cell_formula_units_Z 120
_cell_length_a 19.164859
_cell_length_b 26.960596
_cell_length_c 11.929146
_cell_angle_alpha 90.000000
_cell_angle_beta 90.000000
_cell_angle_gamma 90.000000
_cell_volume 6163.742271
_symmetry_space_group_name_H-M "C C C A"
_symmetry_group_IT_number 68
_space_group.IT_coordinate_system_code '2'
_symmetry_cell_setting 'orthorhombic'
loop_
_space_group_symop_operation_xyz
x,y,z
-x,1/2-y,z
x,1/2-y,1/2-z
-x,y,1/2-z
-x,-y,-z
x,1/2+y,-z
-x,1/2+y,1/2+z
x,-y,1/2+z
1/2+x,1/2+y,z
1/2-x,-y,z
1/2+x,-y,1/2-z
1/2-x,1/2+y,1/2-z
1/2-x,1/2-y,-z
1/2+x,y,-z
1/2-x,y,1/2+z
1/2+x,1/2-y,1/2+z
loop_
_atom_site_type_symbol
_atom_site_label
_atom_site_fract_x
_atom_site_fract_y
_atom_site_fract_z
Si Si1 0.306802 0.960701 0.158030
Si Si2 0.347320 0.633206 0.493681
Si Si3 0.282102 0.386248 0.645695
Si Si4 0.859907 0.693900 0.709769
Si Si5 0.921732 0.577854 0.952156
Si Si6 0.000000 0.135518 0.250000
Si Si7 0.526118 0.115082 0.134836
Si Si8 0.425881 0.489921 0.194798
O O1 0.341160 0.918727 0.077501
O O2 0.272993 0.928341 0.259159
O O3 0.367237 0.991462 0.220248
O O4 0.250000 0.000000 0.110456
O O5 0.288835 0.626931 0.586506
O O6 0.330702 0.679095 0.411817
O O7 0.422427 0.642456 0.550066
O O8 0.314842 0.338368 0.704269
O O9 0.341927 0.404534 0.559033
O O10 0.861419 0.750000 0.750000
O O11 0.937126 0.669908 0.708506
O O12 0.965467 0.602906 0.849184
O O13 0.920767 0.519808 0.921890
O O14 0.960791 0.593434 0.064599
O O15 0.500000 0.139913 0.250000
O O16 0.572637 0.068113 0.172915
O O17 0.500000 0.501494 0.250000
#
# Coordination Sequence:
#
# PCOD9505555 Si02
#       8
#    16  16  16  16  16   8  16  16
#     4  10  21  36  55  79 115 161 207 245 280 349
#     4  11  22  39  57  82 122 159 194 252 308 340
#     4   9  22  36  57  87 115 151 193 240 301 361
#     4  10  21  38  64  90 109 142 193 253 311 362
#     4  10  18  35  56  81 117 153 193 249 288 338
#     4  10  17  36  64  88 112 138 194 248 306 347
#     4  11  23  34  52  81 119 164 202 234 291 359
#     4  10  19  31  51  78 110 153 208 248 284 330
#
# _framework density 19.468692999999998
#
# number of rings (size 3 to 8) (size 9 to 14) (size 15 to 20)
#    0.000    1.867    2.000    3.000    0.000    8.533 
#    0.000    0.000    0.000    0.000    0.000    3.733 
#    0.000    0.000    0.000    0.000    0.000    0.000 
#
# Total GULP energy -334914.812530 kJ/mol
# GULP energy per Si atom -5581.913542 kJ/mol
# Density = 1.942438 g / cm^3
# Si number density = 19.468693 Si / 1000 Ang^3
#
#
#
# Elastic Constant Matrix: (Units=GPa)
#
#
# Indices 1 2 3 4 5 6 
#
# 1 57.7973 3.1081 21.9945 0.0000 0.0000 0.0000
# 2 3.1081 71.4599 5.6985 0.0000 0.0000 0.0000
# 3 21.9945 5.6985 76.3201 0.0000 0.0000 0.0000
# 4 0.0000 0.0000 0.0000 8.1471 0.0000 0.0000
# 5 0.0000 0.0000 0.0000 0.0000 28.1332 0.0000
# 6 0.0000 0.0000 0.0000 0.0000 0.0000 7.0709
#
#
#
# Elastic Compliance Matrix: (Units=1/GPa)
#
#
# Indices 1 2 3 4 5 6 
#
# 1 0.019444 -0.000401 -0.005574 0.000000 0.000000 0.000000
# 2 -0.000401 0.014086 -0.000936 0.000000 0.000000 0.000000
# 3 -0.005574 -0.000936 0.014779 0.000000 0.000000 0.000000
# 4 0.000000 0.000000 0.000000 0.122744 0.000000 0.000000
# 5 0.000000 0.000000 0.000000 0.000000 0.035545 0.000000
# 6 0.000000 0.000000 0.000000 0.000000 0.000000 0.141425
#
#
# Mechanical properties :
#
#
# Convention : Reuss Voigt Hill
#
# Bulk Modulus (GPa) = 28.99626 29.68661 29.34144
# Shear Modulus (GPa) = 13.39259 20.32197 16.85728
#
# Velocity S-wave (km/s) = 2.62564 3.23434 2.94575
# Velocity P-wave (km/s) = 4.91102 5.40642 5.16466
#
# Compressibility (1/GPa) = 0.03448720
#
# Stress axis : x y z
#
# Youngs Moduli (GPa) = 51.42852 70.99262 67.66417
#
# Poissons Ratio (x) = 0.02849 0.37714
# Poissons Ratio (y) = 0.02064 0.06334
# Poissons Ratio (z) = 0.28665 0.06646
#
# Static dielectric constant tensor:
#      x y z
#    x 1.693860 0.000000 0.000000 
#    y 0.000000 1.675070 0.000000 
#    z 0.000000 0.000000 1.746210 
# 
# From -- ./inp_files/15895.got.cif
#   From: 2010.05.17/outbox.cif.g08.bks.cpg/sg68_8_cif.got.tgz:15895.got - 2010.06.03 18:57:09.
