data_PCOD9505498
_publ_section_title
;
Structure prediction by ZEFSAII (Michael W. Deem and Ramdas Pophale) SiO2 
 PCOD9505498
Probable space group: C C C A
;
_chemical_formula_sum "Si O2"
_cell_formula_units_Z 80
_cell_length_a 17.821518
_cell_length_b 9.910697
_cell_length_c 23.309598
_cell_angle_alpha 90.000000
_cell_angle_beta 90.000000
_cell_angle_gamma 90.000000
_cell_volume 4117.026628
_symmetry_space_group_name_H-M "C C C A"
_symmetry_group_IT_number 68
_space_group.IT_coordinate_system_code '2'
_symmetry_cell_setting 'orthorhombic'
loop_
_space_group_symop_operation_xyz
x,y,z
-x,1/2-y,z
x,1/2-y,1/2-z
-x,y,1/2-z
-x,-y,-z
x,1/2+y,-z
-x,1/2+y,1/2+z
x,-y,1/2+z
1/2+x,1/2+y,z
1/2-x,-y,z
1/2+x,-y,1/2-z
1/2-x,1/2+y,1/2-z
1/2-x,1/2-y,-z
1/2+x,y,-z
1/2-x,y,1/2+z
1/2+x,1/2-y,1/2+z
loop_
_atom_site_type_symbol
_atom_site_label
_atom_site_fract_x
_atom_site_fract_y
_atom_site_fract_z
Si Si1 0.372124 0.510644 0.674112
Si Si2 0.635891 0.686524 0.172023
Si Si3 0.942809 0.369970 0.060780
Si Si4 0.250000 0.500000 0.260468
Si Si5 0.500000 0.929142 0.250000
Si Si6 0.948308 0.374635 0.930094
O O1 0.356642 0.348759 0.668801
O O2 0.310065 0.566777 0.717203
O O3 0.451690 0.516276 0.706064
O O4 0.383292 0.584252 0.613937
O O5 0.621475 0.632701 0.108100
O O6 0.704379 0.608620 0.202000
O O7 0.561639 0.648487 0.210094
O O8 0.000000 0.250000 0.076185
O O9 0.993110 0.502536 0.065570
O O10 0.918983 0.349731 0.994820
O O11 0.000000 0.250000 0.911468
#
# Coordination Sequence:
#
# PCOD9505498 Si02
#       6
#    16  16  16   8   8  16
#     4  11  20  39  58  86 121 161 197 258 310 365
#     4  11  19  37  62  86 112 162 207 252 300 375
#     4  10  18  36  66  92 119 153 204 252 308 377
#     4  10  24  36  56  86 122 158 214 254 296 356
#     4  10  17  30  63  88 103 148 213 246 295 366
#     4  10  21  35  59  99 125 149 192 262 316 357
#
# _framework density 19.4315
#
# number of rings (size 3 to 8) (size 9 to 14) (size 15 to 20)
#    0.000    1.600    4.000    3.600    0.000    0.000 
#    7.200    1.500    0.000    2.400    0.000    0.000 
#    0.000    0.000    0.000    0.000    0.000    0.000 
#
# Total GULP energy -223177.367695 kJ/mol
# GULP energy per Si atom -5579.434192 kJ/mol
# Density = 1.938727 g / cm^3
# Si number density = 19.431500 Si / 1000 Ang^3
#
#
#
# Elastic Constant Matrix: (Units=GPa)
#
#
# Indices 1 2 3 4 5 6 
#
# 1 96.9639 32.9437 58.1608 0.0000 0.0000 0.0000
# 2 32.9437 72.1872 25.5114 0.0000 0.0000 0.0000
# 3 58.1608 25.5114 145.5210 0.0000 0.0000 0.0000
# 4 0.0000 0.0000 0.0000 25.4393 0.0000 0.0000
# 5 0.0000 0.0000 0.0000 0.0000 44.9865 0.0000
# 6 0.0000 0.0000 0.0000 0.0000 0.0000 18.4119
#
#
#
# Elastic Compliance Matrix: (Units=1/GPa)
#
#
# Indices 1 2 3 4 5 6 
#
# 1 0.015134 -0.005084 -0.005157 0.000000 0.000000 0.000000
# 2 -0.005084 0.016476 -0.000856 0.000000 0.000000 0.000000
# 3 -0.005157 -0.000856 0.009083 0.000000 0.000000 0.000000
# 4 0.000000 0.000000 0.000000 0.039309 0.000000 0.000000
# 5 0.000000 0.000000 0.000000 0.000000 0.022229 0.000000
# 6 0.000000 0.000000 0.000000 0.000000 0.000000 0.054313
#
#
# Mechanical properties :
#
#
# Convention : Reuss Voigt Hill
#
# Bulk Modulus (GPa) = 54.06177 60.87822 57.46999
# Shear Modulus (GPa) = 27.04094 30.97130 29.00612
#
# Velocity S-wave (km/s) = 3.73447 3.99666 3.86779
# Velocity P-wave (km/s) = 6.81741 7.25916 7.04175
#
# Compressibility (1/GPa) = 0.01849736
#
# Stress axis : x y z
#
# Youngs Moduli (GPa) = 66.07711 60.69557 110.09284
#
# Poissons Ratio (x) = 0.30857 0.56778
# Poissons Ratio (y) = 0.33593 0.09429
# Poissons Ratio (z) = 0.34078 0.05198
#
# Static dielectric constant tensor:
#      x y z
#    x 1.674930 0.000000 0.000000 
#    y 0.000000 1.660840 0.000000 
#    z 0.000000 0.000000 1.740870 
# 
# From -- ./inp_files/46423.got.cif
#   From: 2010.05.17/outbox.cif.g08.bks.cpg/sg68_24_cif.got.tgz:46423.got - 2010.06.03 18:57:09.
