data_PCOD9505261
_publ_section_title
;
Structure prediction by ZEFSAII (Michael W. Deem and Ramdas Pophale) SiO2 
 PCOD9505261
Probable space group: C M M A
;
_chemical_formula_sum "Si O2"
_cell_formula_units_Z 48
_cell_length_a 24.000000
_cell_length_b 24.000000
_cell_length_c 9.000000
_cell_angle_alpha 90.000000
_cell_angle_beta 90.000000
_cell_angle_gamma 90.000000
_cell_volume 5184.000000
_symmetry_space_group_name_H-M "C M M A"
_symmetry_group_IT_number 67
_symmetry_cell_setting 'orthorhombic'
loop_
_space_group_symop_operation_xyz
x,y,z
-x,1/2-y,z
x,-y,-z
-x,1/2+y,-z
-x,-y,-z
x,1/2+y,-z
-x,y,z
x,1/2-y,z
1/2+x,1/2+y,z
1/2-x,-y,z
1/2+x,1/2-y,-z
1/2-x,y,-z
1/2-x,1/2-y,-z
1/2+x,y,-z
1/2-x,1/2+y,z
1/2+x,-y,z
loop_
_atom_site_type_symbol
_atom_site_label
_atom_site_fract_x
_atom_site_fract_y
_atom_site_fract_z
Si Si1 0.567835 0.901207 0.934427
Si Si2 0.840937 0.517266 0.170681
Si Si3 0.265692 0.888845 0.676668
Si Si4 0.065909 0.186819 0.416660
Si Si5 0.142384 0.396290 0.233619
Si Si6 0.874292 0.187040 0.731757
O O1 0.500000 0.906263 0.949052
O O2 0.599130 0.951682 0.847040
O O3 0.587616 0.846508 0.847125
O O4 0.604201 0.897862 0.085472
O O5 0.795132 0.557112 0.247151
O O6 0.849329 0.461784 0.267285
O O7 0.824335 0.500000 0.000000
O O8 0.250000 0.894850 0.500000
O O9 0.207085 0.875616 0.761556
O O10 0.315023 0.843139 0.698110
O O11 0.072812 0.250000 0.354562
O O12 0.105399 0.141776 0.339719
O O13 0.088450 0.188396 0.583761
O O14 0.000000 0.173218 0.408693
O O15 0.863465 0.250000 0.781567
#
# Coordination Sequence:
#
# PCOD9505261 Si02
#       6
#    16  16  16  16  16  16
#     4  10  22  40  61  89 122 159 206 253 303 364
#     4   9  22  39  61  89 122 164 204 247 307 369
#     4  11  22  40  63  93 128 160 206 255 302 367
#     4  10  21  38  59  85 117 155 202 252 302 359
#     4  11  22  37  60  90 122 160 199 250 311 365
#     4  10  22  41  64  87 117 162 205 250 307 364
#
# _framework density 9.2592590000000001
#
# number of rings (size 3 to 8) (size 9 to 14) (size 15 to 20)
#    0.000    1.833    1.667    1.500    0.000   15.667 
#    0.000    0.833    0.000    3.000    0.000    0.000 
#    0.000    0.000    0.000    0.000    0.000    0.000 
#
# Total GULP energy -267430.515055 kJ/mol
# GULP energy per Si atom -5571.469064 kJ/mol
# Density = 0.923818 g / cm^3
# Si number density = 9.259259 Si / 1000 Ang^3
#
#
#
# Elastic Constant Matrix: (Units=GPa)
#
#
# Indices 1 2 3 4 5 6 
#
# 1 194.9094 46.7116 32.9172 0.0000 0.0000 0.0000
# 2 46.7116 102.5744 21.6422 0.0000 0.0000 0.0000
# 3 32.9172 21.6422 30.5579 0.0000 0.0000 0.0000
# 4 0.0000 0.0000 0.0000 65.4050 0.0000 0.0000
# 5 0.0000 0.0000 0.0000 0.0000 36.0003 0.0000
# 6 0.0000 0.0000 0.0000 0.0000 0.0000 23.0517
#
#
#
# Elastic Compliance Matrix: (Units=1/GPa)
#
#
# Indices 1 2 3 4 5 6 
#
# 1 0.006528 -0.001751 -0.005792 0.000000 0.000000 0.000000
# 2 -0.001751 0.011931 -0.006564 0.000000 0.000000 0.000000
# 3 -0.005792 -0.006564 0.043613 0.000000 0.000000 0.000000
# 4 0.000000 0.000000 0.000000 0.015289 0.000000 0.000000
# 5 0.000000 0.000000 0.000000 0.000000 0.027778 0.000000
# 6 0.000000 0.000000 0.000000 0.000000 0.000000 0.043381
#
#
# Mechanical properties :
#
#
# Convention : Reuss Voigt Hill
#
# Bulk Modulus (GPa) = 29.53491 58.95375 44.24433
# Shear Modulus (GPa) = 26.59263 40.00945 33.30104
#
# Velocity S-wave (km/s) = 3.79357 4.65317 4.24519
# Velocity P-wave (km/s) = 5.93058 7.79573 6.92623
#
# Compressibility (1/GPa) = 0.03385824
#
# Stress axis : x y z
#
# Youngs Moduli (GPa) = 153.17554 83.81308 22.92869
#
# Poissons Ratio (x) = 0.14674 0.13281
# Poissons Ratio (y) = 0.26819 0.15051
# Poissons Ratio (z) = 0.88727 0.55016
#
# Static dielectric constant tensor:
#      x y z
#    x 1.606750 0.000000 0.000000 
#    y 0.000000 1.692410 0.000000 
#    z 0.000000 0.000000 1.694840 
# 
# From -- ./inp_files/11474.got.cif
#   From: 2010.05.17/outbox.ucp.g08.bks.cvg/sg67_6_cif.got.tgz:11474.got - 2010.06.11 16:47:20.
