data_PCOD9505359
_publ_section_title
;
Structure prediction by ZEFSAII (Michael W. Deem and Ramdas Pophale) SiO2 
 PCOD9505359
Probable space group: C C C A
;
_chemical_formula_sum "Si O2"
_cell_formula_units_Z 88
_cell_length_a 39.273605
_cell_length_b 18.110140
_cell_length_c 5.554261
_cell_angle_alpha 90.000000
_cell_angle_beta 90.000000
_cell_angle_gamma 90.000000
_cell_volume 3950.470829
_symmetry_space_group_name_H-M "C C C A"
_symmetry_group_IT_number 68
_space_group.IT_coordinate_system_code '2'
_symmetry_cell_setting 'orthorhombic'
loop_
_space_group_symop_operation_xyz
x,y,z
-x,1/2-y,z
x,1/2-y,1/2-z
-x,y,1/2-z
-x,-y,-z
x,1/2+y,-z
-x,1/2+y,1/2+z
x,-y,1/2+z
1/2+x,1/2+y,z
1/2-x,-y,z
1/2+x,-y,1/2-z
1/2-x,1/2+y,1/2-z
1/2-x,1/2-y,-z
1/2+x,y,-z
1/2-x,y,1/2+z
1/2+x,1/2-y,1/2+z
loop_
_atom_site_type_symbol
_atom_site_label
_atom_site_fract_x
_atom_site_fract_y
_atom_site_fract_z
Si Si1 0.763215 0.336326 0.518184
Si Si2 0.619785 0.507161 0.864714
Si Si3 0.662915 0.292055 0.995279
Si Si4 0.500000 0.953684 0.750000
Si Si5 0.432622 0.140153 0.355162
Si Si6 0.089436 0.148493 0.367086
O O1 0.750000 0.250000 0.500000
O O2 0.745991 0.368524 0.757615
O O3 0.803686 0.338281 0.558881
O O4 0.639199 0.498464 0.615161
O O5 0.599889 0.584053 0.859515
O O6 0.591059 0.441807 0.867674
O O7 0.654706 0.250000 0.250000
O O8 0.674423 0.250000 0.750000
O O9 0.628933 0.330398 0.895025
O O10 0.533032 0.903677 0.701971
O O11 0.500000 0.000000 0.500000
O O12 0.429355 0.171372 0.623320
O O13 0.427212 0.181865 0.105180
#
# Coordination Sequence:
#
# PCOD9505359 Si02
#       6
#    16  16  16   8  16  16
#     4  10  16  30  48  69  97 131 152 206 273 308
#     4   8  14  27  44  61  92 126 149 189 239 285
#     4  12  21  32  50  74 102 139 174 207 256 320
#     4  12  20  30  54  84 107 138 167 202 276 338
#     4  10  19  33  49  74 106 131 161 210 255 311
#     4  10  20  32  46  70 104 136 167 204 251 311
#
# _framework density 22.275825000000001
#
# number of rings (size 3 to 8) (size 9 to 14) (size 15 to 20)
#    0.000    1.818    3.636    5.455    0.000    0.000 
#    0.000    0.000    0.000    0.000    0.000    9.545 
#    0.000   39.273    0.000    0.000    0.000    0.000 
#
# Total GULP energy -244939.292902 kJ/mol
# GULP energy per Si atom -5566.802111 kJ/mol
# Density = 2.222512 g / cm^3
# Si number density = 22.275825 Si / 1000 Ang^3
#
#
#
# Elastic Constant Matrix: (Units=GPa)
#
#
# Indices 1 2 3 4 5 6 
#
# 1 109.8043 -3.5789 39.4776 0.0000 0.0000 0.0000
# 2 -3.5789 31.3464 28.4407 0.0000 0.0000 0.0000
# 3 39.4776 28.4407 280.4148 0.0000 0.0000 0.0000
# 4 0.0000 0.0000 0.0000 28.3131 0.0000 0.0000
# 5 0.0000 0.0000 0.0000 0.0000 35.8032 0.0000
# 6 0.0000 0.0000 0.0000 0.0000 0.0000 12.3603
#
#
#
# Elastic Compliance Matrix: (Units=1/GPa)
#
#
# Indices 1 2 3 4 5 6 
#
# 1 0.009782 0.002606 -0.001642 0.000000 0.000000 0.000000
# 2 0.002606 0.035829 -0.004001 0.000000 0.000000 0.000000
# 3 -0.001642 -0.004001 0.004203 0.000000 0.000000 0.000000
# 4 0.000000 0.000000 0.000000 0.035319 0.000000 0.000000
# 5 0.000000 0.000000 0.000000 0.000000 0.027930 0.000000
# 6 0.000000 0.000000 0.000000 0.000000 0.000000 0.080904
#
#
# Mechanical properties :
#
#
# Convention : Reuss Voigt Hill
#
# Bulk Modulus (GPa) = 22.86125 61.13825 41.99975
# Shear Modulus (GPa) = 23.29682 39.11039 31.20361
#
# Velocity S-wave (km/s) = 3.23744 4.19469 3.74676
# Velocity P-wave (km/s) = 4.92543 7.13906 6.13294
#
# Compressibility (1/GPa) = 0.04374214
#
# Stress axis : x y z
#
# Youngs Moduli (GPa) = 102.22632 27.91022 237.92418
#
# Poissons Ratio (x) = -0.07274 0.39055
# Poissons Ratio (y) = -0.26642 0.95189
# Poissons Ratio (z) = 0.16780 0.11166
#
# Static dielectric constant tensor:
#      x y z
#    x 1.757430 0.000000 0.000000 
#    y 0.000000 1.908780 0.000000 
#    z 0.000000 0.000000 1.967990 
# 
# From -- ./inp_files/2844.got.cif
#   From: 2010.05.17/outbox.cif.g08.bks.cpg/sg68_2_cif.got.tgz:2844.got - 2010.06.03 18:57:09.
