data_PCOD9505861
_publ_section_title
;
Structure prediction by ZEFSAII (Michael W. Deem and Ramdas Pophale) SiO2 
 PCOD9505861
Probable space group: C C C A
;
_chemical_formula_sum "Si O2"
_cell_formula_units_Z 120
_cell_length_a 23.385965
_cell_length_b 23.827985
_cell_length_c 9.917701
_cell_angle_alpha 90.000000
_cell_angle_beta 90.000000
_cell_angle_gamma 90.000000
_cell_volume 5526.543903
_symmetry_space_group_name_H-M "C C C A"
_symmetry_group_IT_number 68
_space_group.IT_coordinate_system_code '2'
_symmetry_cell_setting 'orthorhombic'
loop_
_space_group_symop_operation_xyz
x,y,z
-x,1/2-y,z
x,1/2-y,1/2-z
-x,y,1/2-z
-x,-y,-z
x,1/2+y,-z
-x,1/2+y,1/2+z
x,-y,1/2+z
1/2+x,1/2+y,z
1/2-x,-y,z
1/2+x,-y,1/2-z
1/2-x,1/2+y,1/2-z
1/2-x,1/2-y,-z
1/2+x,y,-z
1/2-x,y,1/2+z
1/2+x,1/2-y,1/2+z
loop_
_atom_site_type_symbol
_atom_site_label
_atom_site_fract_x
_atom_site_fract_y
_atom_site_fract_z
Si Si1 0.894181 0.250000 0.250000
Si Si2 0.977639 0.546915 0.600475
Si Si3 0.778864 0.381799 0.986244
Si Si4 0.840817 0.645930 0.096478
Si Si5 0.937304 0.356374 0.393852
Si Si6 0.816650 0.235996 0.522431
Si Si7 0.197878 0.463498 0.740400
Si Si8 0.361644 0.069938 0.695621
O O1 0.934752 0.297157 0.317482
O O2 0.852305 0.236574 0.379733
O O3 0.004747 0.609268 0.586323
O O4 0.000000 0.529882 0.750000
O O5 0.000000 0.500000 0.500000
O O6 0.909464 0.552969 0.586294
O O7 0.712977 0.363370 0.994214
O O8 0.781130 0.437395 0.898362
O O9 0.814905 0.328781 0.929736
O O10 0.808470 0.397316 0.129065
O O11 0.903347 0.642733 0.033548
O O12 0.836017 0.713307 0.120278
O O13 0.828324 0.591324 0.187563
O O14 0.895622 0.391618 0.297279
O O15 0.750000 0.250000 0.500000
O O16 0.250000 0.500000 0.805419
O O17 0.152765 0.512787 0.728129
#
# Coordination Sequence:
#
# PCOD9505861 Si02
#       8
#     8  16  16  16  16  16  16  16
#     4  10  18  38  63  90 122 158 214 267 316 366
#     4  10  23  41  63  90 121 170 214 266 329 388
#     4  11  23  37  57  87 121 166 201 257 316 373
#     4  10  22  37  59  87 118 163 206 249 317 373
#     4  10  21  40  65  88 123 162 209 272 314 384
#     4   9  20  35  59  84 119 162 204 254 306 379
#     4  12  25  35  56  87 125 165 204 255 307 390
#     4  11  23  38  60  85 124 156 206 254 317 376
#
# _framework density 21.713388999999999
#
# number of rings (size 3 to 8) (size 9 to 14) (size 15 to 20)
#    0.000    1.600    2.667    1.600    7.467    3.733 
#    0.000    3.000    0.000    0.000    0.000    0.000 
#    0.000    6.667    0.000    0.000    0.000    0.000 
#
# Total GULP energy -334002.667516 kJ/mol
# GULP energy per Si atom -5566.711125 kJ/mol
# Density = 2.166397 g / cm^3
# Si number density = 21.713389 Si / 1000 Ang^3
#
#
#
# Elastic Constant Matrix: (Units=GPa)
#
#
# Indices 1 2 3 4 5 6 
#
# 1 49.7072 5.5424 -6.2781 0.0000 0.0000 0.0000
# 2 5.5424 132.3619 18.9778 0.0000 0.0000 0.0000
# 3 -6.2781 18.9778 28.4583 0.0000 0.0000 0.0000
# 4 0.0000 0.0000 0.0000 36.0613 0.0000 0.0000
# 5 0.0000 0.0000 0.0000 0.0000 17.0302 0.0000
# 6 0.0000 0.0000 0.0000 0.0000 0.0000 17.9810
#
#
#
# Elastic Compliance Matrix: (Units=1/GPa)
#
#
# Indices 1 2 3 4 5 6 
#
# 1 0.021039 -0.001710 0.005782 0.000000 0.000000 0.000000
# 2 -0.001710 0.008493 -0.006041 0.000000 0.000000 0.000000
# 3 0.005782 -0.006041 0.040443 0.000000 0.000000 0.000000
# 4 0.000000 0.000000 0.000000 0.027731 0.000000 0.000000
# 5 0.000000 0.000000 0.000000 0.000000 0.058719 0.000000
# 6 0.000000 0.000000 0.000000 0.000000 0.000000 0.055614
#
#
# Mechanical properties :
#
#
# Convention : Reuss Voigt Hill
#
# Bulk Modulus (GPa) = 15.14321 27.44574 21.29448
# Shear Modulus (GPa) = 21.00940 27.03352 24.02146
#
# Velocity S-wave (km/s) = 3.11397 3.53231 3.32971
# Velocity P-wave (km/s) = 4.46299 5.41329 4.96095
#
# Compressibility (1/GPa) = 0.06603618
#
# Stress axis : x y z
#
# Youngs Moduli (GPa) = 47.53151 117.74750 24.72618
#
# Poissons Ratio (x) = 0.20134 -0.14295
# Poissons Ratio (y) = 0.08127 0.14936
# Poissons Ratio (z) = -0.27480 0.71128
#
# Static dielectric constant tensor:
#      x y z
#    x 1.789900 0.000000 0.000000 
#    y 0.000000 1.918060 0.000000 
#    z 0.000000 0.000000 1.880700 
# 
# From -- ./inp_files/16625.got.cif
#   From: 2010.05.17/outbox.cif.g08.bks.cpg/sg68_9_cif.got.tgz:16625.got - 2010.06.03 18:57:09.
