data_PCOD9505311
_publ_section_title
;
Structure prediction by ZEFSAII (Michael W. Deem and Ramdas Pophale) SiO2 
 PCOD9505311
Probable space group: C C C A
;
_chemical_formula_sum "Si O2"
_cell_formula_units_Z 80
_cell_length_a 7.844518
_cell_length_b 27.349118
_cell_length_c 14.807846
_cell_angle_alpha 90.000000
_cell_angle_beta 90.000000
_cell_angle_gamma 90.000000
_cell_volume 3176.884883
_symmetry_space_group_name_H-M "C C C A"
_symmetry_group_IT_number 68
_space_group.IT_coordinate_system_code '2'
_symmetry_cell_setting 'orthorhombic'
loop_
_space_group_symop_operation_xyz
x,y,z
-x,1/2-y,z
x,1/2-y,1/2-z
-x,y,1/2-z
-x,-y,-z
x,1/2+y,-z
-x,1/2+y,1/2+z
x,-y,1/2+z
1/2+x,1/2+y,z
1/2-x,-y,z
1/2+x,-y,1/2-z
1/2-x,1/2+y,1/2-z
1/2-x,1/2-y,-z
1/2+x,y,-z
1/2-x,y,1/2+z
1/2+x,1/2-y,1/2+z
loop_
_atom_site_type_symbol
_atom_site_label
_atom_site_fract_x
_atom_site_fract_y
_atom_site_fract_z
Si Si1 0.685054 0.598224 0.303645
Si Si2 0.294726 0.303315 0.764413
Si Si3 0.809302 0.944553 0.371757
Si Si4 0.490249 0.104687 0.516040
Si Si5 0.132146 0.289785 0.451614
O O1 0.500000 0.597040 0.250000
O O2 0.765205 0.652458 0.296073
O O3 0.797020 0.565346 0.235883
O O4 0.637971 0.592805 0.408578
O O5 0.221468 0.250000 0.750000
O O6 0.500000 0.302971 0.750000
O O7 0.267542 0.313862 0.869016
O O8 0.670903 0.913648 0.427524
O O9 0.977555 0.926052 0.424602
O O10 0.750000 0.000000 0.385886
O O11 0.462967 0.163623 0.503871
O O12 0.250000 0.250000 0.500000
O O13 0.000000 0.250000 0.411621
#
# Coordination Sequence:
#
# PCOD9505311 Si02
#       5
#    16  16  16  16  16
#     4   9  18  37  61  86 123 170 221 263 325 413
#     4  10  15  32  57  84 109 159 216 246 297 396
#     4  11  23  40  65  97 128 176 233 282 343 411
#     4  11  22  42  64  94 140 172 221 289 346 410
#     4  12  22  34  60  97 124 164 215 265 329 404
#
# _framework density 25.181899999999999
#
# number of rings (size 3 to 8) (size 9 to 14) (size 15 to 20)
#    0.000    1.400    8.000    1.800    0.000    0.800 
#    0.000    3.000    0.000    0.600    0.000    0.000 
#    0.000    0.000    0.000    0.000    0.000    0.000 
#
# Total GULP energy -222907.912009 kJ/mol
# GULP energy per Si atom -5572.697800 kJ/mol
# Density = 2.512458 g / cm^3
# Si number density = 25.181900 Si / 1000 Ang^3
#
#
#
# Elastic Constant Matrix: (Units=GPa)
#
#
# Indices 1 2 3 4 5 6 
#
# 1 54.6187 6.0703 23.5634 0.0000 0.0000 0.0000
# 2 6.0703 148.8690 27.1612 0.0000 0.0000 0.0000
# 3 23.5634 27.1612 152.8854 0.0000 0.0000 0.0000
# 4 0.0000 0.0000 0.0000 21.9760 0.0000 0.0000
# 5 0.0000 0.0000 0.0000 0.0000 23.4565 0.0000
# 6 0.0000 0.0000 0.0000 0.0000 0.0000 19.6844
#
#
#
# Elastic Compliance Matrix: (Units=1/GPa)
#
#
# Indices 1 2 3 4 5 6 
#
# 1 0.019622 -0.000257 -0.002979 0.000000 0.000000 0.000000
# 2 -0.000257 0.006946 -0.001194 0.000000 0.000000 0.000000
# 3 -0.002979 -0.001194 0.007212 0.000000 0.000000 0.000000
# 4 0.000000 0.000000 0.000000 0.045504 0.000000 0.000000
# 5 0.000000 0.000000 0.000000 0.000000 0.042632 0.000000
# 6 0.000000 0.000000 0.000000 0.000000 0.000000 0.050802
#
#
# Mechanical properties :
#
#
# Convention : Reuss Voigt Hill
#
# Bulk Modulus (GPa) = 40.12733 52.21808 46.17271
# Shear Modulus (GPa) = 26.33181 32.99527 29.66354
#
# Velocity S-wave (km/s) = 3.23718 3.62370 3.43588
# Velocity P-wave (km/s) = 5.47193 6.18786 5.84088
#
# Compressibility (1/GPa) = 0.02492067
#
# Stress axis : x y z
#
# Youngs Moduli (GPa) = 50.96240 143.97399 138.65533
#
# Poissons Ratio (x) = 0.03695 0.41301
# Poissons Ratio (y) = 0.01308 0.16561
# Poissons Ratio (z) = 0.15180 0.17196
#
# Static dielectric constant tensor:
#      x y z
#    x 2.635750 0.000000 0.000000 
#    y 0.000000 2.023130 0.000000 
#    z 0.000000 0.000000 2.020420 
# 
# From -- ./inp_files/28465.got.cif
#   From: 2010.05.17/outbox.cif.g08.bks.cpg/sg68_15_cif.got.tgz:28465.got - 2010.06.03 18:57:09.
