data_PCOD9505886
_publ_section_title
;
Structure prediction by ZEFSAII (Michael W. Deem and Ramdas Pophale) SiO2 
 PCOD9505886
Probable space group: C C C A
;
_chemical_formula_sum "Si O2"
_cell_formula_units_Z 104
_cell_length_a 14.155792
_cell_length_b 16.474840
_cell_length_c 22.433582
_cell_angle_alpha 90.000000
_cell_angle_beta 90.000000
_cell_angle_gamma 90.000000
_cell_volume 5231.834552
_symmetry_space_group_name_H-M "C C C A"
_symmetry_group_IT_number 68
_space_group.IT_coordinate_system_code '2'
_symmetry_cell_setting 'orthorhombic'
loop_
_space_group_symop_operation_xyz
x,y,z
-x,1/2-y,z
x,1/2-y,1/2-z
-x,y,1/2-z
-x,-y,-z
x,1/2+y,-z
-x,1/2+y,1/2+z
x,-y,1/2+z
1/2+x,1/2+y,z
1/2-x,-y,z
1/2+x,-y,1/2-z
1/2-x,1/2+y,1/2-z
1/2-x,1/2-y,-z
1/2+x,y,-z
1/2-x,y,1/2+z
1/2+x,1/2-y,1/2+z
loop_
_atom_site_type_symbol
_atom_site_label
_atom_site_fract_x
_atom_site_fract_y
_atom_site_fract_z
Si Si1 0.731583 0.144234 0.417306
Si Si2 0.250000 0.000000 0.677386
Si Si3 0.947333 0.669984 0.583484
Si Si4 0.455414 0.586891 0.976624
Si Si5 0.512043 0.380758 0.340852
Si Si6 0.847158 0.252607 0.684070
Si Si7 0.551239 0.446314 0.696763
O O1 0.837680 0.164927 0.437851
O O2 0.656630 0.107977 0.465323
O O3 0.704611 0.222061 0.376793
O O4 0.728278 0.073833 0.367060
O O5 0.341958 0.027894 0.712337
O O6 0.948907 0.603599 0.635961
O O7 0.000000 0.750000 0.607525
O O8 0.009386 0.647033 0.526870
O O9 0.496792 0.608636 0.911645
O O10 0.500000 0.500000 0.000000
O O11 0.607736 0.334960 0.326491
O O12 0.430909 0.320780 0.314648
O O13 0.503127 0.469746 0.314588
O O14 0.800429 0.250000 0.750000
O O15 0.500000 0.400714 0.750000
#
# Coordination Sequence:
#
# PCOD9505886 Si02
#       7
#    16   8  16  16  16  16  16
#     4  10  22  41  66  92 126 172 212 263 327 388
#     4  10  18  40  64  92 118 166 214 250 328 392
#     4  11  26  44  63  90 128 177 222 259 316 392
#     4  11  20  40  68  94 123 162 213 266 325 394
#     4  10  19  34  60  99 126 157 202 267 331 378
#     4  10  19  34  61  97 130 160 202 265 325 387
#     4  11  21  40  67  89 126 169 213 266 321 383
#
# _framework density 19.878304
#
# number of rings (size 3 to 8) (size 9 to 14) (size 15 to 20)
#    0.000    1.538    4.615    2.769    4.308    0.923 
#    5.538    0.000    0.000    0.000    0.000    0.000 
#    0.000    0.000    0.000    0.000    0.000    0.000 
#
# Total GULP energy -289477.474307 kJ/mol
# GULP energy per Si atom -5566.874506 kJ/mol
# Density = 1.983306 g / cm^3
# Si number density = 19.878304 Si / 1000 Ang^3
#
#
#
# Elastic Constant Matrix: (Units=GPa)
#
#
# Indices 1 2 3 4 5 6 
#
# 1 122.7942 31.5885 39.1654 0.0000 0.0000 0.0000
# 2 31.5885 78.9396 12.4350 0.0000 0.0000 0.0000
# 3 39.1654 12.4350 94.2850 0.0000 0.0000 0.0000
# 4 0.0000 0.0000 0.0000 -2.6780 0.0000 0.0000
# 5 0.0000 0.0000 0.0000 0.0000 26.9453 0.0000
# 6 0.0000 0.0000 0.0000 0.0000 0.0000 22.0701
#
#
#
# Elastic Compliance Matrix: (Units=1/GPa)
#
#
# Indices 1 2 3 4 5 6 
#
# 1 0.010257 -0.003506 -0.003798 0.000000 0.000000 0.000000
# 2 -0.003506 0.014135 -0.000408 0.000000 0.000000 0.000000
# 3 -0.003798 -0.000408 0.012238 0.000000 0.000000 0.000000
# 4 0.000000 0.000000 0.000000 -0.373414 0.000000 0.000000
# 5 0.000000 0.000000 0.000000 0.000000 0.037112 0.000000
# 6 0.000000 0.000000 0.000000 0.000000 0.000000 0.045310
#
#
# Mechanical properties :
#
#
# Convention : Reuss Voigt Hill
#
# Bulk Modulus (GPa) = 47.15771 51.37738 49.26755
# Shear Modulus (GPa) = -21.56392 23.45614 0.94611
#
# Velocity S-wave (km/s) = -3.29720 3.43882 0.69064
# Velocity P-wave (km/s) = 3.04620 6.45518 5.04721
#
# Compressibility (1/GPa) = 0.02120544
#
# Stress axis : x y z
#
# Youngs Moduli (GPa) = 97.49305 70.74542 81.71454
#
# Poissons Ratio (x) = 0.24805 0.31038
# Poissons Ratio (y) = 0.34183 0.03332
# Poissons Ratio (z) = 0.37031 0.02885
#
# Static dielectric constant tensor:
#      x y z
#    x 1.717840 0.000000 0.000000 
#    y 0.000000 1.771190 0.000000 
#    z 0.000000 0.000000 2.714880 
# 
# From -- ./inp_files/38811.got.cif
#   From: 2010.05.17/outbox.cif.g08.bks.cpg/sg68_20_cif.got.tgz:38811.got - 2010.06.03 18:57:09.
