data_PCOD9505981
_publ_section_title
;
Structure prediction by ZEFSAII (Michael W. Deem and Ramdas Pophale) SiO2 
 PCOD9505981
Probable space group: C C C A
;
_chemical_formula_sum "Si O2"
_cell_formula_units_Z 128
_cell_length_a 19.881866
_cell_length_b 21.705197
_cell_length_c 15.115387
_cell_angle_alpha 90.000000
_cell_angle_beta 90.000000
_cell_angle_gamma 90.000000
_cell_volume 6522.891359
_symmetry_space_group_name_H-M "C C C A"
_symmetry_group_IT_number 68
_space_group.IT_coordinate_system_code '2'
_symmetry_cell_setting 'orthorhombic'
loop_
_space_group_symop_operation_xyz
x,y,z
-x,1/2-y,z
x,1/2-y,1/2-z
-x,y,1/2-z
-x,-y,-z
x,1/2+y,-z
-x,1/2+y,1/2+z
x,-y,1/2+z
1/2+x,1/2+y,z
1/2-x,-y,z
1/2+x,-y,1/2-z
1/2-x,1/2+y,1/2-z
1/2-x,1/2-y,-z
1/2+x,y,-z
1/2-x,y,1/2+z
1/2+x,1/2-y,1/2+z
loop_
_atom_site_type_symbol
_atom_site_label
_atom_site_fract_x
_atom_site_fract_y
_atom_site_fract_z
Si Si1 0.766424 0.656161 0.063068
Si Si2 0.560426 0.391326 0.798096
Si Si3 0.554853 0.635633 0.949347
Si Si4 0.953494 0.996365 0.086973
Si Si5 0.835405 0.726511 0.441552
Si Si6 0.442734 0.796641 0.444451
Si Si7 0.361472 0.085775 0.622688
Si Si8 0.822497 0.972164 0.486049
O O1 0.725966 0.685865 0.979675
O O2 0.707265 0.624410 0.118158
O O3 0.814262 0.599597 0.035726
O O4 0.804707 0.713887 0.106577
O O5 0.500000 0.356251 0.750000
O O6 0.528082 0.452467 0.842069
O O7 0.583376 0.346643 0.875556
O O8 0.610961 0.408151 0.720807
O O9 0.608179 0.681094 0.903020
O O10 0.485531 0.668108 0.978607
O O11 0.590748 0.612889 0.042799
O O12 0.543980 0.575308 0.890493
O O13 0.877878 0.015056 0.059990
O O14 0.000000 0.000000 0.000000
O O15 0.879952 0.758012 0.519765
O O16 0.500000 0.750000 0.408242
O O17 0.346377 0.015234 0.595522
O O18 0.750000 0.000000 0.512231
#
# Coordination Sequence:
#
# PCOD9505981 Si02
#       8
#    16  16  16  16  16  16  16  16
#     4   9  17  32  52  73 103 142 187 229 265 330
#     4  12  21  34  51  81 119 149 177 226 293 359
#     4   9  17  34  50  79 114 137 180 239 276 330
#     4  11  20  33  58  85 108 140 191 241 284 337
#     4   9  18  31  53  79 107 139 191 231 274 329
#     4  10  19  32  51  81 117 146 180 221 288 348
#     4   9  18  33  51  77 110 147 183 222 283 346
#     4   9  18  35  58  77 103 148 187 234 285 325
#
# _framework density 19.623200000000001
#
# number of rings (size 3 to 8) (size 9 to 14) (size 15 to 20)
#    0.000    2.250    2.500    2.250    0.000    0.250 
#    0.000    1.875    0.000    1.500    0.000    0.000 
#    0.000    0.000    0.000    0.000    0.000    0.000 
#
# Total GULP energy -356519.077279 kJ/mol
# GULP energy per Si atom -5570.610582 kJ/mol
# Density = 1.957854 g / cm^3
# Si number density = 19.623200 Si / 1000 Ang^3
#
#
#
# Elastic Constant Matrix: (Units=GPa)
#
#
# Indices 1 2 3 4 5 6 
#
# 1 57.7199 11.1204 4.1131 0.0000 0.0000 0.0000
# 2 11.1204 132.5820 10.4523 0.0000 0.0000 0.0000
# 3 4.1131 10.4523 23.7257 0.0000 0.0000 0.0000
# 4 0.0000 0.0000 0.0000 15.6332 0.0000 0.0000
# 5 0.0000 0.0000 0.0000 0.0000 19.3103 0.0000
# 6 0.0000 0.0000 0.0000 0.0000 0.0000 36.7847
#
#
#
# Elastic Compliance Matrix: (Units=1/GPa)
#
#
# Indices 1 2 3 4 5 6 
#
# 1 0.017753 -0.001291 -0.002509 0.000000 0.000000 0.000000
# 2 -0.001291 0.007908 -0.003260 0.000000 0.000000 0.000000
# 3 -0.002509 -0.003260 0.044020 0.000000 0.000000 0.000000
# 4 0.000000 0.000000 0.000000 0.063967 0.000000 0.000000
# 5 0.000000 0.000000 0.000000 0.000000 0.051786 0.000000
# 6 0.000000 0.000000 0.000000 0.000000 0.000000 0.027185
#
#
# Mechanical properties :
#
#
# Convention : Reuss Voigt Hill
#
# Bulk Modulus (GPa) = 17.99854 29.48880 23.74367
# Shear Modulus (GPa) = 20.38676 26.90177 23.64426
#
# Velocity S-wave (km/s) = 3.22671 3.70661 3.47495
# Velocity P-wave (km/s) = 4.80356 5.77743 5.31286
#
# Compressibility (1/GPa) = 0.05556008
#
# Stress axis : x y z
#
# Youngs Moduli (GPa) = 56.32982 126.45734 22.71720
#
# Poissons Ratio (x) = 0.16329 0.05699
# Poissons Ratio (y) = 0.07273 0.07406
# Poissons Ratio (z) = 0.14132 0.41224
#
# Static dielectric constant tensor:
#      x y z
#    x 1.755930 0.000000 0.000000 
#    y 0.000000 1.765050 0.000000 
#    z 0.000000 0.000000 1.653660 
# 
# From -- ./inp_files/33273.got.cif
#   From: 2010.05.17/outbox.cif.g08.bks.cpg/sg68_17_cif.got.tgz:33273.got - 2010.06.03 18:57:09.
