data_PCOD9505018
_publ_section_title
;
Structure prediction by ZEFSAII (Michael W. Deem and Ramdas Pophale) SiO2 
 PCOD9505018
Probable space group: C M M A
;
_chemical_formula_sum "Si O2"
_cell_formula_units_Z 52
_cell_length_a 21.528489
_cell_length_b 16.141440
_cell_length_c 6.987854
_cell_angle_alpha 90.000000
_cell_angle_beta 90.000000
_cell_angle_gamma 90.000000
_cell_volume 2428.284950
_symmetry_space_group_name_H-M "C M M A"
_symmetry_group_IT_number 67
_symmetry_cell_setting 'orthorhombic'
loop_
_space_group_symop_operation_xyz
x,y,z
-x,1/2-y,z
x,-y,-z
-x,1/2+y,-z
-x,-y,-z
x,1/2+y,-z
-x,y,z
x,1/2-y,z
1/2+x,1/2+y,z
1/2-x,-y,z
1/2+x,1/2-y,-z
1/2-x,y,-z
1/2-x,1/2-y,-z
1/2+x,y,-z
1/2-x,1/2+y,z
1/2+x,-y,z
loop_
_atom_site_type_symbol
_atom_site_label
_atom_site_fract_x
_atom_site_fract_y
_atom_site_fract_z
Si Si1 0.000000 0.750000 0.290061
Si Si2 0.429234 0.917680 0.268470
Si Si3 0.592790 0.108221 0.171392
Si Si4 0.180148 0.650680 0.459571
O O1 0.946933 0.821979 0.273797
O O2 0.500000 0.893883 0.327720
O O3 0.373146 0.888502 0.403616
O O4 0.426931 0.016787 0.239482
O O5 0.418065 0.883147 0.054413
O O6 0.662012 0.124015 0.244703
O O7 0.178065 0.750000 0.482125
O O8 0.250000 0.622373 0.500000
#
# Coordination Sequence:
#
# PCOD9505018 Si02
#       4
#     4  16  16  16
#     4  12  20  38  70 102 130 166 198 276 330 372
#     4  11  24  41  68 100 126 167 218 267 324 390
#     4  11  23  42  67  96 136 160 213 269 328 376
#     4  11  27  44  63  94 133 177 219 262 320 385
#
# _framework density 21.414290000000001
#
# number of rings (size 3 to 8) (size 9 to 14) (size 15 to 20)
#    0.000    0.923    4.615    1.846    4.308    5.538 
#    0.000    6.154    0.000    0.000    0.000    0.000 
#    0.000    0.000    0.000    0.000    0.000    0.000 
#
# Total GULP energy -144805.511257 kJ/mol
# GULP energy per Si atom -5569.442741 kJ/mol
# Density = 2.136555 g / cm^3
# Si number density = 21.414290 Si / 1000 Ang^3
#
#
#
# Elastic Constant Matrix: (Units=GPa)
#
#
# Indices 1 2 3 4 5 6 
#
# 1 181.4564 29.4394 64.6654 0.0000 0.0000 0.0000
# 2 29.4394 62.4363 28.6951 0.0000 0.0000 0.0000
# 3 64.6654 28.6951 92.2764 0.0000 0.0000 0.0000
# 4 0.0000 0.0000 0.0000 3.6090 0.0000 0.0000
# 5 0.0000 0.0000 0.0000 0.0000 30.2317 0.0000
# 6 0.0000 0.0000 0.0000 0.0000 0.0000 27.8146
#
#
#
# Elastic Compliance Matrix: (Units=1/GPa)
#
#
# Indices 1 2 3 4 5 6 
#
# 1 0.007434 -0.001296 -0.004807 0.000000 0.000000 0.000000
# 2 -0.001296 0.018913 -0.004973 0.000000 0.000000 0.000000
# 3 -0.004807 -0.004973 0.015752 0.000000 0.000000 0.000000
# 4 0.000000 0.000000 0.000000 0.277085 0.000000 0.000000
# 5 0.000000 0.000000 0.000000 0.000000 0.033078 0.000000
# 6 0.000000 0.000000 0.000000 0.000000 0.000000 0.035952
#
#
# Mechanical properties :
#
#
# Convention : Reuss Voigt Hill
#
# Bulk Modulus (GPa) = 50.13199 64.64100 57.38650
# Shear Modulus (GPa) = 11.98997 26.55568 19.27283
#
# Velocity S-wave (km/s) = 2.36880 3.52531 3.00325
# Velocity P-wave (km/s) = 5.56264 6.84265 6.23558
#
# Compressibility (1/GPa) = 0.01994734
#
# Stress axis : x y z
#
# Youngs Moduli (GPa) = 134.51341 52.87357 63.48456
#
# Poissons Ratio (x) = 0.06854 0.30515
# Poissons Ratio (y) = 0.17436 0.31571
# Poissons Ratio (z) = 0.64656 0.26294
#
# Static dielectric constant tensor:
#      x y z
#    x 1.836140 0.000000 0.000000 
#    y 0.000000 1.766120 0.000000 
#    z 0.000000 0.000000 1.845670 
# 
# From -- ./inp_files/7583.got.cif
#   From: 2010.05.17/outbox.cif.g08.bks.cpg/sg67_4_cif.got.tgz:7583.got - 2010.06.03 18:28:57.
