data_PCOD9505161
_publ_section_title
;
Structure prediction by ZEFSAII (Michael W. Deem and Ramdas Pophale) SiO2 
 PCOD9505161
Probable space group: C M M A
;
_chemical_formula_sum "Si O2"
_cell_formula_units_Z 44
_cell_length_a 18.000000
_cell_length_b 9.000000
_cell_length_c 30.000000
_cell_angle_alpha 90.000000
_cell_angle_beta 90.000000
_cell_angle_gamma 90.000000
_cell_volume 4860.000000
_symmetry_space_group_name_H-M "C M M A"
_symmetry_group_IT_number 67
_symmetry_cell_setting 'orthorhombic'
loop_
_space_group_symop_operation_xyz
x,y,z
-x,1/2-y,z
x,-y,-z
-x,1/2+y,-z
-x,-y,-z
x,1/2+y,-z
-x,y,z
x,1/2-y,z
1/2+x,1/2+y,z
1/2-x,-y,z
1/2+x,1/2-y,-z
1/2-x,y,-z
1/2-x,1/2-y,-z
1/2+x,y,-z
1/2-x,1/2+y,z
1/2+x,-y,z
loop_
_atom_site_type_symbol
_atom_site_label
_atom_site_fract_x
_atom_site_fract_y
_atom_site_fract_z
Si Si1 0.417129 0.421471 0.879480
Si Si2 0.000000 0.424349 0.952471
Si Si3 0.089423 0.576358 0.453278
Si Si4 0.670243 0.071087 0.793597
Si Si5 0.588386 0.576741 0.713151
Si Si6 0.831034 0.572320 0.630002
O O1 0.500000 0.426481 0.857475
O O2 0.404483 0.250000 0.892397
O O3 0.429744 0.520183 0.923034
O O4 0.357238 0.467204 0.843406
O O5 0.000000 0.250000 0.956671
O O6 0.000000 0.500000 0.000000
O O7 0.109518 0.500000 0.500000
O O8 0.111290 0.750000 0.452325
O O9 0.126289 0.486992 0.413335
O O10 0.000000 0.570113 0.448875
O O11 0.671765 0.250000 0.789571
O O12 0.750000 0.000000 0.784751
O O13 0.613775 0.000226 0.758610
O O14 0.500000 0.571869 0.708421
O O15 0.611803 0.750000 0.712402
O O16 0.626064 0.488386 0.673033
O O17 0.826850 0.750000 0.630399
O O18 0.750000 0.500000 0.630184
#
# Coordination Sequence:
#
# PCOD9505161 Si02
#       6
#    16   8  16  16  16  16
#     4   8  17  34  53  77 109 145 187 231 279 331
#     4  10  18  30  54  84 114 146 188 238 285 334
#     4  10  21  39  63  90 119 150 188 234 283 338
#     4  11  22  37  57  82 116 153 190 234 284 339
#     4  11  24  41  61  85 114 148 190 237 283 338
#     4  12  25  41  61  85 116 152 191 234 286 343
#
# _framework density 9.0534979999999994
#
# number of rings (size 3 to 8) (size 9 to 14) (size 15 to 20)
#    0.545    1.091    0.000    5.455    0.000    7.273 
#    0.000    1.818    0.000    0.545    0.000    3.818 
#    0.000    0.000    0.000    0.000    0.000    0.000 
#
# Total GULP energy -245559.483521 kJ/mol
# GULP energy per Si atom -5580.897353 kJ/mol
# Density = 0.903289 g / cm^3
# Si number density = 9.053498 Si / 1000 Ang^3
#
#
#
# Elastic Constant Matrix: (Units=GPa)
#
#
# Indices 1 2 3 4 5 6 
#
# 1 15.7554 36.8731 26.7470 0.0000 0.0000 0.0000
# 2 36.8731 160.9016 87.5736 0.0000 0.0000 0.0000
# 3 26.7470 87.5736 130.8970 0.0000 0.0000 0.0000
# 4 0.0000 0.0000 0.0000 33.4414 0.0000 0.0000
# 5 0.0000 0.0000 0.0000 0.0000 48.1816 0.0000
# 6 0.0000 0.0000 0.0000 0.0000 0.0000 -790.4237
#
#
#
# Elastic Compliance Matrix: (Units=1/GPa)
#
#
# Indices 1 2 3 4 5 6 
#
# 1 0.147722 -0.027402 -0.011852 0.000000 0.000000 0.000000
# 2 -0.027402 0.014857 -0.004340 0.000000 0.000000 0.000000
# 3 -0.011852 -0.004340 0.012965 0.000000 0.000000 0.000000
# 4 0.000000 0.000000 0.000000 0.029903 0.000000 0.000000
# 5 0.000000 0.000000 0.000000 0.000000 0.020755 0.000000
# 6 0.000000 0.000000 0.000000 0.000000 0.000000 -0.001265
#
#
# Mechanical properties :
#
#
# Convention : Reuss Voigt Hill
#
# Bulk Modulus (GPa) = 11.31801 67.77130 39.54466
# Shear Modulus (GPa) = 14.63794 -131.33612 -58.34909
#
# Velocity S-wave (km/s) = 2.84635 -8.52589 -5.68283
# Velocity P-wave (km/s) = 4.13116 7.70789 4.60137
#
# Compressibility (1/GPa) = 0.08835472
#
# Stress axis : x y z
#
# Youngs Moduli (GPa) = 6.76947 67.30855 77.12861
#
# Poissons Ratio (x) = 1.84439 0.91416
# Poissons Ratio (y) = 0.18550 0.33478
# Poissons Ratio (z) = 0.08023 0.29215
#
# Static dielectric constant tensor:
#      x y z
#    x 1.619190 0.000000 0.000000 
#    y 0.000000 1.600960 0.000000 
#    z 0.000000 0.000000 1.608020 
# 
# From -- ./inp_files/45270.got.cif
#   From: 2010.05.17/outbox.ucp.g08.bks.cvg/sg67_23_cif.got.tgz:45270.got - 2010.06.11 16:47:20.
