data_PCOD9505964
_publ_section_title
;
Structure prediction by ZEFSAII (Michael W. Deem and Ramdas Pophale) SiO2 
 PCOD9505964
Probable space group: C C C A
;
_chemical_formula_sum "Si O2"
_cell_formula_units_Z 88
_cell_length_a 21.169437
_cell_length_b 15.275988
_cell_length_c 12.324496
_cell_angle_alpha 90.000000
_cell_angle_beta 90.000000
_cell_angle_gamma 90.000000
_cell_volume 3985.545623
_symmetry_space_group_name_H-M "C C C A"
_symmetry_group_IT_number 68
_space_group.IT_coordinate_system_code '2'
_symmetry_cell_setting 'orthorhombic'
loop_
_space_group_symop_operation_xyz
x,y,z
-x,1/2-y,z
x,1/2-y,1/2-z
-x,y,1/2-z
-x,-y,-z
x,1/2+y,-z
-x,1/2+y,1/2+z
x,-y,1/2+z
1/2+x,1/2+y,z
1/2-x,-y,z
1/2+x,-y,1/2-z
1/2-x,1/2+y,1/2-z
1/2-x,1/2-y,-z
1/2+x,y,-z
1/2-x,y,1/2+z
1/2+x,1/2-y,1/2+z
loop_
_atom_site_type_symbol
_atom_site_label
_atom_site_fract_x
_atom_site_fract_y
_atom_site_fract_z
Si Si1 0.563772 0.411444 0.687974
Si Si2 0.623207 0.932216 0.094304
Si Si3 0.826983 0.837553 0.217076
Si Si4 0.562416 0.383475 0.119175
Si Si5 0.750000 0.500000 0.354084
Si Si6 0.924304 0.371764 0.945903
O O1 0.500000 0.386882 0.750000
O O2 0.615961 0.401602 0.781694
O O3 0.559355 0.513622 0.652366
O O4 0.571502 0.361955 0.574869
O O5 0.696430 0.952811 0.074772
O O6 0.586883 0.025442 0.083663
O O7 0.591410 0.875092 0.001475
O O8 0.790842 0.750000 0.250000
O O9 0.886993 0.845875 0.297341
O O10 0.861565 0.828183 0.101197
O O11 0.785942 0.925486 0.214626
O O12 0.490763 0.349219 0.111217
#
# Coordination Sequence:
#
# PCOD9505964 Si02
#       6
#    16  16  16  16   8  16
#     4  11  15  30  56  90 127 159 211 263 314 378
#     4  10  19  32  55  87 121 170 216 264 310 375
#     4  11  24  42  62  93 125 168 217 273 324 383
#     4  11  18  32  58  92 129 157 205 267 328 381
#     4  10  22  42  60  88 126 170 230 262 316 378
#     4  10  19  31  57  95 129 159 206 268 327 389
#
# _framework density 22.079787
#
# number of rings (size 3 to 8) (size 9 to 14) (size 15 to 20)
#    0.000    1.455    7.273    1.636    0.000    2.182 
#    3.273    0.909    0.000    0.000    0.000    0.000 
#    0.000   10.182    0.000    0.000    0.000    0.000 
#
# Total GULP energy -245616.750746 kJ/mol
# GULP energy per Si atom -5582.198881 kJ/mol
# Density = 2.202953 g / cm^3
# Si number density = 22.079787 Si / 1000 Ang^3
#
#
#
# Elastic Constant Matrix: (Units=GPa)
#
#
# Indices 1 2 3 4 5 6 
#
# 1 105.2591 18.9933 27.5088 0.0000 0.0000 0.0000
# 2 18.9933 61.1626 18.4532 0.0000 0.0000 0.0000
# 3 27.5088 18.4532 130.3699 0.0000 0.0000 0.0000
# 4 0.0000 0.0000 0.0000 8.9792 0.0000 0.0000
# 5 0.0000 0.0000 0.0000 0.0000 11.7957 0.0000
# 6 0.0000 0.0000 0.0000 0.0000 0.0000 -2.3275
#
#
#
# Elastic Compliance Matrix: (Units=1/GPa)
#
#
# Indices 1 2 3 4 5 6 
#
# 1 0.010465 -0.002699 -0.001826 0.000000 0.000000 0.000000
# 2 -0.002699 0.017775 -0.001947 0.000000 0.000000 0.000000
# 3 -0.001826 -0.001947 0.008331 0.000000 0.000000 0.000000
# 4 0.000000 0.000000 0.000000 0.111368 0.000000 0.000000
# 5 0.000000 0.000000 0.000000 0.000000 0.084777 0.000000
# 6 0.000000 0.000000 0.000000 0.000000 0.000000 -0.429643
#
#
# Mechanical properties :
#
#
# Convention : Reuss Voigt Hill
#
# Bulk Modulus (GPa) = 42.32197 47.41136 44.86666
# Shear Modulus (GPa) = -28.39159 19.14523 -4.62318
#
# Velocity S-wave (km/s) = -3.58978 2.94784 -1.44858
# Velocity P-wave (km/s) = 1.42383 5.75376 4.19124
#
# Compressibility (1/GPa) = 0.02362839
#
# Stress axis : x y z
#
# Youngs Moduli (GPa) = 95.56058 56.25819 120.02892
#
# Poissons Ratio (x) = 0.15182 0.21918
# Poissons Ratio (y) = 0.25789 0.23364
# Poissons Ratio (z) = 0.17450 0.10951
#
# Static dielectric constant tensor:
#      x y z
#    x 1.815250 0.000000 0.000000 
#    y 0.000000 1.909470 0.000000 
#    z 0.000000 0.000000 1.834950 
# 
# From -- ./inp_files/14427.got.cif
#   From: 2010.05.17/outbox.cif.g08.bks.cpg/sg68_8_cif.got.tgz:14427.got - 2010.06.03 18:57:09.
