data_PCOD9505384
_publ_section_title
;
Structure prediction by ZEFSAII (Michael W. Deem and Ramdas Pophale) SiO2 
 PCOD9505384
Probable space group: C C C A
;
_chemical_formula_sum "Si O2"
_cell_formula_units_Z 104
_cell_length_a 20.865571
_cell_length_b 8.870432
_cell_length_c 31.474472
_cell_angle_alpha 90.000000
_cell_angle_beta 90.000000
_cell_angle_gamma 90.000000
_cell_volume 5825.503912
_symmetry_space_group_name_H-M "C C C A"
_symmetry_group_IT_number 68
_space_group.IT_coordinate_system_code '2'
_symmetry_cell_setting 'orthorhombic'
loop_
_space_group_symop_operation_xyz
x,y,z
-x,1/2-y,z
x,1/2-y,1/2-z
-x,y,1/2-z
-x,-y,-z
x,1/2+y,-z
-x,1/2+y,1/2+z
x,-y,1/2+z
1/2+x,1/2+y,z
1/2-x,-y,z
1/2+x,-y,1/2-z
1/2-x,1/2+y,1/2-z
1/2-x,1/2-y,-z
1/2+x,y,-z
1/2-x,y,1/2+z
1/2+x,1/2-y,1/2+z
loop_
_atom_site_type_symbol
_atom_site_label
_atom_site_fract_x
_atom_site_fract_y
_atom_site_fract_z
Si Si1 0.500000 0.750000 0.417833
Si Si2 0.047226 0.966826 0.289155
Si Si3 0.621026 0.250000 0.750000
Si Si4 0.354537 0.250000 0.250000
Si Si5 0.945765 0.968626 0.364603
Si Si6 0.318589 0.988849 0.190227
Si Si7 0.924257 0.734145 0.055711
Si Si8 0.430080 0.544529 0.019009
O O1 0.468195 0.615170 0.391207
O O2 0.445838 0.824851 0.447418
O O3 0.077787 0.131323 0.277544
O O4 0.000000 0.938155 0.250000
O O5 0.101958 0.841865 0.283797
O O6 0.004891 0.948317 0.331481
O O7 0.665312 0.341609 0.717721
O O8 0.316972 0.125517 0.223931
O O9 0.881186 0.996042 0.338589
O O10 0.927386 0.834287 0.397153
O O11 0.250000 0.000000 0.167618
O O12 0.000000 0.750000 0.046465
O O13 0.900358 0.901554 0.043595
O O14 0.895441 0.615040 0.022031
O O15 0.500000 0.500000 0.000000
#
# Coordination Sequence:
#
# PCOD9505384 Si02
#       8
#     8  16   8   8  16  16  16  16
#     4  12  20  30  49  84 110 140 163 212 272 340
#     4  11  21  34  54  80 114 137 170 221 285 340
#     4  10  20  40  56  74 101 147 184 226 282 315
#     4  10  22  36  58  74  99 147 186 228 276 319
#     4  12  23  30  52  80 112 138 175 215 280 312
#     4  11  24  39  54  72 102 147 200 233 257 304
#     4  10  18  30  48  77 110 143 162 206 253 345
#     4  10  16  32  49  72 119 139 164 191 267 342
#
# _framework density 17.852533000000001
#
# number of rings (size 3 to 8) (size 9 to 14) (size 15 to 20)
#    0.000    1.231    8.462    1.846    2.154    0.000 
#    0.000    0.000    0.000    0.000    0.000    4.308 
#    0.000    0.000    0.000    0.000    0.000    0.000 
#
# Total GULP energy -289550.284830 kJ/mol
# GULP energy per Si atom -5568.274708 kJ/mol
# Density = 1.781190 g / cm^3
# Si number density = 17.852533 Si / 1000 Ang^3
#
#
#
# Elastic Constant Matrix: (Units=GPa)
#
#
# Indices 1 2 3 4 5 6 
#
# 1 53.2335 8.2637 14.4144 0.0000 0.0000 0.0000
# 2 8.2637 90.2246 41.0717 0.0000 0.0000 0.0000
# 3 14.4144 41.0717 100.1602 0.0000 0.0000 0.0000
# 4 0.0000 0.0000 0.0000 -8.0338 0.0000 0.0000
# 5 0.0000 0.0000 0.0000 0.0000 0.2926 0.0000
# 6 0.0000 0.0000 0.0000 0.0000 0.0000 -3.4723
#
#
#
# Elastic Compliance Matrix: (Units=1/GPa)
#
#
# Indices 1 2 3 4 5 6 
#
# 1 0.019576 -0.000628 -0.002560 0.000000 0.000000 0.000000
# 2 -0.000628 0.013647 -0.005506 0.000000 0.000000 0.000000
# 3 -0.002560 -0.005506 0.012610 0.000000 0.000000 0.000000
# 4 0.000000 0.000000 0.000000 -0.124473 0.000000 0.000000
# 5 0.000000 0.000000 0.000000 0.000000 3.417850 0.000000
# 6 0.000000 0.000000 0.000000 0.000000 0.000000 -0.287994
#
#
# Mechanical properties :
#
#
# Convention : Reuss Voigt Hill
#
# Bulk Modulus (GPa) = 35.15380 41.23533 38.19457
# Shear Modulus (GPa) = 1.62439 9.74852 5.68645
#
# Velocity S-wave (km/s) = 0.95492 2.33932 1.78666
# Velocity P-wave (km/s) = 4.57709 5.51765 5.06923
#
# Compressibility (1/GPa) = 0.02844642
#
# Stress axis : x y z
#
# Youngs Moduli (GPa) = 51.08361 73.27448 79.30117
#
# Poissons Ratio (x) = 0.04599 0.20300
# Poissons Ratio (y) = 0.03206 0.43662
# Poissons Ratio (z) = 0.13077 0.40344
#
# Static dielectric constant tensor:
#      x y z
#    x 1.633280 0.000000 0.000000 
#    y 0.000000 1.728630 0.000000 
#    z 0.000000 0.000000 1.516260 
# 
# From -- ./inp_files/56056.got.cif
#   From: 2010.05.17/outbox.cif.g08.bks.cpg/sg68_29_cif.got.tgz:56056.got - 2010.06.03 18:57:09.
