data_PCOD9505855
_publ_section_title
;
Structure prediction by ZEFSAII (Michael W. Deem and Ramdas Pophale) SiO2 
 PCOD9505855
Probable space group: C C C A
;
_chemical_formula_sum "Si O2"
_cell_formula_units_Z 112
_cell_length_a 12.241704
_cell_length_b 34.167435
_cell_length_c 14.166481
_cell_angle_alpha 90.000000
_cell_angle_beta 90.000000
_cell_angle_gamma 90.000000
_cell_volume 5925.380373
_symmetry_space_group_name_H-M "C C C A"
_symmetry_group_IT_number 68
_space_group.IT_coordinate_system_code '2'
_symmetry_cell_setting 'orthorhombic'
loop_
_space_group_symop_operation_xyz
x,y,z
-x,1/2-y,z
x,1/2-y,1/2-z
-x,y,1/2-z
-x,-y,-z
x,1/2+y,-z
-x,1/2+y,1/2+z
x,-y,1/2+z
1/2+x,1/2+y,z
1/2-x,-y,z
1/2+x,-y,1/2-z
1/2-x,1/2+y,1/2-z
1/2-x,1/2-y,-z
1/2+x,y,-z
1/2-x,y,1/2+z
1/2+x,1/2-y,1/2+z
loop_
_atom_site_type_symbol
_atom_site_label
_atom_site_fract_x
_atom_site_fract_y
_atom_site_fract_z
Si Si1 0.240120 0.354274 0.141225
Si Si2 0.421424 0.037444 0.003843
Si Si3 0.253508 0.077064 0.618004
Si Si4 0.883518 0.426021 0.297962
Si Si5 0.576113 0.605554 0.964823
Si Si6 0.126707 0.204269 0.730047
Si Si7 0.369223 0.154280 0.055686
O O1 0.142791 0.380235 0.183623
O O2 0.336600 0.384793 0.115269
O O3 0.291014 0.321063 0.206183
O O4 0.198997 0.340087 0.039399
O O5 0.387975 0.052145 0.898638
O O6 0.310033 0.042502 0.063350
O O7 0.499360 0.069074 0.053987
O O8 0.500000 0.000000 0.000000
O O9 0.292179 0.063169 0.720416
O O10 0.358481 0.092312 0.558407
O O11 0.179532 0.116667 0.613331
O O12 0.000000 0.431714 0.250000
O O13 0.493055 0.642154 0.971889
O O14 0.140858 0.250000 0.750000
O O15 0.141601 0.191455 0.622194
O O16 0.000000 0.193645 0.750000
#
# Coordination Sequence:
#
# PCOD9505855 Si02
#       7
#    16  16  16  16  16  16  16
#     4  11  21  37  64  91 117 168 209 257 314 379
#     4  11  24  41  60  90 131 160 202 269 320 370
#     4  10  20  37  64  90 116 164 213 251 315 373
#     4  12  21  39  67  94 118 161 218 257 312 386
#     4  10  18  38  60  88 120 158 207 254 307 372
#     4  11  23  37  59  92 129 165 209 267 314 365
#     4  10  19  35  62  90 120 156 210 256 305 376
#
# _framework density 18.901738999999999
#
# number of rings (size 3 to 8) (size 9 to 14) (size 15 to 20)
#    0.000    1.286    8.571    0.000    0.000    1.143 
#    0.000    2.857    0.000    0.429    0.000    0.000 
#    0.000    0.000    0.000    0.000    0.000    0.000 
#
# Total GULP energy -312062.094039 kJ/mol
# GULP energy per Si atom -5572.537394 kJ/mol
# Density = 1.885872 g / cm^3
# Si number density = 18.901739 Si / 1000 Ang^3
#
#
#
# Elastic Constant Matrix: (Units=GPa)
#
#
# Indices 1 2 3 4 5 6 
#
# 1 69.6710 22.7020 47.5845 0.0000 0.0000 0.0000
# 2 22.7020 77.5564 42.4388 0.0000 0.0000 0.0000
# 3 47.5845 42.4388 95.6877 0.0000 0.0000 0.0000
# 4 0.0000 0.0000 0.0000 18.4814 0.0000 0.0000
# 5 0.0000 0.0000 0.0000 0.0000 31.1020 0.0000
# 6 0.0000 0.0000 0.0000 0.0000 0.0000 24.6522
#
#
#
# Elastic Compliance Matrix: (Units=1/GPa)
#
#
# Indices 1 2 3 4 5 6 
#
# 1 0.021756 -0.000592 -0.010557 0.000000 0.000000 0.000000
# 2 -0.000592 0.017042 -0.007264 0.000000 0.000000 0.000000
# 3 -0.010557 -0.007264 0.018922 0.000000 0.000000 0.000000
# 4 0.000000 0.000000 0.000000 0.054108 0.000000 0.000000
# 5 0.000000 0.000000 0.000000 0.000000 0.032152 0.000000
# 6 0.000000 0.000000 0.000000 0.000000 0.000000 0.040564
#
#
# Mechanical properties :
#
#
# Convention : Reuss Voigt Hill
#
# Bulk Modulus (GPa) = 47.85791 52.04065 49.94928
# Shear Modulus (GPa) = 21.89764 23.52643 22.71204
#
# Velocity S-wave (km/s) = 3.40737 3.53182 3.47015
# Velocity P-wave (km/s) = 6.39175 6.65008 6.52220
#
# Compressibility (1/GPa) = 0.02089519
#
# Stress axis : x y z
#
# Youngs Moduli (GPa) = 45.96424 58.67869 52.84830
#
# Poissons Ratio (x) = 0.03472 0.55790
# Poissons Ratio (y) = 0.02720 0.38389
# Poissons Ratio (z) = 0.48523 0.42625
#
# Static dielectric constant tensor:
#      x y z
#    x 1.852160 0.000000 0.000000 
#    y 0.000000 1.662080 0.000000 
#    z 0.000000 0.000000 1.774310 
# 
# From -- ./inp_files/21283.got.cif
#   From: 2010.05.17/outbox.cif.g08.bks.cpg/sg68_11_cif.got.tgz:21283.got - 2010.06.03 18:57:09.
