data_PCOD9505108
_publ_section_title
;
Structure prediction by ZEFSAII (Michael W. Deem and Ramdas Pophale) SiO2 
 PCOD9505108
Probable space group: C M M A
;
_chemical_formula_sum "Si O2"
_cell_formula_units_Z 104
_cell_length_a 7.391418
_cell_length_b 28.225143
_cell_length_c 24.986446
_cell_angle_alpha 90.000000
_cell_angle_beta 90.000000
_cell_angle_gamma 90.000000
_cell_volume 5212.768063
_symmetry_space_group_name_H-M "C M M A"
_symmetry_group_IT_number 67
_symmetry_cell_setting 'orthorhombic'
loop_
_space_group_symop_operation_xyz
x,y,z
-x,1/2-y,z
x,-y,-z
-x,1/2+y,-z
-x,-y,-z
x,1/2+y,-z
-x,y,z
x,1/2-y,z
1/2+x,1/2+y,z
1/2-x,-y,z
1/2+x,1/2-y,-z
1/2-x,y,-z
1/2-x,1/2-y,-z
1/2+x,y,-z
1/2-x,1/2+y,z
1/2+x,-y,z
loop_
_atom_site_type_symbol
_atom_site_label
_atom_site_fract_x
_atom_site_fract_y
_atom_site_fract_z
Si Si1 0.783237 0.854602 0.062744
Si Si2 0.780139 0.897383 0.166594
Si Si3 0.784682 0.250000 0.936349
Si Si4 0.779497 0.854457 0.334031
Si Si5 0.780650 0.802076 0.228089
Si Si6 0.215822 0.446312 0.728927
Si Si7 0.783803 0.695893 0.439504
O O1 0.719079 0.893900 0.105112
O O2 0.000000 0.851936 0.067713
O O3 0.750000 0.863084 0.000000
O O4 0.714725 0.801920 0.079566
O O5 0.728890 0.846584 0.192119
O O6 0.716599 0.935312 0.210573
O O7 0.000000 0.900760 0.165701
O O8 0.000000 0.250000 0.924578
O O9 0.750000 0.250000 0.000000
O O10 0.731062 0.815768 0.288816
O O11 0.717528 0.905340 0.311289
O O12 0.716016 0.837653 0.392041
O O13 0.000000 0.856022 0.335355
O O14 0.716042 0.750000 0.212331
O O15 0.000000 0.800971 0.225789
O O16 0.250000 0.500000 0.712811
O O17 0.000000 0.440192 0.730711
O O18 0.714087 0.750000 0.434762
O O19 0.750000 0.679289 0.500000
O O20 0.000000 0.698533 0.433145
#
# Coordination Sequence:
#
# PCOD9505108 Si02
#       7
#    16  16   8  16  16  16  16
#     4   9  16  26  39  57  82 111 139 167 200 241
#     4   8  15  25  39  60  84 107 133 170 212 251
#     4   8  14  22  34  52  76 106 138 162 185 224
#     4   8  14  25  41  62  87 113 141 175 213 250
#     4   8  12  18  33  58  84 108 135 168 206 247
#     4   9  17  31  49  67  85 106 136 177 224 264
#     4   9  16  26  42  65  94 125 152 175 202 240
#
# _framework density 19.951011999999999
#
# number of rings (size 3 to 8) (size 9 to 14) (size 15 to 20)
#    0.000    3.538    0.000    2.308    1.077    1.846 
#    0.000    1.538    0.000    0.923    0.000    6.462 
#    0.000    4.000    0.000    0.000    0.000    0.000 
#
# Total GULP energy -289619.296719 kJ/mol
# GULP energy per Si atom -5569.601860 kJ/mol
# Density = 1.990560 g / cm^3
# Si number density = 19.951012 Si / 1000 Ang^3
#
#
#
# Elastic Constant Matrix: (Units=GPa)
#
#
# Indices 1 2 3 4 5 6 
#
# 1 66.3641 -1.1294 0.3993 0.0000 0.0000 0.0000
# 2 -1.1294 65.4567 27.9499 0.0000 0.0000 0.0000
# 3 0.3993 27.9499 124.2408 0.0000 0.0000 0.0000
# 4 0.0000 0.0000 0.0000 19.3294 0.0000 0.0000
# 5 0.0000 0.0000 0.0000 0.0000 6.8737 0.0000
# 6 0.0000 0.0000 0.0000 0.0000 0.0000 3.6951
#
#
#
# Elastic Compliance Matrix: (Units=1/GPa)
#
#
# Indices 1 2 3 4 5 6 
#
# 1 0.015074 0.000311 -0.000118 0.000000 0.000000 0.000000
# 2 0.000311 0.016907 -0.003805 0.000000 0.000000 0.000000
# 3 -0.000118 -0.003805 0.008905 0.000000 0.000000 0.000000
# 4 0.000000 0.000000 0.000000 0.051735 0.000000 0.000000
# 5 0.000000 0.000000 0.000000 0.000000 0.145482 0.000000
# 6 0.000000 0.000000 0.000000 0.000000 0.000000 0.270632
#
#
# Mechanical properties :
#
#
# Convention : Reuss Voigt Hill
#
# Bulk Modulus (GPa) = 29.70689 34.50015 32.10352
# Shear Modulus (GPa) = 9.48442 21.23575 15.36009
#
# Velocity S-wave (km/s) = 2.18270 3.26605 2.77770
# Velocity P-wave (km/s) = 4.61243 5.61718 5.13942
#
# Compressibility (1/GPa) = 0.03366222
#
# Stress axis : x y z
#
# Youngs Moduli (GPa) = 66.33768 59.14653 112.29450
#
# Poissons Ratio (x) = -0.01837 0.01329
# Poissons Ratio (y) = -0.02061 0.42723
# Poissons Ratio (z) = 0.00785 0.22502
#
# Static dielectric constant tensor:
#      x y z
#    x 1.809070 0.000000 0.000000 
#    y 0.000000 1.704910 0.000000 
#    z 0.000000 0.000000 1.727370 
# 
# From -- ./inp_files/38031.got.cif
#   From: 2010.05.17/outbox.cif.g08.bks.cpg/sg67_20_cif.got.tgz:38031.got - 2010.06.03 18:28:57.
