data_PCOD9505906
_publ_section_title
;
Structure prediction by ZEFSAII (Michael W. Deem and Ramdas Pophale) SiO2 
 PCOD9505906
Probable space group: C C C A
;
_chemical_formula_sum "Si O2"
_cell_formula_units_Z 112
_cell_length_a 38.507931
_cell_length_b 5.226087
_cell_length_c 29.782745
_cell_angle_alpha 90.000000
_cell_angle_beta 90.000000
_cell_angle_gamma 90.000000
_cell_volume 5993.652272
_symmetry_space_group_name_H-M "C C C A"
_symmetry_group_IT_number 68
_space_group.IT_coordinate_system_code '2'
_symmetry_cell_setting 'orthorhombic'
loop_
_space_group_symop_operation_xyz
x,y,z
-x,1/2-y,z
x,1/2-y,1/2-z
-x,y,1/2-z
-x,-y,-z
x,1/2+y,-z
-x,1/2+y,1/2+z
x,-y,1/2+z
1/2+x,1/2+y,z
1/2-x,-y,z
1/2+x,-y,1/2-z
1/2-x,1/2+y,1/2-z
1/2-x,1/2-y,-z
1/2+x,y,-z
1/2-x,y,1/2+z
1/2+x,1/2-y,1/2+z
loop_
_atom_site_type_symbol
_atom_site_label
_atom_site_fract_x
_atom_site_fract_y
_atom_site_fract_z
Si Si1 0.710460 0.986981 0.971554
Si Si2 0.354965 0.827557 0.086458
Si Si3 0.041306 0.245162 0.971218
Si Si4 0.114107 0.831154 0.296766
Si Si5 0.763424 0.248803 0.300538
Si Si6 0.099817 0.329844 0.598182
Si Si7 0.657035 0.172702 0.809559
O O1 0.678838 0.087918 0.941291
O O2 0.750000 0.000000 0.953043
O O3 0.707697 0.191715 0.012702
O O4 0.376919 0.566044 0.078911
O O5 0.342725 0.796219 0.137266
O O6 0.380957 0.067260 0.085508
O O7 0.063123 0.180711 0.926909
O O8 0.000000 0.250000 0.962529
O O9 0.049584 0.521016 0.992875
O O10 0.094890 0.750000 0.250000
O O11 0.097111 0.836257 0.346900
O O12 0.143979 0.613128 0.299770
O O13 0.131131 0.109540 0.291763
O O14 0.746871 0.250000 0.250000
O O15 0.750000 0.500000 0.324058
O O16 0.804144 0.231456 0.295467
O O17 0.750000 0.000000 0.324941
#
# Coordination Sequence:
#
# PCOD9505906 Si02
#       7
#    16  16  16  16  16  16  16
#     4  10  21  36  52  70  96 134 176 218 271 330
#     4  10  21  35  52  76 102 131 172 222 266 306
#     4  10  21  37  58  85 117 150 176 205 258 319
#     4  10  19  33  53  73 100 136 171 214 263 310
#     4  10  19  29  42  61  85 115 154 200 251 307
#     4  10  21  35  54  83 110 136 179 223 260 311
#     4  10  20  33  48  69  95 126 167 212 264 318
#
# _framework density 18.686437999999999
#
# number of rings (size 3 to 8) (size 9 to 14) (size 15 to 20)
#    0.000    2.000    0.000    3.857    0.000    5.143 
#    0.000    2.143    0.000    0.429    0.000    0.000 
#    0.000   10.286    0.000    0.000    0.000    1.714 
#
# Total GULP energy -311877.571676 kJ/mol
# GULP energy per Si atom -5569.242351 kJ/mol
# Density = 1.864391 g / cm^3
# Si number density = 18.686438 Si / 1000 Ang^3
#
#
#
# Elastic Constant Matrix: (Units=GPa)
#
#
# Indices 1 2 3 4 5 6 
#
# 1 65.6264 24.9403 50.2506 0.0000 0.0000 0.0000
# 2 24.9403 132.4251 18.5417 0.0000 0.0000 0.0000
# 3 50.2506 18.5417 70.8370 0.0000 0.0000 0.0000
# 4 0.0000 0.0000 0.0000 16.3977 0.0000 0.0000
# 5 0.0000 0.0000 0.0000 0.0000 4.9932 0.0000
# 6 0.0000 0.0000 0.0000 0.0000 0.0000 11.6322
#
#
#
# Elastic Compliance Matrix: (Units=1/GPa)
#
#
# Indices 1 2 3 4 5 6 
#
# 1 0.034614 -0.003198 -0.023717 0.000000 0.000000 0.000000
# 2 -0.003198 0.008134 0.000140 0.000000 0.000000 0.000000
# 3 -0.023717 0.000140 0.030905 0.000000 0.000000 0.000000
# 4 0.000000 0.000000 0.000000 0.060984 0.000000 0.000000
# 5 0.000000 0.000000 0.000000 0.000000 0.200273 0.000000
# 6 0.000000 0.000000 0.000000 0.000000 0.000000 0.085968
#
#
# Mechanical properties :
#
#
# Convention : Reuss Voigt Hill
#
# Bulk Modulus (GPa) = 49.74816 50.70594 50.22705
# Shear Modulus (GPa) = 10.39220 18.28169 14.33694
#
# Velocity S-wave (km/s) = 2.36081 3.13124 2.77291
# Velocity P-wave (km/s) = 5.84052 6.34562 6.09830
#
# Compressibility (1/GPa) = 0.02010125
#
# Stress axis : x y z
#
# Youngs Moduli (GPa) = 28.89042 122.93739 32.35727
#
# Poissons Ratio (x) = 0.39317 0.76742
# Poissons Ratio (y) = 0.09240 -0.00452
# Poissons Ratio (z) = 0.68520 -0.01716
#
# Static dielectric constant tensor:
#      x y z
#    x 1.574790 0.000000 0.000000 
#    y 0.000000 1.695790 0.000000 
#    z 0.000000 0.000000 1.712820 
# 
# From -- ./inp_files/56292.got.cif
#   From: 2010.05.17/outbox.cif.g08.bks.cpg/sg68_29_cif.got.tgz:56292.got - 2010.06.03 18:57:09.
