data_PCOD9505460
_publ_section_title
;
Structure prediction by ZEFSAII (Michael W. Deem and Ramdas Pophale) SiO2 
 PCOD9505460
Probable space group: C C C A
;
_chemical_formula_sum "Si O2"
_cell_formula_units_Z 80
_cell_length_a 18.384896
_cell_length_b 31.830495
_cell_length_c 5.635207
_cell_angle_alpha 90.000000
_cell_angle_beta 90.000000
_cell_angle_gamma 90.000000
_cell_volume 3297.725054
_symmetry_space_group_name_H-M "C C C A"
_symmetry_group_IT_number 68
_space_group.IT_coordinate_system_code '2'
_symmetry_cell_setting 'orthorhombic'
loop_
_space_group_symop_operation_xyz
x,y,z
-x,1/2-y,z
x,1/2-y,1/2-z
-x,y,1/2-z
-x,-y,-z
x,1/2+y,-z
-x,1/2+y,1/2+z
x,-y,1/2+z
1/2+x,1/2+y,z
1/2-x,-y,z
1/2+x,-y,1/2-z
1/2-x,1/2+y,1/2-z
1/2-x,1/2-y,-z
1/2+x,y,-z
1/2-x,y,1/2+z
1/2+x,1/2-y,1/2+z
loop_
_atom_site_type_symbol
_atom_site_label
_atom_site_fract_x
_atom_site_fract_y
_atom_site_fract_z
Si Si1 0.406898 0.863598 0.394002
Si Si2 0.082605 0.233719 0.497832
Si Si3 0.753654 0.168127 0.640932
Si Si4 0.778092 0.047939 0.593502
Si Si5 0.894897 0.607259 0.389373
O O1 0.424278 0.816108 0.470122
O O2 0.318547 0.861125 0.363455
O O3 0.427195 0.891090 0.624347
O O4 0.432971 0.876919 0.130750
O O5 0.116507 0.250000 0.250000
O O6 0.000000 0.250000 0.499644
O O7 0.114008 0.250000 0.750000
O O8 0.748788 0.191782 0.390980
O O9 0.826550 0.140117 0.633072
O O10 0.742494 0.065032 0.352866
O O11 0.861981 0.060902 0.565820
O O12 0.750000 0.000000 0.602743
#
# Coordination Sequence:
#
# PCOD9505460 Si02
#       5
#    16  16  16  16  16
#     4  10  18  29  49  68  87 122 166 210 252 298
#     4  10  21  37  54  71  92 118 157 209 279 334
#     4   8  14  23  39  59  83 112 150 188 223 263
#     4  10  18  27  41  65  99 139 181 209 235 276
#     4  10  17  28  45  67  95 129 173 204 233 285
#
# _framework density 24.259148
#
# number of rings (size 3 to 8) (size 9 to 14) (size 15 to 20)
#    0.000    2.400    0.000    6.000    0.000    0.000 
#    0.000    0.000    0.000   32.400    0.000    0.000 
#    0.000    0.000    0.000    0.000    0.000 1856.000 
#
# Total GULP energy -222961.722098 kJ/mol
# GULP energy per Si atom -5574.043052 kJ/mol
# Density = 2.420393 g / cm^3
# Si number density = 24.259148 Si / 1000 Ang^3
#
#
#
# Elastic Constant Matrix: (Units=GPa)
#
#
# Indices 1 2 3 4 5 6 
#
# 1 51.0751 9.2064 20.8770 0.0000 0.0000 0.0000
# 2 9.2064 106.7353 37.9988 0.0000 0.0000 0.0000
# 3 20.8770 37.9988 320.6918 0.0000 0.0000 0.0000
# 4 0.0000 0.0000 0.0000 24.3721 0.0000 0.0000
# 5 0.0000 0.0000 0.0000 0.0000 34.5572 0.0000
# 6 0.0000 0.0000 0.0000 0.0000 0.0000 28.1030
#
#
#
# Elastic Compliance Matrix: (Units=1/GPa)
#
#
# Indices 1 2 3 4 5 6 
#
# 1 0.020295 -0.001337 -0.001163 0.000000 0.000000 0.000000
# 2 -0.001337 0.009870 -0.001082 0.000000 0.000000 0.000000
# 3 -0.001163 -0.001082 0.003322 0.000000 0.000000 0.000000
# 4 0.000000 0.000000 0.000000 0.041031 0.000000 0.000000
# 5 0.000000 0.000000 0.000000 0.000000 0.028938 0.000000
# 6 0.000000 0.000000 0.000000 0.000000 0.000000 0.035583
#
#
# Mechanical properties :
#
#
# Convention : Reuss Voigt Hill
#
# Bulk Modulus (GPa) = 37.98905 68.29628 53.14267
# Shear Modulus (GPa) = 32.26290 44.76778 38.51534
#
# Velocity S-wave (km/s) = 3.65077 4.30047 3.98887
# Velocity P-wave (km/s) = 5.78485 7.27136 6.57028
#
# Compressibility (1/GPa) = 0.02632337
#
# Stress axis : x y z
#
# Youngs Moduli (GPa) = 49.27260 101.32109 301.00367
#
# Poissons Ratio (x) = 0.13542 0.35002
# Poissons Ratio (y) = 0.06586 0.32582
# Poissons Ratio (z) = 0.05730 0.10967
#
# Static dielectric constant tensor:
#      x y z
#    x 2.002230 0.000000 0.000000 
#    y 0.000000 2.047060 0.000000 
#    z 0.000000 0.000000 2.125790 
# 
# From -- ./inp_files/2001.got.cif
#   From: 2010.05.17/outbox.cif.g08.bks.cpg/sg68_2_cif.got.tgz:2001.got - 2010.06.03 18:57:09.
