data_PCOD9505309
_publ_section_title
;
Structure prediction by ZEFSAII (Michael W. Deem and Ramdas Pophale) SiO2 
 PCOD9505309
Probable space group: C C C A
;
_chemical_formula_sum "Si O2"
_cell_formula_units_Z 88
_cell_length_a 20.200242
_cell_length_b 12.746774
_cell_length_c 16.197905
_cell_angle_alpha 90.000000
_cell_angle_beta 90.000000
_cell_angle_gamma 90.000000
_cell_volume 4170.764859
_symmetry_space_group_name_H-M "C C C A"
_symmetry_group_IT_number 68
_space_group.IT_coordinate_system_code '2'
_symmetry_cell_setting 'orthorhombic'
loop_
_space_group_symop_operation_xyz
x,y,z
-x,1/2-y,z
x,1/2-y,1/2-z
-x,y,1/2-z
-x,-y,-z
x,1/2+y,-z
-x,1/2+y,1/2+z
x,-y,1/2+z
1/2+x,1/2+y,z
1/2-x,-y,z
1/2+x,-y,1/2-z
1/2-x,1/2+y,1/2-z
1/2-x,1/2-y,-z
1/2+x,y,-z
1/2-x,y,1/2+z
1/2+x,1/2-y,1/2+z
loop_
_atom_site_type_symbol
_atom_site_label
_atom_site_fract_x
_atom_site_fract_y
_atom_site_fract_z
Si Si1 0.000000 0.750000 0.964758
Si Si2 0.338809 0.425829 0.063535
Si Si3 0.616113 0.704408 0.567335
Si Si4 0.809007 0.852749 0.592858
Si Si5 0.671896 0.997511 0.870588
Si Si6 0.601770 0.809667 0.326813
O O1 0.051525 0.692680 0.903958
O O2 0.046528 0.821075 0.022942
O O3 0.385911 0.328600 0.085171
O O4 0.266972 0.384727 0.092782
O O5 0.350007 0.539209 0.104263
O O6 0.334994 0.455158 0.965175
O O7 0.672631 0.691189 0.497409
O O8 0.639795 0.618107 0.632057
O O9 0.834375 0.762484 0.651773
O O10 0.629694 0.075095 0.814170
O O11 0.750000 0.000000 0.851646
O O12 0.571071 0.750000 0.250000
#
# Coordination Sequence:
#
# PCOD9505309 Si02
#       6
#     8  16  16  16  16  16
#     4  10  21  36  56  80 110 149 184 222 274 328
#     4  10  15  30  55  81 110 128 167 236 298 319
#     4  10  18  30  52  86 110 135 174 230 284 327
#     4   9  17  29  53  78 103 139 173 219 281 327
#     4  11  19  33  59  87 110 138 178 234 293 330
#     4  11  23  39  51  74 113 156 189 213 256 340
#
# _framework density 21.099246999999998
#
# number of rings (size 3 to 8) (size 9 to 14) (size 15 to 20)
#    0.000    1.818    7.273    1.909    0.000    0.727 
#    6.545    0.000    0.000    0.000    0.000    0.000 
#    0.000    0.000    0.000    0.000    0.000    0.000 
#
# Total GULP energy -245189.637711 kJ/mol
# GULP energy per Si atom -5572.491766 kJ/mol
# Density = 2.105122 g / cm^3
# Si number density = 21.099247 Si / 1000 Ang^3
#
#
#
# Elastic Constant Matrix: (Units=GPa)
#
#
# Indices 1 2 3 4 5 6 
#
# 1 67.1345 1.2480 2.3636 0.0000 0.0000 0.0000
# 2 1.2480 111.2913 7.2203 0.0000 0.0000 0.0000
# 3 2.3636 7.2203 16.1702 0.0000 0.0000 0.0000
# 4 0.0000 0.0000 0.0000 7.2005 0.0000 0.0000
# 5 0.0000 0.0000 0.0000 0.0000 -1.1916 0.0000
# 6 0.0000 0.0000 0.0000 0.0000 0.0000 10.2227
#
#
#
# Elastic Compliance Matrix: (Units=1/GPa)
#
#
# Indices 1 2 3 4 5 6 
#
# 1 0.014973 -0.000027 -0.002177 0.000000 0.000000 0.000000
# 2 -0.000027 0.009254 -0.004128 0.000000 0.000000 0.000000
# 3 -0.002177 -0.004128 0.064004 0.000000 0.000000 0.000000
# 4 0.000000 0.000000 0.000000 0.138880 0.000000 0.000000
# 5 0.000000 0.000000 0.000000 0.000000 -0.839185 0.000000
# 6 0.000000 0.000000 0.000000 0.000000 0.000000 0.097821
#
#
# Mechanical properties :
#
#
# Convention : Reuss Voigt Hill
#
# Bulk Modulus (GPa) = 13.23326 24.02886 18.63106
# Shear Modulus (GPa) = -10.49533 15.49725 2.50096
#
# Velocity S-wave (km/s) = -2.23273 2.71309 1.08991
# Velocity P-wave (km/s) = 0.60102 4.60735 3.23005
#
# Compressibility (1/GPa) = 0.07556716
#
# Stress axis : x y z
#
# Youngs Moduli (GPa) = 66.78866 108.06672 15.62413
#
# Poissons Ratio (x) = 0.00288 0.03401
# Poissons Ratio (y) = 0.00178 0.06450
# Poissons Ratio (z) = 0.14537 0.44610
#
# Static dielectric constant tensor:
#      x y z
#    x 1.792630 0.000000 0.000000 
#    y 0.000000 1.825430 0.000000 
#    z 0.000000 0.000000 1.866950 
# 
# From -- ./inp_files/32789.got.cif
#   From: 2010.05.17/outbox.cif.g08.bks.cpg/sg68_17_cif.got.tgz:32789.got - 2010.06.03 18:57:09.
