data_PCOD9505295
_publ_section_title
;
Structure prediction by ZEFSAII (Michael W. Deem and Ramdas Pophale) SiO2 
 PCOD9505295
Probable space group: C C C A
;
_chemical_formula_sum "Si O2"
_cell_formula_units_Z 68
_cell_length_a 13.118700
_cell_length_b 17.506518
_cell_length_c 13.228186
_cell_angle_alpha 90.000000
_cell_angle_beta 90.000000
_cell_angle_gamma 90.000000
_cell_volume 3038.021676
_symmetry_space_group_name_H-M "C C C A"
_symmetry_group_IT_number 68
_space_group.IT_coordinate_system_code '2'
_symmetry_cell_setting 'orthorhombic'
loop_
_space_group_symop_operation_xyz
x,y,z
-x,1/2-y,z
x,1/2-y,1/2-z
-x,y,1/2-z
-x,-y,-z
x,1/2+y,-z
-x,1/2+y,1/2+z
x,-y,1/2+z
1/2+x,1/2+y,z
1/2-x,-y,z
1/2+x,-y,1/2-z
1/2-x,1/2+y,1/2-z
1/2-x,1/2-y,-z
1/2+x,y,-z
1/2-x,y,1/2+z
1/2+x,1/2-y,1/2+z
loop_
_atom_site_type_symbol
_atom_site_label
_atom_site_fract_x
_atom_site_fract_y
_atom_site_fract_z
Si Si1 0.066705 0.002239 0.340311
Si Si2 0.090709 0.399691 0.477510
Si Si3 0.175247 0.869503 0.713410
Si Si4 0.000000 0.750000 0.423993
Si Si5 0.000000 0.750000 0.750000
Si Si6 0.839195 0.750000 0.250000
O O1 0.000000 0.964263 0.250000
O O2 0.988188 0.051679 0.408600
O O3 0.858032 0.060117 0.216921
O O4 0.114270 0.943570 0.418753
O O5 0.188513 0.391570 0.404155
O O6 0.034398 0.321900 0.509950
O O7 0.080458 0.809966 0.703394
O O8 0.267087 0.823303 0.761594
O O9 0.906917 0.765589 0.348011
#
# Coordination Sequence:
#
# PCOD9505295 Si02
#       6
#    16  16  16   8   4   8
#     4   9  19  36  66  98 130 169 212 264 332 396
#     4  10  20  37  69  95 126 172 217 260 333 400
#     4  10  19  39  67  97 127 170 218 276 315 403
#     4  11  25  44  64  92 132 184 214 288 334 396
#     4  10  14  30  62  98 122 156 214 270 326 358
#     4  10  26  42  64  92 140 170 224 278 346 368
#
# _framework density 22.382988000000001
#
# number of rings (size 3 to 8) (size 9 to 14) (size 15 to 20)
#    0.000    2.118    3.529    0.706    6.588    0.941 
#    0.000    1.176    5.176    0.000    0.000    0.000 
#    0.000    0.000    0.000    0.000    0.000    0.000 
#
# Total GULP energy -189772.333356 kJ/mol
# GULP energy per Si atom -5581.539216 kJ/mol
# Density = 2.233204 g / cm^3
# Si number density = 22.382988 Si / 1000 Ang^3
#
#
#
# Elastic Constant Matrix: (Units=GPa)
#
#
# Indices 1 2 3 4 5 6 
#
# 1 59.4704 12.1730 25.7496 0.0000 0.0000 0.0000
# 2 12.1730 86.4121 60.2832 0.0000 0.0000 0.0000
# 3 25.7496 60.2832 146.6059 0.0000 0.0000 0.0000
# 4 0.0000 0.0000 0.0000 37.9407 0.0000 0.0000
# 5 0.0000 0.0000 0.0000 0.0000 0.0034 0.0000
# 6 0.0000 0.0000 0.0000 0.0000 0.0000 9.3969
#
#
#
# Elastic Compliance Matrix: (Units=1/GPa)
#
#
# Indices 1 2 3 4 5 6 
#
# 1 0.018213 -0.000468 -0.003006 0.000000 0.000000 0.000000
# 2 -0.000468 0.016239 -0.006595 0.000000 0.000000 0.000000
# 3 -0.003006 -0.006595 0.010061 0.000000 0.000000 0.000000
# 4 0.000000 0.000000 0.000000 0.026357 0.000000 0.000000
# 5 0.000000 0.000000 0.000000 0.000000296.187261 0.000000
# 6 0.000000 0.000000 0.000000 0.000000 0.000000 0.106418
#
#
# Mechanical properties :
#
#
# Convention : Reuss Voigt Hill
#
# Bulk Modulus (GPa) = 41.02866 54.32221 47.67543
# Shear Modulus (GPa) = 0.01687 22.42036 11.21862
#
# Velocity S-wave (km/s) = 0.08691 3.16835 2.24120
# Velocity P-wave (km/s) = 4.28721 6.14058 5.29560
#
# Compressibility (1/GPa) = 0.02437321
#
# Stress axis : x y z
#
# Youngs Moduli (GPa) = 54.90700 61.57837 99.39430
#
# Poissons Ratio (x) = 0.02884 0.29880
# Poissons Ratio (y) = 0.02572 0.65553
# Poissons Ratio (z) = 0.16506 0.40613
#
# Static dielectric constant tensor:
#      x y z
#    x 1.851880 0.000000 0.000000 
#    y 0.000000 1.859570 0.000000 
#    z 0.000000 0.000000 1.840980 
# 
# From -- ./inp_files/22121.got.cif
#   From: 2010.05.17/outbox.cif.g08.bks.cpg/sg68_12_cif.got.tgz:22121.got - 2010.06.03 18:57:09.
