data_PCOD9505900
_publ_section_title
;
Structure prediction by ZEFSAII (Michael W. Deem and Ramdas Pophale) SiO2 
 PCOD9505900
Probable space group: C C C A
;
_chemical_formula_sum "Si O2"
_cell_formula_units_Z 72
_cell_length_a 13.747855
_cell_length_b 7.973870
_cell_length_c 29.431151
_cell_angle_alpha 90.000000
_cell_angle_beta 90.000000
_cell_angle_gamma 90.000000
_cell_volume 3226.348976
_symmetry_space_group_name_H-M "C C C A"
_symmetry_group_IT_number 68
_space_group.IT_coordinate_system_code '2'
_symmetry_cell_setting 'orthorhombic'
loop_
_space_group_symop_operation_xyz
x,y,z
-x,1/2-y,z
x,1/2-y,1/2-z
-x,y,1/2-z
-x,-y,-z
x,1/2+y,-z
-x,1/2+y,1/2+z
x,-y,1/2+z
1/2+x,1/2+y,z
1/2-x,-y,z
1/2+x,-y,1/2-z
1/2-x,1/2+y,1/2-z
1/2-x,1/2-y,-z
1/2+x,y,-z
1/2-x,y,1/2+z
1/2+x,1/2-y,1/2+z
loop_
_atom_site_type_symbol
_atom_site_label
_atom_site_fract_x
_atom_site_fract_y
_atom_site_fract_z
Si Si1 0.573723 0.590614 0.613895
Si Si2 0.817275 0.841857 0.292085
Si Si3 0.387846 0.437485 0.594182
Si Si4 0.750000 0.500000 0.826856
Si Si5 0.280007 0.740606 0.551916
O O1 0.500000 0.750000 0.611944
O O2 0.621070 0.596952 0.664147
O O3 0.502515 0.438723 0.600276
O O4 0.655761 0.617154 0.575721
O O5 0.873490 0.750000 0.250000
O O6 0.749304 0.683742 0.305180
O O7 0.750000 0.000000 0.278749
O O8 0.345182 0.504489 0.641723
O O9 0.349291 0.576355 0.558079
O O10 0.318346 0.283970 0.581196
O O11 0.250000 0.750000 0.500000
#
# Coordination Sequence:
#
# PCOD9505900 Si02
#       5
#    16  16  16   8  16
#     4  10  19  39  66  89 125 181 222 268 353 406
#     4  12  24  40  69 100 130 174 223 276 353 418
#     4   9  18  37  65  83 127 182 224 274 338 408
#     4  10  18  44  64  90 138 174 216 284 338 400
#     4   9  17  32  57  90 125 170 222 276 329 396
#
# _framework density 22.316248000000002
#
# number of rings (size 3 to 8) (size 9 to 14) (size 15 to 20)
#    0.000    2.222    7.778    0.000    0.000    1.333 
#    4.000    1.111    0.000    1.333    0.000    0.000 
#    0.000    0.000    0.000    0.000    0.000    0.000 
#
# Total GULP energy -200474.484796 kJ/mol
# GULP energy per Si atom -5568.735689 kJ/mol
# Density = 2.226546 g / cm^3
# Si number density = 22.316248 Si / 1000 Ang^3
#
#
#
# Elastic Constant Matrix: (Units=GPa)
#
#
# Indices 1 2 3 4 5 6 
#
# 1 161.0655 52.9054 61.8592 0.0000 0.0000 0.0000
# 2 52.9054 118.3000 31.8812 0.0000 0.0000 0.0000
# 3 61.8592 31.8812 125.5804 0.0000 0.0000 0.0000
# 4 0.0000 0.0000 0.0000 18.1419 0.0000 0.0000
# 5 0.0000 0.0000 0.0000 0.0000 1.4058 0.0000
# 6 0.0000 0.0000 0.0000 0.0000 0.0000 42.1906
#
#
#
# Elastic Compliance Matrix: (Units=1/GPa)
#
#
# Indices 1 2 3 4 5 6 
#
# 1 0.008472 -0.002860 -0.003447 0.000000 0.000000 0.000000
# 2 -0.002860 0.010039 -0.001140 0.000000 0.000000 0.000000
# 3 -0.003447 -0.001140 0.009950 0.000000 0.000000 0.000000
# 4 0.000000 0.000000 0.000000 0.055121 0.000000 0.000000
# 5 0.000000 0.000000 0.000000 0.000000 0.711364 0.000000
# 6 0.000000 0.000000 0.000000 0.000000 0.000000 0.023702
#
#
# Mechanical properties :
#
#
# Convention : Reuss Voigt Hill
#
# Bulk Modulus (GPa) = 73.70386 77.58195 75.64290
# Shear Modulus (GPa) = 5.96612 29.56764 17.76688
#
# Velocity S-wave (km/s) = 1.63684 3.64392 2.82466
# Velocity P-wave (km/s) = 6.05566 7.24875 6.67890
#
# Compressibility (1/GPa) = 0.01356781
#
# Stress axis : x y z
#
# Youngs Moduli (GPa) = 118.03689 99.60911 100.49798
#
# Poissons Ratio (x) = 0.28486 0.34643
# Poissons Ratio (y) = 0.33756 0.11457
# Poissons Ratio (z) = 0.40689 0.11355
#
# Static dielectric constant tensor:
#      x y z
#    x 1.814040 0.000000 0.000000 
#    y 0.000000 1.950520 0.000000 
#    z 0.000000 0.000000 1.904480 
# 
# From -- ./inp_files/55136.got.cif
#   From: 2010.05.17/outbox.cif.g08.bks.cpg/sg68_28_cif.got.tgz:55136.got - 2010.06.03 18:57:09.
