data_PCOD9505509
_publ_section_title
;
Structure prediction by ZEFSAII (Michael W. Deem and Ramdas Pophale) SiO2 
 PCOD9505509
Probable space group: C C C A
;
_chemical_formula_sum "Si O2"
_cell_formula_units_Z 72
_cell_length_a 14.847691
_cell_length_b 10.972345
_cell_length_c 22.559607
_cell_angle_alpha 90.000000
_cell_angle_beta 90.000000
_cell_angle_gamma 90.000000
_cell_volume 3675.275546
_symmetry_space_group_name_H-M "C C C A"
_symmetry_group_IT_number 68
_space_group.IT_coordinate_system_code '2'
_symmetry_cell_setting 'orthorhombic'
loop_
_space_group_symop_operation_xyz
x,y,z
-x,1/2-y,z
x,1/2-y,1/2-z
-x,y,1/2-z
-x,-y,-z
x,1/2+y,-z
-x,1/2+y,1/2+z
x,-y,1/2+z
1/2+x,1/2+y,z
1/2-x,-y,z
1/2+x,-y,1/2-z
1/2-x,1/2+y,1/2-z
1/2-x,1/2-y,-z
1/2+x,y,-z
1/2-x,y,1/2+z
1/2+x,1/2-y,1/2+z
loop_
_atom_site_type_symbol
_atom_site_label
_atom_site_fract_x
_atom_site_fract_y
_atom_site_fract_z
Si Si1 0.156610 0.563395 0.175585
Si Si2 0.638833 0.635772 0.468026
Si Si3 0.143920 0.139600 0.952677
Si Si4 0.248014 0.750000 0.750000
Si Si5 0.406803 0.310315 0.666632
O O1 0.250000 0.500000 0.154118
O O2 0.124992 0.637587 0.118066
O O3 0.186840 0.640525 0.231814
O O4 0.095516 0.448738 0.190522
O O5 0.747871 0.639149 0.463286
O O6 0.610289 0.737628 0.515645
O O7 0.612409 0.493394 0.477077
O O8 0.603647 0.677507 0.403853
O O9 0.178828 0.759824 0.694868
O O10 0.500000 0.250000 0.681799
#
# Coordination Sequence:
#
# PCOD9505509 Si02
#       5
#    16  16  16   8  16
#     4   9  16  32  50  75 109 142 188 243 282 326
#     4   9  16  28  49  75 106 144 186 235 279 337
#     4   9  14  29  49  73 107 138 188 234 279 316
#     4  10  17  32  54  78 103 146 200 234 271 326
#     4  10  19  33  52  81 114 148 187 235 296 343
#
# _framework density 19.590367000000001
#
# number of rings (size 3 to 8) (size 9 to 14) (size 15 to 20)
#    0.000    2.667    6.667    0.333    0.000    0.000 
#    0.000   11.111    0.000    0.000    0.000   56.000 
#    0.000    0.000    0.000    0.000    0.000    1.111 
#
# Total GULP energy -200409.719511 kJ/mol
# GULP energy per Si atom -5566.936653 kJ/mol
# Density = 1.954578 g / cm^3
# Si number density = 19.590367 Si / 1000 Ang^3
#
#
#
# Elastic Constant Matrix: (Units=GPa)
#
#
# Indices 1 2 3 4 5 6 
#
# 1 60.0660 50.2123 17.3196 0.0000 0.0000 0.0000
# 2 50.2123 150.1917 83.0326 0.0000 0.0000 0.0000
# 3 17.3196 83.0326 78.4888 0.0000 0.0000 0.0000
# 4 0.0000 0.0000 0.0000 45.4049 0.0000 0.0000
# 5 0.0000 0.0000 0.0000 0.0000 -0.0671 0.0000
# 6 0.0000 0.0000 0.0000 0.0000 0.0000 21.8374
#
#
#
# Elastic Compliance Matrix: (Units=1/GPa)
#
#
# Indices 1 2 3 4 5 6 
#
# 1 0.025041 -0.012807 0.008023 0.000000 0.000000 0.000000
# 2 -0.012807 0.022588 -0.021070 0.000000 0.000000 0.000000
# 3 0.008023 -0.021070 0.033260 0.000000 0.000000 0.000000
# 4 0.000000 0.000000 0.000000 0.022024 0.000000 0.000000
# 5 0.000000 0.000000 0.000000 0.000000-14.909574 0.000000
# 6 0.000000 0.000000 0.000000 0.000000 0.000000 0.045793
#
#
# Mechanical properties :
#
#
# Convention : Reuss Voigt Hill
#
# Bulk Modulus (GPa) = 34.26860 65.54172 49.90516
# Shear Modulus (GPa) = -0.34015 22.64716 11.15350
#
# Velocity S-wave (km/s) = -0.41714 3.40374 2.38867
# Velocity P-wave (km/s) = 4.15915 6.99829 5.75650
#
# Compressibility (1/GPa) = 0.02918123
#
# Stress axis : x y z
#
# Youngs Moduli (GPa) = 39.93405 44.27086 30.06631
#
# Poissons Ratio (x) = 0.56699 -0.24122
# Poissons Ratio (y) = 0.51145 0.63349
# Poissons Ratio (z) = -0.32039 0.93278
#
# Static dielectric constant tensor:
#      x y z
#    x 1.717360 0.000000 0.000000 
#    y 0.000000 1.744730 0.000000 
#    z 0.000000 0.000000 1.715850 
# 
# From -- ./inp_files/45090.got.cif
#   From: 2010.05.17/outbox.cif.g08.bks.cpg/sg68_23_cif.got.tgz:45090.got - 2010.06.03 18:57:09.
