data_PCOD9505903
_publ_section_title
;
Structure prediction by ZEFSAII (Michael W. Deem and Ramdas Pophale) SiO2 
 PCOD9505903
Probable space group: C C C A
;
_chemical_formula_sum "Si O2"
_cell_formula_units_Z 80
_cell_length_a 25.705871
_cell_length_b 5.165933
_cell_length_c 26.171472
_cell_angle_alpha 90.000000
_cell_angle_beta 90.000000
_cell_angle_gamma 90.000000
_cell_volume 3475.435581
_symmetry_space_group_name_H-M "C C C A"
_symmetry_group_IT_number 68
_space_group.IT_coordinate_system_code '2'
_symmetry_cell_setting 'orthorhombic'
loop_
_space_group_symop_operation_xyz
x,y,z
-x,1/2-y,z
x,1/2-y,1/2-z
-x,y,1/2-z
-x,-y,-z
x,1/2+y,-z
-x,1/2+y,1/2+z
x,-y,1/2+z
1/2+x,1/2+y,z
1/2-x,-y,z
1/2+x,-y,1/2-z
1/2-x,1/2+y,1/2-z
1/2-x,1/2-y,-z
1/2+x,y,-z
1/2-x,y,1/2+z
1/2+x,1/2-y,1/2+z
loop_
_atom_site_type_symbol
_atom_site_label
_atom_site_fract_x
_atom_site_fract_y
_atom_site_fract_z
Si Si1 0.933307 0.344161 0.695321
Si Si2 0.321818 0.315468 0.629462
Si Si3 0.808742 0.678649 0.192565
Si Si4 0.446997 0.161126 0.864059
Si Si5 0.692263 0.084593 0.980238
O O1 0.949978 0.250000 0.750000
O O2 0.871247 0.332404 0.696935
O O3 0.949022 0.633545 0.682329
O O4 0.950367 0.134113 0.653464
O O5 0.303470 0.595473 0.649742
O O6 0.385309 0.309484 0.621313
O O7 0.299479 0.111497 0.671404
O O8 0.303038 0.207996 0.575346
O O9 0.789534 0.750000 0.250000
O O10 0.500000 0.250000 0.894374
O O11 0.750000 0.000000 0.997910
O O12 0.665975 0.801443 0.983816
#
# Coordination Sequence:
#
# PCOD9505903 Si02
#       5
#    16  16  16  16  16
#     4   9  17  27  39  60  93 133 177 219 249 277
#     4  10  19  33  53  75 105 141 171 213 265 305
#     4   9  17  30  49  75 107 144 181 208 242 303
#     4  10  19  28  41  64  95 133 172 206 246 297
#     4  10  21  38  61  86 104 122 161 220 280 328
#
# _framework density 23.018695999999998
#
# number of rings (size 3 to 8) (size 9 to 14) (size 15 to 20)
#    0.000    2.400    0.000    3.000    0.000    7.200 
#    0.000    0.000    0.000    3.600    0.000    0.000 
#    0.000    0.000    0.000    0.000    0.000    0.000 
#
# Total GULP energy -222785.112841 kJ/mol
# GULP energy per Si atom -5569.627821 kJ/mol
# Density = 2.296630 g / cm^3
# Si number density = 23.018696 Si / 1000 Ang^3
#
#
#
# Elastic Constant Matrix: (Units=GPa)
#
#
# Indices 1 2 3 4 5 6 
#
# 1 77.6144 3.7188 -4.6870 0.0000 0.0000 0.0000
# 2 3.7188 158.6309 44.0551 0.0000 0.0000 0.0000
# 3 -4.6870 44.0551 92.5096 0.0000 0.0000 0.0000
# 4 0.0000 0.0000 0.0000 12.0691 0.0000 0.0000
# 5 0.0000 0.0000 0.0000 0.0000 11.8945 0.0000
# 6 0.0000 0.0000 0.0000 0.0000 0.0000 35.0160
#
#
#
# Elastic Compliance Matrix: (Units=1/GPa)
#
#
# Indices 1 2 3 4 5 6 
#
# 1 0.012967 -0.000561 0.000924 0.000000 0.000000 0.000000
# 2 -0.000561 0.007289 -0.003500 0.000000 0.000000 0.000000
# 3 0.000924 -0.003500 0.012523 0.000000 0.000000 0.000000
# 4 0.000000 0.000000 0.000000 0.082857 0.000000 0.000000
# 5 0.000000 0.000000 0.000000 0.000000 0.084072 0.000000
# 6 0.000000 0.000000 0.000000 0.000000 0.000000 0.028558
#
#
# Mechanical properties :
#
#
# Convention : Reuss Voigt Hill
#
# Bulk Modulus (GPa) = 37.72664 46.10317 41.91490
# Shear Modulus (GPa) = 20.54451 30.84045 25.69248
#
# Velocity S-wave (km/s) = 2.99074 3.66430 3.34452
# Velocity P-wave (km/s) = 5.32458 6.16237 5.75873
#
# Compressibility (1/GPa) = 0.02650647
#
# Stress axis : x y z
#
# Youngs Moduli (GPa) = 77.11964 137.19329 79.85266
#
# Poissons Ratio (x) = 0.07691 -0.07378
# Poissons Ratio (y) = 0.04323 0.27945
# Poissons Ratio (z) = -0.07125 0.48012
#
# Static dielectric constant tensor:
#      x y z
#    x 2.181220 0.000000 0.000000 
#    y 0.000000 1.989830 0.000000 
#    z 0.000000 0.000000 1.839510 
# 
# From -- ./inp_files/52305.got.cif
#   From: 2010.05.17/outbox.cif.g08.bks.cpg/sg68_27_cif.got.tgz:52305.got - 2010.06.03 18:57:09.
