data_PCOD9505786
_publ_section_title
;
Structure prediction by ZEFSAII (Michael W. Deem and Ramdas Pophale) SiO2 
 PCOD9505786
Probable space group: C C C A
;
_chemical_formula_sum "Si O2"
_cell_formula_units_Z 80
_cell_length_a 13.778871
_cell_length_b 19.084859
_cell_length_c 14.154663
_cell_angle_alpha 90.000000
_cell_angle_beta 90.000000
_cell_angle_gamma 90.000000
_cell_volume 3722.220733
_symmetry_space_group_name_H-M "C C C A"
_symmetry_group_IT_number 68
_space_group.IT_coordinate_system_code '2'
_symmetry_cell_setting 'orthorhombic'
loop_
_space_group_symop_operation_xyz
x,y,z
-x,1/2-y,z
x,1/2-y,1/2-z
-x,y,1/2-z
-x,-y,-z
x,1/2+y,-z
-x,1/2+y,1/2+z
x,-y,1/2+z
1/2+x,1/2+y,z
1/2-x,-y,z
1/2+x,-y,1/2-z
1/2-x,1/2+y,1/2-z
1/2-x,1/2-y,-z
1/2+x,y,-z
1/2-x,y,1/2+z
1/2+x,1/2-y,1/2+z
loop_
_atom_site_type_symbol
_atom_site_label
_atom_site_fract_x
_atom_site_fract_y
_atom_site_fract_z
Si Si1 0.752135 0.873813 0.023932
Si Si2 0.101390 0.943161 0.598671
Si Si3 0.953018 0.677854 0.487055
Si Si4 0.740242 0.582787 0.270223
Si Si5 0.908263 0.895162 0.369369
O O1 0.720803 0.880922 0.131157
O O2 0.817861 0.939712 0.985254
O O3 0.836555 0.815611 0.015996
O O4 0.664153 0.869759 0.952310
O O5 0.026445 0.885966 0.560345
O O6 0.156564 0.913585 0.690768
O O7 0.068017 0.022070 0.616307
O O8 0.000000 0.750000 0.515098
O O9 0.996773 0.650907 0.387339
O O10 0.750000 0.500000 0.288109
O O11 0.841317 0.608396 0.223285
#
# Coordination Sequence:
#
# PCOD9505786 Si02
#       5
#    16  16  16  16  16
#     4   9  19  33  58  82 110 143 183 234 287 328
#     4   8  18  34  56  82 110 141 186 237 278 326
#     4  10  22  36  55  81 115 152 188 223 286 344
#     4   9  16  32  57  83 109 139 183 239 282 327
#     4  10  18  35  59  79 111 144 189 239 281 329
#
# _framework density 21.492546000000001
#
# number of rings (size 3 to 8) (size 9 to 14) (size 15 to 20)
#    1.200    1.600    0.000    3.600    0.000    1.600 
#    0.000    3.000    0.000    1.200    0.000    0.000 
#    0.000    0.000    0.000    0.000    0.000    0.000 
#
# Total GULP energy -222788.687479 kJ/mol
# GULP energy per Si atom -5569.717187 kJ/mol
# Density = 2.144363 g / cm^3
# Si number density = 21.492546 Si / 1000 Ang^3
#
#
#
# Elastic Constant Matrix: (Units=GPa)
#
#
# Indices 1 2 3 4 5 6 
#
# 1 70.4876 33.2161 25.8163 0.0000 0.0000 0.0000
# 2 33.2161 49.3366 15.7073 0.0000 0.0000 0.0000
# 3 25.8163 15.7073 104.3806 0.0000 0.0000 0.0000
# 4 0.0000 0.0000 0.0000 -4.4986 0.0000 0.0000
# 5 0.0000 0.0000 0.0000 0.0000 10.0023 0.0000
# 6 0.0000 0.0000 0.0000 0.0000 0.0000 25.3916
#
#
#
# Elastic Compliance Matrix: (Units=1/GPa)
#
#
# Indices 1 2 3 4 5 6 
#
# 1 0.021840 -0.013638 -0.003349 0.000000 0.000000 0.000000
# 2 -0.013638 0.029805 -0.001112 0.000000 0.000000 0.000000
# 3 -0.003349 -0.001112 0.010576 0.000000 0.000000 0.000000
# 4 0.000000 0.000000 0.000000 -0.222291 0.000000 0.000000
# 5 0.000000 0.000000 0.000000 0.000000 0.099977 0.000000
# 6 0.000000 0.000000 0.000000 0.000000 0.000000 0.039383
#
#
# Mechanical properties :
#
#
# Convention : Reuss Voigt Hill
#
# Bulk Modulus (GPa) = 38.42832 41.52050 39.97441
# Shear Modulus (GPa) = 206.93491 16.14340 111.53915
#
# Velocity S-wave (km/s) = 9.82299 2.74362 7.21175
# Velocity P-wave (km/s) = 12.10676 5.42191 9.38005
#
# Compressibility (1/GPa) = 0.02602247
#
# Stress axis : x y z
#
# Youngs Moduli (GPa) = 45.78725 33.55194 94.55282
#
# Poissons Ratio (x) = 0.45757 0.31670
# Poissons Ratio (y) = 0.62443 0.10515
# Poissons Ratio (z) = 0.15336 0.03731
#
# Static dielectric constant tensor:
#      x y z
#    x 1.345250 0.000000 0.000000 
#    y 0.000000 1.833500 0.000000 
#    z 0.000000 0.000000 1.792140 
# 
# From -- ./inp_files/23682.got.cif
#   From: 2010.05.17/outbox.cif.g08.bks.cpg/sg68_12_cif.got.tgz:23682.got - 2010.06.03 18:57:09.
