data_PCOD9505794
_publ_section_title
;
Structure prediction by ZEFSAII (Michael W. Deem and Ramdas Pophale) SiO2 
 PCOD9505794
Probable space group: C C C A
;
_chemical_formula_sum "Si O2"
_cell_formula_units_Z 96
_cell_length_a 20.655756
_cell_length_b 18.793413
_cell_length_c 11.414785
_cell_angle_alpha 90.000000
_cell_angle_beta 90.000000
_cell_angle_gamma 90.000000
_cell_volume 4431.129969
_symmetry_space_group_name_H-M "C C C A"
_symmetry_group_IT_number 68
_space_group.IT_coordinate_system_code '2'
_symmetry_cell_setting 'orthorhombic'
loop_
_space_group_symop_operation_xyz
x,y,z
-x,1/2-y,z
x,1/2-y,1/2-z
-x,y,1/2-z
-x,-y,-z
x,1/2+y,-z
-x,1/2+y,1/2+z
x,-y,1/2+z
1/2+x,1/2+y,z
1/2-x,-y,z
1/2+x,-y,1/2-z
1/2-x,1/2+y,1/2-z
1/2-x,1/2-y,-z
1/2+x,y,-z
1/2-x,y,1/2+z
1/2+x,1/2-y,1/2+z
loop_
_atom_site_type_symbol
_atom_site_label
_atom_site_fract_x
_atom_site_fract_y
_atom_site_fract_z
Si Si1 0.446847 0.048885 0.119009
Si Si2 0.246041 0.586488 0.364947
Si Si3 0.661310 0.921127 0.066393
Si Si4 0.127967 0.831094 0.724228
Si Si5 0.856380 0.430880 0.827352
Si Si6 0.551502 0.393047 0.529500
O O1 0.421569 0.056663 0.250207
O O2 0.493658 0.108906 0.065022
O O3 0.466754 0.967271 0.095865
O O4 0.383193 0.054767 0.040105
O O5 0.250000 0.500000 0.370994
O O6 0.222548 0.609140 0.495599
O O7 0.312377 0.624625 0.331326
O O8 0.195165 0.605301 0.259963
O O9 0.621666 0.868989 0.149977
O O10 0.673501 0.992629 0.139262
O O11 0.143747 0.750000 0.750000
O O12 0.068498 0.839365 0.633702
O O13 0.884441 0.397697 0.946550
#
# Coordination Sequence:
#
# PCOD9505794 Si02
#       6
#    16  16  16  16  16  16
#     4   9  18  35  63  90 119 154 204 275 328 375
#     4  11  22  37  62  88 120 166 213 268 325 380
#     4  10  21  37  58  87 123 158 209 265 325 389
#     4  12  26  41  57  90 131 175 215 263 329 404
#     4  10  18  35  62  94 120 151 210 276 327 377
#     4  10  20  35  58  92 123 159 204 261 333 391
#
# _framework density 21.664902000000001
#
# number of rings (size 3 to 8) (size 9 to 14) (size 15 to 20)
#    0.000    1.667    3.333    2.500    4.667    1.333 
#    0.000    1.667    0.000    0.000    0.000    2.333 
#    0.000    0.000    0.000    0.000    0.000    0.000 
#
# Total GULP energy -267598.922349 kJ/mol
# GULP energy per Si atom -5574.977549 kJ/mol
# Density = 2.161559 g / cm^3
# Si number density = 21.664902 Si / 1000 Ang^3
#
#
#
# Elastic Constant Matrix: (Units=GPa)
#
#
# Indices 1 2 3 4 5 6 
#
# 1 54.5589 4.8043 10.0081 0.0000 0.0000 0.0000
# 2 4.8043 48.6803 21.6785 0.0000 0.0000 0.0000
# 3 10.0081 21.6785 131.1157 0.0000 0.0000 0.0000
# 4 0.0000 0.0000 0.0000 5.1679 0.0000 0.0000
# 5 0.0000 0.0000 0.0000 0.0000 16.6917 0.0000
# 6 0.0000 0.0000 0.0000 0.0000 0.0000 12.7160
#
#
#
# Elastic Compliance Matrix: (Units=1/GPa)
#
#
# Indices 1 2 3 4 5 6 
#
# 1 0.018665 -0.001304 -0.001209 0.000000 0.000000 0.000000
# 2 -0.001304 0.022266 -0.003582 0.000000 0.000000 0.000000
# 3 -0.001209 -0.003582 0.008311 0.000000 0.000000 0.000000
# 4 0.000000 0.000000 0.000000 0.193503 0.000000 0.000000
# 5 0.000000 0.000000 0.000000 0.000000 0.059910 0.000000
# 6 0.000000 0.000000 0.000000 0.000000 0.000000 0.078641
#
#
# Mechanical properties :
#
#
# Convention : Reuss Voigt Hill
#
# Bulk Modulus (GPa) = 26.98817 34.14853 30.56835
# Shear Modulus (GPa) = 12.32022 20.10606 16.21314
#
# Velocity S-wave (km/s) = 2.38727 3.04969 2.73858
# Velocity P-wave (km/s) = 4.48139 5.31010 4.91325
#
# Compressibility (1/GPa) = 0.03705328
#
# Stress axis : x y z
#
# Youngs Moduli (GPa) = 53.57500 44.91162 120.31695
#
# Poissons Ratio (x) = 0.05855 0.14549
# Poissons Ratio (y) = 0.06984 0.43097
# Poissons Ratio (z) = 0.06478 0.16087
#
# Static dielectric constant tensor:
#      x y z
#    x 1.918570 0.000000 0.000000 
#    y 0.000000 1.734960 0.000000 
#    z 0.000000 0.000000 1.880870 
# 
# From -- ./inp_files/16444.got.cif
#   From: 2010.05.17/outbox.cif.g08.bks.cpg/sg68_9_cif.got.tgz:16444.got - 2010.06.03 18:57:09.
