data_PCOD9505027
_publ_section_title
;
Structure prediction by ZEFSAII (Michael W. Deem and Ramdas Pophale) SiO2 
 PCOD9505027
Probable space group: C M M A
;
_chemical_formula_sum "Si O2"
_cell_formula_units_Z 80
_cell_length_a 9.740547
_cell_length_b 16.871559
_cell_length_c 24.423149
_cell_angle_alpha 90.000000
_cell_angle_beta 90.000000
_cell_angle_gamma 90.000000
_cell_volume 4013.656672
_symmetry_space_group_name_H-M "C M M A"
_symmetry_group_IT_number 67
_symmetry_cell_setting 'orthorhombic'
loop_
_space_group_symop_operation_xyz
x,y,z
-x,1/2-y,z
x,-y,-z
-x,1/2+y,-z
-x,-y,-z
x,1/2+y,-z
-x,y,z
x,1/2-y,z
1/2+x,1/2+y,z
1/2-x,-y,z
1/2+x,1/2-y,-z
1/2-x,y,-z
1/2-x,1/2-y,-z
1/2+x,y,-z
1/2-x,1/2+y,z
1/2+x,-y,z
loop_
_atom_site_type_symbol
_atom_site_label
_atom_site_fract_x
_atom_site_fract_y
_atom_site_fract_z
Si Si1 0.660681 0.077788 0.730724
Si Si2 0.755116 0.839475 0.622076
Si Si3 0.000000 0.114097 0.451929
Si Si4 0.338899 0.345651 0.174043
Si Si5 0.500000 0.928841 0.577309
Si Si6 0.842387 0.846603 0.049918
O O1 0.500000 0.060371 0.740219
O O2 0.674228 0.135743 0.678735
O O3 0.735381 0.116847 0.782831
O O4 0.750000 0.000000 0.718039
O O5 0.701848 0.750000 0.625554
O O6 0.866050 0.846257 0.573705
O O7 0.633394 0.899820 0.609058
O O8 0.000000 0.111380 0.517288
O O9 0.000000 0.022751 0.431575
O O10 0.500000 0.366541 0.184364
O O11 0.330944 0.250000 0.177260
O O12 0.303356 0.370174 0.111691
O O13 0.837520 0.750000 0.049666
O O14 0.000000 0.869485 0.041029
O O15 0.750000 0.875488 0.000000
#
# Coordination Sequence:
#
# PCOD9505027 Si02
#       6
#    16  16   8  16   8  16
#     4  12  26  43  64  87 118 160 207 258 318 382
#     4  12  26  42  65  96 126 160 207 261 310 364
#     4  11  23  45  69  91 131 165 208 249 304 367
#     4   9  19  36  59  88 124 162 204 255 308 367
#     4  11  25  43  67  97 125 171 204 245 306 381
#     4   8  14  26  47  79 118 159 200 245 300 360
#
# _framework density 19.931947999999998
#
# number of rings (size 3 to 8) (size 9 to 14) (size 15 to 20)
#    0.000    1.600    1.000    5.400    2.800    6.000 
#    0.000    2.000    0.000    0.600    0.000    4.200 
#    0.000    0.000    0.000    0.000    0.000    0.000 
#
# Total GULP energy -223551.742634 kJ/mol
# GULP energy per Si atom -5588.793566 kJ/mol
# Density = 1.988658 g / cm^3
# Si number density = 19.931948 Si / 1000 Ang^3
#
#
#
# Elastic Constant Matrix: (Units=GPa)
#
#
# Indices 1 2 3 4 5 6 
#
# 1 106.6547 15.6354 52.6311 0.0000 0.0000 0.0000
# 2 15.6354 42.8598 27.8770 0.0000 0.0000 0.0000
# 3 52.6311 27.8770 119.4718 0.0000 0.0000 0.0000
# 4 0.0000 0.0000 0.0000 -9.1667 0.0000 0.0000
# 5 0.0000 0.0000 0.0000 0.0000 37.6070 0.0000
# 6 0.0000 0.0000 0.0000 0.0000 0.0000 34.9927
#
#
#
# Elastic Compliance Matrix: (Units=1/GPa)
#
#
# Indices 1 2 3 4 5 6 
#
# 1 0.012025 -0.001110 -0.005039 0.000000 0.000000 0.000000
# 2 -0.001110 0.027609 -0.005953 0.000000 0.000000 0.000000
# 3 -0.005039 -0.005953 0.011979 0.000000 0.000000 0.000000
# 4 0.000000 0.000000 0.000000 -0.109091 0.000000 0.000000
# 5 0.000000 0.000000 0.000000 0.000000 0.026591 0.000000
# 6 0.000000 0.000000 0.000000 0.000000 0.000000 0.028577
#
#
# Mechanical properties :
#
#
# Convention : Reuss Voigt Hill
#
# Bulk Modulus (GPa) = 36.48307 51.25259 43.86783
# Shear Modulus (GPa) = 161.13547 24.20947 92.67247
#
# Velocity S-wave (km/s) = 9.00102 3.48890 6.82608
# Velocity P-wave (km/s) = 11.24135 6.48070 9.17517
#
# Compressibility (1/GPa) = 0.02740997
#
# Stress axis : x y z
#
# Youngs Moduli (GPa) = 83.15950 36.22031 83.48007
#
# Poissons Ratio (x) = 0.04019 0.42062
# Poissons Ratio (y) = 0.09228 0.49698
# Poissons Ratio (z) = 0.41900 0.21563
#
# Static dielectric constant tensor:
#      x y z
#    x 1.669890 0.000000 0.000000 
#    y 0.000000 1.702000 0.000000 
#    z 0.000000 0.000000 1.689520 
# 
# From -- ./inp_files/43358.got.cif
#   From: 2010.05.17/outbox.cif.g08.bks.cpg/sg67_22_cif.got.tgz:43358.got - 2010.06.03 18:28:57.
