data_PCOD9505876
_publ_section_title
;
Structure prediction by ZEFSAII (Michael W. Deem and Ramdas Pophale) SiO2 
 PCOD9505876
Probable space group: C C C A
;
_chemical_formula_sum "Si O2"
_cell_formula_units_Z 64
_cell_length_a 16.838651
_cell_length_b 12.395469
_cell_length_c 13.594357
_cell_angle_alpha 90.000000
_cell_angle_beta 90.000000
_cell_angle_gamma 90.000000
_cell_volume 2837.454656
_symmetry_space_group_name_H-M "C C C A"
_symmetry_group_IT_number 68
_space_group.IT_coordinate_system_code '2'
_symmetry_cell_setting 'orthorhombic'
loop_
_space_group_symop_operation_xyz
x,y,z
-x,1/2-y,z
x,1/2-y,1/2-z
-x,y,1/2-z
-x,-y,-z
x,1/2+y,-z
-x,1/2+y,1/2+z
x,-y,1/2+z
1/2+x,1/2+y,z
1/2-x,-y,z
1/2+x,-y,1/2-z
1/2-x,1/2+y,1/2-z
1/2-x,1/2-y,-z
1/2+x,y,-z
1/2-x,y,1/2+z
1/2+x,1/2-y,1/2+z
loop_
_atom_site_type_symbol
_atom_site_label
_atom_site_fract_x
_atom_site_fract_y
_atom_site_fract_z
Si Si1 0.750000 0.000000 0.969716
Si Si2 0.000000 0.750000 0.479431
Si Si3 0.614436 0.122959 0.352278
Si Si4 0.489676 0.073288 0.857562
Si Si5 0.170178 0.446309 0.653349
O O1 0.810654 0.072045 0.908432
O O2 0.701768 0.079836 0.044236
O O3 0.074519 0.721423 0.410396
O O4 0.987878 0.649518 0.552515
O O5 0.638011 0.132072 0.237708
O O6 0.545857 0.031209 0.356069
O O7 0.500000 0.125396 0.750000
O O8 0.399170 0.033459 0.865015
O O9 0.250000 0.500000 0.697970
#
# Coordination Sequence:
#
# PCOD9505876 Si02
#       5
#     8   8  16  16  16
#     4  10  18  38  70  88 136 186 218 274 358 410
#     4  12  21  36  65  98 122 172 236 287 323 408
#     4  11  22  39  68  95 130 179 230 281 343 414
#     4  10  22  40  65  91 131 177 227 282 350 418
#     4   9  19  37  65  92 127 179 221 273 353 412
#
# _framework density 22.555425
#
# number of rings (size 3 to 8) (size 9 to 14) (size 15 to 20)
#    0.750    1.000    3.750    1.125    0.000    0.000 
#    0.000    6.875    5.500    6.000    0.000    0.000 
#    0.000    0.000    0.000    0.000    0.000    0.000 
#
# Total GULP energy -178597.509427 kJ/mol
# GULP energy per Si atom -5581.172170 kJ/mol
# Density = 2.250409 g / cm^3
# Si number density = 22.555425 Si / 1000 Ang^3
#
#
#
# Elastic Constant Matrix: (Units=GPa)
#
#
# Indices 1 2 3 4 5 6 
#
# 1 161.5010 56.3747 65.7273 0.0000 0.0000 0.0000
# 2 56.3747 74.2938 60.2801 0.0000 0.0000 0.0000
# 3 65.7273 60.2801 189.5713 0.0000 0.0000 0.0000
# 4 0.0000 0.0000 0.0000 32.6895 0.0000 0.0000
# 5 0.0000 0.0000 0.0000 0.0000 25.3469 0.0000
# 6 0.0000 0.0000 0.0000 0.0000 0.0000 26.6133
#
#
#
# Elastic Compliance Matrix: (Units=1/GPa)
#
#
# Indices 1 2 3 4 5 6 
#
# 1 0.008629 -0.005553 -0.001226 0.000000 0.000000 0.000000
# 2 -0.005553 0.021714 -0.004979 0.000000 0.000000 0.000000
# 3 -0.001226 -0.004979 0.007283 0.000000 0.000000 0.000000
# 4 0.000000 0.000000 0.000000 0.030591 0.000000 0.000000
# 5 0.000000 0.000000 0.000000 0.000000 0.039453 0.000000
# 6 0.000000 0.000000 0.000000 0.000000 0.000000 0.037575
#
#
# Mechanical properties :
#
#
# Convention : Reuss Voigt Hill
#
# Bulk Modulus (GPa) = 70.87350 87.79226 79.33288
# Shear Modulus (GPa) = 28.82416 33.12886 30.97651
#
# Velocity S-wave (km/s) = 3.57869 3.83662 3.70990
# Velocity P-wave (km/s) = 6.96894 7.65726 7.32119
#
# Compressibility (1/GPa) = 0.01410965
#
# Stress axis : x y z
#
# Youngs Moduli (GPa) = 115.88354 46.05350 137.29700
#
# Poissons Ratio (x) = 0.25574 0.16834
# Poissons Ratio (y) = 0.64352 0.68363
# Poissons Ratio (z) = 0.14209 0.22931
#
# Static dielectric constant tensor:
#      x y z
#    x 1.818490 0.000000 0.000000 
#    y 0.000000 1.876370 0.000000 
#    z 0.000000 0.000000 1.874630 
# 
# From -- ./inp_files/23194.got.cif
#   From: 2010.05.17/outbox.cif.g08.bks.cpg/sg68_12_cif.got.tgz:23194.got - 2010.06.03 18:57:09.
