data_PCOD9505660
_publ_section_title
;
Structure prediction by ZEFSAII (Michael W. Deem and Ramdas Pophale) SiO2 
 PCOD9505660
Probable space group: C C C A
;
_chemical_formula_sum "Si O2"
_cell_formula_units_Z 56
_cell_length_a 13.933173
_cell_length_b 5.450292
_cell_length_c 29.885317
_cell_angle_alpha 90.000000
_cell_angle_beta 90.000000
_cell_angle_gamma 90.000000
_cell_volume 2269.486829
_symmetry_space_group_name_H-M "C C C A"
_symmetry_group_IT_number 68
_space_group.IT_coordinate_system_code '2'
_symmetry_cell_setting 'orthorhombic'
loop_
_space_group_symop_operation_xyz
x,y,z
-x,1/2-y,z
x,1/2-y,1/2-z
-x,y,1/2-z
-x,-y,-z
x,1/2+y,-z
-x,1/2+y,1/2+z
x,-y,1/2+z
1/2+x,1/2+y,z
1/2-x,-y,z
1/2+x,-y,1/2-z
1/2-x,1/2+y,1/2-z
1/2-x,1/2-y,-z
1/2+x,y,-z
1/2-x,y,1/2+z
1/2+x,1/2-y,1/2+z
loop_
_atom_site_type_symbol
_atom_site_label
_atom_site_fract_x
_atom_site_fract_y
_atom_site_fract_z
Si Si1 0.308732 0.750000 0.250000
Si Si2 0.860360 0.270588 0.616178
Si Si3 0.139779 0.731200 0.651487
Si Si4 0.110200 0.957943 0.016020
O O1 0.250000 0.500000 0.261143
O O2 0.362135 0.818797 0.295714
O O3 0.900857 0.498766 0.644014
O O4 0.749599 0.250218 0.632731
O O5 0.875781 0.349456 0.565228
O O6 0.900727 0.000330 0.624777
O O7 0.150275 0.735797 0.985328
O O8 0.000000 0.000000 0.000000
#
# Coordination Sequence:
#
# PCOD9505660 Si02
#       4
#     8  16  16  16
#     4  12  16  30  48  74 114 148 170 190 250 328
#     4  10  18  32  48  72 104 136 176 211 264 316
#     4  10  19  30  48  77 111 143 162 207 259 329
#     4  10  21  37  54  70  94 132 184 235 269 308
#
# _framework density 24.675180000000001
#
# number of rings (size 3 to 8) (size 9 to 14) (size 15 to 20)
#    0.000    1.714    5.714    1.714    0.000    0.000 
#    0.000   17.143    0.000    0.000    0.000    0.000 
#    0.000  109.714    0.000    0.000    0.000    0.000 
#
# Total GULP energy -156283.457819 kJ/mol
# GULP energy per Si atom -5581.552065 kJ/mol
# Density = 2.461902 g / cm^3
# Si number density = 24.675180 Si / 1000 Ang^3
#
#
#
# Elastic Constant Matrix: (Units=GPa)
#
#
# Indices 1 2 3 4 5 6 
#
# 1 124.2073 -5.2525 3.5022 0.0000 0.0000 0.0000
# 2 -5.2525 248.8009 27.8062 0.0000 0.0000 0.0000
# 3 3.5022 27.8062 177.9386 0.0000 0.0000 0.0000
# 4 0.0000 0.0000 0.0000 59.4533 0.0000 0.0000
# 5 0.0000 0.0000 0.0000 0.0000 -9.0358 0.0000
# 6 0.0000 0.0000 0.0000 0.0000 0.0000 -23.9450
#
#
#
# Elastic Compliance Matrix: (Units=1/GPa)
#
#
# Indices 1 2 3 4 5 6 
#
# 1 0.008064 0.000191 -0.000189 0.000000 0.000000 0.000000
# 2 0.000191 0.004095 -0.000644 0.000000 0.000000 0.000000
# 3 -0.000189 -0.000644 0.005724 0.000000 0.000000 0.000000
# 4 0.000000 0.000000 0.000000 0.016820 0.000000 0.000000
# 5 0.000000 0.000000 0.000000 0.000000 -0.110671 0.000000
# 6 0.000000 0.000000 0.000000 0.000000 0.000000 -0.041762
#
#
# Mechanical properties :
#
#
# Convention : Reuss Voigt Hill
#
# Bulk Modulus (GPa) = 60.23402 67.00651 63.62026
# Shear Modulus (GPa) = -45.08028 40.28724 -2.39652
#
# Velocity S-wave (km/s) = -4.27892 4.04506 -0.98658
# Velocity P-wave (km/s) = 0.22710 7.00221 4.95392
#
# Compressibility (1/GPa) = 0.01660191
#
# Stress axis : x y z
#
# Youngs Moduli (GPa) = 124.00076 244.18469 174.69623
#
# Poissons Ratio (x) = -0.04672 0.03295
# Poissons Ratio (y) = -0.02373 0.11246
# Poissons Ratio (z) = 0.02339 0.15719
#
# Static dielectric constant tensor:
#      x y z
#    x 1.896580 0.000000 0.000000 
#    y 0.000000 2.112790 0.000000 
#    z 0.000000 0.000000 1.917560 
# 
# From -- ./inp_files/47974.got.cif
#   From: 2010.05.17/outbox.cif.g08.bks.cpg/sg68_24_cif.got.tgz:47974.got - 2010.06.03 18:57:09.
