data_PCOD9505245
_publ_section_title
;
Structure prediction by ZEFSAII (Michael W. Deem and Ramdas Pophale) SiO2 
 PCOD9505245
Probable space group: C M M A
;
_chemical_formula_sum "Si O2"
_cell_formula_units_Z 36
_cell_length_a 9.000000
_cell_length_b 15.000000
_cell_length_c 27.000000
_cell_angle_alpha 90.000000
_cell_angle_beta 90.000000
_cell_angle_gamma 90.000000
_cell_volume 3645.000000
_symmetry_space_group_name_H-M "C M M A"
_symmetry_group_IT_number 67
_symmetry_cell_setting 'orthorhombic'
loop_
_space_group_symop_operation_xyz
x,y,z
-x,1/2-y,z
x,-y,-z
-x,1/2+y,-z
-x,-y,-z
x,1/2+y,-z
-x,y,z
x,1/2-y,z
1/2+x,1/2+y,z
1/2-x,-y,z
1/2+x,1/2-y,-z
1/2-x,y,-z
1/2-x,1/2-y,-z
1/2+x,y,-z
1/2-x,1/2+y,z
1/2+x,-y,z
loop_
_atom_site_type_symbol
_atom_site_label
_atom_site_fract_x
_atom_site_fract_y
_atom_site_fract_z
Si Si1 0.320391 0.407136 0.632761
Si Si2 0.321587 0.403062 0.153476
Si Si3 0.831779 0.144266 0.049809
Si Si4 0.668594 0.354711 0.743435
Si Si5 0.320349 0.750000 0.444414
O O1 0.500000 0.409339 0.634538
O O2 0.250000 0.500000 0.617282
O O3 0.272910 0.390664 0.690484
O O4 0.279956 0.333512 0.591432
O O5 0.500000 0.400892 0.152304
O O6 0.250000 0.500000 0.153864
O O7 0.257624 0.364836 0.101503
O O8 0.263771 0.365056 0.206340
O O9 0.846501 0.250000 0.042057
O O10 0.000000 0.106686 0.054880
O O11 0.750000 0.109105 0.000000
O O12 0.500000 0.390998 0.752462
O O13 0.655258 0.250000 0.734625
O O14 0.500000 0.750000 0.450365
O O15 0.250000 0.750000 0.500000
#
# Coordination Sequence:
#
# PCOD9505245 Si02
#       5
#    16  16  16  16   8
#     4  10  21  39  63  91 125 165 208 256 310 369
#     4  12  25  39  56  83 118 154 196 246 298 359
#     4  10  21  39  62  86 113 148 191 240 296 359
#     4  10  20  38  63  88 119 159 198 244 305 368
#     4  10  22  42  64  90 126 168 211 256 309 366
#
# _framework density 9.8765429999999999
#
# number of rings (size 3 to 8) (size 9 to 14) (size 15 to 20)
#    0.000    1.556    1.111    4.000    0.000    8.889 
#    0.000    4.444    0.000    0.000    0.000    0.000 
#    0.000    0.000    0.000    0.000    0.000    0.000 
#
# Total GULP energy -200722.487910 kJ/mol
# GULP energy per Si atom -5575.624664 kJ/mol
# Density = 0.985406 g / cm^3
# Si number density = 9.876543 Si / 1000 Ang^3
#
#
#
# Elastic Constant Matrix: (Units=GPa)
#
#
# Indices 1 2 3 4 5 6 
#
# 1 110.4258 27.3419 74.4172 0.0000 0.0000 0.0000
# 2 27.3419 101.4397 56.6033 0.0000 0.0000 0.0000
# 3 74.4172 56.6033 202.6757 0.0000 0.0000 0.0000
# 4 0.0000 0.0000 0.0000 -146.0271 0.0000 0.0000
# 5 0.0000 0.0000 0.0000 0.0000 43.2709 0.0000
# 6 0.0000 0.0000 0.0000 0.0000 0.0000 23.3625
#
#
#
# Elastic Compliance Matrix: (Units=1/GPa)
#
#
# Indices 1 2 3 4 5 6 
#
# 1 0.012107 -0.000927 -0.004186 0.000000 0.000000 0.000000
# 2 -0.000927 0.011749 -0.002941 0.000000 0.000000 0.000000
# 3 -0.004186 -0.002941 0.007292 0.000000 0.000000 0.000000
# 4 0.000000 0.000000 0.000000 -0.006848 0.000000 0.000000
# 5 0.000000 0.000000 0.000000 0.000000 0.023110 0.000000
# 6 0.000000 0.000000 0.000000 0.000000 0.000000 0.042804
#
#
# Mechanical properties :
#
#
# Convention : Reuss Voigt Hill
#
# Bulk Modulus (GPa) = 66.49232 81.25177 73.87204
# Shear Modulus (GPa) = 44.90926 1.19983 23.05454
#
# Velocity S-wave (km/s) = 4.77333 0.78021 3.42004
# Velocity P-wave (km/s) = 8.00714 6.48341 7.28523
#
# Compressibility (1/GPa) = 0.01503933
#
# Stress axis : x y z
#
# Youngs Moduli (GPa) = 82.59944 85.11387 137.12942
#
# Poissons Ratio (x) = 0.07892 0.57406
# Poissons Ratio (y) = 0.07659 0.40327
# Poissons Ratio (z) = 0.34578 0.25030
#
# Static dielectric constant tensor:
#      x y z
#    x 1.704550 0.000000 0.000000 
#    y 0.000000 1.785020 0.000000 
#    z 0.000000 0.000000 1.736660 
# 
# From -- ./inp_files/40504.got.cif
#   From: 2010.05.17/outbox.ucp.g08.bks.cvg/sg67_21_cif.got.tgz:40504.got - 2010.06.11 16:47:20.
