data_PCOD9505733
_publ_section_title
;
Structure prediction by ZEFSAII (Michael W. Deem and Ramdas Pophale) SiO2 
 PCOD9505733
Probable space group: C C C A
;
_chemical_formula_sum "Si O2"
_cell_formula_units_Z 96
_cell_length_a 17.874349
_cell_length_b 12.473411
_cell_length_c 20.794059
_cell_angle_alpha 90.000000
_cell_angle_beta 90.000000
_cell_angle_gamma 90.000000
_cell_volume 4636.120740
_symmetry_space_group_name_H-M "C C C A"
_symmetry_group_IT_number 68
_space_group.IT_coordinate_system_code '2'
_symmetry_cell_setting 'orthorhombic'
loop_
_space_group_symop_operation_xyz
x,y,z
-x,1/2-y,z
x,1/2-y,1/2-z
-x,y,1/2-z
-x,-y,-z
x,1/2+y,-z
-x,1/2+y,1/2+z
x,-y,1/2+z
1/2+x,1/2+y,z
1/2-x,-y,z
1/2+x,-y,1/2-z
1/2-x,1/2+y,1/2-z
1/2-x,1/2-y,-z
1/2+x,y,-z
1/2-x,y,1/2+z
1/2+x,1/2-y,1/2+z
loop_
_atom_site_type_symbol
_atom_site_label
_atom_site_fract_x
_atom_site_fract_y
_atom_site_fract_z
Si Si1 0.629789 0.093138 0.921125
Si Si2 0.886427 0.411026 0.338111
Si Si3 0.500000 0.250000 0.615413
Si Si4 0.830136 0.250000 0.750000
Si Si5 0.253366 0.261231 0.614592
Si Si6 0.840849 0.015709 0.789793
Si Si7 0.330478 0.058681 0.441759
O O1 0.564472 0.183112 0.921407
O O2 0.710016 0.153394 0.912001
O O3 0.626164 0.015302 0.859289
O O4 0.631142 0.037943 0.990253
O O5 0.823115 0.338529 0.371580
O O6 0.867160 0.433799 0.264865
O O7 0.880389 0.517146 0.382303
O O8 0.960609 0.342400 0.343641
O O9 0.782293 0.245447 0.684922
O O10 0.865836 0.132628 0.762694
O O11 0.192584 0.317326 0.569002
O O12 0.750000 0.000000 0.791669
O O13 0.250000 0.000000 0.441128
#
# Coordination Sequence:
#
# PCOD9505733 Si02
#       7
#    16  16   8   8  16  16  16
#     4  11  23  38  60  92 127 162 212 251 302 380
#     4  10  20  39  60  85 125 162 204 253 307 364
#     4  10  26  43  62  88 112 171 216 250 296 367
#     4  12  20  34  60  96 126 154 194 246 328 374
#     4  10  18  33  60  94 125 156 200 256 319 368
#     4  12  21  36  61  94 125 154 194 256 316 368
#     4  10  20  36  60  91 129 162 197 266 327 359
#
# _framework density 20.706966999999999
#
# number of rings (size 3 to 8) (size 9 to 14) (size 15 to 20)
#    0.000    1.333    5.000    1.500    0.000    4.000 
#    0.000    0.000    0.000    2.000    0.000    0.000 
#    0.000    0.000    0.000    0.000    0.000    0.000 
#
# Total GULP energy -267525.829050 kJ/mol
# GULP energy per Si atom -5573.454772 kJ/mol
# Density = 2.065984 g / cm^3
# Si number density = 20.706967 Si / 1000 Ang^3
#
#
#
# Elastic Constant Matrix: (Units=GPa)
#
#
# Indices 1 2 3 4 5 6 
#
# 1 52.6745 10.9782 23.9877 0.0000 0.0000 0.0000
# 2 10.9782 50.6606 0.6350 0.0000 0.0000 0.0000
# 3 23.9877 0.6350 120.3061 0.0000 0.0000 0.0000
# 4 0.0000 0.0000 0.0000 25.7541 0.0000 0.0000
# 5 0.0000 0.0000 0.0000 0.0000 6.2577 0.0000
# 6 0.0000 0.0000 0.0000 0.0000 0.0000 15.6689
#
#
#
# Elastic Compliance Matrix: (Units=1/GPa)
#
#
# Indices 1 2 3 4 5 6 
#
# 1 0.021946 -0.004701 -0.004351 0.000000 0.000000 0.000000
# 2 -0.004701 0.020748 0.000828 0.000000 0.000000 0.000000
# 3 -0.004351 0.000828 0.009175 0.000000 0.000000 0.000000
# 4 0.000000 0.000000 0.000000 0.038829 0.000000 0.000000
# 5 0.000000 0.000000 0.000000 0.000000 0.159802 0.000000
# 6 0.000000 0.000000 0.000000 0.000000 0.000000 0.063821
#
#
# Mechanical properties :
#
#
# Convention : Reuss Voigt Hill
#
# Bulk Modulus (GPa) = 28.23251 32.76034 30.49643
# Shear Modulus (GPa) = 14.59533 22.07216 18.33375
#
# Velocity S-wave (km/s) = 2.65778 3.26840 2.97878
# Velocity P-wave (km/s) = 4.80441 5.48621 5.15659
#
# Compressibility (1/GPa) = 0.03542015
#
# Stress axis : x y z
#
# Youngs Moduli (GPa) = 45.56701 48.19837 108.98847
#
# Poissons Ratio (x) = 0.22659 0.47420
# Poissons Ratio (y) = 0.21422 -0.09023
# Poissons Ratio (z) = 0.19826 -0.03990
#
# Static dielectric constant tensor:
#      x y z
#    x 1.748380 0.000000 0.000000 
#    y 0.000000 1.998360 0.000000 
#    z 0.000000 0.000000 1.708510 
# 
# From -- ./inp_files/37692.got.cif
#   From: 2010.05.17/outbox.cif.g08.bks.cpg/sg68_19_cif.got.tgz:37692.got - 2010.06.03 18:57:09.
