data_PCOD9505960
_publ_section_title
;
Structure prediction by ZEFSAII (Michael W. Deem and Ramdas Pophale) SiO2 
 PCOD9505960
Probable space group: C C C A
;
_chemical_formula_sum "Si O2"
_cell_formula_units_Z 112
_cell_length_a 19.325618
_cell_length_b 16.405235
_cell_length_c 16.098466
_cell_angle_alpha 90.000000
_cell_angle_beta 90.000000
_cell_angle_gamma 90.000000
_cell_volume 5103.878666
_symmetry_space_group_name_H-M "C C C A"
_symmetry_group_IT_number 68
_space_group.IT_coordinate_system_code '2'
_symmetry_cell_setting 'orthorhombic'
loop_
_space_group_symop_operation_xyz
x,y,z
-x,1/2-y,z
x,1/2-y,1/2-z
-x,y,1/2-z
-x,-y,-z
x,1/2+y,-z
-x,1/2+y,1/2+z
x,-y,1/2+z
1/2+x,1/2+y,z
1/2-x,-y,z
1/2+x,-y,1/2-z
1/2-x,1/2+y,1/2-z
1/2-x,1/2-y,-z
1/2+x,y,-z
1/2-x,y,1/2+z
1/2+x,1/2-y,1/2+z
loop_
_atom_site_type_symbol
_atom_site_label
_atom_site_fract_x
_atom_site_fract_y
_atom_site_fract_z
Si Si1 0.518926 0.164687 0.530193
Si Si2 0.891512 0.386002 0.142374
Si Si3 0.607611 0.953417 0.938389
Si Si4 0.240229 0.405180 0.877202
Si Si5 0.369013 0.642107 0.171742
Si Si6 0.785295 0.832410 0.203815
Si Si7 0.330306 0.526188 0.600340
O O1 0.500000 0.250000 0.488929
O O2 0.453151 0.141844 0.585006
O O3 0.540343 0.095615 0.465036
O O4 0.581589 0.171266 0.597692
O O5 0.814500 0.364786 0.108177
O O6 0.896712 0.349127 0.234588
O O7 0.896847 0.485329 0.139202
O O8 0.629190 0.011332 0.015205
O O9 0.669598 0.887251 0.925680
O O10 0.250000 0.500000 0.895455
O O11 0.226357 0.394122 0.780114
O O12 0.292051 0.680610 0.167434
O O13 0.359742 0.544485 0.159733
O O14 0.809887 0.750000 0.250000
O O15 0.830037 0.882795 0.137390
O O16 0.250000 0.500000 0.587831
#
# Coordination Sequence:
#
# PCOD9505960 Si02
#       7
#    16  16  16  16  16  16  16
#     4  11  24  37  54  86 122 155 188 240 297 346
#     4  10  19  35  59  82 106 151 200 237 277 345
#     4  10  20  38  59  80 115 156 199 234 289 354
#     4   9  18  35  60  82 109 152 191 239 291 341
#     4   9  20  34  57  78 113 153 197 230 288 349
#     4  10  19  31  54  89 118 143 187 245 299 341
#     4   9  16  32  53  79 109 151 190 234 281 349
#
# _framework density 21.944095000000001
#
# number of rings (size 3 to 8) (size 9 to 14) (size 15 to 20)
#    0.000    2.286    0.000    5.143    4.000    0.571 
#    2.571    0.714    0.000    0.000    0.000    0.000 
#    0.000    0.000    0.000    0.000    0.000    0.000 
#
# Total GULP energy -312356.095149 kJ/mol
# GULP energy per Si atom -5577.787413 kJ/mol
# Density = 2.189415 g / cm^3
# Si number density = 21.944095 Si / 1000 Ang^3
#
#
#
# Elastic Constant Matrix: (Units=GPa)
#
#
# Indices 1 2 3 4 5 6 
#
# 1 46.8583 14.9137 10.1197 0.0000 0.0000 0.0000
# 2 14.9137 92.2087 17.9594 0.0000 0.0000 0.0000
# 3 10.1197 17.9594 49.7673 0.0000 0.0000 0.0000
# 4 0.0000 0.0000 0.0000 20.5474 0.0000 0.0000
# 5 0.0000 0.0000 0.0000 0.0000 6.5089 0.0000
# 6 0.0000 0.0000 0.0000 0.0000 0.0000 15.4969
#
#
#
# Elastic Compliance Matrix: (Units=1/GPa)
#
#
# Indices 1 2 3 4 5 6 
#
# 1 0.023083 -0.003032 -0.003599 0.000000 0.000000 0.000000
# 2 -0.003032 0.012063 -0.003737 0.000000 0.000000 0.000000
# 3 -0.003599 -0.003737 0.022174 0.000000 0.000000 0.000000
# 4 0.000000 0.000000 0.000000 0.048668 0.000000 0.000000
# 5 0.000000 0.000000 0.000000 0.000000 0.153635 0.000000
# 6 0.000000 0.000000 0.000000 0.000000 0.000000 0.064529
#
#
# Mechanical properties :
#
#
# Convention : Reuss Voigt Hill
#
# Bulk Modulus (GPa) = 27.33477 30.53555 28.93516
# Shear Modulus (GPa) = 14.00229 18.23340 16.11785
#
# Velocity S-wave (km/s) = 2.52878 2.88567 2.71310
# Velocity P-wave (km/s) = 4.58366 5.00481 4.79886
#
# Compressibility (1/GPa) = 0.03658345
#
# Stress axis : x y z
#
# Youngs Moduli (GPa) = 43.32112 82.89675 45.09817
#
# Poissons Ratio (x) = 0.25138 0.16233
# Poissons Ratio (y) = 0.13137 0.16851
# Poissons Ratio (z) = 0.15593 0.30975
#
# Static dielectric constant tensor:
#      x y z
#    x 1.871470 0.000000 0.000000 
#    y 0.000000 1.877000 0.000000 
#    z 0.000000 0.000000 1.807410 
# 
# From -- ./inp_files/33136.got.cif
#   From: 2010.05.17/outbox.cif.g08.bks.cpg/sg68_17_cif.got.tgz:33136.got - 2010.06.03 18:57:09.
