data_PCOD9505784
_publ_section_title
;
Structure prediction by ZEFSAII (Michael W. Deem and Ramdas Pophale) SiO2 
 PCOD9505784
Probable space group: C C C A
;
_chemical_formula_sum "Si O2"
_cell_formula_units_Z 96
_cell_length_a 19.575996
_cell_length_b 17.050956
_cell_length_c 12.341267
_cell_angle_alpha 90.000000
_cell_angle_beta 90.000000
_cell_angle_gamma 90.000000
_cell_volume 4119.384680
_symmetry_space_group_name_H-M "C C C A"
_symmetry_group_IT_number 68
_space_group.IT_coordinate_system_code '2'
_symmetry_cell_setting 'orthorhombic'
loop_
_space_group_symop_operation_xyz
x,y,z
-x,1/2-y,z
x,1/2-y,1/2-z
-x,y,1/2-z
-x,-y,-z
x,1/2+y,-z
-x,1/2+y,1/2+z
x,-y,1/2+z
1/2+x,1/2+y,z
1/2-x,-y,z
1/2+x,-y,1/2-z
1/2-x,1/2+y,1/2-z
1/2-x,1/2-y,-z
1/2+x,y,-z
1/2-x,y,1/2+z
1/2+x,1/2-y,1/2+z
loop_
_atom_site_type_symbol
_atom_site_label
_atom_site_fract_x
_atom_site_fract_y
_atom_site_fract_z
Si Si1 0.922285 0.748253 0.462032
Si Si2 0.829752 0.187253 0.161340
Si Si3 0.577896 0.424950 0.452102
Si Si4 0.426025 0.404084 0.362197
Si Si5 0.925209 0.565871 0.712107
Si Si6 0.688156 0.552074 0.475480
O O1 0.873471 0.772747 0.563296
O O2 0.902051 0.663061 0.418615
O O3 0.928953 0.810472 0.363092
O O4 0.000000 0.750000 0.508181
O O5 0.803536 0.250000 0.250000
O O6 0.876214 0.126552 0.229088
O O7 0.783604 0.123264 0.098105
O O8 0.497120 0.429846 0.421853
O O9 0.579892 0.470749 0.228231
O O10 0.631018 0.494062 0.423818
O O11 0.418005 0.576652 0.416501
O O12 0.356124 0.413298 0.428261
O O13 0.000000 0.588240 0.750000
O O14 0.750000 0.500000 0.514586
#
# Coordination Sequence:
#
# PCOD9505784 Si02
#       6
#    16  16  16  16  16  16
#     4   9  17  32  54  84 112 140 181 231 282 336
#     4  11  21  32  53  82 114 136 183 242 290 326
#     4  10  18  35  58  82 110 147 186 233 283 339
#     4   9  19  34  54  82 111 146 188 225 278 342
#     4  11  18  28  52  83 115 139 176 232 290 333
#     4  10  21  38  57  77 110 155 188 227 284 343
#
# _framework density 23.304451
#
# number of rings (size 3 to 8) (size 9 to 14) (size 15 to 20)
#    0.000    2.000    1.667    6.000    0.000    0.000 
#    0.000    6.667    3.667   10.500    0.000    0.000 
#    0.000    0.000    0.000    0.000    0.667    0.000 
#
# Total GULP energy -267228.171558 kJ/mol
# GULP energy per Si atom -5567.253574 kJ/mol
# Density = 2.325141 g / cm^3
# Si number density = 23.304451 Si / 1000 Ang^3
#
#
#
# Elastic Constant Matrix: (Units=GPa)
#
#
# Indices 1 2 3 4 5 6 
#
# 1 46.5069 4.5482 7.4625 0.0000 0.0000 0.0000
# 2 4.5482 118.0666 -5.7795 0.0000 0.0000 0.0000
# 3 7.4625 -5.7795 36.5036 0.0000 0.0000 0.0000
# 4 0.0000 0.0000 0.0000 57.1595 0.0000 0.0000
# 5 0.0000 0.0000 0.0000 0.0000 -21.2535 0.0000
# 6 0.0000 0.0000 0.0000 0.0000 0.0000 18.0323
#
#
#
# Elastic Compliance Matrix: (Units=1/GPa)
#
#
# Indices 1 2 3 4 5 6 
#
# 1 0.022371 -0.001094 -0.004747 0.000000 0.000000 0.000000
# 2 -0.001094 0.008589 0.001584 0.000000 0.000000 0.000000
# 3 -0.004747 0.001584 0.028616 0.000000 0.000000 0.000000
# 4 0.000000 0.000000 0.000000 0.017495 0.000000 0.000000
# 5 0.000000 0.000000 0.000000 0.000000 -0.047051 0.000000
# 6 0.000000 0.000000 0.000000 0.000000 0.000000 0.055456
#
#
# Mechanical properties :
#
#
# Convention : Reuss Voigt Hill
#
# Bulk Modulus (GPa) = 19.58410 23.72661 21.65535
# Shear Modulus (GPa) = 45.04083 23.77738 34.40910
#
# Velocity S-wave (km/s) = 4.40103 3.19767 3.84670
# Velocity P-wave (km/s) = 5.85212 4.88228 5.38906
#
# Compressibility (1/GPa) = 0.05106184
#
# Stress axis : x y z
#
# Youngs Moduli (GPa) = 44.70112 116.42167 34.94593
#
# Poissons Ratio (x) = 0.12738 0.16587
# Poissons Ratio (y) = 0.04891 -0.05534
# Poissons Ratio (z) = 0.21218 -0.18437
#
# Static dielectric constant tensor:
#      x y z
#    x 1.832450 0.000000 0.000000 
#    y 0.000000 1.998430 0.000000 
#    z 0.000000 0.000000 1.994140 
# 
# From -- ./inp_files/24475.got.cif
#   From: 2010.05.17/outbox.cif.g08.bks.cpg/sg68_13_cif.got.tgz:24475.got - 2010.06.03 18:57:09.
