data_PCOD9505483
_publ_section_title
;
Structure prediction by ZEFSAII (Michael W. Deem and Ramdas Pophale) SiO2 
 PCOD9505483
Probable space group: C C C A
;
_chemical_formula_sum "Si O2"
_cell_formula_units_Z 104
_cell_length_a 9.807233
_cell_length_b 18.481963
_cell_length_c 30.126494
_cell_angle_alpha 90.000000
_cell_angle_beta 90.000000
_cell_angle_gamma 90.000000
_cell_volume 5460.635436
_symmetry_space_group_name_H-M "C C C A"
_symmetry_group_IT_number 68
_space_group.IT_coordinate_system_code '2'
_symmetry_cell_setting 'orthorhombic'
loop_
_space_group_symop_operation_xyz
x,y,z
-x,1/2-y,z
x,1/2-y,1/2-z
-x,y,1/2-z
-x,-y,-z
x,1/2+y,-z
-x,1/2+y,1/2+z
x,-y,1/2+z
1/2+x,1/2+y,z
1/2-x,-y,z
1/2+x,-y,1/2-z
1/2-x,1/2+y,1/2-z
1/2-x,1/2-y,-z
1/2+x,y,-z
1/2-x,y,1/2+z
1/2+x,1/2-y,1/2+z
loop_
_atom_site_type_symbol
_atom_site_label
_atom_site_fract_x
_atom_site_fract_y
_atom_site_fract_z
Si Si1 0.598696 0.374647 0.003303
Si Si2 0.857643 0.442838 0.275685
Si Si3 0.000000 0.750000 0.561763
Si Si4 0.500000 0.250000 0.352642
Si Si5 0.250000 0.000000 0.363504
Si Si6 0.341825 0.402372 0.056286
Si Si7 0.294971 0.233322 0.076765
Si Si8 0.131471 0.173049 0.773932
O O1 0.484043 0.417127 0.031098
O O2 0.679908 0.321216 0.036526
O O3 0.524107 0.319816 0.969273
O O4 0.710701 0.417750 0.975016
O O5 0.750000 0.500000 0.254945
O O6 0.858649 0.466370 0.328048
O O7 0.771286 0.369376 0.273511
O O8 0.000000 0.441291 0.250000
O O9 0.137089 0.762415 0.588746
O O10 0.390249 0.289308 0.383123
O O11 0.419962 0.192824 0.322754
O O12 0.318056 0.057812 0.396932
O O13 0.339102 0.314861 0.063258
O O14 0.148972 0.250000 0.750000
O O15 0.000000 0.136095 0.750000
#
# Coordination Sequence:
#
# PCOD9505483 Si02
#       8
#    16  16   8   8   8  16  16  16
#     4  11  18  32  58  80 113 162 201 263 307 355
#     4  10  22  42  70  92 119 163 208 256 323 395
#     4  10  17  30  44  87 113 146 209 247 306 342
#     4  10  18  32  56  87 126 158 198 251 317 380
#     4  10  26  40  62  86 118 168 208 256 304 390
#     4  11  20  36  55  81 121 159 215 249 305 359
#     4  11  18  29  55  85 111 161 201 256 307 361
#     4   9  20  39  64  97 125 157 198 255 331 402
#
# _framework density 19.045401999999999
#
# number of rings (size 3 to 8) (size 9 to 14) (size 15 to 20)
#    0.462    1.385    4.615    2.308    0.000    0.923 
#    0.000    9.231    3.385    0.000    0.000    0.000 
#    0.000    0.000    0.000    0.000    0.000    0.000 
#
# Total GULP energy -289838.030508 kJ/mol
# GULP energy per Si atom -5573.808279 kJ/mol
# Density = 1.900205 g / cm^3
# Si number density = 19.045402 Si / 1000 Ang^3
#
#
#
# Elastic Constant Matrix: (Units=GPa)
#
#
# Indices 1 2 3 4 5 6 
#
# 1 173.2714 41.4067 75.1949 0.0000 0.0000 0.0000
# 2 41.4067 56.8520 38.0205 0.0000 0.0000 0.0000
# 3 75.1949 38.0205 115.3591 0.0000 0.0000 0.0000
# 4 0.0000 0.0000 0.0000 14.0481 0.0000 0.0000
# 5 0.0000 0.0000 0.0000 0.0000 22.7533 0.0000
# 6 0.0000 0.0000 0.0000 0.0000 0.0000 17.8163
#
#
#
# Elastic Compliance Matrix: (Units=1/GPa)
#
#
# Indices 1 2 3 4 5 6 
#
# 1 0.008473 -0.003178 -0.004476 0.000000 0.000000 0.000000
# 2 -0.003178 0.023755 -0.005758 0.000000 0.000000 0.000000
# 3 -0.004476 -0.005758 0.013484 0.000000 0.000000 0.000000
# 4 0.000000 0.000000 0.000000 0.071184 0.000000 0.000000
# 5 0.000000 0.000000 0.000000 0.000000 0.043950 0.000000
# 6 0.000000 0.000000 0.000000 0.000000 0.000000 0.056128
#
#
# Mechanical properties :
#
#
# Convention : Reuss Voigt Hill
#
# Bulk Modulus (GPa) = 52.94146 72.74743 62.84444
# Shear Modulus (GPa) = 19.99267 23.64758 21.82012
#
# Velocity S-wave (km/s) = 3.24348 3.52752 3.38848
# Velocity P-wave (km/s) = 6.47184 7.40749 6.95542
#
# Compressibility (1/GPa) = 0.01888879
#
# Stress axis : x y z
#
# Youngs Moduli (GPa) = 118.02174 42.09702 74.16451
#
# Poissons Ratio (x) = 0.13378 0.33193
# Poissons Ratio (y) = 0.37507 0.42701
# Poissons Ratio (z) = 0.52822 0.24238
#
# Static dielectric constant tensor:
#      x y z
#    x 1.660570 0.000000 0.000000 
#    y 0.000000 1.715030 0.000000 
#    z 0.000000 0.000000 1.684730 
# 
# From -- ./inp_files/54161.got.cif
#   From: 2010.05.17/outbox.cif.g08.bks.cpg/sg68_28_cif.got.tgz:54161.got - 2010.06.03 18:57:09.
