data_PCOD9505400
_publ_section_title
;
Structure prediction by ZEFSAII (Michael W. Deem and Ramdas Pophale) SiO2 
 PCOD9505400
Probable space group: C C C A
;
_chemical_formula_sum "Si O2"
_cell_formula_units_Z 108
_cell_length_a 23.231527
_cell_length_b 14.935384
_cell_length_c 15.148904
_cell_angle_alpha 90.000000
_cell_angle_beta 90.000000
_cell_angle_gamma 90.000000
_cell_volume 5256.242135
_symmetry_space_group_name_H-M "C C C A"
_symmetry_group_IT_number 68
_space_group.IT_coordinate_system_code '2'
_symmetry_cell_setting 'orthorhombic'
loop_
_space_group_symop_operation_xyz
x,y,z
-x,1/2-y,z
x,1/2-y,1/2-z
-x,y,1/2-z
-x,-y,-z
x,1/2+y,-z
-x,1/2+y,1/2+z
x,-y,1/2+z
1/2+x,1/2+y,z
1/2-x,-y,z
1/2+x,-y,1/2-z
1/2-x,1/2+y,1/2-z
1/2-x,1/2-y,-z
1/2+x,y,-z
1/2-x,y,1/2+z
1/2+x,1/2-y,1/2+z
loop_
_atom_site_type_symbol
_atom_site_label
_atom_site_fract_x
_atom_site_fract_y
_atom_site_fract_z
Si Si1 0.867187 0.120144 0.081283
Si Si2 0.000000 0.750000 0.250000
Si Si3 0.932057 0.089103 0.266522
Si Si4 0.814543 0.750000 0.250000
Si Si5 0.738438 0.327741 0.429650
Si Si6 0.564059 0.708622 0.065379
Si Si7 0.904281 0.892382 0.241041
Si Si8 0.125063 0.930618 0.455554
O O1 0.897409 0.112835 0.177565
O O2 0.798486 0.122084 0.087061
O O3 0.892406 0.211554 0.042752
O O4 0.882860 0.034271 0.022439
O O5 0.955134 0.823735 0.212760
O O6 0.919086 0.160481 0.342806
O O7 0.000000 0.097188 0.250000
O O8 0.921494 0.984024 0.290148
O O9 0.780617 0.713051 0.334738
O O10 0.856081 0.829950 0.284868
O O11 0.750000 0.250000 0.500000
O O12 0.688064 0.389197 0.471755
O O13 0.500000 0.750000 0.068078
O O14 0.575105 0.630244 0.995650
O O15 0.878686 0.926686 0.149687
#
# Coordination Sequence:
#
# PCOD9505400 Si02
#       8
#    16   4  16   8  16  16  16  16
#     4  11  24  42  67  91 131 177 212 276 333 384
#     4  10  16  32  64  84 110 176 200 240 314 376
#     4  11  22  41  63  95 133 168 222 267 333 405
#     4   9  22  39  64  98 131 170 225 276 336 400
#     4  11  22  42  69  94 129 172 227 280 333 400
#     4  12  25  41  66  99 131 172 218 276 332 404
#     4   9  20  39  60  90 128 166 210 268 319 393
#     4  10  24  44  60  97 129 168 217 268 337 393
#
# _framework density 20.546999
#
# number of rings (size 3 to 8) (size 9 to 14) (size 15 to 20)
#    0.000    1.481    3.704    0.889    3.111    1.778 
#    2.667    0.000    0.000    0.000    0.000    0.000 
#    0.000    0.000    0.000    0.000    0.000    0.000 
#
# Total GULP energy -300970.435373 kJ/mol
# GULP energy per Si atom -5573.526581 kJ/mol
# Density = 2.050023 g / cm^3
# Si number density = 20.546999 Si / 1000 Ang^3
#
#
#
# Elastic Constant Matrix: (Units=GPa)
#
#
# Indices 1 2 3 4 5 6 
#
# 1 66.6908 23.9515 11.0725 0.0000 0.0000 0.0000
# 2 23.9515 144.2854 23.6396 0.0000 0.0000 0.0000
# 3 11.0725 23.6396 42.7914 0.0000 0.0000 0.0000
# 4 0.0000 0.0000 0.0000 30.5420 0.0000 0.0000
# 5 0.0000 0.0000 0.0000 0.0000 17.9317 0.0000
# 6 0.0000 0.0000 0.0000 0.0000 0.0000 28.5396
#
#
#
# Elastic Compliance Matrix: (Units=1/GPa)
#
#
# Indices 1 2 3 4 5 6 
#
# 1 0.016286 -0.002213 -0.002991 0.000000 0.000000 0.000000
# 2 -0.002213 0.007921 -0.003803 0.000000 0.000000 0.000000
# 3 -0.002991 -0.003803 0.026244 0.000000 0.000000 0.000000
# 4 0.000000 0.000000 0.000000 0.032742 0.000000 0.000000
# 5 0.000000 0.000000 0.000000 0.000000 0.055767 0.000000
# 6 0.000000 0.000000 0.000000 0.000000 0.000000 0.035039
#
#
# Mechanical properties :
#
#
# Convention : Reuss Voigt Hill
#
# Bulk Modulus (GPa) = 30.83033 41.23278 36.03155
# Shear Modulus (GPa) = 24.65150 28.40961 26.53055
#
# Velocity S-wave (km/s) = 3.46751 3.72245 3.59724
# Velocity P-wave (km/s) = 5.57395 6.21182 5.90151
#
# Compressibility (1/GPa) = 0.03243559
#
# Stress axis : x y z
#
# Youngs Moduli (GPa) = 61.40180 126.24249 38.10356
#
# Poissons Ratio (x) = 0.27943 0.11398
# Poissons Ratio (y) = 0.13591 0.14492
# Poissons Ratio (z) = 0.18367 0.48013
#
# Static dielectric constant tensor:
#      x y z
#    x 1.737510 0.000000 0.000000 
#    y 0.000000 1.786160 0.000000 
#    z 0.000000 0.000000 1.687030 
# 
# From -- ./inp_files/25503.got.cif
#   From: 2010.05.17/outbox.cif.g08.bks.cpg/sg68_13_cif.got.tgz:25503.got - 2010.06.03 18:57:09.
