data_PCOD9505430
_publ_section_title
;
Structure prediction by ZEFSAII (Michael W. Deem and Ramdas Pophale) SiO2 
 PCOD9505430
Probable space group: C C C A
;
_chemical_formula_sum "Si O2"
_cell_formula_units_Z 68
_cell_length_a 21.891266
_cell_length_b 5.344276
_cell_length_c 22.974569
_cell_angle_alpha 90.000000
_cell_angle_beta 90.000000
_cell_angle_gamma 90.000000
_cell_volume 2687.863004
_symmetry_space_group_name_H-M "C C C A"
_symmetry_group_IT_number 68
_space_group.IT_coordinate_system_code '2'
_symmetry_cell_setting 'orthorhombic'
loop_
_space_group_symop_operation_xyz
x,y,z
-x,1/2-y,z
x,1/2-y,1/2-z
-x,y,1/2-z
-x,-y,-z
x,1/2+y,-z
-x,1/2+y,1/2+z
x,-y,1/2+z
1/2+x,1/2+y,z
1/2-x,-y,z
1/2+x,-y,1/2-z
1/2-x,1/2+y,1/2-z
1/2-x,1/2-y,-z
1/2+x,y,-z
1/2-x,y,1/2+z
1/2+x,1/2-y,1/2+z
loop_
_atom_site_type_symbol
_atom_site_label
_atom_site_fract_x
_atom_site_fract_y
_atom_site_fract_z
Si Si1 0.919889 0.612265 0.841789
Si Si2 0.679557 0.043449 0.848643
Si Si3 0.000000 0.250000 0.250000
Si Si4 0.500000 0.250000 0.552569
Si Si5 0.377578 0.514889 0.969138
Si Si6 0.616935 0.250000 0.250000
O O1 0.848547 0.676586 0.848379
O O2 0.924732 0.383588 0.798272
O O3 0.950980 0.828421 0.801025
O O4 0.954232 0.601097 0.902576
O O5 0.641172 0.933132 0.902992
O O6 0.750000 0.000000 0.860355
O O7 0.661852 0.926087 0.787179
O O8 0.450834 0.041916 0.528241
O O9 0.354639 0.748419 0.006717
#
# Coordination Sequence:
#
# PCOD9505430 Si02
#       6
#    16  16   4   8  16   8
#     4  10  22  42  61 107 140 185 239 292 370 445
#     4  11  27  46  71 103 143 195 250 304 370 443
#     4  10  16  40  56  88 144 172 228 278 344 446
#     4   9  22  45  74 104 148 187 244 309 378 456
#     4  11  26  51  76 108 146 192 253 312 377 443
#     4  12  24  42  72 100 151 187 238 300 370 448
#
# _framework density 25.298907
#
# number of rings (size 3 to 8) (size 9 to 14) (size 15 to 20)
#    0.000    1.412    2.353    0.706    9.882    1.412 
#    4.235    0.000    0.000    0.000    0.000    0.000 
#    0.000    0.000    0.000    0.000    0.000    0.000 
#
# Total GULP energy -189434.945490 kJ/mol
# GULP energy per Si atom -5571.616044 kJ/mol
# Density = 2.524133 g / cm^3
# Si number density = 25.298907 Si / 1000 Ang^3
#
#
#
# Elastic Constant Matrix: (Units=GPa)
#
#
# Indices 1 2 3 4 5 6 
#
# 1 118.2475 7.8438 2.8792 0.0000 0.0000 0.0000
# 2 7.8438 96.9306 3.1673 0.0000 0.0000 0.0000
# 3 2.8792 3.1673 98.8968 0.0000 0.0000 0.0000
# 4 0.0000 0.0000 0.0000 13.3761 0.0000 0.0000
# 5 0.0000 0.0000 0.0000 0.0000 16.9744 0.0000
# 6 0.0000 0.0000 0.0000 0.0000 0.0000 12.2137
#
#
#
# Elastic Compliance Matrix: (Units=1/GPa)
#
#
# Indices 1 2 3 4 5 6 
#
# 1 0.008508 -0.000681 -0.000226 0.000000 0.000000 0.000000
# 2 -0.000681 0.010382 -0.000313 0.000000 0.000000 0.000000
# 3 -0.000226 -0.000313 0.010128 0.000000 0.000000 0.000000
# 4 0.000000 0.000000 0.000000 0.074760 0.000000 0.000000
# 5 0.000000 0.000000 0.000000 0.000000 0.058912 0.000000
# 6 0.000000 0.000000 0.000000 0.000000 0.000000 0.081875
#
#
# Mechanical properties :
#
#
# Convention : Reuss Voigt Hill
#
# Bulk Modulus (GPa) = 37.62446 37.98393 37.80420
# Shear Modulus (GPa) = 19.54163 28.52514 24.03338
#
# Velocity S-wave (km/s) = 2.78228 3.36151 3.08551
# Velocity P-wave (km/s) = 5.02252 5.48753 5.26016
#
# Compressibility (1/GPa) = 0.02657845
#
# Stress axis : x y z
#
# Youngs Moduli (GPa) = 117.54317 96.32063 98.73478
#
# Poissons Ratio (x) = 0.06560 0.02230
# Poissons Ratio (y) = 0.08005 0.03087
# Poissons Ratio (z) = 0.02655 0.03012
#
# Static dielectric constant tensor:
#      x y z
#    x 2.043580 0.000000 0.000000 
#    y 0.000000 2.370280 0.000000 
#    z 0.000000 0.000000 1.982320 
# 
# From -- ./inp_files/51655.got.cif
#   From: 2010.05.17/outbox.cif.g08.bks.cpg/sg68_26_cif.got.tgz:51655.got - 2010.06.03 18:57:09.
