data_PCOD9505539
_publ_section_title
;
Structure prediction by ZEFSAII (Michael W. Deem and Ramdas Pophale) SiO2 
 PCOD9505539
Probable space group: C C C A
;
_chemical_formula_sum "Si O2"
_cell_formula_units_Z 104
_cell_length_a 25.730339
_cell_length_b 20.859815
_cell_length_c 10.041392
_cell_angle_alpha 90.000000
_cell_angle_beta 90.000000
_cell_angle_gamma 90.000000
_cell_volume 5389.517447
_symmetry_space_group_name_H-M "C C C A"
_symmetry_group_IT_number 68
_space_group.IT_coordinate_system_code '2'
_symmetry_cell_setting 'orthorhombic'
loop_
_space_group_symop_operation_xyz
x,y,z
-x,1/2-y,z
x,1/2-y,1/2-z
-x,y,1/2-z
-x,-y,-z
x,1/2+y,-z
-x,1/2+y,1/2+z
x,-y,1/2+z
1/2+x,1/2+y,z
1/2-x,-y,z
1/2+x,-y,1/2-z
1/2-x,1/2+y,1/2-z
1/2-x,1/2-y,-z
1/2+x,y,-z
1/2-x,y,1/2+z
1/2+x,1/2-y,1/2+z
loop_
_atom_site_type_symbol
_atom_site_label
_atom_site_fract_x
_atom_site_fract_y
_atom_site_fract_z
Si Si1 0.903162 0.184098 0.516629
Si Si2 0.161745 0.560639 0.009800
Si Si3 0.185051 0.743162 0.607060
Si Si4 0.000000 0.750000 0.010313
Si Si5 0.553306 0.144451 0.300563
Si Si6 0.738020 0.856852 0.949428
Si Si7 0.150464 0.061205 0.678680
O O1 0.879682 0.116161 0.471538
O O2 0.856214 0.234102 0.502229
O O3 0.954579 0.209123 0.441543
O O4 0.919970 0.175174 0.669985
O O5 0.151945 0.544445 0.164716
O O6 0.218303 0.593041 0.993715
O O7 0.157690 0.500084 0.914443
O O8 0.158846 0.750000 0.750000
O O9 0.232061 0.794755 0.609057
O O10 0.206334 0.673386 0.572802
O O11 0.032703 0.800802 0.100035
O O12 0.500000 0.111309 0.250000
O O13 0.596249 0.096399 0.355533
O O14 0.697438 0.889626 0.850913
#
# Coordination Sequence:
#
# PCOD9505539 Si02
#       7
#    16  16  16   8  16  16  16
#     4   9  18  33  53  80 108 137 176 226 276 328
#     4  10  23  38  55  80 113 148 192 235 272 329
#     4  10  20  34  53  82 117 146 177 228 288 341
#     4  10  17  34  63  84 103 134 180 234 281 336
#     4   9  18  34  59  86 108 138 186 235 277 329
#     4  10  21  35  56  81 109 149 192 229 272 336
#     4  11  22  38  58  82 112 153 193 232 281 332
#
# _framework density 19.296719
#
# number of rings (size 3 to 8) (size 9 to 14) (size 15 to 20)
#    0.000    2.154    0.000    4.385    0.000    7.385 
#    0.000    7.308    0.000    1.846    0.000    0.000 
#    0.000    0.000    0.000    0.000    0.000    0.000 
#
# Total GULP energy -290020.430230 kJ/mol
# GULP energy per Si atom -5577.315966 kJ/mol
# Density = 1.925280 g / cm^3
# Si number density = 19.296719 Si / 1000 Ang^3
#
#
#
# Elastic Constant Matrix: (Units=GPa)
#
#
# Indices 1 2 3 4 5 6 
#
# 1 134.7980 63.7255 28.8227 0.0000 0.0000 0.0000
# 2 63.7255 106.2309 30.7822 0.0000 0.0000 0.0000
# 3 28.8227 30.7822 48.5709 0.0000 0.0000 0.0000
# 4 0.0000 0.0000 0.0000 12.6071 0.0000 0.0000
# 5 0.0000 0.0000 0.0000 0.0000 24.3457 0.0000
# 6 0.0000 0.0000 0.0000 0.0000 0.0000 21.4818
#
#
#
# Elastic Compliance Matrix: (Units=1/GPa)
#
#
# Indices 1 2 3 4 5 6 
#
# 1 0.010654 -0.005584 -0.002783 0.000000 0.000000 0.000000
# 2 -0.005584 0.014458 -0.005849 0.000000 0.000000 0.000000
# 3 -0.002783 -0.005849 0.025947 0.000000 0.000000 0.000000
# 4 0.000000 0.000000 0.000000 0.079320 0.000000 0.000000
# 5 0.000000 0.000000 0.000000 0.000000 0.041075 0.000000
# 6 0.000000 0.000000 0.000000 0.000000 0.000000 0.046551
#
#
# Mechanical properties :
#
#
# Convention : Reuss Voigt Hill
#
# Bulk Modulus (GPa) = 44.19731 59.58450 51.89090
# Shear Modulus (GPa) = 19.68660 22.77156 21.22908
#
# Velocity S-wave (km/s) = 3.19753 3.43895 3.32043
# Velocity P-wave (km/s) = 6.04864 6.83473 6.45367
#
# Compressibility (1/GPa) = 0.02262581
#
# Stress axis : x y z
#
# Youngs Moduli (GPa) = 93.86523 69.16409 38.54045
#
# Poissons Ratio (x) = 0.38625 0.10725
# Poissons Ratio (y) = 0.52419 0.22543
# Poissons Ratio (z) = 0.26121 0.40455
#
# Static dielectric constant tensor:
#      x y z
#    x 1.711590 0.000000 0.000000 
#    y 0.000000 1.673890 0.000000 
#    z 0.000000 0.000000 1.707460 
# 
# From -- ./inp_files/9016.got.cif
#   From: 2010.05.17/outbox.cif.g08.bks.cpg/sg68_5_cif.got.tgz:9016.got - 2010.06.03 18:57:09.
