data_PCOD9505038
_publ_section_title
;
Structure prediction by ZEFSAII (Michael W. Deem and Ramdas Pophale) SiO2 
 PCOD9505038
Probable space group: C M M A
;
_chemical_formula_sum "Si O2"
_cell_formula_units_Z 72
_cell_length_a 17.502372
_cell_length_b 20.263493
_cell_length_c 8.078935
_cell_angle_alpha 90.000000
_cell_angle_beta 90.000000
_cell_angle_gamma 90.000000
_cell_volume 2865.268563
_symmetry_space_group_name_H-M "C M M A"
_symmetry_group_IT_number 67
_symmetry_cell_setting 'orthorhombic'
loop_
_space_group_symop_operation_xyz
x,y,z
-x,1/2-y,z
x,-y,-z
-x,1/2+y,-z
-x,-y,-z
x,1/2+y,-z
-x,y,z
x,1/2-y,z
1/2+x,1/2+y,z
1/2-x,-y,z
1/2+x,1/2-y,-z
1/2-x,y,-z
1/2-x,1/2-y,-z
1/2+x,y,-z
1/2-x,1/2+y,z
1/2+x,-y,z
loop_
_atom_site_type_symbol
_atom_site_label
_atom_site_fract_x
_atom_site_fract_y
_atom_site_fract_z
Si Si1 0.750000 0.403237 0.500000
Si Si2 0.910446 0.890191 0.408636
Si Si3 0.587502 0.386933 0.018190
Si Si4 0.842346 0.250000 0.466789
Si Si5 0.285958 0.930210 0.176214
Si Si6 0.164247 0.750000 0.929502
O O1 0.838378 0.429223 0.510745
O O2 0.739613 0.377681 0.687369
O O3 0.883853 0.814900 0.455849
O O4 0.000000 0.900282 0.457929
O O5 0.905869 0.904286 0.212003
O O6 0.500000 0.383611 0.976785
O O7 0.627166 0.432747 0.879543
O O8 0.624026 0.315301 0.996553
O O9 0.750000 0.250000 0.500000
O O10 0.848835 0.250000 0.268367
O O11 0.250000 0.000000 0.229802
O O12 0.250000 0.913673 0.000000
O O13 0.250000 0.750000 0.000000
#
# Coordination Sequence:
#
# PCOD9505038 Si02
#       6
#     8  16  16   8  16   8
#     4  12  23  43  72  98 138 177 234 296 363 418
#     4  11  24  41  65  99 140 184 237 293 354 429
#     4  11  24  45  70 104 145 187 238 298 357 430
#     4  12  23  38  59  96 140 189 233 288 352 421
#     4  11  24  45  71 102 133 183 238 290 358 425
#     4  12  25  38  67 101 143 189 242 282 357 440
#
# _framework density 25.128534999999999
#
# number of rings (size 3 to 8) (size 9 to 14) (size 15 to 20)
#    0.000    0.667    3.333    5.000    0.000    6.222 
#    0.000    3.333    0.000    2.667    0.000    0.000 
#    0.000    0.000    0.000    0.000    0.000    0.000 
#
# Total GULP energy -200749.145628 kJ/mol
# GULP energy per Si atom -5576.365156 kJ/mol
# Density = 2.507134 g / cm^3
# Si number density = 25.128535 Si / 1000 Ang^3
#
#
#
# Elastic Constant Matrix: (Units=GPa)
#
#
# Indices 1 2 3 4 5 6 
#
# 1 277.0798 41.1305 45.6154 0.0000 0.0000 0.0000
# 2 41.1305 119.8264 5.9611 0.0000 0.0000 0.0000
# 3 45.6154 5.9611 109.7811 0.0000 0.0000 0.0000
# 4 0.0000 0.0000 0.0000 16.3234 0.0000 0.0000
# 5 0.0000 0.0000 0.0000 0.0000 47.4778 0.0000
# 6 0.0000 0.0000 0.0000 0.0000 0.0000 -9.9656
#
#
#
# Elastic Compliance Matrix: (Units=1/GPa)
#
#
# Indices 1 2 3 4 5 6 
#
# 1 0.004071 -0.001317 -0.001620 0.000000 0.000000 0.000000
# 2 -0.001317 0.008794 0.000070 0.000000 0.000000 0.000000
# 3 -0.001620 0.000070 0.009778 0.000000 0.000000 0.000000
# 4 0.000000 0.000000 0.000000 0.061262 0.000000 0.000000
# 5 0.000000 0.000000 0.000000 0.000000 0.021062 0.000000
# 6 0.000000 0.000000 0.000000 0.000000 0.000000 -0.100345
#
#
# Mechanical properties :
#
#
# Convention : Reuss Voigt Hill
#
# Bulk Modulus (GPa) = 59.14028 76.90016 68.02022
# Shear Modulus (GPa) = 312.62561 38.36581 175.49571
#
# Velocity S-wave (km/s) = 11.16605 3.91165 8.36605
# Velocity P-wave (km/s) = 13.77778 7.14636 10.97492
#
# Compressibility (1/GPa) = 0.01690895
#
# Stress axis : x y z
#
# Youngs Moduli (GPa) = 245.62335 113.71448 102.26574
#
# Poissons Ratio (x) = 0.14975 0.16569
# Poissons Ratio (y) = 0.32345 -0.00712
# Poissons Ratio (z) = 0.39795 -0.00792
#
# Static dielectric constant tensor:
#      x y z
#    x 2.093340 0.000000 0.000000 
#    y 0.000000 2.315630 0.000000 
#    z 0.000000 0.000000 2.011780 
# 
# From -- ./inp_files/8324.got.cif
#   From: 2010.05.17/outbox.cif.g08.bks.cpg/sg67_5_cif.got.tgz:8324.got - 2010.06.03 18:28:57.
