data_PCOD9505788
_publ_section_title
;
Structure prediction by ZEFSAII (Michael W. Deem and Ramdas Pophale) SiO2 
 PCOD9505788
Probable space group: C C C A
;
_chemical_formula_sum "Si O2"
_cell_formula_units_Z 128
_cell_length_a 12.740723
_cell_length_b 21.052415
_cell_length_c 24.409206
_cell_angle_alpha 90.000000
_cell_angle_beta 90.000000
_cell_angle_gamma 90.000000
_cell_volume 6547.110168
_symmetry_space_group_name_H-M "C C C A"
_symmetry_group_IT_number 68
_space_group.IT_coordinate_system_code '2'
_symmetry_cell_setting 'orthorhombic'
loop_
_space_group_symop_operation_xyz
x,y,z
-x,1/2-y,z
x,1/2-y,1/2-z
-x,y,1/2-z
-x,-y,-z
x,1/2+y,-z
-x,1/2+y,1/2+z
x,-y,1/2+z
1/2+x,1/2+y,z
1/2-x,-y,z
1/2+x,-y,1/2-z
1/2-x,1/2+y,1/2-z
1/2-x,1/2-y,-z
1/2+x,y,-z
1/2-x,y,1/2+z
1/2+x,1/2-y,1/2+z
loop_
_atom_site_type_symbol
_atom_site_label
_atom_site_fract_x
_atom_site_fract_y
_atom_site_fract_z
Si Si1 0.202348 0.746539 0.312247
Si Si2 0.438722 0.566339 0.003760
Si Si3 0.733066 0.891130 0.080960
Si Si4 0.880485 0.237281 0.102101
Si Si5 0.875785 0.110718 0.680101
Si Si6 0.217406 0.428914 0.911861
Si Si7 0.117249 0.610199 0.306240
Si Si8 0.130346 0.156675 0.019776
O O1 0.244361 0.750000 0.250000
O O2 0.295547 0.735481 0.355173
O O3 0.144094 0.812951 0.324652
O O4 0.125901 0.686372 0.312838
O O5 0.341233 0.561936 0.046200
O O6 0.517533 0.623182 0.018465
O O7 0.500000 0.500000 0.000000
O O8 0.388502 0.583703 0.945506
O O9 0.652893 0.836098 0.100095
O O10 0.800916 0.916250 0.132243
O O11 0.812661 0.857055 0.037920
O O12 0.870950 0.271793 0.042725
O O13 0.000000 0.250000 0.119755
O O14 0.852738 0.094515 0.743673
O O15 0.998397 0.093289 0.676843
O O16 0.250000 0.500000 0.925475
O O17 0.196828 0.420809 0.848307
O O18 0.303549 0.381893 0.935270
#
# Coordination Sequence:
#
# PCOD9505788 Si02
#       8
#    16  16  16  16  16  16  16  16
#     4   9  18  32  54  86 116 153 191 230 279 348
#     4  11  22  38  60  84 112 153 196 239 288 349
#     4  10  22  36  57  86 119 148 191 238 293 354
#     4  11  20  35  54  83 120 152 181 237 294 352
#     4   9  19  35  58  86 117 150 190 237 292 347
#     4  11  22  36  60  83 109 151 198 243 283 342
#     4  10  18  35  60  83 117 150 193 239 288 338
#     4  11  21  38  56  81 115 148 192 236 293 344
#
# _framework density 19.550609999999999
#
# number of rings (size 3 to 8) (size 9 to 14) (size 15 to 20)
#    0.000    1.750    3.750    1.500    0.000    1.750 
#    0.000    0.000    8.250    0.750    0.000    0.000 
#    0.000    0.000    0.000    0.000    0.000    0.000 
#
# Total GULP energy -356972.042229 kJ/mol
# GULP energy per Si atom -5577.688160 kJ/mol
# Density = 1.950611 g / cm^3
# Si number density = 19.550610 Si / 1000 Ang^3
#
#
#
# Elastic Constant Matrix: (Units=GPa)
#
#
# Indices 1 2 3 4 5 6 
#
# 1 78.4893 -4.9467 47.6442 0.0000 0.0000 0.0000
# 2 -4.9467 21.4304 2.9683 0.0000 0.0000 0.0000
# 3 47.6442 2.9683 107.1559 0.0000 0.0000 0.0000
# 4 0.0000 0.0000 0.0000 245.5598 0.0000 0.0000
# 5 0.0000 0.0000 0.0000 0.0000 27.8176 0.0000
# 6 0.0000 0.0000 0.0000 0.0000 0.0000 22.6470
#
#
#
# Elastic Compliance Matrix: (Units=1/GPa)
#
#
# Indices 1 2 3 4 5 6 
#
# 1 0.018029 0.005292 -0.008163 0.000000 0.000000 0.000000
# 2 0.005292 0.048396 -0.003694 0.000000 0.000000 0.000000
# 3 -0.008163 -0.003694 0.013064 0.000000 0.000000 0.000000
# 4 0.000000 0.000000 0.000000 0.004072 0.000000 0.000000
# 5 0.000000 0.000000 0.000000 0.000000 0.035948 0.000000
# 6 0.000000 0.000000 0.000000 0.000000 0.000000 0.044156
#
#
# Mechanical properties :
#
#
# Convention : Reuss Voigt Hill
#
# Bulk Modulus (GPa) = 15.06921 33.15634 24.11278
# Shear Modulus (GPa) = 25.13647 69.96553 47.55100
#
# Velocity S-wave (km/s) = 3.58957 5.98870 4.93708
# Velocity P-wave (km/s) = 4.99045 8.05081 6.69776
#
# Compressibility (1/GPa) = 0.06636049
#
# Stress axis : x y z
#
# Youngs Moduli (GPa) = 55.46607 20.66289 76.54698
#
# Poissons Ratio (x) = -0.10935 0.62483
# Poissons Ratio (y) = -0.29354 0.28274
# Poissons Ratio (z) = 0.45276 0.07632
#
# Static dielectric constant tensor:
#      x y z
#    x 1.687290 0.000000 0.000000 
#    y 0.000000 1.631380 0.000000 
#    z 0.000000 0.000000 1.698850 
# 
# From -- ./inp_files/44727.got.cif
#   From: 2010.05.17/outbox.cif.g08.bks.cpg/sg68_23_cif.got.tgz:44727.got - 2010.06.03 18:57:09.
