data_PCOD9505632
_publ_section_title
;
Structure prediction by ZEFSAII (Michael W. Deem and Ramdas Pophale) SiO2 
 PCOD9505632
Probable space group: C C C A
;
_chemical_formula_sum "Si O2"
_cell_formula_units_Z 104
_cell_length_a 12.906096
_cell_length_b 24.757527
_cell_length_c 19.101394
_cell_angle_alpha 90.000000
_cell_angle_beta 90.000000
_cell_angle_gamma 90.000000
_cell_volume 6103.335101
_symmetry_space_group_name_H-M "C C C A"
_symmetry_group_IT_number 68
_space_group.IT_coordinate_system_code '2'
_symmetry_cell_setting 'orthorhombic'
loop_
_space_group_symop_operation_xyz
x,y,z
-x,1/2-y,z
x,1/2-y,1/2-z
-x,y,1/2-z
-x,-y,-z
x,1/2+y,-z
-x,1/2+y,1/2+z
x,-y,1/2+z
1/2+x,1/2+y,z
1/2-x,-y,z
1/2+x,-y,1/2-z
1/2-x,1/2+y,1/2-z
1/2-x,1/2-y,-z
1/2+x,y,-z
1/2-x,y,1/2+z
1/2+x,1/2-y,1/2+z
loop_
_atom_site_type_symbol
_atom_site_label
_atom_site_fract_x
_atom_site_fract_y
_atom_site_fract_z
Si Si1 0.956556 0.940100 0.487133
Si Si2 0.724458 0.061336 0.717324
Si Si3 0.997639 0.189862 0.368031
Si Si4 0.693589 0.627334 0.416300
Si Si5 0.710961 0.561732 0.627598
Si Si6 0.144096 0.363890 0.469138
Si Si7 0.500000 0.898087 0.250000
O O1 0.870576 0.920708 0.544164
O O2 0.898789 0.935172 0.412473
O O3 0.052874 0.900369 0.498245
O O4 0.000000 0.000000 0.500000
O O5 0.743380 0.101866 0.653300
O O6 0.784475 0.074112 0.789676
O O7 0.601392 0.067287 0.733142
O O8 0.750000 0.000000 0.697350
O O9 0.109673 0.172309 0.396519
O O10 0.973216 0.142486 0.313064
O O11 0.000000 0.250000 0.338790
O O12 0.912531 0.184440 0.428912
O O13 0.777277 0.650284 0.469524
O O14 0.750000 0.500000 0.620353
O O15 0.790493 0.600321 0.586258
#
# Coordination Sequence:
#
# PCOD9505632 Si02
#       7
#    16  16  16  16  16  16   8
#     4  10  19  30  53  72 105 147 183 209 261 328
#     4  10  21  33  51  76 114 145 174 219 265 319
#     4  10  20  36  59  80 101 140 183 237 285 308
#     4   9  22  34  49  79 109 137 181 224 265 329
#     4  10  18  31  49  75 105 145 180 214 262 316
#     4  10  19  35  51  77 108 137 176 226 261 330
#     4  10  19  38  56  80 114 136 183 226 270 330
#
# _framework density 17.039864000000001
#
# number of rings (size 3 to 8) (size 9 to 14) (size 15 to 20)
#    0.000    2.154    3.077    0.231    2.154    0.615 
#    0.000    0.000    0.000    0.000    0.000    0.000 
#    0.000    0.000    0.000    0.000    0.000    0.000 
#
# Total GULP energy -289908.702458 kJ/mol
# GULP energy per Si atom -5575.167355 kJ/mol
# Density = 1.700108 g / cm^3
# Si number density = 17.039864 Si / 1000 Ang^3
#
#
#
# Elastic Constant Matrix: (Units=GPa)
#
#
# Indices 1 2 3 4 5 6 
#
# 1 57.6632 22.9335 28.1297 0.0000 0.0000 0.0000
# 2 22.9335 60.8466 9.7334 0.0000 0.0000 0.0000
# 3 28.1297 9.7334 85.0408 0.0000 0.0000 0.0000
# 4 0.0000 0.0000 0.0000 -2.7845 0.0000 0.0000
# 5 0.0000 0.0000 0.0000 0.0000 29.6140 0.0000
# 6 0.0000 0.0000 0.0000 0.0000 0.0000 6.4616
#
#
#
# Elastic Compliance Matrix: (Units=1/GPa)
#
#
# Indices 1 2 3 4 5 6 
#
# 1 0.023894 -0.007886 -0.007001 0.000000 0.000000 0.000000
# 2 -0.007886 0.019344 0.000394 0.000000 0.000000 0.000000
# 3 -0.007001 0.000394 0.014030 0.000000 0.000000 0.000000
# 4 0.000000 0.000000 0.000000 -0.359125 0.000000 0.000000
# 5 0.000000 0.000000 0.000000 0.000000 0.033768 0.000000
# 6 0.000000 0.000000 0.000000 0.000000 0.000000 0.154760
#
#
# Mechanical properties :
#
#
# Convention : Reuss Voigt Hill
#
# Bulk Modulus (GPa) = 35.35735 36.12706 35.74221
# Shear Modulus (GPa) = -66.73910 16.17517 -25.28197
#
# Velocity S-wave (km/s) = -6.26510 3.08434 -3.85606
# Velocity P-wave (km/s) = 5.61609 5.82509 1.09345
#
# Compressibility (1/GPa) = 0.02828266
#
# Stress axis : x y z
#
# Youngs Moduli (GPa) = 41.85219 51.69596 71.27754
#
# Poissons Ratio (x) = 0.40766 0.49901
# Poissons Ratio (y) = 0.33004 -0.02811
# Poissons Ratio (z) = 0.29300 -0.02039
#
# Static dielectric constant tensor:
#      x y z
#    x 1.575560 0.000000 0.000000 
#    y 0.000000 1.544040 0.000000 
#    z 0.000000 0.000000 1.622040 
# 
# From -- ./inp_files/29984.got.cif
#   From: 2010.05.17/outbox.cif.g08.bks.cpg/sg68_15_cif.got.tgz:29984.got - 2010.06.03 18:57:09.
