data_PCOD9505971
_publ_section_title
;
Structure prediction by ZEFSAII (Michael W. Deem and Ramdas Pophale) SiO2 
 PCOD9505971
Probable space group: C C C A
;
_chemical_formula_sum "Si O2"
_cell_formula_units_Z 96
_cell_length_a 24.156909
_cell_length_b 8.538679
_cell_length_c 25.407779
_cell_angle_alpha 90.000000
_cell_angle_beta 90.000000
_cell_angle_gamma 90.000000
_cell_volume 5240.814086
_symmetry_space_group_name_H-M "C C C A"
_symmetry_group_IT_number 68
_space_group.IT_coordinate_system_code '2'
_symmetry_cell_setting 'orthorhombic'
loop_
_space_group_symop_operation_xyz
x,y,z
-x,1/2-y,z
x,1/2-y,1/2-z
-x,y,1/2-z
-x,-y,-z
x,1/2+y,-z
-x,1/2+y,1/2+z
x,-y,1/2+z
1/2+x,1/2+y,z
1/2-x,-y,z
1/2+x,-y,1/2-z
1/2-x,1/2+y,1/2-z
1/2-x,1/2-y,-z
1/2+x,y,-z
1/2-x,y,1/2+z
1/2+x,1/2-y,1/2+z
loop_
_atom_site_type_symbol
_atom_site_label
_atom_site_fract_x
_atom_site_fract_y
_atom_site_fract_z
Si Si1 0.637844 0.596543 0.953583
Si Si2 0.958896 0.386764 0.032058
Si Si3 0.057643 0.052505 0.634981
Si Si4 0.927919 0.423833 0.855627
Si Si5 0.566558 0.065862 0.753432
Si Si6 0.289938 0.372321 0.470307
O O1 0.611230 0.516861 0.902300
O O2 0.673554 0.472751 0.987785
O O3 0.587995 0.659785 0.990340
O O4 0.672409 0.751580 0.937944
O O5 0.927775 0.469321 0.080509
O O6 0.000000 0.250000 0.050218
O O7 0.000000 0.500000 0.000000
O O8 0.067927 0.237259 0.636374
O O9 0.991226 0.021235 0.637166
O O10 0.083744 0.988240 0.688600
O O11 0.909999 0.474542 0.797162
O O12 0.576506 0.250000 0.750000
O O13 0.500000 0.038393 0.750000
O O14 0.250000 0.500000 0.442937
O O15 0.250000 0.250000 0.500000
#
# Coordination Sequence:
#
# PCOD9505971 Si02
#       6
#    16  16  16  16  16  16
#     4  11  20  33  54  78 108 148 183 225 281 340
#     4  12  23  32  48  77 118 153 187 223 268 334
#     4  10  20  32  46  68 109 154 187 222 253 308
#     4  10  19  32  49  71 105 144 192 221 265 317
#     4   9  19  31  48  67  97 147 198 226 254 294
#     4   9  20  37  54  74 104 139 184 239 293 341
#
# _framework density 18.317765000000001
#
# number of rings (size 3 to 8) (size 9 to 14) (size 15 to 20)
#    0.000    1.833    1.667    3.500    4.667    2.000 
#    0.000    0.000    0.000    0.000    0.000    0.000 
#    0.000  121.333    0.000    0.333    0.000    0.000 
#
# Total GULP energy -267553.957513 kJ/mol
# GULP energy per Si atom -5574.040782 kJ/mol
# Density = 1.827607 g / cm^3
# Si number density = 18.317765 Si / 1000 Ang^3
#
#
#
# Elastic Constant Matrix: (Units=GPa)
#
#
# Indices 1 2 3 4 5 6 
#
# 1 49.8753 10.0486 13.7206 0.0000 0.0000 0.0000
# 2 10.0486 36.5023 27.8381 0.0000 0.0000 0.0000
# 3 13.7206 27.8381 120.5565 0.0000 0.0000 0.0000
# 4 0.0000 0.0000 0.0000 28.2901 0.0000 0.0000
# 5 0.0000 0.0000 0.0000 0.0000 10.6037 0.0000
# 6 0.0000 0.0000 0.0000 0.0000 0.0000 28.2259
#
#
#
# Elastic Compliance Matrix: (Units=1/GPa)
#
#
# Indices 1 2 3 4 5 6 
#
# 1 0.021395 -0.004895 -0.001305 0.000000 0.000000 0.000000
# 2 -0.004895 0.034371 -0.007380 0.000000 0.000000 0.000000
# 3 -0.001305 -0.007380 0.010147 0.000000 0.000000 0.000000
# 4 0.000000 0.000000 0.000000 0.035348 0.000000 0.000000
# 5 0.000000 0.000000 0.000000 0.000000 0.094306 0.000000
# 6 0.000000 0.000000 0.000000 0.000000 0.000000 0.035428
#
#
# Mechanical properties :
#
#
# Convention : Reuss Voigt Hill
#
# Bulk Modulus (GPa) = 25.80295 34.46096 30.13195
# Shear Modulus (GPa) = 18.44521 23.77906 21.11214
#
# Velocity S-wave (km/s) = 3.17670 3.60688 3.39861
# Velocity P-wave (km/s) = 5.25092 6.01663 5.64677
#
# Compressibility (1/GPa) = 0.03875526
#
# Stress axis : x y z
#
# Youngs Moduli (GPa) = 46.73972 29.09428 98.54726
#
# Poissons Ratio (x) = 0.14241 0.12858
# Poissons Ratio (y) = 0.22878 0.72724
# Poissons Ratio (z) = 0.06098 0.21471
#
# Static dielectric constant tensor:
#      x y z
#    x 1.657640 0.000000 0.000000 
#    y 0.000000 1.668960 0.000000 
#    z 0.000000 0.000000 1.663970 
# 
# From -- ./inp_files/43415.got.cif
#   From: 2010.05.17/outbox.cif.g08.bks.cpg/sg68_22_cif.got.tgz:43415.got - 2010.06.03 18:57:09.
