data_PCOD9505681
_publ_section_title
;
Structure prediction by ZEFSAII (Michael W. Deem and Ramdas Pophale) SiO2 
 PCOD9505681
Probable space group: C C C A
;
_chemical_formula_sum "Si O2"
_cell_formula_units_Z 64
_cell_length_a 11.991051
_cell_length_b 15.312105
_cell_length_c 17.622952
_cell_angle_alpha 90.000000
_cell_angle_beta 90.000000
_cell_angle_gamma 90.000000
_cell_volume 3235.719059
_symmetry_space_group_name_H-M "C C C A"
_symmetry_group_IT_number 68
_space_group.IT_coordinate_system_code '2'
_symmetry_cell_setting 'orthorhombic'
loop_
_space_group_symop_operation_xyz
x,y,z
-x,1/2-y,z
x,1/2-y,1/2-z
-x,y,1/2-z
-x,-y,-z
x,1/2+y,-z
-x,1/2+y,1/2+z
x,-y,1/2+z
1/2+x,1/2+y,z
1/2-x,-y,z
1/2+x,-y,1/2-z
1/2-x,1/2+y,1/2-z
1/2-x,1/2-y,-z
1/2+x,y,-z
1/2-x,y,1/2+z
1/2+x,1/2-y,1/2+z
loop_
_atom_site_type_symbol
_atom_site_label
_atom_site_fract_x
_atom_site_fract_y
_atom_site_fract_z
Si Si1 0.609205 0.306254 0.565111
Si Si2 0.750000 0.000000 0.680665
Si Si3 0.192653 0.750000 0.250000
Si Si4 0.316651 0.823102 0.899767
Si Si5 0.383384 0.891647 0.215187
O O1 0.500000 0.250000 0.581146
O O2 0.614114 0.331090 0.476830
O O3 0.712840 0.241517 0.582031
O O4 0.609737 0.386999 0.624127
O O5 0.725651 0.917463 0.627396
O O6 0.852107 0.978361 0.738025
O O7 0.128832 0.721763 0.174334
O O8 0.278960 0.828900 0.233486
O O9 0.500000 0.859024 0.250000
#
# Coordination Sequence:
#
# PCOD9505681 Si02
#       5
#    16   8   8  16  16
#     4  10  19  35  58  78  99 138 185 218 250 308
#     4  10  20  34  50  78 112 134 164 218 274 314
#     4   8  15  32  55  74 100 140 179 210 247 308
#     4   9  19  34  53  78 107 136 172 219 265 311
#     4  10  18  32  54  77 101 136 178 215 255 307
#
# _framework density 19.779222000000001
#
# number of rings (size 3 to 8) (size 9 to 14) (size 15 to 20)
#    0.000    2.500    0.000    4.875    0.000    1.000 
#    0.000   15.625    0.000    0.000    0.000    0.000 
#    0.000    0.000    0.000    0.000    0.000    0.000 
#
# Total GULP energy -178141.967333 kJ/mol
# GULP energy per Si atom -5566.936479 kJ/mol
# Density = 1.973420 g / cm^3
# Si number density = 19.779222 Si / 1000 Ang^3
#
#
#
# Elastic Constant Matrix: (Units=GPa)
#
#
# Indices 1 2 3 4 5 6 
#
# 1 35.4446 -5.3525 18.0060 0.0000 0.0000 0.0000
# 2 -5.3525 54.7529 37.9362 0.0000 0.0000 0.0000
# 3 18.0060 37.9362 183.4362 0.0000 0.0000 0.0000
# 4 0.0000 0.0000 0.0000 17.9975 0.0000 0.0000
# 5 0.0000 0.0000 0.0000 0.0000 -51.0956 0.0000
# 6 0.0000 0.0000 0.0000 0.0000 0.0000 3.5726
#
#
#
# Elastic Compliance Matrix: (Units=1/GPa)
#
#
# Indices 1 2 3 4 5 6 
#
# 1 0.031327 0.006062 -0.004329 0.000000 0.000000 0.000000
# 2 0.006062 0.022492 -0.005246 0.000000 0.000000 0.000000
# 3 -0.004329 -0.005246 0.006961 0.000000 0.000000 0.000000
# 4 0.000000 0.000000 0.000000 0.055563 0.000000 0.000000
# 5 0.000000 0.000000 0.000000 0.000000 -0.019571 0.000000
# 6 0.000000 0.000000 0.000000 0.000000 0.000000 0.279907
#
#
# Mechanical properties :
#
#
# Convention : Reuss Voigt Hill
#
# Bulk Modulus (GPa) = 18.60350 41.64591 30.12471
# Shear Modulus (GPa) = 12.44946 8.96450 10.70698
#
# Velocity S-wave (km/s) = 2.51155 2.13123 2.32916
# Velocity P-wave (km/s) = 4.22333 5.21126 4.74309
#
# Compressibility (1/GPa) = 0.05375333
#
# Stress axis : x y z
#
# Youngs Moduli (GPa) = 31.92095 44.46122 143.64930
#
# Poissons Ratio (x) = -0.26951 0.62181
# Poissons Ratio (y) = -0.19349 0.75365
# Poissons Ratio (z) = 0.13818 0.23326
#
# Static dielectric constant tensor:
#      x y z
#    x 1.705710 0.000000 0.000000 
#    y 0.000000 1.723440 0.000000 
#    z 0.000000 0.000000 1.774590 
# 
# From -- ./inp_files/21962.got.cif
#   From: 2010.05.17/outbox.cif.g08.bks.cpg/sg68_11_cif.got.tgz:21962.got - 2010.06.03 18:57:09.
