data_PCOD9505486
_publ_section_title
;
Structure prediction by ZEFSAII (Michael W. Deem and Ramdas Pophale) SiO2 
 PCOD9505486
Probable space group: C C C A
;
_chemical_formula_sum "Si O2"
_cell_formula_units_Z 72
_cell_length_a 27.048383
_cell_length_b 5.580979
_cell_length_c 20.794571
_cell_angle_alpha 90.000000
_cell_angle_beta 90.000000
_cell_angle_gamma 90.000000
_cell_volume 3139.074774
_symmetry_space_group_name_H-M "C C C A"
_symmetry_group_IT_number 68
_space_group.IT_coordinate_system_code '2'
_symmetry_cell_setting 'orthorhombic'
loop_
_space_group_symop_operation_xyz
x,y,z
-x,1/2-y,z
x,1/2-y,1/2-z
-x,y,1/2-z
-x,-y,-z
x,1/2+y,-z
-x,1/2+y,1/2+z
x,-y,1/2+z
1/2+x,1/2+y,z
1/2-x,-y,z
1/2+x,-y,1/2-z
1/2-x,1/2+y,1/2-z
1/2-x,1/2-y,-z
1/2+x,y,-z
1/2-x,y,1/2+z
1/2+x,1/2-y,1/2+z
loop_
_atom_site_type_symbol
_atom_site_label
_atom_site_fract_x
_atom_site_fract_y
_atom_site_fract_z
Si Si1 0.347194 0.502505 0.682455
Si Si2 0.096096 0.243636 0.478084
Si Si3 0.049379 0.361432 0.151209
Si Si4 0.000000 0.750000 0.060877
Si Si5 0.691575 0.996355 0.328383
O O1 0.406017 0.466371 0.693314
O O2 0.327332 0.262517 0.647862
O O3 0.320788 0.500621 0.751871
O O4 0.334410 0.756034 0.649274
O O5 0.120866 0.479666 0.510089
O O6 0.078586 0.289060 0.404286
O O7 0.044857 0.179557 0.515081
O O8 0.024891 0.564515 0.108301
O O9 0.000000 0.250000 0.181439
O O10 0.750000 0.000000 0.337984
#
# Coordination Sequence:
#
# PCOD9505486 Si02
#       5
#    16  16  16   8  16
#     4  10  21  32  59  83 101 133 181 215 269 327
#     4  10  17  30  47  68  97 153 182 206 244 283
#     4  11  20  31  49  76 118 146 177 217 241 303
#     4  10  18  32  48  67 106 165 178 206 248 284
#     4  10  20  42  61  76 101 129 171 243 288 317
#
# _framework density 22.936695
#
# number of rings (size 3 to 8) (size 9 to 14) (size 15 to 20)
#    0.000    1.778    3.333    4.667    3.111    0.000 
#    0.000    2.222    0.000    0.000    0.000    0.000 
#    0.000  120.889    0.000    0.000    0.000    0.000 
#
# Total GULP energy -200448.550040 kJ/mol
# GULP energy per Si atom -5568.015279 kJ/mol
# Density = 2.288449 g / cm^3
# Si number density = 22.936695 Si / 1000 Ang^3
#
#
#
# Elastic Constant Matrix: (Units=GPa)
#
#
# Indices 1 2 3 4 5 6 
#
# 1 146.0282 55.2052 5.4286 0.0000 0.0000 0.0000
# 2 55.2052 191.1540 6.8829 0.0000 0.0000 0.0000
# 3 5.4286 6.8829 31.4212 0.0000 0.0000 0.0000
# 4 0.0000 0.0000 0.0000 -4.3577 0.0000 0.0000
# 5 0.0000 0.0000 0.0000 0.0000 2.2434 0.0000
# 6 0.0000 0.0000 0.0000 0.0000 0.0000 2.5092
#
#
#
# Elastic Compliance Matrix: (Units=1/GPa)
#
#
# Indices 1 2 3 4 5 6 
#
# 1 0.007710 -0.002196 -0.000851 0.000000 0.000000 0.000000
# 2 -0.002196 0.005898 -0.000913 0.000000 0.000000 0.000000
# 3 -0.000851 -0.000913 0.032173 0.000000 0.000000 0.000000
# 4 0.000000 0.000000 0.000000 -0.229480 0.000000 0.000000
# 5 0.000000 0.000000 0.000000 0.000000 0.445760 0.000000
# 6 0.000000 0.000000 0.000000 0.000000 0.000000 0.398537
#
#
# Mechanical properties :
#
#
# Convention : Reuss Voigt Hill
#
# Bulk Modulus (GPa) = 26.41194 55.95963 41.18579
# Shear Modulus (GPa) = 7.34067 20.15142 13.74605
#
# Velocity S-wave (km/s) = 1.79091 2.96728 2.45072
# Velocity P-wave (km/s) = 3.97701 6.01582 5.09935
#
# Compressibility (1/GPa) = 0.03786166
#
# Stress axis : x y z
#
# Youngs Moduli (GPa) = 129.70519 169.53654 31.08232
#
# Poissons Ratio (x) = 0.37229 0.02645
# Poissons Ratio (y) = 0.28483 0.02837
# Poissons Ratio (z) = 0.11038 0.15473
#
# Static dielectric constant tensor:
#      x y z
#    x 1.898830 0.000000 0.000000 
#    y 0.000000 2.117050 0.000000 
#    z 0.000000 0.000000 2.233360 
# 
# From -- ./inp_files/52034.got.cif
#   From: 2010.05.17/outbox.cif.g08.bks.cpg/sg68_27_cif.got.tgz:52034.got - 2010.06.03 18:57:09.
