data_PCOD9505532
_publ_section_title
;
Structure prediction by ZEFSAII (Michael W. Deem and Ramdas Pophale) SiO2 
 PCOD9505532
Probable space group: C C C A
;
_chemical_formula_sum "Si O2"
_cell_formula_units_Z 80
_cell_length_a 5.512390
_cell_length_b 25.929460
_cell_length_c 28.168476
_cell_angle_alpha 90.000000
_cell_angle_beta 90.000000
_cell_angle_gamma 90.000000
_cell_volume 4026.213118
_symmetry_space_group_name_H-M "C C C A"
_symmetry_group_IT_number 68
_space_group.IT_coordinate_system_code '2'
_symmetry_cell_setting 'orthorhombic'
loop_
_space_group_symop_operation_xyz
x,y,z
-x,1/2-y,z
x,1/2-y,1/2-z
-x,y,1/2-z
-x,-y,-z
x,1/2+y,-z
-x,1/2+y,1/2+z
x,-y,1/2+z
1/2+x,1/2+y,z
1/2-x,-y,z
1/2+x,-y,1/2-z
1/2-x,1/2+y,1/2-z
1/2-x,1/2-y,-z
1/2+x,y,-z
1/2-x,y,1/2+z
1/2+x,1/2-y,1/2+z
loop_
_atom_site_type_symbol
_atom_site_label
_atom_site_fract_x
_atom_site_fract_y
_atom_site_fract_z
Si Si1 0.249081 0.270962 0.804482
Si Si2 0.250000 0.500000 0.041737
Si Si3 0.881793 0.946689 0.888661
Si Si4 0.000000 0.032199 0.750000
Si Si5 0.829078 0.608513 0.703540
Si Si6 0.201192 0.100933 0.017340
O O1 0.500000 0.250000 0.826148
O O2 0.249401 0.250000 0.750000
O O3 0.254235 0.332554 0.802849
O O4 0.000000 0.250000 0.826439
O O5 0.405434 0.532819 0.078636
O O6 0.148816 0.544780 0.007588
O O7 0.955873 0.914519 0.842897
O O8 0.743255 0.910500 0.927134
O O9 0.750000 0.000000 0.874482
O O10 0.905117 0.071654 0.789977
O O11 0.750000 0.000000 0.739136
O O12 0.000000 0.605310 0.750000
O O13 0.437018 0.125983 0.992540
#
# Coordination Sequence:
#
# PCOD9505532 Si02
#       6
#    16   8  16   8  16  16
#     4  10  20  41  67  81 100 146 199 266 322 338
#     4  10  18  36  56  74 118 158 208 240 288 322
#     4  11  21  35  53  84 118 166 196 237 282 357
#     4  12  26  44  53  74 125 180 198 226 278 354
#     4  12  26  41  61  89 121 162 215 247 300 367
#     4  10  17  34  56  76 105 155 200 243 282 321
#
# _framework density 19.869788
#
# number of rings (size 3 to 8) (size 9 to 14) (size 15 to 20)
#    0.000    1.200    6.000    3.000    0.000    3.200 
#    0.000    0.000    0.000    0.000    0.000    0.000 
#    0.000   19.200    0.000    0.000    0.000    0.000 
#
# Total GULP energy -222705.947115 kJ/mol
# GULP energy per Si atom -5567.648678 kJ/mol
# Density = 1.982456 g / cm^3
# Si number density = 19.869788 Si / 1000 Ang^3
#
#
#
# Elastic Constant Matrix: (Units=GPa)
#
#
# Indices 1 2 3 4 5 6 
#
# 1 139.5511 47.8820 23.6893 0.0000 0.0000 0.0000
# 2 47.8820 109.7767 41.5913 0.0000 0.0000 0.0000
# 3 23.6893 41.5913 111.5291 0.0000 0.0000 0.0000
# 4 0.0000 0.0000 0.0000 -0.2827 0.0000 0.0000
# 5 0.0000 0.0000 0.0000 0.0000 16.6661 0.0000
# 6 0.0000 0.0000 0.0000 0.0000 0.0000 25.8545
#
#
#
# Elastic Compliance Matrix: (Units=1/GPa)
#
#
# Indices 1 2 3 4 5 6 
#
# 1 0.008450 -0.003500 -0.000490 0.000000 0.000000 0.000000
# 2 -0.003500 0.012058 -0.003753 0.000000 0.000000 0.000000
# 3 -0.000490 -0.003753 0.010470 0.000000 0.000000 0.000000
# 4 0.000000 0.000000 0.000000 -3.536796 0.000000 0.000000
# 5 0.000000 0.000000 0.000000 0.000000 0.060002 0.000000
# 6 0.000000 0.000000 0.000000 0.000000 0.000000 0.038678
#
#
# Mechanical properties :
#
#
# Convention : Reuss Voigt Hill
#
# Bulk Modulus (GPa) = 64.54934 65.24245 64.89590
# Shear Modulus (GPa) = -1.47646 24.96051 11.74203
#
# Velocity S-wave (km/s) = -0.86295 3.54814 2.43358
# Velocity P-wave (km/s) = 5.61817 7.04926 6.37400
#
# Compressibility (1/GPa) = 0.01549203
#
# Stress axis : x y z
#
# Youngs Moduli (GPa) = 118.34472 82.93187 95.51189
#
# Poissons Ratio (x) = 0.29028 0.04675
# Poissons Ratio (y) = 0.41423 0.35848
# Poissons Ratio (z) = 0.05793 0.31126
#
# Static dielectric constant tensor:
#      x y z
#    x 2.154250 0.000000 0.000000 
#    y 0.000000 1.685680 0.000000 
#    z 0.000000 0.000000 1.714250 
# 
# From -- ./inp_files/48458.got.cif
#   From: 2010.05.17/outbox.cif.g08.bks.cpg/sg68_25_cif.got.tgz:48458.got - 2010.06.03 18:57:09.
