data_PCOD9505644
_publ_section_title
;
Structure prediction by ZEFSAII (Michael W. Deem and Ramdas Pophale) SiO2 
 PCOD9505644
Probable space group: C C C A
;
_chemical_formula_sum "Si O2"
_cell_formula_units_Z 96
_cell_length_a 16.420009
_cell_length_b 10.181303
_cell_length_c 25.513848
_cell_angle_alpha 90.000000
_cell_angle_beta 90.000000
_cell_angle_gamma 90.000000
_cell_volume 4265.330784
_symmetry_space_group_name_H-M "C C C A"
_symmetry_group_IT_number 68
_space_group.IT_coordinate_system_code '2'
_symmetry_cell_setting 'orthorhombic'
loop_
_space_group_symop_operation_xyz
x,y,z
-x,1/2-y,z
x,1/2-y,1/2-z
-x,y,1/2-z
-x,-y,-z
x,1/2+y,-z
-x,1/2+y,1/2+z
x,-y,1/2+z
1/2+x,1/2+y,z
1/2-x,-y,z
1/2+x,-y,1/2-z
1/2-x,1/2+y,1/2-z
1/2-x,1/2-y,-z
1/2+x,y,-z
1/2-x,y,1/2+z
1/2+x,1/2-y,1/2+z
loop_
_atom_site_type_symbol
_atom_site_label
_atom_site_fract_x
_atom_site_fract_y
_atom_site_fract_z
Si Si1 0.151076 0.502482 0.466723
Si Si2 0.150210 0.004502 0.412681
Si Si3 0.355760 0.791808 0.118388
Si Si4 0.343800 0.282708 0.382646
Si Si5 0.090666 0.616655 0.769907
Si Si6 0.818043 0.388014 0.723037
O O1 0.250000 0.500000 0.468679
O O2 0.123461 0.506928 0.526498
O O3 0.125130 0.374129 0.434046
O O4 0.130850 0.630506 0.432326
O O5 0.126943 0.865683 0.387934
O O6 0.250000 0.000000 0.411967
O O7 0.121240 0.138795 0.385821
O O8 0.256195 0.789752 0.122038
O O9 0.396265 0.864640 0.167732
O O10 0.368045 0.349020 0.328492
O O11 0.131958 0.750000 0.750000
O O12 0.126723 0.485841 0.743742
O O13 0.000000 0.619604 0.750000
O O14 0.797780 0.250000 0.750000
O O15 0.750000 0.500000 0.709045
#
# Coordination Sequence:
#
# PCOD9505644 Si02
#       6
#    16  16  16  16  16  16
#     4   9  15  29  48  80 129 168 195 235 297 362
#     4   9  18  26  49  87 128 168 196 232 298 376
#     4  10  18  33  54  81 124 162 200 249 298 363
#     4  10  18  31  51  86 125 161 196 248 302 361
#     4  11  25  44  62  84 117 164 217 262 316 372
#     4  12  24  39  63  91 123 159 205 265 316 373
#
# _framework density 22.507047
#
# number of rings (size 3 to 8) (size 9 to 14) (size 15 to 20)
#    0.000    1.833    3.333    2.000    2.333    5.000 
#    0.000    0.000    0.000    0.000    0.000    4.667 
#    0.000    0.000    0.000    0.000    0.000    0.167 
#
# Total GULP energy -267563.495953 kJ/mol
# GULP energy per Si atom -5574.239499 kJ/mol
# Density = 2.245582 g / cm^3
# Si number density = 22.507047 Si / 1000 Ang^3
#
#
#
# Elastic Constant Matrix: (Units=GPa)
#
#
# Indices 1 2 3 4 5 6 
#
# 1 26.0505 26.6968 7.0396 0.0000 0.0000 0.0000
# 2 26.6968 236.1986 49.7164 0.0000 0.0000 0.0000
# 3 7.0396 49.7164 77.6132 0.0000 0.0000 0.0000
# 4 0.0000 0.0000 0.0000 41.1307 0.0000 0.0000
# 5 0.0000 0.0000 0.0000 0.0000 7.0362 0.0000
# 6 0.0000 0.0000 0.0000 0.0000 0.0000 25.3397
#
#
#
# Elastic Compliance Matrix: (Units=1/GPa)
#
#
# Indices 1 2 3 4 5 6 
#
# 1 0.043473 -0.004720 -0.000919 0.000000 0.000000 0.000000
# 2 -0.004720 0.005406 -0.003035 0.000000 0.000000 0.000000
# 3 -0.000919 -0.003035 0.014912 0.000000 0.000000 0.000000
# 4 0.000000 0.000000 0.000000 0.024313 0.000000 0.000000
# 5 0.000000 0.000000 0.000000 0.000000 0.142122 0.000000
# 6 0.000000 0.000000 0.000000 0.000000 0.000000 0.039464
#
#
# Mechanical properties :
#
#
# Convention : Reuss Voigt Hill
#
# Bulk Modulus (GPa) = 21.53235 56.30753 38.91994
# Shear Modulus (GPa) = 16.52794 31.79529 24.16161
#
# Velocity S-wave (km/s) = 2.71282 3.76264 3.28001
# Velocity P-wave (km/s) = 4.40457 6.62938 5.62801
#
# Compressibility (1/GPa) = 0.04644175
#
# Stress axis : x y z
#
# Youngs Moduli (GPa) = 23.00299 184.97974 67.06101
#
# Poissons Ratio (x) = 0.87311 0.06166
# Poissons Ratio (y) = 0.10858 0.20352
# Poissons Ratio (z) = 0.02115 0.56137
#
# Static dielectric constant tensor:
#      x y z
#    x 2.717870 0.000000 0.000000 
#    y 0.000000 1.926800 0.000000 
#    z 0.000000 0.000000 1.624750 
# 
# From -- ./inp_files/51771.got.cif
#   From: 2010.05.17/outbox.cif.g08.bks.cpg/sg68_26_cif.got.tgz:51771.got - 2010.06.03 18:57:09.
