data_PCOD9505398
_publ_section_title
;
Structure prediction by ZEFSAII (Michael W. Deem and Ramdas Pophale) SiO2 
 PCOD9505398
Probable space group: C C C A
;
_chemical_formula_sum "Si O2"
_cell_formula_units_Z 40
_cell_length_a 5.255074
_cell_length_b 24.726316
_cell_length_c 13.945077
_cell_angle_alpha 90.000000
_cell_angle_beta 90.000000
_cell_angle_gamma 90.000000
_cell_volume 1812.004066
_symmetry_space_group_name_H-M "C C C A"
_symmetry_group_IT_number 68
_space_group.IT_coordinate_system_code '2'
_symmetry_cell_setting 'orthorhombic'
loop_
_space_group_symop_operation_xyz
x,y,z
-x,1/2-y,z
x,1/2-y,1/2-z
-x,y,1/2-z
-x,-y,-z
x,1/2+y,-z
-x,1/2+y,1/2+z
x,-y,1/2+z
1/2+x,1/2+y,z
1/2-x,-y,z
1/2+x,-y,1/2-z
1/2-x,1/2+y,1/2-z
1/2-x,1/2-y,-z
1/2+x,y,-z
1/2-x,y,1/2+z
1/2+x,1/2-y,1/2+z
loop_
_atom_site_type_symbol
_atom_site_label
_atom_site_fract_x
_atom_site_fract_y
_atom_site_fract_z
Si Si1 0.307217 0.901684 0.936182
Si Si2 0.747079 0.774901 0.606893
Si Si3 0.000000 0.966743 0.250000
O O1 0.282459 0.838790 0.905165
O O2 0.385834 0.933532 0.840152
O O3 0.535211 0.912524 0.012649
O O4 0.500000 0.750000 0.653122
O O5 0.750000 0.750000 0.500000
O O6 0.000000 0.750000 0.650553
O O7 0.750000 0.000000 0.284135
#
# Coordination Sequence:
#
# PCOD9505398 Si02
#       3
#    16  16   8
#     4  12  23  42  75 100 134 189 227 282 369 415
#     4  10  16  32  62 102 135 165 204 271 331 422
#     4  12  30  50  65 100 143 178 256 312 326 414
#
# _framework density 22.075004
#
# number of rings (size 3 to 8) (size 9 to 14) (size 15 to 20)
#    0.000    0.800    8.000    2.400    0.000    4.800 
#    0.000    1.000    0.000    4.800    0.000    0.000 
#    0.000    0.000    0.000    0.000    0.000    0.000 
#
# Total GULP energy -111581.810522 kJ/mol
# GULP energy per Si atom -5579.090526 kJ/mol
# Density = 2.202476 g / cm^3
# Si number density = 22.075004 Si / 1000 Ang^3
#
#
#
# Elastic Constant Matrix: (Units=GPa)
#
#
# Indices 1 2 3 4 5 6 
#
# 1 228.9564 41.6090 40.8981 0.0000 0.0000 0.0000
# 2 41.6090 106.8907 51.2332 0.0000 0.0000 0.0000
# 3 40.8981 51.2332 136.4812 0.0000 0.0000 0.0000
# 4 0.0000 0.0000 0.0000 45.5680 0.0000 0.0000
# 5 0.0000 0.0000 0.0000 0.0000 -9.8987 0.0000
# 6 0.0000 0.0000 0.0000 0.0000 0.0000 38.7116
#
#
#
# Elastic Compliance Matrix: (Units=1/GPa)
#
#
# Indices 1 2 3 4 5 6 
#
# 1 0.004788 -0.001434 -0.000896 0.000000 0.000000 0.000000
# 2 -0.001434 0.011838 -0.004014 0.000000 0.000000 0.000000
# 3 -0.000896 -0.004014 0.009102 0.000000 0.000000 0.000000
# 4 0.000000 0.000000 0.000000 0.021945 0.000000 0.000000
# 5 0.000000 0.000000 0.000000 0.000000 -0.101023 0.000000
# 6 0.000000 0.000000 0.000000 0.000000 0.000000 0.025832
#
#
# Mechanical properties :
#
#
# Convention : Reuss Voigt Hill
#
# Bulk Modulus (GPa) = 76.69234 82.20099 79.44667
# Shear Modulus (GPa) = -477.01008 37.44870 -219.78069
#
# Velocity S-wave (km/s) = -14.71581 4.12324 -9.98884
# Velocity P-wave (km/s) = 15.93496 7.74507 9.84726
#
# Compressibility (1/GPa) = 0.01303911
#
# Stress axis : x y z
#
# Youngs Moduli (GPa) = 208.83620 84.47707 109.86108
#
# Poissons Ratio (x) = 0.12116 0.09849
# Poissons Ratio (y) = 0.29953 0.44097
# Poissons Ratio (z) = 0.18722 0.33908
#
# Static dielectric constant tensor:
#      x y z
#    x 1.808670 0.000000 0.000000 
#    y 0.000000 1.775820 0.000000 
#    z 0.000000 0.000000 1.752200 
# 
# From -- ./inp_files/18094.got.cif
#   From: 2010.05.17/outbox.cif.g08.bks.cpg/sg68_10_cif.got.tgz:18094.got - 2010.06.03 18:57:09.
