data_PCOD9505322
_publ_section_title
;
Structure prediction by ZEFSAII (Michael W. Deem and Ramdas Pophale) SiO2 
 PCOD9505322
Probable space group: C C C A
;
_chemical_formula_sum "Si O2"
_cell_formula_units_Z 64
_cell_length_a 34.712074
_cell_length_b 13.425897
_cell_length_c 5.337214
_cell_angle_alpha 90.000000
_cell_angle_beta 90.000000
_cell_angle_gamma 90.000000
_cell_volume 2487.359110
_symmetry_space_group_name_H-M "C C C A"
_symmetry_group_IT_number 68
_space_group.IT_coordinate_system_code '2'
_symmetry_cell_setting 'orthorhombic'
loop_
_space_group_symop_operation_xyz
x,y,z
-x,1/2-y,z
x,1/2-y,1/2-z
-x,y,1/2-z
-x,-y,-z
x,1/2+y,-z
-x,1/2+y,1/2+z
x,-y,1/2+z
1/2+x,1/2+y,z
1/2-x,-y,z
1/2+x,-y,1/2-z
1/2-x,1/2+y,1/2-z
1/2-x,1/2-y,-z
1/2+x,y,-z
1/2-x,y,1/2+z
1/2+x,1/2-y,1/2+z
loop_
_atom_site_type_symbol
_atom_site_label
_atom_site_fract_x
_atom_site_fract_y
_atom_site_fract_z
Si Si1 0.375883 0.884057 0.820786
Si Si2 0.846641 0.612807 0.818407
Si Si3 0.763897 0.137335 0.440333
Si Si4 0.959760 0.434917 0.686783
O O1 0.349777 0.842985 0.595770
O O2 0.419509 0.880272 0.726074
O O3 0.360525 0.998361 0.853863
O O4 0.373935 0.844894 0.101816
O O5 0.804784 0.626674 0.695865
O O6 0.750000 0.250000 0.500000
O O7 0.764657 0.095280 0.724109
O O8 0.959603 0.479578 0.405728
O O9 0.000000 0.380737 0.750000
#
# Coordination Sequence:
#
# PCOD9505322 Si02
#       4
#    16  16  16  16
#     4  10  17  30  43  70 100 127 159 185 233 292
#     4  10  18  30  48  65  91 124 155 199 239 287
#     4  10  21  37  52  66  85 116 159 208 255 293
#     4  10  16  25  41  63  96 137 166 180 212 270
#
# _framework density 25.730101999999999
#
# number of rings (size 3 to 8) (size 9 to 14) (size 15 to 20)
#    0.000    2.000    5.000    1.500    0.000    0.000 
#    0.000   15.000    0.000    0.000    0.000    0.000 
#    0.000    0.000    0.000  108.000    0.000    1.000 
#
# Total GULP energy -178608.108044 kJ/mol
# GULP energy per Si atom -5581.503376 kJ/mol
# Density = 2.567154 g / cm^3
# Si number density = 25.730102 Si / 1000 Ang^3
#
#
#
# Elastic Constant Matrix: (Units=GPa)
#
#
# Indices 1 2 3 4 5 6 
#
# 1 173.2812 -8.8731 24.4983 0.0000 0.0000 0.0000
# 2 -8.8731 107.6796 10.0335 0.0000 0.0000 0.0000
# 3 24.4983 10.0335 250.9490 0.0000 0.0000 0.0000
# 4 0.0000 0.0000 0.0000 21.6371 0.0000 0.0000
# 5 0.0000 0.0000 0.0000 0.0000 50.2952 0.0000
# 6 0.0000 0.0000 0.0000 0.0000 0.0000 -12.5078
#
#
#
# Elastic Compliance Matrix: (Units=1/GPa)
#
#
# Indices 1 2 3 4 5 6 
#
# 1 0.005883 0.000540 -0.000596 0.000000 0.000000 0.000000
# 2 0.000540 0.009371 -0.000427 0.000000 0.000000 0.000000
# 3 -0.000596 -0.000427 0.004060 0.000000 0.000000 0.000000
# 4 0.000000 0.000000 0.000000 0.046217 0.000000 0.000000
# 5 0.000000 0.000000 0.000000 0.000000 0.019883 0.000000
# 6 0.000000 0.000000 0.000000 0.000000 0.000000 -0.079950
#
#
# Mechanical properties :
#
#
# Convention : Reuss Voigt Hill
#
# Bulk Modulus (GPa) = 54.50154 64.80302 59.65228
# Shear Modulus (GPa) = 398.54484 45.63497 222.08991
#
# Velocity S-wave (km/s) = 12.45916 4.21598 9.30068
# Velocity P-wave (km/s) = 15.10636 6.99569 11.77162
#
# Compressibility (1/GPa) = 0.01834811
#
# Stress axis : x y z
#
# Youngs Moduli (GPa) = 169.98468 106.71036 246.29709
#
# Poissons Ratio (x) = -0.05765 0.14677
# Poissons Ratio (y) = -0.09184 0.10527
# Poissons Ratio (z) = 0.10129 0.04561
#
# Static dielectric constant tensor:
#      x y z
#    x 2.075920 0.000000 0.000000 
#    y 0.000000 2.612790 0.000000 
#    z 0.000000 0.000000 2.144900 
# 
# From -- ./inp_files/2651.got.cif
#   From: 2010.05.17/outbox.cif.g08.bks.cpg/sg68_2_cif.got.tgz:2651.got - 2010.06.03 18:57:09.
