data_PCOD9505927
_publ_section_title
;
Structure prediction by ZEFSAII (Michael W. Deem and Ramdas Pophale) SiO2 
 PCOD9505927
Probable space group: C C C A
;
_chemical_formula_sum "Si O2"
_cell_formula_units_Z 72
_cell_length_a 5.342193
_cell_length_b 21.539532
_cell_length_c 32.032721
_cell_angle_alpha 90.000000
_cell_angle_beta 90.000000
_cell_angle_gamma 90.000000
_cell_volume 3685.951937
_symmetry_space_group_name_H-M "C C C A"
_symmetry_group_IT_number 68
_space_group.IT_coordinate_system_code '2'
_symmetry_cell_setting 'orthorhombic'
loop_
_space_group_symop_operation_xyz
x,y,z
-x,1/2-y,z
x,1/2-y,1/2-z
-x,y,1/2-z
-x,-y,-z
x,1/2+y,-z
-x,1/2+y,1/2+z
x,-y,1/2+z
1/2+x,1/2+y,z
1/2-x,-y,z
1/2+x,-y,1/2-z
1/2-x,1/2+y,1/2-z
1/2-x,1/2-y,-z
1/2+x,y,-z
1/2-x,y,1/2+z
1/2+x,1/2-y,1/2+z
loop_
_atom_site_type_symbol
_atom_site_label
_atom_site_fract_x
_atom_site_fract_y
_atom_site_fract_z
Si Si1 0.738076 0.387733 0.655163
Si Si2 0.940253 0.570642 0.484254
Si Si3 0.260848 0.572453 0.611026
Si Si4 0.250000 0.000000 0.721743
Si Si5 0.248363 0.819685 0.731871
O O1 0.501890 0.397300 0.624690
O O2 0.726677 0.441368 0.690479
O O3 0.735317 0.324810 0.682258
O O4 0.002878 0.395636 0.632772
O O5 0.719207 0.598795 0.512849
O O6 0.825344 0.572256 0.438120
O O7 0.000000 0.500000 0.500000
O O8 0.250000 0.500000 0.624038
O O9 0.500000 0.995976 0.750000
O O10 0.249125 0.750000 0.750000
O O11 0.500000 0.849124 0.750000
O O12 0.000000 0.850229 0.750000
#
# Coordination Sequence:
#
# PCOD9505927 Si02
#       5
#    16  16  16   8  16
#     4  12  23  35  51  76 110 141 186 239 280 323
#     4  10  19  30  50  69 100 151 206 212 246 324
#     4  12  21  34  49  76 111 152 189 224 273 320
#     4  12  22  32  46  66 100 140 176 214 264 332
#     4  10  21  40  62  78  98 140 190 239 294 339
#
# _framework density 19.533624
#
# number of rings (size 3 to 8) (size 9 to 14) (size 15 to 20)
#    0.000    0.889    4.444    5.333    3.111    0.000 
#    0.000    0.000    0.000    0.000    0.000    0.000 
#    0.000    0.000    0.000  280.000    0.000   15.556 
#
# Total GULP energy -200784.796873 kJ/mol
# GULP energy per Si atom -5577.355469 kJ/mol
# Density = 1.948916 g / cm^3
# Si number density = 19.533624 Si / 1000 Ang^3
#
#
#
# Elastic Constant Matrix: (Units=GPa)
#
#
# Indices 1 2 3 4 5 6 
#
# 1 201.1611 2.5862 46.1841 0.0000 0.0000 0.0000
# 2 2.5862 45.6584 22.2829 0.0000 0.0000 0.0000
# 3 46.1841 22.2829 107.1612 0.0000 0.0000 0.0000
# 4 0.0000 0.0000 0.0000 20.1846 0.0000 0.0000
# 5 0.0000 0.0000 0.0000 0.0000 49.0579 0.0000
# 6 0.0000 0.0000 0.0000 0.0000 0.0000 -10.8990
#
#
#
# Elastic Compliance Matrix: (Units=1/GPa)
#
#
# Indices 1 2 3 4 5 6 
#
# 1 0.005554 0.000950 -0.002591 0.000000 0.000000 0.000000
# 2 0.000950 0.024538 -0.005512 0.000000 0.000000 0.000000
# 3 -0.002591 -0.005512 0.011595 0.000000 0.000000 0.000000
# 4 0.000000 0.000000 0.000000 0.049543 0.000000 0.000000
# 5 0.000000 0.000000 0.000000 0.000000 0.020384 0.000000
# 6 0.000000 0.000000 0.000000 0.000000 0.000000 -0.091752
#
#
# Mechanical properties :
#
#
# Convention : Reuss Voigt Hill
#
# Bulk Modulus (GPa) = 36.52243 55.12079 45.82161
# Shear Modulus (GPa) = 115.48964 30.53055 73.01010
#
# Velocity S-wave (km/s) = 7.69752 3.95774 6.12028
# Velocity P-wave (km/s) = 9.88637 7.01175 8.57044
#
# Compressibility (1/GPa) = 0.02738044
#
# Stress axis : x y z
#
# Youngs Moduli (GPa) = 180.05651 40.75329 86.24744
#
# Poissons Ratio (x) = -0.03871 0.22348
# Poissons Ratio (y) = -0.17105 0.47538
# Poissons Ratio (z) = 0.46654 0.22462
#
# Static dielectric constant tensor:
#      x y z
#    x 1.772620 0.000000 0.000000 
#    y 0.000000 1.589030 0.000000 
#    z 0.000000 0.000000 1.726510 
# 
# From -- ./inp_files/48300.got.cif
#   From: 2010.05.17/outbox.cif.g08.bks.cpg/sg68_25_cif.got.tgz:48300.got - 2010.06.03 18:57:09.
