data_PCOD9505508
_publ_section_title
;
Structure prediction by ZEFSAII (Michael W. Deem and Ramdas Pophale) SiO2 
 PCOD9505508
Probable space group: C C C A
;
_chemical_formula_sum "Si O2"
_cell_formula_units_Z 120
_cell_length_a 19.169723
_cell_length_b 19.632313
_cell_length_c 17.862635
_cell_angle_alpha 90.000000
_cell_angle_beta 90.000000
_cell_angle_gamma 90.000000
_cell_volume 6722.531268
_symmetry_space_group_name_H-M "C C C A"
_symmetry_group_IT_number 68
_space_group.IT_coordinate_system_code '2'
_symmetry_cell_setting 'orthorhombic'
loop_
_space_group_symop_operation_xyz
x,y,z
-x,1/2-y,z
x,1/2-y,1/2-z
-x,y,1/2-z
-x,-y,-z
x,1/2+y,-z
-x,1/2+y,1/2+z
x,-y,1/2+z
1/2+x,1/2+y,z
1/2-x,-y,z
1/2+x,-y,1/2-z
1/2-x,1/2+y,1/2-z
1/2-x,1/2-y,-z
1/2+x,y,-z
1/2-x,y,1/2+z
1/2+x,1/2-y,1/2+z
loop_
_atom_site_type_symbol
_atom_site_label
_atom_site_fract_x
_atom_site_fract_y
_atom_site_fract_z
Si Si1 0.900155 0.314015 0.998078
Si Si2 0.553007 0.665885 0.466314
Si Si3 0.780743 0.860563 0.103291
Si Si4 0.271416 0.292825 0.894819
Si Si5 0.250000 0.000000 0.134706
Si Si6 0.815334 0.594844 0.020588
Si Si7 0.715023 0.378594 0.744068
Si Si8 0.430552 0.676224 0.210570
O O1 0.922607 0.234855 0.991103
O O2 0.844262 0.314049 0.066270
O O3 0.972968 0.350604 0.015195
O O4 0.857619 0.345679 0.928701
O O5 0.608202 0.608512 0.489054
O O6 0.557649 0.682970 0.378038
O O7 0.742013 0.786941 0.096031
O O8 0.769965 0.883160 0.188345
O O9 0.739024 0.910711 0.048091
O O10 0.212623 0.337579 0.935964
O O11 0.270795 0.313752 0.808766
O O12 0.193666 0.965772 0.079393
O O13 0.280482 0.941845 0.187925
O O14 0.638099 0.368318 0.777095
O O15 0.420040 0.750000 0.250000
O O16 0.500000 0.647465 0.250000
#
# Coordination Sequence:
#
# PCOD9505508 Si02
#       8
#    16  16  16  16   8  16  16  16
#     4  10  18  28  52  87 124 138 175 218 287 354
#     4  11  18  31  52  85 119 156 171 221 290 355
#     4  11  18  32  56  88 108 140 185 242 286 336
#     4  10  17  32  53  86 115 140 173 229 292 344
#     4  10  26  40  56  74 102 164 202 244 266 324
#     4  10  19  36  55  77 111 147 191 228 275 335
#     4  11  21  35  57  79 114 145 192 232 284 331
#     4  11  20  32  56  93 125 143 169 233 305 356
#
# _framework density 17.850418999999999
#
# number of rings (size 3 to 8) (size 9 to 14) (size 15 to 20)
#    0.000    1.467    4.000    5.200    0.000    0.533 
#    0.000    0.000    2.933   10.400    0.000    0.000 
#    0.000    0.000    0.000    0.000    0.000    0.000 
#
# Total GULP energy -334783.326001 kJ/mol
# GULP energy per Si atom -5579.722100 kJ/mol
# Density = 1.780979 g / cm^3
# Si number density = 17.850419 Si / 1000 Ang^3
#
#
#
# Elastic Constant Matrix: (Units=GPa)
#
#
# Indices 1 2 3 4 5 6 
#
# 1 137.9951 24.9618 59.6177 0.0000 0.0000 0.0000
# 2 24.9618 48.3014 36.2111 0.0000 0.0000 0.0000
# 3 59.6177 36.2111 123.0438 0.0000 0.0000 0.0000
# 4 0.0000 0.0000 0.0000 26.2334 0.0000 0.0000
# 5 0.0000 0.0000 0.0000 0.0000 25.5433 0.0000
# 6 0.0000 0.0000 0.0000 0.0000 0.0000 7.0409
#
#
#
# Elastic Compliance Matrix: (Units=1/GPa)
#
#
# Indices 1 2 3 4 5 6 
#
# 1 0.009290 -0.001830 -0.003962 0.000000 0.000000 0.000000
# 2 -0.001830 0.026925 -0.007037 0.000000 0.000000 0.000000
# 3 -0.003962 -0.007037 0.012118 0.000000 0.000000 0.000000
# 4 0.000000 0.000000 0.000000 0.038119 0.000000 0.000000
# 5 0.000000 0.000000 0.000000 0.000000 0.039149 0.000000
# 6 0.000000 0.000000 0.000000 0.000000 0.000000 0.142027
#
#
# Mechanical properties :
#
#
# Convention : Reuss Voigt Hill
#
# Bulk Modulus (GPa) = 44.10518 61.21350 52.65934
# Shear Modulus (GPa) = 16.61987 24.33351 20.47669
#
# Velocity S-wave (km/s) = 3.05464 3.69615 3.39060
# Velocity P-wave (km/s) = 6.09942 7.25136 6.70019
#
# Compressibility (1/GPa) = 0.02267307
#
# Stress axis : x y z
#
# Youngs Moduli (GPa) = 107.64765 37.14054 82.52166
#
# Poissons Ratio (x) = 0.06797 0.32698
# Poissons Ratio (y) = 0.19702 0.58071
# Poissons Ratio (z) = 0.42654 0.26136
#
# Static dielectric constant tensor:
#      x y z
#    x 1.622060 0.000000 0.000000 
#    y 0.000000 1.634250 0.000000 
#    z 0.000000 0.000000 1.635800 
# 
# From -- ./inp_files/32317.got.cif
#   From: 2010.05.17/outbox.cif.g08.bks.cpg/sg68_17_cif.got.tgz:32317.got - 2010.06.03 18:57:09.
