data_PCOD9505228
_publ_section_title
;
Structure prediction by ZEFSAII (Michael W. Deem and Ramdas Pophale) SiO2 
 PCOD9505228
Probable space group: C M M A
;
_chemical_formula_sum "Si O2"
_cell_formula_units_Z 40
_cell_length_a 9.000000
_cell_length_b 18.000000
_cell_length_c 27.000000
_cell_angle_alpha 90.000000
_cell_angle_beta 90.000000
_cell_angle_gamma 90.000000
_cell_volume 4374.000000
_symmetry_space_group_name_H-M "C M M A"
_symmetry_group_IT_number 67
_symmetry_cell_setting 'orthorhombic'
loop_
_space_group_symop_operation_xyz
x,y,z
-x,1/2-y,z
x,-y,-z
-x,1/2+y,-z
-x,-y,-z
x,1/2+y,-z
-x,y,z
x,1/2-y,z
1/2+x,1/2+y,z
1/2-x,-y,z
1/2+x,1/2-y,-z
1/2-x,y,-z
1/2-x,1/2-y,-z
1/2+x,y,-z
1/2-x,1/2+y,z
1/2+x,-y,z
loop_
_atom_site_type_symbol
_atom_site_label
_atom_site_fract_x
_atom_site_fract_y
_atom_site_fract_z
Si Si1 0.179030 0.918138 0.551269
Si Si2 0.327457 0.840494 0.948643
Si Si3 0.821422 0.081798 0.749602
Si Si4 0.175529 0.839681 0.844708
Si Si5 0.323196 0.661754 0.344615
O O1 0.250000 0.887796 0.500000
O O2 0.211630 0.871717 0.601063
O O3 0.000000 0.923191 0.545868
O O4 0.250000 0.000000 0.557608
O O5 0.500000 0.863272 0.947338
O O6 0.324276 0.750000 0.949256
O O7 0.243576 0.862781 0.898050
O O8 0.250000 0.865043 0.000000
O O9 0.759951 0.123648 0.798485
O O10 0.766881 0.123637 0.699825
O O11 0.000000 0.078172 0.750872
O O12 0.750000 0.000000 0.748912
O O13 0.190024 0.750000 0.841082
O O14 0.000000 0.857559 0.842761
O O15 0.500000 0.649007 0.335932
O O16 0.297303 0.750000 0.344533
#
# Coordination Sequence:
#
# PCOD9505228 Si02
#       5
#    16  16  16  16  16
#     4  10  20  35  57  83 113 150 189 229 273 324
#     4   9  16  27  46  75 110 146 185 228 274 325
#     4  12  25  40  59  82 109 144 186 230 278 334
#     4  10  20  35  56  82 113 147 183 228 280 330
#     4  10  22  40  60  84 115 148 183 228 281 332
#
# _framework density 9.1449470000000002
#
# number of rings (size 3 to 8) (size 9 to 14) (size 15 to 20)
#    0.000    1.800    0.000    5.400    0.000   10.000 
#    0.000    0.000    0.000    0.600    0.000    4.200 
#    0.000    0.000    0.000    0.000    0.000    0.000 
#
# Total GULP energy -223452.091620 kJ/mol
# GULP energy per Si atom -5586.302290 kJ/mol
# Density = 0.912413 g / cm^3
# Si number density = 9.144947 Si / 1000 Ang^3
#
#
#
# Elastic Constant Matrix: (Units=GPa)
#
#
# Indices 1 2 3 4 5 6 
#
# 1 170.4495 60.0932 116.9230 0.0000 0.0000 0.0000
# 2 60.0932 62.5333 68.2952 0.0000 0.0000 0.0000
# 3 116.9230 68.2952 217.2985 0.0000 0.0000 0.0000
# 4 0.0000 0.0000 0.0000 18.3869 0.0000 0.0000
# 5 0.0000 0.0000 0.0000 0.0000 45.1454 0.0000
# 6 0.0000 0.0000 0.0000 0.0000 0.0000 20.8861
#
#
#
# Elastic Compliance Matrix: (Units=1/GPa)
#
#
# Indices 1 2 3 4 5 6 
#
# 1 0.010608 -0.006030 -0.003813 0.000000 0.000000 0.000000
# 2 -0.006030 0.027777 -0.005485 0.000000 0.000000 0.000000
# 3 -0.003813 -0.005485 0.008378 0.000000 0.000000 0.000000
# 4 0.000000 0.000000 0.000000 0.054386 0.000000 0.000000
# 5 0.000000 0.000000 0.000000 0.000000 0.022151 0.000000
# 6 0.000000 0.000000 0.000000 0.000000 0.000000 0.047879
#
#
# Mechanical properties :
#
#
# Convention : Reuss Voigt Hill
#
# Bulk Modulus (GPa) = 62.08801 104.54490 83.31646
# Shear Modulus (GPa) = 24.13073 30.54836 27.33954
#
# Velocity S-wave (km/s) = 3.63622 4.09128 3.87044
# Velocity P-wave (km/s) = 7.18678 8.92200 8.10098
#
# Compressibility (1/GPa) = 0.01610617
#
# Stress axis : x y z
#
# Youngs Moduli (GPa) = 94.26570 36.00064 119.36600
#
# Poissons Ratio (x) = 0.21709 0.45512
# Poissons Ratio (y) = 0.56844 0.65478
# Poissons Ratio (z) = 0.35942 0.19748
#
# Static dielectric constant tensor:
#      x y z
#    x 1.616940 0.000000 0.000000 
#    y 0.000000 1.618180 0.000000 
#    z 0.000000 0.000000 1.613760 
# 
# From -- ./inp_files/43330.got.cif
#   From: 2010.05.17/outbox.ucp.g08.bks.cvg/sg67_22_cif.got.tgz:43330.got - 2010.06.11 16:47:20.
