data_PCOD9505983
_publ_section_title
;
Structure prediction by ZEFSAII (Michael W. Deem and Ramdas Pophale) SiO2 
 PCOD9505983
Probable space group: C C C A
;
_chemical_formula_sum "Si O2"
_cell_formula_units_Z 72
_cell_length_a 8.786348
_cell_length_b 11.781414
_cell_length_c 27.249501
_cell_angle_alpha 90.000000
_cell_angle_beta 90.000000
_cell_angle_gamma 90.000000
_cell_volume 2820.748537
_symmetry_space_group_name_H-M "C C C A"
_symmetry_group_IT_number 68
_space_group.IT_coordinate_system_code '2'
_symmetry_cell_setting 'orthorhombic'
loop_
_space_group_symop_operation_xyz
x,y,z
-x,1/2-y,z
x,1/2-y,1/2-z
-x,y,1/2-z
-x,-y,-z
x,1/2+y,-z
-x,1/2+y,1/2+z
x,-y,1/2+z
1/2+x,1/2+y,z
1/2-x,-y,z
1/2+x,-y,1/2-z
1/2-x,1/2+y,1/2-z
1/2-x,1/2-y,-z
1/2+x,y,-z
1/2-x,y,1/2+z
1/2+x,1/2-y,1/2+z
loop_
_atom_site_type_symbol
_atom_site_label
_atom_site_fract_x
_atom_site_fract_y
_atom_site_fract_z
Si Si1 0.791502 0.688541 0.699246
Si Si2 0.542692 0.999511 0.829962
Si Si3 0.508030 0.123055 0.473973
Si Si4 0.851612 0.667169 0.377009
Si Si5 0.250000 0.500000 0.920449
O O1 0.765757 0.750000 0.750000
O O2 0.655464 0.594938 0.693245
O O3 0.944404 0.614619 0.699150
O O4 0.779635 0.764646 0.650057
O O5 0.388848 0.937312 0.841478
O O6 0.613432 0.029979 0.883568
O O7 0.500000 0.250000 0.497335
O O8 0.371443 0.127173 0.433111
O O9 0.677389 0.105349 0.449704
O O10 0.500000 0.000000 0.500000
O O11 0.000000 0.750000 0.373845
#
# Coordination Sequence:
#
# PCOD9505983 Si02
#       5
#    16  16  16  16   8
#     4   9  15  25  46  72  95 122 163 214 259 308
#     4   8  15  27  44  70  96 123 168 214 253 305
#     4  10  19  32  52  75 100 133 174 217 262 317
#     4   8  15  28  46  69  95 126 169 215 255 301
#     4   8  16  32  50  70  98 132 170 218 260 306
#
# _framework density 25.525138999999999
#
# number of rings (size 3 to 8) (size 9 to 14) (size 15 to 20)
#    0.000    3.556    0.000    4.000    0.000    4.889 
#    0.000    0.000    0.000   18.667    0.000    6.222 
#    0.000    0.000    0.000    0.000    0.000    0.000 
#
# Total GULP energy -200520.390202 kJ/mol
# GULP energy per Si atom -5570.010839 kJ/mol
# Density = 2.546704 g / cm^3
# Si number density = 25.525139 Si / 1000 Ang^3
#
#
#
# Elastic Constant Matrix: (Units=GPa)
#
#
# Indices 1 2 3 4 5 6 
#
# 1 36.2475 50.5333 6.8398 0.0000 0.0000 0.0000
# 2 50.5333 209.9783 89.7687 0.0000 0.0000 0.0000
# 3 6.8398 89.7687 98.5980 0.0000 0.0000 0.0000
# 4 0.0000 0.0000 0.0000 3.4108 0.0000 0.0000
# 5 0.0000 0.0000 0.0000 0.0000 6.6901 0.0000
# 6 0.0000 0.0000 0.0000 0.0000 0.0000 33.1603
#
#
#
# Elastic Compliance Matrix: (Units=1/GPa)
#
#
# Indices 1 2 3 4 5 6 
#
# 1 0.048860 -0.016880 0.011979 0.000000 0.000000 0.000000
# 2 -0.016880 0.013629 -0.011237 0.000000 0.000000 0.000000
# 3 0.011979 -0.011237 0.019542 0.000000 0.000000 0.000000
# 4 0.000000 0.000000 0.000000 0.293189 0.000000 0.000000
# 5 0.000000 0.000000 0.000000 0.000000 0.149476 0.000000
# 6 0.000000 0.000000 0.000000 0.000000 0.000000 0.030157
#
#
# Mechanical properties :
#
#
# Convention : Reuss Voigt Hill
#
# Bulk Modulus (GPa) = 20.09875 71.01194 45.55534
# Shear Modulus (GPa) = 8.28207 21.83102 15.05654
#
# Velocity S-wave (km/s) = 1.80325 2.92768 2.43136
# Velocity P-wave (km/s) = 3.49669 6.26971 5.07622
#
# Compressibility (1/GPa) = 0.04975434
#
# Stress axis : x y z
#
# Youngs Moduli (GPa) = 20.46662 73.37404 51.17097
#
# Poissons Ratio (x) = 1.23853 -0.61296
# Poissons Ratio (y) = 0.34547 0.57503
# Poissons Ratio (z) = -0.24516 0.82453
#
# Static dielectric constant tensor:
#      x y z
#    x 2.128700 0.000000 0.000000 
#    y 0.000000 2.199600 0.000000 
#    z 0.000000 0.000000 2.115690 
# 
# From -- ./inp_files/50009.got.cif
#   From: 2010.05.17/outbox.cif.g08.bks.cpg/sg68_26_cif.got.tgz:50009.got - 2010.06.03 18:57:09.
