data_PCOD9505679
_publ_section_title
;
Structure prediction by ZEFSAII (Michael W. Deem and Ramdas Pophale) SiO2 
 PCOD9505679
Probable space group: C C C A
;
_chemical_formula_sum "Si O2"
_cell_formula_units_Z 72
_cell_length_a 22.591601
_cell_length_b 5.685817
_cell_length_c 26.706578
_cell_angle_alpha 90.000000
_cell_angle_beta 90.000000
_cell_angle_gamma 90.000000
_cell_volume 3430.505586
_symmetry_space_group_name_H-M "C C C A"
_symmetry_group_IT_number 68
_space_group.IT_coordinate_system_code '2'
_symmetry_cell_setting 'orthorhombic'
loop_
_space_group_symop_operation_xyz
x,y,z
-x,1/2-y,z
x,1/2-y,1/2-z
-x,y,1/2-z
-x,-y,-z
x,1/2+y,-z
-x,1/2+y,1/2+z
x,-y,1/2+z
1/2+x,1/2+y,z
1/2-x,-y,z
1/2+x,-y,1/2-z
1/2-x,1/2+y,1/2-z
1/2-x,1/2-y,-z
1/2+x,y,-z
1/2-x,y,1/2+z
1/2+x,1/2-y,1/2+z
loop_
_atom_site_type_symbol
_atom_site_label
_atom_site_fract_x
_atom_site_fract_y
_atom_site_fract_z
Si Si1 0.559578 0.357053 0.049591
Si Si2 0.118480 0.028475 0.378956
Si Si3 0.821114 0.498307 0.774263
Si Si4 0.500000 0.250000 0.617062
Si Si5 0.170631 0.873878 0.981344
O O1 0.500000 0.250000 0.026729
O O2 0.533204 0.565788 0.081957
O O3 0.593849 0.192971 0.089557
O O4 0.606448 0.414122 0.007412
O O5 0.160021 0.986940 0.332084
O O6 0.057144 0.136997 0.356901
O O7 0.156543 0.162842 0.422409
O O8 0.841352 0.750000 0.750000
O O9 0.750000 0.500000 0.770026
O O10 0.842235 0.250000 0.750000
O O11 0.196507 0.635885 0.006943
#
# Coordination Sequence:
#
# PCOD9505679 Si02
#       5
#    16  16  16   8  16
#     4   9  19  30  49  83 124 166 199 226 267 345
#     4  10  21  34  59  85 123 152 198 246 293 348
#     4  10  24  46  72  90 104 144 207 265 308 348
#     4  10  18  32  53  88 120 170 193 224 284 352
#     4  10  19  30  48  82 120 159 193 228 270 337
#
# _framework density 20.988160000000001
#
# number of rings (size 3 to 8) (size 9 to 14) (size 15 to 20)
#    0.000    2.222    2.222    0.000    4.667    2.667 
#    0.000    0.556    0.000    5.333    0.000    0.000 
#    0.000    0.000    0.000    0.000    0.000    0.000 
#
# Total GULP energy -200517.785016 kJ/mol
# GULP energy per Si atom -5569.938473 kJ/mol
# Density = 2.094039 g / cm^3
# Si number density = 20.988160 Si / 1000 Ang^3
#
#
#
# Elastic Constant Matrix: (Units=GPa)
#
#
# Indices 1 2 3 4 5 6 
#
# 1 23.7719 27.7092 1.4222 0.0000 0.0000 0.0000
# 2 27.7092 113.3326 22.5437 0.0000 0.0000 0.0000
# 3 1.4222 22.5437 91.2903 0.0000 0.0000 0.0000
# 4 0.0000 0.0000 0.0000 9.1427 0.0000 0.0000
# 5 0.0000 0.0000 0.0000 0.0000 36.6757 0.0000
# 6 0.0000 0.0000 0.0000 0.0000 0.0000 35.8395
#
#
#
# Elastic Compliance Matrix: (Units=1/GPa)
#
#
# Indices 1 2 3 4 5 6 
#
# 1 0.059508 -0.015107 0.002804 0.000000 0.000000 0.000000
# 2 -0.015107 0.013115 -0.003003 0.000000 0.000000 0.000000
# 3 0.002804 -0.003003 0.011652 0.000000 0.000000 0.000000
# 4 0.000000 0.000000 0.000000 0.109376 0.000000 0.000000
# 5 0.000000 0.000000 0.000000 0.000000 0.027266 0.000000
# 6 0.000000 0.000000 0.000000 0.000000 0.000000 0.027902
#
#
# Mechanical properties :
#
#
# Convention : Reuss Voigt Hill
#
# Bulk Modulus (GPa) = 18.63549 36.86055 27.74802
# Shear Modulus (GPa) = 16.81694 28.11291 22.46492
#
# Velocity S-wave (km/s) = 2.83372 3.66384 3.27519
# Velocity P-wave (km/s) = 4.42775 5.95810 5.24900
#
# Compressibility (1/GPa) = 0.05366106
#
# Stress axis : x y z
#
# Youngs Moduli (GPa) = 16.80450 76.25108 85.82199
#
# Poissons Ratio (x) = 1.15193 -0.24061
# Poissons Ratio (y) = 0.25387 0.25774
# Poissons Ratio (z) = -0.04711 0.22900
#
# Static dielectric constant tensor:
#      x y z
#    x 1.806630 0.000000 0.000000 
#    y 0.000000 1.961210 0.000000 
#    z 0.000000 0.000000 1.681380 
# 
# From -- ./inp_files/42239.got.cif
#   From: 2010.05.17/outbox.cif.g08.bks.cpg/sg68_22_cif.got.tgz:42239.got - 2010.06.03 18:57:09.
