data_PCOD9505475
_publ_section_title
;
Structure prediction by ZEFSAII (Michael W. Deem and Ramdas Pophale) SiO2 
 PCOD9505475
Probable space group: C C C A
;
_chemical_formula_sum "Si O2"
_cell_formula_units_Z 120
_cell_length_a 20.846473
_cell_length_b 24.354675
_cell_length_c 10.550172
_cell_angle_alpha 90.000000
_cell_angle_beta 90.000000
_cell_angle_gamma 90.000000
_cell_volume 5356.418065
_symmetry_space_group_name_H-M "C C C A"
_symmetry_group_IT_number 68
_space_group.IT_coordinate_system_code '2'
_symmetry_cell_setting 'orthorhombic'
loop_
_space_group_symop_operation_xyz
x,y,z
-x,1/2-y,z
x,1/2-y,1/2-z
-x,y,1/2-z
-x,-y,-z
x,1/2+y,-z
-x,1/2+y,1/2+z
x,-y,1/2+z
1/2+x,1/2+y,z
1/2-x,-y,z
1/2+x,-y,1/2-z
1/2-x,1/2+y,1/2-z
1/2-x,1/2-y,-z
1/2+x,y,-z
1/2-x,y,1/2+z
1/2+x,1/2-y,1/2+z
loop_
_atom_site_type_symbol
_atom_site_label
_atom_site_fract_x
_atom_site_fract_y
_atom_site_fract_z
Si Si1 0.658055 0.609661 0.921356
Si Si2 0.953901 0.337997 0.629110
Si Si3 0.683554 0.467723 0.644501
Si Si4 0.183201 0.284937 0.876028
Si Si5 0.928732 0.448640 0.711108
Si Si6 0.725930 0.143740 0.754388
Si Si7 0.637409 0.711244 0.103037
Si Si8 0.000000 0.250000 0.434904
O O1 0.605540 0.587190 0.822287
O O2 0.719597 0.635451 0.850292
O O3 0.678538 0.557397 0.004214
O O4 0.631369 0.656217 0.015364
O O5 0.887079 0.307661 0.654741
O O6 0.940244 0.402064 0.603911
O O7 0.985544 0.303486 0.519043
O O8 0.000000 0.334472 0.750000
O O9 0.750000 0.500000 0.659142
O O10 0.622024 0.504988 0.674020
O O11 0.690609 0.414062 0.732214
O O12 0.202118 0.250000 0.750000
O O13 0.230936 0.336979 0.876440
O O14 0.176851 0.251849 0.007424
O O15 0.000000 0.468471 0.750000
O O16 0.671695 0.190419 0.767911
O O17 0.567485 0.735041 0.126043
#
# Coordination Sequence:
#
# PCOD9505475 Si02
#       8
#    16  16  16  16  16  16  16   8
#     4  11  22  39  63  92 131 168 220 284 341 403
#     4  10  17  28  55  91 127 165 206 261 335 408
#     4  11  24  40  63  91 123 171 230 283 341 402
#     4  11  17  31  56  86 128 161 207 266 338 397
#     4  11  22  40  63  90 131 170 218 283 345 416
#     4  11  22  38  59  89 130 167 220 276 334 398
#     4  10  21  35  58  95 132 165 209 268 332 419
#     4  10  19  32  58  94 131 168 202 260 339 408
#
# _framework density 22.403032
#
# number of rings (size 3 to 8) (size 9 to 14) (size 15 to 20)
#    0.000    1.333    4.000    3.800    1.867    0.533 
#    0.000    0.000    0.000    3.200    0.000    0.000 
#    0.000    4.267    0.000    0.000    0.000    0.000 
#
# Total GULP energy -335056.566091 kJ/mol
# GULP energy per Si atom -5584.276102 kJ/mol
# Density = 2.235204 g / cm^3
# Si number density = 22.403032 Si / 1000 Ang^3
#
#
#
# Elastic Constant Matrix: (Units=GPa)
#
#
# Indices 1 2 3 4 5 6 
#
# 1 191.5637 74.0508 51.0161 0.0000 0.0000 0.0000
# 2 74.0508 139.2015 48.6687 0.0000 0.0000 0.0000
# 3 51.0161 48.6687 83.8786 0.0000 0.0000 0.0000
# 4 0.0000 0.0000 0.0000 19.0077 0.0000 0.0000
# 5 0.0000 0.0000 0.0000 0.0000 9.4465 0.0000
# 6 0.0000 0.0000 0.0000 0.0000 0.0000 52.0058
#
#
#
# Elastic Compliance Matrix: (Units=1/GPa)
#
#
# Indices 1 2 3 4 5 6 
#
# 1 0.007006 -0.002807 -0.002633 0.000000 0.000000 0.000000
# 2 -0.002807 0.010136 -0.004174 0.000000 0.000000 0.000000
# 3 -0.002633 -0.004174 0.015945 0.000000 0.000000 0.000000
# 4 0.000000 0.000000 0.000000 0.052610 0.000000 0.000000
# 5 0.000000 0.000000 0.000000 0.000000 0.105860 0.000000
# 6 0.000000 0.000000 0.000000 0.000000 0.000000 0.019229
#
#
# Mechanical properties :
#
#
# Convention : Reuss Voigt Hill
#
# Bulk Modulus (GPa) = 72.14805 84.67944 78.41374
# Shear Modulus (GPa) = 21.30976 32.15255 26.73115
#
# Velocity S-wave (km/s) = 3.08750 3.79250 3.45801
# Velocity P-wave (km/s) = 6.70706 7.55365 7.14291
#
# Compressibility (1/GPa) = 0.01386039
#
# Stress axis : x y z
#
# Youngs Moduli (GPa) = 142.72913 98.65504 62.71396
#
# Poissons Ratio (x) = 0.27689 0.16512
# Poissons Ratio (y) = 0.40058 0.26179
# Poissons Ratio (z) = 0.37578 0.41182
#
# Static dielectric constant tensor:
#      x y z
#    x 1.862880 0.000000 0.000000 
#    y 0.000000 1.865300 0.000000 
#    z 0.000000 0.000000 1.869500 
# 
# From -- ./inp_files/15807.got.cif
#   From: 2010.05.17/outbox.cif.g08.bks.cpg/sg68_8_cif.got.tgz:15807.got - 2010.06.03 18:57:09.
