data_PCOD9505255
_publ_section_title
;
Structure prediction by ZEFSAII (Michael W. Deem and Ramdas Pophale) SiO2 
 PCOD9505255
Probable space group: C M M A
;
_chemical_formula_sum "Si O2"
_cell_formula_units_Z 40
_cell_length_a 18.000000
_cell_length_b 9.000000
_cell_length_c 27.000000
_cell_angle_alpha 90.000000
_cell_angle_beta 90.000000
_cell_angle_gamma 90.000000
_cell_volume 4374.000000
_symmetry_space_group_name_H-M "C M M A"
_symmetry_group_IT_number 67
_symmetry_cell_setting 'orthorhombic'
loop_
_space_group_symop_operation_xyz
x,y,z
-x,1/2-y,z
x,-y,-z
-x,1/2+y,-z
-x,-y,-z
x,1/2+y,-z
-x,y,z
x,1/2-y,z
1/2+x,1/2+y,z
1/2-x,-y,z
1/2+x,1/2-y,-z
1/2-x,y,-z
1/2-x,1/2-y,-z
1/2+x,y,-z
1/2-x,1/2+y,z
1/2+x,-y,z
loop_
_atom_site_type_symbol
_atom_site_label
_atom_site_fract_x
_atom_site_fract_y
_atom_site_fract_z
Si Si1 0.831622 0.572272 0.050524
Si Si2 0.667228 0.428445 0.451171
Si Si3 0.089045 0.075807 0.757833
Si Si4 0.910353 0.421090 0.141203
Si Si5 0.331192 0.428639 0.342530
O O1 0.826729 0.750000 0.045981
O O2 0.750000 0.500000 0.056307
O O3 0.878762 0.523092 0.097790
O O4 0.863111 0.500000 0.000000
O O5 0.630927 0.500000 0.500000
O O6 0.672161 0.250000 0.456876
O O7 0.750000 0.500000 0.449132
O O8 0.634601 0.463191 0.396780
O O9 0.107953 0.250000 0.765609
O O10 0.122773 0.025631 0.705607
O O11 0.000000 0.065887 0.754876
O O12 0.114214 0.981362 0.805132
O O13 0.887049 0.250000 0.133943
O O14 0.000000 0.426406 0.140213
O O15 0.323824 0.250000 0.341204
O O16 0.250000 0.500000 0.339692
#
# Coordination Sequence:
#
# PCOD9505255 Si02
#       5
#    16  16  16  16  16
#     4  11  22  38  59  82 110 141 173 209 253 302
#     4   9  15  24  39  61  89 119 152 191 238 288
#     4   9  18  34  53  71  95 130 169 206 247 296
#     4  10  21  37  56  79 106 136 173 214 254 299
#     4   9  18  30  46  70  96 123 158 201 246 293
#
# _framework density 9.1449470000000002
#
# number of rings (size 3 to 8) (size 9 to 14) (size 15 to 20)
#    0.000    2.400    0.000    4.200    0.000    4.000 
#    0.000    2.000    0.000    0.600    0.000    0.000 
#    0.000    0.000    0.000    0.000    0.000    5.400 
#
# Total GULP energy -222978.814036 kJ/mol
# GULP energy per Si atom -5574.470351 kJ/mol
# Density = 0.912413 g / cm^3
# Si number density = 9.144947 Si / 1000 Ang^3
#
#
#
# Elastic Constant Matrix: (Units=GPa)
#
#
# Indices 1 2 3 4 5 6 
#
# 1 6.1910 18.0075 28.2604 0.0000 0.0000 0.0000
# 2 18.0075 110.1385 70.3779 0.0000 0.0000 0.0000
# 3 28.2604 70.3779 182.3106 0.0000 0.0000 0.0000
# 4 0.0000 0.0000 0.0000 30.6975 0.0000 0.0000
# 5 0.0000 0.0000 0.0000 0.0000 56.5487 0.0000
# 6 0.0000 0.0000 0.0000 0.0000 0.0000 18.5326
#
#
#
# Elastic Compliance Matrix: (Units=1/GPa)
#
#
# Indices 1 2 3 4 5 6 
#
# 1 0.831212 -0.071109 -0.101397 0.000000 0.000000 0.000000
# 2 -0.071109 0.018136 0.004022 0.000000 0.000000 0.000000
# 3 -0.101397 0.004022 0.019650 0.000000 0.000000 0.000000
# 4 0.000000 0.000000 0.000000 0.032576 0.000000 0.000000
# 5 0.000000 0.000000 0.000000 0.000000 0.017684 0.000000
# 6 0.000000 0.000000 0.000000 0.000000 0.000000 0.053959
#
#
# Mechanical properties :
#
#
# Convention : Reuss Voigt Hill
#
# Bulk Modulus (GPa) = 1.87960 59.10353 30.49157
# Shear Modulus (GPa) = 3.36128 33.28873 18.32500
#
# Velocity S-wave (km/s) = 1.35712 4.27085 3.16875
# Velocity P-wave (km/s) = 1.86697 7.53028 5.48593
#
# Compressibility (1/GPa) = 0.53202800
#
# Stress axis : x y z
#
# Youngs Moduli (GPa) = 1.20306 55.13943 50.88943
#
# Poissons Ratio (x) = 3.92093 5.16006
# Poissons Ratio (y) = 0.08555 -0.20467
# Poissons Ratio (z) = 0.12199 -0.22176
#
# Static dielectric constant tensor:
#      x y z
#    x 1.606940 0.000000 0.000000 
#    y 0.000000 1.616830 0.000000 
#    z 0.000000 0.000000 1.674810 
# 
# From -- ./inp_files/43312.got.cif
#   From: 2010.05.17/outbox.ucp.g08.bks.cvg/sg67_22_cif.got.tgz:43312.got - 2010.06.11 16:47:20.
