data_PCOD9505458
_publ_section_title
;
Structure prediction by ZEFSAII (Michael W. Deem and Ramdas Pophale) SiO2 
 PCOD9505458
Probable space group: C C C A
;
_chemical_formula_sum "Si O2"
_cell_formula_units_Z 80
_cell_length_a 18.513519
_cell_length_b 33.851724
_cell_length_c 5.582841
_cell_angle_alpha 90.000000
_cell_angle_beta 90.000000
_cell_angle_gamma 90.000000
_cell_volume 3498.847604
_symmetry_space_group_name_H-M "C C C A"
_symmetry_group_IT_number 68
_space_group.IT_coordinate_system_code '2'
_symmetry_cell_setting 'orthorhombic'
loop_
_space_group_symop_operation_xyz
x,y,z
-x,1/2-y,z
x,1/2-y,1/2-z
-x,y,1/2-z
-x,-y,-z
x,1/2+y,-z
-x,1/2+y,1/2+z
x,-y,1/2+z
1/2+x,1/2+y,z
1/2-x,-y,z
1/2+x,-y,1/2-z
1/2-x,1/2+y,1/2-z
1/2-x,1/2-y,-z
1/2+x,y,-z
1/2-x,y,1/2+z
1/2+x,1/2-y,1/2+z
loop_
_atom_site_type_symbol
_atom_site_label
_atom_site_fract_x
_atom_site_fract_y
_atom_site_fract_z
Si Si1 0.107123 0.367821 0.858672
Si Si2 0.417591 0.986296 0.242016
Si Si3 0.293062 0.203587 0.244053
Si Si4 0.598115 0.394460 0.641553
Si Si5 0.744801 0.425517 0.105686
O O1 0.140064 0.325510 0.792758
O O2 0.068206 0.382028 0.616450
O O3 0.172573 0.399704 0.888032
O O4 0.076264 0.369080 0.127448
O O5 0.500000 0.002686 0.250000
O O6 0.420564 0.939798 0.195776
O O7 0.384736 0.994874 0.502318
O O8 0.311979 0.250000 0.250000
O O9 0.255351 0.196189 0.503402
O O10 0.686043 0.395723 0.613023
O O11 0.749225 0.447852 0.355937
#
# Coordination Sequence:
#
# PCOD9505458 Si02
#       5
#    16  16  16  16  16
#     4  10  17  28  45  67  95 126 159 188 220 264
#     4  10  21  37  54  71  92 115 143 190 250 297
#     4  10  18  27  41  65  99 136 167 194 225 262
#     4  10  18  29  49  68  87 119 156 188 227 277
#     4   8  14  23  39  59  83 112 144 173 204 247
#
# _framework density 22.864671000000001
#
# number of rings (size 3 to 8) (size 9 to 14) (size 15 to 20)
#    0.000    2.400    0.000    6.000    0.000    0.000 
#    0.000    0.000    0.000   32.400    0.000    0.000 
#    0.000    4.800    0.000    0.000    0.000    0.000 
#
# Total GULP energy -223195.251424 kJ/mol
# GULP energy per Si atom -5579.881286 kJ/mol
# Density = 2.281263 g / cm^3
# Si number density = 22.864671 Si / 1000 Ang^3
#
#
#
# Elastic Constant Matrix: (Units=GPa)
#
#
# Indices 1 2 3 4 5 6 
#
# 1 54.4369 -0.5581 24.5698 0.0000 0.0000 0.0000
# 2 -0.5581 98.6656 53.8834 0.0000 0.0000 0.0000
# 3 24.5698 53.8834 300.7717 0.0000 0.0000 0.0000
# 4 0.0000 0.0000 0.0000 29.8166 0.0000 0.0000
# 5 0.0000 0.0000 0.0000 0.0000 25.9470 0.0000
# 6 0.0000 0.0000 0.0000 0.0000 0.0000 -145.7335
#
#
#
# Elastic Compliance Matrix: (Units=1/GPa)
#
#
# Indices 1 2 3 4 5 6 
#
# 1 0.019174 0.001068 -0.001758 0.000000 0.000000 0.000000
# 2 0.001068 0.011294 -0.002111 0.000000 0.000000 0.000000
# 3 -0.001758 -0.002111 0.003846 0.000000 0.000000 0.000000
# 4 0.000000 0.000000 0.000000 0.033538 0.000000 0.000000
# 5 0.000000 0.000000 0.000000 0.000000 0.038540 0.000000
# 6 0.000000 0.000000 0.000000 0.000000 0.000000 -0.006862
#
#
# Mechanical properties :
#
#
# Convention : Reuss Voigt Hill
#
# Bulk Modulus (GPa) = 34.82534 67.74050 51.28292
# Shear Modulus (GPa) = 43.59094 7.07128 25.33111
#
# Velocity S-wave (km/s) = 4.37106 1.76051 3.33208
# Velocity P-wave (km/s) = 6.38271 5.81580 6.10584
#
# Compressibility (1/GPa) = 0.02871473
#
# Stress axis : x y z
#
# Youngs Moduli (GPa) = 52.15345 88.54323 259.97800
#
# Poissons Ratio (x) = -0.09460 0.45697
# Poissons Ratio (y) = -0.05572 0.54871
# Poissons Ratio (z) = 0.09167 0.18688
#
# Static dielectric constant tensor:
#      x y z
#    x 1.931230 0.000000 0.000000 
#    y 0.000000 1.767200 0.000000 
#    z 0.000000 0.000000 1.979120 
# 
# From -- ./inp_files/2007.got.cif
#   From: 2010.05.17/outbox.cif.g08.bks.cpg/sg68_2_cif.got.tgz:2007.got - 2010.06.03 18:57:09.
