data_PCOD9505611
_publ_section_title
;
Structure prediction by ZEFSAII (Michael W. Deem and Ramdas Pophale) SiO2 
 PCOD9505611
Probable space group: C C C A
;
_chemical_formula_sum "Si O2"
_cell_formula_units_Z 104
_cell_length_a 9.720688
_cell_length_b 23.556957
_cell_length_c 22.355604
_cell_angle_alpha 90.000000
_cell_angle_beta 90.000000
_cell_angle_gamma 90.000000
_cell_volume 5119.205942
_symmetry_space_group_name_H-M "C C C A"
_symmetry_group_IT_number 68
_space_group.IT_coordinate_system_code '2'
_symmetry_cell_setting 'orthorhombic'
loop_
_space_group_symop_operation_xyz
x,y,z
-x,1/2-y,z
x,1/2-y,1/2-z
-x,y,1/2-z
-x,-y,-z
x,1/2+y,-z
-x,1/2+y,1/2+z
x,-y,1/2+z
1/2+x,1/2+y,z
1/2-x,-y,z
1/2+x,-y,1/2-z
1/2-x,1/2+y,1/2-z
1/2-x,1/2-y,-z
1/2+x,y,-z
1/2-x,y,1/2+z
1/2+x,1/2-y,1/2+z
loop_
_atom_site_type_symbol
_atom_site_label
_atom_site_fract_x
_atom_site_fract_y
_atom_site_fract_z
Si Si1 0.002586 0.546776 0.393100
Si Si2 0.497729 0.608716 0.010460
Si Si3 0.751302 0.687201 0.525142
Si Si4 0.500000 0.144071 0.250000
Si Si5 0.968496 0.922680 0.851184
Si Si6 0.266687 0.937021 0.807131
Si Si7 0.800807 0.147302 0.846364
O O1 0.003599 0.555966 0.464500
O O2 0.056402 0.490195 0.359769
O O3 0.845558 0.553293 0.370460
O O4 0.100737 0.597292 0.371033
O O5 0.622914 0.651153 0.000143
O O6 0.505974 0.592911 0.079585
O O7 0.371904 0.649082 0.997572
O O8 0.750000 0.750000 0.500000
O O9 0.743499 0.686062 0.597611
O O10 0.621553 0.102950 0.224717
O O11 0.405328 0.176444 0.201155
O O12 0.112318 0.914378 0.816308
O O13 0.839998 0.885732 0.827096
O O14 0.250000 0.000000 0.779145
#
# Coordination Sequence:
#
# PCOD9505611 Si02
#       7
#    16  16  16   8  16  16  16
#     4   9  17  31  47  73 112 149 176 210 259 325
#     4  10  19  31  52  79 107 142 175 214 273 330
#     4  10  20  35  53  78 107 136 176 228 282 336
#     4  10  20  36  50  70 105 144 186 230 269 320
#     4  10  18  30  48  78 111 142 180 217 258 318
#     4   9  19  30  46  70 104 147 189 222 256 304
#     4   9  20  33  51  75 105 142 181 221 268 320
#
# _framework density 20.315650000000002
#
# number of rings (size 3 to 8) (size 9 to 14) (size 15 to 20)
#    0.000    2.462    0.000    2.308    0.000    4.308 
#    0.000    4.615    0.000    0.000    0.000   34.462 
#    0.000   27.077    0.000    0.000    0.000    0.000 
#
# Total GULP energy -289490.987131 kJ/mol
# GULP energy per Si atom -5567.134368 kJ/mol
# Density = 2.026941 g / cm^3
# Si number density = 20.315650 Si / 1000 Ang^3
#
#
#
# Elastic Constant Matrix: (Units=GPa)
#
#
# Indices 1 2 3 4 5 6 
#
# 1 159.8988 19.0141 28.5275 0.0000 0.0000 0.0000
# 2 19.0141 49.4524 11.2448 0.0000 0.0000 0.0000
# 3 28.5275 11.2448 53.0957 0.0000 0.0000 0.0000
# 4 0.0000 0.0000 0.0000 11.9665 0.0000 0.0000
# 5 0.0000 0.0000 0.0000 0.0000 28.9441 0.0000
# 6 0.0000 0.0000 0.0000 0.0000 0.0000 13.7039
#
#
#
# Elastic Compliance Matrix: (Units=1/GPa)
#
#
# Indices 1 2 3 4 5 6 
#
# 1 0.007092 -0.001955 -0.003397 0.000000 0.000000 0.000000
# 2 -0.001955 0.021783 -0.003563 0.000000 0.000000 0.000000
# 3 -0.003397 -0.003563 0.021413 0.000000 0.000000 0.000000
# 4 0.000000 0.000000 0.000000 0.083566 0.000000 0.000000
# 5 0.000000 0.000000 0.000000 0.000000 0.034549 0.000000
# 6 0.000000 0.000000 0.000000 0.000000 0.000000 0.072972
#
#
# Mechanical properties :
#
#
# Convention : Reuss Voigt Hill
#
# Bulk Modulus (GPa) = 30.80690 42.22439 36.51564
# Shear Modulus (GPa) = 18.51677 24.50028 21.50852
#
# Velocity S-wave (km/s) = 3.02230 3.47649 3.25732
# Velocity P-wave (km/s) = 5.23222 6.07815 5.67098
#
# Compressibility (1/GPa) = 0.03246026
#
# Stress axis : x y z
#
# Youngs Moduli (GPa) = 140.99628 45.90691 46.69953
#
# Poissons Ratio (x) = 0.08973 0.15862
# Poissons Ratio (y) = 0.27559 0.16640
# Poissons Ratio (z) = 0.47892 0.16357
#
# Static dielectric constant tensor:
#      x y z
#    x 1.705200 0.000000 0.000000 
#    y 0.000000 1.724440 0.000000 
#    z 0.000000 0.000000 1.841520 
# 
# From -- ./inp_files/49451.got.cif
#   From: 2010.05.17/outbox.cif.g08.bks.cpg/sg68_25_cif.got.tgz:49451.got - 2010.06.03 18:57:09.
