data_PCOD9505767
_publ_section_title
;
Structure prediction by ZEFSAII (Michael W. Deem and Ramdas Pophale) SiO2 
 PCOD9505767
Probable space group: C C C A
;
_chemical_formula_sum "Si O2"
_cell_formula_units_Z 40
_cell_length_a 4.937928
_cell_length_b 13.917230
_cell_length_c 24.127038
_cell_angle_alpha 90.000000
_cell_angle_beta 90.000000
_cell_angle_gamma 90.000000
_cell_volume 1658.065054
_symmetry_space_group_name_H-M "C C C A"
_symmetry_group_IT_number 68
_space_group.IT_coordinate_system_code '2'
_symmetry_cell_setting 'orthorhombic'
loop_
_space_group_symop_operation_xyz
x,y,z
-x,1/2-y,z
x,1/2-y,1/2-z
-x,y,1/2-z
-x,-y,-z
x,1/2+y,-z
-x,1/2+y,1/2+z
x,-y,1/2+z
1/2+x,1/2+y,z
1/2-x,-y,z
1/2+x,-y,1/2-z
1/2-x,1/2+y,1/2-z
1/2-x,1/2-y,-z
1/2+x,y,-z
1/2-x,y,1/2+z
1/2+x,1/2-y,1/2+z
loop_
_atom_site_type_symbol
_atom_site_label
_atom_site_fract_x
_atom_site_fract_y
_atom_site_fract_z
Si Si1 0.791804 0.115255 0.298907
Si Si2 0.000000 0.750000 0.458515
Si Si3 0.284094 0.884670 0.864918
O O1 0.484421 0.143442 0.313549
O O2 0.000000 0.142367 0.250000
O O3 0.750000 0.000000 0.293515
O O4 0.975935 0.144099 0.351839
O O5 0.250000 0.750000 0.500000
O O6 0.073288 0.838425 0.417665
O O7 0.250000 0.000000 0.868859
#
# Coordination Sequence:
#
# PCOD9505767 Si02
#       3
#    16   8  16
#     4  10  18  34  61  93 127 162 196 240 307 386
#     4  12  26  44  63  84 117 162 216 276 326 370
#     4  10  22  39  61  90 123 159 204 255 313 382
#
# _framework density 24.124506
#
# number of rings (size 3 to 8) (size 9 to 14) (size 15 to 20)
#    0.000    1.600    0.000    7.200    0.000    1.600 
#    0.000    6.000    0.000    0.000    0.000    0.000 
#    0.000    0.000    0.000    0.000    0.000    0.000 
#
# Total GULP energy -111475.675142 kJ/mol
# GULP energy per Si atom -5573.783757 kJ/mol
# Density = 2.406960 g / cm^3
# Si number density = 24.124506 Si / 1000 Ang^3
#
#
#
# Elastic Constant Matrix: (Units=GPa)
#
#
# Indices 1 2 3 4 5 6 
#
# 1 254.3682 20.3928 75.4739 0.0000 0.0000 0.0000
# 2 20.3928 150.7037 28.9480 0.0000 0.0000 0.0000
# 3 75.4739 28.9480 134.9600 0.0000 0.0000 0.0000
# 4 0.0000 0.0000 0.0000 24.8617 0.0000 0.0000
# 5 0.0000 0.0000 0.0000 0.0000 53.1453 0.0000
# 6 0.0000 0.0000 0.0000 0.0000 0.0000 5.0402
#
#
#
# Elastic Compliance Matrix: (Units=1/GPa)
#
#
# Indices 1 2 3 4 5 6 
#
# 1 0.004716 -0.000137 -0.002608 0.000000 0.000000 0.000000
# 2 -0.000137 0.006925 -0.001409 0.000000 0.000000 0.000000
# 3 -0.002608 -0.001409 0.009170 0.000000 0.000000 0.000000
# 4 0.000000 0.000000 0.000000 0.040223 0.000000 0.000000
# 5 0.000000 0.000000 0.000000 0.000000 0.018816 0.000000
# 6 0.000000 0.000000 0.000000 0.000000 0.000000 0.198407
#
#
# Mechanical properties :
#
#
# Convention : Reuss Voigt Hill
#
# Bulk Modulus (GPa) = 79.97771 87.74014 83.85892
# Shear Modulus (GPa) = 17.19798 44.29057 30.74428
#
# Velocity S-wave (km/s) = 2.67289 4.28941 3.57375
# Velocity P-wave (km/s) = 6.53833 7.80901 7.20175
#
# Compressibility (1/GPa) = 0.01250348
#
# Stress axis : x y z
#
# Youngs Moduli (GPa) = 212.03851 144.41126 109.04906
#
# Poissons Ratio (x) = 0.01982 0.28440
# Poissons Ratio (y) = 0.02910 0.15360
# Poissons Ratio (z) = 0.55299 0.20341
#
# Static dielectric constant tensor:
#      x y z
#    x 1.853060 0.000000 0.000000 
#    y 0.000000 1.973210 0.000000 
#    z 0.000000 0.000000 2.053450 
# 
# From -- ./inp_files/34663.got.cif
#   From: 2010.05.17/outbox.cif.g08.bks.cpg/sg68_18_cif.got.tgz:34663.got - 2010.06.03 18:57:09.
