data_PCOD9505417
_publ_section_title
;
Structure prediction by ZEFSAII (Michael W. Deem and Ramdas Pophale) SiO2 
 PCOD9505417
Probable space group: C C C A
;
_chemical_formula_sum "Si O2"
_cell_formula_units_Z 88
_cell_length_a 13.866682
_cell_length_b 21.456119
_cell_length_c 14.046809
_cell_angle_alpha 90.000000
_cell_angle_beta 90.000000
_cell_angle_gamma 90.000000
_cell_volume 4179.279364
_symmetry_space_group_name_H-M "C C C A"
_symmetry_group_IT_number 68
_space_group.IT_coordinate_system_code '2'
_symmetry_cell_setting 'orthorhombic'
loop_
_space_group_symop_operation_xyz
x,y,z
-x,1/2-y,z
x,1/2-y,1/2-z
-x,y,1/2-z
-x,-y,-z
x,1/2+y,-z
-x,1/2+y,1/2+z
x,-y,1/2+z
1/2+x,1/2+y,z
1/2-x,-y,z
1/2+x,-y,1/2-z
1/2-x,1/2+y,1/2-z
1/2-x,1/2-y,-z
1/2+x,y,-z
1/2-x,y,1/2+z
1/2+x,1/2-y,1/2+z
loop_
_atom_site_type_symbol
_atom_site_label
_atom_site_fract_x
_atom_site_fract_y
_atom_site_fract_z
Si Si1 0.250000 0.000000 0.314754
Si Si2 0.091540 0.583409 0.477505
Si Si3 0.774684 0.336126 0.039190
Si Si4 0.895302 0.603870 0.796408
Si Si5 0.878838 0.445308 0.976866
Si Si6 0.737278 0.781654 0.160604
O O1 0.325276 0.953346 0.264432
O O2 0.189206 0.955275 0.385650
O O3 0.166591 0.636175 0.443079
O O4 0.087139 0.592556 0.591185
O O5 0.124774 0.511794 0.470234
O O6 0.982613 0.578696 0.441281
O O7 0.803035 0.277558 0.101987
O O8 0.842508 0.394619 0.050961
O O9 0.786685 0.317445 0.927499
O O10 0.838560 0.669649 0.794877
O O11 0.000000 0.604806 0.750000
O O12 0.791810 0.750000 0.250000
#
# Coordination Sequence:
#
# PCOD9505417 Si02
#       6
#     8  16  16  16  16  16
#     4  10  18  40  64  82 124 168 190 272 332 370
#     4   9  19  33  61  93 115 159 214 256 313 391
#     4  10  19  39  61  83 124 174 198 258 326 356
#     4  10  21  39  58  91 127 160 204 262 326 378
#     4  10  16  34  62  85 121 159 204 262 311 374
#     4  10  22  38  58  85 123 163 212 254 303 379
#
# _framework density 21.056262
#
# number of rings (size 3 to 8) (size 9 to 14) (size 15 to 20)
#    0.000    2.182    5.455    0.000    2.545    0.364 
#    3.273    9.091    0.000    1.091    0.000    0.000 
#    0.000    0.000    0.000    0.000    0.000    0.000 
#
# Total GULP energy -244969.486639 kJ/mol
# GULP energy per Si atom -5567.488333 kJ/mol
# Density = 2.100834 g / cm^3
# Si number density = 21.056262 Si / 1000 Ang^3
#
#
#
# Elastic Constant Matrix: (Units=GPa)
#
#
# Indices 1 2 3 4 5 6 
#
# 1 79.2353 35.6882 10.9876 0.0000 0.0000 0.0000
# 2 35.6882 143.3432 23.4737 0.0000 0.0000 0.0000
# 3 10.9876 23.4737 43.1352 0.0000 0.0000 0.0000
# 4 0.0000 0.0000 0.0000 -2.5526 0.0000 0.0000
# 5 0.0000 0.0000 0.0000 0.0000 22.0561 0.0000
# 6 0.0000 0.0000 0.0000 0.0000 0.0000 7.4284
#
#
#
# Elastic Compliance Matrix: (Units=1/GPa)
#
#
# Indices 1 2 3 4 5 6 
#
# 1 0.014352 -0.003266 -0.001879 0.000000 0.000000 0.000000
# 2 -0.003266 0.008402 -0.003740 0.000000 0.000000 0.000000
# 3 -0.001879 -0.003740 0.025697 0.000000 0.000000 0.000000
# 4 0.000000 0.000000 0.000000 -0.391755 0.000000 0.000000
# 5 0.000000 0.000000 0.000000 0.000000 0.045339 0.000000
# 6 0.000000 0.000000 0.000000 0.000000 0.000000 0.134619
#
#
# Mechanical properties :
#
#
# Convention : Reuss Voigt Hill
#
# Bulk Modulus (GPa) = 32.59301 45.11254 38.85277
# Shear Modulus (GPa) = -36.94118 18.42399 -9.25860
#
# Velocity S-wave (km/s) = -4.19310 2.96123 -2.09920
# Velocity P-wave (km/s) = 2.81606 5.75874 3.55196
#
# Compressibility (1/GPa) = 0.03068143
#
# Stress axis : x y z
#
# Youngs Moduli (GPa) = 69.67670 119.02196 38.91517
#
# Poissons Ratio (x) = 0.38867 0.07311
# Poissons Ratio (y) = 0.22753 0.14556
# Poissons Ratio (z) = 0.13090 0.44518
#
# Static dielectric constant tensor:
#      x y z
#    x 1.798030 0.000000 0.000000 
#    y 0.000000 1.819770 0.000000 
#    z 0.000000 0.000000 1.806990 
# 
# From -- ./inp_files/22258.got.cif
#   From: 2010.05.17/outbox.cif.g08.bks.cpg/sg68_12_cif.got.tgz:22258.got - 2010.06.03 18:57:09.
