data_PCOD9505677
_publ_section_title
;
Structure prediction by ZEFSAII (Michael W. Deem and Ramdas Pophale) SiO2 
 PCOD9505677
Probable space group: C C C A
;
_chemical_formula_sum "Si O2"
_cell_formula_units_Z 104
_cell_length_a 14.308818
_cell_length_b 17.234249
_cell_length_c 21.274496
_cell_angle_alpha 90.000000
_cell_angle_beta 90.000000
_cell_angle_gamma 90.000000
_cell_volume 5246.327568
_symmetry_space_group_name_H-M "C C C A"
_symmetry_group_IT_number 68
_space_group.IT_coordinate_system_code '2'
_symmetry_cell_setting 'orthorhombic'
loop_
_space_group_symop_operation_xyz
x,y,z
-x,1/2-y,z
x,1/2-y,1/2-z
-x,y,1/2-z
-x,-y,-z
x,1/2+y,-z
-x,1/2+y,1/2+z
x,-y,1/2+z
1/2+x,1/2+y,z
1/2-x,-y,z
1/2+x,-y,1/2-z
1/2-x,1/2+y,1/2-z
1/2-x,1/2-y,-z
1/2+x,y,-z
1/2-x,y,1/2+z
1/2+x,1/2-y,1/2+z
loop_
_atom_site_type_symbol
_atom_site_label
_atom_site_fract_x
_atom_site_fract_y
_atom_site_fract_z
Si Si1 0.970888 0.497970 0.105767
Si Si2 0.670775 0.933454 0.588084
Si Si3 0.738779 0.907186 0.718751
Si Si4 0.949858 0.130656 0.188201
Si Si5 0.796473 0.413138 0.641361
Si Si6 0.349490 0.863931 0.041099
Si Si7 0.500000 0.250000 0.581388
O O1 0.901374 0.568961 0.119398
O O2 0.915105 0.437233 0.061885
O O3 0.069664 0.527105 0.080421
O O4 0.998231 0.449554 0.168732
O O5 0.676524 0.893733 0.656767
O O6 0.687583 0.878889 0.528576
O O7 0.750000 0.000000 0.587091
O O8 0.842019 0.877860 0.703832
O O9 0.706580 0.880768 0.787703
O O10 0.750000 0.000000 0.723795
O O11 0.960997 0.184378 0.127910
O O12 0.000000 0.161528 0.250000
O O13 0.750000 0.500000 0.641957
O O14 0.733408 0.364568 0.592719
O O15 0.415695 0.789169 0.043928
#
# Coordination Sequence:
#
# PCOD9505677 Si02
#       7
#    16  16  16  16  16  16   8
#     4  10  19  32  56  83 118 150 183 239 299 355
#     4  11  20  33  56  85 115 149 195 240 300 353
#     4  10  18  32  52  84 116 143 184 237 300 352
#     4  11  19  33  57  86 117 150 188 239 292 355
#     4   9  18  33  52  82 116 148 182 238 304 349
#     4  10  21  37  55  79 116 152 197 241 286 349
#     4  10  23  38  54  82 110 159 202 240 286 338
#
# _framework density 19.823391000000001
#
# number of rings (size 3 to 8) (size 9 to 14) (size 15 to 20)
#    0.000    1.846    3.077    5.769    0.000    0.000 
#    0.000    0.769    0.000    0.000    0.000    0.000 
#    0.000    0.000    0.000    0.000    0.000    0.000 
#
# Total GULP energy -290110.235218 kJ/mol
# GULP energy per Si atom -5579.042985 kJ/mol
# Density = 1.977827 g / cm^3
# Si number density = 19.823391 Si / 1000 Ang^3
#
#
#
# Elastic Constant Matrix: (Units=GPa)
#
#
# Indices 1 2 3 4 5 6 
#
# 1 110.0897 22.0781 28.8136 0.0000 0.0000 0.0000
# 2 22.0781 30.0935 26.3634 0.0000 0.0000 0.0000
# 3 28.8136 26.3634 133.7647 0.0000 0.0000 0.0000
# 4 0.0000 0.0000 0.0000 4.5640 0.0000 0.0000
# 5 0.0000 0.0000 0.0000 0.0000 -24.5258 0.0000
# 6 0.0000 0.0000 0.0000 0.0000 0.0000 9.4843
#
#
#
# Elastic Compliance Matrix: (Units=1/GPa)
#
#
# Indices 1 2 3 4 5 6 
#
# 1 0.010743 -0.007076 -0.000920 0.000000 0.000000 0.000000
# 2 -0.007076 0.044825 -0.007310 0.000000 0.000000 0.000000
# 3 -0.000920 -0.007310 0.009115 0.000000 0.000000 0.000000
# 4 0.000000 0.000000 0.000000 0.219105 0.000000 0.000000
# 5 0.000000 0.000000 0.000000 0.000000 -0.040773 0.000000
# 6 0.000000 0.000000 0.000000 0.000000 0.000000 0.105438
#
#
# Mechanical properties :
#
#
# Convention : Reuss Voigt Hill
#
# Bulk Modulus (GPa) = 29.35029 47.60646 38.47838
# Shear Modulus (GPa) = 12.80667 11.01736 11.91202
#
# Velocity S-wave (km/s) = 2.54449 2.36005 2.45400
# Velocity P-wave (km/s) = 4.84464 5.61194 5.24235
#
# Compressibility (1/GPa) = 0.03407121
#
# Stress axis : x y z
#
# Youngs Moduli (GPa) = 93.08137 22.30878 109.71346
#
# Poissons Ratio (x) = 0.15786 0.10088
# Poissons Ratio (y) = 0.65867 0.80204
# Poissons Ratio (z) = 0.08559 0.16308
#
# Static dielectric constant tensor:
#      x y z
#    x 1.693830 0.000000 0.000000 
#    y 0.000000 1.712860 0.000000 
#    z 0.000000 0.000000 1.734410 
# 
# From -- ./inp_files/38814.got.cif
#   From: 2010.05.17/outbox.cif.g08.bks.cpg/sg68_20_cif.got.tgz:38814.got - 2010.06.03 18:57:09.
