data_PCOD9505394
_publ_section_title
;
Structure prediction by ZEFSAII (Michael W. Deem and Ramdas Pophale) SiO2 
 PCOD9505394
Probable space group: C C C A
;
_chemical_formula_sum "Si O2"
_cell_formula_units_Z 64
_cell_length_a 14.421551
_cell_length_b 5.305169
_cell_length_c 37.204571
_cell_angle_alpha 90.000000
_cell_angle_beta 90.000000
_cell_angle_gamma 90.000000
_cell_volume 2846.475791
_symmetry_space_group_name_H-M "C C C A"
_symmetry_group_IT_number 68
_space_group.IT_coordinate_system_code '2'
_symmetry_cell_setting 'orthorhombic'
loop_
_space_group_symop_operation_xyz
x,y,z
-x,1/2-y,z
x,1/2-y,1/2-z
-x,y,1/2-z
-x,-y,-z
x,1/2+y,-z
-x,1/2+y,1/2+z
x,-y,1/2+z
1/2+x,1/2+y,z
1/2-x,-y,z
1/2+x,-y,1/2-z
1/2-x,1/2+y,1/2-z
1/2-x,1/2-y,-z
1/2+x,y,-z
1/2-x,y,1/2+z
1/2+x,1/2-y,1/2+z
loop_
_atom_site_type_symbol
_atom_site_label
_atom_site_fract_x
_atom_site_fract_y
_atom_site_fract_z
Si Si1 0.606419 0.494422 0.765814
Si Si2 0.193383 0.753109 0.407043
Si Si3 0.439317 0.003152 0.347011
Si Si4 0.856532 0.278474 0.514797
O O1 0.652701 0.250000 0.750000
O O2 0.500000 0.493954 0.750000
O O3 0.607742 0.459714 0.808531
O O4 0.645200 0.750000 0.750000
O O5 0.250000 0.500000 0.394322
O O6 0.129983 0.889212 0.377219
O O7 0.142285 0.659420 0.443045
O O8 0.250000 0.000000 0.420336
O O9 0.500000 0.250000 0.339658
O O10 0.500000 0.750000 0.356284
O O11 0.898487 0.506801 0.492540
O O12 0.750000 0.250000 0.500000
#
# Coordination Sequence:
#
# PCOD9505394 Si02
#       4
#    16  16  16  16
#     4  10  16  32  59  84 107 148 213 233 273 356
#     4  12  23  38  60  93 123 159 200 258 311 366
#     4  12  23  38  60  93 124 156 197 262 311 366
#     4  10  16  32  59  83 102 151 221 242 265 358
#
# _framework density 22.483941999999999
#
# number of rings (size 3 to 8) (size 9 to 14) (size 15 to 20)
#    0.000    1.000   10.000    1.500    0.000    0.000 
#    0.000    0.000    0.000    7.500    0.000    0.000 
#    0.000    0.000    0.000    0.000    0.000    0.000 
#
# Total GULP energy -178281.297102 kJ/mol
# GULP energy per Si atom -5571.290534 kJ/mol
# Density = 2.243277 g / cm^3
# Si number density = 22.483942 Si / 1000 Ang^3
#
#
#
# Elastic Constant Matrix: (Units=GPa)
#
#
# Indices 1 2 3 4 5 6 
#
# 1 63.4706 29.0228 33.6922 0.0000 0.0000 0.0000
# 2 29.0228 232.6112 38.1922 0.0000 0.0000 0.0000
# 3 33.6922 38.1922 176.8909 0.0000 0.0000 0.0000
# 4 0.0000 0.0000 0.0000 11.4354 0.0000 0.0000
# 5 0.0000 0.0000 0.0000 0.0000 -0.3230 0.0000
# 6 0.0000 0.0000 0.0000 0.0000 0.0000 -10.5368
#
#
#
# Elastic Compliance Matrix: (Units=1/GPa)
#
#
# Indices 1 2 3 4 5 6 
#
# 1 0.018200 -0.001764 -0.003086 0.000000 0.000000 0.000000
# 2 -0.001764 0.004628 -0.000663 0.000000 0.000000 0.000000
# 3 -0.003086 -0.000663 0.006384 0.000000 0.000000 0.000000
# 4 0.000000 0.000000 0.000000 0.087448 0.000000 0.000000
# 5 0.000000 0.000000 0.000000 0.000000 -3.096191 0.000000
# 6 0.000000 0.000000 0.000000 0.000000 0.000000 -0.094906
#
#
# Mechanical properties :
#
#
# Convention : Reuss Voigt Hill
#
# Bulk Modulus (GPa) = 54.98708 74.97634 64.98171
# Shear Modulus (GPa) = -1.63540 24.91950 11.64205
#
# Velocity S-wave (km/s) = -0.85378 3.33276 2.27798
# Velocity P-wave (km/s) = 4.85153 6.94469 5.99025
#
# Compressibility (1/GPa) = 0.01818609
#
# Stress axis : x y z
#
# Youngs Moduli (GPa) = 54.94511 216.07484 156.63890
#
# Poissons Ratio (x) = 0.38119 0.48333
# Poissons Ratio (y) = 0.09693 0.10388
# Poissons Ratio (z) = 0.16954 0.14330
#
# Static dielectric constant tensor:
#      x y z
#    x 2.020020 0.000000 0.000000 
#    y 0.000000 2.190170 0.000000 
#    z 0.000000 0.000000 -13.796450 
# 
# From -- ./inp_files/55472.got.cif
#   From: 2010.05.17/outbox.cif.g08.bks.cpg/sg68_28_cif.got.tgz:55472.got - 2010.06.03 18:57:09.
