data_PCOD9505277
_publ_section_title
;
Structure prediction by ZEFSAII (Michael W. Deem and Ramdas Pophale) SiO2 
 PCOD9505277
Probable space group: C M M A
;
_chemical_formula_sum "Si O2"
_cell_formula_units_Z 44
_cell_length_a 15.000000
_cell_length_b 15.000000
_cell_length_c 21.000000
_cell_angle_alpha 90.000000
_cell_angle_beta 90.000000
_cell_angle_gamma 90.000000
_cell_volume 4725.000000
_symmetry_space_group_name_H-M "C M M A"
_symmetry_group_IT_number 67
_symmetry_cell_setting 'orthorhombic'
loop_
_space_group_symop_operation_xyz
x,y,z
-x,1/2-y,z
x,-y,-z
-x,1/2+y,-z
-x,-y,-z
x,1/2+y,-z
-x,y,z
x,1/2-y,z
1/2+x,1/2+y,z
1/2-x,-y,z
1/2+x,1/2-y,-z
1/2-x,y,-z
1/2-x,1/2-y,-z
1/2+x,y,-z
1/2-x,1/2+y,z
1/2+x,-y,z
loop_
_atom_site_type_symbol
_atom_site_label
_atom_site_fract_x
_atom_site_fract_y
_atom_site_fract_z
Si Si1 0.396554 0.000000 0.575636
Si Si2 0.642301 0.353395 0.071281
Si Si3 0.750000 0.139566 0.376588
Si Si4 0.593614 0.500000 0.829452
Si Si5 0.142301 0.353395 0.071281
Si Si6 0.750000 0.500000 0.268198
O O1 0.500000 0.000000 0.600114
O O2 0.337558 0.088304 0.594047
O O3 0.401645 0.000000 0.500000
O O4 0.337558 0.911696 0.594047
O O5 0.619089 0.250000 0.079643
O O6 0.603270 0.415618 0.124623
O O7 0.750000 0.360618 0.074087
O O8 0.615208 0.380793 1.000000
O O9 0.750000 0.250000 0.379693
O O10 0.750000 0.092621 0.307353
O O11 0.500000 0.500000 0.795994
O O12 0.603270 0.415618 0.875377
O O13 0.666682 0.500000 0.776829
O O14 0.119089 0.250000 0.079643
#
# Coordination Sequence:
#
# PCOD9505277 Si02
#       6
#    16  16  16  16  16   8
#     4   9  19  37  63  99 137 162 188 236 291 342
#     4   9  18  34  56  79 105 136 170 219 287 358
#     4  10  22  40  63  87 118 167 212 244 283 337
#     4  12  23  36  57  79 102 141 184 230 289 346
#     4   9  18  34  56  79 105 136 170 219 287 358
#     4  10  24  42  54  76 112 152 198 256 284 324
#
# _framework density 9.3121690000000008
#
# number of rings (size 3 to 8) (size 9 to 14) (size 15 to 20)
#    0.000    2.364    1.818    2.727    0.000   10.182 
#    0.000    3.636    0.000    0.000    0.000    0.000 
#    0.000    0.000    0.000    0.000    0.000    0.000 
#
# Total GULP energy -245021.143198 kJ/mol
# GULP energy per Si atom -5568.662345 kJ/mol
# Density = 0.929097 g / cm^3
# Si number density = 9.312169 Si / 1000 Ang^3
#
#
#
# Elastic Constant Matrix: (Units=GPa)
#
#
# Indices 1 2 3 4 5 6 
#
# 1 153.4673 56.8096 60.3065 0.0000 0.0000 0.0000
# 2 56.8096 133.4484 45.2981 0.0000 0.0000 0.0000
# 3 60.3065 45.2981 92.0419 0.0000 0.0000 0.0000
# 4 0.0000 0.0000 0.0000 10.0577 0.0000 0.0000
# 5 0.0000 0.0000 0.0000 0.0000 162.4090 0.0000
# 6 0.0000 0.0000 0.0000 0.0000 0.0000 22.1055
#
#
#
# Elastic Compliance Matrix: (Units=1/GPa)
#
#
# Indices 1 2 3 4 5 6 
#
# 1 0.009317 -0.002274 -0.004985 0.000000 0.000000 0.000000
# 2 -0.002274 0.009551 -0.003211 0.000000 0.000000 0.000000
# 3 -0.004985 -0.003211 0.015711 0.000000 0.000000 0.000000
# 4 0.000000 0.000000 0.000000 0.099427 0.000000 0.000000
# 5 0.000000 0.000000 0.000000 0.000000 0.006157 0.000000
# 6 0.000000 0.000000 0.000000 0.000000 0.000000 0.045238
#
#
# Mechanical properties :
#
#
# Convention : Reuss Voigt Hill
#
# Bulk Modulus (GPa) = 73.31743 78.19844 75.75793
# Shear Modulus (GPa) = 23.70930 53.35066 38.52998
#
# Velocity S-wave (km/s) = 3.57182 5.35797 4.55334
# Velocity P-wave (km/s) = 7.51415 8.96412 8.27097
#
# Compressibility (1/GPa) = 0.01363932
#
# Stress axis : x y z
#
# Youngs Moduli (GPa) = 107.33234 104.69609 63.64882
#
# Poissons Ratio (x) = 0.23808 0.31731
# Poissons Ratio (y) = 0.24407 0.20436
# Poissons Ratio (z) = 0.53509 0.33616
#
# Static dielectric constant tensor:
#      x y z
#    x 1.653690 0.000000 0.000000 
#    y 0.000000 1.613940 0.000000 
#    z 0.000000 0.000000 1.646920 
# 
# From -- ./inp_files/38319.got.cif
#   From: 2010.05.17/outbox.ucp.g08.bks.cvg/sg67_20_cif.got.tgz:38319.got - 2010.06.11 16:47:20.
