data_PCOD9505976
_publ_section_title
;
Structure prediction by ZEFSAII (Michael W. Deem and Ramdas Pophale) SiO2 
 PCOD9505976
Probable space group: C C C A
;
_chemical_formula_sum "Si O2"
_cell_formula_units_Z 128
_cell_length_a 19.673299
_cell_length_b 18.383354
_cell_length_c 19.781976
_cell_angle_alpha 90.000000
_cell_angle_beta 90.000000
_cell_angle_gamma 90.000000
_cell_volume 7154.373571
_symmetry_space_group_name_H-M "C C C A"
_symmetry_group_IT_number 68
_space_group.IT_coordinate_system_code '2'
_symmetry_cell_setting 'orthorhombic'
loop_
_space_group_symop_operation_xyz
x,y,z
-x,1/2-y,z
x,1/2-y,1/2-z
-x,y,1/2-z
-x,-y,-z
x,1/2+y,-z
-x,1/2+y,1/2+z
x,-y,1/2+z
1/2+x,1/2+y,z
1/2-x,-y,z
1/2+x,-y,1/2-z
1/2-x,1/2+y,1/2-z
1/2-x,1/2-y,-z
1/2+x,y,-z
1/2-x,y,1/2+z
1/2+x,1/2-y,1/2+z
loop_
_atom_site_type_symbol
_atom_site_label
_atom_site_fract_x
_atom_site_fract_y
_atom_site_fract_z
Si Si1 0.301668 0.814847 0.861657
Si Si2 0.702627 0.147931 0.360114
Si Si3 0.578022 0.926059 0.649720
Si Si4 0.760942 0.618150 0.495478
Si Si5 0.638430 0.013335 0.528297
Si Si6 0.722001 0.580029 0.266476
Si Si7 0.927036 0.536880 0.732187
Si Si8 0.569614 0.442939 0.104597
O O1 0.304419 0.731738 0.839638
O O2 0.371891 0.857949 0.849486
O O3 0.245580 0.861031 0.820992
O O4 0.284763 0.822775 0.941194
O O5 0.744726 0.144716 0.429759
O O6 0.740121 0.101576 0.302798
O O7 0.630237 0.111136 0.375136
O O8 0.573443 0.962760 0.723027
O O9 0.503796 0.909462 0.620327
O O10 0.608848 0.987680 0.599613
O O11 0.692860 0.578363 0.467725
O O12 0.818432 0.555758 0.498265
O O13 0.582411 0.034522 0.472795
O O14 0.750000 0.500000 0.287209
O O15 0.641576 0.577575 0.253147
O O16 0.924947 0.512740 0.654232
O O17 0.000000 0.572332 0.750000
#
# Coordination Sequence:
#
# PCOD9505976 Si02
#       8
#    16  16  16  16  16  16  16  16
#     4  11  22  35  53  79 109 144 178 218 269 323
#     4  11  22  35  53  79 109 144 178 218 269 323
#     4  10  19  32  50  76 109 141 175 216 265 318
#     4   9  19  32  54  76 108 134 182 226 268 310
#     4   9  17  30  52  80 101 135 180 228 263 303
#     4  12  21  36  59  80 105 137 180 225 261 312
#     4  10  20  34  54  80 105 131 170 222 269 305
#     4  10  19  32  50  76 109 141 175 216 265 318
#
# _framework density 17.891154
#
# number of rings (size 3 to 8) (size 9 to 14) (size 15 to 20)
#    0.000    1.750    2.500    2.625    3.500    0.500 
#    0.000    0.000    0.000    5.250    0.000    0.000 
#    0.000    0.000    0.000    0.000    0.000    0.000 
#
# Total GULP energy -357276.661183 kJ/mol
# GULP energy per Si atom -5582.447831 kJ/mol
# Density = 1.785043 g / cm^3
# Si number density = 17.891154 Si / 1000 Ang^3
#
#
#
# Elastic Constant Matrix: (Units=GPa)
#
#
# Indices 1 2 3 4 5 6 
#
# 1 88.3610 7.2361 -2.8417 0.0000 0.0000 0.0000
# 2 7.2361 45.7277 -2.7835 0.0000 0.0000 0.0000
# 3 -2.8417 -2.7835 44.5368 0.0000 0.0000 0.0000
# 4 0.0000 0.0000 0.0000 13.1090 0.0000 0.0000
# 5 0.0000 0.0000 0.0000 0.0000 27.7101 0.0000
# 6 0.0000 0.0000 0.0000 0.0000 0.0000 9.0798
#
#
#
# Elastic Compliance Matrix: (Units=1/GPa)
#
#
# Indices 1 2 3 4 5 6 
#
# 1 0.011483 -0.001779 0.000621 0.000000 0.000000 0.000000
# 2 -0.001779 0.022228 0.001276 0.000000 0.000000 0.000000
# 3 0.000621 0.001276 0.022573 0.000000 0.000000 0.000000
# 4 0.000000 0.000000 0.000000 0.076284 0.000000 0.000000
# 5 0.000000 0.000000 0.000000 0.000000 0.036088 0.000000
# 6 0.000000 0.000000 0.000000 0.000000 0.000000 0.110134
#
#
# Mechanical properties :
#
#
# Convention : Reuss Voigt Hill
#
# Bulk Modulus (GPa) = 17.69309 20.20525 18.94917
# Shear Modulus (GPa) = 16.81276 21.78074 19.29675
#
# Velocity S-wave (km/s) = 3.06882 3.49292 3.28771
# Velocity P-wave (km/s) = 4.74000 5.25216 5.00264
#
# Compressibility (1/GPa) = 0.05651925
#
# Stress axis : x y z
#
# Youngs Moduli (GPa) = 87.08597 44.98869 44.30123
#
# Poissons Ratio (x) = 0.08005 -0.02753
# Poissons Ratio (y) = 0.15495 -0.05651
# Poissons Ratio (z) = -0.05412 -0.05739
#
# Static dielectric constant tensor:
#      x y z
#    x 1.624960 0.000000 0.000000 
#    y 0.000000 1.582490 0.000000 
#    z 0.000000 0.000000 1.629440 
# 
# From -- ./inp_files/40464.got.cif
#   From: 2010.05.17/outbox.cif.g08.bks.cpg/sg68_21_cif.got.tgz:40464.got - 2010.06.03 18:57:09.
