data_PCOD9505412
_publ_section_title
;
Structure prediction by ZEFSAII (Michael W. Deem and Ramdas Pophale) SiO2 
 PCOD9505412
Probable space group: C C C A
;
_chemical_formula_sum "Si O2"
_cell_formula_units_Z 68
_cell_length_a 8.968813
_cell_length_b 25.131860
_cell_length_c 11.720804
_cell_angle_alpha 90.000000
_cell_angle_beta 90.000000
_cell_angle_gamma 90.000000
_cell_volume 2641.903829
_symmetry_space_group_name_H-M "C C C A"
_symmetry_group_IT_number 68
_space_group.IT_coordinate_system_code '2'
_symmetry_cell_setting 'orthorhombic'
loop_
_space_group_symop_operation_xyz
x,y,z
-x,1/2-y,z
x,1/2-y,1/2-z
-x,y,1/2-z
-x,-y,-z
x,1/2+y,-z
-x,1/2+y,1/2+z
x,-y,1/2+z
1/2+x,1/2+y,z
1/2-x,-y,z
1/2+x,-y,1/2-z
1/2-x,1/2+y,1/2-z
1/2-x,1/2-y,-z
1/2+x,y,-z
1/2-x,y,1/2+z
1/2+x,1/2-y,1/2+z
loop_
_atom_site_type_symbol
_atom_site_label
_atom_site_fract_x
_atom_site_fract_y
_atom_site_fract_z
Si Si1 0.525944 0.310708 0.929165
Si Si2 0.000000 0.250000 0.750000
Si Si3 0.244849 0.828618 0.236255
Si Si4 0.000000 0.417055 0.750000
Si Si5 0.503819 0.428581 0.995038
Si Si6 0.750000 0.000000 0.003257
O O1 0.500000 0.250000 0.969500
O O2 0.384609 0.324486 0.847374
O O3 0.679749 0.311272 0.856343
O O4 0.525061 0.365311 0.000287
O O5 0.116911 0.289017 0.809470
O O6 0.152046 0.882020 0.253803
O O7 0.006208 0.445399 0.871632
O O8 0.639674 0.458699 0.934913
O O9 0.355504 0.455245 0.944269
#
# Coordination Sequence:
#
# PCOD9505412 Si02
#       6
#    16   4  16   8  16   8
#     4  11  21  42  66 102 133 189 213 269 328 418
#     4  10  16  34  56 100 132 176 208 272 310 402
#     4  10  20  37  65  92 144 173 221 262 336 393
#     4  11  24  41  62 100 128 174 219 290 323 398
#     4  11  24  45  70  96 136 170 234 269 344 385
#     4  10  24  48  70  94 128 176 220 298 320 410
#
# _framework density 25.739014999999998
#
# number of rings (size 3 to 8) (size 9 to 14) (size 15 to 20)
#    0.000    1.412    2.353    3.529    0.000    0.941 
#    8.471   12.941    0.000    0.000    0.000    0.000 
#    0.000    0.000    0.000    0.000    0.000    0.000 
#
# Total GULP energy -189459.379056 kJ/mol
# GULP energy per Si atom -5572.334678 kJ/mol
# Density = 2.568043 g / cm^3
# Si number density = 25.739015 Si / 1000 Ang^3
#
#
#
# Elastic Constant Matrix: (Units=GPa)
#
#
# Indices 1 2 3 4 5 6 
#
# 1 167.6186 53.9004 9.4090 0.0000 0.0000 0.0000
# 2 53.9004 206.3470 42.4704 0.0000 0.0000 0.0000
# 3 9.4090 42.4704 69.0829 0.0000 0.0000 0.0000
# 4 0.0000 0.0000 0.0000 17.7279 0.0000 0.0000
# 5 0.0000 0.0000 0.0000 0.0000 17.0765 0.0000
# 6 0.0000 0.0000 0.0000 0.0000 0.0000 9.0807
#
#
#
# Elastic Compliance Matrix: (Units=1/GPa)
#
#
# Indices 1 2 3 4 5 6 
#
# 1 0.006515 -0.001739 0.000182 0.000000 0.000000 0.000000
# 2 -0.001739 0.006013 -0.003459 0.000000 0.000000 0.000000
# 3 0.000182 -0.003459 0.016577 0.000000 0.000000 0.000000
# 4 0.000000 0.000000 0.000000 0.056408 0.000000 0.000000
# 5 0.000000 0.000000 0.000000 0.000000 0.058560 0.000000
# 6 0.000000 0.000000 0.000000 0.000000 0.000000 0.110124
#
#
# Mechanical properties :
#
#
# Convention : Reuss Voigt Hill
#
# Bulk Modulus (GPa) = 52.43477 72.73422 62.58450
# Shear Modulus (GPa) = 18.47827 31.26159 24.86993
#
# Velocity S-wave (km/s) = 2.68229 3.48884 3.11180
# Velocity P-wave (km/s) = 5.47803 6.67450 6.10565
#
# Compressibility (1/GPa) = 0.01907131
#
# Stress axis : x y z
#
# Youngs Moduli (GPa) = 153.49211 166.31886 60.32311
#
# Poissons Ratio (x) = 0.28927 -0.01097
# Poissons Ratio (y) = 0.26696 0.20869
# Poissons Ratio (z) = -0.02792 0.57538
#
# Static dielectric constant tensor:
#      x y z
#    x 2.050100 0.000000 0.000000 
#    y 0.000000 2.011210 0.000000 
#    z 0.000000 0.000000 2.115640 
# 
# From -- ./inp_files/19406.got.cif
#   From: 2010.05.17/outbox.cif.g08.bks.cpg/sg68_10_cif.got.tgz:19406.got - 2010.06.03 18:57:09.
