data_PCOD9505653
_publ_section_title
;
Structure prediction by ZEFSAII (Michael W. Deem and Ramdas Pophale) SiO2 
 PCOD9505653
Probable space group: C C C A
;
_chemical_formula_sum "Si O2"
_cell_formula_units_Z 80
_cell_length_a 8.638104
_cell_length_b 16.798008
_cell_length_c 29.426698
_cell_angle_alpha 90.000000
_cell_angle_beta 90.000000
_cell_angle_gamma 90.000000
_cell_volume 4269.900397
_symmetry_space_group_name_H-M "C C C A"
_symmetry_group_IT_number 68
_space_group.IT_coordinate_system_code '2'
_symmetry_cell_setting 'orthorhombic'
loop_
_space_group_symop_operation_xyz
x,y,z
-x,1/2-y,z
x,1/2-y,1/2-z
-x,y,1/2-z
-x,-y,-z
x,1/2+y,-z
-x,1/2+y,1/2+z
x,-y,1/2+z
1/2+x,1/2+y,z
1/2-x,-y,z
1/2+x,-y,1/2-z
1/2-x,1/2+y,1/2-z
1/2-x,1/2-y,-z
1/2+x,y,-z
1/2-x,y,1/2+z
1/2+x,1/2-y,1/2+z
loop_
_atom_site_type_symbol
_atom_site_label
_atom_site_fract_x
_atom_site_fract_y
_atom_site_fract_z
Si Si1 0.939818 0.092403 0.950469
Si Si2 0.049215 0.839068 0.859583
Si Si3 0.082047 0.899192 0.547027
Si Si4 0.354465 0.921512 0.865539
Si Si5 0.930183 0.019233 0.299978
O O1 0.763119 0.121261 0.947585
O O2 0.047691 0.110837 0.907747
O O3 0.931926 0.995444 0.949991
O O4 0.016389 0.120791 0.997385
O O5 0.228767 0.857530 0.849994
O O6 0.000000 0.750000 0.850201
O O7 0.013665 0.860300 0.912209
O O8 0.953913 0.901118 0.829231
O O9 0.250000 0.000000 0.878581
O O10 0.471489 0.952419 0.827086
O O11 0.000000 0.028365 0.250000
O O12 0.750000 0.000000 0.297810
#
# Coordination Sequence:
#
# PCOD9505653 Si02
#       5
#    16  16  16  16  16
#     4  10  18  31  56  82 110 151 207 247 285 342
#     4  11  23  39  58  88 127 158 192 244 308 359
#     4  10  19  31  53  83 115 152 197 248 290 346
#     4  10  19  35  58  85 116 153 198 244 291 347
#     4  11  22  41  67  92 116 150 203 251 293 354
#
# _framework density 18.735802
#
# number of rings (size 3 to 8) (size 9 to 14) (size 15 to 20)
#    0.000    1.600    4.000    4.200    2.800    0.400 
#    0.000    8.000    0.000    1.200    0.000    0.000 
#    0.000    0.000    0.000    0.000    0.000    0.000 
#
# Total GULP energy -223405.426183 kJ/mol
# GULP energy per Si atom -5585.135655 kJ/mol
# Density = 1.869316 g / cm^3
# Si number density = 18.735802 Si / 1000 Ang^3
#
#
#
# Elastic Constant Matrix: (Units=GPa)
#
#
# Indices 1 2 3 4 5 6 
#
# 1 94.2086 36.9936 3.3749 0.0000 0.0000 0.0000
# 2 36.9936 68.9589 30.0222 0.0000 0.0000 0.0000
# 3 3.3749 30.0222 86.8086 0.0000 0.0000 0.0000
# 4 0.0000 0.0000 0.0000 1.4882 0.0000 0.0000
# 5 0.0000 0.0000 0.0000 0.0000 38.2305 0.0000
# 6 0.0000 0.0000 0.0000 0.0000 0.0000 15.2676
#
#
#
# Elastic Compliance Matrix: (Units=1/GPa)
#
#
# Indices 1 2 3 4 5 6 
#
# 1 0.013857 -0.008475 0.002392 0.000000 0.000000 0.000000
# 2 -0.008475 0.022256 -0.007367 0.000000 0.000000 0.000000
# 3 0.002392 -0.007367 0.013975 0.000000 0.000000 0.000000
# 4 0.000000 0.000000 0.000000 0.671933 0.000000 0.000000
# 5 0.000000 0.000000 0.000000 0.000000 0.026157 0.000000
# 6 0.000000 0.000000 0.000000 0.000000 0.000000 0.065498
#
#
# Mechanical properties :
#
#
# Convention : Reuss Voigt Hill
#
# Bulk Modulus (GPa) = 43.12852 43.41749 43.27300
# Shear Modulus (GPa) = 5.89411 22.96964 14.43187
#
# Velocity S-wave (km/s) = 1.77559 3.50519 2.77841
# Velocity P-wave (km/s) = 5.22235 6.29330 5.78267
#
# Compressibility (1/GPa) = 0.02318652
#
# Stress axis : x y z
#
# Youngs Moduli (GPa) = 72.16514 44.93254 71.55855
#
# Poissons Ratio (x) = 0.38082 -0.17120
# Poissons Ratio (y) = 0.61162 0.52720
# Poissons Ratio (z) = -0.17265 0.33104
#
# Static dielectric constant tensor:
#      x y z
#    x 1.641970 0.000000 0.000000 
#    y 0.000000 1.642980 0.000000 
#    z 0.000000 0.000000 1.628580 
# 
# From -- ./inp_files/49142.got.cif
#   From: 2010.05.17/outbox.cif.g08.bks.cpg/sg68_25_cif.got.tgz:49142.got - 2010.06.03 18:57:09.
