data_PCOD9505048
_publ_section_title
;
Structure prediction by ZEFSAII (Michael W. Deem and Ramdas Pophale) SiO2 
 PCOD9505048
Probable space group: C M M A
;
_chemical_formula_sum "Si O2"
_cell_formula_units_Z 72
_cell_length_a 27.771754
_cell_length_b 13.995891
_cell_length_c 9.187266
_cell_angle_alpha 90.000000
_cell_angle_beta 90.000000
_cell_angle_gamma 90.000000
_cell_volume 3571.002481
_symmetry_space_group_name_H-M "C M M A"
_symmetry_group_IT_number 67
_symmetry_cell_setting 'orthorhombic'
loop_
_space_group_symop_operation_xyz
x,y,z
-x,1/2-y,z
x,-y,-z
-x,1/2+y,-z
-x,-y,-z
x,1/2+y,-z
-x,y,z
x,1/2-y,z
1/2+x,1/2+y,z
1/2-x,-y,z
1/2+x,1/2-y,-z
1/2-x,y,-z
1/2-x,1/2-y,-z
1/2+x,y,-z
1/2-x,1/2+y,z
1/2+x,-y,z
loop_
_atom_site_type_symbol
_atom_site_label
_atom_site_fract_x
_atom_site_fract_y
_atom_site_fract_z
Si Si1 0.169980 0.592915 0.202556
Si Si2 0.500000 0.038444 0.837499
Si Si3 0.390431 0.750000 0.966680
Si Si4 0.750000 0.500000 0.000000
Si Si5 0.696498 0.250000 0.441048
Si Si6 0.500000 0.250000 0.948198
Si Si7 0.618609 0.750000 0.307433
Si Si8 0.906779 0.038236 0.337410
O O1 0.132418 0.657789 0.111497
O O2 0.186007 0.658026 0.339241
O O3 0.141441 0.500194 0.259681
O O4 0.214920 0.562896 0.102543
O O5 0.500000 0.153312 0.854344
O O6 0.547274 0.004749 0.753606
O O7 0.500000 0.000000 0.000000
O O8 0.448781 0.750000 0.966393
O O9 0.373108 0.750000 0.134259
O O10 0.750000 0.250000 0.500000
O O11 0.663452 0.250000 0.583759
O O12 0.591555 0.847791 0.340724
O O13 0.907953 0.000000 0.500000
#
# Coordination Sequence:
#
# PCOD9505048 Si02
#       8
#    16   8   8   4   8   4   8  16
#     4  11  27  46  70 105 142 184 245 289 366 414
#     4  12  25  43  71 110 140 186 241 285 355 429
#     4  11  24  45  75 102 146 185 230 298 348 429
#     4  12  28  42  70 106 140 194 242 310 348 434
#     4  11  27  46  71 102 134 187 240 293 360 434
#     4  12  22  42  70 108 134 182 232 272 352 416
#     4  12  24  45  71  97 140 182 233 287 356 410
#     4  12  25  46  71 102 145 187 233 294 353 428
#
# _framework density 20.162405
#
# number of rings (size 3 to 8) (size 9 to 14) (size 15 to 20)
#    0.000    0.444    4.444    3.000    7.778    0.889 
#    0.000    0.000    0.000    0.000    0.000    0.000 
#    0.000    0.000    0.000    0.000    0.000    0.000 
#
# Total GULP energy -201338.448516 kJ/mol
# GULP energy per Si atom -5592.734681 kJ/mol
# Density = 2.011651 g / cm^3
# Si number density = 20.162405 Si / 1000 Ang^3
#
#
#
# Elastic Constant Matrix: (Units=GPa)
#
#
# Indices 1 2 3 4 5 6 
#
# 1 171.9531 31.4036 76.0893 0.0000 0.0000 0.0000
# 2 31.4036 103.5216 40.9523 0.0000 0.0000 0.0000
# 3 76.0893 40.9523 148.6489 0.0000 0.0000 0.0000
# 4 0.0000 0.0000 0.0000 2.5114 0.0000 0.0000
# 5 0.0000 0.0000 0.0000 0.0000 41.1904 0.0000
# 6 0.0000 0.0000 0.0000 0.0000 0.0000 13.7561
#
#
#
# Elastic Compliance Matrix: (Units=1/GPa)
#
#
# Indices 1 2 3 4 5 6 
#
# 1 0.007586 -0.000859 -0.003646 0.000000 0.000000 0.000000
# 2 -0.000859 0.010939 -0.002574 0.000000 0.000000 0.000000
# 3 -0.003646 -0.002574 0.009303 0.000000 0.000000 0.000000
# 4 0.000000 0.000000 0.000000 0.398177 0.000000 0.000000
# 5 0.000000 0.000000 0.000000 0.000000 0.024278 0.000000
# 6 0.000000 0.000000 0.000000 0.000000 0.000000 0.072695
#
#
# Mechanical properties :
#
#
# Convention : Reuss Voigt Hill
#
# Bulk Modulus (GPa) = 73.15778 80.11268 76.63523
# Shear Modulus (GPa) = 9.23035 29.87012 19.55023
#
# Velocity S-wave (km/s) = 2.14195 3.85317 3.11728
# Velocity P-wave (km/s) = 6.51769 7.72113 7.14479
#
# Compressibility (1/GPa) = 0.01366909
#
# Stress axis : x y z
#
# Youngs Moduli (GPa) = 131.82307 91.41964 107.49320
#
# Poissons Ratio (x) = 0.07850 0.39197
# Poissons Ratio (y) = 0.11320 0.27669
# Poissons Ratio (z) = 0.48069 0.23531
#
# Static dielectric constant tensor:
#      x y z
#    x 1.697410 0.000000 0.000000 
#    y 0.000000 1.715690 0.000000 
#    z 0.000000 0.000000 1.697560 
# 
# From -- ./inp_files/13400.got.cif
#   From: 2010.05.17/outbox.cif.g08.bks.cpg/sg67_7_cif.got.tgz:13400.got - 2010.06.03 18:28:57.
