data_PCOD9505313
_publ_section_title
;
Structure prediction by ZEFSAII (Michael W. Deem and Ramdas Pophale) SiO2 
 PCOD9505313
Probable space group: C C C A
;
_chemical_formula_sum "Si O2"
_cell_formula_units_Z 108
_cell_length_a 15.662636
_cell_length_b 15.689249
_cell_length_c 22.832104
_cell_angle_alpha 90.000000
_cell_angle_beta 90.000000
_cell_angle_gamma 90.000000
_cell_volume 5610.646990
_symmetry_space_group_name_H-M "C C C A"
_symmetry_group_IT_number 68
_space_group.IT_coordinate_system_code '2'
_symmetry_cell_setting 'orthorhombic'
loop_
_space_group_symop_operation_xyz
x,y,z
-x,1/2-y,z
x,1/2-y,1/2-z
-x,y,1/2-z
-x,-y,-z
x,1/2+y,-z
-x,1/2+y,1/2+z
x,-y,1/2+z
1/2+x,1/2+y,z
1/2-x,-y,z
1/2+x,-y,1/2-z
1/2-x,1/2+y,1/2-z
1/2-x,1/2-y,-z
1/2+x,y,-z
1/2-x,y,1/2+z
1/2+x,1/2-y,1/2+z
loop_
_atom_site_type_symbol
_atom_site_label
_atom_site_fract_x
_atom_site_fract_y
_atom_site_fract_z
Si Si1 0.500000 0.750000 0.250000
Si Si2 0.402292 0.662826 0.075643
Si Si3 0.000000 0.962895 0.250000
Si Si4 0.124691 0.924602 0.345337
Si Si5 0.609133 0.852210 0.432964
Si Si6 0.093046 0.984058 0.472231
Si Si7 0.696472 0.113607 0.683269
Si Si8 0.618287 0.110231 0.803041
O O1 0.444682 0.812140 0.210403
O O2 0.504873 0.650251 0.074313
O O3 0.373248 0.753801 0.050631
O O4 0.368118 0.577344 0.043083
O O5 0.369499 0.664252 0.142634
O O6 0.063788 0.025322 0.213222
O O7 0.053583 0.909134 0.296647
O O8 0.088358 0.934940 0.410261
O O9 0.208992 0.867876 0.339884
O O10 0.163191 0.017748 0.329036
O O11 0.636183 0.920469 0.481665
O O12 0.644637 0.882330 0.370142
O O13 0.000000 0.000000 0.500000
O O14 0.689844 0.122028 0.752997
#
# Coordination Sequence:
#
# PCOD9505313 Si02
#       8
#     4  16   8  16  16  16  16  16
#     4  10  16  24  44  76 112 136 156 198 272 336
#     4   9  17  29  46  73 107 140 170 208 259 314
#     4   9  16  27  46  68  94 132 178 215 244 299
#     4   9  17  30  47  68  97 139 177 209 254 308
#     4  10  17  27  48  76 105 135 171 214 258 309
#     4   9  17  30  48  72 100 132 175 216 254 309
#     4   9  17  28  45  69 103 139 167 203 263 328
#     4  10  16  24  43  76 107 130 159 207 265 317
#
# _framework density 19.249116000000001
#
# number of rings (size 3 to 8) (size 9 to 14) (size 15 to 20)
#    0.000    2.667    0.000    6.222    0.000    0.000 
#    0.000    0.741    0.000   23.111    0.000   22.815 
#    0.000   20.148    0.000    0.000    0.000    0.000 
#
# Total GULP energy -300629.825411 kJ/mol
# GULP energy per Si atom -5567.218989 kJ/mol
# Density = 1.920530 g / cm^3
# Si number density = 19.249116 Si / 1000 Ang^3
#
#
#
# Elastic Constant Matrix: (Units=GPa)
#
#
# Indices 1 2 3 4 5 6 
#
# 1 44.4858 -5.2707 25.6151 0.0000 0.0000 0.0000
# 2 -5.2707 62.3633 40.6391 0.0000 0.0000 0.0000
# 3 25.6151 40.6391 153.8200 0.0000 0.0000 0.0000
# 4 0.0000 0.0000 0.0000 24.5383 0.0000 0.0000
# 5 0.0000 0.0000 0.0000 0.0000 0.2958 0.0000
# 6 0.0000 0.0000 0.0000 0.0000 0.0000 5.0588
#
#
#
# Elastic Compliance Matrix: (Units=1/GPa)
#
#
# Indices 1 2 3 4 5 6 
#
# 1 0.026729 0.006233 -0.006098 0.000000 0.000000 0.000000
# 2 0.006233 0.020823 -0.006539 0.000000 0.000000 0.000000
# 3 -0.006098 -0.006539 0.009244 0.000000 0.000000 0.000000
# 4 0.000000 0.000000 0.000000 0.040753 0.000000 0.000000
# 5 0.000000 0.000000 0.000000 0.000000 3.380443 0.000000
# 6 0.000000 0.000000 0.000000 0.000000 0.000000 0.197674
#
#
# Mechanical properties :
#
#
# Convention : Reuss Voigt Hill
#
# Bulk Modulus (GPa) = 22.73395 42.51512 32.62454
# Shear Modulus (GPa) = 1.35021 19.29096 10.32059
#
# Velocity S-wave (km/s) = 0.83843 3.16915 2.31802
# Velocity P-wave (km/s) = 3.57398 5.96037 4.91423
#
# Compressibility (1/GPa) = 0.04398707
#
# Stress axis : x y z
#
# Youngs Moduli (GPa) = 37.41315 48.02337 108.17577
#
# Poissons Ratio (x) = -0.29931 0.65962
# Poissons Ratio (y) = -0.23318 0.70740
# Poissons Ratio (z) = 0.22813 0.31404
#
# Static dielectric constant tensor:
#      x y z
#    x 1.748120 0.000000 0.000000 
#    y 0.000000 1.736340 0.000000 
#    z 0.000000 0.000000 1.699180 
# 
# From -- ./inp_files/39763.got.cif
#   From: 2010.05.17/outbox.cif.g08.bks.cpg/sg68_20_cif.got.tgz:39763.got - 2010.06.03 18:57:09.
