data_PCOD9505726
_publ_section_title
;
Structure prediction by ZEFSAII (Michael W. Deem and Ramdas Pophale) SiO2 
 PCOD9505726
Probable space group: C C C A
;
_chemical_formula_sum "Si O2"
_cell_formula_units_Z 64
_cell_length_a 12.431585
_cell_length_b 11.705218
_cell_length_c 19.022135
_cell_angle_alpha 90.000000
_cell_angle_beta 90.000000
_cell_angle_gamma 90.000000
_cell_volume 2767.994799
_symmetry_space_group_name_H-M "C C C A"
_symmetry_group_IT_number 68
_space_group.IT_coordinate_system_code '2'
_symmetry_cell_setting 'orthorhombic'
loop_
_space_group_symop_operation_xyz
x,y,z
-x,1/2-y,z
x,1/2-y,1/2-z
-x,y,1/2-z
-x,-y,-z
x,1/2+y,-z
-x,1/2+y,1/2+z
x,-y,1/2+z
1/2+x,1/2+y,z
1/2-x,-y,z
1/2+x,-y,1/2-z
1/2-x,1/2+y,1/2-z
1/2-x,1/2-y,-z
1/2+x,y,-z
1/2-x,y,1/2+z
1/2+x,1/2-y,1/2+z
loop_
_atom_site_type_symbol
_atom_site_label
_atom_site_fract_x
_atom_site_fract_y
_atom_site_fract_z
Si Si1 0.623480 0.923781 0.587703
Si Si2 0.185442 0.763993 0.595738
Si Si3 0.187499 0.750000 0.750000
Si Si4 0.000000 0.250000 0.519397
Si Si5 0.750000 0.500000 0.289290
Si Si6 0.750000 0.000000 0.963399
O O1 0.716695 0.826006 0.591704
O O2 0.515109 0.857662 0.571179
O O3 0.651268 0.997210 0.518961
O O4 0.645339 0.992641 0.658654
O O5 0.134260 0.755554 0.673191
O O6 0.100627 0.746609 0.533441
O O7 0.236104 0.888124 0.582469
O O8 0.247113 0.624393 0.747884
#
# Coordination Sequence:
#
# PCOD9505726 Si02
#       6
#    16  16   8   8   8   8
#     4   9  19  35  54  84 116 147 193 250 299 348
#     4  10  20  34  54  79 114 151 193 243 293 359
#     4  10  20  37  58  83 116 162 200 237 296 359
#     4  10  18  33  58  83 116 152 192 244 304 354
#     4   9  19  38  64  84 119 161 202 250 296 357
#     4   9  15  30  52  76 105 141 186 238 292 337
#
# _framework density 23.121428999999999
#
# number of rings (size 3 to 8) (size 9 to 14) (size 15 to 20)
#    0.000    2.500    0.000    3.750    0.000    0.500 
#    0.000   45.000    0.000   24.000    0.000    0.000 
#    0.000    0.000    0.000    0.000    0.000    0.000 
#
# Total GULP energy -178265.186652 kJ/mol
# GULP energy per Si atom -5570.787083 kJ/mol
# Density = 2.306880 g / cm^3
# Si number density = 23.121429 Si / 1000 Ang^3
#
#
#
# Elastic Constant Matrix: (Units=GPa)
#
#
# Indices 1 2 3 4 5 6 
#
# 1 51.8376 31.0613 13.3312 0.0000 0.0000 0.0000
# 2 31.0613 195.6407 28.5327 0.0000 0.0000 0.0000
# 3 13.3312 28.5327 119.1096 0.0000 0.0000 0.0000
# 4 0.0000 0.0000 0.0000 38.9870 0.0000 0.0000
# 5 0.0000 0.0000 0.0000 0.0000 11.9861 0.0000
# 6 0.0000 0.0000 0.0000 0.0000 0.0000 32.7832
#
#
#
# Elastic Compliance Matrix: (Units=1/GPa)
#
#
# Indices 1 2 3 4 5 6 
#
# 1 0.021630 -0.003193 -0.001656 0.000000 0.000000 0.000000
# 2 -0.003193 0.005768 -0.001024 0.000000 0.000000 0.000000
# 3 -0.001656 -0.001024 0.008826 0.000000 0.000000 0.000000
# 4 0.000000 0.000000 0.000000 0.025650 0.000000 0.000000
# 5 0.000000 0.000000 0.000000 0.000000 0.083430 0.000000
# 6 0.000000 0.000000 0.000000 0.000000 0.000000 0.030503
#
#
# Mechanical properties :
#
#
# Convention : Reuss Voigt Hill
#
# Bulk Modulus (GPa) = 40.85313 56.93758 48.89535
# Shear Modulus (GPa) = 25.54772 36.32877 30.93825
#
# Velocity S-wave (km/s) = 3.32767 3.96816 3.66194
# Velocity P-wave (km/s) = 5.69840 6.75825 6.25083
#
# Compressibility (1/GPa) = 0.02447793
#
# Stress axis : x y z
#
# Youngs Moduli (GPa) = 46.23219 173.38001 113.29692
#
# Poissons Ratio (x) = 0.55353 0.18763
# Poissons Ratio (y) = 0.14760 0.11605
# Poissons Ratio (z) = 0.07657 0.17760
#
# Static dielectric constant tensor:
#      x y z
#    x 1.914010 0.000000 0.000000 
#    y 0.000000 1.992760 0.000000 
#    z 0.000000 0.000000 1.893440 
# 
# From -- ./inp_files/43924.got.cif
#   From: 2010.05.17/outbox.cif.g08.bks.cpg/sg68_22_cif.got.tgz:43924.got - 2010.06.03 18:57:09.
