data_PCOD9505642
_publ_section_title
;
Structure prediction by ZEFSAII (Michael W. Deem and Ramdas Pophale) SiO2 
 PCOD9505642
Probable space group: C C C A
;
_chemical_formula_sum "Si O2"
_cell_formula_units_Z 48
_cell_length_a 5.100485
_cell_length_b 14.382693
_cell_length_c 24.964177
_cell_angle_alpha 90.000000
_cell_angle_beta 90.000000
_cell_angle_gamma 90.000000
_cell_volume 1831.339819
_symmetry_space_group_name_H-M "C C C A"
_symmetry_group_IT_number 68
_space_group.IT_coordinate_system_code '2'
_symmetry_cell_setting 'orthorhombic'
loop_
_space_group_symop_operation_xyz
x,y,z
-x,1/2-y,z
x,1/2-y,1/2-z
-x,y,1/2-z
-x,-y,-z
x,1/2+y,-z
-x,1/2+y,1/2+z
x,-y,1/2+z
1/2+x,1/2+y,z
1/2-x,-y,z
1/2+x,-y,1/2-z
1/2-x,1/2+y,1/2-z
1/2-x,1/2-y,-z
1/2+x,y,-z
1/2-x,y,1/2+z
1/2+x,1/2-y,1/2+z
loop_
_atom_site_type_symbol
_atom_site_label
_atom_site_fract_x
_atom_site_fract_y
_atom_site_fract_z
Si Si1 0.686422 0.888987 0.199519
Si Si2 0.302995 0.894342 0.647901
Si Si3 0.482109 0.862245 0.968131
O O1 0.500000 0.865949 0.250000
O O2 0.507214 0.857323 0.348674
O O3 0.976864 0.851797 0.187024
O O4 0.750000 0.000000 0.201804
O O5 0.426675 0.897301 0.589385
O O6 0.250000 0.000000 0.665704
O O7 0.500000 0.750000 0.964673
O O8 0.194280 0.890359 0.987021
#
# Coordination Sequence:
#
# PCOD9505642 Si02
#       3
#    16  16  16
#     4  10  18  31  51  77 108 138 170 210 260 318
#     4  10  20  32  52  80 105 134 174 219 262 307
#     4  10  21  37  55  74 101 140 179 216 267 326
#
# _framework density 26.210319999999999
#
# number of rings (size 3 to 8) (size 9 to 14) (size 15 to 20)
#    0.000    2.000    0.000    6.000    0.000    1.333 
#    0.000    0.000    0.000    6.000    0.000    0.000 
#    0.000    0.000    0.000    0.000    0.000    0.000 
#
# Total GULP energy -134076.182671 kJ/mol
# GULP energy per Si atom -5586.507611 kJ/mol
# Density = 2.615066 g / cm^3
# Si number density = 26.210320 Si / 1000 Ang^3
#
#
#
# Elastic Constant Matrix: (Units=GPa)
#
#
# Indices 1 2 3 4 5 6 
#
# 1 193.0999 16.9555 61.5457 0.0000 0.0000 0.0000
# 2 16.9555 98.4657 -11.9467 0.0000 0.0000 0.0000
# 3 61.5457 -11.9467 126.7745 0.0000 0.0000 0.0000
# 4 0.0000 0.0000 0.0000 36.3072 0.0000 0.0000
# 5 0.0000 0.0000 0.0000 0.0000 44.3899 0.0000
# 6 0.0000 0.0000 0.0000 0.0000 0.0000 -15.1281
#
#
#
# Elastic Compliance Matrix: (Units=1/GPa)
#
#
# Indices 1 2 3 4 5 6 
#
# 1 0.006333 -0.001480 -0.003214 0.000000 0.000000 0.000000
# 2 -0.001480 0.010619 0.001719 0.000000 0.000000 0.000000
# 3 -0.003214 0.001719 0.009610 0.000000 0.000000 0.000000
# 4 0.000000 0.000000 0.000000 0.027543 0.000000 0.000000
# 5 0.000000 0.000000 0.000000 0.000000 0.022528 0.000000
# 6 0.000000 0.000000 0.000000 0.000000 0.000000 -0.066102
#
#
# Mechanical properties :
#
#
# Convention : Reuss Voigt Hill
#
# Bulk Modulus (GPa) = 48.51382 61.27212 54.89297
# Shear Modulus (GPa) = 214.11193 36.56617 125.33905
#
# Velocity S-wave (km/s) = 9.04805 3.73916 6.92274
# Velocity P-wave (km/s) = 11.30071 6.48611 9.21346
#
# Compressibility (1/GPa) = 0.02061268
#
# Stress axis : x y z
#
# Youngs Moduli (GPa) = 157.90158 94.16749 104.05403
#
# Poissons Ratio (x) = 0.13941 0.33443
# Poissons Ratio (y) = 0.23377 -0.17892
# Poissons Ratio (z) = 0.50750 -0.16192
#
# Static dielectric constant tensor:
#      x y z
#    x 2.093070 0.000000 0.000000 
#    y 0.000000 2.119110 0.000000 
#    z 0.000000 0.000000 2.091190 
# 
# From -- ./inp_files/34748.got.cif
#   From: 2010.05.17/outbox.cif.g08.bks.cpg/sg68_18_cif.got.tgz:34748.got - 2010.06.03 18:57:09.
