data_PCOD9505762
_publ_section_title
;
Structure prediction by ZEFSAII (Michael W. Deem and Ramdas Pophale) SiO2 
 PCOD9505762
Probable space group: C C C A
;
_chemical_formula_sum "Si O2"
_cell_formula_units_Z 88
_cell_length_a 9.806641
_cell_length_b 15.337678
_cell_length_c 30.013305
_cell_angle_alpha 90.000000
_cell_angle_beta 90.000000
_cell_angle_gamma 90.000000
_cell_volume 4514.334277
_symmetry_space_group_name_H-M "C C C A"
_symmetry_group_IT_number 68
_space_group.IT_coordinate_system_code '2'
_symmetry_cell_setting 'orthorhombic'
loop_
_space_group_symop_operation_xyz
x,y,z
-x,1/2-y,z
x,1/2-y,1/2-z
-x,y,1/2-z
-x,-y,-z
x,1/2+y,-z
-x,1/2+y,1/2+z
x,-y,1/2+z
1/2+x,1/2+y,z
1/2-x,-y,z
1/2+x,-y,1/2-z
1/2-x,1/2+y,1/2-z
1/2-x,1/2-y,-z
1/2+x,y,-z
1/2-x,y,1/2+z
1/2+x,1/2-y,1/2+z
loop_
_atom_site_type_symbol
_atom_site_label
_atom_site_fract_x
_atom_site_fract_y
_atom_site_fract_z
Si Si1 0.232016 0.605595 0.044360
Si Si2 0.631190 0.649693 0.166615
Si Si3 0.250000 0.000000 0.806671
Si Si4 0.677105 0.335046 0.862572
Si Si5 0.000000 0.562635 0.750000
Si Si6 0.250000 0.000000 0.107071
Si Si7 0.063628 0.423914 0.969309
O O1 0.250000 0.500000 0.053889
O O2 0.289915 0.659199 0.085583
O O3 0.072644 0.629271 0.040912
O O4 0.317304 0.619345 0.998910
O O5 0.484427 0.652312 0.142675
O O6 0.702854 0.742712 0.161039
O O7 0.590336 0.621553 0.216478
O O8 0.713729 0.578198 0.139814
O O9 0.251011 0.914098 0.837319
O O10 0.111737 0.992062 0.777639
O O11 0.369946 0.032275 0.074107
O O12 0.000000 0.500000 0.000000
#
# Coordination Sequence:
#
# PCOD9505762 Si02
#       7
#    16  16   8  16   8   8  16
#     4  10  18  34  59  88 122 168 208 258 306 365
#     4  10  23  39  65  93 122 165 209 269 308 399
#     4  10  21  37  68  92 118 162 200 261 315 386
#     4  10  21  39  65  91 123 162 216 251 316 373
#     4  10  22  43  64  95 122 160 210 261 332 381
#     4  12  21  37  64  92 126 170 222 259 323 372
#     4  10  19  32  60  88 125 173 213 257 308 366
#
# _framework density 19.493461
#
# number of rings (size 3 to 8) (size 9 to 14) (size 15 to 20)
#    0.000    1.818    3.636    2.727    2.545    5.818 
#    0.000    1.818    4.000    6.545    0.000    0.000 
#    0.000    0.000    0.000    0.000    0.000    0.000 
#
# Total GULP energy -245409.519486 kJ/mol
# GULP energy per Si atom -5577.489079 kJ/mol
# Density = 1.944909 g / cm^3
# Si number density = 19.493461 Si / 1000 Ang^3
#
#
#
# Elastic Constant Matrix: (Units=GPa)
#
#
# Indices 1 2 3 4 5 6 
#
# 1 56.7847 34.8909 19.5233 0.0000 0.0000 0.0000
# 2 34.8909 117.7229 55.1521 0.0000 0.0000 0.0000
# 3 19.5233 55.1521 96.5042 0.0000 0.0000 0.0000
# 4 0.0000 0.0000 0.0000 6.4169 0.0000 0.0000
# 5 0.0000 0.0000 0.0000 0.0000 40.4132 0.0000
# 6 0.0000 0.0000 0.0000 0.0000 0.0000 13.1748
#
#
#
# Elastic Compliance Matrix: (Units=1/GPa)
#
#
# Indices 1 2 3 4 5 6 
#
# 1 0.021598 -0.005946 -0.000971 0.000000 0.000000 0.000000
# 2 -0.005946 0.013238 -0.006362 0.000000 0.000000 0.000000
# 3 -0.000971 -0.006362 0.014195 0.000000 0.000000 0.000000
# 4 0.000000 0.000000 0.000000 0.155838 0.000000 0.000000
# 5 0.000000 0.000000 0.000000 0.000000 0.024744 0.000000
# 6 0.000000 0.000000 0.000000 0.000000 0.000000 0.075903
#
#
# Mechanical properties :
#
#
# Convention : Reuss Voigt Hill
#
# Bulk Modulus (GPa) = 44.50199 54.46048 49.48123
# Shear Modulus (GPa) = 14.72472 22.76401 18.74437
#
# Velocity S-wave (km/s) = 2.75138 3.42098 3.10429
# Velocity P-wave (km/s) = 5.74214 6.60323 6.18768
#
# Compressibility (1/GPa) = 0.02247090
#
# Stress axis : x y z
#
# Youngs Moduli (GPa) = 46.30089 75.54250 70.44852
#
# Poissons Ratio (x) = 0.44920 0.06841
# Poissons Ratio (y) = 0.27532 0.44822
# Poissons Ratio (z) = 0.04496 0.48063
#
# Static dielectric constant tensor:
#      x y z
#    x 1.643440 0.000000 0.000000 
#    y 0.000000 1.717920 0.000000 
#    z 0.000000 0.000000 1.866390 
# 
# From -- ./inp_files/54750.got.cif
#   From: 2010.05.17/outbox.cif.g08.bks.cpg/sg68_28_cif.got.tgz:54750.got - 2010.06.03 18:57:09.
