data_PCOD9505404
_publ_section_title
;
Structure prediction by ZEFSAII (Michael W. Deem and Ramdas Pophale) SiO2 
 PCOD9505404
Probable space group: C C C A
;
_chemical_formula_sum "Si O2"
_cell_formula_units_Z 80
_cell_length_a 27.339691
_cell_length_b 31.371335
_cell_length_c 5.474258
_cell_angle_alpha 90.000000
_cell_angle_beta 90.000000
_cell_angle_gamma 90.000000
_cell_volume 4695.175863
_symmetry_space_group_name_H-M "C C C A"
_symmetry_group_IT_number 68
_space_group.IT_coordinate_system_code '2'
_symmetry_cell_setting 'orthorhombic'
loop_
_space_group_symop_operation_xyz
x,y,z
-x,1/2-y,z
x,1/2-y,1/2-z
-x,y,1/2-z
-x,-y,-z
x,1/2+y,-z
-x,1/2+y,1/2+z
x,-y,1/2+z
1/2+x,1/2+y,z
1/2-x,-y,z
1/2+x,-y,1/2-z
1/2-x,1/2+y,1/2-z
1/2-x,1/2-y,-z
1/2+x,y,-z
1/2-x,y,1/2+z
1/2+x,1/2-y,1/2+z
loop_
_atom_site_type_symbol
_atom_site_label
_atom_site_fract_x
_atom_site_fract_y
_atom_site_fract_z
Si Si1 0.805785 0.982145 0.414336
Si Si2 0.218627 0.117071 0.598237
Si Si3 0.719869 0.750000 0.250000
Si Si4 0.907534 0.750000 0.250000
Si Si5 0.551268 0.700952 0.150695
Si Si6 0.853603 0.185431 0.094818
O O1 0.800894 0.931403 0.410105
O O2 0.828611 0.000516 0.165519
O O3 0.750000 0.000000 0.416094
O O4 0.245851 0.122782 0.859814
O O5 0.173364 0.149018 0.556584
O O6 0.750000 0.750000 0.500000
O O7 0.686953 0.792366 0.262310
O O8 0.940924 0.712760 0.368145
O O9 0.871842 0.775850 0.425944
O O10 0.553937 0.750000 0.250000
O O11 0.500000 0.683873 0.250000
O O12 0.597814 0.675005 0.249860
#
# Coordination Sequence:
#
# PCOD9505404 Si02
#       6
#    16  16   8   8  16  16
#     4  10  16  33  52  72  98 134 172 222 261 308
#     4  12  23  34  52  78 107 144 183 215 259 310
#     4  12  23  36  48  66 105 151 184 207 248 296
#     4  10  19  39  55  70 108 135 180 231 271 320
#     4   9  19  35  56  75  92 130 178 231 282 311
#     4  11  23  34  50  76 102 142 185 222 259 315
#
# _framework density 17.038767
#
# number of rings (size 3 to 8) (size 9 to 14) (size 15 to 20)
#    0.000    1.400    7.000    1.800    2.800    6.400 
#    0.000    0.000    0.000    0.000    0.000    0.000 
#    0.000    1.600    0.000    0.000    0.000    0.000 
#
# Total GULP energy -222792.328169 kJ/mol
# GULP energy per Si atom -5569.808204 kJ/mol
# Density = 1.699999 g / cm^3
# Si number density = 17.038767 Si / 1000 Ang^3
#
#
#
# Elastic Constant Matrix: (Units=GPa)
#
#
# Indices 1 2 3 4 5 6 
#
# 1 86.9018 20.8785 36.1772 0.0000 0.0000 0.0000
# 2 20.8785 51.1180 5.1799 0.0000 0.0000 0.0000
# 3 36.1772 5.1799 111.3502 0.0000 0.0000 0.0000
# 4 0.0000 0.0000 0.0000 18.0013 0.0000 0.0000
# 5 0.0000 0.0000 0.0000 0.0000 15.1554 0.0000
# 6 0.0000 0.0000 0.0000 0.0000 0.0000 8.5901
#
#
#
# Elastic Compliance Matrix: (Units=1/GPa)
#
#
# Indices 1 2 3 4 5 6 
#
# 1 0.014726 -0.005556 -0.004526 0.000000 0.000000 0.000000
# 2 -0.005556 0.021752 0.000793 0.000000 0.000000 0.000000
# 3 -0.004526 0.000793 0.010414 0.000000 0.000000 0.000000
# 4 0.000000 0.000000 0.000000 0.055552 0.000000 0.000000
# 5 0.000000 0.000000 0.000000 0.000000 0.065983 0.000000
# 6 0.000000 0.000000 0.000000 0.000000 0.000000 0.116414
#
#
# Mechanical properties :
#
#
# Convention : Reuss Voigt Hill
#
# Bulk Modulus (GPa) = 35.31781 41.53792 38.42786
# Shear Modulus (GPa) = 15.98178 20.82497 18.40337
#
# Velocity S-wave (km/s) = 3.06594 3.49981 3.29004
# Velocity P-wave (km/s) = 5.77116 6.38459 6.08561
#
# Compressibility (1/GPa) = 0.02831432
#
# Stress axis : x y z
#
# Youngs Moduli (GPa) = 67.90558 45.97377 96.02210
#
# Poissons Ratio (x) = 0.25544 0.43460
# Poissons Ratio (y) = 0.37729 -0.07617
# Poissons Ratio (z) = 0.30734 -0.03647
#
# Static dielectric constant tensor:
#      x y z
#    x 1.606810 0.000000 0.000000 
#    y 0.000000 1.565320 0.000000 
#    z 0.000000 0.000000 1.786640 
# 
# From -- ./inp_files/2030.got.cif
#   From: 2010.05.17/outbox.cif.g08.bks.cpg/sg68_2_cif.got.tgz:2030.got - 2010.06.03 18:57:09.
