data_PCOD9505712
_publ_section_title
;
Structure prediction by ZEFSAII (Michael W. Deem and Ramdas Pophale) SiO2 
 PCOD9505712
Probable space group: C C C A
;
_chemical_formula_sum "Si O2"
_cell_formula_units_Z 112
_cell_length_a 19.000399
_cell_length_b 10.900553
_cell_length_c 26.889588
_cell_angle_alpha 90.000000
_cell_angle_beta 90.000000
_cell_angle_gamma 90.000000
_cell_volume 5569.233155
_symmetry_space_group_name_H-M "C C C A"
_symmetry_group_IT_number 68
_space_group.IT_coordinate_system_code '2'
_symmetry_cell_setting 'orthorhombic'
loop_
_space_group_symop_operation_xyz
x,y,z
-x,1/2-y,z
x,1/2-y,1/2-z
-x,y,1/2-z
-x,-y,-z
x,1/2+y,-z
-x,1/2+y,1/2+z
x,-y,1/2+z
1/2+x,1/2+y,z
1/2-x,-y,z
1/2+x,-y,1/2-z
1/2-x,1/2+y,1/2-z
1/2-x,1/2-y,-z
1/2+x,y,-z
1/2-x,y,1/2+z
1/2+x,1/2-y,1/2+z
loop_
_atom_site_type_symbol
_atom_site_label
_atom_site_fract_x
_atom_site_fract_y
_atom_site_fract_z
Si Si1 0.315123 0.169045 0.703089
Si Si2 0.539773 0.138817 0.373559
Si Si3 0.421615 0.193046 0.858271
Si Si4 0.583125 0.772298 0.027635
Si Si5 0.558770 0.035283 0.210295
Si Si6 0.426886 0.498941 0.469112
Si Si7 0.154968 0.621339 0.293339
O O1 0.340136 0.250000 0.750000
O O2 0.359834 0.215200 0.656881
O O3 0.231047 0.182461 0.702150
O O4 0.331717 0.025713 0.706513
O O5 0.500000 0.250000 0.401586
O O6 0.553812 0.029095 0.411885
O O7 0.609889 0.159488 0.341424
O O8 0.484087 0.108898 0.330734
O O9 0.500000 0.250000 0.850049
O O10 0.413014 0.171717 0.916911
O O11 0.411620 0.076561 0.822099
O O12 0.500000 0.750000 0.018957
O O13 0.610403 0.631279 0.025460
O O14 0.610899 0.875700 0.989802
O O15 0.500000 0.989629 0.250000
O O16 0.611885 0.122325 0.240976
O O17 0.500000 0.500000 0.500000
#
# Coordination Sequence:
#
# PCOD9505712 Si02
#       7
#    16  16  16  16  16  16  16
#     4  11  22  37  58  76 113 157 191 246 288 352
#     4  11  22  35  57  85 119 158 193 246 305 363
#     4  11  20  33  58  90 113 149 199 253 303 347
#     4   9  18  31  54  82 122 149 191 247 303 367
#     4  10  20  33  52  81 114 151 199 245 288 357
#     4  10  18  33  53  85 119 154 192 249 311 362
#     4  10  23  38  52  81 115 156 202 232 294 364
#
# _framework density 20.110488
#
# number of rings (size 3 to 8) (size 9 to 14) (size 15 to 20)
#    0.000    1.714    1.429    6.429    2.000    2.000 
#    0.000    0.000    0.000    0.857    0.000    2.000 
#    0.000    0.000    0.000    0.000    0.000    0.000 
#
# Total GULP energy -312087.047073 kJ/mol
# GULP energy per Si atom -5572.982983 kJ/mol
# Density = 2.006472 g / cm^3
# Si number density = 20.110488 Si / 1000 Ang^3
#
#
#
# Elastic Constant Matrix: (Units=GPa)
#
#
# Indices 1 2 3 4 5 6 
#
# 1 64.9839 16.4409 30.3104 0.0000 0.0000 0.0000
# 2 16.4409 102.5454 25.9687 0.0000 0.0000 0.0000
# 3 30.3104 25.9687 102.4810 0.0000 0.0000 0.0000
# 4 0.0000 0.0000 0.0000 32.2504 0.0000 0.0000
# 5 0.0000 0.0000 0.0000 0.0000 8.5120 0.0000
# 6 0.0000 0.0000 0.0000 0.0000 0.0000 20.4223
#
#
#
# Elastic Compliance Matrix: (Units=1/GPa)
#
#
# Indices 1 2 3 4 5 6 
#
# 1 0.018110 -0.001653 -0.004937 0.000000 0.000000 0.000000
# 2 -0.001653 0.010571 -0.002190 0.000000 0.000000 0.000000
# 3 -0.004937 -0.002190 0.011773 0.000000 0.000000 0.000000
# 4 0.000000 0.000000 0.000000 0.031007 0.000000 0.000000
# 5 0.000000 0.000000 0.000000 0.000000 0.117482 0.000000
# 6 0.000000 0.000000 0.000000 0.000000 0.000000 0.048966
#
#
# Mechanical properties :
#
#
# Convention : Reuss Voigt Hill
#
# Bulk Modulus (GPa) = 43.68056 46.16115 44.92085
# Shear Modulus (GPa) = 19.00412 25.38961 22.19687
#
# Velocity S-wave (km/s) = 3.07740 3.55703 3.32587
# Velocity P-wave (km/s) = 5.86469 6.31455 6.09377
#
# Compressibility (1/GPa) = 0.02289348
#
# Stress axis : x y z
#
# Youngs Moduli (GPa) = 55.21940 94.59500 84.93936
#
# Poissons Ratio (x) = 0.15638 0.41937
# Poissons Ratio (y) = 0.09129 0.18600
# Poissons Ratio (z) = 0.27263 0.20715
#
# Static dielectric constant tensor:
#      x y z
#    x 1.693430 0.000000 0.000000 
#    y 0.000000 1.918990 0.000000 
#    z 0.000000 0.000000 1.729360 
# 
# From -- ./inp_files/46671.got.cif
#   From: 2010.05.17/outbox.cif.g08.bks.cpg/sg68_24_cif.got.tgz:46671.got - 2010.06.03 18:57:09.
