data_PCOD9505118
_publ_section_title
;
Structure prediction by ZEFSAII (Michael W. Deem and Ramdas Pophale) SiO2 
 PCOD9505118
Probable space group: C M M A
;
_chemical_formula_sum "Si O2"
_cell_formula_units_Z 112
_cell_length_a 39.753657
_cell_length_b 7.519966
_cell_length_c 19.397211
_cell_angle_alpha 90.000000
_cell_angle_beta 90.000000
_cell_angle_gamma 90.000000
_cell_volume 5798.721530
_symmetry_space_group_name_H-M "C M M A"
_symmetry_group_IT_number 67
_symmetry_cell_setting 'orthorhombic'
loop_
_space_group_symop_operation_xyz
x,y,z
-x,1/2-y,z
x,-y,-z
-x,1/2+y,-z
-x,-y,-z
x,1/2+y,-z
-x,y,z
x,1/2-y,z
1/2+x,1/2+y,z
1/2-x,-y,z
1/2+x,1/2-y,-z
1/2-x,y,-z
1/2-x,1/2-y,-z
1/2+x,y,-z
1/2-x,1/2+y,z
1/2+x,-y,z
loop_
_atom_site_type_symbol
_atom_site_label
_atom_site_fract_x
_atom_site_fract_y
_atom_site_fract_z
Si Si1 0.711441 0.462732 0.291053
Si Si2 0.535708 0.036969 0.081968
Si Si3 0.890789 0.536473 0.080663
Si Si4 0.171792 0.037686 0.578768
Si Si5 0.962084 0.536615 0.419225
Si Si6 0.853619 0.032793 0.787983
Si Si7 0.104966 0.532949 0.345427
O O1 0.708585 0.250000 0.291843
O O2 0.750000 0.500000 0.275551
O O3 0.699250 0.528914 0.366282
O O4 0.682926 0.527489 0.238039
O O5 0.500000 0.968226 0.110379
O O6 0.535662 0.250000 0.092167
O O7 0.572175 0.968513 0.103435
O O8 0.535145 0.000000 0.000000
O O9 0.892027 0.750000 0.085801
O O10 0.884837 0.500000 0.000000
O O11 0.863920 0.471956 0.136108
O O12 0.170702 0.250000 0.585867
O O13 0.134739 0.974871 0.602430
O O14 0.179304 0.000000 0.500000
O O15 0.954960 0.500000 0.500000
O O16 0.963119 0.750000 0.411351
O O17 0.931420 0.470639 0.371678
O O18 0.000000 0.469144 0.404225
O O19 0.853220 0.250000 0.788163
O O20 0.881386 0.981780 0.730248
O O21 0.103932 0.750000 0.346022
#
# Coordination Sequence:
#
# PCOD9505118 Si02
#       7
#    16  16  16  16  16  16  16
#     4   9  18  32  48  65  85 111 141 170 204 248
#     4   8  13  21  34  55  82 108 133 161 194 233
#     4   9  16  27  45  66  87 112 141 174 211 250
#     4   9  17  28  43  63  86 112 141 172 205 244
#     4   9  16  25  39  60  84 111 145 184 220 249
#     4   8  15  29  47  64  84 112 141 169 208 255
#     4   8  14  26  42  59  82 112 145 177 208 246
#
# _framework density 19.314603000000002
#
# number of rings (size 3 to 8) (size 9 to 14) (size 15 to 20)
#    0.000    3.429    0.000    2.143    0.000    0.857 
#    0.000    2.857    0.000    7.286    0.000    3.000 
#    0.000    4.571    0.000    0.000    0.000    0.000 
#
# Total GULP energy -311796.550487 kJ/mol
# GULP energy per Si atom -5567.795544 kJ/mol
# Density = 1.927064 g / cm^3
# Si number density = 19.314603 Si / 1000 Ang^3
#
#
#
# Elastic Constant Matrix: (Units=GPa)
#
#
# Indices 1 2 3 4 5 6 
#
# 1 178.3631 7.8392 98.0364 0.0000 0.0000 0.0000
# 2 7.8392 48.9030 2.0513 0.0000 0.0000 0.0000
# 3 98.0364 2.0513 118.5871 0.0000 0.0000 0.0000
# 4 0.0000 0.0000 0.0000 11.7651 0.0000 0.0000
# 5 0.0000 0.0000 0.0000 0.0000 16.8370 0.0000
# 6 0.0000 0.0000 0.0000 0.0000 0.0000 6.5059
#
#
#
# Elastic Compliance Matrix: (Units=1/GPa)
#
#
# Indices 1 2 3 4 5 6 
#
# 1 0.010358 -0.001302 -0.008540 0.000000 0.000000 0.000000
# 2 -0.001302 0.020627 0.000720 0.000000 0.000000 0.000000
# 3 -0.008540 0.000720 0.015481 0.000000 0.000000 0.000000
# 4 0.000000 0.000000 0.000000 0.084997 0.000000 0.000000
# 5 0.000000 0.000000 0.000000 0.000000 0.059393 0.000000
# 6 0.000000 0.000000 0.000000 0.000000 0.000000 0.153707
#
#
# Mechanical properties :
#
#
# Convention : Reuss Voigt Hill
#
# Bulk Modulus (GPa) = 35.43595 62.41188 48.92391
# Shear Modulus (GPa) = 13.43308 22.88336 18.15822
#
# Velocity S-wave (km/s) = 2.64007 3.44578 3.06948
# Velocity P-wave (km/s) = 5.26116 6.94368 6.16014
#
# Compressibility (1/GPa) = 0.02821993
#
# Stress axis : x y z
#
# Youngs Moduli (GPa) = 96.54375 48.47971 64.59696
#
# Poissons Ratio (x) = 0.06313 0.55169
# Poissons Ratio (y) = 0.12571 -0.04649
# Poissons Ratio (z) = 0.82453 -0.03489
#
# Static dielectric constant tensor:
#      x y z
#    x 1.711510 0.000000 0.000000 
#    y 0.000000 1.688790 0.000000 
#    z 0.000000 0.000000 1.650440 
# 
# From -- ./inp_files/31137.got.cif
#   From: 2010.05.17/outbox.cif.g08.bks.cpg/sg67_16_cif.got.tgz:31137.got - 2010.06.03 18:28:57.
