data_PCOD9505256
_publ_section_title
;
Structure prediction by ZEFSAII (Michael W. Deem and Ramdas Pophale) SiO2 
 PCOD9505256
Probable space group: C M M A
;
_chemical_formula_sum "Si O2"
_cell_formula_units_Z 36
_cell_length_a 15.000000
_cell_length_b 9.000000
_cell_length_c 30.000000
_cell_angle_alpha 90.000000
_cell_angle_beta 90.000000
_cell_angle_gamma 90.000000
_cell_volume 4050.000000
_symmetry_space_group_name_H-M "C M M A"
_symmetry_group_IT_number 67
_symmetry_cell_setting 'orthorhombic'
loop_
_space_group_symop_operation_xyz
x,y,z
-x,1/2-y,z
x,-y,-z
-x,1/2+y,-z
-x,-y,-z
x,1/2+y,-z
-x,y,z
x,1/2-y,z
1/2+x,1/2+y,z
1/2-x,-y,z
1/2+x,1/2-y,-z
1/2-x,y,-z
1/2-x,1/2-y,-z
1/2+x,y,-z
1/2-x,1/2+y,z
1/2+x,-y,z
loop_
_atom_site_type_symbol
_atom_site_label
_atom_site_fract_x
_atom_site_fract_y
_atom_site_fract_z
Si Si1 0.157425 0.070692 0.644776
Si Si2 0.607804 0.421792 0.454508
Si Si3 0.500000 0.930695 0.187891
Si Si4 0.850834 0.568814 0.122999
Si Si5 0.000000 0.072496 0.951062
Si Si6 0.500000 0.070517 0.286453
O O1 0.161060 0.250000 0.642767
O O2 0.136800 0.018106 0.593943
O O3 0.083594 0.033563 0.681627
O O4 0.250000 0.000000 0.658504
O O5 0.638441 0.500000 0.500000
O O6 0.500000 0.426968 0.454219
O O7 0.635334 0.250000 0.456960
O O8 0.500000 0.750000 0.185227
O O9 0.412468 0.998218 0.162456
O O10 0.500000 0.986588 0.239219
O O11 0.846100 0.750000 0.127680
O O12 0.750000 0.500000 0.121619
O O13 0.911580 0.535938 0.078724
O O14 0.000000 0.250000 0.956544
O O15 0.000000 0.000000 0.000000
O O16 0.500000 0.250000 0.278494
#
# Coordination Sequence:
#
# PCOD9505256 Si02
#       6
#    16  16   8  16   8   8
#     4  10  21  37  57  79 106 140 178 219 269 329
#     4   9  17  32  53  76 102 136 175 212 259 318
#     4  11  23  39  61  88 115 148 191 241 295 354
#     4  10  21  39  61  88 120 158 202 248 295 345
#     4   9  20  36  56  85 124 165 206 247 291 341
#     4  10  21  41  61  77 108 149 181 224 284 341
#
# _framework density 8.8888890000000007
#
# number of rings (size 3 to 8) (size 9 to 14) (size 15 to 20)
#    0.000    2.222    1.111    2.333    0.000    6.222 
#    0.000    6.667    0.000    0.000    0.000    0.000 
#    0.000    0.000    0.000    0.000    0.000    0.000 
#
# Total GULP energy -200755.863108 kJ/mol
# GULP energy per Si atom -5576.551753 kJ/mol
# Density = 0.886866 g / cm^3
# Si number density = 8.888889 Si / 1000 Ang^3
#
#
#
# Elastic Constant Matrix: (Units=GPa)
#
#
# Indices 1 2 3 4 5 6 
#
# 1 156.7656 55.0677 88.8366 0.0000 0.0000 0.0000
# 2 55.0677 72.3028 62.8797 0.0000 0.0000 0.0000
# 3 88.8366 62.8797 184.0809 0.0000 0.0000 0.0000
# 4 0.0000 0.0000 0.0000 36.5549 0.0000 0.0000
# 5 0.0000 0.0000 0.0000 0.0000 -6.7721 0.0000
# 6 0.0000 0.0000 0.0000 0.0000 0.0000 31.4299
#
#
#
# Elastic Compliance Matrix: (Units=1/GPa)
#
#
# Indices 1 2 3 4 5 6 
#
# 1 0.009817 -0.004775 -0.003106 0.000000 0.000000 0.000000
# 2 -0.004775 0.021999 -0.005210 0.000000 0.000000 0.000000
# 3 -0.003106 -0.005210 0.008711 0.000000 0.000000 0.000000
# 4 0.000000 0.000000 0.000000 0.027356 0.000000 0.000000
# 5 0.000000 0.000000 0.000000 0.000000 -0.147664 0.000000
# 6 0.000000 0.000000 0.000000 0.000000 0.000000 0.031817
#
#
# Mechanical properties :
#
#
# Convention : Reuss Voigt Hill
#
# Bulk Modulus (GPa) = 69.71809 91.85746 80.78777
# Shear Modulus (GPa) = -294.10710 26.00023 -134.05344
#
# Velocity S-wave (km/s) = -12.87612 3.82843 -8.69303
# Velocity P-wave (km/s) = 13.48175 8.44538 7.43078
#
# Compressibility (1/GPa) = 0.01434348
#
# Stress axis : x y z
#
# Youngs Moduli (GPa) = 101.86793 45.45761 114.79528
#
# Poissons Ratio (x) = 0.21706 0.35659
# Poissons Ratio (y) = 0.48643 0.59808
# Poissons Ratio (z) = 0.31644 0.23683
#
# Static dielectric constant tensor:
#      x y z
#    x 1.608980 0.000000 0.000000 
#    y 0.000000 1.609060 0.000000 
#    z 0.000000 0.000000 1.603570 
# 
# From -- ./inp_files/45667.got.cif
#   From: 2010.05.17/outbox.ucp.g08.bks.cvg/sg67_23_cif.got.tgz:45667.got - 2010.06.11 16:47:20.
