data_PCOD9505939
_publ_section_title
;
Structure prediction by ZEFSAII (Michael W. Deem and Ramdas Pophale) SiO2 
 PCOD9505939
Probable space group: C C C A
;
_chemical_formula_sum "Si O2"
_cell_formula_units_Z 68
_cell_length_a 19.794896
_cell_length_b 5.245317
_cell_length_c 34.065271
_cell_angle_alpha 90.000000
_cell_angle_beta 90.000000
_cell_angle_gamma 90.000000
_cell_volume 3537.014274
_symmetry_space_group_name_H-M "C C C A"
_symmetry_group_IT_number 68
_space_group.IT_coordinate_system_code '2'
_symmetry_cell_setting 'orthorhombic'
loop_
_space_group_symop_operation_xyz
x,y,z
-x,1/2-y,z
x,1/2-y,1/2-z
-x,y,1/2-z
-x,-y,-z
x,1/2+y,-z
-x,1/2+y,1/2+z
x,-y,1/2+z
1/2+x,1/2+y,z
1/2-x,-y,z
1/2+x,-y,1/2-z
1/2-x,1/2+y,1/2-z
1/2-x,1/2-y,-z
1/2+x,y,-z
1/2-x,y,1/2+z
1/2+x,1/2-y,1/2+z
loop_
_atom_site_type_symbol
_atom_site_label
_atom_site_fract_x
_atom_site_fract_y
_atom_site_fract_z
Si Si1 0.044543 0.006285 0.402651
Si Si2 0.500000 0.750000 0.250000
Si Si3 0.582049 0.708863 0.980158
Si Si4 0.434216 0.574494 0.683097
Si Si5 0.290024 0.248545 0.202591
O O1 0.000000 0.250000 0.415499
O O2 0.093912 0.919700 0.437638
O O3 0.071426 0.065559 0.358990
O O4 0.000000 0.750000 0.398076
O O5 0.550223 0.600733 0.279356
O O6 0.500000 0.750000 0.982907
O O7 0.606543 0.494325 0.010955
O O8 0.500000 0.750000 0.682298
O O9 0.366848 0.736084 0.688852
O O10 0.291001 0.250000 0.250000
O O11 0.250000 0.500000 0.189652
O O12 0.250000 0.000000 0.189332
#
# Coordination Sequence:
#
# PCOD9505939 Si02
#       5
#    16   4  16  16  16
#     4  10  19  31  46  74 106 139 177 224 270 323
#     4  12  22  36  60  82 112 156 192 240 282 348
#     4   9  15  25  43  65  98 139 173 206 263 332
#     4  11  24  37  57  82 114 147 193 230 283 337
#     4  10  23  39  58  78 105 142 188 237 277 325
#
# _framework density 19.225255000000001
#
# number of rings (size 3 to 8) (size 9 to 14) (size 15 to 20)
#    0.000    1.882    1.176    5.294    8.235    0.000 
#    0.000    0.000    0.000    0.000    0.000    0.000 
#    0.000    5.647    0.000    0.000    0.000    1.176 
#
# Total GULP energy -189418.122263 kJ/mol
# GULP energy per Si atom -5571.121243 kJ/mol
# Density = 1.918150 g / cm^3
# Si number density = 19.225255 Si / 1000 Ang^3
#
#
#
# Elastic Constant Matrix: (Units=GPa)
#
#
# Indices 1 2 3 4 5 6 
#
# 1 99.1680 37.9157 13.0236 0.0000 0.0000 0.0000
# 2 37.9157 115.4652 39.1084 0.0000 0.0000 0.0000
# 3 13.0236 39.1084 124.8617 0.0000 0.0000 0.0000
# 4 0.0000 0.0000 0.0000 26.9828 0.0000 0.0000
# 5 0.0000 0.0000 0.0000 0.0000 -0.1633 0.0000
# 6 0.0000 0.0000 0.0000 0.0000 0.0000 21.2219
#
#
#
# Elastic Compliance Matrix: (Units=1/GPa)
#
#
# Indices 1 2 3 4 5 6 
#
# 1 0.011532 -0.003780 -0.000019 0.000000 0.000000 0.000000
# 2 -0.003780 0.010928 -0.003028 0.000000 0.000000 0.000000
# 3 -0.000019 -0.003028 0.008959 0.000000 0.000000 0.000000
# 4 0.000000 0.000000 0.000000 0.037061 0.000000 0.000000
# 5 0.000000 0.000000 0.000000 0.000000 -6.124503 0.000000
# 6 0.000000 0.000000 0.000000 0.000000 0.000000 0.047121
#
#
# Mechanical properties :
#
#
# Convention : Reuss Voigt Hill
#
# Bulk Modulus (GPa) = 56.29432 57.73225 57.01328
# Shear Modulus (GPa) = -0.83482 26.23810 12.70164
#
# Velocity S-wave (km/s) = -0.65968 3.69829 2.57315
# Velocity P-wave (km/s) = 5.36328 6.95205 6.20870
#
# Compressibility (1/GPa) = 0.01776378
#
# Stress axis : x y z
#
# Youngs Moduli (GPa) = 86.71723 91.51044 111.61522
#
# Poissons Ratio (x) = 0.34594 0.00209
# Poissons Ratio (y) = 0.32782 0.33802
# Poissons Ratio (z) = 0.00163 0.27713
#
# Static dielectric constant tensor:
#      x y z
#    x 1.636970 0.000000 0.000000 
#    y 0.000000 1.718820 0.000000 
#    z 0.000000 0.000000 1.780070 
# 
# From -- ./inp_files/55735.got.cif
#   From: 2010.05.17/outbox.cif.g08.bks.cpg/sg68_28_cif.got.tgz:55735.got - 2010.06.03 18:57:09.
