data_PCOD9505428
_publ_section_title
;
Structure prediction by ZEFSAII (Michael W. Deem and Ramdas Pophale) SiO2 
 PCOD9505428
Probable space group: C C C A
;
_chemical_formula_sum "Si O2"
_cell_formula_units_Z 72
_cell_length_a 8.435575
_cell_length_b 31.138584
_cell_length_c 13.014590
_cell_angle_alpha 90.000000
_cell_angle_beta 90.000000
_cell_angle_gamma 90.000000
_cell_volume 3418.566572
_symmetry_space_group_name_H-M "C C C A"
_symmetry_group_IT_number 68
_space_group.IT_coordinate_system_code '2'
_symmetry_cell_setting 'orthorhombic'
loop_
_space_group_symop_operation_xyz
x,y,z
-x,1/2-y,z
x,1/2-y,1/2-z
-x,y,1/2-z
-x,-y,-z
x,1/2+y,-z
-x,1/2+y,1/2+z
x,-y,1/2+z
1/2+x,1/2+y,z
1/2-x,-y,z
1/2+x,-y,1/2-z
1/2-x,1/2+y,1/2-z
1/2-x,1/2-y,-z
1/2+x,y,-z
1/2-x,y,1/2+z
1/2+x,1/2-y,1/2+z
loop_
_atom_site_type_symbol
_atom_site_label
_atom_site_fract_x
_atom_site_fract_y
_atom_site_fract_z
Si Si1 0.431535 0.121790 0.432213
Si Si2 0.500000 0.250000 0.750000
Si Si3 0.823752 0.955952 0.205900
Si Si4 0.248696 0.186040 0.294460
Si Si5 0.500000 0.250000 0.250000
Si Si6 0.291621 0.389570 0.854466
O O1 0.344455 0.081342 0.378311
O O2 0.347164 0.164762 0.387715
O O3 0.412131 0.116012 0.553020
O O4 0.613678 0.119191 0.397599
O O5 0.391345 0.281035 0.680682
O O6 0.717865 0.935236 0.297237
O O7 0.000000 0.963612 0.250000
O O8 0.750000 0.000000 0.167244
O O9 0.367469 0.213793 0.221323
O O10 0.182520 0.146658 0.230071
#
# Coordination Sequence:
#
# PCOD9505428 Si02
#       6
#    16   4  16  16   4  16
#     4  10  21  38  60  83 115 151 188 229 281 336
#     4  10  24  34  62  86 110 144 196 242 270 342
#     4   9  20  39  59  84 114 150 185 228 279 330
#     4  10  20  40  57  81 115 150 187 230 289 328
#     4  10  16  38  66  70 106 160 180 226 286 330
#     4  10  21  38  60  83 115 151 188 229 281 336
#
# _framework density 21.06146
#
# number of rings (size 3 to 8) (size 9 to 14) (size 15 to 20)
#    0.000    2.222    2.222    1.333    3.111    2.667 
#    4.000   11.111    0.000    0.000    0.000    0.000 
#    0.000    0.000    0.000    0.000    0.000    0.000 
#
# Total GULP energy -200500.324057 kJ/mol
# GULP energy per Si atom -5569.453446 kJ/mol
# Density = 2.101352 g / cm^3
# Si number density = 21.061460 Si / 1000 Ang^3
#
#
#
# Elastic Constant Matrix: (Units=GPa)
#
#
# Indices 1 2 3 4 5 6 
#
# 1 50.5606 28.8434 -10.0661 0.0000 0.0000 0.0000
# 2 28.8434 97.6567 -14.3586 0.0000 0.0000 0.0000
# 3 -10.0661 -14.3586 27.1900 0.0000 0.0000 0.0000
# 4 0.0000 0.0000 0.0000 0.5020 0.0000 0.0000
# 5 0.0000 0.0000 0.0000 0.0000 26.6374 0.0000
# 6 0.0000 0.0000 0.0000 0.0000 0.0000 -735.6532
#
#
#
# Elastic Compliance Matrix: (Units=1/GPa)
#
#
# Indices 1 2 3 4 5 6 
#
# 1 0.024577 -0.006420 0.005709 0.000000 0.000000 0.000000
# 2 -0.006420 0.012779 0.004372 0.000000 0.000000 0.000000
# 3 0.005709 0.004372 0.041200 0.000000 0.000000 0.000000
# 4 0.000000 0.000000 0.000000 1.991917 0.000000 0.000000
# 5 0.000000 0.000000 0.000000 0.000000 0.037541 0.000000
# 6 0.000000 0.000000 0.000000 0.000000 0.000000 -0.001359
#
#
# Mechanical properties :
#
#
# Convention : Reuss Voigt Hill
#
# Bulk Modulus (GPa) = 11.64451 20.47164 16.05807
# Shear Modulus (GPa) = 2.34967 -130.30353 -63.97693
#
# Velocity S-wave (km/s) = 1.05738 -7.87417 -5.51745
# Velocity P-wave (km/s) = 2.65171 8.53985 5.74010
#
# Compressibility (1/GPa) = 0.08587737
#
# Stress axis : x y z
#
# Youngs Moduli (GPa) = 40.68853 78.25474 24.27170
#
# Poissons Ratio (x) = 0.50236 -0.13856
# Poissons Ratio (y) = 0.26120 -0.10611
# Poissons Ratio (z) = -0.23228 -0.34210
#
# Static dielectric constant tensor:
#      x y z
#    x 1.813040 0.000000 0.000000 
#    y 0.000000 1.745930 0.000000 
#    z 0.000000 0.000000 1.740490 
# 
# From -- ./inp_files/9453.got.cif
#   From: 2010.05.17/outbox.cif.g08.bks.cpg/sg68_5_cif.got.tgz:9453.got - 2010.06.03 18:57:09.
