data_PCOD9505502
_publ_section_title
;
Structure prediction by ZEFSAII (Michael W. Deem and Ramdas Pophale) SiO2 
 PCOD9505502
Probable space group: C C C A
;
_chemical_formula_sum "Si O2"
_cell_formula_units_Z 120
_cell_length_a 13.147426
_cell_length_b 20.671099
_cell_length_c 20.174019
_cell_angle_alpha 90.000000
_cell_angle_beta 90.000000
_cell_angle_gamma 90.000000
_cell_volume 5482.728336
_symmetry_space_group_name_H-M "C C C A"
_symmetry_group_IT_number 68
_space_group.IT_coordinate_system_code '2'
_symmetry_cell_setting 'orthorhombic'
loop_
_space_group_symop_operation_xyz
x,y,z
-x,1/2-y,z
x,1/2-y,1/2-z
-x,y,1/2-z
-x,-y,-z
x,1/2+y,-z
-x,1/2+y,1/2+z
x,-y,1/2+z
1/2+x,1/2+y,z
1/2-x,-y,z
1/2+x,-y,1/2-z
1/2-x,1/2+y,1/2-z
1/2-x,1/2-y,-z
1/2+x,y,-z
1/2-x,y,1/2+z
1/2+x,1/2-y,1/2+z
loop_
_atom_site_type_symbol
_atom_site_label
_atom_site_fract_x
_atom_site_fract_y
_atom_site_fract_z
Si Si1 0.000000 0.750000 0.413016
Si Si2 0.817378 0.065026 0.377929
Si Si3 0.649416 0.046071 0.732060
Si Si4 0.039965 0.441114 0.650261
Si Si5 0.798046 0.801206 0.050067
Si Si6 0.662928 0.444816 0.478197
Si Si7 0.643187 0.151173 0.335441
Si Si8 0.717179 0.841506 0.690018
O O1 0.080387 0.790875 0.454327
O O2 0.069059 0.702426 0.369349
O O3 0.873575 0.065326 0.307702
O O4 0.876575 0.060508 0.446519
O O5 0.739792 0.125742 0.376588
O O6 0.750000 0.000000 0.378436
O O7 0.686496 0.111048 0.695893
O O8 0.750000 0.000000 0.734527
O O9 0.570450 0.003856 0.691612
O O10 0.071297 0.453164 0.573953
O O11 0.119936 0.384933 0.669703
O O12 0.929843 0.412761 0.668920
O O13 0.780187 0.876389 0.034847
O O14 0.768138 0.793324 0.128206
O O15 0.750000 0.750000 0.000000
O O16 0.750000 0.500000 0.470676
O O17 0.685195 0.176382 0.265003
#
# Coordination Sequence:
#
# PCOD9505502 Si02
#       8
#     8  16  16  16  16  16  16  16
#     4  12  24  39  60  98 134 165 220 270 344 405
#     4   9  19  35  56  81 119 166 209 259 328 391
#     4   8  15  30  55  84 111 159 208 253 317 394
#     4  10  17  31  56  85 117 156 206 257 320 387
#     4  11  23  39  60  88 128 176 218 271 338 405
#     4  10  19  37  60  81 118 170 217 258 316 408
#     4  11  21  35  58  90 127 160 206 280 335 390
#     4   9  18  33  54  84 118 163 208 259 328 395
#
# _framework density 21.886913
#
# number of rings (size 3 to 8) (size 9 to 14) (size 15 to 20)
#    0.000    2.133    2.667    4.000    0.000    1.067 
#    0.000    2.667    5.867    3.200    0.000    0.000 
#    0.000    9.600    0.000    0.000    0.000    0.000 
#
# Total GULP energy -334850.253307 kJ/mol
# GULP energy per Si atom -5580.837555 kJ/mol
# Density = 2.183710 g / cm^3
# Si number density = 21.886913 Si / 1000 Ang^3
#
#
#
# Elastic Constant Matrix: (Units=GPa)
#
#
# Indices 1 2 3 4 5 6 
#
# 1 55.1130 47.5433 38.5127 0.0000 0.0000 0.0000
# 2 47.5433 113.6096 43.6717 0.0000 0.0000 0.0000
# 3 38.5127 43.6717 167.9646 0.0000 0.0000 0.0000
# 4 0.0000 0.0000 0.0000 31.2134 0.0000 0.0000
# 5 0.0000 0.0000 0.0000 0.0000 11.1865 0.0000
# 6 0.0000 0.0000 0.0000 0.0000 0.0000 42.2815
#
#
#
# Elastic Compliance Matrix: (Units=1/GPa)
#
#
# Indices 1 2 3 4 5 6 
#
# 1 0.030762 -0.011290 -0.004118 0.000000 0.000000 0.000000
# 2 -0.011290 0.013923 -0.001031 0.000000 0.000000 0.000000
# 3 -0.004118 -0.001031 0.007166 0.000000 0.000000 0.000000
# 4 0.000000 0.000000 0.000000 0.032038 0.000000 0.000000
# 5 0.000000 0.000000 0.000000 0.000000 0.089394 0.000000
# 6 0.000000 0.000000 0.000000 0.000000 0.000000 0.023651
#
#
# Mechanical properties :
#
#
# Convention : Reuss Voigt Hill
#
# Bulk Modulus (GPa) = 52.70931 66.23808 59.47370
# Shear Modulus (GPa) = 21.17425 30.73357 25.95391
#
# Velocity S-wave (km/s) = 3.11374 3.75133 3.44731
# Velocity P-wave (km/s) = 6.08786 7.00662 6.56334
#
# Compressibility (1/GPa) = 0.01897198
#
# Stress axis : x y z
#
# Youngs Moduli (GPa) = 32.50811 71.82224 139.54825
#
# Poissons Ratio (x) = 0.81089 0.57464
# Poissons Ratio (y) = 0.36702 0.14393
# Poissons Ratio (z) = 0.13386 0.07408
#
# Static dielectric constant tensor:
#      x y z
#    x 1.807330 0.000000 0.000000 
#    y 0.000000 1.871220 0.000000 
#    z 0.000000 0.000000 1.897210 
# 
# From -- ./inp_files/38948.got.cif
#   From: 2010.05.17/outbox.cif.g08.bks.cpg/sg68_20_cif.got.tgz:38948.got - 2010.06.03 18:57:09.
