data_PCOD9505937
_publ_section_title
;
Structure prediction by ZEFSAII (Michael W. Deem and Ramdas Pophale) SiO2 
 PCOD9505937
Probable space group: C C C A
;
_chemical_formula_sum "Si O2"
_cell_formula_units_Z 128
_cell_length_a 25.665280
_cell_length_b 16.638110
_cell_length_c 18.909148
_cell_angle_alpha 90.000000
_cell_angle_beta 90.000000
_cell_angle_gamma 90.000000
_cell_volume 8074.617504
_symmetry_space_group_name_H-M "C C C A"
_symmetry_group_IT_number 68
_space_group.IT_coordinate_system_code '2'
_symmetry_cell_setting 'orthorhombic'
loop_
_space_group_symop_operation_xyz
x,y,z
-x,1/2-y,z
x,1/2-y,1/2-z
-x,y,1/2-z
-x,-y,-z
x,1/2+y,-z
-x,1/2+y,1/2+z
x,-y,1/2+z
1/2+x,1/2+y,z
1/2-x,-y,z
1/2+x,-y,1/2-z
1/2-x,1/2+y,1/2-z
1/2-x,1/2-y,-z
1/2+x,y,-z
1/2-x,y,1/2+z
1/2+x,1/2-y,1/2+z
loop_
_atom_site_type_symbol
_atom_site_label
_atom_site_fract_x
_atom_site_fract_y
_atom_site_fract_z
Si Si1 0.627823 0.036580 0.073020
Si Si2 0.719354 0.333795 0.430112
Si Si3 0.061293 0.155236 0.833040
Si Si4 0.295516 0.932158 0.179592
Si Si5 0.935947 0.157900 0.831787
Si Si6 0.774654 0.339698 0.579610
Si Si7 0.366810 0.033422 0.080625
Si Si8 0.795774 0.931685 0.659157
O O1 0.674524 0.100821 0.069545
O O2 0.584483 0.086317 0.116392
O O3 0.654064 0.963968 0.117198
O O4 0.615254 0.004946 0.993976
O O5 0.741296 0.333670 0.508889
O O6 0.699357 0.246338 0.408495
O O7 0.767083 0.358725 0.379663
O O8 0.075743 0.248413 0.850791
O O9 0.078683 0.144076 0.750982
O O10 0.998562 0.150527 0.835433
O O11 0.265528 0.860010 0.141643
O O12 0.309981 0.915064 0.260021
O O13 0.250000 0.000000 0.181026
O O14 0.343550 0.965526 0.133355
O O15 0.908032 0.091667 0.880490
O O16 0.816656 0.409327 0.567926
O O17 0.750000 0.000000 0.658723
#
# Coordination Sequence:
#
# PCOD9505937 Si02
#       8
#    16  16  16  16  16  16  16  16
#     4  11  19  30  50  74  99 130 159 199 247 296
#     4  10  19  31  46  66  95 132 167 196 232 277
#     4   9  19  36  55  74  97 125 161 207 253 296
#     4   9  18  30  45  67  94 126 163 200 236 279
#     4   9  19  36  55  74  97 125 161 207 253 296
#     4  10  19  31  46  66  95 132 167 196 232 277
#     4  11  19  30  50  74  99 130 159 199 247 296
#     4   9  18  30  45  67  94 126 163 200 236 279
#
# _framework density 15.852143999999999
#
# number of rings (size 3 to 8) (size 9 to 14) (size 15 to 20)
#    0.000    2.250    2.500    2.250    0.000    2.000 
#    0.000    0.000    0.000    0.000    0.000    0.000 
#    0.000    0.000    0.000   16.500    0.000    0.000 
#
# Total GULP energy -356345.111104 kJ/mol
# GULP energy per Si atom -5567.892361 kJ/mol
# Density = 1.581606 g / cm^3
# Si number density = 15.852144 Si / 1000 Ang^3
#
#
#
# Elastic Constant Matrix: (Units=GPa)
#
#
# Indices 1 2 3 4 5 6 
#
# 1 37.2129 3.7439 15.5335 0.0000 0.0000 0.0000
# 2 3.7439 38.5098 14.5679 0.0000 0.0000 0.0000
# 3 15.5335 14.5679 94.6096 0.0000 0.0000 0.0000
# 4 0.0000 0.0000 0.0000 14.1560 0.0000 0.0000
# 5 0.0000 0.0000 0.0000 0.0000 24.0348 0.0000
# 6 0.0000 0.0000 0.0000 0.0000 0.0000 21.5186
#
#
#
# Elastic Compliance Matrix: (Units=1/GPa)
#
#
# Indices 1 2 3 4 5 6 
#
# 1 0.028892 -0.001077 -0.004578 0.000000 0.000000 0.000000
# 2 -0.001077 0.027614 -0.004075 0.000000 0.000000 0.000000
# 3 -0.004578 -0.004075 0.011949 0.000000 0.000000 0.000000
# 4 0.000000 0.000000 0.000000 0.070642 0.000000 0.000000
# 5 0.000000 0.000000 0.000000 0.000000 0.041606 0.000000
# 6 0.000000 0.000000 0.000000 0.000000 0.000000 0.046471
#
#
# Mechanical properties :
#
#
# Convention : Reuss Voigt Hill
#
# Bulk Modulus (GPa) = 20.41055 26.44699 23.42877
# Shear Modulus (GPa) = 19.01395 21.04100 20.02748
#
# Velocity S-wave (km/s) = 3.46707 3.64720 3.55828
# Velocity P-wave (km/s) = 5.37875 5.86991 5.62969
#
# Compressibility (1/GPa) = 0.04899426
#
# Stress axis : x y z
#
# Youngs Moduli (GPa) = 34.61209 36.21391 83.69022
#
# Poissons Ratio (x) = 0.03901 0.38311
# Poissons Ratio (y) = 0.03728 0.34104
# Poissons Ratio (z) = 0.15844 0.14757
#
# Static dielectric constant tensor:
#      x y z
#    x 1.514480 0.000000 0.000000 
#    y 0.000000 1.555130 0.000000 
#    z 0.000000 0.000000 1.536820 
# 
# From -- ./inp_files/33783.got.cif
#   From: 2010.05.17/outbox.cif.g08.bks.cpg/sg68_17_cif.got.tgz:33783.got - 2010.06.03 18:57:09.
