data_PCOD9505669
_publ_section_title
;
Structure prediction by ZEFSAII (Michael W. Deem and Ramdas Pophale) SiO2 
 PCOD9505669
Probable space group: C C C A
;
_chemical_formula_sum "Si O2"
_cell_formula_units_Z 88
_cell_length_a 14.810081
_cell_length_b 12.752063
_cell_length_c 20.896396
_cell_angle_alpha 90.000000
_cell_angle_beta 90.000000
_cell_angle_gamma 90.000000
_cell_volume 3946.474248
_symmetry_space_group_name_H-M "C C C A"
_symmetry_group_IT_number 68
_space_group.IT_coordinate_system_code '2'
_symmetry_cell_setting 'orthorhombic'
loop_
_space_group_symop_operation_xyz
x,y,z
-x,1/2-y,z
x,1/2-y,1/2-z
-x,y,1/2-z
-x,-y,-z
x,1/2+y,-z
-x,1/2+y,1/2+z
x,-y,1/2+z
1/2+x,1/2+y,z
1/2-x,-y,z
1/2+x,-y,1/2-z
1/2-x,1/2+y,1/2-z
1/2-x,1/2-y,-z
1/2+x,y,-z
1/2-x,y,1/2+z
1/2+x,1/2-y,1/2+z
loop_
_atom_site_type_symbol
_atom_site_label
_atom_site_fract_x
_atom_site_fract_y
_atom_site_fract_z
Si Si1 0.016857 0.460506 0.674849
Si Si2 0.707149 0.136372 0.131309
Si Si3 0.250000 0.000000 0.766573
Si Si4 0.644484 0.671679 0.689402
Si Si5 0.841744 0.019164 0.504165
Si Si6 0.990889 0.625478 0.933541
O O1 0.944753 0.371123 0.655960
O O2 0.005734 0.564669 0.633914
O O3 0.000000 0.478089 0.750000
O O4 0.113046 0.409791 0.659493
O O5 0.780792 0.087912 0.180469
O O6 0.703821 0.259973 0.140960
O O7 0.702034 0.091319 0.060701
O O8 0.308348 0.930027 0.718772
O O9 0.625612 0.750000 0.750000
O O10 0.921170 0.084312 0.471272
O O11 0.750000 0.000000 0.463592
O O12 0.899136 0.919368 0.532122
O O13 0.000000 0.750000 0.928772
#
# Coordination Sequence:
#
# PCOD9505669 Si02
#       6
#    16  16   8  16  16  16
#     4  11  20  38  63  89 127 161 214 257 322 404
#     4  10  20  35  63  91 123 168 212 264 329 379
#     4  10  18  32  50  94 136 152 206 266 322 388
#     4  10  20  34  59  94 127 164 210 268 318 392
#     4  10  22  45  71  92 126 174 233 271 318 408
#     4  10  25  45  64  97 135 168 217 287 337 384
#
# _framework density 22.298383999999999
#
# number of rings (size 3 to 8) (size 9 to 14) (size 15 to 20)
#    0.000    1.818    4.545    0.545    0.000    5.455 
#    4.909    1.818    0.000    0.000    0.000    0.000 
#    0.000    0.000    0.000    0.000    0.000    0.000 
#
# Total GULP energy -245125.625930 kJ/mol
# GULP energy per Si atom -5571.036953 kJ/mol
# Density = 2.224763 g / cm^3
# Si number density = 22.298384 Si / 1000 Ang^3
#
#
#
# Elastic Constant Matrix: (Units=GPa)
#
#
# Indices 1 2 3 4 5 6 
#
# 1 114.0585 46.7156 9.1578 0.0000 0.0000 0.0000
# 2 46.7156 142.5656 11.6199 0.0000 0.0000 0.0000
# 3 9.1578 11.6199 31.2723 0.0000 0.0000 0.0000
# 4 0.0000 0.0000 0.0000 26.1519 0.0000 0.0000
# 5 0.0000 0.0000 0.0000 0.0000 19.6505 0.0000
# 6 0.0000 0.0000 0.0000 0.0000 0.0000 21.1049
#
#
#
# Elastic Compliance Matrix: (Units=1/GPa)
#
#
# Indices 1 2 3 4 5 6 
#
# 1 0.010224 -0.003203 -0.001804 0.000000 0.000000 0.000000
# 2 -0.003203 0.008237 -0.002123 0.000000 0.000000 0.000000
# 3 -0.001804 -0.002123 0.033294 0.000000 0.000000 0.000000
# 4 0.000000 0.000000 0.000000 0.038238 0.000000 0.000000
# 5 0.000000 0.000000 0.000000 0.000000 0.050889 0.000000
# 6 0.000000 0.000000 0.000000 0.000000 0.000000 0.047382
#
#
# Mechanical properties :
#
#
# Convention : Reuss Voigt Hill
#
# Bulk Modulus (GPa) = 26.66954 46.98698 36.82826
# Shear Modulus (GPa) = 23.25334 28.07501 25.66417
#
# Velocity S-wave (km/s) = 3.23279 3.55217 3.39624
# Velocity P-wave (km/s) = 5.09125 6.15967 5.65077
#
# Compressibility (1/GPa) = 0.03749596
#
# Stress axis : x y z
#
# Youngs Moduli (GPa) = 97.80691 121.40423 30.03539
#
# Poissons Ratio (x) = 0.38889 0.05418
# Poissons Ratio (y) = 0.31330 0.06375
# Poissons Ratio (z) = 0.17643 0.25769
#
# Static dielectric constant tensor:
#      x y z
#    x 2.194190 0.000000 0.000000 
#    y 0.000000 1.885740 0.000000 
#    z 0.000000 0.000000 1.895390 
# 
# From -- ./inp_files/45293.got.cif
#   From: 2010.05.17/outbox.cif.g08.bks.cpg/sg68_23_cif.got.tgz:45293.got - 2010.06.03 18:57:09.
