data_PCOD9505132
_publ_section_title
;
Structure prediction by ZEFSAII (Michael W. Deem and Ramdas Pophale) SiO2 
 PCOD9505132
Probable space group: C M M A
;
_chemical_formula_sum "Si O2"
_cell_formula_units_Z 64
_cell_length_a 24.206520
_cell_length_b 13.386236
_cell_length_c 7.492447
_cell_angle_alpha 90.000000
_cell_angle_beta 90.000000
_cell_angle_gamma 90.000000
_cell_volume 2427.808991
_symmetry_space_group_name_H-M "C M M A"
_symmetry_group_IT_number 67
_symmetry_cell_setting 'orthorhombic'
loop_
_space_group_symop_operation_xyz
x,y,z
-x,1/2-y,z
x,-y,-z
-x,1/2+y,-z
-x,-y,-z
x,1/2+y,-z
-x,y,z
x,1/2-y,z
1/2+x,1/2+y,z
1/2-x,-y,z
1/2+x,1/2-y,-z
1/2-x,y,-z
1/2-x,1/2-y,-z
1/2+x,y,-z
1/2-x,1/2+y,z
1/2+x,-y,z
loop_
_atom_site_type_symbol
_atom_site_label
_atom_site_fract_x
_atom_site_fract_y
_atom_site_fract_z
Si Si1 0.500000 0.129032 0.293480
Si Si2 0.814019 0.362109 0.811607
Si Si3 0.000000 0.128316 0.109225
Si Si4 0.081631 0.364878 0.410759
Si Si5 0.815422 0.094328 0.225370
O O1 0.500000 0.250000 0.279103
O O2 0.553279 0.096327 0.409603
O O3 0.500000 0.092151 0.092622
O O4 0.833132 0.250000 0.754615
O O5 0.828532 0.475894 0.759245
O O6 0.748338 0.371647 0.765715
O O7 0.828033 0.367410 0.024638
O O8 0.947426 0.098608 0.229188
O O9 0.000000 0.250000 0.095727
O O10 0.065082 0.250000 0.415506
O O11 0.146642 0.366234 0.383221
#
# Coordination Sequence:
#
# PCOD9505132 Si02
#       5
#     8  16   8  16  16
#     4   8  15  27  44  73 110 142 176 222 276 327
#     4   9  16  26  41  68 107 140 173 223 269 312
#     4   8  15  27  44  73 110 142 176 222 276 327
#     4   9  15  25  46  75 109 144 176 220 271 322
#     4   9  16  25  43  74 105 136 178 219 262 323
#
# _framework density 26.361217
#
# number of rings (size 3 to 8) (size 9 to 14) (size 15 to 20)
#    0.000    3.250    0.000    6.000    0.000    0.000 
#    0.000    0.000    0.000   12.000    0.000   38.500 
#    0.000   56.000    0.000    0.000    0.000    6.000 
#
# Total GULP energy -178487.432791 kJ/mol
# GULP energy per Si atom -5577.732275 kJ/mol
# Density = 2.630122 g / cm^3
# Si number density = 26.361217 Si / 1000 Ang^3
#
#
#
# Elastic Constant Matrix: (Units=GPa)
#
#
# Indices 1 2 3 4 5 6 
#
# 1 78.1244 15.7452 66.2819 0.0000 0.0000 0.0000
# 2 15.7452 199.6113 54.6776 0.0000 0.0000 0.0000
# 3 66.2819 54.6776 190.9533 0.0000 0.0000 0.0000
# 4 0.0000 0.0000 0.0000 38.9709 0.0000 0.0000
# 5 0.0000 0.0000 0.0000 0.0000 7.5424 0.0000
# 6 0.0000 0.0000 0.0000 0.0000 0.0000 30.4371
#
#
#
# Elastic Compliance Matrix: (Units=1/GPa)
#
#
# Indices 1 2 3 4 5 6 
#
# 1 0.018162 0.000319 -0.006396 0.000000 0.000000 0.000000
# 2 0.000319 0.005442 -0.001669 0.000000 0.000000 0.000000
# 3 -0.006396 -0.001669 0.007935 0.000000 0.000000 0.000000
# 4 0.000000 0.000000 0.000000 0.025660 0.000000 0.000000
# 5 0.000000 0.000000 0.000000 0.000000 0.132583 0.000000
# 6 0.000000 0.000000 0.000000 0.000000 0.000000 0.032855
#
#
# Mechanical properties :
#
#
# Convention : Reuss Voigt Hill
#
# Bulk Modulus (GPa) = 62.31413 82.45537 72.38475
# Shear Modulus (GPa) = 20.53586 37.52237 29.02912
#
# Velocity S-wave (km/s) = 2.79412 3.77688 3.32204
# Velocity P-wave (km/s) = 5.83946 7.09695 6.49869
#
# Compressibility (1/GPa) = 0.01604772
#
# Stress axis : x y z
#
# Youngs Moduli (GPa) = 55.06034 183.76518 126.02747
#
# Poissons Ratio (x) = -0.05868 0.80602
# Poissons Ratio (y) = -0.01758 0.21034
# Poissons Ratio (z) = 0.35214 0.30671
#
# Static dielectric constant tensor:
#      x y z
#    x 2.106690 0.000000 0.000000 
#    y 0.000000 2.122960 0.000000 
#    z 0.000000 0.000000 2.041600 
# 
# From -- ./inp_files/12104.got.cif
#   From: 2010.05.17/outbox.cif.g08.bks.cpg/sg67_7_cif.got.tgz:12104.got - 2010.06.03 18:28:57.
