data_PCOD9505349
_publ_section_title
;
Structure prediction by ZEFSAII (Michael W. Deem and Ramdas Pophale) SiO2 
 PCOD9505349
Probable space group: C C C A
;
_chemical_formula_sum "Si O2"
_cell_formula_units_Z 120
_cell_length_a 16.970574
_cell_length_b 22.365373
_cell_length_c 16.986480
_cell_angle_alpha 90.000000
_cell_angle_beta 90.000000
_cell_angle_gamma 90.000000
_cell_volume 6447.273139
_symmetry_space_group_name_H-M "C C C A"
_symmetry_group_IT_number 68
_space_group.IT_coordinate_system_code '2'
_symmetry_cell_setting 'orthorhombic'
loop_
_space_group_symop_operation_xyz
x,y,z
-x,1/2-y,z
x,1/2-y,1/2-z
-x,y,1/2-z
-x,-y,-z
x,1/2+y,-z
-x,1/2+y,1/2+z
x,-y,1/2+z
1/2+x,1/2+y,z
1/2-x,-y,z
1/2+x,-y,1/2-z
1/2-x,1/2+y,1/2-z
1/2-x,1/2-y,-z
1/2+x,y,-z
1/2-x,y,1/2+z
1/2+x,1/2-y,1/2+z
loop_
_atom_site_type_symbol
_atom_site_label
_atom_site_fract_x
_atom_site_fract_y
_atom_site_fract_z
Si Si1 0.908772 0.773129 0.833134
Si Si2 0.925131 0.412198 0.861075
Si Si3 0.337155 0.476109 0.002665
Si Si4 0.090484 0.775058 0.331254
Si Si5 0.055831 0.905713 0.008748
Si Si6 0.922849 0.908961 0.874284
Si Si7 0.500000 0.496747 0.750000
Si Si8 0.406911 0.229003 0.001704
O O1 0.874475 0.750000 0.750000
O O2 0.906923 0.844721 0.836766
O O3 0.874609 0.750624 0.917120
O O4 0.000000 0.750000 0.833261
O O5 0.861137 0.435308 0.923319
O O6 0.909691 0.346527 0.828684
O O7 0.938583 0.460745 0.794312
O O8 0.006307 0.409032 0.910919
O O9 0.250000 0.500000 0.008505
O O10 0.394648 0.533934 0.000577
O O11 0.351994 0.437359 0.924230
O O12 0.126217 0.750000 0.250000
O O13 0.125202 0.756136 0.416413
O O14 0.000000 0.750000 0.332727
O O15 0.099870 0.842497 0.006866
O O16 0.992377 0.901780 0.938578
O O17 0.954113 0.955029 0.810498
O O18 0.500000 0.250000 0.000719
#
# Coordination Sequence:
#
# PCOD9505349 Si02
#       8
#    16  16  16  16  16  16   8  16
#     4  10  18  29  50  89 120 141 177 246 315 357
#     4  11  20  34  59  86 118 147 192 252 298 351
#     4  11  24  41  56  79 118 170 208 238 286 358
#     4  10  18  29  50  89 120 141 177 246 315 357
#     4  11  18  37  56  81 112 149 193 253 285 339
#     4  11  20  34  59  86 118 147 192 252 298 351
#     4  12  20  30  56  96 112 142 190 254 312 354
#     4  10  16  28  50  81 110 141 180 239 302 349
#
# _framework density 18.61252
#
# number of rings (size 3 to 8) (size 9 to 14) (size 15 to 20)
#    0.000    1.333    8.000    3.200    0.000    0.000 
#    0.000    0.667    0.000    3.200    0.000    3.733 
#    0.000    0.000    0.000    0.000    0.000    0.000 
#
# Total GULP energy -334715.204703 kJ/mol
# GULP energy per Si atom -5578.586745 kJ/mol
# Density = 1.857016 g / cm^3
# Si number density = 18.612520 Si / 1000 Ang^3
#
#
#
# Elastic Constant Matrix: (Units=GPa)
#
#
# Indices 1 2 3 4 5 6 
#
# 1 24.5840 12.1651 -1.5833 0.0000 0.0000 0.0000
# 2 12.1651 154.4373 38.1693 0.0000 0.0000 0.0000
# 3 -1.5833 38.1693 119.7693 0.0000 0.0000 0.0000
# 4 0.0000 0.0000 0.0000 7.5342 0.0000 0.0000
# 5 0.0000 0.0000 0.0000 0.0000 -0.1100 0.0000
# 6 0.0000 0.0000 0.0000 0.0000 0.0000 7.1662
#
#
#
# Elastic Compliance Matrix: (Units=1/GPa)
#
#
# Indices 1 2 3 4 5 6 
#
# 1 0.042672 -0.003800 0.001775 0.000000 0.000000 0.000000
# 2 -0.003800 0.007367 -0.002398 0.000000 0.000000 0.000000
# 3 0.001775 -0.002398 0.009137 0.000000 0.000000 0.000000
# 4 0.000000 0.000000 0.000000 0.132728 0.000000 0.000000
# 5 0.000000 0.000000 0.000000 0.000000 -9.090617 0.000000
# 6 0.000000 0.000000 0.000000 0.000000 0.000000 0.139545
#
#
# Mechanical properties :
#
#
# Convention : Reuss Voigt Hill
#
# Bulk Modulus (GPa) = 19.86890 44.03253 31.95072
# Shear Modulus (GPa) = -0.57251 19.58738 9.50744
#
# Velocity S-wave (km/s) = -0.55521 3.24756 2.26256
# Velocity P-wave (km/s) = 3.20736 6.14581 4.90195
#
# Compressibility (1/GPa) = 0.05032992
#
# Stress axis : x y z
#
# Youngs Moduli (GPa) = 23.43482 135.73810 109.44406
#
# Poissons Ratio (x) = 0.51580 -0.19428
# Poissons Ratio (y) = 0.08905 0.26245
# Poissons Ratio (z) = -0.04160 0.32551
#
# Static dielectric constant tensor:
#      x y z
#    x 1.616720 0.000000 0.000000 
#    y 0.000000 1.647460 0.000000 
#    z 0.000000 0.000000 1.710960 
# 
# From -- ./inp_files/32309.got.cif
#   From: 2010.05.17/outbox.cif.g08.bks.cpg/sg68_17_cif.got.tgz:32309.got - 2010.06.03 18:57:09.
