data_PCOD9505183
_publ_section_title
;
Structure prediction by ZEFSAII (Michael W. Deem and Ramdas Pophale) SiO2 
 PCOD9505183
Probable space group: C M M A
;
_chemical_formula_sum "Si O2"
_cell_formula_units_Z 60
_cell_length_a 9.000000
_cell_length_b 27.000000
_cell_length_c 27.000000
_cell_angle_alpha 90.000000
_cell_angle_beta 90.000000
_cell_angle_gamma 90.000000
_cell_volume 6561.000000
_symmetry_space_group_name_H-M "C M M A"
_symmetry_group_IT_number 67
_symmetry_cell_setting 'orthorhombic'
loop_
_space_group_symop_operation_xyz
x,y,z
-x,1/2-y,z
x,-y,-z
-x,1/2+y,-z
-x,-y,-z
x,1/2+y,-z
-x,y,z
x,1/2-y,z
1/2+x,1/2+y,z
1/2-x,-y,z
1/2+x,1/2-y,-z
1/2-x,y,-z
1/2-x,1/2-y,-z
1/2+x,y,-z
1/2-x,1/2+y,z
1/2+x,-y,z
loop_
_atom_site_type_symbol
_atom_site_label
_atom_site_fract_x
_atom_site_fract_y
_atom_site_fract_z
Si Si1 0.325961 0.644948 0.548979
Si Si2 0.170723 0.449574 0.897213
Si Si3 0.177886 0.250000 0.054354
Si Si4 0.667318 0.307540 0.346445
Si Si5 0.677708 0.856687 0.054323
Si Si6 0.832075 0.450454 0.778421
Si Si7 0.672911 0.392558 0.702081
Si Si8 0.321421 0.052944 0.601308
O O1 0.500000 0.635542 0.540804
O O2 0.250000 0.665206 0.500000
O O3 0.310955 0.681340 0.595586
O O4 0.244060 0.594345 0.564791
O O5 0.250000 0.500000 0.913801
O O6 0.257609 0.402216 0.916005
O O7 0.172793 0.448591 0.837592
O O8 0.000000 0.448723 0.913950
O O9 0.217394 0.302894 0.077564
O O10 0.000000 0.250000 0.048269
O O11 0.250000 0.250000 0.000000
O O12 0.500000 0.325839 0.334185
O O13 0.675224 0.250000 0.336477
O O14 0.786367 0.338429 0.316542
O O15 0.500000 0.860373 0.050495
O O16 0.750000 0.858114 0.000000
O O17 0.750000 0.500000 0.762039
O O18 0.755160 0.404907 0.752348
O O19 0.000000 0.453345 0.761713
O O20 0.500000 0.399325 0.709341
O O21 0.720223 0.428632 0.656849
O O22 0.500000 0.051456 0.597870
O O23 0.250000 0.000000 0.591526
#
# Coordination Sequence:
#
# PCOD9505183 Si02
#       8
#    16  16   8  16  16  16  16  16
#     4  10  20  34  51  72  99 130 165 203 245 295
#     4  10  21  36  53  77 108 143 182 221 267 319
#     4   8  16  30  50  76 102 132 172 216 264 310
#     4   9  19  36  56  76 100 132 167 206 254 303
#     4  10  19  33  54  79 108 142 181 226 272 320
#     4  10  20  34  54  78 106 138 173 211 256 307
#     4  10  20  33  53  79 104 130 165 208 253 302
#     4  10  20  33  49  72 100 129 162 201 244 294
#
# _framework density 9.1449470000000002
#
# number of rings (size 3 to 8) (size 9 to 14) (size 15 to 20)
#    0.000    2.267    0.000    2.800    0.000    6.400 
#    0.000    2.667    1.467    0.000    0.000    0.000 
#    0.000    0.000    0.000    0.000    0.000    0.000 
#
# Total GULP energy -334520.179043 kJ/mol
# GULP energy per Si atom -5575.336317 kJ/mol
# Density = 0.912413 g / cm^3
# Si number density = 9.144947 Si / 1000 Ang^3
#
#
#
# Elastic Constant Matrix: (Units=GPa)
#
#
# Indices 1 2 3 4 5 6 
#
# 1 71.7365 39.4613 28.7699 0.0000 0.0000 0.0000
# 2 39.4613 74.6803 28.8917 0.0000 0.0000 0.0000
# 3 28.7699 28.8917 -3.0768 0.0000 0.0000 0.0000
# 4 0.0000 0.0000 0.0000 0.3885 0.0000 0.0000
# 5 0.0000 0.0000 0.0000 0.0000 -9.6143 0.0000
# 6 0.0000 0.0000 0.0000 0.0000 0.0000 22.6694
#
#
#
# Elastic Compliance Matrix: (Units=1/GPa)
#
#
# Indices 1 2 3 4 5 6 
#
# 1 0.015704 -0.014054 0.014877 0.000000 0.000000 0.000000
# 2 -0.014054 0.015467 0.013828 0.000000 0.000000 0.000000
# 3 0.014877 0.013828 -0.056061 0.000000 0.000000 0.000000
# 4 0.000000 0.000000 0.000000 2.574155 0.000000 0.000000
# 5 0.000000 0.000000 0.000000 0.000000 -0.104011 0.000000
# 6 0.000000 0.000000 0.000000 0.000000 0.000000 0.044112
#
#
# Mechanical properties :
#
#
# Convention : Reuss Voigt Hill
#
# Bulk Modulus (GPa) = 226.67575 37.50954 132.09265
# Shear Modulus (GPa) = 2.03125 5.76985 3.90055
#
# Velocity S-wave (km/s) = 1.05499 1.77807 1.46194
# Velocity P-wave (km/s) = 11.21107 4.97677 8.67341
#
# Compressibility (1/GPa) = 0.00441159
#
# Stress axis : x y z
#
# Youngs Moduli (GPa) = 63.67728 64.65410 -17.83761
#
# Poissons Ratio (x) = 0.90863 0.26537
# Poissons Ratio (y) = 0.89490 0.24665
# Poissons Ratio (z) = -0.94733 -0.89401
#
# Static dielectric constant tensor:
#      x y z
#    x 1.625680 0.000000 0.000000 
#    y 0.000000 1.630830 0.000000 
#    z 0.000000 0.000000 1.621230 
# 
# From -- ./inp_files/43890.got.cif
#   From: 2010.05.17/outbox.ucp.g08.bks.cvg/sg67_22_cif.got.tgz:43890.got - 2010.06.11 16:47:20.
