data_PCOD9505278
_publ_section_title
;
Structure prediction by ZEFSAII (Michael W. Deem and Ramdas Pophale) SiO2 
 PCOD9505278
Probable space group: C M M A
;
_chemical_formula_sum "Si O2"
_cell_formula_units_Z 56
_cell_length_a 24.000000
_cell_length_b 15.000000
_cell_length_c 15.000000
_cell_angle_alpha 90.000000
_cell_angle_beta 90.000000
_cell_angle_gamma 90.000000
_cell_volume 5400.000000
_symmetry_space_group_name_H-M "C M M A"
_symmetry_group_IT_number 67
_symmetry_cell_setting 'orthorhombic'
loop_
_space_group_symop_operation_xyz
x,y,z
-x,1/2-y,z
x,-y,-z
-x,1/2+y,-z
-x,-y,-z
x,1/2+y,-z
-x,y,z
x,1/2-y,z
1/2+x,1/2+y,z
1/2-x,-y,z
1/2+x,1/2-y,-z
1/2-x,y,-z
1/2-x,1/2-y,-z
1/2+x,y,-z
1/2-x,1/2+y,z
1/2+x,-y,z
loop_
_atom_site_type_symbol
_atom_site_label
_atom_site_fract_x
_atom_site_fract_y
_atom_site_fract_z
Si Si1 0.369012 0.148460 0.423278
Si Si2 0.565843 0.483520 0.291016
Si Si3 0.369386 0.147879 0.631973
Si Si4 0.257450 0.398405 0.336085
Si Si5 0.833896 0.856760 0.957327
Si Si6 0.217626 0.141862 0.863114
Si Si7 0.562083 0.039401 0.900101
O O1 0.388794 0.250000 0.413466
O O2 0.374516 0.122798 0.527070
O O3 0.303564 0.145112 0.398837
O O4 0.401721 0.086268 0.353669
O O5 0.500000 0.481802 0.311987
O O6 0.593751 0.578645 0.313157
O O7 0.571475 0.472917 0.183606
O O8 0.387616 0.250000 0.642975
O O9 0.304252 0.142493 0.660256
O O10 0.250000 0.500000 0.364427
O O11 0.283102 0.395745 0.236145
O O12 0.835346 0.750000 0.960900
O O13 0.777853 0.881311 0.904567
O O14 0.887243 0.892467 0.906657
O O15 0.825962 0.888051 0.060411
O O16 0.213980 0.250000 0.855550
O O17 0.500000 0.078284 0.883789
O O18 0.560686 0.000000 0.000000
#
# Coordination Sequence:
#
# PCOD9505278 Si02
#       7
#    16  16  16  16  16  16  16
#     4  11  25  43  66  96 131 173 217 266 327 391
#     4  11  25  45  68  96 129 169 221 275 322 384
#     4  11  24  43  67  97 134 171 210 268 333 388
#     4  12  23  36  62  96 132 171 212 261 319 391
#     4   9  19  35  58  85 120 161 206 258 311 376
#     4   9  19  35  54  87 127 163 204 255 314 377
#     4  10  23  41  60  85 122 163 207 262 318 371
#
# _framework density 10.370369999999999
#
# number of rings (size 3 to 8) (size 9 to 14) (size 15 to 20)
#    0.000    1.571    1.429    3.857    2.000    5.429 
#    0.000    4.286    0.000    2.571    0.000    0.000 
#    0.000    0.000    0.000    0.000    0.000    0.000 
#
# Total GULP energy -312938.628747 kJ/mol
# GULP energy per Si atom -5588.189799 kJ/mol
# Density = 1.034677 g / cm^3
# Si number density = 10.370370 Si / 1000 Ang^3
#
#
#
# Elastic Constant Matrix: (Units=GPa)
#
#
# Indices 1 2 3 4 5 6 
#
# 1 96.6499 15.3171 12.1304 0.0000 0.0000 0.0000
# 2 15.3171 53.4851 14.9834 0.0000 0.0000 0.0000
# 3 12.1304 14.9834 101.6314 0.0000 0.0000 0.0000
# 4 0.0000 0.0000 0.0000 26.4062 0.0000 0.0000
# 5 0.0000 0.0000 0.0000 0.0000 29.2184 0.0000
# 6 0.0000 0.0000 0.0000 0.0000 0.0000 -2.6716
#
#
#
# Elastic Compliance Matrix: (Units=1/GPa)
#
#
# Indices 1 2 3 4 5 6 
#
# 1 0.010913 -0.002879 -0.000878 0.000000 0.000000 0.000000
# 2 -0.002879 0.020262 -0.002644 0.000000 0.000000 0.000000
# 3 -0.000878 -0.002644 0.010334 0.000000 0.000000 0.000000
# 4 0.000000 0.000000 0.000000 0.037870 0.000000 0.000000
# 5 0.000000 0.000000 0.000000 0.000000 0.034225 0.000000
# 6 0.000000 0.000000 0.000000 0.000000 0.000000 -0.374314
#
#
# Mechanical properties :
#
#
# Convention : Reuss Voigt Hill
#
# Bulk Modulus (GPa) = 34.83438 37.40312 36.11875
# Shear Modulus (GPa) = -20.97847 24.54633 1.78393
#
# Velocity S-wave (km/s) = -3.18380 3.44391 0.92843
# Velocity P-wave (km/s) = 1.82104 5.82124 4.31295
#
# Compressibility (1/GPa) = 0.02870727
#
# Stress axis : x y z
#
# Youngs Moduli (GPa) = 91.63268 49.35365 96.76788
#
# Poissons Ratio (x) = 0.14211 0.08497
# Poissons Ratio (y) = 0.26384 0.25581
# Poissons Ratio (z) = 0.08046 0.13047
#
# Static dielectric constant tensor:
#      x y z
#    x 1.733700 0.000000 0.000000 
#    y 0.000000 1.737790 0.000000 
#    z 0.000000 0.000000 1.760450 
# 
# From -- ./inp_files/30165.got.cif
#   From: 2010.05.17/outbox.ucp.g08.bks.cvg/sg67_16_cif.got.tgz:30165.got - 2010.06.11 16:47:20.
