data_PCOD9505651
_publ_section_title
;
Structure prediction by ZEFSAII (Michael W. Deem and Ramdas Pophale) SiO2 
 PCOD9505651
Probable space group: C C C A
;
_chemical_formula_sum "Si O2"
_cell_formula_units_Z 96
_cell_length_a 21.674415
_cell_length_b 9.983182
_cell_length_c 22.923437
_cell_angle_alpha 90.000000
_cell_angle_beta 90.000000
_cell_angle_gamma 90.000000
_cell_volume 4960.164809
_symmetry_space_group_name_H-M "C C C A"
_symmetry_group_IT_number 68
_space_group.IT_coordinate_system_code '2'
_symmetry_cell_setting 'orthorhombic'
loop_
_space_group_symop_operation_xyz
x,y,z
-x,1/2-y,z
x,1/2-y,1/2-z
-x,y,1/2-z
-x,-y,-z
x,1/2+y,-z
-x,1/2+y,1/2+z
x,-y,1/2+z
1/2+x,1/2+y,z
1/2-x,-y,z
1/2+x,-y,1/2-z
1/2-x,1/2+y,1/2-z
1/2-x,1/2-y,-z
1/2+x,y,-z
1/2-x,y,1/2+z
1/2+x,1/2-y,1/2+z
loop_
_atom_site_type_symbol
_atom_site_label
_atom_site_fract_x
_atom_site_fract_y
_atom_site_fract_z
Si Si1 0.661182 0.852808 0.037531
Si Si2 0.068116 0.029891 0.376793
Si Si3 0.807749 0.925616 0.946007
Si Si4 0.574593 0.095825 0.247365
Si Si5 0.427254 0.504771 0.371145
Si Si6 0.934877 0.243621 0.554181
O O1 0.707823 0.731791 0.050512
O O2 0.618009 0.874538 0.093739
O O3 0.618741 0.786003 0.987966
O O4 0.683753 0.990129 0.006820
O O5 0.087886 0.979445 0.312934
O O6 0.071247 0.901529 0.419216
O O7 0.995465 0.071717 0.375293
O O8 0.750000 0.000000 0.916321
O O9 0.872570 0.939370 0.911454
O O10 0.597503 0.250000 0.250000
O O11 0.500000 0.103773 0.250000
O O12 0.593048 0.011183 0.304238
O O13 0.438461 0.352616 0.394196
O O14 0.000000 0.250000 0.521009
#
# Coordination Sequence:
#
# PCOD9505651 Si02
#       6
#    16  16  16  16  16  16
#     4  11  22  36  57  83 113 146 186 241 288 344
#     4  10  18  31  55  91 116 141 184 237 296 346
#     4  11  24  40  57  77 110 156 197 235 283 345
#     4   9  15  29  54  85 118 148 184 227 275 345
#     4   9  19  32  55  83 114 148 185 234 291 337
#     4   9  17  28  49  83 117 143 174 224 286 347
#
# _framework density 19.354196000000002
#
# number of rings (size 3 to 8) (size 9 to 14) (size 15 to 20)
#    0.000    2.167    3.333    0.500    2.333    2.000 
#    0.000    0.833    0.000    6.000    0.000    0.000 
#    0.000    0.000    0.000    0.000    0.000    0.000 
#
# Total GULP energy -267443.656328 kJ/mol
# GULP energy per Si atom -5571.742840 kJ/mol
# Density = 1.931014 g / cm^3
# Si number density = 19.354196 Si / 1000 Ang^3
#
#
#
# Elastic Constant Matrix: (Units=GPa)
#
#
# Indices 1 2 3 4 5 6 
#
# 1 57.8428 22.3574 31.3563 0.0000 0.0000 0.0000
# 2 22.3574 85.4834 24.9845 0.0000 0.0000 0.0000
# 3 31.3563 24.9845 95.1970 0.0000 0.0000 0.0000
# 4 0.0000 0.0000 0.0000 8.1639 0.0000 0.0000
# 5 0.0000 0.0000 0.0000 0.0000 9.7669 0.0000
# 6 0.0000 0.0000 0.0000 0.0000 0.0000 19.6067
#
#
#
# Elastic Compliance Matrix: (Units=1/GPa)
#
#
# Indices 1 2 3 4 5 6 
#
# 1 0.022229 -0.003979 -0.006278 0.000000 0.000000 0.000000
# 2 -0.003979 0.013382 -0.002202 0.000000 0.000000 0.000000
# 3 -0.006278 -0.002202 0.013150 0.000000 0.000000 0.000000
# 4 0.000000 0.000000 0.000000 0.122491 0.000000 0.000000
# 5 0.000000 0.000000 0.000000 0.000000 0.102386 0.000000
# 6 0.000000 0.000000 0.000000 0.000000 0.000000 0.051003
#
#
# Mechanical properties :
#
#
# Convention : Reuss Voigt Hill
#
# Bulk Modulus (GPa) = 41.93725 43.99106 42.96415
# Shear Modulus (GPa) = 13.98577 18.16252 16.07414
#
# Velocity S-wave (km/s) = 2.69108 3.06670 2.88501
# Velocity P-wave (km/s) = 5.60100 5.94292 5.77449
#
# Compressibility (1/GPa) = 0.02384515
#
# Stress axis : x y z
#
# Youngs Moduli (GPa) = 44.98569 74.72547 76.04519
#
# Poissons Ratio (x) = 0.29734 0.47738
# Poissons Ratio (y) = 0.17900 0.16742
# Poissons Ratio (z) = 0.28240 0.16451
#
# Static dielectric constant tensor:
#      x y z
#    x 1.716680 0.000000 0.000000 
#    y 0.000000 1.750420 0.000000 
#    z 0.000000 0.000000 1.686430 
# 
# From -- ./inp_files/40851.got.cif
#   From: 2010.05.17/outbox.cif.g08.bks.cpg/sg68_21_cif.got.tgz:40851.got - 2010.06.03 18:57:09.
