data_PCOD9505338
_publ_section_title
;
Structure prediction by ZEFSAII (Michael W. Deem and Ramdas Pophale) SiO2 
 PCOD9505338
Probable space group: C C C A
;
_chemical_formula_sum "Si O2"
_cell_formula_units_Z 80
_cell_length_a 5.407590
_cell_length_b 35.288041
_cell_length_c 21.953024
_cell_angle_alpha 90.000000
_cell_angle_beta 90.000000
_cell_angle_gamma 90.000000
_cell_volume 4189.147555
_symmetry_space_group_name_H-M "C C C A"
_symmetry_group_IT_number 68
_space_group.IT_coordinate_system_code '2'
_symmetry_cell_setting 'orthorhombic'
loop_
_space_group_symop_operation_xyz
x,y,z
-x,1/2-y,z
x,1/2-y,1/2-z
-x,y,1/2-z
-x,-y,-z
x,1/2+y,-z
-x,1/2+y,1/2+z
x,-y,1/2+z
1/2+x,1/2+y,z
1/2-x,-y,z
1/2+x,-y,1/2-z
1/2-x,1/2+y,1/2-z
1/2-x,1/2-y,-z
1/2+x,y,-z
1/2-x,y,1/2+z
1/2+x,1/2-y,1/2+z
loop_
_atom_site_type_symbol
_atom_site_label
_atom_site_fract_x
_atom_site_fract_y
_atom_site_fract_z
Si Si1 0.250543 0.766044 0.069132
Si Si2 0.500000 0.025184 0.750000
Si Si3 0.905083 0.960488 0.617767
Si Si4 0.177957 0.355503 0.432071
Si Si5 0.250000 0.000000 0.040135
Si Si6 0.176271 0.885981 0.428901
O O1 0.500000 0.750000 0.098472
O O2 0.260814 0.811232 0.064218
O O3 0.000000 0.750000 0.097888
O O4 0.250000 0.750000 0.000000
O O5 0.551973 0.048311 0.688480
O O6 0.250000 0.000000 0.739245
O O7 0.753215 0.929213 0.581017
O O8 0.171658 0.966240 0.585576
O O9 0.750000 0.000000 0.617439
O O10 0.153940 0.373558 0.500113
O O11 0.410856 0.375953 0.401476
O O12 0.909806 0.362507 0.403475
O O13 0.500000 0.000000 0.000000
#
# Coordination Sequence:
#
# PCOD9505338 Si02
#       6
#    16   8  16  16   8  16
#     4  10  16  26  47  65  92 136 183 206 230 299
#     4  10  22  42  62  76  98 130 195 256 283 318
#     4  11  25  41  59  79 103 147 194 239 286 327
#     4  10  20  33  44  72 107 141 167 209 269 320
#     4  12  26  36  56  82 114 130 182 228 288 342
#     4  10  21  31  48  66 102 134 168 212 269 325
#
# _framework density 19.096965999999998
#
# number of rings (size 3 to 8) (size 9 to 14) (size 15 to 20)
#    0.000    1.600    2.000    6.000    8.400    0.000 
#    0.000    0.000    0.000    0.000    0.000    0.000 
#    0.000    0.000    0.000   43.200    0.000    1.200 
#
# Total GULP energy -222890.467276 kJ/mol
# GULP energy per Si atom -5572.261682 kJ/mol
# Density = 1.905350 g / cm^3
# Si number density = 19.096966 Si / 1000 Ang^3
#
#
#
# Elastic Constant Matrix: (Units=GPa)
#
#
# Indices 1 2 3 4 5 6 
#
# 1 138.0698 -0.4928 8.6167 0.0000 0.0000 0.0000
# 2 -0.4928 93.6963 12.6830 0.0000 0.0000 0.0000
# 3 8.6167 12.6830 57.4699 0.0000 0.0000 0.0000
# 4 0.0000 0.0000 0.0000 1.6786 0.0000 0.0000
# 5 0.0000 0.0000 0.0000 0.0000 8.6254 0.0000
# 6 0.0000 0.0000 0.0000 0.0000 0.0000 35.5256
#
#
#
# Elastic Compliance Matrix: (Units=1/GPa)
#
#
# Indices 1 2 3 4 5 6 
#
# 1 0.007314 0.000193 -0.001139 0.000000 0.000000 0.000000
# 2 0.000193 0.011007 -0.002458 0.000000 0.000000 0.000000
# 3 -0.001139 -0.002458 0.018114 0.000000 0.000000 0.000000
# 4 0.000000 0.000000 0.000000 0.595737 0.000000 0.000000
# 5 0.000000 0.000000 0.000000 0.000000 0.115936 0.000000
# 6 0.000000 0.000000 0.000000 0.000000 0.000000 0.028149
#
#
# Mechanical properties :
#
#
# Convention : Reuss Voigt Hill
#
# Bulk Modulus (GPa) = 33.75441 36.76110 35.25775
# Shear Modulus (GPa) = 6.30564 27.06121 16.68343
#
# Velocity S-wave (km/s) = 1.81909 3.76845 2.95891
# Velocity P-wave (km/s) = 4.70380 6.18275 5.49328
#
# Compressibility (1/GPa) = 0.02962576
#
# Stress axis : x y z
#
# Youngs Moduli (GPa) = 136.71484 90.85540 55.20700
#
# Poissons Ratio (x) = -0.01751 0.06289
# Poissons Ratio (y) = -0.02634 0.13569
# Poissons Ratio (z) = 0.15575 0.22331
#
# Static dielectric constant tensor:
#      x y z
#    x 1.900770 0.000000 0.000000 
#    y 0.000000 1.711840 0.000000 
#    z 0.000000 0.000000 1.688600 
# 
# From -- ./inp_files/42369.got.cif
#   From: 2010.05.17/outbox.cif.g08.bks.cpg/sg68_22_cif.got.tgz:42369.got - 2010.06.03 18:57:09.
