data_PCOD9505043
_publ_section_title
;
Structure prediction by ZEFSAII (Michael W. Deem and Ramdas Pophale) SiO2 
 PCOD9505043
Probable space group: C M M A
;
_chemical_formula_sum "Si O2"
_cell_formula_units_Z 36
_cell_length_a 25.107129
_cell_length_b 9.087685
_cell_length_c 6.963882
_cell_angle_alpha 90.000000
_cell_angle_beta 90.000000
_cell_angle_gamma 90.000000
_cell_volume 1588.918869
_symmetry_space_group_name_H-M "C M M A"
_symmetry_group_IT_number 67
_symmetry_cell_setting 'orthorhombic'
loop_
_space_group_symop_operation_xyz
x,y,z
-x,1/2-y,z
x,-y,-z
-x,1/2+y,-z
-x,-y,-z
x,1/2+y,-z
-x,y,z
x,1/2-y,z
1/2+x,1/2+y,z
1/2-x,-y,z
1/2+x,1/2-y,-z
1/2-x,y,-z
1/2-x,1/2-y,-z
1/2+x,y,-z
1/2-x,1/2+y,z
1/2+x,-y,z
loop_
_atom_site_type_symbol
_atom_site_label
_atom_site_fract_x
_atom_site_fract_y
_atom_site_fract_z
Si Si1 0.941576 0.573637 0.710885
Si Si2 0.750000 0.500000 0.000000
Si Si3 0.163438 0.917609 0.299851
O O1 0.943366 0.500000 0.500000
O O2 0.936283 0.750000 0.703162
O O3 0.887707 0.501454 0.787662
O O4 0.000000 0.541592 0.796760
O O5 0.789165 0.582767 0.146618
O O6 0.148770 0.750000 0.346454
O O7 0.177969 0.000000 0.500000
#
# Coordination Sequence:
#
# PCOD9505043 Si02
#       3
#    16   4  16
#     4   9  17  32  58  91 125 160 199 246 304 369
#     4  12  28  44  62  88 122 168 218 260 306 366
#     4  11  24  42  66  94 125 163 208 258 311 368
#
# _framework density 22.656917
#
# number of rings (size 3 to 8) (size 9 to 14) (size 15 to 20)
#    0.000    1.778    0.000    6.667    0.000   11.556 
#    0.000    1.111    0.000    0.000    0.000    0.000 
#    0.000    0.000    0.000    0.000    0.000    0.000 
#
# Total GULP energy -100421.589527 kJ/mol
# GULP energy per Si atom -5578.977196 kJ/mol
# Density = 2.260535 g / cm^3
# Si number density = 22.656917 Si / 1000 Ang^3
#
#
#
# Elastic Constant Matrix: (Units=GPa)
#
#
# Indices 1 2 3 4 5 6 
#
# 1 191.7239 65.0634 55.0787 0.0000 0.0000 0.0000
# 2 65.0634 155.4813 53.4132 0.0000 0.0000 0.0000
# 3 55.0787 53.4132 141.8650 0.0000 0.0000 0.0000
# 4 0.0000 0.0000 0.0000 0.9530 0.0000 0.0000
# 5 0.0000 0.0000 0.0000 0.0000 -65.8730 0.0000
# 6 0.0000 0.0000 0.0000 0.0000 0.0000 67.6195
#
#
#
# Elastic Compliance Matrix: (Units=1/GPa)
#
#
# Indices 1 2 3 4 5 6 
#
# 1 0.006417 -0.002101 -0.001700 0.000000 0.000000 0.000000
# 2 -0.002101 0.008075 -0.002225 0.000000 0.000000 0.000000
# 3 -0.001700 -0.002225 0.008547 0.000000 0.000000 0.000000
# 4 0.000000 0.000000 0.000000 1.049287 0.000000 0.000000
# 5 0.000000 0.000000 0.000000 0.000000 -0.015181 0.000000
# 6 0.000000 0.000000 0.000000 0.000000 0.000000 0.014789
#
#
# Mechanical properties :
#
#
# Convention : Reuss Voigt Hill
#
# Bulk Modulus (GPa) = 91.01830 92.90898 91.96364
# Shear Modulus (GPa) = 4.59707 21.57424 13.08565
#
# Velocity S-wave (km/s) = 1.42597 3.08914 2.40585
# Velocity P-wave (km/s) = 6.55521 7.33619 6.95667
#
# Compressibility (1/GPa) = 0.01098680
#
# Stress axis : x y z
#
# Youngs Moduli (GPa) = 155.82568 123.83636 117.00453
#
# Poissons Ratio (x) = 0.26022 0.19895
# Poissons Ratio (y) = 0.32744 0.26028
# Poissons Ratio (z) = 0.26496 0.27548
#
# Static dielectric constant tensor:
#      x y z
#    x 1.915210 0.000000 0.000000 
#    y 0.000000 1.792250 0.000000 
#    z 0.000000 0.000000 1.869960 
# 
# From -- ./inp_files/13015.got.cif
#   From: 2010.05.17/outbox.cif.g08.bks.cpg/sg67_7_cif.got.tgz:13015.got - 2010.06.03 18:28:57.
