data_PCOD9505968
_publ_section_title
;
Structure prediction by ZEFSAII (Michael W. Deem and Ramdas Pophale) SiO2 
 PCOD9505968
Probable space group: C C C A
;
_chemical_formula_sum "Si O2"
_cell_formula_units_Z 72
_cell_length_a 5.387393
_cell_length_b 31.297173
_cell_length_c 20.979129
_cell_angle_alpha 90.000000
_cell_angle_beta 90.000000
_cell_angle_gamma 90.000000
_cell_volume 3537.294523
_symmetry_space_group_name_H-M "C C C A"
_symmetry_group_IT_number 68
_space_group.IT_coordinate_system_code '2'
_symmetry_cell_setting 'orthorhombic'
loop_
_space_group_symop_operation_xyz
x,y,z
-x,1/2-y,z
x,1/2-y,1/2-z
-x,y,1/2-z
-x,-y,-z
x,1/2+y,-z
-x,1/2+y,1/2+z
x,-y,1/2+z
1/2+x,1/2+y,z
1/2-x,-y,z
1/2+x,-y,1/2-z
1/2-x,1/2+y,1/2-z
1/2-x,1/2-y,-z
1/2+x,y,-z
1/2-x,y,1/2+z
1/2+x,1/2-y,1/2+z
loop_
_atom_site_type_symbol
_atom_site_label
_atom_site_fract_x
_atom_site_fract_y
_atom_site_fract_z
Si Si1 0.744370 0.629423 0.685128
Si Si2 0.243939 0.776848 0.664401
Si Si3 0.253962 0.594198 0.171725
Si Si4 0.931719 0.201358 0.477350
Si Si5 0.250000 0.000000 0.793273
O O1 0.735354 0.679187 0.702653
O O2 0.749309 0.603564 0.751624
O O3 0.498005 0.615779 0.648036
O O4 0.995260 0.616680 0.649134
O O5 0.500000 0.750000 0.666837
O O6 0.000000 0.750000 0.682034
O O7 0.179837 0.793408 0.593091
O O8 0.255901 0.543381 0.166009
O O9 0.207885 0.181646 0.481315
O O10 0.000000 0.250000 0.499583
O O11 0.500000 0.999216 0.750000
#
# Coordination Sequence:
#
# PCOD9505968 Si02
#       5
#    16  16  16  16   8
#     4  10  19  32  44  62  90 118 150 184 220 253
#     4  11  21  32  45  63  87 121 157 186 217 255
#     4  10  19  32  47  66  89 119 143 180 226 260
#     4   9  16  28  46  64  81 104 142 188 229 265
#     4  12  16  30  52  72  84 110 150 178 222 284
#
# _framework density 20.35454
#
# number of rings (size 3 to 8) (size 9 to 14) (size 15 to 20)
#    0.000    1.778    4.444    4.667    0.000    0.000 
#    0.000   13.333    0.000    0.000    0.000    0.000 
#    0.000    0.000    0.000   34.000    0.000    0.000 
#
# Total GULP energy -200725.597853 kJ/mol
# GULP energy per Si atom -5575.711051 kJ/mol
# Density = 2.030821 g / cm^3
# Si number density = 20.354540 Si / 1000 Ang^3
#
#
#
# Elastic Constant Matrix: (Units=GPa)
#
#
# Indices 1 2 3 4 5 6 
#
# 1 248.0171 60.3398 -0.6081 0.0000 0.0000 0.0000
# 2 60.3398 141.4226 -5.6257 0.0000 0.0000 0.0000
# 3 -0.6081 -5.6257 33.5916 0.0000 0.0000 0.0000
# 4 0.0000 0.0000 0.0000 1.2671 0.0000 0.0000
# 5 0.0000 0.0000 0.0000 0.0000 -13.8326 0.0000
# 6 0.0000 0.0000 0.0000 0.0000 0.0000 28.1424
#
#
#
# Elastic Compliance Matrix: (Units=1/GPa)
#
#
# Indices 1 2 3 4 5 6 
#
# 1 0.004501 -0.001930 -0.000242 0.000000 0.000000 0.000000
# 2 -0.001930 0.007946 0.001296 0.000000 0.000000 0.000000
# 3 -0.000242 0.001296 0.029982 0.000000 0.000000 0.000000
# 4 0.000000 0.000000 0.000000 0.789198 0.000000 0.000000
# 5 0.000000 0.000000 0.000000 0.000000 -0.072293 0.000000
# 6 0.000000 0.000000 0.000000 0.000000 0.000000 0.035534
#
#
# Mechanical properties :
#
#
# Convention : Reuss Voigt Hill
#
# Bulk Modulus (GPa) = 24.58387 59.02703 41.80545
# Shear Modulus (GPa) = 6.17148 27.71041 16.94095
#
# Velocity S-wave (km/s) = 1.74315 3.69370 2.88808
# Velocity P-wave (km/s) = 4.01939 6.87413 5.63068
#
# Compressibility (1/GPa) = 0.04067708
#
# Stress axis : x y z
#
# Youngs Moduli (GPa) = 222.17605 125.84930 33.35334
#
# Poissons Ratio (x) = 0.24289 0.00806
# Poissons Ratio (y) = 0.42880 -0.04322
# Poissons Ratio (z) = 0.05371 -0.16308
#
# Static dielectric constant tensor:
#      x y z
#    x 2.051660 0.000000 0.000000 
#    y 0.000000 1.714800 0.000000 
#    z 0.000000 0.000000 1.819080 
# 
# From -- ./inp_files/53131.got.cif
#   From: 2010.05.17/outbox.cif.g08.bks.cpg/sg68_27_cif.got.tgz:53131.got - 2010.06.03 18:57:09.
