data_PCOD9505893
_publ_section_title
;
Structure prediction by ZEFSAII (Michael W. Deem and Ramdas Pophale) SiO2 
 PCOD9505893
Probable space group: C C C A
;
_chemical_formula_sum "Si O2"
_cell_formula_units_Z 60
_cell_length_a 26.381274
_cell_length_b 4.857950
_cell_length_c 21.075708
_cell_angle_alpha 90.000000
_cell_angle_beta 90.000000
_cell_angle_gamma 90.000000
_cell_volume 2701.039765
_symmetry_space_group_name_H-M "C C C A"
_symmetry_group_IT_number 68
_space_group.IT_coordinate_system_code '2'
_symmetry_cell_setting 'orthorhombic'
loop_
_space_group_symop_operation_xyz
x,y,z
-x,1/2-y,z
x,1/2-y,1/2-z
-x,y,1/2-z
-x,-y,-z
x,1/2+y,-z
-x,1/2+y,1/2+z
x,-y,1/2+z
1/2+x,1/2+y,z
1/2-x,-y,z
1/2+x,-y,1/2-z
1/2-x,1/2+y,1/2-z
1/2-x,1/2-y,-z
1/2+x,y,-z
1/2-x,y,1/2+z
1/2+x,1/2-y,1/2+z
loop_
_atom_site_type_symbol
_atom_site_label
_atom_site_fract_x
_atom_site_fract_y
_atom_site_fract_z
Si Si1 0.750000 0.500000 0.203434
Si Si2 0.922835 0.400473 0.334362
Si Si3 0.000000 0.750000 0.250000
Si Si4 0.425236 0.390030 0.958333
Si Si5 0.143517 0.934947 0.140761
O O1 0.762944 0.250000 0.250000
O O2 0.798878 0.571354 0.161480
O O3 0.964629 0.550304 0.292105
O O4 0.947330 0.259414 0.396774
O O5 0.888796 0.138410 0.312993
O O6 0.883212 0.639341 0.354119
O O7 0.368131 0.436920 0.929123
O O8 0.437051 0.691941 0.983134
#
# Coordination Sequence:
#
# PCOD9505893 Si02
#       5
#     8  16   4  16  16
#     4  12  26  40  68  96 138 186 226 272 338 422
#     4  10  24  41  69  94 136 171 227 276 345 397
#     4  12  28  46  68  98 136 186 224 288 336 432
#     4  10  18  41  70  93 131 176 221 286 337 394
#     4  10  23  42  63 100 131 173 225 273 341 399
#
# _framework density 22.213667999999998
#
# number of rings (size 3 to 8) (size 9 to 14) (size 15 to 20)
#    1.600    0.000    2.667    1.600    5.600    2.133 
#    0.000    2.667    0.000    0.000    0.000    0.000 
#    0.000    0.000    0.000    0.000    0.000    0.000 
#
# Total GULP energy -167053.505410 kJ/mol
# GULP energy per Si atom -5568.450180 kJ/mol
# Density = 2.216311 g / cm^3
# Si number density = 22.213668 Si / 1000 Ang^3
#
#
#
# Elastic Constant Matrix: (Units=GPa)
#
#
# Indices 1 2 3 4 5 6 
#
# 1 143.8487 11.6423 24.1157 0.0000 0.0000 0.0000
# 2 11.6423 89.1235 -14.1656 0.0000 0.0000 0.0000
# 3 24.1157 -14.1656 35.8993 0.0000 0.0000 0.0000
# 4 0.0000 0.0000 0.0000 -81.3346 0.0000 0.0000
# 5 0.0000 0.0000 0.0000 0.0000 -133.8924 0.0000
# 6 0.0000 0.0000 0.0000 0.0000 0.0000 15.0471
#
#
#
# Elastic Compliance Matrix: (Units=1/GPa)
#
#
# Indices 1 2 3 4 5 6 
#
# 1 0.008177 -0.002071 -0.006310 0.000000 0.000000 0.000000
# 2 -0.002071 0.012496 0.006322 0.000000 0.000000 0.000000
# 3 -0.006310 0.006322 0.034590 0.000000 0.000000 0.000000
# 4 0.000000 0.000000 0.000000 -0.012295 0.000000 0.000000
# 5 0.000000 0.000000 0.000000 0.000000 -0.007469 0.000000
# 6 0.000000 0.000000 0.000000 0.000000 0.000000 0.066458
#
#
# Mechanical properties :
#
#
# Convention : Reuss Voigt Hill
#
# Bulk Modulus (GPa) = 19.55281 34.67290 27.11285
# Shear Modulus (GPa) = 40.60944 -23.55071 8.52936
#
# Velocity S-wave (km/s) = 4.28030 -3.25959 1.96164
# Velocity P-wave (km/s) = 5.76621 1.21497 4.16686
#
# Compressibility (1/GPa) = 0.05114354
#
# Stress axis : x y z
#
# Youngs Moduli (GPa) = 122.28952 80.02675 28.91047
#
# Poissons Ratio (x) = 0.16575 0.18244
# Poissons Ratio (y) = 0.25329 -0.18278
# Poissons Ratio (z) = 0.77171 -0.50594
#
# Static dielectric constant tensor:
#      x y z
#    x 1.806190 0.000000 0.000000 
#    y 0.000000 1.803470 0.000000 
#    z 0.000000 0.000000 1.937720 
# 
# From -- ./inp_files/40584.got.cif
#   From: 2010.05.17/outbox.cif.g08.bks.cpg/sg68_21_cif.got.tgz:40584.got - 2010.06.03 18:57:09.
