data_PCOD9505402
_publ_section_title
;
Structure prediction by ZEFSAII (Michael W. Deem and Ramdas Pophale) SiO2 
 PCOD9505402
Probable space group: C C C A
;
_chemical_formula_sum "Si O2"
_cell_formula_units_Z 108
_cell_length_a 12.434071
_cell_length_b 20.365307
_cell_length_c 27.369519
_cell_angle_alpha 90.000000
_cell_angle_beta 90.000000
_cell_angle_gamma 90.000000
_cell_volume 6930.610134
_symmetry_space_group_name_H-M "C C C A"
_symmetry_group_IT_number 68
_space_group.IT_coordinate_system_code '2'
_symmetry_cell_setting 'orthorhombic'
loop_
_space_group_symop_operation_xyz
x,y,z
-x,1/2-y,z
x,1/2-y,1/2-z
-x,y,1/2-z
-x,-y,-z
x,1/2+y,-z
-x,1/2+y,1/2+z
x,-y,1/2+z
1/2+x,1/2+y,z
1/2-x,-y,z
1/2+x,-y,1/2-z
1/2-x,1/2+y,1/2-z
1/2-x,1/2-y,-z
1/2+x,y,-z
1/2-x,y,1/2+z
1/2+x,1/2-y,1/2+z
loop_
_atom_site_type_symbol
_atom_site_label
_atom_site_fract_x
_atom_site_fract_y
_atom_site_fract_z
Si Si1 0.500000 0.250000 0.946778
Si Si2 0.287615 0.807623 0.406919
Si Si3 0.691785 0.432171 0.038226
Si Si4 0.500000 0.750000 0.750000
Si Si5 0.353863 0.045891 0.926319
Si Si6 0.914327 0.696006 0.344945
Si Si7 0.521065 0.925045 0.591330
Si Si8 0.637470 0.344759 0.491689
O O1 0.604084 0.267549 0.915079
O O2 0.540499 0.192210 0.982371
O O3 0.326998 0.883433 0.403846
O O4 0.206005 0.790296 0.363615
O O5 0.212586 0.801864 0.455586
O O6 0.750000 0.500000 0.050352
O O7 0.602315 0.415247 0.077423
O O8 0.636314 0.442178 0.984706
O O9 0.782609 0.377683 0.030204
O O10 0.569907 0.794081 0.712859
O O11 0.250000 0.000000 0.918998
O O12 0.450292 0.002108 0.904810
O O13 0.945032 0.624034 0.365348
O O14 0.000000 0.750000 0.366153
O O15 0.589543 0.899823 0.544421
#
# Coordination Sequence:
#
# PCOD9505402 Si02
#       8
#     8  16  16   4  16  16  16  16
#     4  12  24  29  42  71 112 153 172 219 256 308
#     4  10  21  33  49  72 106 139 180 212 259 302
#     4  10  19  28  42  68 102 148 184 206 238 278
#     4   8  20  38  64  82  92 112 164 220 286 340
#     4  10  16  33  46  71 100 142 185 207 232 285
#     4   9  20  36  56  81  93 121 165 225 270 321
#     4  11  19  30  51  69 102 135 179 222 246 297
#     4  10  20  30  43  64 102 149 189 212 239 282
#
# _framework density 15.583043999999999
#
# number of rings (size 3 to 8) (size 9 to 14) (size 15 to 20)
#    0.444    1.481    5.926    2.667    8.296    0.000 
#    0.000    0.000    0.000    0.444    3.852    0.000 
#    0.000    0.000    0.000    0.000    0.000    0.000 
#
# Total GULP energy -300759.868012 kJ/mol
# GULP energy per Si atom -5569.627185 kJ/mol
# Density = 1.554758 g / cm^3
# Si number density = 15.583044 Si / 1000 Ang^3
#
#
#
# Elastic Constant Matrix: (Units=GPa)
#
#
# Indices 1 2 3 4 5 6 
#
# 1 88.2763 16.7379 38.8534 0.0000 0.0000 0.0000
# 2 16.7379 48.5157 20.5205 0.0000 0.0000 0.0000
# 3 38.8534 20.5205 52.4305 0.0000 0.0000 0.0000
# 4 0.0000 0.0000 0.0000 0.6759 0.0000 0.0000
# 5 0.0000 0.0000 0.0000 0.0000 -0.2888 0.0000
# 6 0.0000 0.0000 0.0000 0.0000 0.0000 24.0109
#
#
#
# Elastic Compliance Matrix: (Units=1/GPa)
#
#
# Indices 1 2 3 4 5 6 
#
# 1 0.016828 -0.000636 -0.012221 0.000000 0.000000 0.000000
# 2 -0.000636 0.024725 -0.009205 0.000000 0.000000 0.000000
# 3 -0.012221 -0.009205 0.031732 0.000000 0.000000 0.000000
# 4 0.000000 0.000000 0.000000 1.479508 0.000000 0.000000
# 5 0.000000 0.000000 0.000000 0.000000 -3.462603 0.000000
# 6 0.000000 0.000000 0.000000 0.000000 0.000000 0.041648
#
#
# Mechanical properties :
#
#
# Convention : Reuss Voigt Hill
#
# Bulk Modulus (GPa) = 34.29459 37.93844 36.11652
# Shear Modulus (GPa) = -2.75586 12.42031 4.83223
#
# Velocity S-wave (km/s) = -1.33129 2.82625 1.76286
# Velocity P-wave (km/s) = 4.43760 5.92023 5.23170
#
# Compressibility (1/GPa) = 0.02915912
#
# Stress axis : x y z
#
# Youngs Moduli (GPa) = 59.42617 40.44494 31.51399
#
# Poissons Ratio (x) = 0.02574 0.38513
# Poissons Ratio (y) = 0.03782 0.29010
# Poissons Ratio (z) = 0.72624 0.37231
#
# Static dielectric constant tensor:
#      x y z
#    x 1.557240 0.000000 0.000000 
#    y 0.000000 1.568090 0.000000 
#    z 0.000000 0.000000 1.488660 
# 
# From -- ./inp_files/50485.got.cif
#   From: 2010.05.17/outbox.cif.g08.bks.cpg/sg68_26_cif.got.tgz:50485.got - 2010.06.03 18:57:09.
