data_PCOD9505079
_publ_section_title
;
Structure prediction by ZEFSAII (Michael W. Deem and Ramdas Pophale) SiO2 
 PCOD9505079
Probable space group: C M M A
;
_chemical_formula_sum "Si O2"
_cell_formula_units_Z 112
_cell_length_a 14.657982
_cell_length_b 28.173393
_cell_length_c 17.232737
_cell_angle_alpha 90.000000
_cell_angle_beta 90.000000
_cell_angle_gamma 90.000000
_cell_volume 7116.518743
_symmetry_space_group_name_H-M "C M M A"
_symmetry_group_IT_number 67
_symmetry_cell_setting 'orthorhombic'
loop_
_space_group_symop_operation_xyz
x,y,z
-x,1/2-y,z
x,-y,-z
-x,1/2+y,-z
-x,-y,-z
x,1/2+y,-z
-x,y,z
x,1/2-y,z
1/2+x,1/2+y,z
1/2-x,-y,z
1/2+x,1/2-y,-z
1/2-x,y,-z
1/2-x,1/2-y,-z
1/2+x,y,-z
1/2-x,1/2+y,z
1/2+x,-y,z
loop_
_atom_site_type_symbol
_atom_site_label
_atom_site_fract_x
_atom_site_fract_y
_atom_site_fract_z
Si Si1 0.602397 0.442699 0.498605
Si Si2 0.259871 0.350716 0.703824
Si Si3 0.263785 0.692653 0.127016
Si Si4 0.606811 0.807313 0.597353
Si Si5 0.603656 0.807574 0.988059
Si Si6 0.249081 0.943616 0.370676
Si Si7 0.609238 0.193935 0.578015
O O1 0.596035 0.500000 0.500000
O O2 0.500000 0.423007 0.501934
O O3 0.666473 0.431980 0.571778
O O4 0.658543 0.431737 0.420818
O O5 0.271410 0.330715 0.789463
O O6 0.169329 0.329923 0.662776
O O7 0.255229 0.407669 0.700118
O O8 0.339674 0.332733 0.646469
O O9 0.264462 0.750000 0.135320
O O10 0.345517 0.679453 0.068108
O O11 0.170081 0.678986 0.082789
O O12 0.500000 0.818373 0.607616
O O13 0.615745 0.750000 0.599911
O O14 0.634524 0.822146 0.509531
O O15 0.500000 0.824852 0.982474
O O16 0.601396 0.750000 0.987367
O O17 0.250000 0.000000 0.354334
O O18 0.500000 0.189828 0.584477
O O19 0.632321 0.250000 0.583300
#
# Coordination Sequence:
#
# PCOD9505079 Si02
#       7
#    16  16  16  16  16  16  16
#     4   8  15  31  50  61  77 112 158 208 252 282
#     4  12  21  29  47  70  94 125 155 198 241 275
#     4   9  18  30  46  73  97 116 151 182 216 281
#     4   9  19  33  45  61  90 128 166 196 225 270
#     4   8  15  31  52  69  93 123 142 173 225 275
#     4   9  20  33  44  66  92 118 158 203 246 285
#     4   9  19  33  45  61  90 128 166 196 225 270
#
# _framework density 15.738032
#
# number of rings (size 3 to 8) (size 9 to 14) (size 15 to 20)
#    0.000    2.857    0.000    4.286    4.000    3.429 
#    0.000    2.857    0.000    0.000    0.000    2.000 
#    0.000    1.143    0.000    0.000    0.000    0.000 
#
# Total GULP energy -312257.452629 kJ/mol
# GULP energy per Si atom -5576.025940 kJ/mol
# Density = 1.570221 g / cm^3
# Si number density = 15.738032 Si / 1000 Ang^3
#
#
#
# Elastic Constant Matrix: (Units=GPa)
#
#
# Indices 1 2 3 4 5 6 
#
# 1 49.0858 -5.1117 -21.0670 0.0000 0.0000 0.0000
# 2 -5.1117 49.6921 12.0510 0.0000 0.0000 0.0000
# 3 -21.0670 12.0510 33.7690 0.0000 0.0000 0.0000
# 4 0.0000 0.0000 0.0000 19.7425 0.0000 0.0000
# 5 0.0000 0.0000 0.0000 0.0000 17.0127 0.0000
# 6 0.0000 0.0000 0.0000 0.0000 0.0000 0.4913
#
#
#
# Elastic Compliance Matrix: (Units=1/GPa)
#
#
# Indices 1 2 3 4 5 6 
#
# 1 0.027921 -0.001480 0.017947 0.000000 0.000000 0.000000
# 2 -0.001480 0.022109 -0.008813 0.000000 0.000000 0.000000
# 3 0.017947 -0.008813 0.043954 0.000000 0.000000 0.000000
# 4 0.000000 0.000000 0.000000 0.050652 0.000000 0.000000
# 5 0.000000 0.000000 0.000000 0.000000 0.058780 0.000000
# 6 0.000000 0.000000 0.000000 0.000000 0.000000 2.035347
#
#
# Mechanical properties :
#
#
# Convention : Reuss Voigt Hill
#
# Bulk Modulus (GPa) = 9.14990 11.58795 10.36892
# Shear Modulus (GPa) = 2.21250 17.22760 9.72005
#
# Velocity S-wave (km/s) = 1.18696 3.31214 2.48788
# Velocity P-wave (km/s) = 2.77579 4.69106 3.85428
#
# Compressibility (1/GPa) = 0.10929086
#
# Stress axis : x y z
#
# Youngs Moduli (GPa) = 35.81546 45.23039 22.75083
#
# Poissons Ratio (x) = 0.06695 -0.40831
# Poissons Ratio (y) = 0.05301 0.20051
# Poissons Ratio (z) = -0.64277 0.39863
#
# Static dielectric constant tensor:
#      x y z
#    x 1.556620 0.000000 0.000000 
#    y 0.000000 1.546810 0.000000 
#    z 0.000000 0.000000 1.485740 
# 
# From -- ./inp_files/27852.got.cif
#   From: 2010.05.17/outbox.cif.g08.bks.cpg/sg67_14_cif.got.tgz:27852.got - 2010.06.03 18:28:57.
