data_PCOD9505342
_publ_section_title
;
Structure prediction by ZEFSAII (Michael W. Deem and Ramdas Pophale) SiO2 
 PCOD9505342
Probable space group: C C C A
;
_chemical_formula_sum "Si O2"
_cell_formula_units_Z 48
_cell_length_a 13.825919
_cell_length_b 4.944428
_cell_length_c 30.053803
_cell_angle_alpha 90.000000
_cell_angle_beta 90.000000
_cell_angle_gamma 90.000000
_cell_volume 2054.515872
_symmetry_space_group_name_H-M "C C C A"
_symmetry_group_IT_number 68
_space_group.IT_coordinate_system_code '2'
_symmetry_cell_setting 'orthorhombic'
loop_
_space_group_symop_operation_xyz
x,y,z
-x,1/2-y,z
x,1/2-y,1/2-z
-x,y,1/2-z
-x,-y,-z
x,1/2+y,-z
-x,1/2+y,1/2+z
x,-y,1/2+z
1/2+x,1/2+y,z
1/2-x,-y,z
1/2+x,-y,1/2-z
1/2-x,1/2+y,1/2-z
1/2-x,1/2-y,-z
1/2+x,y,-z
1/2-x,y,1/2+z
1/2+x,1/2-y,1/2+z
loop_
_atom_site_type_symbol
_atom_site_label
_atom_site_fract_x
_atom_site_fract_y
_atom_site_fract_z
Si Si1 0.178454 0.250000 0.750000
Si Si2 0.000000 0.750000 0.966479
Si Si3 0.134060 0.487051 0.108353
Si Si4 0.867000 0.991970 0.338645
O O1 0.250000 0.500000 0.735972
O O2 0.115328 0.134820 0.709441
O O3 0.913229 0.662922 0.933367
O O4 0.000000 0.500000 0.000000
O O5 0.250000 0.500000 0.102732
O O6 0.103129 0.789127 0.121795
O O7 0.106045 0.297028 0.150190
O O8 0.750000 0.000000 0.339759
#
# Coordination Sequence:
#
# PCOD9505342 Si02
#       4
#     8   8  16  16
#     4  10  16  26  50  87 122 151 194 232 262 327
#     4  12  26  42  62  85 108 143 192 248 306 360
#     4  10  21  38  59  83 114 150 188 233 292 353
#     4   9  17  31  54  84 117 154 189 228 277 333
#
# _framework density 23.363166
#
# number of rings (size 3 to 8) (size 9 to 14) (size 15 to 20)
#    0.000    2.000    0.000    7.000    0.000    1.333 
#    0.000    0.000    0.000    6.000    0.000    0.000 
#    0.000    0.000    0.000    0.000    0.000    0.000 
#
# Total GULP energy -133934.568355 kJ/mol
# GULP energy per Si atom -5580.607015 kJ/mol
# Density = 2.330999 g / cm^3
# Si number density = 23.363166 Si / 1000 Ang^3
#
#
#
# Elastic Constant Matrix: (Units=GPa)
#
#
# Indices 1 2 3 4 5 6 
#
# 1 106.8612 -6.8113 25.0347 0.0000 0.0000 0.0000
# 2 -6.8113 161.1844 57.7725 0.0000 0.0000 0.0000
# 3 25.0347 57.7725 149.4474 0.0000 0.0000 0.0000
# 4 0.0000 0.0000 0.0000 48.1151 0.0000 0.0000
# 5 0.0000 0.0000 0.0000 0.0000 40.4720 0.0000
# 6 0.0000 0.0000 0.0000 0.0000 0.0000 12.7642
#
#
#
# Elastic Compliance Matrix: (Units=1/GPa)
#
#
# Indices 1 2 3 4 5 6 
#
# 1 0.009930 0.001179 -0.002119 0.000000 0.000000 0.000000
# 2 0.001179 0.007342 -0.003036 0.000000 0.000000 0.000000
# 3 -0.002119 -0.003036 0.008220 0.000000 0.000000 0.000000
# 4 0.000000 0.000000 0.000000 0.020783 0.000000 0.000000
# 5 0.000000 0.000000 0.000000 0.000000 0.024708 0.000000
# 6 0.000000 0.000000 0.000000 0.000000 0.000000 0.078344
#
#
# Mechanical properties :
#
#
# Convention : Reuss Voigt Hill
#
# Bulk Modulus (GPa) = 57.01297 63.27610 60.14454
# Shear Modulus (GPa) = 30.65125 43.03674 36.84399
#
# Velocity S-wave (km/s) = 3.62601 4.29660 3.97547
# Velocity P-wave (km/s) = 6.47970 7.19422 6.84629
#
# Compressibility (1/GPa) = 0.01753987
#
# Stress axis : x y z
#
# Youngs Moduli (GPa) = 100.70942 136.20277 121.65660
#
# Poissons Ratio (x) = -0.16061 0.25781
# Poissons Ratio (y) = -0.11875 0.36932
# Poissons Ratio (z) = 0.21342 0.41348
#
# Static dielectric constant tensor:
#      x y z
#    x 1.920760 0.000000 0.000000 
#    y 0.000000 1.856300 0.000000 
#    z 0.000000 0.000000 1.939810 
# 
# From -- ./inp_files/54996.got.cif
#   From: 2010.05.17/outbox.cif.g08.bks.cpg/sg68_28_cif.got.tgz:54996.got - 2010.06.03 18:57:09.
