data_PCOD9505970
_publ_section_title
;
Structure prediction by ZEFSAII (Michael W. Deem and Ramdas Pophale) SiO2 
 PCOD9505970
Probable space group: C C C A
;
_chemical_formula_sum "Si O2"
_cell_formula_units_Z 108
_cell_length_a 29.307740
_cell_length_b 34.852025
_cell_length_c 5.465335
_cell_angle_alpha 90.000000
_cell_angle_beta 90.000000
_cell_angle_gamma 90.000000
_cell_volume 5582.479467
_symmetry_space_group_name_H-M "C C C A"
_symmetry_group_IT_number 68
_space_group.IT_coordinate_system_code '2'
_symmetry_cell_setting 'orthorhombic'
loop_
_space_group_symop_operation_xyz
x,y,z
-x,1/2-y,z
x,1/2-y,1/2-z
-x,y,1/2-z
-x,-y,-z
x,1/2+y,-z
-x,1/2+y,1/2+z
x,-y,1/2+z
1/2+x,1/2+y,z
1/2-x,-y,z
1/2+x,-y,1/2-z
1/2-x,1/2+y,1/2-z
1/2-x,1/2-y,-z
1/2+x,y,-z
1/2-x,y,1/2+z
1/2+x,1/2-y,1/2+z
loop_
_atom_site_type_symbol
_atom_site_label
_atom_site_fract_x
_atom_site_fract_y
_atom_site_fract_z
Si Si1 0.314926 0.522368 0.130669
Si Si2 0.221680 0.390344 0.135452
Si Si3 0.000000 0.115981 0.750000
Si Si4 0.040185 0.315305 0.059993
Si Si5 0.123653 0.864013 0.880833
Si Si6 0.000000 0.750000 0.250000
Si Si7 0.904349 0.092804 0.616467
Si Si8 0.913763 0.493176 0.870026
O O1 0.301589 0.500213 0.879925
O O2 0.296628 0.565566 0.133074
O O3 0.370340 0.521760 0.130106
O O4 0.250630 0.385198 0.887459
O O5 0.178144 0.362092 0.132070
O O6 0.959369 0.092596 0.631171
O O7 0.023085 0.144968 0.559523
O O8 0.091651 0.326000 0.134849
O O9 0.000000 0.306763 0.250000
O O10 0.034437 0.279195 0.884533
O O11 0.109605 0.888134 0.638989
O O12 0.113608 0.884775 0.143168
O O13 0.890912 0.048698 0.628272
O O14 0.939909 0.500280 0.119766
#
# Coordination Sequence:
#
# PCOD9505970 Si02
#       8
#    16  16   8  16  16   4  16  16
#     4  10  19  33  50  71 102 144 191 255 330 380
#     4  12  25  39  55  83 113 152 212 267 309 359
#     4   9  20  33  56  88 118 160 204 248 284 366
#     4  10  19  38  61  98 133 163 190 227 290 359
#     4  11  22  38  63  85 121 166 200 246 306 359
#     4  10  22  36  64 106 148 156 182 236 266 360
#     4  11  20  36  58  81 113 154 211 256 311 372
#     4  10  19  32  49  70 100 143 197 254 322 373
#
# _framework density 19.346242
#
# number of rings (size 3 to 8) (size 9 to 14) (size 15 to 20)
#    0.000    1.481    1.481    6.444    0.000    1.778 
#    0.000    0.741    0.000    0.000    0.000    1.037 
#    0.000    0.000    0.000    0.000    0.000    0.000 
#
# Total GULP energy -301150.175536 kJ/mol
# GULP energy per Si atom -5576.855103 kJ/mol
# Density = 1.930221 g / cm^3
# Si number density = 19.346242 Si / 1000 Ang^3
#
#
#
# Elastic Constant Matrix: (Units=GPa)
#
#
# Indices 1 2 3 4 5 6 
#
# 1 120.2053 34.5962 39.1990 0.0000 0.0000 0.0000
# 2 34.5962 61.3341 38.7760 0.0000 0.0000 0.0000
# 3 39.1990 38.7760 160.4191 0.0000 0.0000 0.0000
# 4 0.0000 0.0000 0.0000 164.8092 0.0000 0.0000
# 5 0.0000 0.0000 0.0000 0.0000 20.9585 0.0000
# 6 0.0000 0.0000 0.0000 0.0000 0.0000 14.6313
#
#
#
# Elastic Compliance Matrix: (Units=1/GPa)
#
#
# Indices 1 2 3 4 5 6 
#
# 1 0.010154 -0.004909 -0.001295 0.000000 0.000000 0.000000
# 2 -0.004909 0.021618 -0.004026 0.000000 0.000000 0.000000
# 3 -0.001295 -0.004026 0.007523 0.000000 0.000000 0.000000
# 4 0.000000 0.000000 0.000000 0.006068 0.000000 0.000000
# 5 0.000000 0.000000 0.000000 0.000000 0.047713 0.000000
# 6 0.000000 0.000000 0.000000 0.000000 0.000000 0.068347
#
#
# Mechanical properties :
#
#
# Convention : Reuss Voigt Hill
#
# Bulk Modulus (GPa) = 53.08874 63.01123 58.04998
# Shear Modulus (GPa) = 26.57289 55.37229 40.97259
#
# Velocity S-wave (km/s) = 3.71015 5.35573 4.60701
# Velocity P-wave (km/s) = 6.77160 8.41939 7.64005
#
# Compressibility (1/GPa) = 0.01883639
#
# Stress axis : x y z
#
# Youngs Moduli (GPa) = 98.48187 46.25678 132.92294
#
# Poissons Ratio (x) = 0.22708 0.17208
# Poissons Ratio (y) = 0.48346 0.53515
# Poissons Ratio (z) = 0.12749 0.18623
#
# Static dielectric constant tensor:
#      x y z
#    x 1.768630 0.000000 0.000000 
#    y 0.000000 1.634630 0.000000 
#    z 0.000000 0.000000 1.770030 
# 
# From -- ./inp_files/2966.got.cif
#   From: 2010.05.17/outbox.cif.g08.bks.cpg/sg68_2_cif.got.tgz:2966.got - 2010.06.03 18:57:09.
