data_PCOD9505208
_publ_section_title
;
Structure prediction by ZEFSAII (Michael W. Deem and Ramdas Pophale) SiO2 
 PCOD9505208
Probable space group: C M M A
;
_chemical_formula_sum "Si O2"
_cell_formula_units_Z 48
_cell_length_a 21.000000
_cell_length_b 9.000000
_cell_length_c 27.000000
_cell_angle_alpha 90.000000
_cell_angle_beta 90.000000
_cell_angle_gamma 90.000000
_cell_volume 5103.000000
_symmetry_space_group_name_H-M "C M M A"
_symmetry_group_IT_number 67
_symmetry_cell_setting 'orthorhombic'
loop_
_space_group_symop_operation_xyz
x,y,z
-x,1/2-y,z
x,-y,-z
-x,1/2+y,-z
-x,-y,-z
x,1/2+y,-z
-x,y,z
x,1/2-y,z
1/2+x,1/2+y,z
1/2-x,-y,z
1/2+x,1/2-y,-z
1/2-x,y,-z
1/2-x,1/2-y,-z
1/2+x,y,-z
1/2-x,1/2+y,z
1/2+x,-y,z
loop_
_atom_site_type_symbol
_atom_site_label
_atom_site_fract_x
_atom_site_fract_y
_atom_site_fract_z
Si Si1 0.427880 0.577842 0.276249
Si Si2 0.570069 0.427954 0.946757
Si Si3 0.311719 0.074617 0.227164
Si Si4 0.930407 0.921085 0.378345
Si Si5 0.311172 0.075052 0.446726
Si Si6 0.812069 0.928261 0.880622
O O1 0.500000 0.554684 0.257435
O O2 0.410802 0.750000 0.267594
O O3 0.376609 0.469101 0.253283
O O4 0.428481 0.537213 0.333968
O O5 0.500000 0.469926 0.928022
O O6 0.571953 0.250000 0.952123
O O7 0.625342 0.471204 0.910034
O O8 0.579055 0.500000 0.000000
O O9 0.302728 0.250000 0.223325
O O10 0.250000 0.000000 0.252521
O O11 0.315875 0.998521 0.173525
O O12 0.924019 0.750000 0.359203
O O13 0.874110 0.948728 0.415657
O O14 0.000000 0.930272 0.402407
O O15 0.300294 0.250000 0.452247
O O16 0.318083 0.000000 0.500000
O O17 0.250000 0.000000 0.421790
O O18 0.806600 0.750000 0.877770
O O19 0.750000 0.000000 0.905331
#
# Coordination Sequence:
#
# PCOD9505208 Si02
#       6
#    16  16  16  16  16  16
#     4  10  21  37  57  81 109 141 177 218 264 315
#     4   9  19  35  54  76 103 136 173 214 259 307
#     4  11  22  37  57  80 108 141 178 220 266 316
#     4   9  19  36  55  76 104 138 176 217 261 309
#     4  10  20  34  53  76 104 137 172 214 260 309
#     4  10  20  35  54  77 106 138 174 216 262 312
#
# _framework density 9.4062319999999993
#
# number of rings (size 3 to 8) (size 9 to 14) (size 15 to 20)
#    0.000    2.167    0.000    4.500    0.000    5.667 
#    0.000    5.000    0.000    0.000    0.000    0.000 
#    0.000    0.000    0.000    0.000    0.000    0.000 
#
# Total GULP energy -267548.018214 kJ/mol
# GULP energy per Si atom -5573.917046 kJ/mol
# Density = 0.938482 g / cm^3
# Si number density = 9.406232 Si / 1000 Ang^3
#
#
#
# Elastic Constant Matrix: (Units=GPa)
#
#
# Indices 1 2 3 4 5 6 
#
# 1 131.7647 62.5783 61.7744 0.0000 0.0000 0.0000
# 2 62.5783 65.8899 19.1594 0.0000 0.0000 0.0000
# 3 61.7744 19.1594 27.3118 0.0000 0.0000 0.0000
# 4 0.0000 0.0000 0.0000 23.0223 0.0000 0.0000
# 5 0.0000 0.0000 0.0000 0.0000 26.7124 0.0000
# 6 0.0000 0.0000 0.0000 0.0000 0.0000 24.0448
#
#
#
# Elastic Compliance Matrix: (Units=1/GPa)
#
#
# Indices 1 2 3 4 5 6 
#
# 1 -0.066587 0.024430 0.133470 0.000000 0.000000 0.000000
# 2 0.024430 0.010103 -0.062344 0.000000 0.000000 0.000000
# 3 0.133470 -0.062344 -0.221537 0.000000 0.000000 0.000000
# 4 0.000000 0.000000 0.000000 0.043436 0.000000 0.000000
# 5 0.000000 0.000000 0.000000 0.000000 0.037436 0.000000
# 6 0.000000 0.000000 0.000000 0.000000 0.000000 0.041589
#
#
# Mechanical properties :
#
#
# Convention : Reuss Voigt Hill
#
# Bulk Modulus (GPa) = -11.50642 56.88781 22.69070
# Shear Modulus (GPa) = -13.31053 20.18618 3.43782
#
# Velocity S-wave (km/s) = -2.66284 3.27925 1.35329
# Velocity P-wave (km/s) = 3.94765 6.68155 3.81177
#
# Compressibility (1/GPa) = -0.08690800
#
# Stress axis : x y z
#
# Youngs Moduli (GPa) = -15.01790 98.98355 -4.51393
#
# Poissons Ratio (x) = -2.41820 0.60247
# Poissons Ratio (y) = 0.36689 -0.28142
# Poissons Ratio (z) = 2.00444 6.17102
#
# Static dielectric constant tensor:
#      x y z
#    x 1.686110 0.000000 0.000000 
#    y 0.000000 1.639070 0.000000 
#    z 0.000000 0.000000 1.635820 
# 
# From -- ./inp_files/44602.got.cif
#   From: 2010.05.17/outbox.ucp.g08.bks.cvg/sg67_23_cif.got.tgz:44602.got - 2010.06.11 16:47:20.
