data_PCOD9505811
_publ_section_title
;
Structure prediction by ZEFSAII (Michael W. Deem and Ramdas Pophale) SiO2 
 PCOD9505811
Probable space group: C C C A
;
_chemical_formula_sum "Si O2"
_cell_formula_units_Z 104
_cell_length_a 18.226614
_cell_length_b 9.266709
_cell_length_c 29.276425
_cell_angle_alpha 90.000000
_cell_angle_beta 90.000000
_cell_angle_gamma 90.000000
_cell_volume 4944.809496
_symmetry_space_group_name_H-M "C C C A"
_symmetry_group_IT_number 68
_space_group.IT_coordinate_system_code '2'
_symmetry_cell_setting 'orthorhombic'
loop_
_space_group_symop_operation_xyz
x,y,z
-x,1/2-y,z
x,1/2-y,1/2-z
-x,y,1/2-z
-x,-y,-z
x,1/2+y,-z
-x,1/2+y,1/2+z
x,-y,1/2+z
1/2+x,1/2+y,z
1/2-x,-y,z
1/2+x,-y,1/2-z
1/2-x,1/2+y,1/2-z
1/2-x,1/2-y,-z
1/2+x,y,-z
1/2-x,y,1/2+z
1/2+x,1/2-y,1/2+z
loop_
_atom_site_type_symbol
_atom_site_label
_atom_site_fract_x
_atom_site_fract_y
_atom_site_fract_z
Si Si1 0.683278 0.074248 0.941281
Si Si2 0.079760 0.286312 0.828266
Si Si3 0.000000 0.250000 0.524718
Si Si4 0.030935 0.493689 0.402982
Si Si5 0.621845 0.507873 0.379943
Si Si6 0.250000 0.000000 0.311875
Si Si7 0.186597 0.250000 0.750000
Si Si8 0.852453 0.363947 0.475701
O O1 0.699080 0.233258 0.959650
O O2 0.750000 0.000000 0.913300
O O3 0.602189 0.089887 0.919933
O O4 0.672229 0.959911 0.981987
O O5 0.065252 0.412853 0.862917
O O6 0.106377 0.152507 0.860021
O O7 0.135039 0.321905 0.788238
O O8 0.000000 0.250000 0.808154
O O9 0.999446 0.392121 0.558004
O O10 0.929310 0.287828 0.493089
O O11 0.958716 0.418349 0.382616
O O12 0.685013 0.556583 0.345258
O O13 0.645975 0.529261 0.432131
O O14 0.228899 0.869389 0.278718
#
# Coordination Sequence:
#
# PCOD9505811 Si02
#       8
#    16  16   8  16  16   8   8  16
#     4  11  25  38  55  87 127 173 218 259 306 357
#     4   9  18  36  66  94 118 155 208 269 306 387
#     4  10  18  36  60  91 124 171 216 260 296 348
#     4  10  19  38  62  91 128 161 218 261 306 364
#     4  10  20  37  62  90 122 163 206 254 321 362
#     4  10  24  42  68  92 128 158 202 260 324 396
#     4  10  21  42  64  98 119 160 200 258 338 385
#     4  11  23  37  60  85 127 172 218 262 302 371
#
# _framework density 21.032154999999999
#
# number of rings (size 3 to 8) (size 9 to 14) (size 15 to 20)
#    0.000    1.846    2.308    2.538    3.231    4.923 
#    4.154    0.000    0.000    0.000    0.000    0.000 
#    0.000    0.000    0.000    0.000    0.000    0.000 
#
# Total GULP energy -289707.800555 kJ/mol
# GULP energy per Si atom -5571.303857 kJ/mol
# Density = 2.098429 g / cm^3
# Si number density = 21.032155 Si / 1000 Ang^3
#
#
#
# Elastic Constant Matrix: (Units=GPa)
#
#
# Indices 1 2 3 4 5 6 
#
# 1 111.4827 30.4374 59.4132 0.0000 0.0000 0.0000
# 2 30.4374 22.5572 12.4739 0.0000 0.0000 0.0000
# 3 59.4132 12.4739 107.0650 0.0000 0.0000 0.0000
# 4 0.0000 0.0000 0.0000 8.9413 0.0000 0.0000
# 5 0.0000 0.0000 0.0000 0.0000 45.0162 0.0000
# 6 0.0000 0.0000 0.0000 0.0000 0.0000 25.8323
#
#
#
# Elastic Compliance Matrix: (Units=1/GPa)
#
#
# Indices 1 2 3 4 5 6 
#
# 1 0.019117 -0.021301 -0.008127 0.000000 0.000000 0.000000
# 2 -0.021301 0.071119 0.003534 0.000000 0.000000 0.000000
# 3 -0.008127 0.003534 0.013438 0.000000 0.000000 0.000000
# 4 0.000000 0.000000 0.000000 0.111840 0.000000 0.000000
# 5 0.000000 0.000000 0.000000 0.000000 0.022214 0.000000
# 6 0.000000 0.000000 0.000000 0.000000 0.000000 0.038711
#
#
# Mechanical properties :
#
#
# Convention : Reuss Voigt Hill
#
# Bulk Modulus (GPa) = 19.27228 49.52821 34.40025
# Shear Modulus (GPa) = 14.47087 25.20998 19.84043
#
# Velocity S-wave (km/s) = 2.62589 3.46589 3.07471
# Velocity P-wave (km/s) = 4.28682 6.29416 5.38486
#
# Compressibility (1/GPa) = 0.05188798
#
# Stress axis : x y z
#
# Youngs Moduli (GPa) = 52.31055 14.06085 74.41589
#
# Poissons Ratio (x) = 0.29951 0.60475
# Poissons Ratio (y) = 1.11426 -0.26302
# Poissons Ratio (z) = 0.42511 -0.04970
#
# Static dielectric constant tensor:
#      x y z
#    x 1.939970 0.000000 0.000000 
#    y 0.000000 1.775490 0.000000 
#    z 0.000000 0.000000 1.735100 
# 
# From -- ./inp_files/51471.got.cif
#   From: 2010.05.17/outbox.cif.g08.bks.cpg/sg68_26_cif.got.tgz:51471.got - 2010.06.03 18:57:09.
