data_PCOD9505768
_publ_section_title
;
Structure prediction by ZEFSAII (Michael W. Deem and Ramdas Pophale) SiO2 
 PCOD9505768
Probable space group: C C C A
;
_chemical_formula_sum "Si O2"
_cell_formula_units_Z 64
_cell_length_a 9.047086
_cell_length_b 16.403556
_cell_length_c 19.489868
_cell_angle_alpha 90.000000
_cell_angle_beta 90.000000
_cell_angle_gamma 90.000000
_cell_volume 2892.381813
_symmetry_space_group_name_H-M "C C C A"
_symmetry_group_IT_number 68
_space_group.IT_coordinate_system_code '2'
_symmetry_cell_setting 'orthorhombic'
loop_
_space_group_symop_operation_xyz
x,y,z
-x,1/2-y,z
x,1/2-y,1/2-z
-x,y,1/2-z
-x,-y,-z
x,1/2+y,-z
-x,1/2+y,1/2+z
x,-y,1/2+z
1/2+x,1/2+y,z
1/2-x,-y,z
1/2+x,-y,1/2-z
1/2-x,1/2+y,1/2-z
1/2-x,1/2-y,-z
1/2+x,y,-z
1/2-x,y,1/2+z
1/2+x,1/2-y,1/2+z
loop_
_atom_site_type_symbol
_atom_site_label
_atom_site_fract_x
_atom_site_fract_y
_atom_site_fract_z
Si Si1 0.868335 0.643244 0.382337
Si Si2 0.130772 0.688035 0.968616
Si Si3 0.830144 0.916966 0.727814
Si Si4 0.682728 0.666760 0.654543
O O1 0.900410 0.634737 0.463632
O O2 0.725417 0.599005 0.350296
O O3 0.845064 0.738704 0.363862
O O4 0.024989 0.621403 0.347616
O O5 0.202029 0.640852 0.905061
O O6 0.000000 0.750000 0.947387
O O7 0.250000 0.750000 0.000000
O O8 0.755966 0.846047 0.772671
O O9 0.000000 0.919565 0.750000
O O10 0.750000 0.000000 0.749309
#
# Coordination Sequence:
#
# PCOD9505768 Si02
#       4
#    16  16  16  16
#     4  10  20  39  62  93 125 159 196 251 307 358
#     4  10  18  34  61  96 128 157 193 250 308 359
#     4  12  27  42  60  83 122 166 209 255 304 367
#     4  10  21  37  64  92 126 157 199 250 305 362
#
# _framework density 22.127092999999999
#
# number of rings (size 3 to 8) (size 9 to 14) (size 15 to 20)
#    0.000    1.500    5.000    3.000    7.000    3.000 
#    0.000    1.250    0.000    6.000    0.000    0.000 
#    0.000    0.000    0.000    0.000    0.000    0.000 
#
# Total GULP energy -178352.127104 kJ/mol
# GULP energy per Si atom -5573.503972 kJ/mol
# Density = 2.207673 g / cm^3
# Si number density = 22.127093 Si / 1000 Ang^3
#
#
#
# Elastic Constant Matrix: (Units=GPa)
#
#
# Indices 1 2 3 4 5 6 
#
# 1 139.4875 6.2927 19.7089 0.0000 0.0000 0.0000
# 2 6.2927 30.0301 7.2972 0.0000 0.0000 0.0000
# 3 19.7089 7.2972 97.1059 0.0000 0.0000 0.0000
# 4 0.0000 0.0000 0.0000 7.1611 0.0000 0.0000
# 5 0.0000 0.0000 0.0000 0.0000 31.0050 0.0000
# 6 0.0000 0.0000 0.0000 0.0000 0.0000 21.2867
#
#
#
# Elastic Compliance Matrix: (Units=1/GPa)
#
#
# Indices 1 2 3 4 5 6 
#
# 1 0.007424 -0.001212 -0.001416 0.000000 0.000000 0.000000
# 2 -0.001212 0.034117 -0.002318 0.000000 0.000000 0.000000
# 3 -0.001416 -0.002318 0.010760 0.000000 0.000000 0.000000
# 4 0.000000 0.000000 0.000000 0.139644 0.000000 0.000000
# 5 0.000000 0.000000 0.000000 0.000000 0.032253 0.000000
# 6 0.000000 0.000000 0.000000 0.000000 0.000000 0.046978
#
#
# Mechanical properties :
#
#
# Convention : Reuss Voigt Hill
#
# Bulk Modulus (GPa) = 23.57935 37.02455 30.30195
# Shear Modulus (GPa) = 16.93759 27.44556 22.19157
#
# Velocity S-wave (km/s) = 2.76971 3.52569 3.17032
# Velocity P-wave (km/s) = 4.57251 5.77434 5.20821
#
# Compressibility (1/GPa) = 0.04240999
#
# Stress axis : x y z
#
# Youngs Moduli (GPa) = 134.70209 29.31090 92.94065
#
# Poissons Ratio (x) = 0.03551 0.13158
# Poissons Ratio (y) = 0.16321 0.21542
# Poissons Ratio (z) = 0.19070 0.06794
#
# Static dielectric constant tensor:
#      x y z
#    x 1.870220 0.000000 0.000000 
#    y 0.000000 1.837390 0.000000 
#    z 0.000000 0.000000 1.967330 
# 
# From -- ./inp_files/35756.got.cif
#   From: 2010.05.17/outbox.cif.g08.bks.cpg/sg68_18_cif.got.tgz:35756.got - 2010.06.03 18:57:09.
