data_PCOD9505138
_publ_section_title
;
Structure prediction by ZEFSAII (Michael W. Deem and Ramdas Pophale) SiO2 
 PCOD9505138
Probable space group: C M M A
;
_chemical_formula_sum "Si O2"
_cell_formula_units_Z 64
_cell_length_a 10.856719
_cell_length_b 14.433003
_cell_length_c 19.047780
_cell_angle_alpha 90.000000
_cell_angle_beta 90.000000
_cell_angle_gamma 90.000000
_cell_volume 2984.692990
_symmetry_space_group_name_H-M "C M M A"
_symmetry_group_IT_number 67
_symmetry_cell_setting 'orthorhombic'
loop_
_space_group_symop_operation_xyz
x,y,z
-x,1/2-y,z
x,-y,-z
-x,1/2+y,-z
-x,-y,-z
x,1/2+y,-z
-x,y,z
x,1/2-y,z
1/2+x,1/2+y,z
1/2-x,-y,z
1/2+x,1/2-y,-z
1/2-x,y,-z
1/2-x,1/2-y,-z
1/2+x,y,-z
1/2-x,1/2+y,z
1/2+x,-y,z
loop_
_atom_site_type_symbol
_atom_site_label
_atom_site_fract_x
_atom_site_fract_y
_atom_site_fract_z
Si Si1 0.245409 0.637173 0.841318
Si Si2 0.500000 0.862777 0.075039
Si Si3 0.135681 0.400229 0.462185
Si Si4 0.856862 0.360651 0.304491
Si Si5 0.500000 0.862908 0.912550
O O1 0.244723 0.750000 0.842063
O O2 0.226878 0.609655 0.760420
O O3 0.374617 0.607239 0.874305
O O4 0.125526 0.608455 0.886000
O O5 0.500000 0.750000 0.076382
O O6 0.500000 0.890939 0.993845
O O7 0.127145 0.500000 0.500000
O O8 0.250000 0.352339 0.500000
O O9 0.162271 0.407758 0.379466
O O10 0.000000 0.356845 0.468511
O O11 0.839967 0.250000 0.315617
O O12 0.000000 0.373871 0.283507
O O13 0.500000 0.750000 0.911600
#
# Coordination Sequence:
#
# PCOD9505138 Si02
#       5
#    16   8  16  16   8
#     4   9  15  24  36  54  82 117 156 191 224 264
#     4   9  14  22  36  52  76 118 162 190 221 266
#     4   9  18  33  51  69  89 116 148 189 234 278
#     4   9  16  28  46  65  89 123 158 189 227 279
#     4   9  16  22  32  54  84 116 154 196 229 258
#
# _framework density 21.442743
#
# number of rings (size 3 to 8) (size 9 to 14) (size 15 to 20)
#    0.000    3.000    1.250    0.750    0.000    3.500 
#    2.250    0.000    0.000    0.000    0.000    0.000 
#    0.000    0.000    0.000   27.000    0.000   12.000 
#
# Total GULP energy -178587.125621 kJ/mol
# GULP energy per Si atom -5580.847676 kJ/mol
# Density = 2.139394 g / cm^3
# Si number density = 21.442743 Si / 1000 Ang^3
#
#
#
# Elastic Constant Matrix: (Units=GPa)
#
#
# Indices 1 2 3 4 5 6 
#
# 1 203.8221 17.3915 115.5524 0.0000 0.0000 0.0000
# 2 17.3915 90.4004 29.1374 0.0000 0.0000 0.0000
# 3 115.5524 29.1374 211.5489 0.0000 0.0000 0.0000
# 4 0.0000 0.0000 0.0000 28.7927 0.0000 0.0000
# 5 0.0000 0.0000 0.0000 0.0000 -271.2749 0.0000
# 6 0.0000 0.0000 0.0000 0.0000 0.0000 -16.7582
#
#
#
# Elastic Compliance Matrix: (Units=1/GPa)
#
#
# Indices 1 2 3 4 5 6 
#
# 1 0.007108 -0.000121 -0.003866 0.000000 0.000000 0.000000
# 2 -0.000121 0.011578 -0.001528 0.000000 0.000000 0.000000
# 3 -0.003866 -0.001528 0.007049 0.000000 0.000000 0.000000
# 4 0.000000 0.000000 0.000000 0.034731 0.000000 0.000000
# 5 0.000000 0.000000 0.000000 0.000000 -0.003686 0.000000
# 6 0.000000 0.000000 0.000000 0.000000 0.000000 -0.059672
#
#
# Mechanical properties :
#
#
# Convention : Reuss Voigt Hill
#
# Bulk Modulus (GPa) = 68.00919 92.21487 80.11203
# Shear Modulus (GPa) = 383.41635 -28.93540 177.24048
#
# Velocity S-wave (km/s) = 13.38647 -3.67744 9.10148
# Velocity P-wave (km/s) = 16.45344 5.00671 12.16106
#
# Compressibility (1/GPa) = 0.01470390
#
# Stress axis : x y z
#
# Youngs Moduli (GPa) = 140.67977 86.37169 141.85950
#
# Poissons Ratio (x) = 0.01049 0.54843
# Poissons Ratio (y) = 0.01709 0.21681
# Poissons Ratio (z) = 0.54387 0.13200
#
# Static dielectric constant tensor:
#      x y z
#    x 1.791240 0.000000 0.000000 
#    y 0.000000 0.229070 0.000000 
#    z 0.000000 0.000000 1.731500 
# 
# From -- ./inp_files/25781.got.cif
#   From: 2010.05.17/outbox.cif.g08.bks.cpg/sg67_13_cif.got.tgz:25781.got - 2010.06.03 18:28:57.
