data_PCOD9505242
_publ_section_title
;
Structure prediction by ZEFSAII (Michael W. Deem and Ramdas Pophale) SiO2 
 PCOD9505242
Probable space group: C M M A
;
_chemical_formula_sum "Si O2"
_cell_formula_units_Z 48
_cell_length_a 21.000000
_cell_length_b 15.000000
_cell_length_c 15.000000
_cell_angle_alpha 90.000000
_cell_angle_beta 90.000000
_cell_angle_gamma 90.000000
_cell_volume 4725.000000
_symmetry_space_group_name_H-M "C M M A"
_symmetry_group_IT_number 67
_symmetry_cell_setting 'orthorhombic'
loop_
_space_group_symop_operation_xyz
x,y,z
-x,1/2-y,z
x,-y,-z
-x,1/2+y,-z
-x,-y,-z
x,1/2+y,-z
-x,y,z
x,1/2-y,z
1/2+x,1/2+y,z
1/2-x,-y,z
1/2+x,1/2-y,-z
1/2-x,y,-z
1/2-x,1/2-y,-z
1/2+x,y,-z
1/2-x,1/2+y,z
1/2+x,-y,z
loop_
_atom_site_type_symbol
_atom_site_label
_atom_site_fract_x
_atom_site_fract_y
_atom_site_fract_z
Si Si1 0.429868 0.408527 0.947191
Si Si2 0.234432 0.750000 0.162340
Si Si3 0.069819 0.586065 0.564412
Si Si4 0.200158 0.577720 0.265762
Si Si5 0.817146 0.846999 0.451670
Si Si6 0.659173 0.750000 0.008086
Si Si7 0.071066 0.995286 0.759985
O O1 0.500000 0.374275 0.969752
O O2 0.378729 0.338821 0.974490
O O3 0.427463 0.427991 0.842253
O O4 0.420938 0.500000 0.000000
O O5 0.232288 0.664709 0.225064
O O6 0.288067 0.750000 0.086195
O O7 0.175062 0.750000 0.095964
O O8 0.067497 0.500000 0.500000
O O9 0.128127 0.639760 0.524100
O O10 0.079284 0.555141 0.665907
O O11 0.000000 0.630052 0.558326
O O12 0.250000 0.500000 0.247775
O O13 0.186453 0.584281 0.371256
O O14 0.130310 0.560386 0.226020
O O15 0.826980 0.750000 0.409271
O O16 0.750000 0.849709 0.500000
O O17 0.000000 0.036984 0.758339
#
# Coordination Sequence:
#
# PCOD9505242 Si02
#       7
#    16   8  16  16  16   8  16
#     4  10  21  40  66  95 124 157 204 256 311 377
#     4  11  26  42  59  92 123 156 213 258 302 388
#     4  10  20  37  60  87 121 163 208 251 303 366
#     4  12  23  40  64  89 123 165 207 256 315 366
#     4  11  24  39  57  87 123 160 208 258 301 363
#     4  11  23  42  64  86 126 163 196 258 318 366
#     4  10  21  38  62  92 122 161 212 256 304 372
#
# _framework density 10.15873
#
# number of rings (size 3 to 8) (size 9 to 14) (size 15 to 20)
#    0.000    1.333    2.500    3.250    0.000    0.333 
#    1.500    2.917    0.000    0.000    0.000    0.000 
#    0.000    0.000    0.000    0.000    0.000    0.000 
#
# Total GULP energy -267629.521804 kJ/mol
# GULP energy per Si atom -5575.615038 kJ/mol
# Density = 1.013561 g / cm^3
# Si number density = 10.158730 Si / 1000 Ang^3
#
#
#
# Elastic Constant Matrix: (Units=GPa)
#
#
# Indices 1 2 3 4 5 6 
#
# 1 83.7438 44.1038 15.4530 0.0000 0.0000 0.0000
# 2 44.1038 52.3963 17.9778 0.0000 0.0000 0.0000
# 3 15.4530 17.9778 92.3494 0.0000 0.0000 0.0000
# 4 0.0000 0.0000 0.0000 16.5880 0.0000 0.0000
# 5 0.0000 0.0000 0.0000 0.0000 15.7313 0.0000
# 6 0.0000 0.0000 0.0000 0.0000 0.0000 33.5578
#
#
#
# Elastic Compliance Matrix: (Units=1/GPa)
#
#
# Indices 1 2 3 4 5 6 
#
# 1 0.021451 -0.018028 -0.000080 0.000000 0.000000 0.000000
# 2 -0.018028 0.035604 -0.003914 0.000000 0.000000 0.000000
# 3 -0.000080 -0.003914 0.011604 0.000000 0.000000 0.000000
# 4 0.000000 0.000000 0.000000 0.060285 0.000000 0.000000
# 5 0.000000 0.000000 0.000000 0.000000 0.063568 0.000000
# 6 0.000000 0.000000 0.000000 0.000000 0.000000 0.029799
#
#
# Mechanical properties :
#
#
# Convention : Reuss Voigt Hill
#
# Bulk Modulus (GPa) = 40.62881 42.61764 41.62323
# Shear Modulus (GPa) = 18.21104 23.23905 20.72504
#
# Velocity S-wave (km/s) = 2.99712 3.38568 3.19730
# Velocity P-wave (km/s) = 5.65839 6.02537 5.84476
#
# Compressibility (1/GPa) = 0.02461308
#
# Stress axis : x y z
#
# Youngs Moduli (GPa) = 46.61877 28.08712 86.17874
#
# Poissons Ratio (x) = 0.50637 0.00687
# Poissons Ratio (y) = 0.84046 0.33733
# Poissons Ratio (z) = 0.00372 0.10994
#
# Static dielectric constant tensor:
#      x y z
#    x 1.816740 0.000000 0.000000 
#    y 0.000000 1.768220 0.000000 
#    z 0.000000 0.000000 1.620660 
# 
# From -- ./inp_files/29333.got.cif
#   From: 2010.05.17/outbox.ucp.g08.bks.cvg/sg67_15_cif.got.tgz:29333.got - 2010.06.11 16:47:20.
