data_PCOD9505638
_publ_section_title
;
Structure prediction by ZEFSAII (Michael W. Deem and Ramdas Pophale) SiO2 
 PCOD9505638
Probable space group: C C C A
;
_chemical_formula_sum "Si O2"
_cell_formula_units_Z 64
_cell_length_a 38.918295
_cell_length_b 4.998745
_cell_length_c 13.701429
_cell_angle_alpha 90.000000
_cell_angle_beta 90.000000
_cell_angle_gamma 90.000000
_cell_volume 2665.512067
_symmetry_space_group_name_H-M "C C C A"
_symmetry_group_IT_number 68
_space_group.IT_coordinate_system_code '2'
_symmetry_cell_setting 'orthorhombic'
loop_
_space_group_symop_operation_xyz
x,y,z
-x,1/2-y,z
x,1/2-y,1/2-z
-x,y,1/2-z
-x,-y,-z
x,1/2+y,-z
-x,1/2+y,1/2+z
x,-y,1/2+z
1/2+x,1/2+y,z
1/2-x,-y,z
1/2+x,-y,1/2-z
1/2-x,1/2+y,1/2-z
1/2-x,1/2-y,-z
1/2+x,y,-z
1/2-x,y,1/2+z
1/2+x,1/2-y,1/2+z
loop_
_atom_site_type_symbol
_atom_site_label
_atom_site_fract_x
_atom_site_fract_y
_atom_site_fract_z
Si Si1 0.463023 0.224086 0.569875
Si Si2 0.681647 0.775641 0.134876
Si Si3 0.106932 0.092573 0.433641
Si Si4 0.719724 0.208611 0.367353
O O1 0.500000 0.250000 0.620984
O O2 0.462840 0.430043 0.477388
O O3 0.427753 0.313355 0.622076
O O4 0.687838 0.750000 0.250000
O O5 0.643066 0.866492 0.118361
O O6 0.686958 0.470872 0.102058
O O7 0.710151 0.991700 0.098653
O O8 0.106209 0.291765 0.527059
O O9 0.723286 0.250000 0.250000
O O10 0.750000 0.000000 0.394487
#
# Coordination Sequence:
#
# PCOD9505638 Si02
#       4
#    16  16  16  16
#     4   8  14  25  43  67  91 119 160 201 230 266
#     4  10  20  32  50  74  98 124 158 202 246 287
#     4  10  19  32  50  71  99 132 161 195 241 292
#     4  10  18  31  51  73  94 120 161 207 242 278
#
# _framework density 24.010397000000001
#
# number of rings (size 3 to 8) (size 9 to 14) (size 15 to 20)
#    0.000    2.500    0.000    4.500    0.000    0.000 
#    0.000    0.000    0.000   15.750    0.000    0.000 
#    0.000   26.000    0.000    0.000    0.000    4.500 
#
# Total GULP energy -178306.309221 kJ/mol
# GULP energy per Si atom -5572.072163 kJ/mol
# Density = 2.395575 g / cm^3
# Si number density = 24.010397 Si / 1000 Ang^3
#
#
#
# Elastic Constant Matrix: (Units=GPa)
#
#
# Indices 1 2 3 4 5 6 
#
# 1 187.2078 49.1439 8.5501 0.0000 0.0000 0.0000
# 2 49.1439 149.7404 0.0500 0.0000 0.0000 0.0000
# 3 8.5501 0.0500 60.9180 0.0000 0.0000 0.0000
# 4 0.0000 0.0000 0.0000 -0.2021 0.0000 0.0000
# 5 0.0000 0.0000 0.0000 0.0000 -133.7980 0.0000
# 6 0.0000 0.0000 0.0000 0.0000 0.0000 46.6751
#
#
#
# Elastic Compliance Matrix: (Units=1/GPa)
#
#
# Indices 1 2 3 4 5 6 
#
# 1 0.005886 -0.001932 -0.000825 0.000000 0.000000 0.000000
# 2 -0.001932 0.007312 0.000265 0.000000 0.000000 0.000000
# 3 -0.000825 0.000265 0.016531 0.000000 0.000000 0.000000
# 4 0.000000 0.000000 0.000000 -4.947277 0.000000 0.000000
# 5 0.000000 0.000000 0.000000 0.000000 -0.007474 0.000000
# 6 0.000000 0.000000 0.000000 0.000000 0.000000 0.021425
#
#
# Mechanical properties :
#
#
# Convention : Reuss Voigt Hill
#
# Bulk Modulus (GPa) = 40.40840 57.03934 48.72387
# Shear Modulus (GPa) = -1.02242 5.20981 2.09369
#
# Velocity S-wave (km/s) = -0.65326 1.47463 0.93482
# Velocity P-wave (km/s) = 4.03696 5.16788 4.63703
#
# Compressibility (1/GPa) = 0.02474733
#
# Stress axis : x y z
#
# Youngs Moduli (GPa) = 169.88369 136.76014 60.49227
#
# Poissons Ratio (x) = 0.26417 0.04988
# Poissons Ratio (y) = 0.32815 -0.01604
# Poissons Ratio (z) = 0.14008 -0.03626
#
# Static dielectric constant tensor:
#      x y z
#    x 2.078800 0.000000 0.000000 
#    y 0.000000 1.896410 0.000000 
#    z 0.000000 0.000000 1.901360 
# 
# From -- ./inp_files/41475.got.cif
#   From: 2010.05.17/outbox.cif.g08.bks.cpg/sg68_21_cif.got.tgz:41475.got - 2010.06.03 18:57:09.
