data_PCOD9505392
_publ_section_title
;
Structure prediction by ZEFSAII (Michael W. Deem and Ramdas Pophale) SiO2 
 PCOD9505392
Probable space group: C C C A
;
_chemical_formula_sum "Si O2"
_cell_formula_units_Z 84
_cell_length_a 23.250718
_cell_length_b 28.686542
_cell_length_c 5.334379
_cell_angle_alpha 90.000000
_cell_angle_beta 90.000000
_cell_angle_gamma 90.000000
_cell_volume 3557.938500
_symmetry_space_group_name_H-M "C C C A"
_symmetry_group_IT_number 68
_space_group.IT_coordinate_system_code '2'
_symmetry_cell_setting 'orthorhombic'
loop_
_space_group_symop_operation_xyz
x,y,z
-x,1/2-y,z
x,1/2-y,1/2-z
-x,y,1/2-z
-x,-y,-z
x,1/2+y,-z
-x,1/2+y,1/2+z
x,-y,1/2+z
1/2+x,1/2+y,z
1/2-x,-y,z
1/2+x,-y,1/2-z
1/2-x,1/2+y,1/2-z
1/2-x,1/2-y,-z
1/2+x,y,-z
1/2-x,y,1/2+z
1/2+x,1/2-y,1/2+z
loop_
_atom_site_type_symbol
_atom_site_label
_atom_site_fract_x
_atom_site_fract_y
_atom_site_fract_z
Si Si1 0.903954 0.179718 0.122391
Si Si2 0.727040 0.196949 0.719810
Si Si3 0.772904 0.446786 0.014198
Si Si4 0.904782 0.970116 0.061537
Si Si5 0.500000 0.250000 0.750000
Si Si6 0.938630 0.868954 0.144605
O O1 0.840216 0.199298 0.160209
O O2 0.954515 0.218384 0.094024
O O3 0.921062 0.154091 0.381944
O O4 0.899636 0.146210 0.880187
O O5 0.750185 0.250000 0.750000
O O6 0.760833 0.174598 0.488689
O O7 0.750000 0.500000 0.049988
O O8 0.736531 0.425332 0.787496
O O9 0.838973 0.451554 0.939174
O O10 0.941330 0.923825 0.094065
O O11 0.913766 0.003862 0.298315
O O12 0.000000 0.853850 0.250000
#
# Coordination Sequence:
#
# PCOD9505392 Si02
#       6
#    16  16  16  16   4  16
#     4  12  25  47  72 108 139 179 239 288 352 408
#     4  10  21  40  68  99 137 182 223 276 342 433
#     4  10  16  32  58  87 119 152 222 287 315 380
#     4  12  23  40  67  92 122 184 229 261 350 417
#     4  12  24  46  84 106 128 202 240 276 340 438
#     4  12  27  46  65 100 149 170 223 318 341 391
#
# _framework density 23.609176000000001
#
# number of rings (size 3 to 8) (size 9 to 14) (size 15 to 20)
#    0.000    0.762    6.667    2.286    0.000    2.286 
#    0.000    5.714    0.000    0.000    0.000    0.000 
#    0.000    0.000    0.000    0.000    0.000    0.000 
#
# Total GULP energy -234818.146990 kJ/mol
# GULP energy per Si atom -5590.908262 kJ/mol
# Density = 2.355544 g / cm^3
# Si number density = 23.609176 Si / 1000 Ang^3
#
#
#
# Elastic Constant Matrix: (Units=GPa)
#
#
# Indices 1 2 3 4 5 6 
#
# 1 68.3209 -0.9226 4.8118 0.0000 0.0000 0.0000
# 2 -0.9226 43.8309 33.6323 0.0000 0.0000 0.0000
# 3 4.8118 33.6323 182.8383 0.0000 0.0000 0.0000
# 4 0.0000 0.0000 0.0000 35.9702 0.0000 0.0000
# 5 0.0000 0.0000 0.0000 0.0000 -569.5348 0.0000
# 6 0.0000 0.0000 0.0000 0.0000 0.0000 8.2269
#
#
#
# Elastic Compliance Matrix: (Units=1/GPa)
#
#
# Indices 1 2 3 4 5 6 
#
# 1 0.014683 0.000705 -0.000516 0.000000 0.000000 0.000000
# 2 0.000705 0.026598 -0.004911 0.000000 0.000000 0.000000
# 3 -0.000516 -0.004911 0.006386 0.000000 0.000000 0.000000
# 4 0.000000 0.000000 0.000000 0.027801 0.000000 0.000000
# 5 0.000000 0.000000 0.000000 0.000000 -0.001756 0.000000
# 6 0.000000 0.000000 0.000000 0.000000 0.000000 0.121552
#
#
# Mechanical properties :
#
#
# Convention : Reuss Voigt Hill
#
# Bulk Modulus (GPa) = 26.16240 41.11478 33.63859
# Shear Modulus (GPa) = 22.99380 -87.90297 -32.45458
#
# Velocity S-wave (km/s) = 3.12418 -6.10847 -3.71166
# Velocity P-wave (km/s) = 4.91116 5.68319 2.02226
#
# Compressibility (1/GPa) = 0.03822280
#
# Stress axis : x y z
#
# Youngs Moduli (GPa) = 68.10749 37.59643 156.58539
#
# Poissons Ratio (x) = -0.02651 0.08081
# Poissons Ratio (y) = -0.04802 0.76902
# Poissons Ratio (z) = 0.03515 0.18464
#
# Static dielectric constant tensor:
#      x y z
#    x 1.866580 0.000000 0.000000 
#    y 0.000000 1.903930 0.000000 
#    z 0.000000 0.000000 2.002360 
# 
# From -- ./inp_files/2065.got.cif
#   From: 2010.05.17/outbox.cif.g08.bks.cpg/sg68_2_cif.got.tgz:2065.got - 2010.06.03 18:57:09.
