data_PCOD9505548
_publ_section_title
;
Structure prediction by ZEFSAII (Michael W. Deem and Ramdas Pophale) SiO2 
 PCOD9505548
Probable space group: C C C A
;
_chemical_formula_sum "Si O2"
_cell_formula_units_Z 80
_cell_length_a 15.607941
_cell_length_b 18.513784
_cell_length_c 11.652539
_cell_angle_alpha 90.000000
_cell_angle_beta 90.000000
_cell_angle_gamma 90.000000
_cell_volume 3367.141538
_symmetry_space_group_name_H-M "C C C A"
_symmetry_group_IT_number 68
_space_group.IT_coordinate_system_code '2'
_symmetry_cell_setting 'orthorhombic'
loop_
_space_group_symop_operation_xyz
x,y,z
-x,1/2-y,z
x,1/2-y,1/2-z
-x,y,1/2-z
-x,-y,-z
x,1/2+y,-z
-x,1/2+y,1/2+z
x,-y,1/2+z
1/2+x,1/2+y,z
1/2-x,-y,z
1/2+x,-y,1/2-z
1/2-x,1/2+y,1/2-z
1/2-x,1/2-y,-z
1/2+x,y,-z
1/2-x,y,1/2+z
1/2+x,1/2-y,1/2+z
loop_
_atom_site_type_symbol
_atom_site_label
_atom_site_fract_x
_atom_site_fract_y
_atom_site_fract_z
Si Si1 0.160173 0.306458 0.112786
Si Si2 0.500000 0.428593 0.250000
Si Si3 0.391004 0.956422 0.354858
Si Si4 0.750000 0.000000 0.459478
Si Si5 0.695089 0.348774 0.572119
Si Si6 0.501595 0.864886 0.503181
O O1 0.142983 0.378446 0.190003
O O2 0.235361 0.330186 0.026542
O O3 0.185376 0.224897 0.145067
O O4 0.069120 0.307343 0.042570
O O5 0.581813 0.480868 0.269753
O O6 0.486720 0.381968 0.363890
O O7 0.327703 0.984582 0.452729
O O8 0.476662 0.932913 0.422829
O O9 0.772211 0.072125 0.389600
O O10 0.601219 0.353970 0.516821
#
# Coordination Sequence:
#
# PCOD9505548 Si02
#       6
#    16   8  16   8  16  16
#     4   8  20  36  59  86 113 166 196 244 314 370
#     4  12  20  34  57  89 120 154 200 260 308 374
#     4   9  21  36  56  86 118 155 200 248 303 365
#     4  10  18  34  60  86 120 152 194 260 304 348
#     4  10  17  35  63  85 117 157 202 245 312 367
#     4  10  21  36  60  88 116 160 201 255 309 363
#
# _framework density 23.759025000000001
#
# number of rings (size 3 to 8) (size 9 to 14) (size 15 to 20)
#    1.200    1.200    2.000    1.200    0.000    0.000 
#    0.000    5.000    0.000    2.400    0.000    0.000 
#    0.000    0.000    0.000    0.000    0.000    0.000 
#
# Total GULP energy -222877.241516 kJ/mol
# GULP energy per Si atom -5571.931038 kJ/mol
# Density = 2.370495 g / cm^3
# Si number density = 23.759025 Si / 1000 Ang^3
#
#
#
# Elastic Constant Matrix: (Units=GPa)
#
#
# Indices 1 2 3 4 5 6 
#
# 1 149.3123 30.5534 20.0770 0.0000 0.0000 0.0000
# 2 30.5534 164.4536 29.5265 0.0000 0.0000 0.0000
# 3 20.0770 29.5265 58.6238 0.0000 0.0000 0.0000
# 4 0.0000 0.0000 0.0000 60.5338 0.0000 0.0000
# 5 0.0000 0.0000 0.0000 0.0000 22.5443 0.0000
# 6 0.0000 0.0000 0.0000 0.0000 0.0000 64.3716
#
#
#
# Elastic Compliance Matrix: (Units=1/GPa)
#
#
# Indices 1 2 3 4 5 6 
#
# 1 0.007161 -0.000979 -0.001960 0.000000 0.000000 0.000000
# 2 -0.000979 0.006819 -0.003099 0.000000 0.000000 0.000000
# 3 -0.001960 -0.003099 0.019290 0.000000 0.000000 0.000000
# 4 0.000000 0.000000 0.000000 0.016520 0.000000 0.000000
# 5 0.000000 0.000000 0.000000 0.000000 0.044357 0.000000
# 6 0.000000 0.000000 0.000000 0.000000 0.000000 0.015535
#
#
# Mechanical properties :
#
#
# Convention : Reuss Voigt Hill
#
# Bulk Modulus (GPa) = 47.18072 59.18928 53.18500
# Shear Modulus (GPa) = 38.81327 48.97212 43.89270
#
# Velocity S-wave (km/s) = 4.04619 4.54497 4.30282
# Velocity P-wave (km/s) = 6.45988 7.24629 6.86436
#
# Compressibility (1/GPa) = 0.02119510
#
# Stress axis : x y z
#
# Youngs Moduli (GPa) = 139.64300 146.64866 51.84027
#
# Poissons Ratio (x) = 0.14351 0.10159
# Poissons Ratio (y) = 0.13666 0.16067
# Poissons Ratio (z) = 0.27364 0.45451
#
# Static dielectric constant tensor:
#      x y z
#    x 1.860230 0.000000 0.000000 
#    y 0.000000 1.963900 0.000000 
#    z 0.000000 0.000000 1.959140 
# 
# From -- ./inp_files/31020.got.cif
#   From: 2010.05.17/outbox.cif.g08.bks.cpg/sg68_16_cif.got.tgz:31020.got - 2010.06.03 18:57:09.
