data_PCOD9505223
_publ_section_title
;
Structure prediction by ZEFSAII (Michael W. Deem and Ramdas Pophale) SiO2 
 PCOD9505223
Probable space group: C M M A
;
_chemical_formula_sum "Si O2"
_cell_formula_units_Z 52
_cell_length_a 27.000000
_cell_length_b 9.000000
_cell_length_c 21.000000
_cell_angle_alpha 90.000000
_cell_angle_beta 90.000000
_cell_angle_gamma 90.000000
_cell_volume 5103.000000
_symmetry_space_group_name_H-M "C M M A"
_symmetry_group_IT_number 67
_symmetry_cell_setting 'orthorhombic'
loop_
_space_group_symop_operation_xyz
x,y,z
-x,1/2-y,z
x,-y,-z
-x,1/2+y,-z
-x,-y,-z
x,1/2+y,-z
-x,y,z
x,1/2-y,z
1/2+x,1/2+y,z
1/2-x,-y,z
1/2+x,1/2-y,-z
1/2-x,y,-z
1/2-x,1/2-y,-z
1/2+x,y,-z
1/2-x,1/2+y,z
1/2+x,-y,z
loop_
_atom_site_type_symbol
_atom_site_label
_atom_site_fract_x
_atom_site_fract_y
_atom_site_fract_z
Si Si1 0.408679 0.918481 0.776418
Si Si2 0.663237 0.427686 0.936311
Si Si3 0.000000 0.570644 0.432566
Si Si4 0.697356 0.070089 0.570714
Si Si5 0.554181 0.072646 0.896185
Si Si6 0.704068 0.076931 0.187156
Si Si7 0.398330 0.425727 0.369255
O O1 0.421085 0.750000 0.797264
O O2 0.349294 0.934697 0.780688
O O3 0.417384 0.937054 0.702853
O O4 0.437010 0.029044 0.822738
O O5 0.663897 0.250000 0.938203
O O6 0.605620 0.480469 0.927761
O O7 0.694623 0.487802 0.877759
O O8 0.682808 0.500000 0.000000
O O9 0.000000 0.500000 0.500000
O O10 0.946990 0.522543 0.405620
O O11 0.000000 0.750000 0.429298
O O12 0.700426 0.250000 0.567699
O O13 0.689337 0.000000 0.500000
O O14 0.750000 0.000000 0.592845
O O15 0.650848 0.017052 0.613201
O O16 0.500000 0.014911 0.917381
O O17 0.553488 0.250000 0.903513
O O18 0.714514 0.250000 0.176044
O O19 0.750000 0.000000 0.221836
O O20 0.387747 0.250000 0.381689
#
# Coordination Sequence:
#
# PCOD9505223 Si02
#       7
#    16  16   8  16  16  16  16
#     4   9  20  36  56  81 110 142 182 227 273 326
#     4  10  20  35  54  78 109 142 180 227 274 327
#     4  10  22  38  58  82 116 156 193 236 285 336
#     4  11  22  38  60  85 113 148 187 234 286 341
#     4   9  19  35  54  77 108 144 180 224 276 324
#     4  10  20  36  56  80 108 143 181 223 274 330
#     4  10  21  38  58  85 117 152 193 238 285 339
#
# _framework density 10.190084000000001
#
# number of rings (size 3 to 8) (size 9 to 14) (size 15 to 20)
#    0.000    2.154    0.000    3.231    1.077    5.231 
#    0.000    3.077    0.000    0.000    0.000    0.000 
#    0.000    0.000    0.000    0.000    0.000    0.000 
#
# Total GULP energy -289913.280317 kJ/mol
# GULP energy per Si atom -5575.255391 kJ/mol
# Density = 1.016689 g / cm^3
# Si number density = 10.190084 Si / 1000 Ang^3
#
#
#
# Elastic Constant Matrix: (Units=GPa)
#
#
# Indices 1 2 3 4 5 6 
#
# 1 65.8152 15.8031 10.8843 0.0000 0.0000 0.0000
# 2 15.8031 57.6833 4.2012 0.0000 0.0000 0.0000
# 3 10.8843 4.2012 35.4602 0.0000 0.0000 0.0000
# 4 0.0000 0.0000 0.0000 20.3932 0.0000 0.0000
# 5 0.0000 0.0000 0.0000 0.0000 -27.3031 0.0000
# 6 0.0000 0.0000 0.0000 0.0000 0.0000 24.1250
#
#
#
# Elastic Compliance Matrix: (Units=1/GPa)
#
#
# Indices 1 2 3 4 5 6 
#
# 1 0.017009 -0.004317 -0.004710 0.000000 0.000000 0.000000
# 2 -0.004317 0.018583 -0.000877 0.000000 0.000000 0.000000
# 3 -0.004710 -0.000877 0.029750 0.000000 0.000000 0.000000
# 4 0.000000 0.000000 0.000000 0.049036 0.000000 0.000000
# 5 0.000000 0.000000 0.000000 0.000000 -0.036626 0.000000
# 6 0.000000 0.000000 0.000000 0.000000 0.000000 0.041451
#
#
# Mechanical properties :
#
#
# Convention : Reuss Voigt Hill
#
# Bulk Modulus (GPa) = 21.96062 24.52623 23.24342
# Shear Modulus (GPa) = 32.42799 11.98101 22.20450
#
# Velocity S-wave (km/s) = 3.99326 2.42725 3.30436
# Velocity P-wave (km/s) = 5.66218 4.46272 5.09785
#
# Compressibility (1/GPa) = 0.04553605
#
# Stress axis : x y z
#
# Youngs Moduli (GPa) = 58.79078 53.81388 33.61340
#
# Poissons Ratio (x) = 0.23231 0.15830
# Poissons Ratio (y) = 0.25380 0.02946
# Poissons Ratio (z) = 0.27688 0.04717
#
# Static dielectric constant tensor:
#      x y z
#    x 1.776810 0.000000 0.000000 
#    y 0.000000 1.698880 0.000000 
#    z 0.000000 0.000000 1.773750 
# 
# From -- ./inp_files/39972.got.cif
#   From: 2010.05.17/outbox.ucp.g08.bks.cvg/sg67_20_cif.got.tgz:39972.got - 2010.06.11 16:47:20.
