data_PCOD9505756
_publ_section_title
;
Structure prediction by ZEFSAII (Michael W. Deem and Ramdas Pophale) SiO2 
 PCOD9505756
Probable space group: C C C A
;
_chemical_formula_sum "Si O2"
_cell_formula_units_Z 128
_cell_length_a 22.362062
_cell_length_b 18.742839
_cell_length_c 15.308268
_cell_angle_alpha 90.000000
_cell_angle_beta 90.000000
_cell_angle_gamma 90.000000
_cell_volume 6416.131830
_symmetry_space_group_name_H-M "C C C A"
_symmetry_group_IT_number 68
_space_group.IT_coordinate_system_code '2'
_symmetry_cell_setting 'orthorhombic'
loop_
_space_group_symop_operation_xyz
x,y,z
-x,1/2-y,z
x,1/2-y,1/2-z
-x,y,1/2-z
-x,-y,-z
x,1/2+y,-z
-x,1/2+y,1/2+z
x,-y,1/2+z
1/2+x,1/2+y,z
1/2-x,-y,z
1/2+x,-y,1/2-z
1/2-x,1/2+y,1/2-z
1/2-x,1/2-y,-z
1/2+x,y,-z
1/2-x,y,1/2+z
1/2+x,1/2-y,1/2+z
loop_
_atom_site_type_symbol
_atom_site_label
_atom_site_fract_x
_atom_site_fract_y
_atom_site_fract_z
Si Si1 0.269926 0.182834 0.309954
Si Si2 0.077616 0.092488 0.655251
Si Si3 0.998826 0.167842 0.515436
Si Si4 0.279959 0.422242 0.342036
Si Si5 0.457558 0.961664 0.070488
Si Si6 0.271379 0.387260 0.531399
Si Si7 0.401780 0.135051 0.337460
Si Si8 0.348664 0.979718 0.945595
O O1 0.256616 0.250000 0.250000
O O2 0.258921 0.113915 0.247712
O O3 0.233261 0.176041 0.399413
O O4 0.340776 0.180450 0.332651
O O5 0.148194 0.075941 0.659037
O O6 0.067366 0.135552 0.743786
O O7 0.055756 0.137209 0.570401
O O8 0.044360 0.016121 0.650521
O O9 0.982818 0.117894 0.432721
O O10 0.945299 0.159075 0.585971
O O11 0.000000 0.250000 0.491714
O O12 0.250000 0.500000 0.354014
O O13 0.268141 0.374235 0.428067
O O14 0.500000 0.000000 0.000000
O O15 0.391445 0.963722 0.027719
O O16 0.327706 0.438652 0.552334
O O17 0.211787 0.433952 0.549144
O O18 0.382853 0.053477 0.362608
#
# Coordination Sequence:
#
# PCOD9505756 Si02
#       8
#    16  16  16  16  16  16  16  16
#     4  10  24  36  52  83 118 150 188 232 290 347
#     4  10  19  32  52  81 108 139 189 232 272 336
#     4  10  21  33  53  79 115 149 175 216 290 355
#     4  11  21  34  61  83 106 149 197 233 283 334
#     4   9  17  32  51  75 109 136 181 231 265 334
#     4  10  18  34  58  74 113 143 188 234 278 328
#     4   9  20  31  52  75 112 142 177 227 285 331
#     4   9  16  32  50  80  98 141 181 228 283 315
#
# _framework density 19.949715000000001
#
# number of rings (size 3 to 8) (size 9 to 14) (size 15 to 20)
#    0.000    2.250    2.500    0.375    8.750    1.000 
#    0.000    0.000    2.750    0.000    0.000    0.000 
#    0.000   17.000    0.000    0.000    0.000    0.000 
#
# Total GULP energy -356620.314048 kJ/mol
# GULP energy per Si atom -5572.192407 kJ/mol
# Density = 1.990431 g / cm^3
# Si number density = 19.949715 Si / 1000 Ang^3
#
#
#
# Elastic Constant Matrix: (Units=GPa)
#
#
# Indices 1 2 3 4 5 6 
#
# 1 49.6944 10.1390 -5.5779 0.0000 0.0000 0.0000
# 2 10.1390 69.4491 -5.7382 0.0000 0.0000 0.0000
# 3 -5.5779 -5.7382 48.6683 0.0000 0.0000 0.0000
# 4 0.0000 0.0000 0.0000 10.3148 0.0000 0.0000
# 5 0.0000 0.0000 0.0000 0.0000 6.7937 0.0000
# 6 0.0000 0.0000 0.0000 0.0000 0.0000 15.1265
#
#
#
# Elastic Compliance Matrix: (Units=1/GPa)
#
#
# Indices 1 2 3 4 5 6 
#
# 1 0.020943 -0.002887 0.002060 0.000000 0.000000 0.000000
# 2 -0.002887 0.014939 0.001430 0.000000 0.000000 0.000000
# 3 0.002060 0.001430 0.020952 0.000000 0.000000 0.000000
# 4 0.000000 0.000000 0.000000 0.096948 0.000000 0.000000
# 5 0.000000 0.000000 0.000000 0.000000 0.147195 0.000000
# 6 0.000000 0.000000 0.000000 0.000000 0.000000 0.066109
#
#
# Mechanical properties :
#
#
# Convention : Reuss Voigt Hill
#
# Bulk Modulus (GPa) = 17.22950 18.38417 17.80683
# Shear Modulus (GPa) = 12.97935 17.71293 15.34614
#
# Velocity S-wave (km/s) = 2.55346 2.98296 2.77653
# Velocity P-wave (km/s) = 4.16518 4.59340 4.38452
#
# Compressibility (1/GPa) = 0.05804000
#
# Stress axis : x y z
#
# Youngs Moduli (GPa) = 47.74793 66.94003 47.72812
#
# Poissons Ratio (x) = 0.19328 -0.09831
# Poissons Ratio (y) = 0.13786 -0.06827
# Poissons Ratio (z) = -0.09836 -0.09575
#
# Static dielectric constant tensor:
#      x y z
#    x 1.981750 0.000000 0.000000 
#    y 0.000000 1.750870 0.000000 
#    z 0.000000 0.000000 1.750160 
# 
# From -- ./inp_files/33786.got.cif
#   From: 2010.05.17/outbox.cif.g08.bks.cpg/sg68_17_cif.got.tgz:33786.got - 2010.06.03 18:57:09.
