data_PCOD9505393
_publ_section_title
;
Structure prediction by ZEFSAII (Michael W. Deem and Ramdas Pophale) SiO2 
 PCOD9505393
Probable space group: C C C A
;
_chemical_formula_sum "Si O2"
_cell_formula_units_Z 64
_cell_length_a 9.073220
_cell_length_b 25.749136
_cell_length_c 13.888553
_cell_angle_alpha 90.000000
_cell_angle_beta 90.000000
_cell_angle_gamma 90.000000
_cell_volume 3244.748968
_symmetry_space_group_name_H-M "C C C A"
_symmetry_group_IT_number 68
_space_group.IT_coordinate_system_code '2'
_symmetry_cell_setting 'orthorhombic'
loop_
_space_group_symop_operation_xyz
x,y,z
-x,1/2-y,z
x,1/2-y,1/2-z
-x,y,1/2-z
-x,-y,-z
x,1/2+y,-z
-x,1/2+y,1/2+z
x,-y,1/2+z
1/2+x,1/2+y,z
1/2-x,-y,z
1/2+x,-y,1/2-z
1/2-x,1/2+y,1/2-z
1/2-x,1/2-y,-z
1/2+x,y,-z
1/2-x,y,1/2+z
1/2+x,1/2-y,1/2+z
loop_
_atom_site_type_symbol
_atom_site_label
_atom_site_fract_x
_atom_site_fract_y
_atom_site_fract_z
Si Si1 0.488576 0.888685 0.476784
Si Si2 0.847756 0.950490 0.695994
Si Si3 0.212357 0.613674 0.366958
Si Si4 0.131508 0.714551 0.445510
O O1 0.395340 0.918811 0.397444
O O2 0.656594 0.894732 0.445071
O O3 0.437720 0.906879 0.583109
O O4 0.440627 0.828026 0.481299
O O5 0.758769 0.913734 0.769989
O O6 0.000000 0.965596 0.750000
O O7 0.750000 0.000000 0.672894
O O8 0.196358 0.676169 0.364125
O O9 0.250000 0.750000 0.500000
O O10 0.000000 0.750000 0.408166
#
# Coordination Sequence:
#
# PCOD9505393 Si02
#       4
#    16  16  16  16
#     4   9  19  35  58  81 112 146 189 231 281 343
#     4  10  22  40  57  81 115 151 192 243 288 339
#     4   9  19  35  58  81 114 145 190 230 280 346
#     4  10  16  32  59  80 109 146 179 228 280 330
#
# _framework density 19.724174999999999
#
# number of rings (size 3 to 8) (size 9 to 14) (size 15 to 20)
#    1.500    1.000    2.500    0.000    0.000    3.000 
#    0.000    6.250    0.000    1.500    0.000    0.000 
#    0.000    0.000    0.000    0.000    0.000    0.000 
#
# Total GULP energy -178145.505842 kJ/mol
# GULP energy per Si atom -5567.047058 kJ/mol
# Density = 1.967928 g / cm^3
# Si number density = 19.724175 Si / 1000 Ang^3
#
#
#
# Elastic Constant Matrix: (Units=GPa)
#
#
# Indices 1 2 3 4 5 6 
#
# 1 56.7679 35.5971 10.0323 0.0000 0.0000 0.0000
# 2 35.5971 80.5014 13.7923 0.0000 0.0000 0.0000
# 3 10.0323 13.7923 10.9963 0.0000 0.0000 0.0000
# 4 0.0000 0.0000 0.0000 13.1784 0.0000 0.0000
# 5 0.0000 0.0000 0.0000 0.0000 24.4006 0.0000
# 6 0.0000 0.0000 0.0000 0.0000 0.0000 44.0183
#
#
#
# Elastic Compliance Matrix: (Units=1/GPa)
#
#
# Indices 1 2 3 4 5 6 
#
# 1 0.025487 -0.009281 -0.011612 0.000000 0.000000 0.000000
# 2 -0.009281 0.019202 -0.015617 0.000000 0.000000 0.000000
# 3 -0.011612 -0.015617 0.121122 0.000000 0.000000 0.000000
# 4 0.000000 0.000000 0.000000 0.075881 0.000000 0.000000
# 5 0.000000 0.000000 0.000000 0.000000 0.040983 0.000000
# 6 0.000000 0.000000 0.000000 0.000000 0.000000 0.022718
#
#
# Mechanical properties :
#
#
# Convention : Reuss Voigt Hill
#
# Bulk Modulus (GPa) = 10.77689 29.67877 20.22783
# Shear Modulus (GPa) = 12.21466 22.24240 17.22853
#
# Velocity S-wave (km/s) = 2.49122 3.36173 2.95866
# Velocity P-wave (km/s) = 3.70818 5.49070 4.68500
#
# Compressibility (1/GPa) = 0.09279116
#
# Stress axis : x y z
#
# Youngs Moduli (GPa) = 39.23500 52.07874 8.25611
#
# Poissons Ratio (x) = 0.48333 0.09587
# Poissons Ratio (y) = 0.36413 0.12894
# Poissons Ratio (z) = 0.45561 0.81331
#
# Static dielectric constant tensor:
#      x y z
#    x 1.749450 0.000000 0.000000 
#    y 0.000000 1.693240 0.000000 
#    z 0.000000 0.000000 1.675870 
# 
# From -- ./inp_files/19213.got.cif
#   From: 2010.05.17/outbox.cif.g08.bks.cpg/sg68_10_cif.got.tgz:19213.got - 2010.06.03 18:57:09.
