data_PCOD9505599
_publ_section_title
;
Structure prediction by ZEFSAII (Michael W. Deem and Ramdas Pophale) SiO2 
 PCOD9505599
Probable space group: C C C A
;
_chemical_formula_sum "Si O2"
_cell_formula_units_Z 96
_cell_length_a 13.891816
_cell_length_b 18.573540
_cell_length_c 16.869647
_cell_angle_alpha 90.000000
_cell_angle_beta 90.000000
_cell_angle_gamma 90.000000
_cell_volume 4352.709695
_symmetry_space_group_name_H-M "C C C A"
_symmetry_group_IT_number 68
_space_group.IT_coordinate_system_code '2'
_symmetry_cell_setting 'orthorhombic'
loop_
_space_group_symop_operation_xyz
x,y,z
-x,1/2-y,z
x,1/2-y,1/2-z
-x,y,1/2-z
-x,-y,-z
x,1/2+y,-z
-x,1/2+y,1/2+z
x,-y,1/2+z
1/2+x,1/2+y,z
1/2-x,-y,z
1/2+x,-y,1/2-z
1/2-x,1/2+y,1/2-z
1/2-x,1/2-y,-z
1/2+x,y,-z
1/2-x,y,1/2+z
1/2+x,1/2-y,1/2+z
loop_
_atom_site_type_symbol
_atom_site_label
_atom_site_fract_x
_atom_site_fract_y
_atom_site_fract_z
Si Si1 0.128955 0.791082 0.581540
Si Si2 0.620706 0.426920 0.484845
Si Si3 0.678580 0.750000 0.250000
Si Si4 0.423873 0.040651 0.096820
Si Si5 0.500000 0.568971 0.750000
Si Si6 0.338823 0.339421 0.159627
Si Si7 0.859257 0.700445 0.063196
O O1 0.085528 0.861931 0.541574
O O2 0.118072 0.777695 0.674596
O O3 0.107957 0.723148 0.524874
O O4 0.243697 0.802715 0.568776
O O5 0.532043 0.460505 0.436902
O O6 0.645307 0.490219 0.545884
O O7 0.687041 0.390422 0.416677
O O8 0.750090 0.811717 0.213311
O O9 0.438646 0.022052 0.188286
O O10 0.395517 0.123920 0.090553
O O11 0.579295 0.619665 0.791831
O O12 0.383773 0.267390 0.120273
#
# Coordination Sequence:
#
# PCOD9505599 Si02
#       7
#    16  16   8  16   8  16  16
#     4   9  18  33  51  74 102 133 170 210 257 309
#     4   9  20  36  51  73 107 142 171 204 255 319
#     4  10  18  31  52  77 102 130 172 226 262 296
#     4  10  20  34  53  76 105 138 172 210 258 310
#     4  10  18  29  52  82 104 129 168 220 262 301
#     4   9  18  31  52  79 105 128 166 217 265 307
#     4   9  18  32  53  76 102 135 167 209 263 318
#
# _framework density 22.055226999999999
#
# number of rings (size 3 to 8) (size 9 to 14) (size 15 to 20)
#    0.000    2.667    0.000    3.000    0.000   10.333 
#    0.000    5.000    0.000    9.000    0.000    0.000 
#    0.000    0.000    0.000    0.000    0.000    0.000 
#
# Total GULP energy -267562.849733 kJ/mol
# GULP energy per Si atom -5574.226036 kJ/mol
# Density = 2.200503 g / cm^3
# Si number density = 22.055227 Si / 1000 Ang^3
#
#
#
# Elastic Constant Matrix: (Units=GPa)
#
#
# Indices 1 2 3 4 5 6 
#
# 1 34.5185 1.0275 7.4881 0.0000 0.0000 0.0000
# 2 1.0275 58.8125 39.7677 0.0000 0.0000 0.0000
# 3 7.4881 39.7677 158.7750 0.0000 0.0000 0.0000
# 4 0.0000 0.0000 0.0000 27.1948 0.0000 0.0000
# 5 0.0000 0.0000 0.0000 0.0000 8.5407 0.0000
# 6 0.0000 0.0000 0.0000 0.0000 0.0000 -22.0638
#
#
#
# Elastic Compliance Matrix: (Units=1/GPa)
#
#
# Indices 1 2 3 4 5 6 
#
# 1 0.029282 0.000508 -0.001508 0.000000 0.000000 0.000000
# 2 0.000508 0.020479 -0.005153 0.000000 0.000000 0.000000
# 3 -0.001508 -0.005153 0.007660 0.000000 0.000000 0.000000
# 4 0.000000 0.000000 0.000000 0.036772 0.000000 0.000000
# 5 0.000000 0.000000 0.000000 0.000000 0.117086 0.000000
# 6 0.000000 0.000000 0.000000 0.000000 0.000000 -0.045323
#
#
# Mechanical properties :
#
#
# Convention : Reuss Voigt Hill
#
# Bulk Modulus (GPa) = 22.16585 38.74142 30.45363
# Shear Modulus (GPa) = 25.86645 16.32251 21.09448
#
# Velocity S-wave (km/s) = 3.42834 2.72338 3.09599
# Velocity P-wave (km/s) = 5.07379 5.24336 5.15927
#
# Compressibility (1/GPa) = 0.04511445
#
# Stress axis : x y z
#
# Youngs Moduli (GPa) = 34.15062 48.83101 130.54729
#
# Poissons Ratio (x) = -0.02482 0.19691
# Poissons Ratio (y) = -0.01736 0.67274
# Poissons Ratio (z) = 0.05151 0.25164
#
# Static dielectric constant tensor:
#      x y z
#    x 1.848830 0.000000 0.000000 
#    y 0.000000 1.840630 0.000000 
#    z 0.000000 0.000000 1.908630 
# 
# From -- ./inp_files/32060.got.cif
#   From: 2010.05.17/outbox.cif.g08.bks.cpg/sg68_17_cif.got.tgz:32060.got - 2010.06.03 18:57:09.
