data_PCOD9505158
_publ_section_title
;
Structure prediction by ZEFSAII (Michael W. Deem and Ramdas Pophale) SiO2 
 PCOD9505158
Probable space group: C M M A
;
_chemical_formula_sum "Si O2"
_cell_formula_units_Z 52
_cell_length_a 27.000000
_cell_length_b 9.000000
_cell_length_c 27.000000
_cell_angle_alpha 90.000000
_cell_angle_beta 90.000000
_cell_angle_gamma 90.000000
_cell_volume 6561.000000
_symmetry_space_group_name_H-M "C M M A"
_symmetry_group_IT_number 67
_symmetry_cell_setting 'orthorhombic'
loop_
_space_group_symop_operation_xyz
x,y,z
-x,1/2-y,z
x,-y,-z
-x,1/2+y,-z
-x,-y,-z
x,1/2+y,-z
-x,y,z
x,1/2-y,z
1/2+x,1/2+y,z
1/2-x,-y,z
1/2+x,1/2-y,-z
1/2-x,y,-z
1/2-x,1/2-y,-z
1/2+x,y,-z
1/2-x,1/2+y,z
1/2+x,-y,z
loop_
_atom_site_type_symbol
_atom_site_label
_atom_site_fract_x
_atom_site_fract_y
_atom_site_fract_z
Si Si1 0.899097 0.926179 0.776042
Si Si2 0.000000 0.075893 0.286247
Si Si3 0.092371 0.570404 0.553803
Si Si4 0.801388 0.928853 0.715967
Si Si5 0.556184 0.419837 0.133636
Si Si6 0.698696 0.428053 0.599989
Si Si7 0.000000 0.426385 0.610245
Si Si8 0.000000 0.074755 0.052907
O O1 0.895013 0.750000 0.785912
O O2 0.949529 0.945827 0.744582
O O3 0.850399 0.973776 0.745933
O O4 0.906721 0.012534 0.827056
O O5 0.000000 0.250000 0.302980
O O6 0.000000 0.965464 0.332037
O O7 0.085753 0.500000 0.500000
O O8 0.088236 0.750000 0.553129
O O9 0.147674 0.531163 0.572866
O O10 0.049066 0.501995 0.587412
O O11 0.797707 0.750000 0.718376
O O12 0.806994 0.969609 0.657986
O O13 0.750000 0.000000 0.733968
O O14 0.500000 0.421776 0.156226
O O15 0.567594 0.250000 0.121195
O O16 0.547051 0.517049 0.084738
O O17 0.703791 0.250000 0.597018
O O18 0.750000 0.500000 0.581419
O O19 0.000000 0.250000 0.600928
O O20 0.000000 0.250000 0.049651
O O21 0.000000 0.000000 0.000000
#
# Coordination Sequence:
#
# PCOD9505158 Si02
#       8
#    16   8  16  16  16  16   8   8
#     4  10  18  30  50  71  97 133 169 201 241 293
#     4  10  19  32  51  73  97 126 158 196 241 288
#     4  11  23  40  58  75  97 124 153 188 234 286
#     4   9  18  32  49  71  95 126 164 196 235 284
#     4   9  18  29  42  66  99 131 166 206 247 289
#     4   9  19  36  57  77  99 124 153 193 237 285
#     4  12  25  38  53  74  98 125 159 196 233 280
#     4  10  17  28  45  65  95 135 175 212 253 298
#
# _framework density 7.9256209999999996
#
# number of rings (size 3 to 8) (size 9 to 14) (size 15 to 20)
#    0.462    1.692    0.769    3.231    0.000    5.231 
#    0.000    4.615    0.000    0.000    0.000    0.000 
#    0.000    0.615    0.000    6.462    0.000    3.538 
#
# Total GULP energy -289800.453556 kJ/mol
# GULP energy per Si atom -5573.085645 kJ/mol
# Density = 0.790758 g / cm^3
# Si number density = 7.925621 Si / 1000 Ang^3
#
#
#
# Elastic Constant Matrix: (Units=GPa)
#
#
# Indices 1 2 3 4 5 6 
#
# 1 68.1012 31.7983 6.4049 0.0000 0.0000 0.0000
# 2 31.7983 74.8720 40.1843 0.0000 0.0000 0.0000
# 3 6.4049 40.1843 44.8351 0.0000 0.0000 0.0000
# 4 0.0000 0.0000 0.0000 26.2993 0.0000 0.0000
# 5 0.0000 0.0000 0.0000 0.0000 110.1745 0.0000
# 6 0.0000 0.0000 0.0000 0.0000 0.0000 27.6841
#
#
#
# Elastic Compliance Matrix: (Units=1/GPa)
#
#
# Indices 1 2 3 4 5 6 
#
# 1 0.020116 -0.013490 0.009217 0.000000 0.000000 0.000000
# 2 -0.013490 0.034783 -0.029248 0.000000 0.000000 0.000000
# 3 0.009217 -0.029248 0.047201 0.000000 0.000000 0.000000
# 4 0.000000 0.000000 0.000000 0.038024 0.000000 0.000000
# 5 0.000000 0.000000 0.000000 0.000000 0.009077 0.000000
# 6 0.000000 0.000000 0.000000 0.000000 0.000000 0.036122
#
#
# Mechanical properties :
#
#
# Convention : Reuss Voigt Hill
#
# Bulk Modulus (GPa) = 28.52367 38.28705 33.40536
# Shear Modulus (GPa) = 18.93577 40.12630 29.53104
#
# Velocity S-wave (km/s) = 3.46004 5.03679 4.32094
# Velocity P-wave (km/s) = 5.83062 7.61788 6.78337
#
# Compressibility (1/GPa) = 0.03505860
#
# Stress axis : x y z
#
# Youngs Moduli (GPa) = 49.71123 28.74961 21.18594
#
# Poissons Ratio (x) = 0.38784 -0.19528
# Poissons Ratio (y) = 0.67063 0.61964
# Poissons Ratio (z) = -0.45821 0.84086
#
# Static dielectric constant tensor:
#      x y z
#    x 1.518560 0.000000 0.000000 
#    y 0.000000 1.533900 0.000000 
#    z 0.000000 0.000000 1.526530 
# 
# From -- ./inp_files/44981.got.cif
#   From: 2010.05.17/outbox.ucp.g08.bks.cvg/sg67_23_cif.got.tgz:44981.got - 2010.06.11 16:47:20.
