data_PCOD9505312
_publ_section_title
;
Structure prediction by ZEFSAII (Michael W. Deem and Ramdas Pophale) SiO2 
 PCOD9505312
Probable space group: C C C A
;
_chemical_formula_sum "Si O2"
_cell_formula_units_Z 60
_cell_length_a 32.451459
_cell_length_b 13.948919
_cell_length_c 5.203266
_cell_angle_alpha 90.000000
_cell_angle_beta 90.000000
_cell_angle_gamma 90.000000
_cell_volume 2355.324816
_symmetry_space_group_name_H-M "C C C A"
_symmetry_group_IT_number 68
_space_group.IT_coordinate_system_code '2'
_symmetry_cell_setting 'orthorhombic'
loop_
_space_group_symop_operation_xyz
x,y,z
-x,1/2-y,z
x,1/2-y,1/2-z
-x,y,1/2-z
-x,-y,-z
x,1/2+y,-z
-x,1/2+y,1/2+z
x,-y,1/2+z
1/2+x,1/2+y,z
1/2-x,-y,z
1/2+x,-y,1/2-z
1/2-x,1/2+y,1/2-z
1/2-x,1/2-y,-z
1/2+x,y,-z
1/2-x,y,1/2+z
1/2+x,1/2-y,1/2+z
loop_
_atom_site_type_symbol
_atom_site_label
_atom_site_fract_x
_atom_site_fract_y
_atom_site_fract_z
Si Si1 0.267485 0.106197 0.871174
Si Si2 0.000000 0.120319 0.750000
Si Si3 0.411390 0.367993 0.258296
Si Si4 0.500000 0.250000 0.750000
Si Si5 0.860685 0.634741 0.740902
O O1 0.240767 0.152563 0.645618
O O2 0.314873 0.099499 0.794245
O O3 0.250000 0.000000 0.914799
O O4 0.954728 0.081514 0.688921
O O5 0.012567 0.173892 0.477566
O O6 0.417588 0.250000 0.250000
O O7 0.392048 0.392170 0.532229
O O8 0.378619 0.390514 0.036099
O O9 0.858021 0.750000 0.750000
#
# Coordination Sequence:
#
# PCOD9505312 Si02
#       5
#    16   8  16   4  16
#     4  10  21  38  58  76 100 132 178 225 275 335
#     4  11  18  26  44  68 104 158 187 211 243 306
#     4  10  18  29  45  70 111 146 184 211 252 309
#     4  10  16  22  40  62  92 142 202 208 236 286
#     4  10  21  32  49  78 109 141 172 225 270 311
#
# _framework density 25.474194000000001
#
# number of rings (size 3 to 8) (size 9 to 14) (size 15 to 20)
#    0.000    1.867    2.667    3.200    3.733    1.067 
#    0.000    0.000    0.000    0.000    0.000    0.000 
#    0.000   85.333    0.000    0.000    0.000    0.000 
#
# Total GULP energy -167275.264010 kJ/mol
# GULP energy per Si atom -5575.842134 kJ/mol
# Density = 2.541621 g / cm^3
# Si number density = 25.474194 Si / 1000 Ang^3
#
#
#
# Elastic Constant Matrix: (Units=GPa)
#
#
# Indices 1 2 3 4 5 6 
#
# 1 182.6316 21.3054 6.8594 0.0000 0.0000 0.0000
# 2 21.3054 97.6971 13.2692 0.0000 0.0000 0.0000
# 3 6.8594 13.2692 158.4414 0.0000 0.0000 0.0000
# 4 0.0000 0.0000 0.0000 -4.6966 0.0000 0.0000
# 5 0.0000 0.0000 0.0000 0.0000 43.2852 0.0000
# 6 0.0000 0.0000 0.0000 0.0000 0.0000 -173.8552
#
#
#
# Elastic Compliance Matrix: (Units=1/GPa)
#
#
# Indices 1 2 3 4 5 6 
#
# 1 0.005622 -0.001207 -0.000142 0.000000 0.000000 0.000000
# 2 -0.001207 0.010612 -0.000837 0.000000 0.000000 0.000000
# 3 -0.000142 -0.000837 0.006388 0.000000 0.000000 0.000000
# 4 0.000000 0.000000 0.000000 -0.212921 0.000000 0.000000
# 5 0.000000 0.000000 0.000000 0.000000 0.023103 0.000000
# 6 0.000000 0.000000 0.000000 0.000000 0.000000 -0.005752
#
#
# Mechanical properties :
#
#
# Convention : Reuss Voigt Hill
#
# Bulk Modulus (GPa) = 54.79199 57.95978 56.37589
# Shear Modulus (GPa) = -30.77033 -0.56425 -15.66729
#
# Velocity S-wave (km/s) = -3.47926 -0.47115 -2.48266
# Velocity P-wave (km/s) = 2.32706 4.74402 3.73637
#
# Compressibility (1/GPa) = 0.01825084
#
# Stress axis : x y z
#
# Youngs Moduli (GPa) = 177.88499 94.22874 156.55084
#
# Poissons Ratio (x) = 0.11370 0.02228
# Poissons Ratio (y) = 0.21464 0.13096
# Poissons Ratio (z) = 0.02532 0.07883
#
# Static dielectric constant tensor:
#      x y z
#    x 1.960850 0.000000 0.000000 
#    y 0.000000 2.396640 0.000000 
#    z 0.000000 0.000000 2.039060 
# 
# From -- ./inp_files/999.got.cif
#   From: 2010.05.17/outbox.cif.g08.bks.cpg/sg68_1_cif.got.tgz:999.got - 2010.06.03 18:57:09.
