data_PCOD9505206
_publ_section_title
;
Structure prediction by ZEFSAII (Michael W. Deem and Ramdas Pophale) SiO2 
 PCOD9505206
Probable space group: C M M A
;
_chemical_formula_sum "Si O2"
_cell_formula_units_Z 48
_cell_length_a 21.000000
_cell_length_b 9.000000
_cell_length_c 27.000000
_cell_angle_alpha 90.000000
_cell_angle_beta 90.000000
_cell_angle_gamma 90.000000
_cell_volume 5103.000000
_symmetry_space_group_name_H-M "C M M A"
_symmetry_group_IT_number 67
_symmetry_cell_setting 'orthorhombic'
loop_
_space_group_symop_operation_xyz
x,y,z
-x,1/2-y,z
x,-y,-z
-x,1/2+y,-z
-x,-y,-z
x,1/2+y,-z
-x,y,z
x,1/2-y,z
1/2+x,1/2+y,z
1/2-x,-y,z
1/2+x,1/2-y,-z
1/2-x,y,-z
1/2-x,1/2-y,-z
1/2+x,y,-z
1/2-x,1/2+y,z
1/2+x,-y,z
loop_
_atom_site_type_symbol
_atom_site_label
_atom_site_fract_x
_atom_site_fract_y
_atom_site_fract_z
Si Si1 0.931407 0.927658 0.383785
Si Si2 0.930014 0.421320 0.280394
Si Si3 0.929569 0.925185 0.946458
Si Si4 0.190727 0.074613 0.213309
Si Si5 0.187134 0.573873 0.106565
Si Si6 0.312222 0.570780 0.554133
O O1 0.932080 0.750000 0.386828
O O2 0.873781 0.979662 0.416521
O O3 0.000000 0.985671 0.400731
O O4 0.923015 0.974687 0.327405
O O5 0.927116 0.250000 0.297712
O O6 0.874116 0.443243 0.242335
O O7 0.000000 0.444845 0.257999
O O8 0.915396 0.750000 0.950293
O O9 0.000000 0.940183 0.923660
O O10 0.875880 0.010317 0.917349
O O11 0.931759 0.000000 0.000000
O O12 0.201649 0.250000 0.204089
O O13 0.250000 0.000000 0.241424
O O14 0.185669 0.983965 0.162705
O O15 0.191098 0.750000 0.103751
O O16 0.250000 0.500000 0.083020
O O17 0.316132 0.500000 0.500000
O O18 0.307790 0.750000 0.551669
O O19 0.250000 0.500000 0.578646
#
# Coordination Sequence:
#
# PCOD9505206 Si02
#       6
#    16  16  16  16  16  16
#     4   9  19  35  53  74 101 132 167 208 253 301
#     4   9  19  35  54  76 102 134 172 212 255 305
#     4  10  21  38  59  83 112 144 179 221 268 317
#     4  10  20  35  54  77 106 138 174 216 262 311
#     4  11  22  37  57  81 110 143 182 223 267 318
#     4  10  20  34  52  74 101 132 167 207 251 300
#
# _framework density 9.4062319999999993
#
# number of rings (size 3 to 8) (size 9 to 14) (size 15 to 20)
#    0.000    2.167    0.000    4.500    0.000    5.667 
#    0.000    6.667    0.000    0.000    0.000    0.000 
#    0.000    0.000    0.000    0.000    0.000    0.000 
#
# Total GULP energy -267433.014950 kJ/mol
# GULP energy per Si atom -5571.521145 kJ/mol
# Density = 0.938482 g / cm^3
# Si number density = 9.406232 Si / 1000 Ang^3
#
#
#
# Elastic Constant Matrix: (Units=GPa)
#
#
# Indices 1 2 3 4 5 6 
#
# 1 143.0028 90.9367 61.7883 0.0000 0.0000 0.0000
# 2 90.9367 98.6139 26.7001 0.0000 0.0000 0.0000
# 3 61.7883 26.7001 19.5562 0.0000 0.0000 0.0000
# 4 0.0000 0.0000 0.0000 2.2311 0.0000 0.0000
# 5 0.0000 0.0000 0.0000 0.0000 28.3523 0.0000
# 6 0.0000 0.0000 0.0000 0.0000 0.0000 38.2159
#
#
#
# Elastic Compliance Matrix: (Units=1/GPa)
#
#
# Indices 1 2 3 4 5 6 
#
# 1 -0.018898 0.002000 0.056980 0.000000 0.000000 0.000000
# 2 0.002000 0.015876 -0.027993 0.000000 0.000000 0.000000
# 3 0.056980 -0.027993 -0.090675 0.000000 0.000000 0.000000
# 4 0.000000 0.000000 0.000000 0.448217 0.000000 0.000000
# 5 0.000000 0.000000 0.000000 0.000000 0.035271 0.000000
# 6 0.000000 0.000000 0.000000 0.000000 0.000000 0.026167
#
#
# Mechanical properties :
#
#
# Convention : Reuss Voigt Hill
#
# Bulk Modulus (GPa) = -31.52084 68.89146 18.68531
# Shear Modulus (GPa) = 14.55986 19.20970 16.88478
#
# Velocity S-wave (km/s) = 2.78501 3.19896 2.99913
# Velocity P-wave (km/s) = 2.53968 7.09535 4.68477
#
# Compressibility (1/GPa) = -0.03172504
#
# Stress axis : x y z
#
# Youngs Moduli (GPa) = -52.91474 62.98868 -11.02842
#
# Poissons Ratio (x) = -0.12595 0.62840
# Poissons Ratio (y) = 0.10581 -0.30872
# Poissons Ratio (z) = 3.01506 1.76325
#
# Static dielectric constant tensor:
#      x y z
#    x 1.749510 0.000000 0.000000 
#    y 0.000000 1.637750 0.000000 
#    z 0.000000 0.000000 1.579780 
# 
# From -- ./inp_files/44568.got.cif
#   From: 2010.05.17/outbox.ucp.g08.bks.cvg/sg67_23_cif.got.tgz:44568.got - 2010.06.11 16:47:20.
