data_PCOD9505078
_publ_section_title
;
Structure prediction by ZEFSAII (Michael W. Deem and Ramdas Pophale) SiO2 
 PCOD9505078
Probable space group: C M M A
;
_chemical_formula_sum "Si O2"
_cell_formula_units_Z 68
_cell_length_a 10.920930
_cell_length_b 14.224973
_cell_length_c 21.668368
_cell_angle_alpha 90.000000
_cell_angle_beta 90.000000
_cell_angle_gamma 90.000000
_cell_volume 3366.179547
_symmetry_space_group_name_H-M "C M M A"
_symmetry_group_IT_number 67
_symmetry_cell_setting 'orthorhombic'
loop_
_space_group_symop_operation_xyz
x,y,z
-x,1/2-y,z
x,-y,-z
-x,1/2+y,-z
-x,-y,-z
x,1/2+y,-z
-x,y,z
x,1/2-y,z
1/2+x,1/2+y,z
1/2-x,-y,z
1/2+x,1/2-y,-z
1/2-x,y,-z
1/2-x,1/2-y,-z
1/2+x,y,-z
1/2-x,1/2+y,z
1/2+x,-y,z
loop_
_atom_site_type_symbol
_atom_site_label
_atom_site_fract_x
_atom_site_fract_y
_atom_site_fract_z
Si Si1 0.250000 0.000000 0.500000
Si Si2 0.358945 0.364297 0.736774
Si Si3 0.854064 0.643851 0.597852
Si Si4 0.638397 0.636064 0.826463
Si Si5 0.133141 0.102551 0.968822
O O1 0.178397 0.069876 0.454509
O O2 0.500000 0.395833 0.749070
O O3 0.363437 0.250000 0.738017
O O4 0.319245 0.388477 0.666893
O O5 0.252661 0.392872 0.784087
O O6 0.804281 0.750000 0.586472
O O7 0.000000 0.651692 0.600189
O O8 0.500000 0.612524 0.803734
O O9 0.642610 0.750000 0.831373
O O10 0.651023 0.596710 0.895511
O O11 0.000000 0.146661 0.979197
O O12 0.250000 0.149263 0.000000
O O13 0.126930 0.000000 0.000000
#
# Coordination Sequence:
#
# PCOD9505078 Si02
#       5
#     4  16  16  16  16
#     4  12  20  32  56  84 112 148 190 228 276 336
#     4   8  15  31  54  76 100 134 172 210 261 325
#     4   9  19  36  56  80 113 149 186 232 281 331
#     4   9  17  30  50  76 101 124 160 215 268 309
#     4   9  18  32  47  64  92 128 161 196 243 300
#
# _framework density 20.200942000000001
#
# number of rings (size 3 to 8) (size 9 to 14) (size 15 to 20)
#    0.000    3.059    0.000    2.118    0.000    1.412 
#    0.000    4.706    0.000   16.941    0.000    0.000 
#    0.000    0.000    0.000    0.000    0.000    0.000 
#
# Total GULP energy -189459.592828 kJ/mol
# GULP energy per Si atom -5572.340966 kJ/mol
# Density = 2.015496 g / cm^3
# Si number density = 20.200942 Si / 1000 Ang^3
#
#
#
# Elastic Constant Matrix: (Units=GPa)
#
#
# Indices 1 2 3 4 5 6 
#
# 1 150.6763 26.1627 98.2644 0.0000 0.0000 0.0000
# 2 26.1627 101.4421 52.6389 0.0000 0.0000 0.0000
# 3 98.2644 52.6389 151.2327 0.0000 0.0000 0.0000
# 4 0.0000 0.0000 0.0000 42.1038 0.0000 0.0000
# 5 0.0000 0.0000 0.0000 0.0000 30.8738 0.0000
# 6 0.0000 0.0000 0.0000 0.0000 0.0000 -40.1605
#
#
#
# Elastic Compliance Matrix: (Units=1/GPa)
#
#
# Indices 1 2 3 4 5 6 
#
# 1 0.011621 0.001124 -0.007942 0.000000 0.000000 0.000000
# 2 0.001124 0.012139 -0.004956 0.000000 0.000000 0.000000
# 3 -0.007942 -0.004956 0.013498 0.000000 0.000000 0.000000
# 4 0.000000 0.000000 0.000000 0.023751 0.000000 0.000000
# 5 0.000000 0.000000 0.000000 0.000000 0.032390 0.000000
# 6 0.000000 0.000000 0.000000 0.000000 0.000000 -0.024900
#
#
# Mechanical properties :
#
#
# Convention : Reuss Voigt Hill
#
# Bulk Modulus (GPa) = 72.93568 84.16477 78.55022
# Shear Modulus (GPa) = 51.75102 21.64911 36.70007
#
# Velocity S-wave (km/s) = 5.06693 3.27722 4.26696
# Velocity P-wave (km/s) = 8.39137 7.48829 7.95266
#
# Compressibility (1/GPa) = 0.01371071
#
# Stress axis : x y z
#
# Youngs Moduli (GPa) = 86.05083 82.37588 74.08703
#
# Poissons Ratio (x) = -0.09259 0.58840
# Poissons Ratio (y) = -0.09672 0.36715
# Poissons Ratio (z) = 0.68342 0.40823
#
# Static dielectric constant tensor:
#      x y z
#    x 1.745590 0.000000 0.000000 
#    y 0.000000 1.797980 0.000000 
#    z 0.000000 0.000000 1.698620 
# 
# From -- ./inp_files/32780.got.cif
#   From: 2010.05.17/outbox.cif.g08.bks.cpg/sg67_17_cif.got.tgz:32780.got - 2010.06.03 18:28:57.
