data_PCOD9505276
_publ_section_title
;
Structure prediction by ZEFSAII (Michael W. Deem and Ramdas Pophale) SiO2 
 PCOD9505276
Probable space group: C M M A
;
_chemical_formula_sum "Si O2"
_cell_formula_units_Z 26
_cell_length_a 15.000000
_cell_length_b 15.000000
_cell_length_c 12.000000
_cell_angle_alpha 90.000000
_cell_angle_beta 90.000000
_cell_angle_gamma 90.000000
_cell_volume 2700.000000
_symmetry_space_group_name_H-M "C M M A"
_symmetry_group_IT_number 67
_symmetry_cell_setting 'orthorhombic'
loop_
_space_group_symop_operation_xyz
x,y,z
-x,1/2-y,z
x,-y,-z
-x,1/2+y,-z
-x,-y,-z
x,1/2+y,-z
-x,y,z
x,1/2-y,z
1/2+x,1/2+y,z
1/2-x,-y,z
1/2+x,1/2-y,-z
1/2-x,y,-z
1/2-x,1/2-y,-z
1/2+x,y,-z
1/2-x,1/2+y,z
1/2+x,-y,z
loop_
_atom_site_type_symbol
_atom_site_label
_atom_site_fract_x
_atom_site_fract_y
_atom_site_fract_z
Si Si1 0.750000 0.000000 0.500000
Si Si2 0.310075 0.643242 0.108996
Si Si3 0.000000 0.846802 0.232313
Si Si4 0.306398 0.850141 0.668357
Si Si5 0.000000 0.040935 0.120517
O O1 0.700989 0.069789 0.418852
O O2 0.324693 0.750000 0.096290
O O3 0.250372 0.628919 0.219698
O O4 0.406674 0.596468 0.127568
O O5 0.250000 0.615225 0.000000
O O6 0.909079 0.842550 0.299491
O O7 0.000000 0.750000 0.163720
O O8 0.000000 0.948509 0.188682
O O9 0.276990 0.750000 0.630819
O O10 0.000000 0.000000 0.000000
#
# Coordination Sequence:
#
# PCOD9505276 Si02
#       5
#     4  16   8  16   8
#     4  12  22  38  62  86 120 154 194 248 296 342
#     4  10  22  41  63  89 123 158 194 242 298 356
#     4  10  22  40  59  83 117 156 199 246 296 348
#     4  10  22  40  62  87 117 156 198 241 295 354
#     4  12  23  33  57  91 122 157 199 240 290 355
#
# _framework density 9.6296300000000006
#
# number of rings (size 3 to 8) (size 9 to 14) (size 15 to 20)
#    0.000    1.538    0.000    4.615    0.000    7.385 
#    0.000    1.538    0.000    4.615    0.000    0.000 
#    0.000    0.000    0.000    0.000    0.000    0.000 
#
# Total GULP energy -144770.547569 kJ/mol
# GULP energy per Si atom -5568.097983 kJ/mol
# Density = 0.960771 g / cm^3
# Si number density = 9.629630 Si / 1000 Ang^3
#
#
#
# Elastic Constant Matrix: (Units=GPa)
#
#
# Indices 1 2 3 4 5 6 
#
# 1 170.8515 73.9192 63.9020 0.0000 0.0000 0.0000
# 2 73.9192 167.8070 68.0282 0.0000 0.0000 0.0000
# 3 63.9020 68.0282 99.1674 0.0000 0.0000 0.0000
# 4 0.0000 0.0000 0.0000 42.2765 0.0000 0.0000
# 5 0.0000 0.0000 0.0000 0.0000 1.1163 0.0000
# 6 0.0000 0.0000 0.0000 0.0000 0.0000 42.3416
#
#
#
# Elastic Compliance Matrix: (Units=1/GPa)
#
#
# Indices 1 2 3 4 5 6 
#
# 1 0.008183 -0.002032 -0.003879 0.000000 0.000000 0.000000
# 2 -0.002032 0.008760 -0.004700 0.000000 0.000000 0.000000
# 3 -0.003879 -0.004700 0.015807 0.000000 0.000000 0.000000
# 4 0.000000 0.000000 0.000000 0.023654 0.000000 0.000000
# 5 0.000000 0.000000 0.000000 0.000000 0.895790 0.000000
# 6 0.000000 0.000000 0.000000 0.000000 0.000000 0.023617
#
#
# Mechanical properties :
#
#
# Convention : Reuss Voigt Hill
#
# Bulk Modulus (GPa) = 86.74031 94.39164 90.56597
# Shear Modulus (GPa) = 4.99563 32.61199 18.80381
#
# Velocity S-wave (km/s) = 1.61230 4.11946 3.12805
# Velocity P-wave (km/s) = 6.97152 8.47018 7.75713
#
# Compressibility (1/GPa) = 0.01152867
#
# Stress axis : x y z
#
# Youngs Moduli (GPa) = 122.20355 114.16123 63.26146
#
# Poissons Ratio (x) = 0.23199 0.24539
# Poissons Ratio (y) = 0.24833 0.29730
# Poissons Ratio (z) = 0.47403 0.53650
#
# Static dielectric constant tensor:
#      x y z
#    x 1.629440 0.000000 0.000000 
#    y 0.000000 1.648320 0.000000 
#    z 0.000000 0.000000 1.640600 
# 
# From -- ./inp_files/17273.got.cif
#   From: 2010.05.17/outbox.ucp.g08.bks.cvg/sg67_9_cif.got.tgz:17273.got - 2010.06.11 16:47:20.
