data_PCOD9505527
_publ_section_title
;
Structure prediction by ZEFSAII (Michael W. Deem and Ramdas Pophale) SiO2 
 PCOD9505527
Probable space group: C C C A
;
_chemical_formula_sum "Si O2"
_cell_formula_units_Z 116
_cell_length_a 14.592983
_cell_length_b 18.269472
_cell_length_c 23.584610
_cell_angle_alpha 90.000000
_cell_angle_beta 90.000000
_cell_angle_gamma 90.000000
_cell_volume 6287.800758
_symmetry_space_group_name_H-M "C C C A"
_symmetry_group_IT_number 68
_space_group.IT_coordinate_system_code '2'
_symmetry_cell_setting 'orthorhombic'
loop_
_space_group_symop_operation_xyz
x,y,z
-x,1/2-y,z
x,1/2-y,1/2-z
-x,y,1/2-z
-x,-y,-z
x,1/2+y,-z
-x,1/2+y,1/2+z
x,-y,1/2+z
1/2+x,1/2+y,z
1/2-x,-y,z
1/2+x,-y,1/2-z
1/2-x,1/2+y,1/2-z
1/2-x,1/2-y,-z
1/2+x,y,-z
1/2-x,y,1/2+z
1/2+x,1/2-y,1/2+z
loop_
_atom_site_type_symbol
_atom_site_label
_atom_site_fract_x
_atom_site_fract_y
_atom_site_fract_z
Si Si1 0.168919 0.447352 0.405963
Si Si2 0.612272 0.887404 0.706078
Si Si3 0.581722 0.150612 0.998325
Si Si4 0.870810 0.318275 0.482216
Si Si5 0.283439 0.156621 0.396332
Si Si6 0.698701 0.674309 0.606758
Si Si7 0.000000 0.750000 0.250000
Si Si8 0.919327 0.932223 0.329075
O O1 0.250000 0.500000 0.427984
O O2 0.112630 0.414086 0.457300
O O3 0.218904 0.378980 0.376064
O O4 0.113366 0.496783 0.362392
O O5 0.694067 0.886121 0.661179
O O6 0.566573 0.806248 0.716166
O O7 0.527122 0.932693 0.681066
O O8 0.629675 0.919722 0.768424
O O9 0.614266 0.230629 0.975008
O O10 0.471585 0.151717 0.996669
O O11 0.633029 0.143953 0.058800
O O12 0.812107 0.351864 0.430579
O O13 0.811331 0.329479 0.538793
O O14 0.287302 0.241959 0.379199
O O15 0.608779 0.638823 0.634173
#
# Coordination Sequence:
#
# PCOD9505527 Si02
#       8
#    16  16  16  16  16  16   4  16
#     4  10  19  35  58  75 105 153 199 217 249 343
#     4  10  19  33  53  85 113 138 183 245 292 315
#     4  10  19  34  55  87 118 148 179 223 289 335
#     4  10  19  31  57  90 120 140 175 236 288 337
#     4  11  18  32  58  87 121 138 174 248 292 328
#     4  10  17  33  55  86 109 145 189 222 274 339
#     4   8  16  32  52  84 112 142 184 238 292 334
#     4   9  20  34  55  78 107 153 196 225 270 336
#
# _framework density 18.448422000000001
#
# number of rings (size 3 to 8) (size 9 to 14) (size 15 to 20)
#    0.000    2.207    2.759    3.310    0.000    2.207 
#    0.000    6.207   18.207    0.000    0.000    0.000 
#    0.000    0.000    0.000    0.000    0.000    0.000 
#
# Total GULP energy -323287.726490 kJ/mol
# GULP energy per Si atom -5573.926319 kJ/mol
# Density = 1.840643 g / cm^3
# Si number density = 18.448422 Si / 1000 Ang^3
#
#
#
# Elastic Constant Matrix: (Units=GPa)
#
#
# Indices 1 2 3 4 5 6 
#
# 1 73.6741 20.1036 18.8295 0.0000 0.0000 0.0000
# 2 20.1036 65.2341 32.0690 0.0000 0.0000 0.0000
# 3 18.8295 32.0690 57.4211 0.0000 0.0000 0.0000
# 4 0.0000 0.0000 0.0000 15.7319 0.0000 0.0000
# 5 0.0000 0.0000 0.0000 0.0000 34.2970 0.0000
# 6 0.0000 0.0000 0.0000 0.0000 0.0000 13.9769
#
#
#
# Elastic Compliance Matrix: (Units=1/GPa)
#
#
# Indices 1 2 3 4 5 6 
#
# 1 0.015254 -0.003090 -0.003276 0.000000 0.000000 0.000000
# 2 -0.003090 0.021757 -0.011138 0.000000 0.000000 0.000000
# 3 -0.003276 -0.011138 0.024710 0.000000 0.000000 0.000000
# 4 0.000000 0.000000 0.000000 0.063565 0.000000 0.000000
# 5 0.000000 0.000000 0.000000 0.000000 0.029157 0.000000
# 6 0.000000 0.000000 0.000000 0.000000 0.000000 0.071546
#
#
# Mechanical properties :
#
#
# Convention : Reuss Voigt Hill
#
# Bulk Modulus (GPa) = 37.43578 37.59260 37.51419
# Shear Modulus (GPa) = 18.52527 21.15632 19.84080
#
# Velocity S-wave (km/s) = 3.17229 3.39009 3.28300
# Velocity P-wave (km/s) = 5.80983 5.97871 5.89488
#
# Compressibility (1/GPa) = 0.02671242
#
# Stress axis : x y z
#
# Youngs Moduli (GPa) = 65.55722 45.96220 40.46992
#
# Poissons Ratio (x) = 0.14204 0.13258
# Poissons Ratio (y) = 0.20259 0.45074
# Poissons Ratio (z) = 0.21477 0.51191
#
# Static dielectric constant tensor:
#      x y z
#    x 1.677170 0.000000 0.000000 
#    y 0.000000 1.661680 0.000000 
#    z 0.000000 0.000000 1.642430 
# 
# From -- ./inp_files/51053.got.cif
#   From: 2010.05.17/outbox.cif.g08.bks.cpg/sg68_26_cif.got.tgz:51053.got - 2010.06.03 18:57:09.
