data_PCOD9505628
_publ_section_title
;
Structure prediction by ZEFSAII (Michael W. Deem and Ramdas Pophale) SiO2 
 PCOD9505628
Probable space group: C C C A
;
_chemical_formula_sum "Si O2"
_cell_formula_units_Z 80
_cell_length_a 20.921490
_cell_length_b 21.508496
_cell_length_c 9.069188
_cell_angle_alpha 90.000000
_cell_angle_beta 90.000000
_cell_angle_gamma 90.000000
_cell_volume 4081.041949
_symmetry_space_group_name_H-M "C C C A"
_symmetry_group_IT_number 68
_space_group.IT_coordinate_system_code '2'
_symmetry_cell_setting 'orthorhombic'
loop_
_space_group_symop_operation_xyz
x,y,z
-x,1/2-y,z
x,1/2-y,1/2-z
-x,y,1/2-z
-x,-y,-z
x,1/2+y,-z
-x,1/2+y,1/2+z
x,-y,1/2+z
1/2+x,1/2+y,z
1/2-x,-y,z
1/2+x,-y,1/2-z
1/2-x,1/2+y,1/2-z
1/2-x,1/2-y,-z
1/2+x,y,-z
1/2-x,y,1/2+z
1/2+x,1/2-y,1/2+z
loop_
_atom_site_type_symbol
_atom_site_label
_atom_site_fract_x
_atom_site_fract_y
_atom_site_fract_z
Si Si1 0.058895 0.581197 0.497594
Si Si2 0.500000 0.250000 0.750000
Si Si3 0.000000 0.997338 0.750000
Si Si4 0.060458 0.170163 0.001858
Si Si5 0.500000 0.250000 0.250000
Si Si6 0.810467 0.322475 0.917494
Si Si7 0.823013 0.825670 0.432824
O O1 0.046589 0.537383 0.356345
O O2 0.118121 0.629860 0.482333
O O3 0.049104 0.541664 0.646843
O O4 0.994690 0.620840 0.499649
O O5 0.453977 0.289366 0.854734
O O6 0.130585 0.142465 0.992657
O O7 0.045519 0.210302 0.855225
O O8 0.812933 0.331929 0.742561
O O9 0.827502 0.249621 0.955436
O O10 0.742181 0.340944 0.981086
#
# Coordination Sequence:
#
# PCOD9505628 Si02
#       7
#    16   4   8  16   4  16  16
#     4  11  22  40  62  84 113 153 202 258 302 334
#     4  10  22  30  52  98 128 150 194 236 300 392
#     4  10  24  40  62  86 108 152 222 266 286 330
#     4  11  20  34  57  85 120 154 188 243 303 362
#     4  10  18  30  56  90 120 154 194 220 288 396
#     4  10  21  35  57  91 123 154 188 223 294 392
#     4  10  21  37  58  86 124 160 188 233 297 363
#
# _framework density 19.602836
#
# number of rings (size 3 to 8) (size 9 to 14) (size 15 to 20)
#    0.000    1.600    0.000    7.200    0.000    6.400 
#    0.000    0.000    0.000   20.400    0.000    0.000 
#    0.000    0.000    0.000    0.000    0.000    0.000 
#
# Total GULP energy -223159.803116 kJ/mol
# GULP energy per Si atom -5578.995078 kJ/mol
# Density = 1.955822 g / cm^3
# Si number density = 19.602836 Si / 1000 Ang^3
#
#
#
# Elastic Constant Matrix: (Units=GPa)
#
#
# Indices 1 2 3 4 5 6 
#
# 1 174.8038 50.6566 51.6354 0.0000 0.0000 0.0000
# 2 50.6566 77.5383 50.8177 0.0000 0.0000 0.0000
# 3 51.6354 50.8177 117.9824 0.0000 0.0000 0.0000
# 4 0.0000 0.0000 0.0000 3.0016 0.0000 0.0000
# 5 0.0000 0.0000 0.0000 0.0000 22.4775 0.0000
# 6 0.0000 0.0000 0.0000 0.0000 0.0000 83.5848
#
#
#
# Elastic Compliance Matrix: (Units=1/GPa)
#
#
# Indices 1 2 3 4 5 6 
#
# 1 0.007262 -0.003708 -0.001581 0.000000 0.000000 0.000000
# 2 -0.003708 0.019863 -0.006932 0.000000 0.000000 0.000000
# 3 -0.001581 -0.006932 0.012154 0.000000 0.000000 0.000000
# 4 0.000000 0.000000 0.000000 0.333155 0.000000 0.000000
# 5 0.000000 0.000000 0.000000 0.000000 0.044489 0.000000
# 6 0.000000 0.000000 0.000000 0.000000 0.000000 0.011964
#
#
# Mechanical properties :
#
#
# Convention : Reuss Voigt Hill
#
# Bulk Modulus (GPa) = 67.40685 75.17153 71.28919
# Shear Modulus (GPa) = 10.91046 36.29378 23.60212
#
# Velocity S-wave (km/s) = 2.36175 4.30752 3.47366
# Velocity P-wave (km/s) = 6.47287 7.94797 7.24804
#
# Compressibility (1/GPa) = 0.01483529
#
# Stress axis : x y z
#
# Youngs Moduli (GPa) = 137.69549 50.34487 82.27874
#
# Poissons Ratio (x) = 0.18670 0.13009
# Poissons Ratio (y) = 0.51062 0.57040
# Poissons Ratio (z) = 0.21772 0.34901
#
# Static dielectric constant tensor:
#      x y z
#    x 1.709610 0.000000 0.000000 
#    y 0.000000 1.695390 0.000000 
#    z 0.000000 0.000000 1.496490 
# 
# From -- ./inp_files/7098.got.cif
#   From: 2010.05.17/outbox.cif.g08.bks.cpg/sg68_4_cif.got.tgz:7098.got - 2010.06.03 18:57:09.
