data_PCOD9505440
_publ_section_title
;
Structure prediction by ZEFSAII (Michael W. Deem and Ramdas Pophale) SiO2 
 PCOD9505440
Probable space group: C C C A
;
_chemical_formula_sum "Si O2"
_cell_formula_units_Z 64
_cell_length_a 14.463576
_cell_length_b 36.597898
_cell_length_c 5.356422
_cell_angle_alpha 90.000000
_cell_angle_beta 90.000000
_cell_angle_gamma 90.000000
_cell_volume 2835.349562
_symmetry_space_group_name_H-M "C C C A"
_symmetry_group_IT_number 68
_space_group.IT_coordinate_system_code '2'
_symmetry_cell_setting 'orthorhombic'
loop_
_space_group_symop_operation_xyz
x,y,z
-x,1/2-y,z
x,1/2-y,1/2-z
-x,y,1/2-z
-x,-y,-z
x,1/2+y,-z
-x,1/2+y,1/2+z
x,-y,1/2+z
1/2+x,1/2+y,z
1/2-x,-y,z
1/2+x,-y,1/2-z
1/2-x,1/2+y,1/2-z
1/2-x,1/2-y,-z
1/2+x,y,-z
1/2-x,y,1/2+z
1/2+x,1/2-y,1/2+z
loop_
_atom_site_type_symbol
_atom_site_label
_atom_site_fract_x
_atom_site_fract_y
_atom_site_fract_z
Si Si1 0.188097 0.290321 0.257059
Si Si2 0.107096 0.013312 0.545438
Si Si3 0.609981 0.904448 0.762615
Si Si4 0.890793 0.868651 0.759395
O O1 0.142694 0.250000 0.250000
O O2 0.255990 0.292279 0.496421
O O3 0.124390 0.325582 0.285486
O O4 0.116201 0.053176 0.664663
O O5 0.146245 0.012544 0.264595
O O6 0.000000 0.000000 0.500000
O O7 0.500000 0.896886 0.750000
O O8 0.646232 0.891653 0.494688
O O9 0.648238 0.881388 0.993714
O O10 0.000000 0.876480 0.750000
#
# Coordination Sequence:
#
# PCOD9505440 Si02
#       4
#    16  16  16  16
#     4  10  21  39  61  81 105 141 187 228 264 323
#     4  10  17  24  41  64 100 151 176 212 254 326
#     4  10  18  29  44  71 112 148 170 212 277 321
#     4  10  21  33  52  80 114 145 169 226 277 332
#
# _framework density 22.572175000000001
#
# number of rings (size 3 to 8) (size 9 to 14) (size 15 to 20)
#    0.000    2.000    2.500    3.000    7.000    0.500 
#    0.000    0.000    0.000    9.000    0.000    0.000 
#    0.000   70.000    0.000    0.000    0.000    0.000 
#
# Total GULP energy -178566.985246 kJ/mol
# GULP energy per Si atom -5580.218289 kJ/mol
# Density = 2.252080 g / cm^3
# Si number density = 22.572175 Si / 1000 Ang^3
#
#
#
# Elastic Constant Matrix: (Units=GPa)
#
#
# Indices 1 2 3 4 5 6 
#
# 1 60.0009 0.6054 7.4138 0.0000 0.0000 0.0000
# 2 0.6054 139.0980 67.3175 0.0000 0.0000 0.0000
# 3 7.4138 67.3175 229.2660 0.0000 0.0000 0.0000
# 4 0.0000 0.0000 0.0000 43.4153 0.0000 0.0000
# 5 0.0000 0.0000 0.0000 0.0000 -12.8236 0.0000
# 6 0.0000 0.0000 0.0000 0.0000 0.0000 -59.8731
#
#
#
# Elastic Compliance Matrix: (Units=1/GPa)
#
#
# Indices 1 2 3 4 5 6 
#
# 1 0.016739 0.000220 -0.000606 0.000000 0.000000 0.000000
# 2 0.000220 0.008383 -0.002469 0.000000 0.000000 0.000000
# 3 -0.000606 -0.002469 0.005106 0.000000 0.000000 0.000000
# 4 0.000000 0.000000 0.000000 0.023033 0.000000 0.000000
# 5 0.000000 0.000000 0.000000 0.000000 -0.077981 0.000000
# 6 0.000000 0.000000 0.000000 0.000000 0.000000 -0.016702
#
#
# Mechanical properties :
#
#
# Convention : Reuss Voigt Hill
#
# Bulk Modulus (GPa) = 40.78321 64.33759 52.56040
# Shear Modulus (GPa) = -181.55115 17.67895 -81.93610
#
# Velocity S-wave (km/s) = -8.97808 2.80164 -6.03145
# Velocity P-wave (km/s) = 9.45344 6.24744 5.01682
#
# Compressibility (1/GPa) = 0.02451990
#
# Stress axis : x y z
#
# Youngs Moduli (GPa) = 59.74044 119.29078 195.84210
#
# Poissons Ratio (x) = -0.02630 0.11868
# Poissons Ratio (y) = -0.01317 0.48344
# Poissons Ratio (z) = 0.03620 0.29447
#
# Static dielectric constant tensor:
#      x y z
#    x 1.929360 0.000000 0.000000 
#    y 0.000000 1.859920 0.000000 
#    z 0.000000 0.000000 1.898070 
# 
# From -- ./inp_files/1117.got.cif
#   From: 2010.05.17/outbox.cif.g08.bks.cpg/sg68_1_cif.got.tgz:1117.got - 2010.06.03 18:57:09.
