data_PCOD9505559
_publ_section_title
;
Structure prediction by ZEFSAII (Michael W. Deem and Ramdas Pophale) SiO2 
 PCOD9505559
Probable space group: C C C A
;
_chemical_formula_sum "Si O2"
_cell_formula_units_Z 120
_cell_length_a 12.704229
_cell_length_b 17.950867
_cell_length_c 23.535303
_cell_angle_alpha 90.000000
_cell_angle_beta 90.000000
_cell_angle_gamma 90.000000
_cell_volume 5367.271157
_symmetry_space_group_name_H-M "C C C A"
_symmetry_group_IT_number 68
_space_group.IT_coordinate_system_code '2'
_symmetry_cell_setting 'orthorhombic'
loop_
_space_group_symop_operation_xyz
x,y,z
-x,1/2-y,z
x,1/2-y,1/2-z
-x,y,1/2-z
-x,-y,-z
x,1/2+y,-z
-x,1/2+y,1/2+z
x,-y,1/2+z
1/2+x,1/2+y,z
1/2-x,-y,z
1/2+x,-y,1/2-z
1/2-x,1/2+y,1/2-z
1/2-x,1/2-y,-z
1/2+x,y,-z
1/2-x,y,1/2+z
1/2+x,1/2-y,1/2+z
loop_
_atom_site_type_symbol
_atom_site_label
_atom_site_fract_x
_atom_site_fract_y
_atom_site_fract_z
Si Si1 0.801420 0.259110 0.881112
Si Si2 0.000000 0.250000 0.554285
Si Si3 0.479250 0.440496 0.681305
Si Si4 0.124904 0.492337 0.420136
Si Si5 0.400468 0.601528 0.678871
Si Si6 0.415560 0.183309 0.901993
Si Si7 0.997105 0.898009 0.004652
Si Si8 0.625581 0.827017 0.785035
O O1 0.844436 0.340960 0.862888
O O2 0.693578 0.274533 0.910635
O O3 0.788555 0.201645 0.829017
O O4 0.899784 0.222405 0.911898
O O5 0.045716 0.318084 0.520573
O O6 0.500000 0.438151 0.750000
O O7 0.578454 0.457831 0.638535
O O8 0.409404 0.514427 0.668496
O O9 0.427748 0.365139 0.655933
O O10 0.250000 0.500000 0.415032
O O11 0.096732 0.442601 0.475394
O O12 0.054890 0.563472 0.441860
O O13 0.340666 0.613332 0.738720
O O14 0.518568 0.637081 0.688799
O O15 0.500000 0.250000 0.902103
O O16 0.426269 0.122361 0.952242
O O17 0.604771 0.750000 0.750000
#
# Coordination Sequence:
#
# PCOD9505559 Si02
#       8
#    16   8  16  16  16  16  16  16
#     4  11  22  37  68 104 132 176 226 293 360 409
#     4  12  22  36  73 106 125 162 232 298 362 408
#     4  11  24  47  70  98 144 194 240 294 352 429
#     4  10  24  47  72 102 143 187 235 294 368 431
#     4  10  17  37  63  97 135 162 224 296 349 408
#     4  11  27  51  64  93 148 196 238 285 346 442
#     4  10  24  46  70 102 141 181 233 296 357 431
#     4   9  16  33  60  95 138 164 206 294 361 398
#
# _framework density 22.357728999999999
#
# number of rings (size 3 to 8) (size 9 to 14) (size 15 to 20)
#    0.000    1.600    3.333    3.200    1.867    3.467 
#    9.600    0.000    0.000    0.000    0.000    0.000 
#    0.000    0.000    0.000    0.000    0.000    0.000 
#
# Total GULP energy -334088.661512 kJ/mol
# GULP energy per Si atom -5568.144359 kJ/mol
# Density = 2.230684 g / cm^3
# Si number density = 22.357729 Si / 1000 Ang^3
#
#
#
# Elastic Constant Matrix: (Units=GPa)
#
#
# Indices 1 2 3 4 5 6 
#
# 1 73.4043 -1.8944 13.9389 0.0000 0.0000 0.0000
# 2 -1.8944 90.7414 14.6979 0.0000 0.0000 0.0000
# 3 13.9389 14.6979 85.1727 0.0000 0.0000 0.0000
# 4 0.0000 0.0000 0.0000 27.8116 0.0000 0.0000
# 5 0.0000 0.0000 0.0000 0.0000 12.8136 0.0000
# 6 0.0000 0.0000 0.0000 0.0000 0.0000 14.6152
#
#
#
# Elastic Compliance Matrix: (Units=1/GPa)
#
#
# Indices 1 2 3 4 5 6 
#
# 1 0.014102 0.000687 -0.002426 0.000000 0.000000 0.000000
# 2 0.000687 0.011371 -0.002075 0.000000 0.000000 0.000000
# 3 -0.002426 -0.002075 0.012496 0.000000 0.000000 0.000000
# 4 0.000000 0.000000 0.000000 0.035956 0.000000 0.000000
# 5 0.000000 0.000000 0.000000 0.000000 0.078042 0.000000
# 6 0.000000 0.000000 0.000000 0.000000 0.000000 0.068422
#
#
# Mechanical properties :
#
#
# Convention : Reuss Voigt Hill
#
# Bulk Modulus (GPa) = 32.95875 33.64481 33.30178
# Shear Modulus (GPa) = 20.99698 25.88648 23.44173
#
# Velocity S-wave (km/s) = 3.06786 3.40638 3.24154
# Velocity P-wave (km/s) = 5.22710 5.52742 5.37935
#
# Compressibility (1/GPa) = 0.03034096
#
# Stress axis : x y z
#
# Youngs Moduli (GPa) = 70.91349 87.94506 80.02577
#
# Poissons Ratio (x) = -0.06045 0.19418
# Poissons Ratio (y) = -0.04875 0.16603
# Poissons Ratio (z) = 0.17207 0.18246
#
# Static dielectric constant tensor:
#      x y z
#    x 1.766680 0.000000 0.000000 
#    y 0.000000 1.882010 0.000000 
#    z 0.000000 0.000000 2.006340 
# 
# From -- ./inp_files/44636.got.cif
#   From: 2010.05.17/outbox.cif.g08.bks.cpg/sg68_23_cif.got.tgz:44636.got - 2010.06.03 18:57:09.
