data_PCOD9505163
_publ_section_title
;
Structure prediction by ZEFSAII (Michael W. Deem and Ramdas Pophale) SiO2 
 PCOD9505163
Probable space group: C M M A
;
_chemical_formula_sum "Si O2"
_cell_formula_units_Z 36
_cell_length_a 30.000000
_cell_length_b 9.000000
_cell_length_c 15.000000
_cell_angle_alpha 90.000000
_cell_angle_beta 90.000000
_cell_angle_gamma 90.000000
_cell_volume 4050.000000
_symmetry_space_group_name_H-M "C M M A"
_symmetry_group_IT_number 67
_symmetry_cell_setting 'orthorhombic'
loop_
_space_group_symop_operation_xyz
x,y,z
-x,1/2-y,z
x,-y,-z
-x,1/2+y,-z
-x,-y,-z
x,1/2+y,-z
-x,y,z
x,1/2-y,z
1/2+x,1/2+y,z
1/2-x,-y,z
1/2+x,1/2-y,-z
1/2-x,y,-z
1/2-x,1/2-y,-z
1/2+x,y,-z
1/2-x,1/2+y,z
1/2+x,-y,z
loop_
_atom_site_type_symbol
_atom_site_label
_atom_site_fract_x
_atom_site_fract_y
_atom_site_fract_z
Si Si1 0.551321 0.571413 0.904096
Si Si2 0.372796 0.927456 0.763568
Si Si3 0.000000 0.429918 0.599166
Si Si4 0.908275 0.571414 0.598251
Si Si5 0.201757 0.426711 0.909548
O O1 0.500000 0.533284 0.881224
O O2 0.554173 0.750000 0.912972
O O3 0.585849 0.528006 0.827434
O O4 0.561589 0.500000 0.000000
O O5 0.376730 0.750000 0.744083
O O6 0.329626 0.951261 0.824896
O O7 0.373006 0.019759 0.672268
O O8 0.000000 0.500000 0.500000
O O9 0.045854 0.496655 0.635336
O O10 0.000000 0.250000 0.599835
O O11 0.900352 0.500000 0.500000
O O12 0.912305 0.750000 0.590626
O O13 0.205933 0.250000 0.923330
O O14 0.250000 0.500000 0.896302
O O15 0.182648 0.500000 0.000000
#
# Coordination Sequence:
#
# PCOD9505163 Si02
#       5
#    16  16   8  16  16
#     4   9  18  32  49  71 102 140 176 212 258 310
#     4  10  21  35  53  79 107 142 182 223 272 325
#     4  10  18  32  52  72 101 138 179 226 270 314
#     4  11  22  36  54  78 107 142 184 229 275 323
#     4  10  20  35  57  83 113 143 180 225 275 329
#
# _framework density 8.8888890000000007
#
# number of rings (size 3 to 8) (size 9 to 14) (size 15 to 20)
#    0.000    2.000    0.000    6.333    1.556    2.667 
#    0.000    0.000    0.000    0.667    0.000    4.667 
#    0.000    0.000    0.000    0.000    0.000    0.000 
#
# Total GULP energy -200888.992110 kJ/mol
# GULP energy per Si atom -5580.249781 kJ/mol
# Density = 0.886866 g / cm^3
# Si number density = 8.888889 Si / 1000 Ang^3
#
#
#
# Elastic Constant Matrix: (Units=GPa)
#
#
# Indices 1 2 3 4 5 6 
#
# 1 59.1891 39.3650 50.6767 0.0000 0.0000 0.0000
# 2 39.3650 124.5890 59.0191 0.0000 0.0000 0.0000
# 3 50.6767 59.0191 115.7280 0.0000 0.0000 0.0000
# 4 0.0000 0.0000 0.0000 33.1675 0.0000 0.0000
# 5 0.0000 0.0000 0.0000 0.0000 23.1029 0.0000
# 6 0.0000 0.0000 0.0000 0.0000 0.0000 20.5878
#
#
#
# Elastic Compliance Matrix: (Units=1/GPa)
#
#
# Indices 1 2 3 4 5 6 
#
# 1 0.028520 -0.004081 -0.010407 0.000000 0.000000 0.000000
# 2 -0.004081 0.011167 -0.003908 0.000000 0.000000 0.000000
# 3 -0.010407 -0.003908 0.015191 0.000000 0.000000 0.000000
# 4 0.000000 0.000000 0.000000 0.030150 0.000000 0.000000
# 5 0.000000 0.000000 0.000000 0.000000 0.043285 0.000000
# 6 0.000000 0.000000 0.000000 0.000000 0.000000 0.048573
#
#
# Mechanical properties :
#
#
# Convention : Reuss Voigt Hill
#
# Bulk Modulus (GPa) = 55.29319 66.40308 60.84813
# Shear Modulus (GPa) = 22.75763 25.40131 24.07947
#
# Velocity S-wave (km/s) = 3.58175 3.78408 3.68431
# Velocity P-wave (km/s) = 6.94804 7.51832 7.23880
#
# Compressibility (1/GPa) = 0.01808541
#
# Stress axis : x y z
#
# Youngs Moduli (GPa) = 35.06335 89.54914 65.82716
#
# Poissons Ratio (x) = 0.36545 0.68509
# Poissons Ratio (y) = 0.14309 0.25725
# Poissons Ratio (z) = 0.36492 0.34995
#
# Static dielectric constant tensor:
#      x y z
#    x 1.658230 0.000000 0.000000 
#    y 0.000000 1.596810 0.000000 
#    z 0.000000 0.000000 1.653560 
# 
# From -- ./inp_files/25331.got.cif
#   From: 2010.05.17/outbox.ucp.g08.bks.cvg/sg67_13_cif.got.tgz:25331.got - 2010.06.11 16:47:20.
