data_PCOD9505124
_publ_section_title
;
Structure prediction by ZEFSAII (Michael W. Deem and Ramdas Pophale) SiO2 
 PCOD9505124
Probable space group: C M M A
;
_chemical_formula_sum "Si O2"
_cell_formula_units_Z 80
_cell_length_a 14.825901
_cell_length_b 31.668992
_cell_length_c 7.384254
_cell_angle_alpha 90.000000
_cell_angle_beta 90.000000
_cell_angle_gamma 90.000000
_cell_volume 3467.064834
_symmetry_space_group_name_H-M "C M M A"
_symmetry_group_IT_number 67
_symmetry_cell_setting 'orthorhombic'
loop_
_space_group_symop_operation_xyz
x,y,z
-x,1/2-y,z
x,-y,-z
-x,1/2+y,-z
-x,-y,-z
x,1/2+y,-z
-x,y,z
x,1/2-y,z
1/2+x,1/2+y,z
1/2-x,-y,z
1/2+x,1/2-y,-z
1/2-x,y,-z
1/2-x,1/2-y,-z
1/2+x,y,-z
1/2-x,1/2+y,z
1/2+x,-y,z
loop_
_atom_site_type_symbol
_atom_site_label
_atom_site_fract_x
_atom_site_fract_y
_atom_site_fract_z
Si Si1 0.398835 0.795539 0.193049
Si Si2 0.610089 0.115458 0.747178
Si Si3 0.891057 0.614865 0.330822
Si Si4 0.652567 0.204238 0.404084
Si Si5 0.110027 0.547560 0.036152
O O1 0.500000 0.795364 0.115247
O O2 0.355535 0.750000 0.150297
O O3 0.355565 0.841137 0.161229
O O4 0.407206 0.796959 0.413499
O O5 0.500000 0.118353 0.748942
O O6 0.638448 0.110628 0.539749
O O7 0.634980 0.075461 0.863629
O O8 0.863207 0.663024 0.284380
O O9 0.859687 0.576035 0.207107
O O10 0.000000 0.614328 0.324823
O O11 0.639925 0.250000 0.314467
O O12 0.750000 0.202914 0.500000
O O13 0.000000 0.545773 0.048804
O O14 0.141160 0.500000 0.000000
#
# Coordination Sequence:
#
# PCOD9505124 Si02
#       5
#    16  16  16  16  16
#     4   8  13  23  41  63  87 116 146 177 219 270
#     4   8  14  25  41  63  91 120 149 182 223 272
#     4   9  17  29  46  68  93 123 156 187 229 283
#     4   9  16  26  43  68  95 122 154 191 230 275
#     4   9  17  28  43  67  96 119 147 194 240 276
#
# _framework density 23.074273000000002
#
# number of rings (size 3 to 8) (size 9 to 14) (size 15 to 20)
#    0.000    3.400    0.000    1.800    0.000    2.000 
#    0.000    5.000    0.000    8.400    0.000   29.400 
#    0.000    0.000    0.000    0.000    0.000    0.000 
#
# Total GULP energy -222931.649405 kJ/mol
# GULP energy per Si atom -5573.291235 kJ/mol
# Density = 2.302176 g / cm^3
# Si number density = 23.074273 Si / 1000 Ang^3
#
#
#
# Elastic Constant Matrix: (Units=GPa)
#
#
# Indices 1 2 3 4 5 6 
#
# 1 44.8969 -1.9506 -0.5448 0.0000 0.0000 0.0000
# 2 -1.9506 305.1280 88.6232 0.0000 0.0000 0.0000
# 3 -0.5448 88.6232 90.4909 0.0000 0.0000 0.0000
# 4 0.0000 0.0000 0.0000 51.2770 0.0000 0.0000
# 5 0.0000 0.0000 0.0000 0.0000 1.9385 0.0000
# 6 0.0000 0.0000 0.0000 0.0000 0.0000 -9.8220
#
#
#
# Elastic Compliance Matrix: (Units=1/GPa)
#
#
# Indices 1 2 3 4 5 6 
#
# 1 0.022279 0.000145 -0.000007 0.000000 0.000000 0.000000
# 2 0.000145 0.004581 -0.004486 0.000000 0.000000 0.000000
# 3 -0.000007 -0.004486 0.015444 0.000000 0.000000 0.000000
# 4 0.000000 0.000000 0.000000 0.019502 0.000000 0.000000
# 5 0.000000 0.000000 0.000000 0.000000 0.515867 0.000000
# 6 0.000000 0.000000 0.000000 0.000000 0.000000 -0.101812
#
#
# Mechanical properties :
#
#
# Convention : Reuss Voigt Hill
#
# Bulk Modulus (GPa) = 29.75547 68.08572 48.92059
# Shear Modulus (GPa) = 10.08550 32.30457 21.19504
#
# Velocity S-wave (km/s) = 2.09293 3.74575 3.03406
# Velocity P-wave (km/s) = 4.33174 6.94829 5.78977
#
# Compressibility (1/GPa) = 0.03360727
#
# Stress axis : x y z
#
# Youngs Moduli (GPa) = 44.88445 218.28929 64.75069
#
# Poissons Ratio (x) = -0.03157 0.00049
# Poissons Ratio (y) = -0.00649 0.29045
# Poissons Ratio (z) = 0.00034 0.97917
#
# Static dielectric constant tensor:
#      x y z
#    x 1.924270 0.000000 0.000000 
#    y 0.000000 1.874060 0.000000 
#    z 0.000000 0.000000 1.866510 
# 
# From -- ./inp_files/9961.got.cif
#   From: 2010.05.17/outbox.cif.g08.bks.cpg/sg67_5_cif.got.tgz:9961.got - 2010.06.03 18:28:57.
