data_PCOD9505822
_publ_section_title
;
Structure prediction by ZEFSAII (Michael W. Deem and Ramdas Pophale) SiO2 
 PCOD9505822
Probable space group: C C C A
;
_chemical_formula_sum "Si O2"
_cell_formula_units_Z 116
_cell_length_a 17.687177
_cell_length_b 25.774223
_cell_length_c 12.313143
_cell_angle_alpha 90.000000
_cell_angle_beta 90.000000
_cell_angle_gamma 90.000000
_cell_volume 5613.232446
_symmetry_space_group_name_H-M "C C C A"
_symmetry_group_IT_number 68
_space_group.IT_coordinate_system_code '2'
_symmetry_cell_setting 'orthorhombic'
loop_
_space_group_symop_operation_xyz
x,y,z
-x,1/2-y,z
x,1/2-y,1/2-z
-x,y,1/2-z
-x,-y,-z
x,1/2+y,-z
-x,1/2+y,1/2+z
x,-y,1/2+z
1/2+x,1/2+y,z
1/2-x,-y,z
1/2+x,-y,1/2-z
1/2-x,1/2+y,1/2-z
1/2-x,1/2-y,-z
1/2+x,y,-z
1/2-x,y,1/2+z
1/2+x,1/2-y,1/2+z
loop_
_atom_site_type_symbol
_atom_site_label
_atom_site_fract_x
_atom_site_fract_y
_atom_site_fract_z
Si Si1 0.639520 0.795619 0.868143
Si Si2 0.500000 0.250000 0.250000
Si Si3 0.588100 0.576661 0.215512
Si Si4 0.935690 0.401349 0.968505
Si Si5 0.172376 0.182125 0.877346
Si Si6 0.387217 0.595623 0.945889
Si Si7 0.640836 0.038706 0.221282
Si Si8 0.786696 0.906983 0.631349
O O1 0.554932 0.782781 0.826344
O O2 0.672203 0.741848 0.914264
O O3 0.677228 0.812289 0.753759
O O4 0.636792 0.844358 0.944912
O O5 0.500000 0.581982 0.250000
O O6 0.617661 0.518831 0.243625
O O7 0.646853 0.610180 0.286590
O O8 0.596371 0.588915 0.088533
O O9 0.903561 0.347374 0.918334
O O10 0.908266 0.444221 0.882469
O O11 0.025571 0.405857 0.978130
O O12 0.237135 0.141794 0.907633
O O13 0.379196 0.573789 0.825266
O O14 0.331077 0.567809 0.029986
O O15 0.726150 0.054829 0.187950
#
# Coordination Sequence:
#
# PCOD9505822 Si02
#       8
#    16   4  16  16  16  16  16  16
#     4  10  18  36  67 100 135 170 222 285 338 404
#     4   8  16  28  60 100 132 154 218 276 336 392
#     4  12  26  47  67  96 138 181 224 278 343 416
#     4  11  23  42  71 100 137 173 225 290 340 404
#     4   9  21  39  65 102 132 174 224 276 341 401
#     4  12  22  40  70  99 137 171 225 284 339 410
#     4  11  27  43  69  97 135 179 235 278 342 402
#     4  11  25  44  61  99 136 180 219 278 344 400
#
# _framework density 20.665455000000001
#
# number of rings (size 3 to 8) (size 9 to 14) (size 15 to 20)
#    0.000    1.379    4.138    3.310    5.793    1.655 
#    0.000    1.379    0.000    0.000    0.000    0.000 
#    0.000    0.000    0.000    0.000    0.000    0.000 
#
# Total GULP energy -323725.936387 kJ/mol
# GULP energy per Si atom -5581.481662 kJ/mol
# Density = 2.061842 g / cm^3
# Si number density = 20.665455 Si / 1000 Ang^3
#
#
#
# Elastic Constant Matrix: (Units=GPa)
#
#
# Indices 1 2 3 4 5 6 
#
# 1 120.9145 8.4429 22.5693 0.0000 0.0000 0.0000
# 2 8.4429 62.2554 2.1426 0.0000 0.0000 0.0000
# 3 22.5693 2.1426 85.2301 0.0000 0.0000 0.0000
# 4 0.0000 0.0000 0.0000 13.3276 0.0000 0.0000
# 5 0.0000 0.0000 0.0000 0.0000 38.0823 0.0000
# 6 0.0000 0.0000 0.0000 0.0000 0.0000 22.8489
#
#
#
# Elastic Compliance Matrix: (Units=1/GPa)
#
#
# Indices 1 2 3 4 5 6 
#
# 1 0.008776 -0.001111 -0.002296 0.000000 0.000000 0.000000
# 2 -0.001111 0.016217 -0.000113 0.000000 0.000000 0.000000
# 3 -0.002296 -0.000113 0.012344 0.000000 0.000000 0.000000
# 4 0.000000 0.000000 0.000000 0.075032 0.000000 0.000000
# 5 0.000000 0.000000 0.000000 0.000000 0.026259 0.000000
# 6 0.000000 0.000000 0.000000 0.000000 0.000000 0.043766
#
#
# Mechanical properties :
#
#
# Convention : Reuss Voigt Hill
#
# Bulk Modulus (GPa) = 33.00743 37.18997 35.09870
# Shear Modulus (GPa) = 25.05826 30.53477 27.79652
#
# Velocity S-wave (km/s) = 3.48597 3.84809 3.67150
# Velocity P-wave (km/s) = 5.67535 6.14647 5.91560
#
# Compressibility (1/GPa) = 0.03029621
#
# Stress axis : x y z
#
# Youngs Moduli (GPa) = 113.94094 61.66190 81.01225
#
# Poissons Ratio (x) = 0.06852 0.18601
# Poissons Ratio (y) = 0.12661 0.00919
# Poissons Ratio (z) = 0.26162 0.00700
#
# Static dielectric constant tensor:
#      x y z
#    x 1.760430 0.000000 0.000000 
#    y 0.000000 1.784970 0.000000 
#    z 0.000000 0.000000 1.747050 
# 
# From -- ./inp_files/14928.got.cif
#   From: 2010.05.17/outbox.cif.g08.bks.cpg/sg68_8_cif.got.tgz:14928.got - 2010.06.03 18:57:09.
