data_PCOD9505746
_publ_section_title
;
Structure prediction by ZEFSAII (Michael W. Deem and Ramdas Pophale) SiO2 
 PCOD9505746
Probable space group: C C C A
;
_chemical_formula_sum "Si O2"
_cell_formula_units_Z 80
_cell_length_a 23.773189
_cell_length_b 8.150699
_cell_length_c 21.240345
_cell_angle_alpha 90.000000
_cell_angle_beta 90.000000
_cell_angle_gamma 90.000000
_cell_volume 4115.701460
_symmetry_space_group_name_H-M "C C C A"
_symmetry_group_IT_number 68
_space_group.IT_coordinate_system_code '2'
_symmetry_cell_setting 'orthorhombic'
loop_
_space_group_symop_operation_xyz
x,y,z
-x,1/2-y,z
x,1/2-y,1/2-z
-x,y,1/2-z
-x,-y,-z
x,1/2+y,-z
-x,1/2+y,1/2+z
x,-y,1/2+z
1/2+x,1/2+y,z
1/2-x,-y,z
1/2+x,-y,1/2-z
1/2-x,1/2+y,1/2-z
1/2-x,1/2-y,-z
1/2+x,y,-z
1/2-x,y,1/2+z
1/2+x,1/2-y,1/2+z
loop_
_atom_site_type_symbol
_atom_site_label
_atom_site_fract_x
_atom_site_fract_y
_atom_site_fract_z
Si Si1 0.617273 0.291799 0.523061
Si Si2 0.309387 0.582184 0.934886
Si Si3 0.021512 0.561237 0.316003
Si Si4 0.070344 0.476890 0.591213
Si Si5 0.636981 0.223581 0.322013
O O1 0.641615 0.446149 0.559863
O O2 0.670522 0.216911 0.485063
O O3 0.573800 0.355593 0.469371
O O4 0.594183 0.148756 0.566964
O O5 0.250000 0.500000 0.947464
O O6 0.313192 0.664269 0.866585
O O7 0.087854 0.584884 0.320083
O O8 0.000000 0.750000 0.314665
O O9 0.000000 0.485806 0.250000
O O10 0.990147 0.493297 0.377116
O O11 0.108680 0.383542 0.644021
O O12 0.652879 0.250000 0.250000
#
# Coordination Sequence:
#
# PCOD9505746 Si02
#       5
#    16  16  16  16  16
#     4   9  19  35  54  82 113 138 177 233 274 330
#     4  10  20  36  57  78 107 148 187 227 279 327
#     4   9  14  29  55  78  98 142 185 210 259 333
#     4   9  17  32  55  82 106 140 176 221 278 324
#     4  10  18  34  55  77 104 143 191 224 265 333
#
# _framework density 19.437754999999999
#
# number of rings (size 3 to 8) (size 9 to 14) (size 15 to 20)
#    0.000    2.600    4.000    0.600    0.000    0.000 
#    0.000   31.000    0.000    1.200    0.000    0.000 
#    0.000    0.000    0.000    0.000    0.000    0.000 
#
# Total GULP energy -222912.191735 kJ/mol
# GULP energy per Si atom -5572.804793 kJ/mol
# Density = 1.939351 g / cm^3
# Si number density = 19.437755 Si / 1000 Ang^3
#
#
#
# Elastic Constant Matrix: (Units=GPa)
#
#
# Indices 1 2 3 4 5 6 
#
# 1 31.0462 -9.7043 10.1751 0.0000 0.0000 0.0000
# 2 -9.7043 47.0465 33.5379 0.0000 0.0000 0.0000
# 3 10.1751 33.5379 112.3080 0.0000 0.0000 0.0000
# 4 0.0000 0.0000 0.0000 4.1682 0.0000 0.0000
# 5 0.0000 0.0000 0.0000 0.0000 6.1368 0.0000
# 6 0.0000 0.0000 0.0000 0.0000 0.0000 7.6887
#
#
#
# Elastic Compliance Matrix: (Units=1/GPa)
#
#
# Indices 1 2 3 4 5 6 
#
# 1 0.038851 0.013369 -0.007512 0.000000 0.000000 0.000000
# 2 0.013369 0.031605 -0.010649 0.000000 0.000000 0.000000
# 3 -0.007512 -0.010649 0.012765 0.000000 0.000000 0.000000
# 4 0.000000 0.000000 0.000000 0.239910 0.000000 0.000000
# 5 0.000000 0.000000 0.000000 0.000000 0.162952 0.000000
# 6 0.000000 0.000000 0.000000 0.000000 0.000000 0.130062
#
#
# Mechanical properties :
#
#
# Convention : Reuss Voigt Hill
#
# Bulk Modulus (GPa) = 13.58037 28.71314 21.14675
# Shear Modulus (GPa) = 7.68906 14.02486 10.85696
#
# Velocity S-wave (km/s) = 1.99106 2.68904 2.36593
# Velocity P-wave (km/s) = 3.50536 4.94420 4.28560
#
# Compressibility (1/GPa) = 0.07363571
#
# Stress axis : x y z
#
# Youngs Moduli (GPa) = 25.73936 31.64095 78.34048
#
# Poissons Ratio (x) = -0.42301 0.58851
# Poissons Ratio (y) = -0.34411 0.83426
# Poissons Ratio (z) = 0.19336 0.33695
#
# Static dielectric constant tensor:
#      x y z
#    x 1.707850 0.000000 0.000000 
#    y 0.000000 1.679080 0.000000 
#    z 0.000000 0.000000 1.718640 
# 
# From -- ./inp_files/28338.got.cif
#   From: 2010.05.17/outbox.cif.g08.bks.cpg/sg68_15_cif.got.tgz:28338.got - 2010.06.03 18:57:09.
