data_PCOD9505407
_publ_section_title
;
Structure prediction by ZEFSAII (Michael W. Deem and Ramdas Pophale) SiO2 
 PCOD9505407
Probable space group: C C C A
;
_chemical_formula_sum "Si O2"
_cell_formula_units_Z 88
_cell_length_a 27.037183
_cell_length_b 15.188983
_cell_length_c 12.002476
_cell_angle_alpha 90.000000
_cell_angle_beta 90.000000
_cell_angle_gamma 90.000000
_cell_volume 4929.024568
_symmetry_space_group_name_H-M "C C C A"
_symmetry_group_IT_number 68
_space_group.IT_coordinate_system_code '2'
_symmetry_cell_setting 'orthorhombic'
loop_
_space_group_symop_operation_xyz
x,y,z
-x,1/2-y,z
x,1/2-y,1/2-z
-x,y,1/2-z
-x,-y,-z
x,1/2+y,-z
-x,1/2+y,1/2+z
x,-y,1/2+z
1/2+x,1/2+y,z
1/2-x,-y,z
1/2+x,-y,1/2-z
1/2-x,1/2+y,1/2-z
1/2-x,1/2-y,-z
1/2+x,y,-z
1/2-x,y,1/2+z
1/2+x,1/2-y,1/2+z
loop_
_atom_site_type_symbol
_atom_site_label
_atom_site_fract_x
_atom_site_fract_y
_atom_site_fract_z
Si Si1 0.342490 0.428321 0.165540
Si Si2 0.404832 0.564306 0.862908
Si Si3 0.165670 0.104243 0.085713
Si Si4 0.629859 0.250000 0.750000
Si Si5 0.500000 0.009527 0.750000
Si Si6 0.585108 0.405559 0.886572
Si Si7 0.750000 0.000000 0.796109
O O1 0.373135 0.386521 0.267945
O O2 0.374164 0.518096 0.140830
O O3 0.289150 0.451342 0.216214
O O4 0.337901 0.380946 0.046798
O O5 0.376078 0.470509 0.884852
O O6 0.458674 0.545327 0.814412
O O7 0.410679 0.608940 0.982006
O O8 0.158849 0.190461 0.160693
O O9 0.217341 0.061718 0.124097
O O10 0.598219 0.318795 0.819794
O O11 0.468083 0.062825 0.841485
#
# Coordination Sequence:
#
# PCOD9505407 Si02
#       7
#    16  16  16   8   8  16   8
#     4   9  18  35  57  80 105 155 189 227 276 344
#     4   9  18  35  56  82 109 154 194 229 266 342
#     4  10  20  34  58  80 116 145 188 234 289 336
#     4  12  20  39  52  90 114 146 180 247 294 328
#     4  10  16  33  56  88 109 148 200 226 270 331
#     4  10  20  33  56  84 118 144 189 235 283 333
#     4  10  16  34  58  84 104 148 192 226 276 350
#
# _framework density 17.853431
#
# number of rings (size 3 to 8) (size 9 to 14) (size 15 to 20)
#    0.000    2.182    5.455    1.091    0.000    0.364 
#    0.000    1.818    0.000    0.000    0.000    0.000 
#    0.000    0.000    0.000    0.000    0.000    0.000 
#
# Total GULP energy -245034.483894 kJ/mol
# GULP energy per Si atom -5568.965543 kJ/mol
# Density = 1.781280 g / cm^3
# Si number density = 17.853431 Si / 1000 Ang^3
#
#
#
# Elastic Constant Matrix: (Units=GPa)
#
#
# Indices 1 2 3 4 5 6 
#
# 1 122.6426 19.0257 55.0755 0.0000 0.0000 0.0000
# 2 19.0257 32.9605 31.2722 0.0000 0.0000 0.0000
# 3 55.0755 31.2722 205.4094 0.0000 0.0000 0.0000
# 4 0.0000 0.0000 0.0000 27.6439 0.0000 0.0000
# 5 0.0000 0.0000 0.0000 0.0000 13.6775 0.0000
# 6 0.0000 0.0000 0.0000 0.0000 0.0000 -1.6063
#
#
#
# Elastic Compliance Matrix: (Units=1/GPa)
#
#
# Indices 1 2 3 4 5 6 
#
# 1 0.009628 -0.003633 -0.002028 0.000000 0.000000 0.000000
# 2 -0.003633 0.036833 -0.004633 0.000000 0.000000 0.000000
# 3 -0.002028 -0.004633 0.006118 0.000000 0.000000 0.000000
# 4 0.000000 0.000000 0.000000 0.036174 0.000000 0.000000
# 5 0.000000 0.000000 0.000000 0.000000 0.073113 0.000000
# 6 0.000000 0.000000 0.000000 0.000000 0.000000 -0.622535
#
#
# Mechanical properties :
#
#
# Convention : Reuss Voigt Hill
#
# Bulk Modulus (GPa) = 31.26124 63.52880 47.39502
# Shear Modulus (GPa) = -11.64372 24.98561 6.67095
#
# Velocity S-wave (km/s) = -2.55656 3.74503 1.93510
# Velocity P-wave (km/s) = 2.97208 7.37300 5.62114
#
# Compressibility (1/GPa) = 0.03198849
#
# Stress axis : x y z
#
# Youngs Moduli (GPa) = 103.86019 27.14988 163.46255
#
# Poissons Ratio (x) = 0.09864 0.33158
# Poissons Ratio (y) = 0.37734 0.75738
# Poissons Ratio (z) = 0.21068 0.12580
#
# Static dielectric constant tensor:
#      x y z
#    x 1.605500 0.000000 0.000000 
#    y 0.000000 1.605800 0.000000 
#    z 0.000000 0.000000 1.653570 
# 
# From -- ./inp_files/13374.got.cif
#   From: 2010.05.17/outbox.cif.g08.bks.cpg/sg68_7_cif.got.tgz:13374.got - 2010.06.03 18:57:09.
