data_PCOD9505551
_publ_section_title
;
Structure prediction by ZEFSAII (Michael W. Deem and Ramdas Pophale) SiO2 
 PCOD9505551
Probable space group: C C C A
;
_chemical_formula_sum "Si O2"
_cell_formula_units_Z 100
_cell_length_a 11.727052
_cell_length_b 15.169622
_cell_length_c 29.690552
_cell_angle_alpha 90.000000
_cell_angle_beta 90.000000
_cell_angle_gamma 90.000000
_cell_volume 5281.799145
_symmetry_space_group_name_H-M "C C C A"
_symmetry_group_IT_number 68
_space_group.IT_coordinate_system_code '2'
_symmetry_cell_setting 'orthorhombic'
loop_
_space_group_symop_operation_xyz
x,y,z
-x,1/2-y,z
x,1/2-y,1/2-z
-x,y,1/2-z
-x,-y,-z
x,1/2+y,-z
-x,1/2+y,1/2+z
x,-y,1/2+z
1/2+x,1/2+y,z
1/2-x,-y,z
1/2+x,-y,1/2-z
1/2-x,1/2+y,1/2-z
1/2-x,1/2-y,-z
1/2+x,y,-z
1/2-x,y,1/2+z
1/2+x,1/2-y,1/2+z
loop_
_atom_site_type_symbol
_atom_site_label
_atom_site_fract_x
_atom_site_fract_y
_atom_site_fract_z
Si Si1 0.250000 0.500000 0.510082
Si Si2 0.017197 0.126429 0.614309
Si Si3 0.000000 0.750000 0.032555
Si Si4 0.153967 0.660808 0.962578
Si Si5 0.652831 0.233211 0.167899
Si Si6 0.446462 0.548790 0.076907
Si Si7 0.369877 0.279768 0.622145
Si Si8 0.000000 0.750000 0.250000
O O1 0.242367 0.411576 0.480255
O O2 0.361075 0.496955 0.541843
O O3 0.895847 0.163213 0.631909
O O4 0.032485 0.170344 0.565591
O O5 0.105039 0.172494 0.649156
O O6 0.009484 0.022897 0.607947
O O7 0.892471 0.775881 0.001877
O O8 0.180010 0.719791 0.918800
O O9 0.042205 0.603801 0.949181
O O10 0.787665 0.231966 0.164546
O O11 0.590179 0.208913 0.214408
O O12 0.375960 0.619851 0.105541
O O13 0.500000 0.250000 0.629702
#
# Coordination Sequence:
#
# PCOD9505551 Si02
#       8
#     8  16   8  16  16  16  16   4
#     4  12  24  28  50  70 100 160 212 250 284 304
#     4   9  20  32  55  81 105 148 193 243 281 313
#     4  10  17  36  44  69 114 145 202 242 271 306
#     4  11  23  34  44  72 109 157 199 241 274 319
#     4   9  19  38  62  89 108 134 179 232 288 342
#     4  11  21  35  47  74 108 149 203 234 275 333
#     4  10  22  37  51  79 117 153 185 228 285 336
#     4   8  18  40  70  96 100 128 170 222 278 352
#
# _framework density 18.932943999999999
#
# number of rings (size 3 to 8) (size 9 to 14) (size 15 to 20)
#    0.000    2.240    4.000    1.440    4.480    1.920 
#    0.000    0.400    0.000    0.000   66.560    0.000 
#    0.000    0.000    0.000    0.000    0.000    0.000 
#
# Total GULP energy -278876.309749 kJ/mol
# GULP energy per Si atom -5577.526195 kJ/mol
# Density = 1.888985 g / cm^3
# Si number density = 18.932944 Si / 1000 Ang^3
#
#
#
# Elastic Constant Matrix: (Units=GPa)
#
#
# Indices 1 2 3 4 5 6 
#
# 1 64.1285 13.6229 30.3870 0.0000 0.0000 0.0000
# 2 13.6229 92.1584 20.3528 0.0000 0.0000 0.0000
# 3 30.3870 20.3528 69.2174 0.0000 0.0000 0.0000
# 4 0.0000 0.0000 0.0000 4.7462 0.0000 0.0000
# 5 0.0000 0.0000 0.0000 0.0000 18.2039 0.0000
# 6 0.0000 0.0000 0.0000 0.0000 0.0000 21.9787
#
#
#
# Elastic Compliance Matrix: (Units=1/GPa)
#
#
# Indices 1 2 3 4 5 6 
#
# 1 0.019789 -0.001077 -0.008371 0.000000 0.000000 0.000000
# 2 -0.001077 0.011663 -0.002957 0.000000 0.000000 0.000000
# 3 -0.008371 -0.002957 0.018992 0.000000 0.000000 0.000000
# 4 0.000000 0.000000 0.000000 0.210694 0.000000 0.000000
# 5 0.000000 0.000000 0.000000 0.000000 0.054933 0.000000
# 6 0.000000 0.000000 0.000000 0.000000 0.000000 0.045499
#
#
# Mechanical properties :
#
#
# Convention : Reuss Voigt Hill
#
# Bulk Modulus (GPa) = 39.00925 39.35885 39.18405
# Shear Modulus (GPa) = 12.66071 19.72855 16.19463
#
# Velocity S-wave (km/s) = 2.58875 3.23154 2.92784
# Velocity P-wave (km/s) = 5.43913 5.89555 5.67193
#
# Compressibility (1/GPa) = 0.02563494
#
# Stress axis : x y z
#
# Youngs Moduli (GPa) = 50.53338 85.74110 52.65497
#
# Poissons Ratio (x) = 0.09230 0.44077
# Poissons Ratio (y) = 0.05440 0.15569
# Poissons Ratio (z) = 0.42301 0.25352
#
# Static dielectric constant tensor:
#      x y z
#    x 1.713710 0.000000 0.000000 
#    y 0.000000 1.689670 0.000000 
#    z 0.000000 0.000000 1.654440 
# 
# From -- ./inp_files/54793.got.cif
#   From: 2010.05.17/outbox.cif.g08.bks.cpg/sg68_28_cif.got.tgz:54793.got - 2010.06.03 18:57:09.
