data_PCOD9505583
_publ_section_title
;
Structure prediction by ZEFSAII (Michael W. Deem and Ramdas Pophale) SiO2 
 PCOD9505583
Probable space group: C C C A
;
_chemical_formula_sum "Si O2"
_cell_formula_units_Z 72
_cell_length_a 15.774848
_cell_length_b 12.925532
_cell_length_c 19.282541
_cell_angle_alpha 90.000000
_cell_angle_beta 90.000000
_cell_angle_gamma 90.000000
_cell_volume 3931.677380
_symmetry_space_group_name_H-M "C C C A"
_symmetry_group_IT_number 68
_space_group.IT_coordinate_system_code '2'
_symmetry_cell_setting 'orthorhombic'
loop_
_space_group_symop_operation_xyz
x,y,z
-x,1/2-y,z
x,1/2-y,1/2-z
-x,y,1/2-z
-x,-y,-z
x,1/2+y,-z
-x,1/2+y,1/2+z
x,-y,1/2+z
1/2+x,1/2+y,z
1/2-x,-y,z
1/2+x,-y,1/2-z
1/2-x,1/2+y,1/2-z
1/2-x,1/2-y,-z
1/2+x,y,-z
1/2-x,y,1/2+z
1/2+x,1/2-y,1/2+z
loop_
_atom_site_type_symbol
_atom_site_label
_atom_site_fract_x
_atom_site_fract_y
_atom_site_fract_z
Si Si1 0.760739 0.172707 0.563529
Si Si2 0.479349 0.871411 0.168179
Si Si3 0.297801 0.682558 0.314709
Si Si4 0.250000 0.000000 0.767006
Si Si5 0.372444 0.508326 0.104831
O O1 0.750000 0.250000 0.500000
O O2 0.746399 0.241752 0.631909
O O3 0.845961 0.102970 0.572566
O O4 0.682687 0.091735 0.562189
O O5 0.500000 0.750000 0.153935
O O6 0.500000 0.891060 0.250000
O O7 0.378834 0.877709 0.155591
O O8 0.534261 0.947699 0.119610
O O9 0.331884 0.750000 0.250000
O O10 0.237061 0.598855 0.280701
O O11 0.328585 0.011495 0.818959
#
# Coordination Sequence:
#
# PCOD9505583 Si02
#       5
#    16  16  16   8  16
#     4  10  21  35  53  76 115 153 187 234 284 339
#     4  11  16  28  56  90 111 135 181 238 292 336
#     4  12  18  32  58  87 109 143 191 241 282 344
#     4  10  18  28  52  88 108 140 184 236 278 340
#     4  10  19  33  55  82 113 144 189 237 295 336
#
# _framework density 18.312794
#
# number of rings (size 3 to 8) (size 9 to 14) (size 15 to 20)
#    0.000    1.556   11.111    0.000    0.000    1.778 
#    0.000    1.111    0.000    1.333    0.000    0.000 
#    0.000    0.000    0.000    0.000    0.000    0.000 
#
# Total GULP energy -200463.711325 kJ/mol
# GULP energy per Si atom -5568.436426 kJ/mol
# Density = 1.827111 g / cm^3
# Si number density = 18.312794 Si / 1000 Ang^3
#
#
#
# Elastic Constant Matrix: (Units=GPa)
#
#
# Indices 1 2 3 4 5 6 
#
# 1 56.8599 37.8251 18.6903 0.0000 0.0000 0.0000
# 2 37.8251 114.5071 57.1219 0.0000 0.0000 0.0000
# 3 18.6903 57.1219 65.6808 0.0000 0.0000 0.0000
# 4 0.0000 0.0000 0.0000 39.3568 0.0000 0.0000
# 5 0.0000 0.0000 0.0000 0.0000 8.9445 0.0000
# 6 0.0000 0.0000 0.0000 0.0000 0.0000 31.7858
#
#
#
# Elastic Compliance Matrix: (Units=1/GPa)
#
#
# Indices 1 2 3 4 5 6 
#
# 1 0.022541 -0.007500 0.000108 0.000000 0.000000 0.000000
# 2 -0.007500 0.017921 -0.013451 0.000000 0.000000 0.000000
# 3 0.000108 -0.013451 0.026893 0.000000 0.000000 0.000000
# 4 0.000000 0.000000 0.000000 0.025409 0.000000 0.000000
# 5 0.000000 0.000000 0.000000 0.000000 0.111801 0.000000
# 6 0.000000 0.000000 0.000000 0.000000 0.000000 0.031461
#
#
# Mechanical properties :
#
#
# Convention : Reuss Voigt Hill
#
# Bulk Modulus (GPa) = 38.95828 51.59137 45.27483
# Shear Modulus (GPa) = 17.46628 24.24478 20.85553
#
# Velocity S-wave (km/s) = 3.09167 3.64253 3.37835
# Velocity P-wave (km/s) = 5.83649 6.77673 6.32411
#
# Compressibility (1/GPa) = 0.02566848
#
# Stress axis : x y z
#
# Youngs Moduli (GPa) = 44.36432 55.80144 37.18479
#
# Poissons Ratio (x) = 0.41851 -0.00403
# Poissons Ratio (y) = 0.33273 0.50018
# Poissons Ratio (z) = -0.00481 0.75060
#
# Static dielectric constant tensor:
#      x y z
#    x 1.677910 0.000000 0.000000 
#    y 0.000000 1.677070 0.000000 
#    z 0.000000 0.000000 1.647280 
# 
# From -- ./inp_files/39304.got.cif
#   From: 2010.05.17/outbox.cif.g08.bks.cpg/sg68_20_cif.got.tgz:39304.got - 2010.06.03 18:57:09.
