data_PCOD9505315
_publ_section_title
;
Structure prediction by ZEFSAII (Michael W. Deem and Ramdas Pophale) SiO2 
 PCOD9505315
Probable space group: C C C A
;
_chemical_formula_sum "Si O2"
_cell_formula_units_Z 108
_cell_length_a 21.062905
_cell_length_b 17.036059
_cell_length_c 15.244472
_cell_angle_alpha 90.000000
_cell_angle_beta 90.000000
_cell_angle_gamma 90.000000
_cell_volume 5470.157001
_symmetry_space_group_name_H-M "C C C A"
_symmetry_group_IT_number 68
_space_group.IT_coordinate_system_code '2'
_symmetry_cell_setting 'orthorhombic'
loop_
_space_group_symop_operation_xyz
x,y,z
-x,1/2-y,z
x,1/2-y,1/2-z
-x,y,1/2-z
-x,-y,-z
x,1/2+y,-z
-x,1/2+y,1/2+z
x,-y,1/2+z
1/2+x,1/2+y,z
1/2-x,-y,z
1/2+x,-y,1/2-z
1/2-x,1/2+y,1/2-z
1/2-x,1/2-y,-z
1/2+x,y,-z
1/2-x,y,1/2+z
1/2+x,1/2-y,1/2+z
loop_
_atom_site_type_symbol
_atom_site_label
_atom_site_fract_x
_atom_site_fract_y
_atom_site_fract_z
Si Si1 0.430224 0.969952 0.712386
Si Si2 0.986509 0.588035 0.038745
Si Si3 0.879846 0.916922 0.102489
Si Si4 0.255440 0.818631 0.928768
Si Si5 0.106643 0.137943 0.213276
Si Si6 0.283392 0.250000 0.750000
Si Si7 0.000000 0.750000 0.750000
Si Si8 0.879010 0.101395 0.082198
O O1 0.500000 0.994189 0.750000
O O2 0.397796 0.050058 0.677308
O O3 0.447400 0.917986 0.629235
O O4 0.392257 0.927627 0.791591
O O5 0.056110 0.619662 0.061399
O O6 0.939163 0.630357 0.972838
O O7 0.000000 0.500000 0.000000
O O8 0.818481 0.871292 0.068799
O O9 0.875196 0.007581 0.073432
O O10 0.255214 0.788012 0.828324
O O11 0.189696 0.865580 0.940265
O O12 0.250000 0.750000 0.000000
O O13 0.170464 0.187322 0.201081
O O14 0.106277 0.122547 0.317729
O O15 0.046667 0.193427 0.194683
#
# Coordination Sequence:
#
# PCOD9505315 Si02
#       8
#    16  16  16  16  16   8   4  16
#     4   9  16  30  54  81 112 141 186 231 290 353
#     4   9  18  31  55  90 114 140 183 243 288 341
#     4   9  19  36  58  80 110 155 189 237 290 349
#     4  11  23  40  57  80 114 156 196 242 296 352
#     4   9  17  31  49  77 107 142 177 229 284 342
#     4   9  22  37  50  74 111 146 191 232 282 359
#     4  10  16  24  48  72 104 144 168 202 290 338
#     4   9  19  37  55  82 112 140 191 240 290 345
#
# _framework density 19.743490999999999
#
# number of rings (size 3 to 8) (size 9 to 14) (size 15 to 20)
#    0.000    2.667    0.741    1.333    0.000    3.556 
#    5.333    0.000    0.000    7.111    0.000    0.000 
#    0.000    0.000    0.000    0.000    0.000    0.000 
#
# Total GULP energy -300910.111607 kJ/mol
# GULP energy per Si atom -5572.409474 kJ/mol
# Density = 1.969855 g / cm^3
# Si number density = 19.743491 Si / 1000 Ang^3
#
#
#
# Elastic Constant Matrix: (Units=GPa)
#
#
# Indices 1 2 3 4 5 6 
#
# 1 120.7419 50.1682 44.5617 0.0000 0.0000 0.0000
# 2 50.1682 49.3992 16.3894 0.0000 0.0000 0.0000
# 3 44.5617 16.3894 36.2134 0.0000 0.0000 0.0000
# 4 0.0000 0.0000 0.0000 16.4856 0.0000 0.0000
# 5 0.0000 0.0000 0.0000 0.0000 27.7001 0.0000
# 6 0.0000 0.0000 0.0000 0.0000 0.0000 6.9640
#
#
#
# Elastic Compliance Matrix: (Units=1/GPa)
#
#
# Indices 1 2 3 4 5 6 
#
# 1 0.022488 -0.016070 -0.020399 0.000000 0.000000 0.000000
# 2 -0.016070 0.035304 0.003797 0.000000 0.000000 0.000000
# 3 -0.020399 0.003797 0.050997 0.000000 0.000000 0.000000
# 4 0.000000 0.000000 0.000000 0.060659 0.000000 0.000000
# 5 0.000000 0.000000 0.000000 0.000000 0.036101 0.000000
# 6 0.000000 0.000000 0.000000 0.000000 0.000000 0.143595
#
#
# Mechanical properties :
#
#
# Convention : Reuss Voigt Hill
#
# Bulk Modulus (GPa) = 23.01778 47.62146 35.31962
# Shear Modulus (GPa) = 11.65584 16.57895 14.11739
#
# Velocity S-wave (km/s) = 2.43238 2.90093 2.67692
# Velocity P-wave (km/s) = 4.42406 5.94920 5.24239
#
# Compressibility (1/GPa) = 0.04344468
#
# Stress axis : x y z
#
# Youngs Moduli (GPa) = 44.46856 28.32567 19.60892
#
# Poissons Ratio (x) = 0.45519 0.40000
# Poissons Ratio (y) = 0.71461 -0.07446
# Poissons Ratio (z) = 0.90711 -0.10755
#
# Static dielectric constant tensor:
#      x y z
#    x 1.712080 0.000000 0.000000 
#    y 0.000000 1.814070 0.000000 
#    z 0.000000 0.000000 1.704600 
# 
# From -- ./inp_files/33155.got.cif
#   From: 2010.05.17/outbox.cif.g08.bks.cpg/sg68_17_cif.got.tgz:33155.got - 2010.06.03 18:57:09.
