data_PCOD9505094
_publ_section_title
;
Structure prediction by ZEFSAII (Michael W. Deem and Ramdas Pophale) SiO2 
 PCOD9505094
Probable space group: C M M A
;
_chemical_formula_sum "Si O2"
_cell_formula_units_Z 64
_cell_length_a 14.984727
_cell_length_b 27.007368
_cell_length_c 6.917556
_cell_angle_alpha 90.000000
_cell_angle_beta 90.000000
_cell_angle_gamma 90.000000
_cell_volume 2799.521330
_symmetry_space_group_name_H-M "C M M A"
_symmetry_group_IT_number 67
_symmetry_cell_setting 'orthorhombic'
loop_
_space_group_symop_operation_xyz
x,y,z
-x,1/2-y,z
x,-y,-z
-x,1/2+y,-z
-x,-y,-z
x,1/2+y,-z
-x,y,z
x,1/2-y,z
1/2+x,1/2+y,z
1/2-x,-y,z
1/2+x,1/2-y,-z
1/2-x,y,-z
1/2-x,1/2-y,-z
1/2+x,y,-z
1/2-x,1/2+y,z
1/2+x,-y,z
loop_
_atom_site_type_symbol
_atom_site_label
_atom_site_fract_x
_atom_site_fract_y
_atom_site_fract_z
Si Si1 0.500000 0.250000 0.275959
Si Si2 0.313336 0.568584 0.327098
Si Si3 0.000000 0.061076 0.524918
Si Si4 0.000000 0.137873 0.889648
Si Si5 0.750000 0.000000 0.000000
Si Si6 0.348951 0.250000 0.587638
Si Si7 0.328183 0.163034 0.870662
O O1 0.500000 0.303805 0.174535
O O2 0.413744 0.250000 0.408715
O O3 0.250000 0.551779 0.500000
O O4 0.410778 0.576080 0.413491
O O5 0.309714 0.532086 0.145351
O O6 0.277982 0.620629 0.249457
O O7 0.000000 0.093641 0.726627
O O8 0.000000 0.000000 0.500000
O O9 0.091648 0.136481 0.013328
O O10 0.250000 0.250000 0.500000
O O11 0.365521 0.202886 0.723122
O O12 0.250000 0.186573 0.000000
#
# Coordination Sequence:
#
# PCOD9505094 Si02
#       7
#     4  16   8   8   4   8  16
#     4  12  24  46  68  96 148 184 236 300 352 436
#     4  12  26  48  71 106 143 189 241 299 370 431
#     4  12  27  44  73 103 146 185 244 311 356 446
#     4  12  26  45  70 108 138 200 243 296 377 433
#     4  12  26  46  76 100 140 198 234 298 376 436
#     4  12  24  42  70 104 140 192 240 297 371 426
#     4  12  24  44  70 102 142 184 242 297 355 442
#
# _framework density 22.861049999999999
#
# number of rings (size 3 to 8) (size 9 to 14) (size 15 to 20)
#    0.000    0.000    1.250    9.750    3.500    0.500 
#    0.000    0.000    0.000    0.000    0.000    0.000 
#    0.000    0.000    0.000    0.000    0.000    0.000 
#
# Total GULP energy -178916.161337 kJ/mol
# GULP energy per Si atom -5591.130042 kJ/mol
# Density = 2.280902 g / cm^3
# Si number density = 22.861050 Si / 1000 Ang^3
#
#
#
# Elastic Constant Matrix: (Units=GPa)
#
#
# Indices 1 2 3 4 5 6 
#
# 1 123.7887 -18.4764 41.8372 0.0000 0.0000 0.0000
# 2 -18.4764 129.0805 50.7913 0.0000 0.0000 0.0000
# 3 41.8372 50.7913 128.7647 0.0000 0.0000 0.0000
# 4 0.0000 0.0000 0.0000 -5.3991 0.0000 0.0000
# 5 0.0000 0.0000 0.0000 0.0000 30.1480 0.0000
# 6 0.0000 0.0000 0.0000 0.0000 0.0000 39.4715
#
#
#
# Elastic Compliance Matrix: (Units=1/GPa)
#
#
# Indices 1 2 3 4 5 6 
#
# 1 0.010104 0.003241 -0.004561 0.000000 0.000000 0.000000
# 2 0.003241 0.010210 -0.005080 0.000000 0.000000 0.000000
# 3 -0.004561 -0.005080 0.011252 0.000000 0.000000 0.000000
# 4 0.000000 0.000000 0.000000 -0.185216 0.000000 0.000000
# 5 0.000000 0.000000 0.000000 0.000000 0.033170 0.000000
# 6 0.000000 0.000000 0.000000 0.000000 0.000000 0.025335
#
#
# Mechanical properties :
#
#
# Convention : Reuss Voigt Hill
#
# Bulk Modulus (GPa) = 53.29217 58.88202 56.08710
# Shear Modulus (GPa) = -65.71176 33.34284 -16.18446
#
# Velocity S-wave (km/s) = -5.36716 3.82317 -2.66362
# Velocity P-wave (km/s) = 3.87899 6.73062 3.88939
#
# Compressibility (1/GPa) = 0.01876448
#
# Stress axis : x y z
#
# Youngs Moduli (GPa) = 98.97491 97.94247 88.87270
#
# Poissons Ratio (x) = -0.31743 0.40536
# Poissons Ratio (y) = -0.32077 0.45151
# Poissons Ratio (z) = 0.45144 0.49759
#
# Static dielectric constant tensor:
#      x y z
#    x 1.793830 0.000000 0.000000 
#    y 0.000000 1.891470 0.000000 
#    z 0.000000 0.000000 1.863860 
# 
# From -- ./inp_files/2276.got.cif
#   From: 2010.05.17/outbox.cif.g08.bks.cpg/sg67_2_cif.got.tgz:2276.got - 2010.06.03 18:28:57.
