data_PCOD9505814
_publ_section_title
;
Structure prediction by ZEFSAII (Michael W. Deem and Ramdas Pophale) SiO2 
 PCOD9505814
Probable space group: C C C A
;
_chemical_formula_sum "Si O2"
_cell_formula_units_Z 120
_cell_length_a 14.165235
_cell_length_b 19.611142
_cell_length_c 22.379810
_cell_angle_alpha 90.000000
_cell_angle_beta 90.000000
_cell_angle_gamma 90.000000
_cell_volume 6217.031435
_symmetry_space_group_name_H-M "C C C A"
_symmetry_group_IT_number 68
_space_group.IT_coordinate_system_code '2'
_symmetry_cell_setting 'orthorhombic'
loop_
_space_group_symop_operation_xyz
x,y,z
-x,1/2-y,z
x,1/2-y,1/2-z
-x,y,1/2-z
-x,-y,-z
x,1/2+y,-z
-x,1/2+y,1/2+z
x,-y,1/2+z
1/2+x,1/2+y,z
1/2-x,-y,z
1/2+x,-y,1/2-z
1/2-x,1/2+y,1/2-z
1/2-x,1/2-y,-z
1/2+x,y,-z
1/2-x,y,1/2+z
1/2+x,1/2-y,1/2+z
loop_
_atom_site_type_symbol
_atom_site_label
_atom_site_fract_x
_atom_site_fract_y
_atom_site_fract_z
Si Si1 0.015791 0.105566 0.105352
Si Si2 0.570213 0.394368 0.468818
Si Si3 0.158218 0.030560 0.431071
Si Si4 0.000000 0.250000 0.162084
Si Si5 0.362281 0.110610 0.048460
Si Si6 0.689833 0.238879 0.061384
Si Si7 0.780589 0.571552 0.651588
Si Si8 0.215950 0.776848 0.687737
O O1 0.985558 0.179263 0.128172
O O2 0.108587 0.074739 0.136007
O O3 0.926613 0.055966 0.109600
O O4 0.044925 0.119529 0.037154
O O5 0.626962 0.464355 0.468032
O O6 0.469101 0.412874 0.439539
O O7 0.628535 0.330309 0.443029
O O8 0.168429 0.090012 0.481022
O O9 0.250000 0.000000 0.399064
O O10 0.102962 0.235485 0.190122
O O11 0.369936 0.191479 0.059070
O O12 0.283984 0.079527 0.092095
O O13 0.747286 0.244643 0.124412
O O14 0.750000 0.250000 0.000000
O O15 0.750000 0.500000 0.679988
O O16 0.763713 0.642383 0.685557
O O17 0.257659 0.750000 0.750000
#
# Coordination Sequence:
#
# PCOD9505814 Si02
#       8
#    16  16  16   8  16  16  16  16
#     4  10  21  32  54  89 120 161 203 252 308 362
#     4  11  21  31  50  81 122 161 194 245 313 357
#     4  11  21  31  48  77 130 168 191 243 315 365
#     4  10  21  36  62  86 114 158 201 254 299 368
#     4  10  20  32  51  79 118 153 203 246 292 360
#     4  11  22  35  58  86 117 155 201 253 298 361
#     4  10  18  36  61  83 109 154 213 253 290 357
#     4  10  23  40  62  89 121 160 200 252 311 369
#
# _framework density 19.301817
#
# number of rings (size 3 to 8) (size 9 to 14) (size 15 to 20)
#    0.000    1.600    0.000    8.200    9.333    0.000 
#    0.000    0.000    2.933    6.400    3.467    0.000 
#    0.000    0.000    0.000    0.000    0.000    0.000 
#
# Total GULP energy -334184.594986 kJ/mol
# GULP energy per Si atom -5569.743250 kJ/mol
# Density = 1.925788 g / cm^3
# Si number density = 19.301817 Si / 1000 Ang^3
#
#
#
# Elastic Constant Matrix: (Units=GPa)
#
#
# Indices 1 2 3 4 5 6 
#
# 1 82.7706 40.7021 22.7243 0.0000 0.0000 0.0000
# 2 40.7021 122.7083 30.9718 0.0000 0.0000 0.0000
# 3 22.7243 30.9718 62.8121 0.0000 0.0000 0.0000
# 4 0.0000 0.0000 0.0000 10.2146 0.0000 0.0000
# 5 0.0000 0.0000 0.0000 0.0000 -5.4387 0.0000
# 6 0.0000 0.0000 0.0000 0.0000 0.0000 43.1547
#
#
#
# Elastic Compliance Matrix: (Units=1/GPa)
#
#
# Indices 1 2 3 4 5 6 
#
# 1 0.015049 -0.004132 -0.003407 0.000000 0.000000 0.000000
# 2 -0.004132 0.010442 -0.003654 0.000000 0.000000 0.000000
# 3 -0.003407 -0.003654 0.018955 0.000000 0.000000 0.000000
# 4 0.000000 0.000000 0.000000 0.097899 0.000000 0.000000
# 5 0.000000 0.000000 0.000000 0.000000 -0.183866 0.000000
# 6 0.000000 0.000000 0.000000 0.000000 0.000000 0.023172
#
#
# Mechanical properties :
#
#
# Convention : Reuss Voigt Hill
#
# Bulk Modulus (GPa) = 45.33081 50.78748 48.05915
# Shear Modulus (GPa) = 438.95811 21.17898 230.06854
#
# Velocity S-wave (km/s) = 15.09675 3.31607 10.92950
# Velocity P-wave (km/s) = 18.09471 6.40556 13.57295
#
# Compressibility (1/GPa) = 0.02206005
#
# Stress axis : x y z
#
# Youngs Moduli (GPa) = 66.45093 95.76541 52.75672
#
# Poissons Ratio (x) = 0.39567 0.17975
# Poissons Ratio (y) = 0.27455 0.19278
# Poissons Ratio (z) = 0.22640 0.34994
#
# Static dielectric constant tensor:
#      x y z
#    x 1.739730 0.000000 0.000000 
#    y 0.000000 1.679720 0.000000 
#    z 0.000000 0.000000 1.683460 
# 
# From -- ./inp_files/38942.got.cif
#   From: 2010.05.17/outbox.cif.g08.bks.cpg/sg68_20_cif.got.tgz:38942.got - 2010.06.03 18:57:09.
