data_PCOD9505908
_publ_section_title
;
Structure prediction by ZEFSAII (Michael W. Deem and Ramdas Pophale) SiO2 
 PCOD9505908
Probable space group: C C C A
;
_chemical_formula_sum "Si O2"
_cell_formula_units_Z 112
_cell_length_a 22.794073
_cell_length_b 15.647769
_cell_length_c 15.288832
_cell_angle_alpha 90.000000
_cell_angle_beta 90.000000
_cell_angle_gamma 90.000000
_cell_volume 5453.165388
_symmetry_space_group_name_H-M "C C C A"
_symmetry_group_IT_number 68
_space_group.IT_coordinate_system_code '2'
_symmetry_cell_setting 'orthorhombic'
loop_
_space_group_symop_operation_xyz
x,y,z
-x,1/2-y,z
x,1/2-y,1/2-z
-x,y,1/2-z
-x,-y,-z
x,1/2+y,-z
-x,1/2+y,1/2+z
x,-y,1/2+z
1/2+x,1/2+y,z
1/2-x,-y,z
1/2+x,-y,1/2-z
1/2-x,1/2+y,1/2-z
1/2-x,1/2-y,-z
1/2+x,y,-z
1/2-x,y,1/2+z
1/2+x,1/2-y,1/2+z
loop_
_atom_site_type_symbol
_atom_site_label
_atom_site_fract_x
_atom_site_fract_y
_atom_site_fract_z
Si Si1 0.521951 0.945399 0.149977
Si Si2 0.410416 0.727615 0.147751
Si Si3 0.133711 0.497868 0.721789
Si Si4 0.221986 0.592887 0.990395
Si Si5 0.274759 0.901320 0.686549
Si Si6 0.711171 0.642085 0.349844
Si Si7 0.402641 0.912710 0.098920
O O1 0.500000 0.932371 0.250000
O O2 0.552765 0.856263 0.123696
O O3 0.575007 0.012429 0.164364
O O4 0.463954 0.964927 0.092983
O O5 0.420070 0.750000 0.250000
O O6 0.342395 0.704787 0.132925
O O7 0.422746 0.814565 0.097570
O O8 0.161306 0.416806 0.771385
O O9 0.180041 0.547846 0.660554
O O10 0.120638 0.562502 0.803373
O O11 0.250000 0.500000 0.001872
O O12 0.259884 0.631231 0.909451
O O13 0.154026 0.580536 0.963197
O O14 0.238537 0.642511 0.077803
O O15 0.239127 0.846731 0.755405
O O16 0.250000 0.000000 0.685699
#
# Coordination Sequence:
#
# PCOD9505908 Si02
#       7
#    16  16  16  16  16  16  16
#     4   9  17  25  47  75  95 124 155 190 258 307
#     4  11  17  29  46  71 102 125 154 198 242 302
#     4   9  15  29  46  68  93 120 158 198 239 292
#     4  11  19  31  48  67  96 136 169 200 239 284
#     4   9  15  30  45  65  90 123 171 203 232 285
#     4  10  19  29  47  68  95 132 165 195 243 288
#     4  11  18  28  46  73 101 124 159 196 245 300
#
# _framework density 20.538530000000002
#
# number of rings (size 3 to 8) (size 9 to 14) (size 15 to 20)
#    0.000    2.000    8.571    1.714    0.000    0.571 
#    0.000    0.000    0.000    7.714    0.000    0.000 
#    0.000    0.000    0.000    5.429    0.000    0.000 
#
# Total GULP energy -311833.564866 kJ/mol
# GULP energy per Si atom -5568.456515 kJ/mol
# Density = 2.049178 g / cm^3
# Si number density = 20.538530 Si / 1000 Ang^3
#
#
#
# Elastic Constant Matrix: (Units=GPa)
#
#
# Indices 1 2 3 4 5 6 
#
# 1 97.3796 4.6164 12.5506 0.0000 0.0000 0.0000
# 2 4.6164 15.1850 -4.1333 0.0000 0.0000 0.0000
# 3 12.5506 -4.1333 62.6368 0.0000 0.0000 0.0000
# 4 0.0000 0.0000 0.0000 -3.4885 0.0000 0.0000
# 5 0.0000 0.0000 0.0000 0.0000 25.3278 0.0000
# 6 0.0000 0.0000 0.0000 0.0000 0.0000 24.7854
#
#
#
# Elastic Compliance Matrix: (Units=1/GPa)
#
#
# Indices 1 2 3 4 5 6 
#
# 1 0.010767 -0.003931 -0.002417 0.000000 0.000000 0.000000
# 2 -0.003931 0.068494 0.005307 0.000000 0.000000 0.000000
# 3 -0.002417 0.005307 0.016800 0.000000 0.000000 0.000000
# 4 0.000000 0.000000 0.000000 -0.286652 0.000000 0.000000
# 5 0.000000 0.000000 0.000000 0.000000 0.039482 0.000000
# 6 0.000000 0.000000 0.000000 0.000000 0.000000 0.040346
#
#
# Mechanical properties :
#
#
# Convention : Reuss Voigt Hill
#
# Bulk Modulus (GPa) = 10.64059 22.36321 16.50190
# Shear Modulus (GPa) = -64.63643 20.13610 -22.25016
#
# Velocity S-wave (km/s) = -5.61597 3.13454 -3.29498
# Velocity P-wave (km/s) = 6.07126 4.90026 2.53452
#
# Compressibility (1/GPa) = 0.09397979
#
# Stress axis : x y z
#
# Youngs Moduli (GPa) = 92.87688 14.59979 59.52542
#
# Poissons Ratio (x) = 0.05739 0.14386
# Poissons Ratio (y) = 0.36511 -0.31593
# Poissons Ratio (z) = 0.22446 -0.07749
#
# Static dielectric constant tensor:
#      x y z
#    x 1.849100 0.000000 0.000000 
#    y 0.000000 1.793870 0.000000 
#    z 0.000000 0.000000 1.763830 
# 
# From -- ./inp_files/33225.got.cif
#   From: 2010.05.17/outbox.cif.g08.bks.cpg/sg68_17_cif.got.tgz:33225.got - 2010.06.03 18:57:09.
