data_PCOD9505310
_publ_section_title
;
Structure prediction by ZEFSAII (Michael W. Deem and Ramdas Pophale) SiO2 
 PCOD9505310
Probable space group: C C C A
;
_chemical_formula_sum "Si O2"
_cell_formula_units_Z 88
_cell_length_a 5.893888
_cell_length_b 23.165922
_cell_length_c 31.181806
_cell_angle_alpha 90.000000
_cell_angle_beta 90.000000
_cell_angle_gamma 90.000000
_cell_volume 4257.481150
_symmetry_space_group_name_H-M "C C C A"
_symmetry_group_IT_number 68
_space_group.IT_coordinate_system_code '2'
_symmetry_cell_setting 'orthorhombic'
loop_
_space_group_symop_operation_xyz
x,y,z
-x,1/2-y,z
x,1/2-y,1/2-z
-x,y,1/2-z
-x,-y,-z
x,1/2+y,-z
-x,1/2+y,1/2+z
x,-y,1/2+z
1/2+x,1/2+y,z
1/2-x,-y,z
1/2+x,-y,1/2-z
1/2-x,1/2+y,1/2-z
1/2-x,1/2-y,-z
1/2+x,y,-z
1/2-x,y,1/2+z
1/2+x,1/2-y,1/2+z
loop_
_atom_site_type_symbol
_atom_site_label
_atom_site_fract_x
_atom_site_fract_y
_atom_site_fract_z
Si Si1 0.130688 0.438554 0.682006
Si Si2 0.000000 0.250000 0.662379
Si Si3 0.250000 0.000000 0.976800
Si Si4 0.618587 0.311568 0.622695
Si Si5 0.106751 0.420630 0.096088
Si Si6 0.250000 0.500000 0.355718
Si Si7 0.645135 0.670707 0.291452
O O1 0.250000 0.500000 0.691867
O O2 0.214204 0.417246 0.634987
O O3 0.213595 0.388494 0.713112
O O4 0.869055 0.453283 0.675010
O O5 0.879697 0.296776 0.631610
O O6 0.817324 0.219801 0.692792
O O7 0.229626 0.944346 0.945740
O O8 0.500000 0.000000 0.000000
O O9 0.500000 0.250000 0.612981
O O10 0.534467 0.361592 0.591217
O O11 0.527417 0.333476 0.668738
O O12 0.931529 0.468763 0.114044
O O13 0.500000 0.683387 0.250000
#
# Coordination Sequence:
#
# PCOD9505310 Si02
#       7
#    16   8   8  16  16   8  16
#     4   9  18  33  59  83 110 160 206 251 312 375
#     4  10  20  37  56  90 110 162 216 262 316 366
#     4  12  25  40  62 104 139 168 206 260 337 402
#     4   9  20  36  58  88 116 156 216 259 304 372
#     4  10  19  36  58  88 126 159 200 253 311 378
#     4  10  15  30  60  88 111 162 204 264 301 374
#     4  10  21  35  55  84 121 156 200 264 321 373
#
# _framework density 20.669497
#
# number of rings (size 3 to 8) (size 9 to 14) (size 15 to 20)
#    0.000    2.182    2.727    1.636    0.000    4.727 
#    0.000    0.000   22.000    1.091    0.000    0.000 
#    0.000    0.000    0.000    0.000    0.000    0.000 
#
# Total GULP energy -245521.591474 kJ/mol
# GULP energy per Si atom -5580.036170 kJ/mol
# Density = 2.062245 g / cm^3
# Si number density = 20.669497 Si / 1000 Ang^3
#
#
#
# Elastic Constant Matrix: (Units=GPa)
#
#
# Indices 1 2 3 4 5 6 
#
# 1 112.5778 39.6223 35.9580 0.0000 0.0000 0.0000
# 2 39.6223 127.1731 30.5592 0.0000 0.0000 0.0000
# 3 35.9580 30.5592 52.4936 0.0000 0.0000 0.0000
# 4 0.0000 0.0000 0.0000 12.1228 0.0000 0.0000
# 5 0.0000 0.0000 0.0000 0.0000 22.8650 0.0000
# 6 0.0000 0.0000 0.0000 0.0000 0.0000 38.3065
#
#
#
# Elastic Compliance Matrix: (Units=1/GPa)
#
#
# Indices 1 2 3 4 5 6 
#
# 1 0.011799 -0.002016 -0.006909 0.000000 0.000000 0.000000
# 2 -0.002016 0.009487 -0.004142 0.000000 0.000000 0.000000
# 3 -0.006909 -0.004142 0.026193 0.000000 0.000000 0.000000
# 4 0.000000 0.000000 0.000000 0.082489 0.000000 0.000000
# 5 0.000000 0.000000 0.000000 0.000000 0.043735 0.000000
# 6 0.000000 0.000000 0.000000 0.000000 0.000000 0.026105
#
#
# Mechanical properties :
#
#
# Convention : Reuss Voigt Hill
#
# Bulk Modulus (GPa) = 46.84643 56.05818 51.45230
# Shear Modulus (GPa) = 21.45404 27.06587 24.25995
#
# Velocity S-wave (km/s) = 3.22523 3.62257 3.42966
# Velocity P-wave (km/s) = 6.04840 6.68412 6.37419
#
# Compressibility (1/GPa) = 0.02134635
#
# Stress axis : x y z
#
# Youngs Moduli (GPa) = 84.75337 105.41137 38.17750
#
# Poissons Ratio (x) = 0.21251 0.26375
# Poissons Ratio (y) = 0.17086 0.15812
# Poissons Ratio (z) = 0.58553 0.43658
#
# Static dielectric constant tensor:
#      x y z
#    x 1.821210 0.000000 0.000000 
#    y 0.000000 1.824370 0.000000 
#    z 0.000000 0.000000 1.734440 
# 
# From -- ./inp_files/53282.got.cif
#   From: 2010.05.17/outbox.cif.g08.bks.cpg/sg68_27_cif.got.tgz:53282.got - 2010.06.03 18:57:09.
