data_PCOD9505135
_publ_section_title
;
Structure prediction by ZEFSAII (Michael W. Deem and Ramdas Pophale) SiO2 
 PCOD9505135
Probable space group: C M M A
;
_chemical_formula_sum "Si O2"
_cell_formula_units_Z 80
_cell_length_a 10.420648
_cell_length_b 14.684945
_cell_length_c 25.541875
_cell_angle_alpha 90.000000
_cell_angle_beta 90.000000
_cell_angle_gamma 90.000000
_cell_volume 3908.587381
_symmetry_space_group_name_H-M "C M M A"
_symmetry_group_IT_number 67
_symmetry_cell_setting 'orthorhombic'
loop_
_space_group_symop_operation_xyz
x,y,z
-x,1/2-y,z
x,-y,-z
-x,1/2+y,-z
-x,-y,-z
x,1/2+y,-z
-x,y,z
x,1/2-y,z
1/2+x,1/2+y,z
1/2-x,-y,z
1/2+x,1/2-y,-z
1/2-x,y,-z
1/2-x,1/2-y,-z
1/2+x,y,-z
1/2-x,1/2+y,z
1/2+x,-y,z
loop_
_atom_site_type_symbol
_atom_site_label
_atom_site_fract_x
_atom_site_fract_y
_atom_site_fract_z
Si Si1 0.347099 0.413367 0.267189
Si Si2 0.241028 0.888649 0.377246
Si Si3 0.640671 0.142981 0.037195
Si Si4 0.148278 0.418988 0.847387
Si Si5 0.000000 0.610395 0.445756
Si Si6 0.500000 0.388577 0.566232
O O1 0.500000 0.436236 0.275963
O O2 0.250000 0.500000 0.264170
O O3 0.296678 0.361264 0.318315
O O4 0.338364 0.370374 0.209160
O O5 0.127391 0.860411 0.415730
O O6 0.375529 0.859604 0.401405
O O7 0.250000 0.000000 0.376461
O O8 0.500000 0.102350 0.027612
O O9 0.632419 0.250000 0.025091
O O10 0.668192 0.135022 0.099000
O O11 0.750000 0.103905 0.000000
O O12 0.250000 0.500000 0.848848
O O13 0.000000 0.452456 0.848161
O O14 0.000000 0.640411 0.505812
O O15 0.000000 0.499451 0.439998
#
# Coordination Sequence:
#
# PCOD9505135 Si02
#       6
#    16  16  16  16   8   8
#     4   9  16  25  37  51  71 100 134 171 209 252
#     4   9  15  21  30  42  60  89 125 166 206 247
#     4   9  18  33  52  71  93 121 151 182 218 264
#     4   9  18  31  46  67  92 118 151 187 223 261
#     4   9  14  22  28  40  58  86 124 167 206 242
#     4   9  16  20  28  40  60  86 124 167 208 242
#
# _framework density 20.467752000000001
#
# number of rings (size 3 to 8) (size 9 to 14) (size 15 to 20)
#    0.000    3.000    1.000    0.600    4.200    3.600 
#    0.000    2.000    0.000    0.000    0.000    0.000 
#    0.000    0.000    0.000    0.000    0.000    6.000 
#
# Total GULP energy -222764.895780 kJ/mol
# GULP energy per Si atom -5569.122394 kJ/mol
# Density = 2.042117 g / cm^3
# Si number density = 20.467752 Si / 1000 Ang^3
#
#
#
# Elastic Constant Matrix: (Units=GPa)
#
#
# Indices 1 2 3 4 5 6 
#
# 1 168.1521 12.9035 116.2925 0.0000 0.0000 0.0000
# 2 12.9035 50.5996 7.6691 0.0000 0.0000 0.0000
# 3 116.2925 7.6691 198.7109 0.0000 0.0000 0.0000
# 4 0.0000 0.0000 0.0000 124.5555 0.0000 0.0000
# 5 0.0000 0.0000 0.0000 0.0000 41.7020 0.0000
# 6 0.0000 0.0000 0.0000 0.0000 0.0000 -9.3936
#
#
#
# Elastic Compliance Matrix: (Units=1/GPa)
#
#
# Indices 1 2 3 4 5 6 
#
# 1 0.010133 -0.001695 -0.005865 0.000000 0.000000 0.000000
# 2 -0.001695 0.020163 0.000214 0.000000 0.000000 0.000000
# 3 -0.005865 0.000214 0.008456 0.000000 0.000000 0.000000
# 4 0.000000 0.000000 0.000000 0.008029 0.000000 0.000000
# 5 0.000000 0.000000 0.000000 0.000000 0.023980 0.000000
# 6 0.000000 0.000000 0.000000 0.000000 0.000000 -0.106456
#
#
# Mechanical properties :
#
#
# Convention : Reuss Voigt Hill
#
# Bulk Modulus (GPa) = 41.56225 76.79920 59.18073
# Shear Modulus (GPa) = -385.12966 50.07928 -167.52519
#
# Velocity S-wave (km/s) = -13.73217 4.95182 -9.05682
# Velocity P-wave (km/s) = 15.20131 8.38436 8.96611
#
# Compressibility (1/GPa) = 0.02406029
#
# Stress axis : x y z
#
# Youngs Moduli (GPa) = 98.68588 49.59608 118.25231
#
# Poissons Ratio (x) = 0.08407 0.69353
# Poissons Ratio (y) = 0.16729 -0.02530
# Poissons Ratio (z) = 0.57878 -0.01061
#
# Static dielectric constant tensor:
#      x y z
#    x 1.744920 0.000000 0.000000 
#    y 0.000000 1.743720 0.000000 
#    z 0.000000 0.000000 1.747070 
# 
# From -- ./inp_files/40756.got.cif
#   From: 2010.05.17/outbox.cif.g08.bks.cpg/sg67_21_cif.got.tgz:40756.got - 2010.06.03 18:28:57.
