data_PCOD9505386
_publ_section_title
;
Structure prediction by ZEFSAII (Michael W. Deem and Ramdas Pophale) SiO2 
 PCOD9505386
Probable space group: C C C A
;
_chemical_formula_sum "Si O2"
_cell_formula_units_Z 120
_cell_length_a 17.215022
_cell_length_b 25.927897
_cell_length_c 14.871083
_cell_angle_alpha 90.000000
_cell_angle_beta 90.000000
_cell_angle_gamma 90.000000
_cell_volume 6637.697744
_symmetry_space_group_name_H-M "C C C A"
_symmetry_group_IT_number 68
_space_group.IT_coordinate_system_code '2'
_symmetry_cell_setting 'orthorhombic'
loop_
_space_group_symop_operation_xyz
x,y,z
-x,1/2-y,z
x,1/2-y,1/2-z
-x,y,1/2-z
-x,-y,-z
x,1/2+y,-z
-x,1/2+y,1/2+z
x,-y,1/2+z
1/2+x,1/2+y,z
1/2-x,-y,z
1/2+x,-y,1/2-z
1/2-x,1/2+y,1/2-z
1/2-x,1/2-y,-z
1/2+x,y,-z
1/2-x,y,1/2+z
1/2+x,1/2-y,1/2+z
loop_
_atom_site_type_symbol
_atom_site_label
_atom_site_fract_x
_atom_site_fract_y
_atom_site_fract_z
Si Si1 0.337963 0.522678 0.915494
Si Si2 0.278679 0.876611 0.669313
Si Si3 0.183631 0.539703 0.616515
Si Si4 0.697481 0.703206 0.035408
Si Si5 0.000000 0.153040 0.250000
Si Si6 0.875050 0.777950 0.658179
Si Si7 0.115107 0.433169 0.296631
Si Si8 0.269361 0.854101 0.869068
O O1 0.250000 0.500000 0.907603
O O2 0.334948 0.580654 0.875252
O O3 0.391147 0.482305 0.861465
O O4 0.352811 0.523734 0.021830
O O5 0.250781 0.830759 0.603403
O O6 0.198914 0.907364 0.688017
O O7 0.304534 0.858044 0.768729
O O8 0.250000 0.500000 0.648665
O O9 0.120221 0.547828 0.693545
O O10 0.233773 0.591358 0.601623
O O11 0.626660 0.731982 0.085480
O O12 0.750000 0.750000 0.000000
O O13 0.678002 0.668214 0.949068
O O14 0.951346 0.189543 0.182912
O O15 0.944435 0.113799 0.303714
O O16 0.852133 0.750000 0.750000
O O17 0.806525 0.817823 0.637209
#
# Coordination Sequence:
#
# PCOD9505386 Si02
#       8
#    16  16  16  16   8  16  16  16
#     4   9  18  30  52  79 104 137 171 224 284 342
#     4  10  16  32  50  75 109 134 175 213 281 341
#     4  10  17  31  54  77 105 136 172 217 286 339
#     4  10  20  29  48  75 107 139 172 217 272 335
#     4  12  21  34  54  68 104 150 186 223 270 312
#     4  11  20  34  50  72 103 144 181 219 268 325
#     4  10  20  33  49  75 103 139 181 223 263 332
#     4  10  18  31  50  76 107 139 167 223 276 340
#
# _framework density 18.078558000000001
#
# number of rings (size 3 to 8) (size 9 to 14) (size 15 to 20)
#    0.000    1.867    5.333    2.200    0.000    0.000 
#    0.000    0.667    0.000    0.000    0.000    0.000 
#    0.000    0.000    1.067   40.000    0.267    0.000 
#
# Total GULP energy -334200.346211 kJ/mol
# GULP energy per Si atom -5570.005770 kJ/mol
# Density = 1.803741 g / cm^3
# Si number density = 18.078558 Si / 1000 Ang^3
#
#
#
# Elastic Constant Matrix: (Units=GPa)
#
#
# Indices 1 2 3 4 5 6 
#
# 1 27.7573 21.8257 11.6362 0.0000 0.0000 0.0000
# 2 21.8257 119.6792 55.7957 0.0000 0.0000 0.0000
# 3 11.6362 55.7957 109.3783 0.0000 0.0000 0.0000
# 4 0.0000 0.0000 0.0000 35.1923 0.0000 0.0000
# 5 0.0000 0.0000 0.0000 0.0000 3.6945 0.0000
# 6 0.0000 0.0000 0.0000 0.0000 0.0000 25.5399
#
#
#
# Elastic Compliance Matrix: (Units=1/GPa)
#
#
# Indices 1 2 3 4 5 6 
#
# 1 0.042103 -0.007334 -0.000738 0.000000 0.000000 0.000000
# 2 -0.007334 0.012241 -0.005464 0.000000 0.000000 0.000000
# 3 -0.000738 -0.005464 0.012008 0.000000 0.000000 0.000000
# 4 0.000000 0.000000 0.000000 0.028415 0.000000 0.000000
# 5 0.000000 0.000000 0.000000 0.000000 0.270676 0.000000
# 6 0.000000 0.000000 0.000000 0.000000 0.000000 0.039154
#
#
# Mechanical properties :
#
#
# Convention : Reuss Voigt Hill
#
# Bulk Modulus (GPa) = 25.45835 48.37000 36.91418
# Shear Modulus (GPa) = 11.24196 24.05582 17.64889
#
# Velocity S-wave (km/s) = 2.49638 3.65173 3.12786
# Velocity P-wave (km/s) = 4.73517 6.67786 5.78859
#
# Compressibility (1/GPa) = 0.03927984
#
# Stress axis : x y z
#
# Youngs Moduli (GPa) = 23.75138 81.69601 83.27608
#
# Poissons Ratio (x) = 0.59918 0.06144
# Poissons Ratio (y) = 0.17420 0.45501
# Poissons Ratio (z) = 0.01752 0.44637
#
# Static dielectric constant tensor:
#      x y z
#    x 1.605480 0.000000 0.000000 
#    y 0.000000 1.704730 0.000000 
#    z 0.000000 0.000000 1.684450 
# 
# From -- ./inp_files/24838.got.cif
#   From: 2010.05.17/outbox.cif.g08.bks.cpg/sg68_13_cif.got.tgz:24838.got - 2010.06.03 18:57:09.
