data_PCOD9505087
_publ_section_title
;
Structure prediction by ZEFSAII (Michael W. Deem and Ramdas Pophale) SiO2 
 PCOD9505087
Probable space group: C M M A
;
_chemical_formula_sum "Si O2"
_cell_formula_units_Z 48
_cell_length_a 29.451256
_cell_length_b 15.030165
_cell_length_c 4.979255
_cell_angle_alpha 90.000000
_cell_angle_beta 90.000000
_cell_angle_gamma 90.000000
_cell_volume 2204.103261
_symmetry_space_group_name_H-M "C M M A"
_symmetry_group_IT_number 67
_symmetry_cell_setting 'orthorhombic'
loop_
_space_group_symop_operation_xyz
x,y,z
-x,1/2-y,z
x,-y,-z
-x,1/2+y,-z
-x,-y,-z
x,1/2+y,-z
-x,y,z
x,1/2-y,z
1/2+x,1/2+y,z
1/2-x,-y,z
1/2+x,1/2-y,-z
1/2-x,y,-z
1/2-x,1/2-y,-z
1/2+x,y,-z
1/2-x,1/2+y,z
1/2+x,-y,z
loop_
_atom_site_type_symbol
_atom_site_label
_atom_site_fract_x
_atom_site_fract_y
_atom_site_fract_z
Si Si1 0.500000 0.434724 0.747729
Si Si2 0.648428 0.402858 0.096800
Si Si3 0.093332 0.148669 0.417512
Si Si4 0.216779 0.250000 0.750769
O O1 0.500000 0.500000 0.500000
O O2 0.545453 0.377504 0.713349
O O3 0.500000 0.500000 0.000000
O O4 0.609247 0.409626 0.326033
O O5 0.685418 0.337691 0.227483
O O6 0.664452 0.500000 0.000000
O O7 0.628897 0.359260 0.825910
O O8 0.091505 0.250000 0.517082
O O9 0.250000 0.250000 0.500000
O O10 0.250000 0.250000 0.000000
#
# Coordination Sequence:
#
# PCOD9505087 Si02
#       4
#     8  16  16   8
#     4  12  25  40  63 102 145 188 245 291 336 407
#     4  12  25  46  74 104 142 190 238 291 361 430
#     4  12  23  44  69 102 144 194 241 291 349 418
#     4  12  26  48  76 105 144 179 234 306 364 438
#
# _framework density 21.777564000000002
#
# number of rings (size 3 to 8) (size 9 to 14) (size 15 to 20)
#    0.000    0.000    3.333    8.500    0.000    0.667 
#    0.000    6.667    0.000    0.000    0.000    0.000 
#    0.000    0.000    0.000    0.000    0.000    0.000 
#
# Total GULP energy -134332.622548 kJ/mol
# GULP energy per Si atom -5597.192606 kJ/mol
# Density = 2.172800 g / cm^3
# Si number density = 21.777564 Si / 1000 Ang^3
#
#
#
# Elastic Constant Matrix: (Units=GPa)
#
#
# Indices 1 2 3 4 5 6 
#
# 1 111.4542 54.6835 33.4508 0.0000 0.0000 0.0000
# 2 54.6835 150.6197 28.1846 0.0000 0.0000 0.0000
# 3 33.4508 28.1846 150.1410 0.0000 0.0000 0.0000
# 4 0.0000 0.0000 0.0000 33.5750 0.0000 0.0000
# 5 0.0000 0.0000 0.0000 0.0000 46.1880 0.0000
# 6 0.0000 0.0000 0.0000 0.0000 0.0000 20.9482
#
#
#
# Elastic Compliance Matrix: (Units=1/GPa)
#
#
# Indices 1 2 3 4 5 6 
#
# 1 0.011379 -0.003790 -0.001824 0.000000 0.000000 0.000000
# 2 -0.003790 0.008143 -0.000684 0.000000 0.000000 0.000000
# 3 -0.001824 -0.000684 0.007195 0.000000 0.000000 0.000000
# 4 0.000000 0.000000 0.000000 0.029784 0.000000 0.000000
# 5 0.000000 0.000000 0.000000 0.000000 0.021651 0.000000
# 6 0.000000 0.000000 0.000000 0.000000 0.000000 0.047737
#
#
# Mechanical properties :
#
#
# Convention : Reuss Voigt Hill
#
# Bulk Modulus (GPa) = 70.81379 71.65030 71.23205
# Shear Modulus (GPa) = 34.91807 39.86864 37.39336
#
# Velocity S-wave (km/s) = 4.00859 4.28333 4.14824
# Velocity P-wave (km/s) = 7.34932 7.57859 7.46483
#
# Compressibility (1/GPa) = 0.01412154
#
# Stress axis : x y z
#
# Youngs Moduli (GPa) = 87.87976 122.80076 138.98184
#
# Poissons Ratio (x) = 0.46542 0.25347
# Poissons Ratio (y) = 0.33307 0.09510
# Poissons Ratio (z) = 0.16027 0.08403
#
# Static dielectric constant tensor:
#      x y z
#    x 1.904760 0.000000 0.000000 
#    y 0.000000 1.332820 0.000000 
#    z 0.000000 0.000000 1.747290 
# 
# From -- ./inp_files/3821.got.cif
#   From: 2010.05.17/outbox.cif.g08.bks.cpg/sg67_2_cif.got.tgz:3821.got - 2010.06.03 18:28:57.
