data_PCOD9505095
_publ_section_title
;
Structure prediction by ZEFSAII (Michael W. Deem and Ramdas Pophale) SiO2 
 PCOD9505095
Probable space group: C M M A
;
_chemical_formula_sum "Si O2"
_cell_formula_units_Z 60
_cell_length_a 18.522149
_cell_length_b 23.378284
_cell_length_c 6.595002
_cell_angle_alpha 90.000000
_cell_angle_beta 90.000000
_cell_angle_gamma 90.000000
_cell_volume 2855.741779
_symmetry_space_group_name_H-M "C M M A"
_symmetry_group_IT_number 67
_symmetry_cell_setting 'orthorhombic'
loop_
_space_group_symop_operation_xyz
x,y,z
-x,1/2-y,z
x,-y,-z
-x,1/2+y,-z
-x,-y,-z
x,1/2+y,-z
-x,y,z
x,1/2-y,z
1/2+x,1/2+y,z
1/2-x,-y,z
1/2+x,1/2-y,-z
1/2-x,y,-z
1/2-x,1/2-y,-z
1/2+x,y,-z
1/2-x,1/2+y,z
1/2+x,-y,z
loop_
_atom_site_type_symbol
_atom_site_label
_atom_site_fract_x
_atom_site_fract_y
_atom_site_fract_z
Si Si1 0.000000 0.939150 0.122169
Si Si2 0.649595 0.445008 0.359990
Si Si3 0.250000 0.913167 0.000000
Si Si4 0.500000 0.182834 0.871973
Si Si5 0.653384 0.847141 0.303792
Si Si6 0.750000 0.250000 0.500000
O O1 0.071972 0.942558 0.254585
O O2 0.000000 0.876240 0.010025
O O3 0.000000 0.000000 0.000000
O O4 0.656521 0.500000 0.500000
O O5 0.709652 0.444380 0.184300
O O6 0.653554 0.391569 0.511069
O O7 0.186432 0.876663 0.895618
O O8 0.500000 0.250000 0.955148
O O9 0.573267 0.175795 0.742605
O O10 0.707908 0.798636 0.368494
#
# Coordination Sequence:
#
# PCOD9505095 Si02
#       6
#     8  16   8   8  16   4
#     4  12  26  53  76 107 151 206 255 317 396 455
#     4  12  27  48  76 110 149 198 258 316 384 466
#     4  12  26  48  76 110 152 195 253 314 386 460
#     4  12  25  47  81 114 150 204 268 314 373 469
#     4  12  26  50  74 113 155 201 253 312 384 457
#     4  12  24  48  74 112 158 200 236 316 384 438
#
# _framework density 21.010303
#
# number of rings (size 3 to 8) (size 9 to 14) (size 15 to 20)
#    0.000    0.000    6.667    2.800    0.000    3.733 
#    7.200    0.000    0.000    0.000    0.000    0.000 
#    0.000    0.000    0.000    0.000    0.000    0.000 
#
# Total GULP energy -167191.445024 kJ/mol
# GULP energy per Si atom -5573.048167 kJ/mol
# Density = 2.096248 g / cm^3
# Si number density = 21.010303 Si / 1000 Ang^3
#
#
#
# Elastic Constant Matrix: (Units=GPa)
#
#
# Indices 1 2 3 4 5 6 
#
# 1 121.5470 25.6306 54.0675 0.0000 0.0000 0.0000
# 2 25.6306 180.2597 85.6119 0.0000 0.0000 0.0000
# 3 54.0675 85.6119 121.5398 0.0000 0.0000 0.0000
# 4 0.0000 0.0000 0.0000 17.7357 0.0000 0.0000
# 5 0.0000 0.0000 0.0000 0.0000 64.2958 0.0000
# 6 0.0000 0.0000 0.0000 0.0000 0.0000 53.6493
#
#
#
# Elastic Compliance Matrix: (Units=1/GPa)
#
#
# Indices 1 2 3 4 5 6 
#
# 1 0.010395 0.001079 -0.005384 0.000000 0.000000 0.000000
# 2 0.001079 0.008448 -0.006431 0.000000 0.000000 0.000000
# 3 -0.005384 -0.006431 0.015153 0.000000 0.000000 0.000000
# 4 0.000000 0.000000 0.000000 0.056384 0.000000 0.000000
# 5 0.000000 0.000000 0.000000 0.000000 0.015553 0.000000
# 6 0.000000 0.000000 0.000000 0.000000 0.000000 0.018640
#
#
# Mechanical properties :
#
#
# Convention : Reuss Voigt Hill
#
# Bulk Modulus (GPa) = 79.84814 83.77404 81.81109
# Shear Modulus (GPa) = 33.28455 44.33859 38.81157
#
# Velocity S-wave (km/s) = 3.98452 4.59881 4.30264
# Velocity P-wave (km/s) = 7.69775 8.25580 7.98165
#
# Compressibility (1/GPa) = 0.01252377
#
# Stress axis : x y z
#
# Youngs Moduli (GPa) = 96.20179 118.36423 65.99310
#
# Poissons Ratio (x) = -0.12774 0.35533
# Poissons Ratio (y) = -0.10382 0.42441
# Poissons Ratio (z) = 0.51799 0.76122
#
# Static dielectric constant tensor:
#      x y z
#    x 1.716940 0.000000 0.000000 
#    y 0.000000 1.801720 0.000000 
#    z 0.000000 0.000000 1.727310 
# 
# From -- ./inp_files/2790.got.cif
#   From: 2010.05.17/outbox.cif.g08.bks.cpg/sg67_2_cif.got.tgz:2790.got - 2010.06.03 18:28:57.
