data_PCOD9505480
_publ_section_title
;
Structure prediction by ZEFSAII (Michael W. Deem and Ramdas Pophale) SiO2 
 PCOD9505480
Probable space group: C C C A
;
_chemical_formula_sum "Si O2"
_cell_formula_units_Z 68
_cell_length_a 14.206085
_cell_length_b 18.683134
_cell_length_c 14.702439
_cell_angle_alpha 90.000000
_cell_angle_beta 90.000000
_cell_angle_gamma 90.000000
_cell_volume 3902.235933
_symmetry_space_group_name_H-M "C C C A"
_symmetry_group_IT_number 68
_space_group.IT_coordinate_system_code '2'
_symmetry_cell_setting 'orthorhombic'
loop_
_space_group_symop_operation_xyz
x,y,z
-x,1/2-y,z
x,1/2-y,1/2-z
-x,y,1/2-z
-x,-y,-z
x,1/2+y,-z
-x,1/2+y,1/2+z
x,-y,1/2+z
1/2+x,1/2+y,z
1/2-x,-y,z
1/2+x,-y,1/2-z
1/2-x,1/2+y,1/2-z
1/2-x,1/2-y,-z
1/2+x,y,-z
1/2-x,y,1/2+z
1/2+x,1/2-y,1/2+z
loop_
_atom_site_type_symbol
_atom_site_label
_atom_site_fract_x
_atom_site_fract_y
_atom_site_fract_z
Si Si1 0.500000 0.250000 0.750000
Si Si2 0.132317 0.629988 0.687464
Si Si3 0.478676 0.488047 0.144714
Si Si4 0.297176 0.420873 0.074716
Si Si5 0.169102 0.054218 0.123666
O O1 0.568504 0.200096 0.690136
O O2 0.072484 0.565201 0.644206
O O3 0.231602 0.630723 0.634756
O O4 0.146598 0.605635 0.792397
O O5 0.500000 0.470792 0.250000
O O6 0.404766 0.430889 0.106965
O O7 0.579121 0.504072 0.099153
O O8 0.250000 0.500000 0.084724
O O9 0.298505 0.405931 0.967320
O O10 0.250000 0.000000 0.155373
#
# Coordination Sequence:
#
# PCOD9505480 Si02
#       5
#     4  16  16  16  16
#     4  12  20  36  56  64  98 146 184 222 244 292
#     4  10  19  33  50  73 100 135 179 207 251 304
#     4   9  15  29  48  76 106 130 160 204 259 313
#     4   9  18  29  49  77 107 129 159 213 269 316
#     4  10  17  29  50  81 107 130 158 208 267 317
#
# _framework density 17.425906999999999
#
# number of rings (size 3 to 8) (size 9 to 14) (size 15 to 20)
#    0.000    2.353    3.529    4.235    0.000    0.000 
#    0.000    1.176    0.000    0.000    0.000    1.647 
#    0.000    0.000    0.000    0.000    0.000    0.000 
#
# Total GULP energy -189362.649799 kJ/mol
# GULP energy per Si atom -5569.489700 kJ/mol
# Density = 1.738625 g / cm^3
# Si number density = 17.425907 Si / 1000 Ang^3
#
#
#
# Elastic Constant Matrix: (Units=GPa)
#
#
# Indices 1 2 3 4 5 6 
#
# 1 113.7847 31.1855 33.7771 0.0000 0.0000 0.0000
# 2 31.1855 48.6714 19.5100 0.0000 0.0000 0.0000
# 3 33.7771 19.5100 46.3202 0.0000 0.0000 0.0000
# 4 0.0000 0.0000 0.0000 8.6101 0.0000 0.0000
# 5 0.0000 0.0000 0.0000 0.0000 13.0239 0.0000
# 6 0.0000 0.0000 0.0000 0.0000 0.0000 28.3461
#
#
#
# Elastic Compliance Matrix: (Units=1/GPa)
#
#
# Indices 1 2 3 4 5 6 
#
# 1 0.012188 -0.005110 -0.006736 0.000000 0.000000 0.000000
# 2 -0.005110 0.026862 -0.007588 0.000000 0.000000 0.000000
# 3 -0.006736 -0.007588 0.029697 0.000000 0.000000 0.000000
# 4 0.000000 0.000000 0.000000 0.116142 0.000000 0.000000
# 5 0.000000 0.000000 0.000000 0.000000 0.076782 0.000000
# 6 0.000000 0.000000 0.000000 0.000000 0.000000 0.035278
#
#
# Mechanical properties :
#
#
# Convention : Reuss Voigt Hill
#
# Bulk Modulus (GPa) = 33.46742 41.96909 37.71825
# Shear Modulus (GPa) = 14.46022 18.28293 16.37158
#
# Velocity S-wave (km/s) = 2.88377 3.24262 3.06845
# Velocity P-wave (km/s) = 5.50776 6.17706 5.85199
#
# Compressibility (1/GPa) = 0.02987981
#
# Stress axis : x y z
#
# Youngs Moduli (GPa) = 82.04491 37.22800 33.67369
#
# Poissons Ratio (x) = 0.19022 0.22682
# Poissons Ratio (y) = 0.41921 0.25552
# Poissons Ratio (z) = 0.55264 0.28249
#
# Static dielectric constant tensor:
#      x y z
#    x 1.656280 0.000000 0.000000 
#    y 0.000000 1.564000 0.000000 
#    z 0.000000 0.000000 1.620590 
# 
# From -- ./inp_files/20659.got.cif
#   From: 2010.05.17/outbox.cif.g08.bks.cpg/sg68_11_cif.got.tgz:20659.got - 2010.06.03 18:57:09.
