data_PCOD9505792
_publ_section_title
;
Structure prediction by ZEFSAII (Michael W. Deem and Ramdas Pophale) SiO2 
 PCOD9505792
Probable space group: C C C A
;
_chemical_formula_sum "Si O2"
_cell_formula_units_Z 108
_cell_length_a 13.066098
_cell_length_b 21.013583
_cell_length_c 16.877713
_cell_angle_alpha 90.000000
_cell_angle_beta 90.000000
_cell_angle_gamma 90.000000
_cell_volume 4634.038296
_symmetry_space_group_name_H-M "C C C A"
_symmetry_group_IT_number 68
_space_group.IT_coordinate_system_code '2'
_symmetry_cell_setting 'orthorhombic'
loop_
_space_group_symop_operation_xyz
x,y,z
-x,1/2-y,z
x,1/2-y,1/2-z
-x,y,1/2-z
-x,-y,-z
x,1/2+y,-z
-x,1/2+y,1/2+z
x,-y,1/2+z
1/2+x,1/2+y,z
1/2-x,-y,z
1/2+x,-y,1/2-z
1/2-x,1/2+y,1/2-z
1/2-x,1/2-y,-z
1/2+x,y,-z
1/2-x,y,1/2+z
1/2+x,1/2-y,1/2+z
loop_
_atom_site_type_symbol
_atom_site_label
_atom_site_fract_x
_atom_site_fract_y
_atom_site_fract_z
Si Si1 0.192122 0.825543 0.520575
Si Si2 0.630904 0.840025 0.861392
Si Si3 0.542727 0.533562 0.660505
Si Si4 0.500000 0.250000 0.250000
Si Si5 0.250000 0.000000 0.238828
Si Si6 0.154114 0.805660 0.902471
Si Si7 0.529009 0.098646 0.901022
Si Si8 0.672431 0.870232 0.254514
O O1 0.305828 0.824290 0.559964
O O2 0.136238 0.764965 0.561912
O O3 0.229023 0.820870 0.430478
O O4 0.122982 0.885885 0.540256
O O5 0.551097 0.897200 0.877223
O O6 0.569653 0.789660 0.810313
O O7 0.727422 0.856538 0.805584
O O8 0.500000 0.538436 0.750000
O O9 0.659637 0.516584 0.678882
O O10 0.499834 0.475263 0.609766
O O11 0.204870 0.061309 0.284898
O O12 0.933741 0.643041 0.922999
O O13 0.154389 0.814553 0.807724
O O14 0.578610 0.118495 0.815196
#
# Coordination Sequence:
#
# PCOD9505792 Si02
#       8
#    16  16  16   4   8  16  16  16
#     4  10  24  41  56  87 132 168 207 254 322 384
#     4  10  21  38  58  91 124 163 208 259 307 373
#     4  10  18  35  61  92 123 155 206 260 320 374
#     4  12  20  36  60  92 114 168 216 244 296 376
#     4   8  16  30  54  88 122 154 184 256 324 362
#     4  11  21  40  61  89 126 166 211 262 317 381
#     4  10  20  38  66  92 119 162 209 263 319 367
#     4   9  18  35  61  90 121 154 208 264 307 365
#
# _framework density 23.305806
#
# number of rings (size 3 to 8) (size 9 to 14) (size 15 to 20)
#    0.000    2.074    0.741    4.444    0.000    1.778 
#    8.000    6.667    0.000    0.000    0.000    0.000 
#    0.000    0.000    0.000    0.000    0.000    0.000 
#
# Total GULP energy -300943.148913 kJ/mol
# GULP energy per Si atom -5573.021276 kJ/mol
# Density = 2.325276 g / cm^3
# Si number density = 23.305806 Si / 1000 Ang^3
#
#
#
# Elastic Constant Matrix: (Units=GPa)
#
#
# Indices 1 2 3 4 5 6 
#
# 1 70.5331 30.3557 6.8951 0.0000 0.0000 0.0000
# 2 30.3557 110.9682 14.9001 0.0000 0.0000 0.0000
# 3 6.8951 14.9001 34.1901 0.0000 0.0000 0.0000
# 4 0.0000 0.0000 0.0000 116.6252 0.0000 0.0000
# 5 0.0000 0.0000 0.0000 0.0000 23.5205 0.0000
# 6 0.0000 0.0000 0.0000 0.0000 0.0000 26.4612
#
#
#
# Elastic Compliance Matrix: (Units=1/GPa)
#
#
# Indices 1 2 3 4 5 6 
#
# 1 0.016134 -0.004224 -0.001413 0.000000 0.000000 0.000000
# 2 -0.004224 0.010677 -0.003801 0.000000 0.000000 0.000000
# 3 -0.001413 -0.003801 0.031190 0.000000 0.000000 0.000000
# 4 0.000000 0.000000 0.000000 0.008574 0.000000 0.000000
# 5 0.000000 0.000000 0.000000 0.000000 0.042516 0.000000
# 6 0.000000 0.000000 0.000000 0.000000 0.000000 0.037791
#
#
# Mechanical properties :
#
#
# Convention : Reuss Voigt Hill
#
# Bulk Modulus (GPa) = 25.55930 35.55479 30.55704
# Shear Modulus (GPa) = 27.96413 44.22407 36.09410
#
# Velocity S-wave (km/s) = 3.46768 4.36082 3.93964
# Velocity P-wave (km/s) = 5.19845 6.37531 5.81672
#
# Compressibility (1/GPa) = 0.03912470
#
# Stress axis : x y z
#
# Youngs Moduli (GPa) = 61.98230 93.65557 32.06175
#
# Poissons Ratio (x) = 0.39557 0.04530
# Poissons Ratio (y) = 0.26179 0.12188
# Poissons Ratio (z) = 0.08758 0.35603
#
# Static dielectric constant tensor:
#      x y z
#    x 1.558330 0.000000 0.000000 
#    y 0.000000 2.127370 0.000000 
#    z 0.000000 0.000000 1.976810 
# 
# From -- ./inp_files/32288.got.cif
#   From: 2010.05.17/outbox.cif.g08.bks.cpg/sg68_17_cif.got.tgz:32288.got - 2010.06.03 18:57:09.
