data_PCOD9505795
_publ_section_title
;
Structure prediction by ZEFSAII (Michael W. Deem and Ramdas Pophale) SiO2 
 PCOD9505795
Probable space group: C C C A
;
_chemical_formula_sum "Si O2"
_cell_formula_units_Z 80
_cell_length_a 12.508994
_cell_length_b 23.331286
_cell_length_c 14.183227
_cell_angle_alpha 90.000000
_cell_angle_beta 90.000000
_cell_angle_gamma 90.000000
_cell_volume 4139.387800
_symmetry_space_group_name_H-M "C C C A"
_symmetry_group_IT_number 68
_space_group.IT_coordinate_system_code '2'
_symmetry_cell_setting 'orthorhombic'
loop_
_space_group_symop_operation_xyz
x,y,z
-x,1/2-y,z
x,1/2-y,1/2-z
-x,y,1/2-z
-x,-y,-z
x,1/2+y,-z
-x,1/2+y,1/2+z
x,-y,1/2+z
1/2+x,1/2+y,z
1/2-x,-y,z
1/2+x,-y,1/2-z
1/2-x,1/2+y,1/2-z
1/2-x,1/2-y,-z
1/2+x,y,-z
1/2-x,y,1/2+z
1/2+x,1/2-y,1/2+z
loop_
_atom_site_type_symbol
_atom_site_label
_atom_site_fract_x
_atom_site_fract_y
_atom_site_fract_z
Si Si1 0.937682 0.341148 0.152101
Si Si2 0.859583 0.673589 0.977841
Si Si3 0.040772 0.972705 0.646980
Si Si4 0.730762 0.259917 0.143504
Si Si5 0.844707 0.041788 0.003040
O O1 0.909590 0.408757 0.151487
O O2 0.833643 0.302229 0.146109
O O3 0.000000 0.329685 0.250000
O O4 0.023158 0.328517 0.069350
O O5 0.777495 0.702476 0.904145
O O6 0.853009 0.711463 0.072121
O O7 0.821823 0.609028 0.998645
O O8 0.000000 0.988749 0.750000
O O9 0.939853 0.966362 0.577717
O O10 0.117004 0.018618 0.598340
O O11 0.693578 0.250000 0.250000
O O12 0.750000 0.000000 0.033217
#
# Coordination Sequence:
#
# PCOD9505795 Si02
#       5
#    16  16  16  16  16
#     4  10  18  35  63  85 107 151 195 235 279 329
#     4  10  22  35  57  89 115 145 193 236 280 334
#     4   9  20  36  57  86 113 144 195 231 272 342
#     4  11  21  36  59  87 116 148 191 238 278 335
#     4  10  20  38  57  81 117 151 183 231 287 333
#
# _framework density 19.326529000000001
#
# number of rings (size 3 to 8) (size 9 to 14) (size 15 to 20)
#    0.000    2.000    2.000    1.800    0.000    0.800 
#    3.600    0.000    0.000    1.200    0.000    0.000 
#    0.000    0.000    0.000    0.000    0.000    0.000 
#
# Total GULP energy -223429.820566 kJ/mol
# GULP energy per Si atom -5585.745514 kJ/mol
# Density = 1.928254 g / cm^3
# Si number density = 19.326529 Si / 1000 Ang^3
#
#
#
# Elastic Constant Matrix: (Units=GPa)
#
#
# Indices 1 2 3 4 5 6 
#
# 1 20.6628 21.0030 14.5977 0.0000 0.0000 0.0000
# 2 21.0030 113.0438 41.2892 0.0000 0.0000 0.0000
# 3 14.5977 41.2892 133.7827 0.0000 0.0000 0.0000
# 4 0.0000 0.0000 0.0000 22.4163 0.0000 0.0000
# 5 0.0000 0.0000 0.0000 0.0000 17.8663 0.0000
# 6 0.0000 0.0000 0.0000 0.0000 0.0000 10.4803
#
#
#
# Elastic Compliance Matrix: (Units=1/GPa)
#
#
# Indices 1 2 3 4 5 6 
#
# 1 0.061138 -0.010056 -0.003567 0.000000 0.000000 0.000000
# 2 -0.010056 0.011624 -0.002490 0.000000 0.000000 0.000000
# 3 -0.003567 -0.002490 0.008633 0.000000 0.000000 0.000000
# 4 0.000000 0.000000 0.000000 0.044610 0.000000 0.000000
# 5 0.000000 0.000000 0.000000 0.000000 0.055971 0.000000
# 6 0.000000 0.000000 0.000000 0.000000 0.000000 0.095417
#
#
# Mechanical properties :
#
#
# Convention : Reuss Voigt Hill
#
# Bulk Modulus (GPa) = 20.33876 46.80767 33.57322
# Shear Modulus (GPa) = 15.33694 22.85921 19.09807
#
# Velocity S-wave (km/s) = 2.82009 3.44290 3.14694
# Velocity P-wave (km/s) = 4.59897 6.33062 5.53296
#
# Compressibility (1/GPa) = 0.04916720
#
# Stress axis : x y z
#
# Youngs Moduli (GPa) = 16.35636 86.02824 115.83952
#
# Poissons Ratio (x) = 0.86512 0.41325
# Poissons Ratio (y) = 0.16448 0.28847
# Poissons Ratio (z) = 0.05835 0.21423
#
# Static dielectric constant tensor:
#      x y z
#    x 1.673470 0.000000 0.000000 
#    y 0.000000 1.689920 0.000000 
#    z 0.000000 0.000000 1.670640 
# 
# From -- ./inp_files/13411.got.cif
#   From: 2010.05.17/outbox.cif.g08.bks.cpg/sg68_7_cif.got.tgz:13411.got - 2010.06.03 18:57:09.
