data_PCOD9505499
_publ_section_title
;
Structure prediction by ZEFSAII (Michael W. Deem and Ramdas Pophale) SiO2 
 PCOD9505499
Probable space group: C C C A
;
_chemical_formula_sum "Si O2"
_cell_formula_units_Z 72
_cell_length_a 5.560448
_cell_length_b 31.200714
_cell_length_c 18.845893
_cell_angle_alpha 90.000000
_cell_angle_beta 90.000000
_cell_angle_gamma 90.000000
_cell_volume 3269.572992
_symmetry_space_group_name_H-M "C C C A"
_symmetry_group_IT_number 68
_space_group.IT_coordinate_system_code '2'
_symmetry_cell_setting 'orthorhombic'
loop_
_space_group_symop_operation_xyz
x,y,z
-x,1/2-y,z
x,1/2-y,1/2-z
-x,y,1/2-z
-x,-y,-z
x,1/2+y,-z
-x,1/2+y,1/2+z
x,-y,1/2+z
1/2+x,1/2+y,z
1/2-x,-y,z
1/2+x,-y,1/2-z
1/2-x,1/2+y,1/2-z
1/2-x,1/2-y,-z
1/2+x,y,-z
1/2-x,y,1/2+z
1/2+x,1/2-y,1/2+z
loop_
_atom_site_type_symbol
_atom_site_label
_atom_site_fract_x
_atom_site_fract_y
_atom_site_fract_z
Si Si1 0.380895 0.935613 0.503328
Si Si2 0.124473 0.907647 0.848428
Si Si3 0.117324 0.375674 0.857257
Si Si4 0.750000 0.000000 0.209222
Si Si5 0.523875 0.300823 0.041386
O O1 0.630700 0.959572 0.498776
O O2 0.381110 0.904574 0.434489
O O3 0.385679 0.908247 0.575056
O O4 0.364839 0.885577 0.820123
O O5 0.158242 0.958158 0.832686
O O6 0.872668 0.887866 0.823004
O O7 0.087766 0.328386 0.889262
O O8 0.500000 0.012816 0.250000
O O9 0.500000 0.250000 0.054802
O O10 0.257980 0.310692 0.008725
#
# Coordination Sequence:
#
# PCOD9505499 Si02
#       5
#    16  16  16   8  16
#     4   8  14  25  44  68  95 125 158 193 232 288
#     4  10  20  34  54  73  96 137 174 214 271 320
#     4  10  17  31  51  77 109 142 175 207 247 307
#     4  12  26  44  58  74 100 126 172 240 294 336
#     4  10  18  27  44  74 115 159 188 205 235 288
#
# _framework density 22.021224
#
# number of rings (size 3 to 8) (size 9 to 14) (size 15 to 20)
#    0.000    2.222    0.000    6.667    0.000    0.000 
#    0.000   10.000    0.000    0.000    0.000    0.000 
#    0.000   13.333    0.000    0.000    0.000    0.000 
#
# Total GULP energy -200557.601867 kJ/mol
# GULP energy per Si atom -5571.044496 kJ/mol
# Density = 2.197110 g / cm^3
# Si number density = 22.021224 Si / 1000 Ang^3
#
#
#
# Elastic Constant Matrix: (Units=GPa)
#
#
# Indices 1 2 3 4 5 6 
#
# 1 291.3697 62.6963 44.1643 0.0000 0.0000 0.0000
# 2 62.6963 112.6052 15.5159 0.0000 0.0000 0.0000
# 3 44.1643 15.5159 57.1894 0.0000 0.0000 0.0000
# 4 0.0000 0.0000 0.0000 -13.6456 0.0000 0.0000
# 5 0.0000 0.0000 0.0000 0.0000 37.6179 0.0000
# 6 0.0000 0.0000 0.0000 0.0000 0.0000 27.2835
#
#
#
# Elastic Compliance Matrix: (Units=1/GPa)
#
#
# Indices 1 2 3 4 5 6 
#
# 1 0.004282 -0.002003 -0.002763 0.000000 0.000000 0.000000
# 2 -0.002003 0.010163 -0.001210 0.000000 0.000000 0.000000
# 3 -0.002763 -0.001210 0.019948 0.000000 0.000000 0.000000
# 4 0.000000 0.000000 0.000000 -0.073284 0.000000 0.000000
# 5 0.000000 0.000000 0.000000 0.000000 0.026583 0.000000
# 6 0.000000 0.000000 0.000000 0.000000 0.000000 0.036652
#
#
# Mechanical properties :
#
#
# Convention : Reuss Voigt Hill
#
# Bulk Modulus (GPa) = 44.56477 78.43525 61.50001
# Shear Modulus (GPa) = 114.21398 32.83701 73.52549
#
# Velocity S-wave (km/s) = 7.20958 3.86573 5.78454
# Velocity P-wave (km/s) = 9.46494 7.45792 8.52073
#
# Compressibility (1/GPa) = 0.02243925
#
# Stress axis : x y z
#
# Youngs Moduli (GPa) = 233.53680 98.39837 50.13046
#
# Poissons Ratio (x) = 0.19713 0.13852
# Poissons Ratio (y) = 0.46786 0.06066
# Poissons Ratio (z) = 0.64531 0.11908
#
# Static dielectric constant tensor:
#      x y z
#    x 1.874870 0.000000 0.000000 
#    y 0.000000 1.763710 0.000000 
#    z 0.000000 0.000000 1.855380 
# 
# From -- ./inp_files/42302.got.cif
#   From: 2010.05.17/outbox.cif.g08.bks.cpg/sg68_22_cif.got.tgz:42302.got - 2010.06.03 18:57:09.
