data_PCOD9505020
_publ_section_title
;
Structure prediction by ZEFSAII (Michael W. Deem and Ramdas Pophale) SiO2 
 PCOD9505020
Probable space group: C M M A
;
_chemical_formula_sum "Si O2"
_cell_formula_units_Z 104
_cell_length_a 8.428113
_cell_length_b 29.998780
_cell_length_c 20.959026
_cell_angle_alpha 90.000000
_cell_angle_beta 90.000000
_cell_angle_gamma 90.000000
_cell_volume 5299.135678
_symmetry_space_group_name_H-M "C M M A"
_symmetry_group_IT_number 67
_symmetry_cell_setting 'orthorhombic'
loop_
_space_group_symop_operation_xyz
x,y,z
-x,1/2-y,z
x,-y,-z
-x,1/2+y,-z
-x,-y,-z
x,1/2+y,-z
-x,y,z
x,1/2-y,z
1/2+x,1/2+y,z
1/2-x,-y,z
1/2+x,1/2-y,-z
1/2-x,y,-z
1/2-x,1/2-y,-z
1/2+x,y,-z
1/2-x,1/2+y,z
1/2+x,-y,z
loop_
_atom_site_type_symbol
_atom_site_label
_atom_site_fract_x
_atom_site_fract_y
_atom_site_fract_z
Si Si1 0.813780 0.200739 0.593040
Si Si2 0.814614 0.104885 0.432224
Si Si3 0.694307 0.109032 0.197245
Si Si4 0.187257 0.797919 0.253297
Si Si5 0.308645 0.150856 0.072014
Si Si6 0.810838 0.549713 0.312408
Si Si7 0.808821 0.250000 0.926952
O O1 0.757596 0.250000 0.572783
O O2 0.720081 0.157815 0.570169
O O3 0.806414 0.200433 0.670091
O O4 0.000000 0.196056 0.575547
O O5 0.750000 0.087834 0.500000
O O6 0.736079 0.081574 0.371121
O O7 0.000000 0.096712 0.428895
O O8 0.500000 0.108258 0.198677
O O9 0.750873 0.155840 0.227486
O O10 0.741772 0.113567 0.123261
O O11 0.748508 0.070368 0.244995
O O12 0.255611 0.750000 0.232557
O O13 0.000000 0.797089 0.235492
O O14 0.500000 0.151185 0.070273
O O15 0.258444 0.200712 0.096304
O O16 0.250000 0.144419 0.000000
O O17 0.750000 0.500000 0.322510
O O18 0.000000 0.548758 0.309794
O O19 0.000000 0.250000 0.923807
O O20 0.750000 0.250000 0.000000
#
# Coordination Sequence:
#
# PCOD9505020 Si02
#       7
#    16  16  16  16  16  16   8
#     4   9  17  33  57  85 118 157 198 238 281 330
#     4  12  25  41  62  88 119 155 192 233 282 338
#     4   9  17  30  54  82 110 144 186 232 279 333
#     4   8  13  23  46  79 109 140 182 229 274 323
#     4   9  17  29  46  74 109 150 189 228 270 319
#     4  11  23  43  66  89 114 140 180 236 295 356
#     4   8  14  24  40  66 104 146 189 224 259 310
#
# _framework density 19.625841000000001
#
# number of rings (size 3 to 8) (size 9 to 14) (size 15 to 20)
#    0.000    2.462    1.538    2.769    1.077    0.923 
#    0.000    3.077    0.000    0.462    0.000    3.231 
#    0.000    0.000    0.000    0.000    0.000    0.000 
#
# Total GULP energy -289917.587272 kJ/mol
# GULP energy per Si atom -5575.338217 kJ/mol
# Density = 1.958117 g / cm^3
# Si number density = 19.625841 Si / 1000 Ang^3
#
#
#
# Elastic Constant Matrix: (Units=GPa)
#
#
# Indices 1 2 3 4 5 6 
#
# 1 26.8124 15.0406 17.7108 0.0000 0.0000 0.0000
# 2 15.0406 87.3456 44.9294 0.0000 0.0000 0.0000
# 3 17.7108 44.9294 111.2025 0.0000 0.0000 0.0000
# 4 0.0000 0.0000 0.0000 -61.8254 0.0000 0.0000
# 5 0.0000 0.0000 0.0000 0.0000 18.0938 0.0000
# 6 0.0000 0.0000 0.0000 0.0000 0.0000 20.5144
#
#
#
# Elastic Compliance Matrix: (Units=1/GPa)
#
#
# Indices 1 2 3 4 5 6 
#
# 1 0.043303 -0.004935 -0.004903 0.000000 0.000000 0.000000
# 2 -0.004935 0.015015 -0.005281 0.000000 0.000000 0.000000
# 3 -0.004903 -0.005281 0.011907 0.000000 0.000000 0.000000
# 4 0.000000 0.000000 0.000000 -0.016175 0.000000 0.000000
# 5 0.000000 0.000000 0.000000 0.000000 0.055267 0.000000
# 6 0.000000 0.000000 0.000000 0.000000 0.000000 0.048746
#
#
# Mechanical properties :
#
#
# Convention : Reuss Voigt Hill
#
# Bulk Modulus (GPa) = 25.00718 42.30245 33.65482
# Shear Modulus (GPa) = 24.79797 5.20188 14.99992
#
# Velocity S-wave (km/s) = 3.55848 1.62981 2.76759
# Velocity P-wave (km/s) = 5.44549 5.01428 5.23433
#
# Compressibility (1/GPa) = 0.03998852
#
# Stress axis : x y z
#
# Youngs Moduli (GPa) = 23.09311 66.60132 83.98426
#
# Poissons Ratio (x) = 0.32865 0.41177
# Poissons Ratio (y) = 0.11395 0.44348
# Poissons Ratio (z) = 0.11323 0.35169
#
# Static dielectric constant tensor:
#      x y z
#    x 1.666010 0.000000 0.000000 
#    y 0.000000 1.695530 0.000000 
#    z 0.000000 0.000000 1.738360 
# 
# From -- ./inp_files/37275.got.cif
#   From: 2010.05.17/outbox.cif.g08.bks.cpg/sg67_19_cif.got.tgz:37275.got - 2010.06.03 18:28:57.
