data_PCOD9505716
_publ_section_title
;
Structure prediction by ZEFSAII (Michael W. Deem and Ramdas Pophale) SiO2 
 PCOD9505716
Probable space group: C C C A
;
_chemical_formula_sum "Si O2"
_cell_formula_units_Z 92
_cell_length_a 9.105441
_cell_length_b 18.474285
_cell_length_c 29.831789
_cell_angle_alpha 90.000000
_cell_angle_beta 90.000000
_cell_angle_gamma 90.000000
_cell_volume 5018.199495
_symmetry_space_group_name_H-M "C C C A"
_symmetry_group_IT_number 68
_space_group.IT_coordinate_system_code '2'
_symmetry_cell_setting 'orthorhombic'
loop_
_space_group_symop_operation_xyz
x,y,z
-x,1/2-y,z
x,1/2-y,1/2-z
-x,y,1/2-z
-x,-y,-z
x,1/2+y,-z
-x,1/2+y,1/2+z
x,-y,1/2+z
1/2+x,1/2+y,z
1/2-x,-y,z
1/2+x,-y,1/2-z
1/2-x,1/2+y,1/2-z
1/2-x,1/2-y,-z
1/2+x,y,-z
1/2-x,y,1/2+z
1/2+x,1/2-y,1/2+z
loop_
_atom_site_type_symbol
_atom_site_label
_atom_site_fract_x
_atom_site_fract_y
_atom_site_fract_z
Si Si1 0.699380 0.322838 0.525821
Si Si2 0.009220 0.161090 0.942790
Si Si3 0.858548 0.564219 0.363771
Si Si4 0.395815 0.649492 0.176524
Si Si5 0.922963 0.483954 0.201237
Si Si6 0.000000 0.750000 0.599218
Si Si7 0.500000 0.250000 0.750000
O O1 0.750000 0.250000 0.500000
O O2 0.842683 0.361097 0.545329
O O3 0.603236 0.358739 0.487042
O O4 0.600844 0.297557 0.567040
O O5 0.000000 0.250000 0.936172
O O6 0.081390 0.119212 0.901288
O O7 0.750000 0.500000 0.382139
O O8 0.750628 0.603585 0.328656
O O9 0.994582 0.532694 0.335779
O O10 0.534973 0.596975 0.184657
O O11 0.412436 0.696307 0.131634
O O12 0.398007 0.702336 0.218327
O O13 0.750000 0.500000 0.203913
O O14 0.000000 0.492880 0.250000
#
# Coordination Sequence:
#
# PCOD9505716 Si02
#       7
#    16  16  16  16  16   8   4
#     4  10  18  33  56  86 120 163 197 247 301 366
#     4  10  20  36  60  88 122 156 209 248 308 353
#     4  10  23  42  61  88 124 164 201 255 301 368
#     4  10  21  37  63  87 125 154 200 248 301 361
#     4  11  23  42  65  85 116 163 206 241 299 368
#     4  11  20  33  62  94 122 160 197 248 313 354
#     4  10  20  36  64  94 120 152 196 240 314 356
#
# _framework density 18.333269000000001
#
# number of rings (size 3 to 8) (size 9 to 14) (size 15 to 20)
#    0.000    1.739    3.478    3.652    2.435    0.000 
#    0.000    0.870    0.000    1.043    0.000    0.000 
#    0.000    0.000    0.000    0.000    0.000    0.000 
#
# Total GULP energy -256396.762493 kJ/mol
# GULP energy per Si atom -5573.842663 kJ/mol
# Density = 1.829154 g / cm^3
# Si number density = 18.333269 Si / 1000 Ang^3
#
#
#
# Elastic Constant Matrix: (Units=GPa)
#
#
# Indices 1 2 3 4 5 6 
#
# 1 127.3927 32.2163 44.4148 0.0000 0.0000 0.0000
# 2 32.2163 68.6352 41.9409 0.0000 0.0000 0.0000
# 3 44.4148 41.9409 119.4042 0.0000 0.0000 0.0000
# 4 0.0000 0.0000 0.0000 17.3169 0.0000 0.0000
# 5 0.0000 0.0000 0.0000 0.0000 5.2461 0.0000
# 6 0.0000 0.0000 0.0000 0.0000 0.0000 14.2515
#
#
#
# Elastic Compliance Matrix: (Units=1/GPa)
#
#
# Indices 1 2 3 4 5 6 
#
# 1 0.009456 -0.002915 -0.002494 0.000000 0.000000 0.000000
# 2 -0.002915 0.019450 -0.005748 0.000000 0.000000 0.000000
# 3 -0.002494 -0.005748 0.011321 0.000000 0.000000 0.000000
# 4 0.000000 0.000000 0.000000 0.057747 0.000000 0.000000
# 5 0.000000 0.000000 0.000000 0.000000 0.190616 0.000000
# 6 0.000000 0.000000 0.000000 0.000000 0.000000 0.070168
#
#
# Mechanical properties :
#
#
# Convention : Reuss Voigt Hill
#
# Bulk Modulus (GPa) = 55.81747 61.39734 58.60741
# Shear Modulus (GPa) = 12.91845 20.48691 16.70268
#
# Velocity S-wave (km/s) = 2.65740 3.34649 3.02165
# Velocity P-wave (km/s) = 6.31884 6.96378 6.64914
#
# Compressibility (1/GPa) = 0.01791554
#
# Stress axis : x y z
#
# Youngs Moduli (GPa) = 105.75009 51.41335 88.32880
#
# Poissons Ratio (x) = 0.14986 0.22026
# Poissons Ratio (y) = 0.30825 0.50768
# Poissons Ratio (z) = 0.26370 0.29551
#
# Static dielectric constant tensor:
#      x y z
#    x 1.641910 0.000000 0.000000 
#    y 0.000000 1.652440 0.000000 
#    z 0.000000 0.000000 1.604700 
# 
# From -- ./inp_files/49375.got.cif
#   From: 2010.05.17/outbox.cif.g08.bks.cpg/sg68_25_cif.got.tgz:49375.got - 2010.06.03 18:57:09.
