data_PCOD9505213
_publ_section_title
;
Structure prediction by ZEFSAII (Michael W. Deem and Ramdas Pophale) SiO2 
 PCOD9505213
Probable space group: C M M A
;
_chemical_formula_sum "Si O2"
_cell_formula_units_Z 48
_cell_length_a 9.000000
_cell_length_b 21.000000
_cell_length_c 27.000000
_cell_angle_alpha 90.000000
_cell_angle_beta 90.000000
_cell_angle_gamma 90.000000
_cell_volume 5103.000000
_symmetry_space_group_name_H-M "C M M A"
_symmetry_group_IT_number 67
_symmetry_cell_setting 'orthorhombic'
loop_
_space_group_symop_operation_xyz
x,y,z
-x,1/2-y,z
x,-y,-z
-x,1/2+y,-z
-x,-y,-z
x,1/2+y,-z
-x,y,z
x,1/2-y,z
1/2+x,1/2+y,z
1/2-x,-y,z
1/2+x,1/2-y,-z
1/2-x,y,-z
1/2-x,1/2-y,-z
1/2+x,y,-z
1/2-x,1/2+y,z
1/2+x,-y,z
loop_
_atom_site_type_symbol
_atom_site_label
_atom_site_fract_x
_atom_site_fract_y
_atom_site_fract_z
Si Si1 0.677389 0.823954 0.651801
Si Si2 0.668148 0.826525 0.451789
Si Si3 0.329133 0.178339 0.098267
Si Si4 0.824567 0.929819 0.721507
Si Si5 0.169886 0.679411 0.801497
Si Si6 0.325402 0.560586 0.053650
O O1 0.500000 0.826635 0.656826
O O2 0.722721 0.750000 0.664155
O O3 0.730368 0.835302 0.595907
O O4 0.750474 0.881319 0.682367
O O5 0.500000 0.850774 0.445171
O O6 0.655881 0.750000 0.458181
O O7 0.750000 0.852861 0.500000
O O8 0.500000 0.160255 0.088420
O O9 0.305242 0.250000 0.078860
O O10 0.293336 0.179941 0.156338
O O11 0.216843 0.126950 0.077597
O O12 0.812549 0.884625 0.770028
O O13 0.000000 0.938248 0.711054
O O14 0.750000 0.000000 0.724720
O O15 0.180721 0.750000 0.776054
O O16 0.000000 0.677810 0.821814
O O17 0.500000 0.550967 0.050152
O O18 0.250000 0.500000 0.080315
O O19 0.250000 0.563352 0.000000
#
# Coordination Sequence:
#
# PCOD9505213 Si02
#       6
#    16  16  16  16  16  16
#     4  10  20  34  54  80 109 142 181 224 271 323
#     4   9  16  27  46  74 107 140 176 220 268 316
#     4  10  21  37  58  85 115 146 182 224 271 323
#     4  11  23  38  56  79 109 144 182 225 272 323
#     4   9  19  37  59  81 107 142 183 226 274 326
#     4  11  22  38  59  82 112 148 187 229 273 323
#
# _framework density 9.4062319999999993
#
# number of rings (size 3 to 8) (size 9 to 14) (size 15 to 20)
#    0.000    2.000    0.000    4.500    0.000    7.000 
#    0.000    3.333    0.000    0.500    0.000    3.500 
#    0.000    0.000    0.000    0.000    0.000    0.000 
#
# Total GULP energy -267320.706181 kJ/mol
# GULP energy per Si atom -5569.181379 kJ/mol
# Density = 0.938482 g / cm^3
# Si number density = 9.406232 Si / 1000 Ang^3
#
#
#
# Elastic Constant Matrix: (Units=GPa)
#
#
# Indices 1 2 3 4 5 6 
#
# 1 113.7310 65.4916 26.7802 0.0000 0.0000 0.0000
# 2 65.4916 135.3699 33.0118 0.0000 0.0000 0.0000
# 3 26.7802 33.0118 33.0651 0.0000 0.0000 0.0000
# 4 0.0000 0.0000 0.0000 -18.5660 0.0000 0.0000
# 5 0.0000 0.0000 0.0000 0.0000 25.8235 0.0000
# 6 0.0000 0.0000 0.0000 0.0000 0.0000 34.6200
#
#
#
# Elastic Compliance Matrix: (Units=1/GPa)
#
#
# Indices 1 2 3 4 5 6 
#
# 1 0.012924 -0.004891 -0.005585 0.000000 0.000000 0.000000
# 2 -0.004891 0.011615 -0.007635 0.000000 0.000000 0.000000
# 3 -0.005585 -0.007635 0.042390 0.000000 0.000000 0.000000
# 4 0.000000 0.000000 0.000000 -0.053862 0.000000 0.000000
# 5 0.000000 0.000000 0.000000 0.000000 0.038724 0.000000
# 6 0.000000 0.000000 0.000000 0.000000 0.000000 0.028885
#
#
# Mechanical properties :
#
#
# Convention : Reuss Voigt Hill
#
# Bulk Modulus (GPa) = 32.56551 59.19258 45.87904
# Shear Modulus (GPa) = 39.32859 18.83431 29.08145
#
# Velocity S-wave (km/s) = 4.57722 3.16755 3.93601
# Velocity P-wave (km/s) = 6.72925 6.70154 6.71541
#
# Compressibility (1/GPa) = 0.03070733
#
# Stress axis : x y z
#
# Youngs Moduli (GPa) = 77.37555 86.09354 23.59067
#
# Poissons Ratio (x) = 0.42106 0.13175
# Poissons Ratio (y) = 0.37842 0.18013
# Poissons Ratio (z) = 0.43211 0.65736
#
# Static dielectric constant tensor:
#      x y z
#    x 1.655790 0.000000 0.000000 
#    y 0.000000 1.693130 0.000000 
#    z 0.000000 0.000000 1.709240 
# 
# From -- ./inp_files/43449.got.cif
#   From: 2010.05.17/outbox.ucp.g08.bks.cvg/sg67_22_cif.got.tgz:43449.got - 2010.06.11 16:47:20.
