data_PCOD9505494
_publ_section_title
;
Structure prediction by ZEFSAII (Michael W. Deem and Ramdas Pophale) SiO2 
 PCOD9505494
Probable space group: C C C A
;
_chemical_formula_sum "Si O2"
_cell_formula_units_Z 96
_cell_length_a 23.065547
_cell_length_b 12.968389
_cell_length_c 18.200573
_cell_angle_alpha 90.000000
_cell_angle_beta 90.000000
_cell_angle_gamma 90.000000
_cell_volume 5444.209743
_symmetry_space_group_name_H-M "C C C A"
_symmetry_group_IT_number 68
_space_group.IT_coordinate_system_code '2'
_symmetry_cell_setting 'orthorhombic'
loop_
_space_group_symop_operation_xyz
x,y,z
-x,1/2-y,z
x,1/2-y,1/2-z
-x,y,1/2-z
-x,-y,-z
x,1/2+y,-z
-x,1/2+y,1/2+z
x,-y,1/2+z
1/2+x,1/2+y,z
1/2-x,-y,z
1/2+x,-y,1/2-z
1/2-x,1/2+y,1/2-z
1/2-x,1/2-y,-z
1/2+x,y,-z
1/2-x,y,1/2+z
1/2+x,1/2-y,1/2+z
loop_
_atom_site_type_symbol
_atom_site_label
_atom_site_fract_x
_atom_site_fract_y
_atom_site_fract_z
Si Si1 0.082891 0.994304 0.127313
Si Si2 0.613169 0.661181 0.309526
Si Si3 0.932811 0.274401 0.600122
Si Si4 0.000000 0.949214 0.750000
Si Si5 0.682571 0.521031 0.741914
Si Si6 0.932419 0.215142 0.443548
Si Si7 0.361192 0.750000 0.750000
O O1 0.144385 0.998017 0.168572
O O2 0.071182 0.101045 0.088453
O O3 0.034064 0.983542 0.190768
O O4 0.076206 0.894000 0.078397
O O5 0.629706 0.750000 0.250000
O O6 0.549173 0.621350 0.286432
O O7 0.654754 0.561759 0.299382
O O8 0.605130 0.711946 0.389418
O O9 0.912614 0.213581 0.528086
O O10 0.899052 0.257818 0.675804
O O11 0.000000 0.250000 0.612099
O O12 0.750000 0.500000 0.732646
O O13 0.673165 0.642283 0.758455
O O14 0.000000 0.250000 0.442247
#
# Coordination Sequence:
#
# PCOD9505494 Si02
#       7
#    16  16  16   8  16  16   8
#     4  10  21  35  55  83 118 153 185 244 288 343
#     4  11  18  32  59  89 112 145 185 242 284 338
#     4  10  24  35  54  84 121 159 183 228 292 369
#     4  10  17  30  57  82 118 141 186 228 293 348
#     4  10  23  37  62  85 109 156 200 244 277 337
#     4  11  20  34  56  89 122 144 191 240 292 351
#     4  10  23  42  56  80 116 155 200 234 286 360
#
# _framework density 17.633412
#
# number of rings (size 3 to 8) (size 9 to 14) (size 15 to 20)
#    0.000    1.667    5.000    0.500    8.167    4.000 
#    0.000    0.000    0.000   14.000    0.000    0.000 
#    0.000    0.000    0.000    0.000    0.000    0.000 
#
# Total GULP energy -267634.354560 kJ/mol
# GULP energy per Si atom -5575.715720 kJ/mol
# Density = 1.759328 g / cm^3
# Si number density = 17.633412 Si / 1000 Ang^3
#
#
#
# Elastic Constant Matrix: (Units=GPa)
#
#
# Indices 1 2 3 4 5 6 
#
# 1 98.2707 58.2451 30.4637 0.0000 0.0000 0.0000
# 2 58.2451 111.4962 31.1028 0.0000 0.0000 0.0000
# 3 30.4637 31.1028 83.9284 0.0000 0.0000 0.0000
# 4 0.0000 0.0000 0.0000 7.9865 0.0000 0.0000
# 5 0.0000 0.0000 0.0000 0.0000 1.6617 0.0000
# 6 0.0000 0.0000 0.0000 0.0000 0.0000 16.0078
#
#
#
# Elastic Compliance Matrix: (Units=1/GPa)
#
#
# Indices 1 2 3 4 5 6 
#
# 1 0.015347 -0.007209 -0.002899 0.000000 0.000000 0.000000
# 2 -0.007209 0.013389 -0.002345 0.000000 0.000000 0.000000
# 3 -0.002899 -0.002345 0.013836 0.000000 0.000000 0.000000
# 4 0.000000 0.000000 0.000000 0.125211 0.000000 0.000000
# 5 0.000000 0.000000 0.000000 0.000000 0.601803 0.000000
# 6 0.000000 0.000000 0.000000 0.000000 0.000000 0.062470
#
#
# Mechanical properties :
#
#
# Convention : Reuss Voigt Hill
#
# Bulk Modulus (GPa) = 56.60454 59.25762 57.93108
# Shear Modulus (GPa) = 5.79475 16.72344 11.25909
#
# Velocity S-wave (km/s) = 1.81476 3.08294 2.52962
# Velocity P-wave (km/s) = 6.04662 6.80816 6.43865
#
# Compressibility (1/GPa) = 0.01766643
#
# Stress axis : x y z
#
# Youngs Moduli (GPa) = 65.15819 74.68893 72.27330
#
# Poissons Ratio (x) = 0.53840 0.20954
# Poissons Ratio (y) = 0.46970 0.16950
# Poissons Ratio (z) = 0.18891 0.17516
#
# Static dielectric constant tensor:
#      x y z
#    x 1.569030 0.000000 0.000000 
#    y 0.000000 1.634480 0.000000 
#    z 0.000000 0.000000 1.620270 
# 
# From -- ./inp_files/33581.got.cif
#   From: 2010.05.17/outbox.cif.g08.bks.cpg/sg68_17_cif.got.tgz:33581.got - 2010.06.03 18:57:09.
