data_PCOD9505239
_publ_section_title
;
Structure prediction by ZEFSAII (Michael W. Deem and Ramdas Pophale) SiO2 
 PCOD9505239
Probable space group: C M M A
;
_chemical_formula_sum "Si O2"
_cell_formula_units_Z 58
_cell_length_a 18.000000
_cell_length_b 18.000000
_cell_length_c 18.000000
_cell_angle_alpha 90.000000
_cell_angle_beta 90.000000
_cell_angle_gamma 90.000000
_cell_volume 5832.000000
_symmetry_space_group_name_H-M "C M M A"
_symmetry_group_IT_number 67
_symmetry_cell_setting 'orthorhombic'
loop_
_space_group_symop_operation_xyz
x,y,z
-x,1/2-y,z
x,-y,-z
-x,1/2+y,-z
-x,-y,-z
x,1/2+y,-z
-x,y,z
x,1/2-y,z
1/2+x,1/2+y,z
1/2-x,-y,z
1/2+x,1/2-y,-z
1/2-x,y,-z
1/2-x,1/2-y,-z
1/2+x,y,-z
1/2-x,1/2+y,z
1/2+x,-y,z
loop_
_atom_site_type_symbol
_atom_site_label
_atom_site_fract_x
_atom_site_fract_y
_atom_site_fract_z
Si Si1 0.911934 0.093891 0.338500
Si Si2 0.585493 0.085250 0.353677
Si Si3 0.587535 0.559402 0.938257
Si Si4 0.171444 0.838899 0.963959
Si Si5 0.316702 0.662888 0.202304
Si Si6 0.836034 0.409409 0.494622
Si Si7 0.500000 0.750000 0.824393
Si Si8 0.139818 0.133933 0.802230
O O1 0.858966 0.120801 0.270168
O O2 0.875518 0.116355 0.418309
O O3 0.000000 0.116256 0.330978
O O4 0.911984 0.004142 0.344913
O O5 0.500000 0.108813 0.349304
O O6 0.619583 0.112034 0.431303
O O7 0.629104 0.115572 0.283677
O O8 0.500000 0.548011 0.926492
O O9 0.629124 0.565355 0.859676
O O10 0.613910 0.500000 0.000000
O O11 0.606864 0.635940 0.980692
O O12 0.175383 0.750000 0.960800
O O13 0.157863 0.864790 0.879514
O O14 0.250000 0.864860 0.000000
O O15 0.335941 0.750000 0.211006
O O16 0.226096 0.659493 0.194460
O O17 0.836416 0.500000 0.500000
O O18 0.750000 0.385837 0.500000
O O19 0.568368 0.686237 0.821753
#
# Coordination Sequence:
#
# PCOD9505239 Si02
#       8
#    16  16  16  16  16  16   4  16
#     4  10  22  39  62  91 130 172 212 261 324 387
#     4  10  20  36  61  92 125 160 205 261 318 377
#     4  11  25  41  61  92 127 157 200 262 324 380
#     4  10  22  41  63  85 117 161 212 257 306 373
#     4  11  24  41  63  89 122 165 214 264 305 381
#     4   9  17  33  59  91 123 161 212 262 316 382
#     4  12  24  40  70  94 122 168 212 264 314 388
#     4  12  23  41  66  92 124 163 210 263 324 377
#
# _framework density 9.9451300000000007
#
# number of rings (size 3 to 8) (size 9 to 14) (size 15 to 20)
#    0.000    1.517    3.448    1.241    2.897    4.690 
#    0.000    1.379    1.517    1.241    0.000    0.000 
#    0.000    0.000    0.000    0.000    0.000    0.000 
#
# Total GULP energy -322879.439476 kJ/mol
# GULP energy per Si atom -5566.886888 kJ/mol
# Density = 0.992249 g / cm^3
# Si number density = 9.945130 Si / 1000 Ang^3
#
#
#
# Elastic Constant Matrix: (Units=GPa)
#
#
# Indices 1 2 3 4 5 6 
#
# 1 82.0588 -1.1354 20.5636 0.0000 0.0000 0.0000
# 2 -1.1354 12.3978 5.5331 0.0000 0.0000 0.0000
# 3 20.5636 5.5331 148.1060 0.0000 0.0000 0.0000
# 4 0.0000 0.0000 0.0000 13.4749 0.0000 0.0000
# 5 0.0000 0.0000 0.0000 0.0000 37.8027 0.0000
# 6 0.0000 0.0000 0.0000 0.0000 0.0000 24.0864
#
#
#
# Elastic Compliance Matrix: (Units=1/GPa)
#
#
# Indices 1 2 3 4 5 6 
#
# 1 0.012673 0.001979 -0.001834 0.000000 0.000000 0.000000
# 2 0.001979 0.082336 -0.003351 0.000000 0.000000 0.000000
# 3 -0.001834 -0.003351 0.007132 0.000000 0.000000 0.000000
# 4 0.000000 0.000000 0.000000 0.074212 0.000000 0.000000
# 5 0.000000 0.000000 0.000000 0.000000 0.026453 0.000000
# 6 0.000000 0.000000 0.000000 0.000000 0.000000 0.041517
#
#
# Mechanical properties :
#
#
# Convention : Reuss Voigt Hill
#
# Bulk Modulus (GPa) = 10.44601 32.49836 21.47219
# Shear Modulus (GPa) = 17.69005 29.57954 23.63479
#
# Velocity S-wave (km/s) = 2.98549 3.86052 3.45085
# Velocity P-wave (km/s) = 4.14094 6.02045 5.16688
#
# Compressibility (1/GPa) = 0.09573035
#
# Stress axis : x y z
#
# Youngs Moduli (GPa) = 78.90641 12.14532 140.21945
#
# Poissons Ratio (x) = -0.02403 0.25710
# Poissons Ratio (y) = -0.15615 0.46984
# Poissons Ratio (z) = 0.14468 0.04070
#
# Static dielectric constant tensor:
#      x y z
#    x 1.686910 0.000000 0.000000 
#    y 0.000000 1.753470 0.000000 
#    z 0.000000 0.000000 1.707980 
# 
# From -- ./inp_files/34357.got.cif
#   From: 2010.05.17/outbox.ucp.g08.bks.cvg/sg67_18_cif.got.tgz:34357.got - 2010.06.11 16:47:20.
