data_PCOD9505588
_publ_section_title
;
Structure prediction by ZEFSAII (Michael W. Deem and Ramdas Pophale) SiO2 
 PCOD9505588
Probable space group: C C C A
;
_chemical_formula_sum "Si O2"
_cell_formula_units_Z 88
_cell_length_a 5.533617
_cell_length_b 36.193034
_cell_length_c 18.338258
_cell_angle_alpha 90.000000
_cell_angle_beta 90.000000
_cell_angle_gamma 90.000000
_cell_volume 3672.756755
_symmetry_space_group_name_H-M "C C C A"
_symmetry_group_IT_number 68
_space_group.IT_coordinate_system_code '2'
_symmetry_cell_setting 'orthorhombic'
loop_
_space_group_symop_operation_xyz
x,y,z
-x,1/2-y,z
x,1/2-y,1/2-z
-x,y,1/2-z
-x,-y,-z
x,1/2+y,-z
-x,1/2+y,1/2+z
x,-y,1/2+z
1/2+x,1/2+y,z
1/2-x,-y,z
1/2+x,-y,1/2-z
1/2-x,1/2+y,1/2-z
1/2-x,1/2-y,-z
1/2+x,y,-z
1/2-x,y,1/2+z
1/2+x,1/2-y,1/2+z
loop_
_atom_site_type_symbol
_atom_site_label
_atom_site_fract_x
_atom_site_fract_y
_atom_site_fract_z
Si Si1 0.250000 0.500000 0.291068
Si Si2 0.515382 0.677768 0.425548
Si Si3 0.300977 0.073189 0.121835
Si Si4 0.007970 0.706670 0.410033
Si Si5 0.692855 0.097702 0.592992
Si Si6 0.250756 0.865799 0.749309
O O1 0.500000 0.511970 0.250000
O O2 0.341070 0.465063 0.337270
O O3 0.255882 0.685608 0.388955
O O4 0.498822 0.699450 0.502195
O O5 0.589741 0.635549 0.442221
O O6 0.751990 0.691275 0.382884
O O7 0.537489 0.083751 0.074453
O O8 0.267803 0.106246 0.180911
O O9 0.034301 0.070482 0.086633
O O10 0.000000 0.750000 0.395729
O O11 0.731663 0.108512 0.678586
O O12 0.500000 0.844310 0.750000
O O13 0.000000 0.844680 0.750000
#
# Coordination Sequence:
#
# PCOD9505588 Si02
#       6
#     8  16  16  16  16  16
#     4  12  20  30  48  68  92 136 176 196 248 308
#     4  10  18  29  48  70  96 129 154 179 237 297
#     4  10  19  30  43  64  96 127 159 201 237 275
#     4  10  19  33  50  73 103 124 145 188 241 301
#     4  10  18  29  43  65  95 123 158 197 228 281
#     4   8  14  25  38  54  83 117 144 183 226 256
#
# _framework density 23.960204000000001
#
# number of rings (size 3 to 8) (size 9 to 14) (size 15 to 20)
#    0.000    2.182    0.000    8.182    0.000    0.000 
#    0.000    0.000    0.000    0.000    0.000    0.000 
#    0.000  215.273    0.000    0.000    0.000    0.000 
#
# Total GULP energy -245373.332097 kJ/mol
# GULP energy per Si atom -5576.666639 kJ/mol
# Density = 2.390567 g / cm^3
# Si number density = 23.960204 Si / 1000 Ang^3
#
#
#
# Elastic Constant Matrix: (Units=GPa)
#
#
# Indices 1 2 3 4 5 6 
#
# 1 276.6479 32.1742 25.3154 0.0000 0.0000 0.0000
# 2 32.1742 94.4699 1.2745 0.0000 0.0000 0.0000
# 3 25.3154 1.2745 69.1597 0.0000 0.0000 0.0000
# 4 0.0000 0.0000 0.0000 9.0950 0.0000 0.0000
# 5 0.0000 0.0000 0.0000 0.0000 -11.1410 0.0000
# 6 0.0000 0.0000 0.0000 0.0000 0.0000 34.6575
#
#
#
# Elastic Compliance Matrix: (Units=1/GPa)
#
#
# Indices 1 2 3 4 5 6 
#
# 1 0.003895 -0.001308 -0.001402 0.000000 0.000000 0.000000
# 2 -0.001308 0.011027 0.000275 0.000000 0.000000 0.000000
# 3 -0.001402 0.000275 0.014967 0.000000 0.000000 0.000000
# 4 0.000000 0.000000 0.000000 0.109951 0.000000 0.000000
# 5 0.000000 0.000000 0.000000 0.000000 -0.089758 0.000000
# 6 0.000000 0.000000 0.000000 0.000000 0.000000 0.028854
#
#
# Mechanical properties :
#
#
# Convention : Reuss Voigt Hill
#
# Bulk Modulus (GPa) = 39.96543 61.97840 50.97191
# Shear Modulus (GPa) = 54.26279 31.95651 43.10965
#
# Velocity S-wave (km/s) = 4.76405 3.65599 4.24632
# Velocity P-wave (km/s) = 6.85403 6.61401 6.73509
#
# Compressibility (1/GPa) = 0.02502163
#
# Stress axis : x y z
#
# Youngs Moduli (GPa) = 256.73647 90.68631 66.81245
#
# Poissons Ratio (x) = 0.11859 0.09365
# Poissons Ratio (y) = 0.33572 -0.01840
# Poissons Ratio (z) = 0.35986 -0.02498
#
# Static dielectric constant tensor:
#      x y z
#    x 2.064340 0.000000 0.000000 
#    y 0.000000 1.883640 0.000000 
#    z 0.000000 0.000000 2.032610 
# 
# From -- ./inp_files/48552.got.cif
#   From: 2010.05.17/outbox.cif.g08.bks.cpg/sg68_25_cif.got.tgz:48552.got - 2010.06.03 18:57:09.
