data_PCOD9505408
_publ_section_title
;
Structure prediction by ZEFSAII (Michael W. Deem and Ramdas Pophale) SiO2 
 PCOD9505408
Probable space group: C C C A
;
_chemical_formula_sum "Si O2"
_cell_formula_units_Z 64
_cell_length_a 9.591942
_cell_length_b 18.023962
_cell_length_c 15.085526
_cell_angle_alpha 90.000000
_cell_angle_beta 90.000000
_cell_angle_gamma 90.000000
_cell_volume 2608.058117
_symmetry_space_group_name_H-M "C C C A"
_symmetry_group_IT_number 68
_space_group.IT_coordinate_system_code '2'
_symmetry_cell_setting 'orthorhombic'
loop_
_space_group_symop_operation_xyz
x,y,z
-x,1/2-y,z
x,1/2-y,1/2-z
-x,y,1/2-z
-x,-y,-z
x,1/2+y,-z
-x,1/2+y,1/2+z
x,-y,1/2+z
1/2+x,1/2+y,z
1/2-x,-y,z
1/2+x,-y,1/2-z
1/2-x,1/2+y,1/2-z
1/2-x,1/2-y,-z
1/2+x,y,-z
1/2-x,y,1/2+z
1/2+x,1/2-y,1/2+z
loop_
_atom_site_type_symbol
_atom_site_label
_atom_site_fract_x
_atom_site_fract_y
_atom_site_fract_z
Si Si1 0.728623 0.173595 0.356679
Si Si2 0.320983 0.155537 0.337413
Si Si3 0.008711 0.899716 0.843680
Si Si4 0.164414 0.571758 0.002373
O O1 0.675173 0.257259 0.359254
O O2 0.657293 0.141668 0.267189
O O3 0.895473 0.167455 0.334833
O O4 0.731796 0.128474 0.448195
O O5 0.402565 0.111429 0.412697
O O6 0.162861 0.128920 0.355901
O O7 0.000000 0.941696 0.750000
O O8 0.948664 0.944662 0.926143
O O9 0.250000 0.500000 0.027973
#
# Coordination Sequence:
#
# PCOD9505408 Si02
#       4
#    16  16  16  16
#     4   8  18  32  53  77 101 133 182 219 269 307
#     4  10  16  33  57  75 101 136 179 232 258 314
#     4   8  17  33  52  77 100 134 180 222 262 314
#     4  10  21  31  49  81 109 140 176 213 274 323
#
# _framework density 24.539331000000001
#
# number of rings (size 3 to 8) (size 9 to 14) (size 15 to 20)
#    1.500    1.500    0.000    1.500    0.000    5.000 
#    0.000    0.000    0.000    0.000    0.000    3.500 
#    0.000    0.000    0.000    0.000    0.000    0.000 
#
# Total GULP energy -178445.562216 kJ/mol
# GULP energy per Si atom -5576.423819 kJ/mol
# Density = 2.448348 g / cm^3
# Si number density = 24.539331 Si / 1000 Ang^3
#
#
#
# Elastic Constant Matrix: (Units=GPa)
#
#
# Indices 1 2 3 4 5 6 
#
# 1 67.1369 -14.5048 -3.6254 0.0000 0.0000 0.0000
# 2 -14.5048 74.0400 64.1327 0.0000 0.0000 0.0000
# 3 -3.6254 64.1327 200.5589 0.0000 0.0000 0.0000
# 4 0.0000 0.0000 0.0000 10.0923 0.0000 0.0000
# 5 0.0000 0.0000 0.0000 0.0000 32.7049 0.0000
# 6 0.0000 0.0000 0.0000 0.0000 0.0000 -2.1156
#
#
#
# Elastic Compliance Matrix: (Units=1/GPa)
#
#
# Indices 1 2 3 4 5 6 
#
# 1 0.015688 0.003911 -0.000967 0.000000 0.000000 0.000000
# 2 0.003911 0.019655 -0.006214 0.000000 0.000000 0.000000
# 3 -0.000967 -0.006214 0.006956 0.000000 0.000000 0.000000
# 4 0.000000 0.000000 0.000000 0.099085 0.000000 0.000000
# 5 0.000000 0.000000 0.000000 0.000000 0.030576 0.000000
# 6 0.000000 0.000000 0.000000 0.000000 0.000000 -0.472681
#
#
# Mechanical properties :
#
#
# Convention : Reuss Voigt Hill
#
# Bulk Modulus (GPa) = 27.96608 48.19343 38.07976
# Shear Modulus (GPa) = -17.71417 27.85189 5.06886
#
# Velocity S-wave (km/s) = -2.68968 3.37262 1.43878
# Velocity P-wave (km/s) = 1.33243 5.90321 4.27921
#
# Compressibility (1/GPa) = 0.03575760
#
# Stress axis : x y z
#
# Youngs Moduli (GPa) = 63.74434 50.87687 143.76516
#
# Poissons Ratio (x) = -0.19898 0.13902
# Poissons Ratio (y) = -0.24930 0.89343
# Poissons Ratio (z) = 0.06164 0.31617
#
# Static dielectric constant tensor:
#      x y z
#    x 2.019230 0.000000 0.000000 
#    y 0.000000 1.891380 0.000000 
#    z 0.000000 0.000000 2.022350 
# 
# From -- ./inp_files/20464.got.cif
#   From: 2010.05.17/outbox.cif.g08.bks.cpg/sg68_11_cif.got.tgz:20464.got - 2010.06.03 18:57:09.
