data_PCOD9505039
_publ_section_title
;
Structure prediction by ZEFSAII (Michael W. Deem and Ramdas Pophale) SiO2 
 PCOD9505039
Probable space group: C M M A
;
_chemical_formula_sum "Si O2"
_cell_formula_units_Z 60
_cell_length_a 14.441338
_cell_length_b 15.722681
_cell_length_c 12.575568
_cell_angle_alpha 90.000000
_cell_angle_beta 90.000000
_cell_angle_gamma 90.000000
_cell_volume 2855.365092
_symmetry_space_group_name_H-M "C M M A"
_symmetry_group_IT_number 67
_symmetry_cell_setting 'orthorhombic'
loop_
_space_group_symop_operation_xyz
x,y,z
-x,1/2-y,z
x,-y,-z
-x,1/2+y,-z
-x,-y,-z
x,1/2+y,-z
-x,y,z
x,1/2-y,z
1/2+x,1/2+y,z
1/2-x,-y,z
1/2+x,1/2-y,-z
1/2-x,y,-z
1/2-x,1/2-y,-z
1/2+x,y,-z
1/2-x,1/2+y,z
1/2+x,-y,z
loop_
_atom_site_type_symbol
_atom_site_label
_atom_site_fract_x
_atom_site_fract_y
_atom_site_fract_z
Si Si1 0.000000 0.250000 0.555866
Si Si2 0.651687 0.750000 0.941783
Si Si3 0.312080 0.750000 0.690886
Si Si4 0.500000 0.078845 0.580750
Si Si5 0.894228 0.416393 0.063184
Si Si6 0.191342 0.585891 0.709434
O O1 0.906843 0.250000 0.625711
O O2 0.000000 0.333684 0.484061
O O3 0.661432 0.750000 0.815715
O O4 0.605675 0.664155 0.985316
O O5 0.750000 0.750000 0.000000
O O6 0.250300 0.666406 0.669527
O O7 0.593373 0.077088 0.650436
O O8 0.500000 0.000000 0.500000
O O9 0.000000 0.431659 0.099534
O O10 0.863411 0.500000 0.000000
O O11 0.831305 0.400415 0.165714
O O12 0.250000 0.500000 0.696520
#
# Coordination Sequence:
#
# PCOD9505039 Si02
#       6
#     4   8   8   8  16  16
#     4  12  30  50  70 100 138 176 234 298 342 398
#     4  12  23  40  66 103 142 180 219 269 333 415
#     4  12  27  45  71 104 138 181 227 278 345 410
#     4  12  28  50  72 100 134 176 236 294 346 398
#     4  11  24  41  66 101 141 182 222 272 338 411
#     4  12  25  45  73 102 137 180 230 281 345 411
#
# _framework density 21.013076000000002
#
# number of rings (size 3 to 8) (size 9 to 14) (size 15 to 20)
#    0.000    0.267    4.000    4.400    1.867    4.800 
#    0.000    0.000    0.000    0.000    0.000    0.000 
#    0.000    0.000    0.000    0.000    0.000    0.000 
#
# Total GULP energy -168042.496180 kJ/mol
# GULP energy per Si atom -5601.416539 kJ/mol
# Density = 2.096525 g / cm^3
# Si number density = 21.013076 Si / 1000 Ang^3
#
#
#
# Elastic Constant Matrix: (Units=GPa)
#
#
# Indices 1 2 3 4 5 6 
#
# 1 162.1938 55.8059 51.3309 0.0000 0.0000 0.0000
# 2 55.8059 179.0250 45.1362 0.0000 0.0000 0.0000
# 3 51.3309 45.1362 90.6941 0.0000 0.0000 0.0000
# 4 0.0000 0.0000 0.0000 21.0042 0.0000 0.0000
# 5 0.0000 0.0000 0.0000 0.0000 19.0648 0.0000
# 6 0.0000 0.0000 0.0000 0.0000 0.0000 44.2993
#
#
#
# Elastic Compliance Matrix: (Units=1/GPa)
#
#
# Indices 1 2 3 4 5 6 
#
# 1 0.007856 -0.001518 -0.003691 0.000000 0.000000 0.000000
# 2 -0.001518 0.006681 -0.002465 0.000000 0.000000 0.000000
# 3 -0.003691 -0.002465 0.014342 0.000000 0.000000 0.000000
# 4 0.000000 0.000000 0.000000 0.047609 0.000000 0.000000
# 5 0.000000 0.000000 0.000000 0.000000 0.052453 0.000000
# 6 0.000000 0.000000 0.000000 0.000000 0.000000 0.022574
#
#
# Mechanical properties :
#
#
# Convention : Reuss Voigt Hill
#
# Bulk Modulus (GPa) = 73.91195 81.82876 77.87036
# Shear Modulus (GPa) = 29.17610 35.51633 32.34622
#
# Velocity S-wave (km/s) = 3.73027 4.11567 3.92770
# Velocity P-wave (km/s) = 7.33511 7.84929 7.59655
#
# Compressibility (1/GPa) = 0.01352961
#
# Stress axis : x y z
#
# Youngs Moduli (GPa) = 127.29306 149.68461 69.72581
#
# Poissons Ratio (x) = 0.22728 0.25733
# Poissons Ratio (y) = 0.19328 0.17191
# Poissons Ratio (z) = 0.46979 0.36904
#
# Static dielectric constant tensor:
#      x y z
#    x 1.752500 0.000000 0.000000 
#    y 0.000000 1.720510 0.000000 
#    z 0.000000 0.000000 1.721300 
# 
# From -- ./inp_files/17473.got.cif
#   From: 2010.05.17/outbox.cif.g08.bks.cpg/sg67_9_cif.got.tgz:17473.got - 2010.06.03 18:28:57.
