data_PCOD9505810
_publ_section_title
;
Structure prediction by ZEFSAII (Michael W. Deem and Ramdas Pophale) SiO2 
 PCOD9505810
Probable space group: C C C A
;
_chemical_formula_sum "Si O2"
_cell_formula_units_Z 80
_cell_length_a 15.562674
_cell_length_b 14.573169
_cell_length_c 17.364286
_cell_angle_alpha 90.000000
_cell_angle_beta 90.000000
_cell_angle_gamma 90.000000
_cell_volume 3938.176277
_symmetry_space_group_name_H-M "C C C A"
_symmetry_group_IT_number 68
_space_group.IT_coordinate_system_code '2'
_symmetry_cell_setting 'orthorhombic'
loop_
_space_group_symop_operation_xyz
x,y,z
-x,1/2-y,z
x,1/2-y,1/2-z
-x,y,1/2-z
-x,-y,-z
x,1/2+y,-z
-x,1/2+y,1/2+z
x,-y,1/2+z
1/2+x,1/2+y,z
1/2-x,-y,z
1/2+x,-y,1/2-z
1/2-x,1/2+y,1/2-z
1/2-x,1/2-y,-z
1/2+x,y,-z
1/2-x,y,1/2+z
1/2+x,1/2-y,1/2+z
loop_
_atom_site_type_symbol
_atom_site_label
_atom_site_fract_x
_atom_site_fract_y
_atom_site_fract_z
Si Si1 0.413656 0.133364 0.035962
Si Si2 0.979544 0.506883 0.169908
Si Si3 0.108922 0.672903 0.995537
Si Si4 0.340677 0.504409 0.084194
Si Si5 0.590851 0.197060 0.824421
O O1 0.508021 0.142155 0.995614
O O2 0.385532 0.237484 0.048765
O O3 0.427797 0.069307 0.109752
O O4 0.349691 0.086372 0.976560
O O5 0.073437 0.488876 0.134019
O O6 0.000000 0.556051 0.250000
O O7 0.931263 0.410681 0.187494
O O8 0.154949 0.587455 0.033078
O O9 0.134882 0.698988 0.908425
O O10 0.250000 0.500000 0.127194
O O11 0.500000 0.250000 0.834415
O O12 0.630497 0.250000 0.750000
#
# Coordination Sequence:
#
# PCOD9505810 Si02
#       5
#    16  16  16  16  16
#     4  10  19  35  58  85 111 154 201 240 287 349
#     4  11  20  36  59  85 117 150 200 250 289 352
#     4  10  18  36  60  87 116 148 209 249 277 353
#     4  11  22  37  58  87 125 158 189 243 307 362
#     4  11  17  27  56  95 108 132 191 260 299 310
#
# _framework density 20.313970999999999
#
# number of rings (size 3 to 8) (size 9 to 14) (size 15 to 20)
#    0.000    1.400    8.000    1.200    0.000    0.800 
#    0.000    9.000    0.000    2.400    0.000    0.000 
#    0.000    0.000    0.000    0.000    0.000    0.000 
#
# Total GULP energy -223026.796196 kJ/mol
# GULP energy per Si atom -5575.669905 kJ/mol
# Density = 2.026774 g / cm^3
# Si number density = 20.313971 Si / 1000 Ang^3
#
#
#
# Elastic Constant Matrix: (Units=GPa)
#
#
# Indices 1 2 3 4 5 6 
#
# 1 26.9959 17.6227 -12.4100 0.0000 0.0000 0.0000
# 2 17.6227 110.3654 27.3573 0.0000 0.0000 0.0000
# 3 -12.4100 27.3573 93.7487 0.0000 0.0000 0.0000
# 4 0.0000 0.0000 0.0000 18.4081 0.0000 0.0000
# 5 0.0000 0.0000 0.0000 0.0000 -0.0366 0.0000
# 6 0.0000 0.0000 0.0000 0.0000 0.0000 -13.6380
#
#
#
# Elastic Compliance Matrix: (Units=1/GPa)
#
#
# Indices 1 2 3 4 5 6 
#
# 1 0.047744 -0.009907 0.009211 0.000000 0.000000 0.000000
# 2 -0.009907 0.011823 -0.004762 0.000000 0.000000 0.000000
# 3 0.009211 -0.004762 0.013276 0.000000 0.000000 0.000000
# 4 0.000000 0.000000 0.000000 0.054324 0.000000 0.000000
# 5 0.000000 0.000000 0.000000 0.000000-27.314940 0.000000
# 6 0.000000 0.000000 0.000000 0.000000 0.000000 -0.073325
#
#
# Mechanical properties :
#
#
# Convention : Reuss Voigt Hill
#
# Bulk Modulus (GPa) = 16.14773 32.91666 24.53220
# Shear Modulus (GPa) = -0.18362 14.18270 6.99954
#
# Velocity S-wave (km/s) = -0.30098 2.64517 1.85827
# Velocity P-wave (km/s) = 2.80099 5.05651 4.08741
#
# Compressibility (1/GPa) = 0.06192820
#
# Stress axis : x y z
#
# Youngs Moduli (GPa) = 20.94500 84.58098 75.32589
#
# Poissons Ratio (x) = 0.83793 -0.69384
# Poissons Ratio (y) = 0.20750 0.35867
# Poissons Ratio (z) = -0.19293 0.40274
#
# Static dielectric constant tensor:
#      x y z
#    x 1.750240 0.000000 0.000000 
#    y 0.000000 1.731540 0.000000 
#    z 0.000000 0.000000 1.778810 
# 
# From -- ./inp_files/31776.got.cif
#   From: 2010.05.17/outbox.cif.g08.bks.cpg/sg68_16_cif.got.tgz:31776.got - 2010.06.03 18:57:09.
