data_PCOD9505385
_publ_section_title
;
Structure prediction by ZEFSAII (Michael W. Deem and Ramdas Pophale) SiO2 
 PCOD9505385
Probable space group: C C C A
;
_chemical_formula_sum "Si O2"
_cell_formula_units_Z 104
_cell_length_a 17.206628
_cell_length_b 23.870728
_cell_length_c 12.278054
_cell_angle_alpha 90.000000
_cell_angle_beta 90.000000
_cell_angle_gamma 90.000000
_cell_volume 5043.023278
_symmetry_space_group_name_H-M "C C C A"
_symmetry_group_IT_number 68
_space_group.IT_coordinate_system_code '2'
_symmetry_cell_setting 'orthorhombic'
loop_
_space_group_symop_operation_xyz
x,y,z
-x,1/2-y,z
x,1/2-y,1/2-z
-x,y,1/2-z
-x,-y,-z
x,1/2+y,-z
-x,1/2+y,1/2+z
x,-y,1/2+z
1/2+x,1/2+y,z
1/2-x,-y,z
1/2+x,-y,1/2-z
1/2-x,1/2+y,1/2-z
1/2-x,1/2-y,-z
1/2+x,y,-z
1/2-x,y,1/2+z
1/2+x,1/2-y,1/2+z
loop_
_atom_site_type_symbol
_atom_site_label
_atom_site_fract_x
_atom_site_fract_y
_atom_site_fract_z
Si Si1 0.000000 0.250000 0.064238
Si Si2 0.625148 0.750000 0.250000
Si Si3 0.898053 0.449448 0.684026
Si Si4 0.305605 0.947806 0.879717
Si Si5 0.957666 0.130507 0.993161
Si Si6 0.673927 0.869393 0.179427
Si Si7 0.062953 0.574493 0.840644
Si Si8 0.250000 0.000000 0.084647
O O1 0.930534 0.265841 0.148111
O O2 0.974496 0.196547 0.994851
O O3 0.671625 0.804665 0.213309
O O4 0.885181 0.446358 0.813605
O O5 0.935318 0.398183 0.620197
O O6 0.939563 0.507528 0.655292
O O7 0.809187 0.458560 0.643321
O O8 0.256780 0.892328 0.856993
O O9 0.306613 0.963001 0.006584
O O10 0.250000 0.000000 0.841575
O O11 0.885441 0.121116 0.077863
O O12 0.032488 0.101405 0.048592
O O13 0.641779 0.904615 0.282865
O O14 0.000000 0.594116 0.750000
#
# Coordination Sequence:
#
# PCOD9505385 Si02
#       8
#     8   8  16  16  16  16  16   8
#     4   9  16  30  48  76 101 128 166 216 261 310
#     4   9  16  26  54  74  96 132 167 210 278 294
#     4  12  20  33  52  76 106 146 169 209 274 314
#     4  10  19  31  50  72 104 139 170 212 253 312
#     4  10  19  30  50  77 105 133 171 215 265 313
#     4  10  16  32  50  75 103 131 169 220 257 311
#     4  10  19  31  48  79 112 129 165 216 260 321
#     4  10  18  34  50  72 102 138 176 212 250 308
#
# _framework density 20.62255
#
# number of rings (size 3 to 8) (size 9 to 14) (size 15 to 20)
#    0.462    1.385    5.385    0.462    2.154    0.000 
#    0.000    0.000    0.000    5.538    0.000    0.000 
#    0.000    0.000    0.000    0.000    0.000    0.000 
#
# Total GULP energy -290126.812983 kJ/mol
# GULP energy per Si atom -5579.361788 kJ/mol
# Density = 2.057561 g / cm^3
# Si number density = 20.622550 Si / 1000 Ang^3
#
#
#
# Elastic Constant Matrix: (Units=GPa)
#
#
# Indices 1 2 3 4 5 6 
#
# 1 38.9817 10.3147 7.2580 0.0000 0.0000 0.0000
# 2 10.3147 80.7531 11.7007 0.0000 0.0000 0.0000
# 3 7.2580 11.7007 58.6298 0.0000 0.0000 0.0000
# 4 0.0000 0.0000 0.0000 19.5343 0.0000 0.0000
# 5 0.0000 0.0000 0.0000 0.0000 21.7032 0.0000
# 6 0.0000 0.0000 0.0000 0.0000 0.0000 23.2507
#
#
#
# Elastic Compliance Matrix: (Units=1/GPa)
#
#
# Indices 1 2 3 4 5 6 
#
# 1 0.026968 -0.003049 -0.002730 0.000000 0.000000 0.000000
# 2 -0.003049 0.013097 -0.002236 0.000000 0.000000 0.000000
# 3 -0.002730 -0.002236 0.017840 0.000000 0.000000 0.000000
# 4 0.000000 0.000000 0.000000 0.051192 0.000000 0.000000
# 5 0.000000 0.000000 0.000000 0.000000 0.046076 0.000000
# 6 0.000000 0.000000 0.000000 0.000000 0.000000 0.043009
#
#
# Mechanical properties :
#
#
# Convention : Reuss Voigt Hill
#
# Bulk Modulus (GPa) = 23.88075 26.32349 25.10212
# Shear Modulus (GPa) = 21.91327 22.83704 22.37516
#
# Velocity S-wave (km/s) = 3.26327 3.33135 3.29748
# Velocity P-wave (km/s) = 5.07973 5.25255 5.16686
#
# Compressibility (1/GPa) = 0.04187474
#
# Stress axis : x y z
#
# Youngs Moduli (GPa) = 37.08080 76.35386 56.05245
#
# Poissons Ratio (x) = 0.23281 0.15302
# Poissons Ratio (y) = 0.11306 0.12535
# Poissons Ratio (z) = 0.10123 0.17075
#
# Static dielectric constant tensor:
#      x y z
#    x 1.768970 0.000000 0.000000 
#    y 0.000000 1.704090 0.000000 
#    z 0.000000 0.000000 1.815740 
# 
# From -- ./inp_files/23917.got.cif
#   From: 2010.05.17/outbox.cif.g08.bks.cpg/sg68_12_cif.got.tgz:23917.got - 2010.06.03 18:57:09.
