data_PCOD9505409
_publ_section_title
;
Structure prediction by ZEFSAII (Michael W. Deem and Ramdas Pophale) SiO2 
 PCOD9505409
Probable space group: C C C A
;
_chemical_formula_sum "Si O2"
_cell_formula_units_Z 56
_cell_length_a 29.959591
_cell_length_b 15.571186
_cell_length_c 5.210688
_cell_angle_alpha 90.000000
_cell_angle_beta 90.000000
_cell_angle_gamma 90.000000
_cell_volume 2430.819113
_symmetry_space_group_name_H-M "C C C A"
_symmetry_group_IT_number 68
_space_group.IT_coordinate_system_code '2'
_symmetry_cell_setting 'orthorhombic'
loop_
_space_group_symop_operation_xyz
x,y,z
-x,1/2-y,z
x,1/2-y,1/2-z
-x,y,1/2-z
-x,-y,-z
x,1/2+y,-z
-x,1/2+y,1/2+z
x,-y,1/2+z
1/2+x,1/2+y,z
1/2-x,-y,z
1/2+x,-y,1/2-z
1/2-x,1/2+y,1/2-z
1/2-x,1/2-y,-z
1/2+x,y,-z
1/2-x,y,1/2+z
1/2+x,1/2-y,1/2+z
loop_
_atom_site_type_symbol
_atom_site_label
_atom_site_fract_x
_atom_site_fract_y
_atom_site_fract_z
Si Si1 0.868868 0.050119 0.659973
Si Si2 0.000000 0.935667 0.750000
Si Si3 0.950039 0.841271 0.361457
Si Si4 0.269852 0.599343 0.717616
O O1 0.914637 0.093771 0.742924
O O2 0.822995 0.098040 0.727128
O O3 0.867044 0.030068 0.358218
O O4 0.959964 0.870309 0.658716
O O5 0.000000 0.000000 0.500000
O O6 0.933670 0.750000 0.250000
O O7 0.000000 0.844979 0.250000
O O8 0.250000 0.500000 0.710696
O O9 0.251924 0.640719 0.462308
#
# Coordination Sequence:
#
# PCOD9505409 Si02
#       4
#    16   8  16  16
#     4  12  23  38  67 101 128 172 233 291 339 418
#     4  12  24  49  75 104 132 178 246 306 345 412
#     4  11  28  49  68  96 147 190 233 289 373 432
#     4  10  16  33  57  93 129 163 210 284 355 396
#
# _framework density 23.037503000000001
#
# number of rings (size 3 to 8) (size 9 to 14) (size 15 to 20)
#    0.000    0.857    7.143    1.714    4.000    2.286 
#    0.000    0.000    0.000    1.714    0.000    0.000 
#    0.000    0.000    0.000    0.000    0.000    0.000 
#
# Total GULP energy -155897.650879 kJ/mol
# GULP energy per Si atom -5567.773246 kJ/mol
# Density = 2.298507 g / cm^3
# Si number density = 23.037503 Si / 1000 Ang^3
#
#
#
# Elastic Constant Matrix: (Units=GPa)
#
#
# Indices 1 2 3 4 5 6 
#
# 1 144.4808 -3.2026 16.2991 0.0000 0.0000 0.0000
# 2 -3.2026 55.2588 23.4860 0.0000 0.0000 0.0000
# 3 16.2991 23.4860 156.6681 0.0000 0.0000 0.0000
# 4 0.0000 0.0000 0.0000 17.6920 0.0000 0.0000
# 5 0.0000 0.0000 0.0000 0.0000 31.5517 0.0000
# 6 0.0000 0.0000 0.0000 0.0000 0.0000 -11.4157
#
#
#
# Elastic Compliance Matrix: (Units=1/GPa)
#
#
# Indices 1 2 3 4 5 6 
#
# 1 0.007034 0.000768 -0.000847 0.000000 0.000000 0.000000
# 2 0.000768 0.019412 -0.002990 0.000000 0.000000 0.000000
# 3 -0.000847 -0.002990 0.006919 0.000000 0.000000 0.000000
# 4 0.000000 0.000000 0.000000 0.056523 0.000000 0.000000
# 5 0.000000 0.000000 0.000000 0.000000 0.031694 0.000000
# 6 0.000000 0.000000 0.000000 0.000000 0.000000 -0.087598
#
#
# Mechanical properties :
#
#
# Convention : Reuss Voigt Hill
#
# Bulk Modulus (GPa) = 36.72859 47.73029 42.22944
# Shear Modulus (GPa) = 101.63187 28.88727 65.25957
#
# Velocity S-wave (km/s) = 6.64918 3.54492 5.32814
# Velocity P-wave (km/s) = 8.65600 6.12526 7.49817
#
# Compressibility (1/GPa) = 0.02722675
#
# Stress axis : x y z
#
# Youngs Moduli (GPa) = 142.16899 51.51474 144.52466
#
# Poissons Ratio (x) = -0.03954 0.12239
# Poissons Ratio (y) = -0.10913 0.43211
# Poissons Ratio (z) = 0.12039 0.15402
#
# Static dielectric constant tensor:
#      x y z
#    x 1.824580 0.000000 0.000000 
#    y 0.000000 1.960540 0.000000 
#    z 0.000000 0.000000 1.993180 
# 
# From -- ./inp_files/2557.got.cif
#   From: 2010.05.17/outbox.cif.g08.bks.cpg/sg68_2_cif.got.tgz:2557.got - 2010.06.03 18:57:09.
