data_PCOD9505907
_publ_section_title
;
Structure prediction by ZEFSAII (Michael W. Deem and Ramdas Pophale) SiO2 
 PCOD9505907
Probable space group: C C C A
;
_chemical_formula_sum "Si O2"
_cell_formula_units_Z 60
_cell_length_a 29.030125
_cell_length_b 21.541142
_cell_length_c 5.241224
_cell_angle_alpha 90.000000
_cell_angle_beta 90.000000
_cell_angle_gamma 90.000000
_cell_volume 3277.557734
_symmetry_space_group_name_H-M "C C C A"
_symmetry_group_IT_number 68
_space_group.IT_coordinate_system_code '2'
_symmetry_cell_setting 'orthorhombic'
loop_
_space_group_symop_operation_xyz
x,y,z
-x,1/2-y,z
x,1/2-y,1/2-z
-x,y,1/2-z
-x,-y,-z
x,1/2+y,-z
-x,1/2+y,1/2+z
x,-y,1/2+z
1/2+x,1/2+y,z
1/2-x,-y,z
1/2+x,-y,1/2-z
1/2-x,1/2+y,1/2-z
1/2-x,1/2-y,-z
1/2+x,y,-z
1/2-x,y,1/2+z
1/2+x,1/2-y,1/2+z
loop_
_atom_site_type_symbol
_atom_site_label
_atom_site_fract_x
_atom_site_fract_y
_atom_site_fract_z
Si Si1 0.000000 0.542324 0.250000
Si Si2 0.500000 0.250000 0.250000
Si Si3 0.623528 0.319349 0.849933
Si Si4 0.231016 0.178839 0.464817
Si Si5 0.429080 0.351195 0.131679
O O1 0.043644 0.587900 0.219441
O O2 0.000000 0.500000 0.500000
O O3 0.467252 0.296655 0.092346
O O4 0.614821 0.250000 0.750000
O O5 0.678495 0.324406 0.877843
O O6 0.600093 0.359974 0.626620
O O7 0.601785 0.330149 0.127721
O O8 0.250000 0.250000 0.500000
O O9 0.238196 0.150047 0.742027
#
# Coordination Sequence:
#
# PCOD9505907 Si02
#       5
#     8   4  16  16  16
#     4  11  24  47  64  77 108 147 202 254 290 337
#     4  10  20  34  48  78 116 136 172 208 284 368
#     4  12  20  33  51  81 125 153 182 224 266 345
#     4  10  19  29  46  71 112 172 186 201 256 326
#     4  11  24  35  56  85 109 153 184 234 293 336
#
# _framework density 18.306315000000001
#
# number of rings (size 3 to 8) (size 9 to 14) (size 15 to 20)
#    0.000    1.067    5.333    3.200    3.733    4.267 
#    0.000    0.000    0.000    0.000    0.000    0.000 
#    0.000   74.667    0.000    0.000    0.000    0.000 
#
# Total GULP energy -167310.388164 kJ/mol
# GULP energy per Si atom -5577.012939 kJ/mol
# Density = 1.826465 g / cm^3
# Si number density = 18.306315 Si / 1000 Ang^3
#
#
#
# Elastic Constant Matrix: (Units=GPa)
#
#
# Indices 1 2 3 4 5 6 
#
# 1 127.1442 26.7092 50.2067 0.0000 0.0000 0.0000
# 2 26.7092 56.2959 13.7314 0.0000 0.0000 0.0000
# 3 50.2067 13.7314 143.2993 0.0000 0.0000 0.0000
# 4 0.0000 0.0000 0.0000 24.7466 0.0000 0.0000
# 5 0.0000 0.0000 0.0000 0.0000 30.6825 0.0000
# 6 0.0000 0.0000 0.0000 0.0000 0.0000 11.4290
#
#
#
# Elastic Compliance Matrix: (Units=1/GPa)
#
#
# Indices 1 2 3 4 5 6 
#
# 1 0.009918 -0.003950 -0.003096 0.000000 0.000000 0.000000
# 2 -0.003950 0.019762 -0.000510 0.000000 0.000000 0.000000
# 3 -0.003096 -0.000510 0.008112 0.000000 0.000000 0.000000
# 4 0.000000 0.000000 0.000000 0.040410 0.000000 0.000000
# 5 0.000000 0.000000 0.000000 0.000000 0.032592 0.000000
# 6 0.000000 0.000000 0.000000 0.000000 0.000000 0.087496
#
#
# Mechanical properties :
#
#
# Convention : Reuss Voigt Hill
#
# Bulk Modulus (GPa) = 44.09308 56.44823 50.27065
# Shear Modulus (GPa) = 22.62845 29.11110 25.86978
#
# Velocity S-wave (km/s) = 3.51964 3.99208 3.76328
# Velocity P-wave (km/s) = 6.37618 7.22159 6.81201
#
# Compressibility (1/GPa) = 0.02267929
#
# Stress axis : x y z
#
# Youngs Moduli (GPa) = 100.83172 50.60298 123.27359
#
# Poissons Ratio (x) = 0.19989 0.38168
# Poissons Ratio (y) = 0.39829 0.06283
# Poissons Ratio (z) = 0.31220 0.02579
#
# Static dielectric constant tensor:
#      x y z
#    x 1.659810 0.000000 0.000000 
#    y 0.000000 1.460230 0.000000 
#    z 0.000000 0.000000 1.625500 
# 
# From -- ./inp_files/1429.got.cif
#   From: 2010.05.17/outbox.cif.g08.bks.cpg/sg68_1_cif.got.tgz:1429.got - 2010.06.03 18:57:09.
