data_PCOD9505840
_publ_section_title
;
Structure prediction by ZEFSAII (Michael W. Deem and Ramdas Pophale) SiO2 
 PCOD9505840
Probable space group: C C C A
;
_chemical_formula_sum "Si O2"
_cell_formula_units_Z 112
_cell_length_a 29.590337
_cell_length_b 11.148246
_cell_length_c 14.390121
_cell_angle_alpha 90.000000
_cell_angle_beta 90.000000
_cell_angle_gamma 90.000000
_cell_volume 4747.018240
_symmetry_space_group_name_H-M "C C C A"
_symmetry_group_IT_number 68
_space_group.IT_coordinate_system_code '2'
_symmetry_cell_setting 'orthorhombic'
loop_
_space_group_symop_operation_xyz
x,y,z
-x,1/2-y,z
x,1/2-y,1/2-z
-x,y,1/2-z
-x,-y,-z
x,1/2+y,-z
-x,1/2+y,1/2+z
x,-y,1/2+z
1/2+x,1/2+y,z
1/2-x,-y,z
1/2+x,-y,1/2-z
1/2-x,1/2+y,1/2-z
1/2-x,1/2-y,-z
1/2+x,y,-z
1/2-x,y,1/2+z
1/2+x,1/2-y,1/2+z
loop_
_atom_site_type_symbol
_atom_site_label
_atom_site_fract_x
_atom_site_fract_y
_atom_site_fract_z
Si Si1 0.425467 0.095868 0.011376
Si Si2 0.328735 0.679480 0.455911
Si Si3 0.438093 0.657542 0.488229
Si Si4 0.543911 0.383796 0.296068
Si Si5 0.125603 0.131544 0.694969
Si Si6 0.670917 0.443512 0.932987
Si Si7 0.199815 0.950438 0.718614
O O1 0.453430 0.205182 0.967314
O O2 0.401046 0.154791 0.100605
O O3 0.383791 0.057199 0.945945
O O4 0.449316 0.975805 0.049741
O O5 0.383915 0.669244 0.462324
O O6 0.312527 0.568657 0.520901
O O7 0.314979 0.816159 0.479819
O O8 0.310346 0.657903 0.351613
O O9 0.454330 0.633368 0.594568
O O10 0.545659 0.250000 0.250000
O O11 0.500000 0.441300 0.250000
O O12 0.590381 0.439301 0.260120
O O13 0.139608 0.250000 0.750000
O O14 0.167936 0.051956 0.674813
O O15 0.685151 0.437742 0.825677
O O16 0.250000 0.000000 0.715440
#
# Coordination Sequence:
#
# PCOD9505840 Si02
#       7
#    16  16  16  16  16  16  16
#     4  10  19  36  64  99 128 175 226 281 346 414
#     4  10  22  43  65  94 132 169 226 284 339 420
#     4  10  18  37  64  98 134 172 223 287 349 406
#     4  10  20  36  67 103 136 175 238 286 341 422
#     4  11  20  38  67  93 131 179 234 285 347 422
#     4  10  22  40  64  91 131 172 223 278 344 408
#     4  12  26  42  64  95 133 187 235 293 359 421
#
# _framework density 23.593758999999999
#
# number of rings (size 3 to 8) (size 9 to 14) (size 15 to 20)
#    0.000    1.571    5.714    2.143    2.000    1.714 
#    0.000    2.143    0.000    0.000    0.000    2.000 
#    0.000    0.000    0.000    0.000    0.000    0.000 
#
# Total GULP energy -312030.138323 kJ/mol
# GULP energy per Si atom -5571.966756 kJ/mol
# Density = 2.354006 g / cm^3
# Si number density = 23.593759 Si / 1000 Ang^3
#
#
#
# Elastic Constant Matrix: (Units=GPa)
#
#
# Indices 1 2 3 4 5 6 
#
# 1 63.2099 0.2472 -2.0987 0.0000 0.0000 0.0000
# 2 0.2472 168.5697 13.4644 0.0000 0.0000 0.0000
# 3 -2.0987 13.4644 107.8562 0.0000 0.0000 0.0000
# 4 0.0000 0.0000 0.0000 39.8936 0.0000 0.0000
# 5 0.0000 0.0000 0.0000 0.0000 19.0228 0.0000
# 6 0.0000 0.0000 0.0000 0.0000 0.0000 9.9437
#
#
#
# Elastic Compliance Matrix: (Units=1/GPa)
#
#
# Indices 1 2 3 4 5 6 
#
# 1 0.015831 -0.000048 0.000314 0.000000 0.000000 0.000000
# 2 -0.000048 0.005992 -0.000749 0.000000 0.000000 0.000000
# 3 0.000314 -0.000749 0.009371 0.000000 0.000000 0.000000
# 4 0.000000 0.000000 0.000000 0.025067 0.000000 0.000000
# 5 0.000000 0.000000 0.000000 0.000000 0.052569 0.000000
# 6 0.000000 0.000000 0.000000 0.000000 0.000000 0.100566
#
#
# Mechanical properties :
#
#
# Convention : Reuss Voigt Hill
#
# Bulk Modulus (GPa) = 33.08204 40.31796 36.70000
# Shear Modulus (GPa) = 22.68210 35.64022 29.16116
#
# Velocity S-wave (km/s) = 3.10394 3.89083 3.51945
# Velocity P-wave (km/s) = 5.18632 6.10821 5.66605
#
# Compressibility (1/GPa) = 0.03022788
#
# Stress axis : x y z
#
# Youngs Moduli (GPa) = 63.16751 166.88477 106.70971
#
# Poissons Ratio (x) = 0.00806 -0.03352
# Poissons Ratio (y) = 0.00305 0.07992
# Poissons Ratio (z) = -0.01984 0.12499
#
# Static dielectric constant tensor:
#      x y z
#    x 1.976850 0.000000 0.000000 
#    y 0.000000 2.019380 0.000000 
#    z 0.000000 0.000000 1.972300 
# 
# From -- ./inp_files/26442.got.cif
#   From: 2010.05.17/outbox.cif.g08.bks.cpg/sg68_14_cif.got.tgz:26442.got - 2010.06.03 18:57:09.
