data_PCOD9505297
_publ_section_title
;
Structure prediction by ZEFSAII (Michael W. Deem and Ramdas Pophale) SiO2 
 PCOD9505297
Probable space group: C C C A
;
_chemical_formula_sum "Si O2"
_cell_formula_units_Z 104
_cell_length_a 28.513189
_cell_length_b 19.918568
_cell_length_c 9.026202
_cell_angle_alpha 90.000000
_cell_angle_beta 90.000000
_cell_angle_gamma 90.000000
_cell_volume 5126.358259
_symmetry_space_group_name_H-M "C C C A"
_symmetry_group_IT_number 68
_space_group.IT_coordinate_system_code '2'
_symmetry_cell_setting 'orthorhombic'
loop_
_space_group_symop_operation_xyz
x,y,z
-x,1/2-y,z
x,1/2-y,1/2-z
-x,y,1/2-z
-x,-y,-z
x,1/2+y,-z
-x,1/2+y,1/2+z
x,-y,1/2+z
1/2+x,1/2+y,z
1/2-x,-y,z
1/2+x,-y,1/2-z
1/2-x,1/2+y,1/2-z
1/2-x,1/2-y,-z
1/2+x,y,-z
1/2-x,y,1/2+z
1/2+x,1/2-y,1/2+z
loop_
_atom_site_type_symbol
_atom_site_label
_atom_site_fract_x
_atom_site_fract_y
_atom_site_fract_z
Si Si1 0.250000 0.000000 0.658089
Si Si2 0.167665 0.649850 0.614327
Si Si3 0.433742 0.375670 0.502238
Si Si4 0.058185 0.713173 0.004243
Si Si5 0.000000 0.864177 0.250000
Si Si6 0.000000 0.642228 0.750000
Si Si7 0.836827 0.695308 0.542528
Si Si8 0.229283 0.092650 0.911386
O O1 0.218707 0.955419 0.549785
O O2 0.278405 0.949557 0.763176
O O3 0.121161 0.615856 0.542898
O O4 0.172684 0.725226 0.549934
O O5 0.163859 0.664278 0.791162
O O6 0.215413 0.609768 0.585836
O O7 0.438943 0.293740 0.496918
O O8 0.460486 0.400341 0.353367
O O9 0.466038 0.398000 0.640066
O O10 0.029407 0.682032 0.138177
O O11 0.033909 0.686579 0.854447
O O12 0.110681 0.686533 0.014074
O O13 0.800397 0.658904 0.435602
#
# Coordination Sequence:
#
# PCOD9505297 Si02
#       8
#     8  16  16  16   8   8  16  16
#     4  10  24  38  62  78 104 144 192 236 284 318
#     4  10  20  34  55  84 115 150 185 222 277 343
#     4  10  17  27  44  70 105 147 187 216 258 322
#     4  10  17  27  44  70 105 147 187 216 258 322
#     4  10  19  28  40  68 112 153 184 221 260 306
#     4  10  15  24  44  64 100 149 182 215 250 310
#     4  10  20  34  55  84 115 150 185 222 277 343
#     4  11  21  42  58  82 111 145 182 238 276 333
#
# _framework density 20.287306000000001
#
# number of rings (size 3 to 8) (size 9 to 14) (size 15 to 20)
#    0.000    1.846    3.077    4.154    0.000    1.231 
#    0.000    1.538    0.000    0.000    0.000    0.000 
#    0.000   86.154    0.000    0.000    0.000    0.000 
#
# Total GULP energy -290041.802612 kJ/mol
# GULP energy per Si atom -5577.726973 kJ/mol
# Density = 2.024113 g / cm^3
# Si number density = 20.287306 Si / 1000 Ang^3
#
#
#
# Elastic Constant Matrix: (Units=GPa)
#
#
# Indices 1 2 3 4 5 6 
#
# 1 139.8583 20.6333 24.9928 0.0000 0.0000 0.0000
# 2 20.6333 22.2381 11.3853 0.0000 0.0000 0.0000
# 3 24.9928 11.3853 95.6772 0.0000 0.0000 0.0000
# 4 0.0000 0.0000 0.0000 15.8172 0.0000 0.0000
# 5 0.0000 0.0000 0.0000 0.0000 19.3872 0.0000
# 6 0.0000 0.0000 0.0000 0.0000 0.0000 -3.1704
#
#
#
# Elastic Compliance Matrix: (Units=1/GPa)
#
#
# Indices 1 2 3 4 5 6 
#
# 1 0.008446 -0.007142 -0.001356 0.000000 0.000000 0.000000
# 2 -0.007142 0.053925 -0.004551 0.000000 0.000000 0.000000
# 3 -0.001356 -0.004551 0.011348 0.000000 0.000000 0.000000
# 4 0.000000 0.000000 0.000000 0.063222 0.000000 0.000000
# 5 0.000000 0.000000 0.000000 0.000000 0.051580 0.000000
# 6 0.000000 0.000000 0.000000 0.000000 0.000000 -0.315419
#
#
# Mechanical properties :
#
#
# Convention : Reuss Voigt Hill
#
# Bulk Modulus (GPa) = 21.00000 41.31071 31.15535
# Shear Modulus (GPa) = -58.87548 19.79095 -19.54227
#
# Velocity S-wave (km/s) = -5.39294 3.12674 -3.10704
# Velocity P-wave (km/s) = 5.32961 5.78294 1.58709
#
# Compressibility (1/GPa) = 0.04761906
#
# Stress axis : x y z
#
# Youngs Moduli (GPa) = 118.39673 18.54432 88.12350
#
# Poissons Ratio (x) = 0.13245 0.11953
# Poissons Ratio (y) = 0.84562 0.40107
# Poissons Ratio (z) = 0.16059 0.08440
#
# Static dielectric constant tensor:
#      x y z
#    x 1.738060 0.000000 0.000000 
#    y 0.000000 1.716430 0.000000 
#    z 0.000000 0.000000 1.769560 
# 
# From -- ./inp_files/9034.got.cif
#   From: 2010.05.17/outbox.cif.g08.bks.cpg/sg68_5_cif.got.tgz:9034.got - 2010.06.03 18:57:09.
