data_PCOD9505454
_publ_section_title
;
Structure prediction by ZEFSAII (Michael W. Deem and Ramdas Pophale) SiO2 
 PCOD9505454
Probable space group: C C C A
;
_chemical_formula_sum "Si O2"
_cell_formula_units_Z 88
_cell_length_a 10.841494
_cell_length_b 11.246015
_cell_length_c 32.507905
_cell_angle_alpha 90.000000
_cell_angle_beta 90.000000
_cell_angle_gamma 90.000000
_cell_volume 3963.480941
_symmetry_space_group_name_H-M "C C C A"
_symmetry_group_IT_number 68
_space_group.IT_coordinate_system_code '2'
_symmetry_cell_setting 'orthorhombic'
loop_
_space_group_symop_operation_xyz
x,y,z
-x,1/2-y,z
x,1/2-y,1/2-z
-x,y,1/2-z
-x,-y,-z
x,1/2+y,-z
-x,1/2+y,1/2+z
x,-y,1/2+z
1/2+x,1/2+y,z
1/2-x,-y,z
1/2+x,-y,1/2-z
1/2-x,1/2+y,1/2-z
1/2-x,1/2-y,-z
1/2+x,y,-z
1/2-x,y,1/2+z
1/2+x,1/2-y,1/2+z
loop_
_atom_site_type_symbol
_atom_site_label
_atom_site_fract_x
_atom_site_fract_y
_atom_site_fract_z
Si Si1 0.150234 0.389454 0.343746
Si Si2 0.530167 0.918287 0.655627
Si Si3 0.947845 0.416453 0.563492
Si Si4 0.673846 0.824577 0.431653
Si Si5 0.328527 0.753120 0.702080
Si Si6 0.000000 0.250000 0.005263
O O1 0.250000 0.500000 0.352779
O O2 0.153701 0.304605 0.383377
O O3 0.198683 0.315860 0.305545
O O4 0.017776 0.448551 0.338213
O O5 0.519469 0.897209 0.606582
O O6 0.423723 0.841076 0.678595
O O7 0.651562 0.871066 0.678200
O O8 0.818516 0.344921 0.563396
O O9 0.902577 0.552380 0.561058
O O10 0.018473 0.362405 0.524783
O O11 0.615881 0.734691 0.464119
O O12 0.356544 0.750000 0.750000
#
# Coordination Sequence:
#
# PCOD9505454 Si02
#       6
#    16  16  16  16  16   8
#     4   9  16  33  55  71 105 151 176 215 273 330
#     4   9  16  30  52  78 105 138 180 224 268 327
#     4  10  19  35  52  75 101 146 182 213 270 333
#     4  10  19  36  50  72 110 140 179 216 271 330
#     4  10  17  27  52  89 102 125 187 234 261 325
#     4  12  22  28  54  84 102 136 180 238 266 308
#
# _framework density 22.202705999999999
#
# number of rings (size 3 to 8) (size 9 to 14) (size 15 to 20)
#    0.000    2.182    5.455    3.273    0.000    0.000 
#    0.000    0.000    0.000   19.636    0.000    0.000 
#    0.000    0.000    0.000    0.000    0.000    0.000 
#
# Total GULP energy -245276.650022 kJ/mol
# GULP energy per Si atom -5574.469319 kJ/mol
# Density = 2.215217 g / cm^3
# Si number density = 22.202706 Si / 1000 Ang^3
#
#
#
# Elastic Constant Matrix: (Units=GPa)
#
#
# Indices 1 2 3 4 5 6 
#
# 1 32.7647 16.6462 25.2187 0.0000 0.0000 0.0000
# 2 16.6462 28.2322 28.1698 0.0000 0.0000 0.0000
# 3 25.2187 28.1698 150.7058 0.0000 0.0000 0.0000
# 4 0.0000 0.0000 0.0000 3.6054 0.0000 0.0000
# 5 0.0000 0.0000 0.0000 0.0000 7.2713 0.0000
# 6 0.0000 0.0000 0.0000 0.0000 0.0000 23.4916
#
#
#
# Elastic Compliance Matrix: (Units=1/GPa)
#
#
# Indices 1 2 3 4 5 6 
#
# 1 0.044752 -0.023251 -0.003143 0.000000 0.000000 0.000000
# 2 -0.023251 0.055621 -0.006506 0.000000 0.000000 0.000000
# 3 -0.003143 -0.006506 0.008377 0.000000 0.000000 0.000000
# 4 0.000000 0.000000 0.000000 0.277363 0.000000 0.000000
# 5 0.000000 0.000000 0.000000 0.000000 0.137527 0.000000
# 6 0.000000 0.000000 0.000000 0.000000 0.000000 0.042568
#
#
# Mechanical properties :
#
#
# Convention : Reuss Voigt Hill
#
# Bulk Modulus (GPa) = 23.28192 39.08578 31.18385
# Shear Modulus (GPa) = 7.73603 16.31820 12.02711
#
# Velocity S-wave (km/s) = 1.86865 2.71396 2.32996
# Velocity P-wave (km/s) = 3.89418 5.24052 4.61669
#
# Compressibility (1/GPa) = 0.04295179
#
# Stress axis : x y z
#
# Youngs Moduli (GPa) = 22.34523 17.97872 119.36867
#
# Poissons Ratio (x) = 0.41802 0.37513
# Poissons Ratio (y) = 0.51955 0.77660
# Poissons Ratio (z) = 0.07022 0.11697
#
# Static dielectric constant tensor:
#      x y z
#    x 1.925560 0.000000 0.000000 
#    y 0.000000 1.878410 0.000000 
#    z 0.000000 0.000000 1.789870 
# 
# From -- ./inp_files/54743.got.cif
#   From: 2010.05.17/outbox.cif.g08.bks.cpg/sg68_28_cif.got.tgz:54743.got - 2010.06.03 18:57:09.
