data_PCOD9505809
_publ_section_title
;
Structure prediction by ZEFSAII (Michael W. Deem and Ramdas Pophale) SiO2 
 PCOD9505809
Probable space group: C C C A
;
_chemical_formula_sum "Si O2"
_cell_formula_units_Z 112
_cell_length_a 10.545259
_cell_length_b 28.853819
_cell_length_c 19.828795
_cell_angle_alpha 90.000000
_cell_angle_beta 90.000000
_cell_angle_gamma 90.000000
_cell_volume 6033.327174
_symmetry_space_group_name_H-M "C C C A"
_symmetry_group_IT_number 68
_space_group.IT_coordinate_system_code '2'
_symmetry_cell_setting 'orthorhombic'
loop_
_space_group_symop_operation_xyz
x,y,z
-x,1/2-y,z
x,1/2-y,1/2-z
-x,y,1/2-z
-x,-y,-z
x,1/2+y,-z
-x,1/2+y,1/2+z
x,-y,1/2+z
1/2+x,1/2+y,z
1/2-x,-y,z
1/2+x,-y,1/2-z
1/2-x,1/2+y,1/2-z
1/2-x,1/2-y,-z
1/2+x,y,-z
1/2-x,y,1/2+z
1/2+x,1/2-y,1/2+z
loop_
_atom_site_type_symbol
_atom_site_label
_atom_site_fract_x
_atom_site_fract_y
_atom_site_fract_z
Si Si1 0.150441 0.802093 0.757769
Si Si2 0.213155 0.598568 0.992701
Si Si3 0.505813 0.917135 0.673084
Si Si4 0.147002 0.042487 0.260908
Si Si5 0.777097 0.121876 0.139391
Si Si6 0.465837 0.954595 0.539498
Si Si7 0.737268 0.120722 0.844031
O O1 0.201584 0.750000 0.750000
O O2 0.179936 0.830589 0.826013
O O3 0.199329 0.835051 0.698567
O O4 0.000000 0.799991 0.750000
O O5 0.320973 0.560013 0.974663
O O6 0.074526 0.581298 0.015507
O O7 0.194357 0.623559 0.921263
O O8 0.274734 0.622726 0.058467
O O9 0.500000 0.931219 0.750000
O O10 0.634138 0.889462 0.662045
O O11 0.490823 0.958454 0.619537
O O12 0.388282 0.884416 0.656225
O O13 0.152226 0.077441 0.326124
O O14 0.187929 0.075293 0.197250
O O15 0.000000 0.029797 0.250000
O O16 0.250000 0.000000 0.267487
O O17 0.500000 0.000000 0.500000
#
# Coordination Sequence:
#
# PCOD9505809 Si02
#       7
#    16  16  16  16  16  16  16
#     4  10  21  38  66  94 115 146 192 251 303 360
#     4  10  23  38  57  80 112 166 192 242 298 348
#     4  10  18  36  60  82 112 157 188 249 294 351
#     4  11  25  37  59  84 116 161 207 254 296 347
#     4  10  21  40  60  83 122 151 199 240 304 351
#     4  10  22  36  56  78 117 157 206 247 290 335
#     4  10  21  40  60  83 122 151 199 240 304 351
#
# _framework density 18.563554
#
# number of rings (size 3 to 8) (size 9 to 14) (size 15 to 20)
#    0.000    1.857    2.857    2.143    6.000    4.571 
#    0.000    2.143    0.000    0.000    0.000    0.000 
#    0.000    0.000    0.000    0.000    0.000    0.000 
#
# Total GULP energy -312245.222169 kJ/mol
# GULP energy per Si atom -5575.807539 kJ/mol
# Density = 1.852130 g / cm^3
# Si number density = 18.563554 Si / 1000 Ang^3
#
#
#
# Elastic Constant Matrix: (Units=GPa)
#
#
# Indices 1 2 3 4 5 6 
#
# 1 61.2974 -2.4213 -30.2509 0.0000 0.0000 0.0000
# 2 -2.4213 99.7235 28.2127 0.0000 0.0000 0.0000
# 3 -30.2509 28.2127 135.0109 0.0000 0.0000 0.0000
# 4 0.0000 0.0000 0.0000 11.6075 0.0000 0.0000
# 5 0.0000 0.0000 0.0000 0.0000 21.7429 0.0000
# 6 0.0000 0.0000 0.0000 0.0000 0.0000 10.1980
#
#
#
# Elastic Compliance Matrix: (Units=1/GPa)
#
#
# Indices 1 2 3 4 5 6 
#
# 1 0.018397 -0.000765 0.004282 0.000000 0.000000 0.000000
# 2 -0.000765 0.010690 -0.002405 0.000000 0.000000 0.000000
# 3 0.004282 -0.002405 0.008869 0.000000 0.000000 0.000000
# 4 0.000000 0.000000 0.000000 0.086151 0.000000 0.000000
# 5 0.000000 0.000000 0.000000 0.000000 0.045992 0.000000
# 6 0.000000 0.000000 0.000000 0.000000 0.000000 0.098058
#
#
# Mechanical properties :
#
#
# Convention : Reuss Voigt Hill
#
# Bulk Modulus (GPa) = 24.88843 31.90141 28.39492
# Shear Modulus (GPa) = 17.90027 28.74245 23.32136
#
# Velocity S-wave (km/s) = 3.10864 3.93915 3.54827
# Velocity P-wave (km/s) = 5.13041 6.15723 5.66712
#
# Compressibility (1/GPa) = 0.04017932
#
# Stress axis : x y z
#
# Youngs Moduli (GPa) = 54.35718 93.54900 112.75490
#
# Poissons Ratio (x) = 0.07154 -0.48280
# Poissons Ratio (y) = 0.04157 0.27119
# Poissons Ratio (z) = -0.23275 0.22499
#
# Static dielectric constant tensor:
#      x y z
#    x 1.667630 0.000000 0.000000 
#    y 0.000000 1.637990 0.000000 
#    z 0.000000 0.000000 1.737970 
# 
# From -- ./inp_files/37948.got.cif
#   From: 2010.05.17/outbox.cif.g08.bks.cpg/sg68_19_cif.got.tgz:37948.got - 2010.06.03 18:57:09.
