data_PCOD9505813
_publ_section_title
;
Structure prediction by ZEFSAII (Michael W. Deem and Ramdas Pophale) SiO2 
 PCOD9505813
Probable space group: C C C A
;
_chemical_formula_sum "Si O2"
_cell_formula_units_Z 80
_cell_length_a 10.777554
_cell_length_b 15.705906
_cell_length_c 20.414303
_cell_angle_alpha 90.000000
_cell_angle_beta 90.000000
_cell_angle_gamma 90.000000
_cell_volume 3455.554587
_symmetry_space_group_name_H-M "C C C A"
_symmetry_group_IT_number 68
_space_group.IT_coordinate_system_code '2'
_symmetry_cell_setting 'orthorhombic'
loop_
_space_group_symop_operation_xyz
x,y,z
-x,1/2-y,z
x,1/2-y,1/2-z
-x,y,1/2-z
-x,-y,-z
x,1/2+y,-z
-x,1/2+y,1/2+z
x,-y,1/2+z
1/2+x,1/2+y,z
1/2-x,-y,z
1/2+x,-y,1/2-z
1/2-x,1/2+y,1/2-z
1/2-x,1/2-y,-z
1/2+x,y,-z
1/2-x,y,1/2+z
1/2+x,1/2-y,1/2+z
loop_
_atom_site_type_symbol
_atom_site_label
_atom_site_fract_x
_atom_site_fract_y
_atom_site_fract_z
Si Si1 0.315979 0.250000 0.250000
Si Si2 0.869914 0.843480 0.127259
Si Si3 0.877738 0.341473 0.563850
Si Si4 0.000000 0.967384 0.750000
Si Si5 0.250000 0.500000 0.672628
Si Si6 0.500000 0.250000 0.553692
Si Si7 0.837928 0.636167 0.647689
O O1 0.389468 0.309092 0.200425
O O2 0.232500 0.311408 0.295022
O O3 0.848030 0.755884 0.087843
O O4 0.762882 0.913989 0.129781
O O5 0.998081 0.876850 0.098124
O O6 0.767026 0.396206 0.595879
O O7 0.921543 0.317724 0.490625
O O8 0.935122 0.920168 0.811868
O O9 0.874800 0.005017 0.716433
O O10 0.413217 0.197775 0.600977
#
# Coordination Sequence:
#
# PCOD9505813 Si02
#       7
#     8  16  16   8   8   8  16
#     4  10  18  36  60  98 126 166 208 278 342 396
#     4   9  20  38  62  93 130 171 221 268 336 412
#     4   9  22  40  67  98 125 175 226 281 336 399
#     4  12  28  41  62 103 130 186 202 280 342 413
#     4  12  26  42  64  94 148 174 226 264 356 422
#     4  10  20  37  66  99 128 166 220 292 336 384
#     4  11  21  37  61  97 132 157 218 280 334 395
#
# _framework density 23.151130999999999
#
# number of rings (size 3 to 8) (size 9 to 14) (size 15 to 20)
#    0.000    2.000    2.000    1.800    5.600    8.000 
#    0.000    0.000    0.000    9.600    0.000    0.000 
#    0.000    0.000    0.000    0.000    0.000    0.000 
#
# Total GULP energy -222761.827299 kJ/mol
# GULP energy per Si atom -5569.045682 kJ/mol
# Density = 2.309844 g / cm^3
# Si number density = 23.151131 Si / 1000 Ang^3
#
#
#
# Elastic Constant Matrix: (Units=GPa)
#
#
# Indices 1 2 3 4 5 6 
#
# 1 107.3014 17.7995 27.3802 0.0000 0.0000 0.0000
# 2 17.7995 47.1469 -1.7771 0.0000 0.0000 0.0000
# 3 27.3802 -1.7771 96.7181 0.0000 0.0000 0.0000
# 4 0.0000 0.0000 0.0000 9.9442 0.0000 0.0000
# 5 0.0000 0.0000 0.0000 0.0000 128.0891 0.0000
# 6 0.0000 0.0000 0.0000 0.0000 0.0000 156.5312
#
#
#
# Elastic Compliance Matrix: (Units=1/GPa)
#
#
# Indices 1 2 3 4 5 6 
#
# 1 0.010818 -0.004202 -0.003140 0.000000 0.000000 0.000000
# 2 -0.004202 0.022858 0.001610 0.000000 0.000000 0.000000
# 3 -0.003140 0.001610 0.011258 0.000000 0.000000 0.000000
# 4 0.000000 0.000000 0.000000 0.100561 0.000000 0.000000
# 5 0.000000 0.000000 0.000000 0.000000 0.007807 0.000000
# 6 0.000000 0.000000 0.000000 0.000000 0.000000 0.006389
#
#
# Mechanical properties :
#
#
# Convention : Reuss Voigt Hill
#
# Bulk Modulus (GPa) = 29.87911 37.55242 33.71576
# Shear Modulus (GPa) = 27.42577 72.76382 50.09479
#
# Velocity S-wave (km/s) = 3.44559 5.61232 4.65673
# Velocity P-wave (km/s) = 5.36317 7.63239 6.59609
#
# Compressibility (1/GPa) = 0.03346820
#
# Stress axis : x y z
#
# Youngs Moduli (GPa) = 92.44024 43.74925 88.82797
#
# Poissons Ratio (x) = 0.18385 0.27889
# Poissons Ratio (y) = 0.38847 -0.14298
# Poissons Ratio (z) = 0.29023 -0.07042
#
# Static dielectric constant tensor:
#      x y z
#    x 1.845900 0.000000 0.000000 
#    y 0.000000 1.796030 0.000000 
#    z 0.000000 0.000000 1.887510 
# 
# From -- ./inp_files/37411.got.cif
#   From: 2010.05.17/outbox.cif.g08.bks.cpg/sg68_19_cif.got.tgz:37411.got - 2010.06.03 18:57:09.
