data_PCOD9505115
_publ_section_title
;
Structure prediction by ZEFSAII (Michael W. Deem and Ramdas Pophale) SiO2 
 PCOD9505115
Probable space group: C M M A
;
_chemical_formula_sum "Si O2"
_cell_formula_units_Z 96
_cell_length_a 14.377732
_cell_length_b 11.096007
_cell_length_c 27.572535
_cell_angle_alpha 90.000000
_cell_angle_beta 90.000000
_cell_angle_gamma 90.000000
_cell_volume 4398.795812
_symmetry_space_group_name_H-M "C M M A"
_symmetry_group_IT_number 67
_symmetry_cell_setting 'orthorhombic'
loop_
_space_group_symop_operation_xyz
x,y,z
-x,1/2-y,z
x,-y,-z
-x,1/2+y,-z
-x,-y,-z
x,1/2+y,-z
-x,y,z
x,1/2-y,z
1/2+x,1/2+y,z
1/2-x,-y,z
1/2+x,1/2-y,-z
1/2-x,y,-z
1/2-x,1/2-y,-z
1/2+x,y,-z
1/2-x,1/2+y,z
1/2+x,-y,z
loop_
_atom_site_type_symbol
_atom_site_label
_atom_site_fract_x
_atom_site_fract_y
_atom_site_fract_z
Si Si1 0.386668 0.115595 0.030785
Si Si2 0.647899 0.881089 0.317586
Si Si3 0.145546 0.119503 0.521803
Si Si4 0.855013 0.119307 0.637748
Si Si5 0.113252 0.615816 0.143141
Si Si6 0.612734 0.884912 0.205556
O O1 0.500000 0.114259 0.030347
O O2 0.359449 0.250000 0.013004
O O3 0.357852 0.104473 0.086974
O O4 0.356240 0.000000 0.000000
O O5 0.604875 0.750000 0.327580
O O6 0.750427 0.876877 0.341009
O O7 0.652560 0.894343 0.259710
O O8 0.601910 0.999702 0.339668
O O9 0.103950 0.250000 0.509951
O O10 0.250000 0.122900 0.500000
O O11 0.149169 0.108255 0.579782
O O12 0.101484 0.000000 0.500000
O O13 0.896822 0.250000 0.649526
O O14 0.141543 0.750000 0.161053
O O15 0.142275 0.499189 0.173651
O O16 0.000000 0.615316 0.143498
O O17 0.500000 0.889808 0.209865
O O18 0.634951 0.750000 0.186193
#
# Coordination Sequence:
#
# PCOD9505115 Si02
#       6
#    16  16  16  16  16  16
#     4   8  13  20  30  45  64  86 113 144 178 216
#     4   9  16  26  39  53  72  98 125 154 186 218
#     4   9  15  22  34  53  77 100 118 138 169 215
#     4   9  17  27  39  57  79 101 123 147 180 221
#     4   8  14  24  35  47  66  92 121 152 184 217
#     4   9  17  27  38  53  72  96 128 161 188 214
#
# _framework density 21.824155000000001
#
# number of rings (size 3 to 8) (size 9 to 14) (size 15 to 20)
#    0.000    3.333    0.000    3.000    0.000    3.333 
#    0.000    3.333    0.000    0.000    0.000    0.000 
#    0.000   10.667    0.000   44.333    0.000   73.667 
#
# Total GULP energy -267587.708619 kJ/mol
# GULP energy per Si atom -5574.743930 kJ/mol
# Density = 2.177448 g / cm^3
# Si number density = 21.824155 Si / 1000 Ang^3
#
#
#
# Elastic Constant Matrix: (Units=GPa)
#
#
# Indices 1 2 3 4 5 6 
#
# 1 83.1752 19.1999 12.5113 0.0000 0.0000 0.0000
# 2 19.1999 312.0563 113.2977 0.0000 0.0000 0.0000
# 3 12.5113 113.2977 82.8530 0.0000 0.0000 0.0000
# 4 0.0000 0.0000 0.0000 46.4271 0.0000 0.0000
# 5 0.0000 0.0000 0.0000 0.0000 12.7973 0.0000
# 6 0.0000 0.0000 0.0000 0.0000 0.0000 -8.9661
#
#
#
# Elastic Compliance Matrix: (Units=1/GPa)
#
#
# Indices 1 2 3 4 5 6 
#
# 1 0.012306 -0.000164 -0.001634 0.000000 0.000000 0.000000
# 2 -0.000164 0.006366 -0.008681 0.000000 0.000000 0.000000
# 3 -0.001634 -0.008681 0.024187 0.000000 0.000000 0.000000
# 4 0.000000 0.000000 0.000000 0.021539 0.000000 0.000000
# 5 0.000000 0.000000 0.000000 0.000000 0.078142 0.000000
# 6 0.000000 0.000000 0.000000 0.000000 0.000000 -0.111531
#
#
# Mechanical properties :
#
#
# Convention : Reuss Voigt Hill
#
# Bulk Modulus (GPa) = 45.65841 85.34470 65.50155
# Shear Modulus (GPa) = 84.36081 32.25669 58.30875
#
# Velocity S-wave (km/s) = 6.22404 3.84868 5.17451
# Velocity P-wave (km/s) = 8.52162 7.67726 8.11044
#
# Compressibility (1/GPa) = 0.02190177
#
# Stress axis : x y z
#
# Youngs Moduli (GPa) = 81.25808 157.07301 41.34383
#
# Poissons Ratio (x) = 0.02573 0.06757
# Poissons Ratio (y) = 0.01331 0.35891
# Poissons Ratio (z) = 0.13281 1.36357
#
# Static dielectric constant tensor:
#      x y z
#    x 1.760140 0.000000 0.000000 
#    y 0.000000 1.869370 0.000000 
#    z 0.000000 0.000000 1.726690 
# 
# From -- ./inp_files/39303.got.cif
#   From: 2010.05.17/outbox.cif.g08.bks.cpg/sg67_20_cif.got.tgz:39303.got - 2010.06.03 18:28:57.
