data_PCOD9505887
_publ_section_title
;
Structure prediction by ZEFSAII (Michael W. Deem and Ramdas Pophale) SiO2 
 PCOD9505887
Probable space group: C C C A
;
_chemical_formula_sum "Si O2"
_cell_formula_units_Z 72
_cell_length_a 13.343596
_cell_length_b 12.982935
_cell_length_c 18.595945
_cell_angle_alpha 90.000000
_cell_angle_beta 90.000000
_cell_angle_gamma 90.000000
_cell_volume 3221.543651
_symmetry_space_group_name_H-M "C C C A"
_symmetry_group_IT_number 68
_space_group.IT_coordinate_system_code '2'
_symmetry_cell_setting 'orthorhombic'
loop_
_space_group_symop_operation_xyz
x,y,z
-x,1/2-y,z
x,1/2-y,1/2-z
-x,y,1/2-z
-x,-y,-z
x,1/2+y,-z
-x,1/2+y,1/2+z
x,-y,1/2+z
1/2+x,1/2+y,z
1/2-x,-y,z
1/2+x,-y,1/2-z
1/2-x,1/2+y,1/2-z
1/2-x,1/2-y,-z
1/2+x,y,-z
1/2-x,y,1/2+z
1/2+x,1/2-y,1/2+z
loop_
_atom_site_type_symbol
_atom_site_label
_atom_site_fract_x
_atom_site_fract_y
_atom_site_fract_z
Si Si1 0.835794 0.750000 0.750000
Si Si2 0.750000 0.500000 0.447166
Si Si3 0.808177 0.897077 0.327764
Si Si4 0.500000 0.090324 0.250000
Si Si5 0.409016 0.034935 0.551115
Si Si6 0.072540 0.087151 0.352354
O O1 0.770607 0.692842 0.687678
O O2 0.900273 0.832996 0.708270
O O3 0.679309 0.429460 0.498402
O O4 0.829311 0.434398 0.401002
O O5 0.750000 0.000000 0.298584
O O6 0.856149 0.943702 0.401703
O O7 0.905101 0.857993 0.285153
O O8 0.453606 0.019088 0.312398
O O9 0.469493 0.110319 0.604346
O O10 0.500000 0.000000 0.500000
#
# Coordination Sequence:
#
# PCOD9505887 Si02
#       6
#     8   8  16   8  16  16
#     4  12  24  40  68 106 134 162 218 282 344 388
#     4  10  18  40  68  88 126 184 218 256 328 396
#     4  11  21  40  65  95 135 174 212 277 332 396
#     4  10  20  40  62  92 134 172 216 260 338 390
#     4   9  20  39  66  88 125 181 222 258 322 394
#     4  10  21  36  63  98 126 167 217 270 325 386
#
# _framework density 22.349533999999998
#
# number of rings (size 3 to 8) (size 9 to 14) (size 15 to 20)
#    0.000    1.778    3.333    1.333    0.000    0.889 
#    0.000    4.444    4.889    0.000    0.000    0.000 
#    0.000    0.000    0.000    0.000    0.000    0.000 
#
# Total GULP energy -200482.362278 kJ/mol
# GULP energy per Si atom -5568.954508 kJ/mol
# Density = 2.229867 g / cm^3
# Si number density = 22.349534 Si / 1000 Ang^3
#
#
#
# Elastic Constant Matrix: (Units=GPa)
#
#
# Indices 1 2 3 4 5 6 
#
# 1 185.6077 31.2132 80.6232 0.0000 0.0000 0.0000
# 2 31.2132 46.4406 20.6787 0.0000 0.0000 0.0000
# 3 80.6232 20.6787 101.2139 0.0000 0.0000 0.0000
# 4 0.0000 0.0000 0.0000 18.2489 0.0000 0.0000
# 5 0.0000 0.0000 0.0000 0.0000 67.1209 0.0000
# 6 0.0000 0.0000 0.0000 0.0000 0.0000 -4.5139
#
#
#
# Elastic Compliance Matrix: (Units=1/GPa)
#
#
# Indices 1 2 3 4 5 6 
#
# 1 0.008603 -0.003004 -0.006239 0.000000 0.000000 0.000000
# 2 -0.003004 0.024737 -0.002661 0.000000 0.000000 0.000000
# 3 -0.006239 -0.002661 0.015394 0.000000 0.000000 0.000000
# 4 0.000000 0.000000 0.000000 0.054798 0.000000 0.000000
# 5 0.000000 0.000000 0.000000 0.000000 0.014898 0.000000
# 6 0.000000 0.000000 0.000000 0.000000 0.000000 -0.221537
#
#
# Mechanical properties :
#
#
# Convention : Reuss Voigt Hill
#
# Bulk Modulus (GPa) = 40.12016 66.47692 53.29854
# Shear Modulus (GPa) = -70.43199 29.55432 -20.43883
#
# Velocity S-wave (km/s) = -5.61981 3.64038 -3.02736
# Velocity P-wave (km/s) = 4.91116 6.89047 3.41754
#
# Compressibility (1/GPa) = 0.02492512
#
# Stress axis : x y z
#
# Youngs Moduli (GPa) = 116.23873 40.42556 64.96242
#
# Poissons Ratio (x) = 0.12144 0.40530
# Poissons Ratio (y) = 0.34919 0.17286
# Poissons Ratio (z) = 0.72522 0.10757
#
# Static dielectric constant tensor:
#      x y z
#    x 1.850710 0.000000 0.000000 
#    y 0.000000 1.775690 0.000000 
#    z 0.000000 0.000000 1.933110 
# 
# From -- ./inp_files/30702.got.cif
#   From: 2010.05.17/outbox.cif.g08.bks.cpg/sg68_16_cif.got.tgz:30702.got - 2010.06.03 18:57:09.
