data_PCOD9505195
_publ_section_title
;
Structure prediction by ZEFSAII (Michael W. Deem and Ramdas Pophale) SiO2 
 PCOD9505195
Probable space group: C M M A
;
_chemical_formula_sum "Si O2"
_cell_formula_units_Z 32
_cell_length_a 24.000000
_cell_length_b 9.000000
_cell_length_c 15.000000
_cell_angle_alpha 90.000000
_cell_angle_beta 90.000000
_cell_angle_gamma 90.000000
_cell_volume 3240.000000
_symmetry_space_group_name_H-M "C M M A"
_symmetry_group_IT_number 67
_symmetry_cell_setting 'orthorhombic'
loop_
_space_group_symop_operation_xyz
x,y,z
-x,1/2-y,z
x,-y,-z
-x,1/2+y,-z
-x,-y,-z
x,1/2+y,-z
-x,y,z
x,1/2-y,z
1/2+x,1/2+y,z
1/2-x,-y,z
1/2+x,1/2-y,-z
1/2-x,y,-z
1/2-x,1/2-y,-z
1/2+x,y,-z
1/2-x,1/2+y,z
1/2+x,-y,z
loop_
_atom_site_type_symbol
_atom_site_label
_atom_site_fract_x
_atom_site_fract_y
_atom_site_fract_z
Si Si1 0.373150 0.413670 0.092460
Si Si2 0.500000 0.532538 0.894681
Si Si3 0.500000 0.419516 0.703795
Si Si4 0.189644 0.430157 0.731254
Si Si5 0.107119 0.430561 0.402738
O O1 0.349496 0.250000 0.077847
O O2 0.438702 0.400168 0.114781
O O3 0.343873 0.478060 0.179584
O O4 0.367139 0.500000 0.000000
O O5 0.500000 0.421930 0.810665
O O6 0.500000 0.500000 0.000000
O O7 0.500000 0.250000 0.674381
O O8 0.444456 0.482862 0.659728
O O9 0.189632 0.250000 0.726313
O O10 0.250000 0.500000 0.739126
O O11 0.160599 0.500583 0.645157
O O12 0.099680 0.500000 0.500000
O O13 0.110382 0.250000 0.405954
#
# Coordination Sequence:
#
# PCOD9505195 Si02
#       5
#    16   8   8  16  16
#     4  10  22  38  61  91 126 164 206 251 306 367
#     4  10  19  36  59  95 129 162 202 243 301 360
#     4  10  21  38  64  95 130 167 204 246 305 371
#     4  11  24  43  64  91 122 163 211 262 312 367
#     4  11  23  42  66  95 126 163 204 255 311 372
#
# _framework density 9.8765429999999999
#
# number of rings (size 3 to 8) (size 9 to 14) (size 15 to 20)
#    0.000    1.500    2.500    2.250    0.000    7.000 
#    0.000    6.875    0.000    0.000    0.000    0.000 
#    0.000    0.000    0.000    0.000    0.000    0.000 
#
# Total GULP energy -178147.885434 kJ/mol
# GULP energy per Si atom -5567.121420 kJ/mol
# Density = 0.985406 g / cm^3
# Si number density = 9.876543 Si / 1000 Ang^3
#
#
#
# Elastic Constant Matrix: (Units=GPa)
#
#
# Indices 1 2 3 4 5 6 
#
# 1 119.5552 23.9886 54.7294 0.0000 0.0000 0.0000
# 2 23.9886 65.7392 39.8914 0.0000 0.0000 0.0000
# 3 54.7294 39.8914 127.3023 0.0000 0.0000 0.0000
# 4 0.0000 0.0000 0.0000 23.3615 0.0000 0.0000
# 5 0.0000 0.0000 0.0000 0.0000 11.5037 0.0000
# 6 0.0000 0.0000 0.0000 0.0000 0.0000 9.5696
#
#
#
# Elastic Compliance Matrix: (Units=1/GPa)
#
#
# Indices 1 2 3 4 5 6 
#
# 1 0.010510 -0.001350 -0.004095 0.000000 0.000000 0.000000
# 2 -0.001350 0.018957 -0.005360 0.000000 0.000000 0.000000
# 3 -0.004095 -0.005360 0.011296 0.000000 0.000000 0.000000
# 4 0.000000 0.000000 0.000000 0.042806 0.000000 0.000000
# 5 0.000000 0.000000 0.000000 0.000000 0.086928 0.000000
# 6 0.000000 0.000000 0.000000 0.000000 0.000000 0.104497
#
#
# Mechanical properties :
#
#
# Convention : Reuss Voigt Hill
#
# Bulk Modulus (GPa) = 52.21467 61.09060 56.65263
# Shear Modulus (GPa) = 16.50232 21.81945 19.16089
#
# Velocity S-wave (km/s) = 2.89352 3.32717 3.11789
# Velocity P-wave (km/s) = 6.13631 6.76420 6.45789
#
# Compressibility (1/GPa) = 0.01915171
#
# Stress axis : x y z
#
# Youngs Moduli (GPa) = 95.14768 52.75180 88.53040
#
# Poissons Ratio (x) = 0.07122 0.36257
# Poissons Ratio (y) = 0.12845 0.47451
# Poissons Ratio (z) = 0.38967 0.28274
#
# Static dielectric constant tensor:
#      x y z
#    x 1.722140 0.000000 0.000000 
#    y 0.000000 1.667500 0.000000 
#    z 0.000000 0.000000 1.759980 
# 
# From -- ./inp_files/24842.got.cif
#   From: 2010.05.17/outbox.ucp.g08.bks.cvg/sg67_13_cif.got.tgz:24842.got - 2010.06.11 16:47:20.
