data_PCOD9505932
_publ_section_title
;
Structure prediction by ZEFSAII (Michael W. Deem and Ramdas Pophale) SiO2 
 PCOD9505932
Probable space group: C C C A
;
_chemical_formula_sum "Si O2"
_cell_formula_units_Z 56
_cell_length_a 14.764299
_cell_length_b 5.123345
_cell_length_c 31.639005
_cell_angle_alpha 90.000000
_cell_angle_beta 90.000000
_cell_angle_gamma 90.000000
_cell_volume 2393.256519
_symmetry_space_group_name_H-M "C C C A"
_symmetry_group_IT_number 68
_space_group.IT_coordinate_system_code '2'
_symmetry_cell_setting 'orthorhombic'
loop_
_space_group_symop_operation_xyz
x,y,z
-x,1/2-y,z
x,1/2-y,1/2-z
-x,y,1/2-z
-x,-y,-z
x,1/2+y,-z
-x,1/2+y,1/2+z
x,-y,1/2+z
1/2+x,1/2+y,z
1/2-x,-y,z
1/2+x,-y,1/2-z
1/2-x,1/2+y,1/2-z
1/2-x,1/2-y,-z
1/2+x,y,-z
1/2-x,y,1/2+z
1/2+x,1/2-y,1/2+z
loop_
_atom_site_type_symbol
_atom_site_label
_atom_site_fract_x
_atom_site_fract_y
_atom_site_fract_z
Si Si1 0.147294 0.931924 0.615459
Si Si2 0.414154 0.407962 0.160517
Si Si3 0.750000 0.000000 0.722707
Si Si4 0.647124 0.268028 0.518447
O O1 0.097248 0.705634 0.642740
O O2 0.149557 0.839039 0.567337
O O3 0.250000 0.000000 0.629368
O O4 0.102081 0.212886 0.621158
O O5 0.500000 0.250000 0.180442
O O6 0.332760 0.401230 0.193974
O O7 0.780005 0.750000 0.750000
O O8 0.603387 0.492609 0.490612
O O9 0.750000 0.250000 0.500000
#
# Coordination Sequence:
#
# PCOD9505932 Si02
#       4
#    16  16   8  16
#     4  12  21  40  71 102 136 191 248 293 351 434
#     4  12  27  47  72 107 145 185 235 295 365 439
#     4  12  26  48  80 110 140 182 234 288 364 456
#     4  10  19  30  56 101 127 177 248 293 353 414
#
# _framework density 23.399082
#
# number of rings (size 3 to 8) (size 9 to 14) (size 15 to 20)
#    0.000    0.571    5.714    4.286    4.000    0.571 
#    0.000    1.429    0.000   17.143    0.000    0.000 
#    0.000    0.000    0.000    0.000    0.000    0.000 
#
# Total GULP energy -156119.273772 kJ/mol
# GULP energy per Si atom -5575.688349 kJ/mol
# Density = 2.334582 g / cm^3
# Si number density = 23.399082 Si / 1000 Ang^3
#
#
#
# Elastic Constant Matrix: (Units=GPa)
#
#
# Indices 1 2 3 4 5 6 
#
# 1 152.4435 30.0856 40.0581 0.0000 0.0000 0.0000
# 2 30.0856 181.3698 34.5218 0.0000 0.0000 0.0000
# 3 40.0581 34.5218 101.2481 0.0000 0.0000 0.0000
# 4 0.0000 0.0000 0.0000 41.1263 0.0000 0.0000
# 5 0.0000 0.0000 0.0000 0.0000 -62.7378 0.0000
# 6 0.0000 0.0000 0.0000 0.0000 0.0000 27.5754
#
#
#
# Elastic Compliance Matrix: (Units=1/GPa)
#
#
# Indices 1 2 3 4 5 6 
#
# 1 0.007407 -0.000717 -0.002686 0.000000 0.000000 0.000000
# 2 -0.000717 0.005966 -0.001750 0.000000 0.000000 0.000000
# 3 -0.002686 -0.001750 0.011536 0.000000 0.000000 0.000000
# 4 0.000000 0.000000 0.000000 0.024315 0.000000 0.000000
# 5 0.000000 0.000000 0.000000 0.000000 -0.015939 0.000000
# 6 0.000000 0.000000 0.000000 0.000000 0.000000 0.036264
#
#
# Mechanical properties :
#
#
# Convention : Reuss Voigt Hill
#
# Bulk Modulus (GPa) = 68.48481 71.59916 70.04199
# Shear Modulus (GPa) = 59.01519 23.21917 41.11718
#
# Velocity S-wave (km/s) = 5.02752 3.15351 4.19646
# Velocity P-wave (km/s) = 7.93933 6.62760 7.31293
#
# Compressibility (1/GPa) = 0.01460178
#
# Stress axis : x y z
#
# Youngs Moduli (GPa) = 135.00365 167.62357 86.68380
#
# Poissons Ratio (x) = 0.12026 0.23283
# Poissons Ratio (y) = 0.09686 0.15172
# Poissons Ratio (z) = 0.36262 0.29338
#
# Static dielectric constant tensor:
#      x y z
#    x 2.061770 0.000000 0.000000 
#    y 0.000000 1.959620 0.000000 
#    z 0.000000 0.000000 1.844590 
# 
# From -- ./inp_files/55043.got.cif
#   From: 2010.05.17/outbox.cif.g08.bks.cpg/sg68_28_cif.got.tgz:55043.got - 2010.06.03 18:57:09.
