data_PCOD9505759
_publ_section_title
;
Structure prediction by ZEFSAII (Michael W. Deem and Ramdas Pophale) SiO2 
 PCOD9505759
Probable space group: C C C A
;
_chemical_formula_sum "Si O2"
_cell_formula_units_Z 96
_cell_length_a 19.941458
_cell_length_b 26.349434
_cell_length_c 8.263730
_cell_angle_alpha 90.000000
_cell_angle_beta 90.000000
_cell_angle_gamma 90.000000
_cell_volume 4342.144960
_symmetry_space_group_name_H-M "C C C A"
_symmetry_group_IT_number 68
_space_group.IT_coordinate_system_code '2'
_symmetry_cell_setting 'orthorhombic'
loop_
_space_group_symop_operation_xyz
x,y,z
-x,1/2-y,z
x,1/2-y,1/2-z
-x,y,1/2-z
-x,-y,-z
x,1/2+y,-z
-x,1/2+y,1/2+z
x,-y,1/2+z
1/2+x,1/2+y,z
1/2-x,-y,z
1/2+x,-y,1/2-z
1/2-x,1/2+y,1/2-z
1/2-x,1/2-y,-z
1/2+x,y,-z
1/2-x,y,1/2+z
1/2+x,1/2-y,1/2+z
loop_
_atom_site_type_symbol
_atom_site_label
_atom_site_fract_x
_atom_site_fract_y
_atom_site_fract_z
Si Si1 0.341892 0.101276 0.204459
Si Si2 0.061806 0.678147 0.141322
Si Si3 0.016389 0.414636 0.424602
Si Si4 0.277078 0.356745 0.600243
Si Si5 0.066764 0.016124 0.640157
Si Si6 0.825009 0.295236 0.114726
O O1 0.389908 0.149724 0.233205
O O2 0.283409 0.110806 0.329909
O O3 0.375143 0.046810 0.225227
O O4 0.315871 0.109392 0.025462
O O5 0.000000 0.699269 0.250000
O O6 0.032309 0.630954 0.041126
O O7 0.110979 0.707392 0.010371
O O8 0.074082 0.457620 0.406480
O O9 0.000000 0.393516 0.250000
O O10 0.954377 0.448055 0.490407
O O11 0.240096 0.309776 0.499721
O O12 0.322713 0.340913 0.753519
O O13 0.000000 0.018810 0.750000
O O14 0.821634 0.250000 0.250000
#
# Coordination Sequence:
#
# PCOD9505759 Si02
#       6
#    16  16  16  16  16  16
#     4  10  18  37  58  85 122 155 204 256 311 368
#     4  11  21  37  61  89 124 164 202 261 330 381
#     4  10  20  31  56  95 114 158 211 251 306 369
#     4   9  21  36  63  91 117 164 209 256 312 375
#     4  10  18  34  58  90 122 155 205 263 306 364
#     4  10  21  39  65  93 121 156 210 264 312 384
#
# _framework density 22.108889000000001
#
# number of rings (size 3 to 8) (size 9 to 14) (size 15 to 20)
#    0.000    2.000    3.333    0.500    2.333    0.000 
#    0.000    0.000    0.000   25.500    0.000    0.000 
#    0.000    0.000    0.000    0.000    0.000    0.000 
#
# Total GULP energy -267269.925244 kJ/mol
# GULP energy per Si atom -5568.123443 kJ/mol
# Density = 2.205857 g / cm^3
# Si number density = 22.108889 Si / 1000 Ang^3
#
#
#
# Elastic Constant Matrix: (Units=GPa)
#
#
# Indices 1 2 3 4 5 6 
#
# 1 74.8733 24.2139 49.8498 0.0000 0.0000 0.0000
# 2 24.2139 81.1779 19.6194 0.0000 0.0000 0.0000
# 3 49.8498 19.6194 112.0042 0.0000 0.0000 0.0000
# 4 0.0000 0.0000 0.0000 18.5480 0.0000 0.0000
# 5 0.0000 0.0000 0.0000 0.0000 20.5453 0.0000
# 6 0.0000 0.0000 0.0000 0.0000 0.0000 -11.1085
#
#
#
# Elastic Compliance Matrix: (Units=1/GPa)
#
#
# Indices 1 2 3 4 5 6 
#
# 1 0.020160 -0.004015 -0.008269 0.000000 0.000000 0.000000
# 2 -0.004015 0.013663 -0.000606 0.000000 0.000000 0.000000
# 3 -0.008269 -0.000606 0.012715 0.000000 0.000000 0.000000
# 4 0.000000 0.000000 0.000000 0.053914 0.000000 0.000000
# 5 0.000000 0.000000 0.000000 0.000000 0.048673 0.000000
# 6 0.000000 0.000000 0.000000 0.000000 0.000000 -0.090021
#
#
# Mechanical properties :
#
#
# Convention : Reuss Voigt Hill
#
# Bulk Modulus (GPa) = 48.17763 50.60240 49.39002
# Shear Modulus (GPa) = 54.46422 17.22178 35.84300
#
# Velocity S-wave (km/s) = 4.96870 2.79400 4.03079
# Velocity P-wave (km/s) = 7.39971 5.77461 6.63709
#
# Compressibility (1/GPa) = 0.02075652
#
# Stress axis : x y z
#
# Youngs Moduli (GPa) = 49.60341 73.19197 78.64786
#
# Poissons Ratio (x) = 0.29385 0.65037
# Poissons Ratio (y) = 0.19915 0.04769
# Poissons Ratio (z) = 0.41019 0.04438
#
# Static dielectric constant tensor:
#      x y z
#    x 4.488740 0.000000 0.000000 
#    y 0.000000 1.873200 0.000000 
#    z 0.000000 0.000000 1.789800 
# 
# From -- ./inp_files/7292.got.cif
#   From: 2010.05.17/outbox.cif.g08.bks.cpg/sg68_4_cif.got.tgz:7292.got - 2010.06.03 18:57:09.
