data_PCOD9505676
_publ_section_title
;
Structure prediction by ZEFSAII (Michael W. Deem and Ramdas Pophale) SiO2 
 PCOD9505676
Probable space group: C C C A
;
_chemical_formula_sum "Si O2"
_cell_formula_units_Z 96
_cell_length_a 8.436209
_cell_length_b 23.389760
_cell_length_c 22.700840
_cell_angle_alpha 90.000000
_cell_angle_beta 90.000000
_cell_angle_gamma 90.000000
_cell_volume 4479.350266
_symmetry_space_group_name_H-M "C C C A"
_symmetry_group_IT_number 68
_space_group.IT_coordinate_system_code '2'
_symmetry_cell_setting 'orthorhombic'
loop_
_space_group_symop_operation_xyz
x,y,z
-x,1/2-y,z
x,1/2-y,1/2-z
-x,y,1/2-z
-x,-y,-z
x,1/2+y,-z
-x,1/2+y,1/2+z
x,-y,1/2+z
1/2+x,1/2+y,z
1/2-x,-y,z
1/2+x,-y,1/2-z
1/2-x,1/2+y,1/2-z
1/2-x,1/2-y,-z
1/2+x,y,-z
1/2-x,y,1/2+z
1/2+x,1/2-y,1/2+z
loop_
_atom_site_type_symbol
_atom_site_label
_atom_site_fract_x
_atom_site_fract_y
_atom_site_fract_z
Si Si1 0.439230 0.086341 0.513819
Si Si2 0.758558 0.931455 0.585760
Si Si3 0.216658 0.684117 0.432353
Si Si4 0.250000 0.500000 0.915823
Si Si5 0.637027 0.101893 0.332670
Si Si6 0.217246 0.931869 0.289433
Si Si7 0.000000 0.750000 0.978927
O O1 0.406837 0.087813 0.444045
O O2 0.613618 0.090177 0.539250
O O3 0.327055 0.133467 0.542918
O O4 0.379739 0.026208 0.540797
O O5 0.808732 0.913123 0.651300
O O6 0.750000 0.000000 0.588724
O O7 0.154522 0.660651 0.369547
O O8 0.072625 0.702731 0.475507
O O9 0.348287 0.734509 0.438314
O O10 0.305225 0.550460 0.873780
O O11 0.461595 0.082785 0.311340
O O12 0.739621 0.099906 0.272253
O O13 0.250000 0.000000 0.280178
#
# Coordination Sequence:
#
# PCOD9505676 Si02
#       7
#    16  16  16   8  16  16   8
#     4  11  22  34  56  93 127 164 205 255 331 390
#     4  11  22  33  52  88 133 176 205 252 299 381
#     4  10  23  41  70 100 124 171 213 292 342 414
#     4  10  18  32  52  82 136 158 198 256 304 388
#     4  10  21  38  61  92 128 182 223 257 318 396
#     4  10  21  37  58  88 137 182 221 249 302 388
#     4  10  22  46  70 101 131 156 226 294 378 390
#
# _framework density 21.43168
#
# number of rings (size 3 to 8) (size 9 to 14) (size 15 to 20)
#    0.000    1.667    1.667    3.500    7.000    0.000 
#    0.000    0.000    0.000    2.000    8.667    0.000 
#    0.000    0.000    0.000    0.000    0.000    0.000 
#
# Total GULP energy -267638.761793 kJ/mol
# GULP energy per Si atom -5575.807537 kJ/mol
# Density = 2.138290 g / cm^3
# Si number density = 21.431680 Si / 1000 Ang^3
#
#
#
# Elastic Constant Matrix: (Units=GPa)
#
#
# Indices 1 2 3 4 5 6 
#
# 1 77.7110 20.0262 32.1922 0.0000 0.0000 0.0000
# 2 20.0262 58.2851 43.0302 0.0000 0.0000 0.0000
# 3 32.1922 43.0302 147.2589 0.0000 0.0000 0.0000
# 4 0.0000 0.0000 0.0000 32.0043 0.0000 0.0000
# 5 0.0000 0.0000 0.0000 0.0000 24.6123 0.0000
# 6 0.0000 0.0000 0.0000 0.0000 0.0000 33.8037
#
#
#
# Elastic Compliance Matrix: (Units=1/GPa)
#
#
# Indices 1 2 3 4 5 6 
#
# 1 0.014661 -0.003406 -0.002210 0.000000 0.000000 0.000000
# 2 -0.003406 0.022668 -0.005879 0.000000 0.000000 0.000000
# 3 -0.002210 -0.005879 0.008992 0.000000 0.000000 0.000000
# 4 0.000000 0.000000 0.000000 0.031246 0.000000 0.000000
# 5 0.000000 0.000000 0.000000 0.000000 0.040630 0.000000
# 6 0.000000 0.000000 0.000000 0.000000 0.000000 0.029583
#
#
# Mechanical properties :
#
#
# Convention : Reuss Voigt Hill
#
# Bulk Modulus (GPa) = 42.86162 52.63914 47.75038
# Shear Modulus (GPa) = 28.00396 30.61782 29.31089
#
# Velocity S-wave (km/s) = 3.61870 3.78382 3.70218
# Velocity P-wave (km/s) = 6.12394 6.61093 6.37209
#
# Compressibility (1/GPa) = 0.02333090
#
# Stress axis : x y z
#
# Youngs Moduli (GPa) = 68.20640 44.11567 111.21278
#
# Poissons Ratio (x) = 0.15026 0.24576
# Poissons Ratio (y) = 0.23231 0.65383
# Poissons Ratio (z) = 0.15073 0.25936
#
# Static dielectric constant tensor:
#      x y z
#    x 1.916450 0.000000 0.000000 
#    y 0.000000 1.834640 0.000000 
#    z 0.000000 0.000000 1.834800 
# 
# From -- ./inp_files/43347.got.cif
#   From: 2010.05.17/outbox.cif.g08.bks.cpg/sg68_22_cif.got.tgz:43347.got - 2010.06.03 18:57:09.
