data_PCOD9505911
_publ_section_title
;
Structure prediction by ZEFSAII (Michael W. Deem and Ramdas Pophale) SiO2 
 PCOD9505911
Probable space group: C C C A
;
_chemical_formula_sum "Si O2"
_cell_formula_units_Z 68
_cell_length_a 18.509999
_cell_length_b 5.364136
_cell_length_c 36.612833
_cell_angle_alpha 90.000000
_cell_angle_beta 90.000000
_cell_angle_gamma 90.000000
_cell_volume 3635.293754
_symmetry_space_group_name_H-M "C C C A"
_symmetry_group_IT_number 68
_space_group.IT_coordinate_system_code '2'
_symmetry_cell_setting 'orthorhombic'
loop_
_space_group_symop_operation_xyz
x,y,z
-x,1/2-y,z
x,1/2-y,1/2-z
-x,y,1/2-z
-x,-y,-z
x,1/2+y,-z
-x,1/2+y,1/2+z
x,-y,1/2+z
1/2+x,1/2+y,z
1/2-x,-y,z
1/2+x,-y,1/2-z
1/2-x,1/2+y,1/2-z
1/2-x,1/2-y,-z
1/2+x,y,-z
1/2-x,y,1/2+z
1/2+x,1/2-y,1/2+z
loop_
_atom_site_type_symbol
_atom_site_label
_atom_site_fract_x
_atom_site_fract_y
_atom_site_fract_z
Si Si1 0.000000 0.750000 0.750000
Si Si2 0.165893 0.002650 0.856759
Si Si3 0.661380 0.997699 0.394348
Si Si4 0.860350 0.007356 0.228414
Si Si5 0.338034 0.998567 0.020763
O O1 0.945655 0.575490 0.772318
O O2 0.135107 0.747438 0.873086
O O3 0.163968 0.009333 0.813074
O O4 0.250000 0.000000 0.867790
O O5 0.134732 0.252932 0.874362
O O6 0.640971 0.993260 0.436814
O O7 0.750000 0.000000 0.392801
O O8 0.828520 0.250000 0.250000
O O9 0.848796 0.750000 0.250000
O O10 0.250000 0.000000 0.020085
O O11 0.361764 0.250638 0.000536
#
# Coordination Sequence:
#
# PCOD9505911 Si02
#       5
#     4  16  16  16  16
#     4   8  22  36  54  68  90 112 158 190 242 272
#     4  10  19  30  45  66  94 126 153 188 233 274
#     4   9  17  28  40  60  92 124 156 189 226 268
#     4  10  20  34  51  69  89 117 156 190 236 275
#     4   9  15  23  37  56  80 118 162 191 212 251
#
# _framework density 18.705504000000001
#
# number of rings (size 3 to 8) (size 9 to 14) (size 15 to 20)
#    0.706    1.882    0.000    3.176    0.000    6.588 
#    0.000    0.000    0.000    0.000    0.000    0.000 
#    0.000    0.000    0.000   21.176    0.000    9.412 
#
# Total GULP energy -189342.726129 kJ/mol
# GULP energy per Si atom -5568.903710 kJ/mol
# Density = 1.866293 g / cm^3
# Si number density = 18.705504 Si / 1000 Ang^3
#
#
#
# Elastic Constant Matrix: (Units=GPa)
#
#
# Indices 1 2 3 4 5 6 
#
# 1 16.2725 0.8455 -16.2677 0.0000 0.0000 0.0000
# 2 0.8455 235.8587 126.6799 0.0000 0.0000 0.0000
# 3 -16.2677 126.6799 164.1152 0.0000 0.0000 0.0000
# 4 0.0000 0.0000 0.0000 39.0968 0.0000 0.0000
# 5 0.0000 0.0000 0.0000 0.0000 -10.7583 0.0000
# 6 0.0000 0.0000 0.0000 0.0000 0.0000 -0.9445
#
#
#
# Elastic Compliance Matrix: (Units=1/GPa)
#
#
# Indices 1 2 3 4 5 6 
#
# 1 0.074856 -0.007266 0.013029 0.000000 0.000000 0.000000
# 2 -0.007266 0.007948 -0.006855 0.000000 0.000000 0.000000
# 3 0.013029 -0.006855 0.012676 0.000000 0.000000 0.000000
# 4 0.000000 0.000000 0.000000 0.025578 0.000000 0.000000
# 5 0.000000 0.000000 0.000000 0.000000 -0.092951 0.000000
# 6 0.000000 0.000000 0.000000 0.000000 0.000000 -1.058802
#
#
# Mechanical properties :
#
#
# Convention : Reuss Voigt Hill
#
# Bulk Modulus (GPa) = 10.71874 70.97353 40.84614
# Shear Modulus (GPa) = -5.01297 25.81139 10.39921
#
# Velocity S-wave (km/s) = -1.63883 3.71871 2.36040
# Velocity P-wave (km/s) = 1.47027 7.51421 5.41410
#
# Compressibility (1/GPa) = 0.09329459
#
# Stress axis : x y z
#
# Youngs Moduli (GPa) = 13.35904 125.82200 78.88846
#
# Poissons Ratio (x) = 0.91423 -1.02781
# Poissons Ratio (y) = 0.09707 0.54079
# Poissons Ratio (z) = -0.17405 0.86252
#
# Static dielectric constant tensor:
#      x y z
#    x 1.655650 0.000000 0.000000 
#    y 0.000000 1.742430 0.000000 
#    z 0.000000 0.000000 1.605690 
# 
# From -- ./inp_files/52414.got.cif
#   From: 2010.05.17/outbox.cif.g08.bks.cpg/sg68_27_cif.got.tgz:52414.got - 2010.06.03 18:57:09.
