data_PCOD9505136
_publ_section_title
;
Structure prediction by ZEFSAII (Michael W. Deem and Ramdas Pophale) SiO2 
 PCOD9505136
Probable space group: C M M A
;
_chemical_formula_sum "Si O2"
_cell_formula_units_Z 96
_cell_length_a 14.136982
_cell_length_b 12.056474
_cell_length_c 25.847936
_cell_angle_alpha 90.000000
_cell_angle_beta 90.000000
_cell_angle_gamma 90.000000
_cell_volume 4405.577938
_symmetry_space_group_name_H-M "C M M A"
_symmetry_group_IT_number 67
_symmetry_cell_setting 'orthorhombic'
loop_
_space_group_symop_operation_xyz
x,y,z
-x,1/2-y,z
x,-y,-z
-x,1/2+y,-z
-x,-y,-z
x,1/2+y,-z
-x,y,z
x,1/2-y,z
1/2+x,1/2+y,z
1/2-x,-y,z
1/2+x,1/2-y,-z
1/2-x,y,-z
1/2-x,1/2-y,-z
1/2+x,y,-z
1/2-x,1/2+y,z
1/2+x,-y,z
loop_
_atom_site_type_symbol
_atom_site_label
_atom_site_fract_x
_atom_site_fract_y
_atom_site_fract_z
Si Si1 0.384403 0.511501 0.741425
Si Si2 0.615342 0.250000 0.227411
Si Si3 0.114998 0.250000 0.892718
Si Si4 0.645177 0.880699 0.477200
Si Si5 0.114433 0.624664 0.642519
Si Si6 0.384734 0.622885 0.156440
Si Si7 0.384803 0.519791 0.941302
O O1 0.500000 0.510195 0.741965
O O2 0.352585 0.637743 0.746005
O O3 0.354683 0.455727 0.688135
O O4 0.355001 0.445560 0.793009
O O5 0.500000 0.250000 0.228569
O O6 0.641774 0.250000 0.167203
O O7 0.145408 0.359931 0.921793
O O8 0.000000 0.250000 0.892982
O O9 0.607222 0.750000 0.484976
O O10 0.750000 0.875437 0.500000
O O11 0.648197 0.897561 0.415475
O O12 0.605126 0.000000 0.500000
O O13 0.141204 0.750000 0.656822
O O14 0.000000 0.619939 0.639952
O O15 0.500000 0.620543 0.156593
O O16 0.355653 0.750000 0.159842
O O17 0.354821 0.567201 0.102606
O O18 0.500000 0.517422 0.941354
O O19 0.355168 0.500000 0.000000
#
# Coordination Sequence:
#
# PCOD9505136 Si02
#       7
#    16   8   8  16  16  16  16
#     4   9  15  24  36  52  74 101 132 168 218 273
#     4   9  14  22  34  46  67  99 131 166 217 281
#     4   9  14  22  30  36  52  81 117 160 215 269
#     4   9  18  34  54  73  95 125 157 186 220 267
#     4   9  17  29  46  68  93 119 148 186 230 273
#     4   9  15  21  29  41  58  83 118 161 210 262
#     4   9  16  21  26  36  51  77 116 163 212 261
#
# _framework density 21.790558000000001
#
# number of rings (size 3 to 8) (size 9 to 14) (size 15 to 20)
#    0.000    3.000    1.667    0.500    1.167    2.333 
#    1.500    0.000    0.000    0.000    0.000    0.000 
#    0.000    0.000    0.000    0.000    0.000    0.000 
#
# Total GULP energy -267905.987356 kJ/mol
# GULP energy per Si atom -5581.374737 kJ/mol
# Density = 2.174096 g / cm^3
# Si number density = 21.790558 Si / 1000 Ang^3
#
#
#
# Elastic Constant Matrix: (Units=GPa)
#
#
# Indices 1 2 3 4 5 6 
#
# 1 82.3974 23.0189 21.5508 0.0000 0.0000 0.0000
# 2 23.0189 235.7234 144.5203 0.0000 0.0000 0.0000
# 3 21.5508 144.5203 213.7156 0.0000 0.0000 0.0000
# 4 0.0000 0.0000 0.0000 48.7307 0.0000 0.0000
# 5 0.0000 0.0000 0.0000 0.0000 72.4577 0.0000
# 6 0.0000 0.0000 0.0000 0.0000 0.0000 -4.8089
#
#
#
# Elastic Compliance Matrix: (Units=1/GPa)
#
#
# Indices 1 2 3 4 5 6 
#
# 1 0.012546 -0.000768 -0.000746 0.000000 0.000000 0.000000
# 2 -0.000768 0.007294 -0.004855 0.000000 0.000000 0.000000
# 3 -0.000746 -0.004855 0.008037 0.000000 0.000000 0.000000
# 4 0.000000 0.000000 0.000000 0.020521 0.000000 0.000000
# 5 0.000000 0.000000 0.000000 0.000000 0.013801 0.000000
# 6 0.000000 0.000000 0.000000 0.000000 0.000000 -0.207948
#
#
# Mechanical properties :
#
#
# Convention : Reuss Voigt Hill
#
# Bulk Modulus (GPa) = 66.05076 101.11292 83.58184
# Shear Modulus (GPa) = -39.07299 46.12568 3.52635
#
# Velocity S-wave (km/s) = -4.23911 4.60583 1.27350
# Velocity P-wave (km/s) = 2.53325 8.64800 6.37202
#
# Compressibility (1/GPa) = 0.01513987
#
# Stress axis : x y z
#
# Youngs Moduli (GPa) = 79.70733 137.10582 124.42102
#
# Poissons Ratio (x) = 0.10528 0.09280
# Poissons Ratio (y) = 0.06120 0.60403
# Poissons Ratio (z) = 0.05945 0.66561
#
# Static dielectric constant tensor:
#      x y z
#    x 1.828660 0.000000 0.000000 
#    y 0.000000 1.804420 0.000000 
#    z 0.000000 0.000000 1.731460 
# 
# From -- ./inp_files/37949.got.cif
#   From: 2010.05.17/outbox.cif.g08.bks.cpg/sg67_19_cif.got.tgz:37949.got - 2010.06.03 18:28:57.
