data_PCOD9505234
_publ_section_title
;
Structure prediction by ZEFSAII (Michael W. Deem and Ramdas Pophale) SiO2 
 PCOD9505234
Probable space group: C M M A
;
_chemical_formula_sum "Si O2"
_cell_formula_units_Z 56
_cell_length_a 15.000000
_cell_length_b 24.000000
_cell_length_c 15.000000
_cell_angle_alpha 90.000000
_cell_angle_beta 90.000000
_cell_angle_gamma 90.000000
_cell_volume 5400.000000
_symmetry_space_group_name_H-M "C M M A"
_symmetry_group_IT_number 67
_symmetry_cell_setting 'orthorhombic'
loop_
_space_group_symop_operation_xyz
x,y,z
-x,1/2-y,z
x,-y,-z
-x,1/2+y,-z
-x,-y,-z
x,1/2+y,-z
-x,y,z
x,1/2-y,z
1/2+x,1/2+y,z
1/2-x,-y,z
1/2+x,1/2-y,-z
1/2-x,y,-z
1/2-x,1/2-y,-z
1/2+x,y,-z
1/2-x,1/2+y,z
1/2+x,-y,z
loop_
_atom_site_type_symbol
_atom_site_label
_atom_site_fract_x
_atom_site_fract_y
_atom_site_fract_z
Si Si1 0.404532 0.189597 0.763896
Si Si2 0.661643 0.125985 0.282365
Si Si3 0.735852 0.854357 0.101490
Si Si4 0.106203 0.959615 0.913851
Si Si5 0.395367 0.001911 0.709474
Si Si6 0.103316 0.313770 0.550224
Si Si7 0.844050 0.388082 0.383154
O O1 0.500000 0.187954 0.810768
O O2 0.393530 0.250000 0.719305
O O3 0.329422 0.182283 0.837610
O O4 0.406607 0.142629 0.688728
O O5 0.683638 0.135163 0.175612
O O6 0.605275 0.167978 0.344757
O O7 0.752011 0.130088 0.338734
O O8 0.629143 0.062838 0.297420
O O9 0.677742 0.910113 0.082516
O O10 0.750000 0.832241 0.000000
O O11 0.122743 0.983504 0.813892
O O12 0.000000 0.943741 0.916649
O O13 0.119735 0.000000 0.000000
O O14 0.500000 0.007878 0.694988
O O15 0.352400 0.045648 0.638770
O O16 0.139782 0.250000 0.540626
O O17 0.143393 0.360582 0.480913
O O18 0.000000 0.311911 0.523621
#
# Coordination Sequence:
#
# PCOD9505234 Si02
#       7
#    16  16  16  16  16  16  16
#     4  10  20  37  61  88 118 154 203 263 322 376
#     4  11  24  39  61  93 130 167 204 259 319 373
#     4  11  23  38  60  89 125 166 208 262 309 377
#     4  10  20  35  60  90 123 164 207 255 310 373
#     4  11  21  37  60  90 132 167 204 250 308 384
#     4  11  25  46  68  91 122 164 216 264 317 388
#     4  11  22  38  67  96 123 157 206 267 324 376
#
# _framework density 10.370369999999999
#
# number of rings (size 3 to 8) (size 9 to 14) (size 15 to 20)
#    0.000    1.286    2.857    4.286    0.000    6.857 
#    0.000    5.000    0.000    1.714    0.000    0.000 
#    0.000    0.000    0.000    0.000    0.000    0.000 
#
# Total GULP energy -311750.728745 kJ/mol
# GULP energy per Si atom -5566.977299 kJ/mol
# Density = 1.034677 g / cm^3
# Si number density = 10.370370 Si / 1000 Ang^3
#
#
#
# Elastic Constant Matrix: (Units=GPa)
#
#
# Indices 1 2 3 4 5 6 
#
# 1 44.4068 -3.4344 2.4253 0.0000 0.0000 0.0000
# 2 -3.4344 78.1650 26.2158 0.0000 0.0000 0.0000
# 3 2.4253 26.2158 133.8686 0.0000 0.0000 0.0000
# 4 0.0000 0.0000 0.0000 31.8898 0.0000 0.0000
# 5 0.0000 0.0000 0.0000 0.0000 26.6987 0.0000
# 6 0.0000 0.0000 0.0000 0.0000 0.0000 20.2135
#
#
#
# Elastic Compliance Matrix: (Units=1/GPa)
#
#
# Indices 1 2 3 4 5 6 
#
# 1 0.022648 0.001212 -0.000648 0.000000 0.000000 0.000000
# 2 0.001212 0.013758 -0.002716 0.000000 0.000000 0.000000
# 3 -0.000648 -0.002716 0.008014 0.000000 0.000000 0.000000
# 4 0.000000 0.000000 0.000000 0.031358 0.000000 0.000000
# 5 0.000000 0.000000 0.000000 0.000000 0.037455 0.000000
# 6 0.000000 0.000000 0.000000 0.000000 0.000000 0.049472
#
#
# Mechanical properties :
#
#
# Convention : Reuss Voigt Hill
#
# Bulk Modulus (GPa) = 24.92740 34.09487 29.51114
# Shear Modulus (GPa) = 27.71928 31.17597 29.44763
#
# Velocity S-wave (km/s) = 3.65974 3.88122 3.77211
# Velocity P-wave (km/s) = 5.46835 6.04644 5.76465
#
# Compressibility (1/GPa) = 0.04011650
#
# Stress axis : x y z
#
# Youngs Moduli (GPa) = 44.15355 72.68658 124.78689
#
# Poissons Ratio (x) = -0.08812 0.08083
# Poissons Ratio (y) = -0.05353 0.33894
# Poissons Ratio (z) = 0.02860 0.19743
#
# Static dielectric constant tensor:
#      x y z
#    x 1.890560 0.000000 0.000000 
#    y 0.000000 1.825000 0.000000 
#    z 0.000000 0.000000 1.730150 
# 
# From -- ./inp_files/27538.got.cif
#   From: 2010.05.17/outbox.ucp.g08.bks.cvg/sg67_14_cif.got.tgz:27538.got - 2010.06.11 16:47:20.
