data_PCOD9505556
_publ_section_title
;
Structure prediction by ZEFSAII (Michael W. Deem and Ramdas Pophale) SiO2 
 PCOD9505556
Probable space group: C C C A
;
_chemical_formula_sum "Si O2"
_cell_formula_units_Z 88
_cell_length_a 15.074084
_cell_length_b 17.264882
_cell_length_c 13.135514
_cell_angle_alpha 90.000000
_cell_angle_beta 90.000000
_cell_angle_gamma 90.000000
_cell_volume 3418.547487
_symmetry_space_group_name_H-M "C C C A"
_symmetry_group_IT_number 68
_space_group.IT_coordinate_system_code '2'
_symmetry_cell_setting 'orthorhombic'
loop_
_space_group_symop_operation_xyz
x,y,z
-x,1/2-y,z
x,1/2-y,1/2-z
-x,y,1/2-z
-x,-y,-z
x,1/2+y,-z
-x,1/2+y,1/2+z
x,-y,1/2+z
1/2+x,1/2+y,z
1/2-x,-y,z
1/2+x,-y,1/2-z
1/2-x,1/2+y,1/2-z
1/2-x,1/2-y,-z
1/2+x,y,-z
1/2-x,y,1/2+z
1/2+x,1/2-y,1/2+z
loop_
_atom_site_type_symbol
_atom_site_label
_atom_site_fract_x
_atom_site_fract_y
_atom_site_fract_z
Si Si1 0.414703 0.122985 0.195676
Si Si2 0.347574 0.970949 0.278535
Si Si3 0.068778 0.629062 0.904006
Si Si4 0.147230 0.980064 0.010901
Si Si5 0.113859 0.713183 0.640158
Si Si6 0.722228 0.250000 0.250000
O O1 0.500000 0.160588 0.250000
O O2 0.400376 0.080612 0.086509
O O3 0.337419 0.185932 0.197279
O O4 0.403062 0.049124 0.269650
O O5 0.389377 0.908716 0.200466
O O6 0.345826 0.949894 0.396393
O O7 0.250000 0.000000 0.249648
O O8 0.091019 0.559718 0.980701
O O9 0.032539 0.657597 0.609648
O O10 0.114889 0.710402 0.931736
O O11 0.250000 0.000000 0.038973
O O12 0.087360 0.750000 0.750000
O O13 0.217060 0.701390 0.669374
#
# Coordination Sequence:
#
# PCOD9505556 Si02
#       6
#    16  16  16  16  16   8
#     4  11  23  42  69  97 130 186 215 271 337 401
#     4  10  22  41  67  99 138 175 221 275 336 396
#     4  10  17  36  67 104 131 166 224 281 333 392
#     4  10  22  41  67  99 138 175 221 275 336 396
#     4   9  20  34  65  99 120 168 222 285 328 372
#     4  10  21  41  70  90 130 174 240 257 337 406
#
# _framework density 25.741924999999998
#
# number of rings (size 3 to 8) (size 9 to 14) (size 15 to 20)
#    0.545    1.455    0.000    5.727    0.000    6.545 
#    0.000    0.000   24.000    4.364    0.000    0.000 
#    0.000    0.000    0.000    0.000    0.000    0.000 
#
# Total GULP energy -245336.628378 kJ/mol
# GULP energy per Si atom -5575.832463 kJ/mol
# Density = 2.568334 g / cm^3
# Si number density = 25.741925 Si / 1000 Ang^3
#
#
#
# Elastic Constant Matrix: (Units=GPa)
#
#
# Indices 1 2 3 4 5 6 
#
# 1 153.4750 89.7128 47.8416 0.0000 0.0000 0.0000
# 2 89.7128 149.8690 25.0064 0.0000 0.0000 0.0000
# 3 47.8416 25.0064 132.9812 0.0000 0.0000 0.0000
# 4 0.0000 0.0000 0.0000 14.3141 0.0000 0.0000
# 5 0.0000 0.0000 0.0000 0.0000 13.0593 0.0000
# 6 0.0000 0.0000 0.0000 0.0000 0.0000 69.5792
#
#
#
# Elastic Compliance Matrix: (Units=1/GPa)
#
#
# Indices 1 2 3 4 5 6 
#
# 1 0.010943 -0.006085 -0.002793 0.000000 0.000000 0.000000
# 2 -0.006085 0.010272 0.000257 0.000000 0.000000 0.000000
# 3 -0.002793 0.000257 0.008476 0.000000 0.000000 0.000000
# 4 0.000000 0.000000 0.000000 0.069861 0.000000 0.000000
# 5 0.000000 0.000000 0.000000 0.000000 0.076574 0.000000
# 6 0.000000 0.000000 0.000000 0.000000 0.000000 0.014372
#
#
# Mechanical properties :
#
#
# Convention : Reuss Voigt Hill
#
# Bulk Modulus (GPa) = 80.31303 84.60522 82.45913
# Shear Modulus (GPa) = 23.59733 37.64146 30.61939
#
# Velocity S-wave (km/s) = 3.03097 3.82810 3.45262
# Velocity P-wave (km/s) = 6.59667 7.24412 6.92796
#
# Compressibility (1/GPa) = 0.01245128
#
# Stress axis : x y z
#
# Youngs Moduli (GPa) = 91.38297 97.35381 117.97800
#
# Poissons Ratio (x) = 0.59236 0.32948
# Poissons Ratio (y) = 0.55603 -0.03037
# Poissons Ratio (z) = 0.25520 -0.02506
#
# Static dielectric constant tensor:
#      x y z
#    x 1.832860 0.000000 0.000000 
#    y 0.000000 2.157250 0.000000 
#    z 0.000000 0.000000 2.091560 
# 
# From -- ./inp_files/23592.got.cif
#   From: 2010.05.17/outbox.cif.g08.bks.cpg/sg68_12_cif.got.tgz:23592.got - 2010.06.03 18:57:09.
