data_PCOD9505816
_publ_section_title
;
Structure prediction by ZEFSAII (Michael W. Deem and Ramdas Pophale) SiO2 
 PCOD9505816
Probable space group: C C C A
;
_chemical_formula_sum "Si O2"
_cell_formula_units_Z 56
_cell_length_a 10.018372
_cell_length_b 16.228620
_cell_length_c 17.172909
_cell_angle_alpha 90.000000
_cell_angle_beta 90.000000
_cell_angle_gamma 90.000000
_cell_volume 2792.046285
_symmetry_space_group_name_H-M "C C C A"
_symmetry_group_IT_number 68
_space_group.IT_coordinate_system_code '2'
_symmetry_cell_setting 'orthorhombic'
loop_
_space_group_symop_operation_xyz
x,y,z
-x,1/2-y,z
x,1/2-y,1/2-z
-x,y,1/2-z
-x,-y,-z
x,1/2+y,-z
-x,1/2+y,1/2+z
x,-y,1/2+z
1/2+x,1/2+y,z
1/2-x,-y,z
1/2+x,-y,1/2-z
1/2-x,1/2+y,1/2-z
1/2-x,1/2-y,-z
1/2+x,y,-z
1/2-x,y,1/2+z
1/2+x,1/2-y,1/2+z
loop_
_atom_site_type_symbol
_atom_site_label
_atom_site_fract_x
_atom_site_fract_y
_atom_site_fract_z
Si Si1 0.640605 0.868212 0.050874
Si Si2 0.017697 0.499049 0.158151
Si Si3 0.576673 0.173000 0.074302
Si Si4 0.750000 0.000000 0.929871
O O1 0.765081 0.808574 0.069050
O O2 0.609743 0.925564 0.125285
O O3 0.504897 0.838424 0.007924
O O4 0.705214 0.927030 0.985730
O O5 0.061133 0.586627 0.120402
O O6 0.000000 0.504446 0.250000
O O7 0.874235 0.477917 0.122549
O O8 0.500000 0.250000 0.112566
#
# Coordination Sequence:
#
# PCOD9505816 Si02
#       4
#    16  16  16   8
#     4  11  19  41  61  88 116 158 213 248 294 365
#     4  11  23  36  63  89 123 157 206 262 309 361
#     4  11  22  37  62  91 123 160 200 251 307 375
#     4  10  18  36  62  88 110 154 214 252 286 348
#
# _framework density 20.056974
#
# number of rings (size 3 to 8) (size 9 to 14) (size 15 to 20)
#    0.000    1.143    5.714    2.571    4.000    0.571 
#    0.000    0.000    0.000    0.857    0.000    0.000 
#    0.000    0.000    0.000    0.000    0.000    0.000 
#
# Total GULP energy -156141.133105 kJ/mol
# GULP energy per Si atom -5576.469039 kJ/mol
# Density = 2.001132 g / cm^3
# Si number density = 20.056974 Si / 1000 Ang^3
#
#
#
# Elastic Constant Matrix: (Units=GPa)
#
#
# Indices 1 2 3 4 5 6 
#
# 1 125.4091 23.1029 27.2991 0.0000 0.0000 0.0000
# 2 23.1029 68.4937 23.3804 0.0000 0.0000 0.0000
# 3 27.2991 23.3804 107.5030 0.0000 0.0000 0.0000
# 4 0.0000 0.0000 0.0000 15.0082 0.0000 0.0000
# 5 0.0000 0.0000 0.0000 0.0000 11.9497 0.0000
# 6 0.0000 0.0000 0.0000 0.0000 0.0000 33.0422
#
#
#
# Elastic Compliance Matrix: (Units=1/GPa)
#
#
# Indices 1 2 3 4 5 6 
#
# 1 0.008785 -0.002378 -0.001714 0.000000 0.000000 0.000000
# 2 -0.002378 0.016415 -0.002966 0.000000 0.000000 0.000000
# 3 -0.001714 -0.002966 0.010382 0.000000 0.000000 0.000000
# 4 0.000000 0.000000 0.000000 0.066630 0.000000 0.000000
# 5 0.000000 0.000000 0.000000 0.000000 0.083684 0.000000
# 6 0.000000 0.000000 0.000000 0.000000 0.000000 0.030264
#
#
# Mechanical properties :
#
#
# Convention : Reuss Voigt Hill
#
# Bulk Modulus (GPa) = 46.58506 49.88562 48.23534
# Shear Modulus (GPa) = 21.05870 27.17492 24.11681
#
# Velocity S-wave (km/s) = 3.24380 3.68487 3.47135
# Velocity P-wave (km/s) = 6.10790 6.55975 6.33785
#
# Compressibility (1/GPa) = 0.02146611
#
# Stress axis : x y z
#
# Youngs Moduli (GPa) = 113.82985 60.92167 96.31793
#
# Poissons Ratio (x) = 0.14489 0.16505
# Poissons Ratio (y) = 0.27072 0.28568
# Poissons Ratio (z) = 0.19506 0.18069
#
# Static dielectric constant tensor:
#      x y z
#    x 1.776940 0.000000 0.000000 
#    y 0.000000 1.756130 0.000000 
#    z 0.000000 0.000000 1.684010 
# 
# From -- ./inp_files/23085.got.cif
#   From: 2010.05.17/outbox.cif.g08.bks.cpg/sg68_12_cif.got.tgz:23085.got - 2010.06.03 18:57:09.
