data_PCOD9505616
_publ_section_title
;
Structure prediction by ZEFSAII (Michael W. Deem and Ramdas Pophale) SiO2 
 PCOD9505616
Probable space group: C C C A
;
_chemical_formula_sum "Si O2"
_cell_formula_units_Z 88
_cell_length_a 11.824418
_cell_length_b 20.497103
_cell_length_c 14.676745
_cell_angle_alpha 90.000000
_cell_angle_beta 90.000000
_cell_angle_gamma 90.000000
_cell_volume 3557.148582
_symmetry_space_group_name_H-M "C C C A"
_symmetry_group_IT_number 68
_space_group.IT_coordinate_system_code '2'
_symmetry_cell_setting 'orthorhombic'
loop_
_space_group_symop_operation_xyz
x,y,z
-x,1/2-y,z
x,1/2-y,1/2-z
-x,y,1/2-z
-x,-y,-z
x,1/2+y,-z
-x,1/2+y,1/2+z
x,-y,1/2+z
1/2+x,1/2+y,z
1/2-x,-y,z
1/2+x,-y,1/2-z
1/2-x,1/2+y,1/2-z
1/2-x,1/2-y,-z
1/2+x,y,-z
1/2-x,y,1/2+z
1/2+x,1/2-y,1/2+z
loop_
_atom_site_type_symbol
_atom_site_label
_atom_site_fract_x
_atom_site_fract_y
_atom_site_fract_z
Si Si1 0.303318 0.899889 0.919476
Si Si2 0.750000 0.000000 0.921110
Si Si3 0.571100 0.145222 0.579836
Si Si4 0.645992 0.295277 0.560278
Si Si5 0.384487 0.286449 0.341872
Si Si6 0.457992 0.423229 0.382139
O O1 0.181301 0.886940 0.873093
O O2 0.408129 0.934168 0.869193
O O3 0.343795 0.830578 0.961720
O O4 0.281668 0.941737 0.010346
O O5 0.635177 0.979217 0.869880
O O6 0.607287 0.220014 0.557385
O O7 0.445283 0.160731 0.616287
O O8 0.552801 0.101812 0.488429
O O9 0.769223 0.294931 0.602883
O O10 0.500000 0.250000 0.373825
O O11 0.352885 0.250000 0.250000
O O12 0.421221 0.360633 0.325873
#
# Coordination Sequence:
#
# PCOD9505616 Si02
#       6
#    16   8  16  16  16  16
#     4  10  18  30  51  83 125 153 183 232 290 366
#     4  10  18  32  48  88 122 164 186 224 300 368
#     4   9  18  28  52  82 110 153 173 228 303 356
#     4  10  18  32  50  80 114 150 180 230 301 352
#     4  11  23  36  53  79 112 147 199 250 294 349
#     4  10  20  32  54  83 123 152 190 235 294 361
#
# _framework density 24.738916
#
# number of rings (size 3 to 8) (size 9 to 14) (size 15 to 20)
#    0.000    2.000    3.636    2.182    5.091    0.000 
#    0.000    1.818    0.000    1.091    0.000   35.636 
#    0.000    0.000    0.000    0.000    0.000    0.000 
#
# Total GULP energy -245331.666502 kJ/mol
# GULP energy per Si atom -5575.719693 kJ/mol
# Density = 2.468261 g / cm^3
# Si number density = 24.738916 Si / 1000 Ang^3
#
#
#
# Elastic Constant Matrix: (Units=GPa)
#
#
# Indices 1 2 3 4 5 6 
#
# 1 272.6752 47.0314 33.6716 0.0000 0.0000 0.0000
# 2 47.0314 67.0992 -4.7827 0.0000 0.0000 0.0000
# 3 33.6716 -4.7827 22.8812 0.0000 0.0000 0.0000
# 4 0.0000 0.0000 0.0000 18.0124 0.0000 0.0000
# 5 0.0000 0.0000 0.0000 0.0000 11.0545 0.0000
# 6 0.0000 0.0000 0.0000 0.0000 0.0000 163.5005
#
#
#
# Elastic Compliance Matrix: (Units=1/GPa)
#
#
# Indices 1 2 3 4 5 6 
#
# 1 0.005590 -0.004573 -0.009182 0.000000 0.000000 0.000000
# 2 -0.004573 0.018869 0.010673 0.000000 0.000000 0.000000
# 3 -0.009182 0.010673 0.059447 0.000000 0.000000 0.000000
# 4 0.000000 0.000000 0.000000 0.055517 0.000000 0.000000
# 5 0.000000 0.000000 0.000000 0.000000 0.090461 0.000000
# 6 0.000000 0.000000 0.000000 0.000000 0.000000 0.006116
#
#
# Mechanical properties :
#
#
# Convention : Reuss Voigt Hill
#
# Bulk Modulus (GPa) = 12.86294 57.16625 35.01460
# Shear Modulus (GPa) = 18.65137 57.62916 38.14026
#
# Velocity S-wave (km/s) = 2.74875 4.83172 3.93072
# Velocity P-wave (km/s) = 3.90960 7.36786 5.89789
#
# Compressibility (1/GPa) = 0.07774271
#
# Stress axis : x y z
#
# Youngs Moduli (GPa) = 178.89574 52.99691 16.82185
#
# Poissons Ratio (x) = 0.24233 0.15445
# Poissons Ratio (y) = 0.81800 -0.17954
# Poissons Ratio (z) = 1.64256 -0.56563
#
# Static dielectric constant tensor:
#      x y z
#    x 2.051370 0.000000 0.000000 
#    y 0.000000 2.055070 0.000000 
#    z 0.000000 0.000000 1.983860 
# 
# From -- ./inp_files/29647.got.cif
#   From: 2010.05.17/outbox.cif.g08.bks.cpg/sg68_15_cif.got.tgz:29647.got - 2010.06.03 18:57:09.
