data_PCOD9505233
_publ_section_title
;
Structure prediction by ZEFSAII (Michael W. Deem and Ramdas Pophale) SiO2 
 PCOD9505233
Probable space group: C M M A
;
_chemical_formula_sum "Si O2"
_cell_formula_units_Z 44
_cell_length_a 24.000000
_cell_length_b 15.000000
_cell_length_c 12.000000
_cell_angle_alpha 90.000000
_cell_angle_beta 90.000000
_cell_angle_gamma 90.000000
_cell_volume 4320.000000
_symmetry_space_group_name_H-M "C M M A"
_symmetry_group_IT_number 67
_symmetry_cell_setting 'orthorhombic'
loop_
_space_group_symop_operation_xyz
x,y,z
-x,1/2-y,z
x,-y,-z
-x,1/2+y,-z
-x,-y,-z
x,1/2+y,-z
-x,y,z
x,1/2-y,z
1/2+x,1/2+y,z
1/2-x,-y,z
1/2+x,1/2-y,-z
1/2-x,y,-z
1/2-x,1/2-y,-z
1/2+x,y,-z
1/2-x,1/2+y,z
1/2+x,-y,z
loop_
_atom_site_type_symbol
_atom_site_label
_atom_site_fract_x
_atom_site_fract_y
_atom_site_fract_z
Si Si1 0.350791 0.000000 0.000000
Si Si2 0.904226 0.354582 0.589224
Si Si3 0.588617 0.353449 0.675183
Si Si4 0.199808 0.855828 0.823664
Si Si5 0.772317 0.644412 0.380224
Si Si6 0.061161 0.970928 0.197552
O O1 0.316005 0.077491 0.928567
O O2 0.391611 0.962781 0.899841
O O3 0.919587 0.250000 0.599536
O O4 0.914155 0.377906 0.457389
O O5 0.838309 0.364058 0.610087
O O6 0.930163 0.410729 0.690884
O O7 0.569394 0.250000 0.684545
O O8 0.650432 0.355206 0.730068
O O9 0.560824 0.428641 0.751748
O O10 0.206843 0.750000 0.858780
O O11 0.250505 0.887306 0.741748
O O12 0.757417 0.750000 0.379798
O O13 0.750000 0.608151 0.500000
O O14 0.000000 0.950685 0.149760
#
# Coordination Sequence:
#
# PCOD9505233 Si02
#       6
#     8  16  16  16  16  16
#     4  10  23  42  61  82 120 160 218 260 290 350
#     4  10  20  35  59  93 127 155 193 246 309 379
#     4   9  18  35  60  89 120 150 195 257 316 371
#     4   9  17  34  62  93 123 159 199 248 304 362
#     4   9  15  30  61  95 124 155 190 238 307 374
#     4  11  24  41  59  80 115 165 215 260 305 350
#
# _framework density 10.185185000000001
#
# number of rings (size 3 to 8) (size 9 to 14) (size 15 to 20)
#    0.000    2.364    1.818    0.818    0.000    2.909 
#    0.000    7.273    0.000    6.545    0.000    1.273 
#    0.000    0.727    0.000    0.000    0.000    0.000 
#
# Total GULP energy -245178.855916 kJ/mol
# GULP energy per Si atom -5572.246725 kJ/mol
# Density = 1.016200 g / cm^3
# Si number density = 10.185185 Si / 1000 Ang^3
#
#
#
# Elastic Constant Matrix: (Units=GPa)
#
#
# Indices 1 2 3 4 5 6 
#
# 1 44.8102 15.2140 18.1675 0.0000 0.0000 0.0000
# 2 15.2140 64.7375 38.8871 0.0000 0.0000 0.0000
# 3 18.1675 38.8871 153.9957 0.0000 0.0000 0.0000
# 4 0.0000 0.0000 0.0000 45.8687 0.0000 0.0000
# 5 0.0000 0.0000 0.0000 0.0000 17.0018 0.0000
# 6 0.0000 0.0000 0.0000 0.0000 0.0000 0.0070
#
#
#
# Elastic Compliance Matrix: (Units=1/GPa)
#
#
# Indices 1 2 3 4 5 6 
#
# 1 0.024624 -0.004765 -0.001702 0.000000 0.000000 0.000000
# 2 -0.004765 0.019131 -0.004269 0.000000 0.000000 0.000000
# 3 -0.001702 -0.004269 0.007772 0.000000 0.000000 0.000000
# 4 0.000000 0.000000 0.000000 0.021801 0.000000 0.000000
# 5 0.000000 0.000000 0.000000 0.000000 0.058817 0.000000
# 6 0.000000 0.000000 0.000000 0.000000 0.000000142.035521
#
#
# Mechanical properties :
#
#
# Convention : Reuss Voigt Hill
#
# Bulk Modulus (GPa) = 33.27037 45.34228 39.30632
# Shear Modulus (GPa) = 0.03516 25.32716 12.68116
#
# Velocity S-wave (km/s) = 0.13152 3.52992 2.49776
# Velocity P-wave (km/s) = 4.04861 6.23867 5.25891
#
# Compressibility (1/GPa) = 0.03005678
#
# Stress axis : x y z
#
# Youngs Moduli (GPa) = 40.61080 52.27120 128.65975
#
# Poissons Ratio (x) = 0.24905 0.21896
# Poissons Ratio (y) = 0.19350 0.54923
# Poissons Ratio (z) = 0.06911 0.22314
#
# Static dielectric constant tensor:
#      x y z
#    x 1.825290 0.000000 0.000000 
#    y 0.000000 1.760510 0.000000 
#    z 0.000000 0.000000 1.702530 
# 
# From -- ./inp_files/21762.got.cif
#   From: 2010.05.17/outbox.ucp.g08.bks.cvg/sg67_11_cif.got.tgz:21762.got - 2010.06.11 16:47:20.
