data_PCOD9505193
_publ_section_title
;
Structure prediction by ZEFSAII (Michael W. Deem and Ramdas Pophale) SiO2 
 PCOD9505193
Probable space group: C M M A
;
_chemical_formula_sum "Si O2"
_cell_formula_units_Z 42
_cell_length_a 18.000000
_cell_length_b 21.000000
_cell_length_c 12.000000
_cell_angle_alpha 90.000000
_cell_angle_beta 90.000000
_cell_angle_gamma 90.000000
_cell_volume 4536.000000
_symmetry_space_group_name_H-M "C M M A"
_symmetry_group_IT_number 67
_symmetry_cell_setting 'orthorhombic'
loop_
_space_group_symop_operation_xyz
x,y,z
-x,1/2-y,z
x,-y,-z
-x,1/2+y,-z
-x,-y,-z
x,1/2+y,-z
-x,y,z
x,1/2-y,z
1/2+x,1/2+y,z
1/2-x,-y,z
1/2+x,1/2-y,-z
1/2-x,y,-z
1/2-x,1/2-y,-z
1/2+x,y,-z
1/2-x,1/2+y,z
1/2+x,-y,z
loop_
_atom_site_type_symbol
_atom_site_label
_atom_site_fract_x
_atom_site_fract_y
_atom_site_fract_z
Si Si1 0.409485 0.250000 0.316613
Si Si2 0.910385 0.125155 0.820150
Si Si3 0.829453 0.988964 0.294425
Si Si4 0.589835 0.877459 0.295528
Si Si5 0.409479 0.250000 0.571377
Si Si6 0.409766 0.823172 0.055116
Si Si7 0.250000 0.000000 0.500000
O O1 0.500000 0.250000 0.315859
O O2 0.386599 0.313816 0.252630
O O3 0.384944 0.250000 0.443892
O O4 0.879070 0.060455 0.770530
O O5 0.000000 0.122537 0.818200
O O6 0.885559 0.139075 0.946004
O O7 0.750000 0.000000 0.234904
O O8 0.870139 0.055727 0.318396
O O9 0.802277 0.962034 0.414709
O O10 0.500000 0.885034 0.305559
O O11 0.612478 0.816016 0.368836
O O12 0.608802 0.857966 0.169107
O O13 0.500000 0.250000 0.575263
O O14 0.500000 0.820123 0.051199
O O15 0.383517 0.750000 0.053700
#
# Coordination Sequence:
#
# PCOD9505193 Si02
#       7
#     8  16  16  16   8  16   4
#     4   9  18  29  50  84 115 137 178 235 280 322
#     4  10  19  35  59  87 114 146 186 232 281 338
#     4  10  23  40  56  76 110 152 194 229 281 326
#     4  10  19  35  59  87 114 146 186 232 281 338
#     4   9  18  29  50  84 115 137 178 235 280 322
#     4   9  16  31  57  88 120 148 177 224 287 340
#     4   8  24  44  58  64 116 164 190 226 282 348
#
# _framework density 9.2592590000000001
#
# number of rings (size 3 to 8) (size 9 to 14) (size 15 to 20)
#    0.571    1.905    1.905    0.571    2.667    0.762 
#    0.000    6.667    0.000    3.429    0.000    0.000 
#    0.000    0.000    0.000    0.000    0.000    0.000 
#
# Total GULP energy -233857.304903 kJ/mol
# GULP energy per Si atom -5568.031069 kJ/mol
# Density = 0.923818 g / cm^3
# Si number density = 9.259259 Si / 1000 Ang^3
#
#
#
# Elastic Constant Matrix: (Units=GPa)
#
#
# Indices 1 2 3 4 5 6 
#
# 1 24.5324 21.5369 13.4568 0.0000 0.0000 0.0000
# 2 21.5369 84.5528 24.1527 0.0000 0.0000 0.0000
# 3 13.4568 24.1527 112.7151 0.0000 0.0000 0.0000
# 4 0.0000 0.0000 0.0000 700.0315 0.0000 0.0000
# 5 0.0000 0.0000 0.0000 0.0000-1945.6060 0.0000
# 6 0.0000 0.0000 0.0000 0.0000 0.0000 -5.7225
#
#
#
# Elastic Compliance Matrix: (Units=1/GPa)
#
#
# Indices 1 2 3 4 5 6 
#
# 1 0.053931 -0.012673 -0.003723 0.000000 0.000000 0.000000
# 2 -0.012673 0.015576 -0.001825 0.000000 0.000000 0.000000
# 3 -0.003723 -0.001825 0.009707 0.000000 0.000000 0.000000
# 4 0.000000 0.000000 0.000000 0.001429 0.000000 0.000000
# 5 0.000000 0.000000 0.000000 0.000000 -0.000514 0.000000
# 6 0.000000 0.000000 0.000000 0.000000 0.000000 -0.174749
#
#
# Mechanical properties :
#
#
# Convention : Reuss Voigt Hill
#
# Bulk Modulus (GPa) = 23.37971 37.78810 30.58390
# Shear Modulus (GPa) = -113.84202 -239.41579 -176.62891
#
# Velocity S-wave (km/s) = -7.84909 -11.38267 -9.77684
# Velocity P-wave (km/s) = 8.33617 12.34114 10.53080
#
# Compressibility (1/GPa) = 0.04277214
#
# Stress axis : x y z
#
# Youngs Moduli (GPa) = 18.54235 64.20024 103.01439
#
# Poissons Ratio (x) = 0.81364 0.38352
# Poissons Ratio (y) = 0.23500 0.18796
# Poissons Ratio (z) = 0.06903 0.11714
#
# Static dielectric constant tensor:
#      x y z
#    x 1.641800 0.000000 0.000000 
#    y 0.000000 1.605550 0.000000 
#    z 0.000000 0.000000 1.662110 
# 
# From -- ./inp_files/19413.got.cif
#   From: 2010.05.17/outbox.ucp.g08.bks.cvg/sg67_10_cif.got.tgz:19413.got - 2010.06.11 16:47:20.
