data_PCOD9505449
_publ_section_title
;
Structure prediction by ZEFSAII (Michael W. Deem and Ramdas Pophale) SiO2 
 PCOD9505449
Probable space group: C C C A
;
_chemical_formula_sum "Si O2"
_cell_formula_units_Z 84
_cell_length_a 19.734308
_cell_length_b 26.645484
_cell_length_c 8.534084
_cell_angle_alpha 90.000000
_cell_angle_beta 90.000000
_cell_angle_gamma 90.000000
_cell_volume 4487.478995
_symmetry_space_group_name_H-M "C C C A"
_symmetry_group_IT_number 68
_space_group.IT_coordinate_system_code '2'
_symmetry_cell_setting 'orthorhombic'
loop_
_space_group_symop_operation_xyz
x,y,z
-x,1/2-y,z
x,1/2-y,1/2-z
-x,y,1/2-z
-x,-y,-z
x,1/2+y,-z
-x,1/2+y,1/2+z
x,-y,1/2+z
1/2+x,1/2+y,z
1/2-x,-y,z
1/2+x,-y,1/2-z
1/2-x,1/2+y,1/2-z
1/2-x,1/2-y,-z
1/2+x,y,-z
1/2-x,y,1/2+z
1/2+x,1/2-y,1/2+z
loop_
_atom_site_type_symbol
_atom_site_label
_atom_site_fract_x
_atom_site_fract_y
_atom_site_fract_z
Si Si1 0.693447 0.157395 0.392410
Si Si2 0.000000 0.750000 0.750000
Si Si3 0.665821 0.547546 0.077334
Si Si4 0.342706 0.651030 0.528537
Si Si5 0.874110 0.756074 0.582419
Si Si6 0.680065 0.555675 0.449731
O O1 0.678430 0.152348 0.209614
O O2 0.773605 0.155909 0.426887
O O3 0.664480 0.208418 0.464550
O O4 0.660610 0.109960 0.483309
O O5 0.053410 0.721806 0.638335
O O6 0.673502 0.551661 0.263607
O O7 0.627033 0.596688 0.014791
O O8 0.642860 0.491897 0.028453
O O9 0.740439 0.551744 0.997582
O O10 0.384677 0.700636 0.486924
O O11 0.835952 0.750000 0.750000
#
# Coordination Sequence:
#
# PCOD9505449 Si02
#       6
#    16   4  16  16  16  16
#     4  11  20  31  50  80 112 142 172 213 265 317
#     4   8  24  40  62  68 100 136 186 214 256 314
#     4  10  17  27  42  67 106 147 176 205 249 313
#     4  11  20  31  50  80 112 142 172 213 265 317
#     4  10  20  38  54  74  97 134 178 217 262 305
#     4  10  17  27  42  67 106 147 176 205 249 313
#
# _framework density 18.718751999999999
#
# number of rings (size 3 to 8) (size 9 to 14) (size 15 to 20)
#    0.571    1.143    0.000   11.429    0.000    0.000 
#    0.000    1.905    0.000    0.000    0.000    1.333 
#    0.000    0.000    0.000    0.000    0.000    0.000 
#
# Total GULP energy -233934.217005 kJ/mol
# GULP energy per Si atom -5569.862310 kJ/mol
# Density = 1.867615 g / cm^3
# Si number density = 18.718752 Si / 1000 Ang^3
#
#
#
# Elastic Constant Matrix: (Units=GPa)
#
#
# Indices 1 2 3 4 5 6 
#
# 1 15.0208 1.6856 -6.6619 0.0000 0.0000 0.0000
# 2 1.6856 132.8794 27.2361 0.0000 0.0000 0.0000
# 3 -6.6619 27.2361 145.0969 0.0000 0.0000 0.0000
# 4 0.0000 0.0000 0.0000 34.0959 0.0000 0.0000
# 5 0.0000 0.0000 0.0000 0.0000 6.2868 0.0000
# 6 0.0000 0.0000 0.0000 0.0000 0.0000 0.8676
#
#
#
# Elastic Compliance Matrix: (Units=1/GPa)
#
#
# Indices 1 2 3 4 5 6 
#
# 1 0.068271 -0.001569 0.003429 0.000000 0.000000 0.000000
# 2 -0.001569 0.007863 -0.001548 0.000000 0.000000 0.000000
# 3 0.003429 -0.001548 0.007340 0.000000 0.000000 0.000000
# 4 0.000000 0.000000 0.000000 0.029329 0.000000 0.000000
# 5 0.000000 0.000000 0.000000 0.000000 0.159064 0.000000
# 6 0.000000 0.000000 0.000000 0.000000 0.000000 1.152609
#
#
# Mechanical properties :
#
#
# Convention : Reuss Voigt Hill
#
# Bulk Modulus (GPa) = 11.89086 37.50184 24.69635
# Shear Modulus (GPa) = 3.44380 26.29921 14.87150
#
# Velocity S-wave (km/s) = 1.35785 3.75235 2.82169
# Velocity P-wave (km/s) = 2.97061 6.23309 4.88241
#
# Compressibility (1/GPa) = 0.08409823
#
# Stress axis : x y z
#
# Youngs Moduli (GPa) = 14.64751 127.18107 136.24069
#
# Poissons Ratio (x) = 0.19953 -0.46717
# Poissons Ratio (y) = 0.02298 0.21089
# Poissons Ratio (z) = -0.05023 0.19687
#
# Static dielectric constant tensor:
#      x y z
#    x 1.632730 0.000000 0.000000 
#    y 0.000000 1.749070 0.000000 
#    z 0.000000 0.000000 1.642530 
# 
# From -- ./inp_files/8087.got.cif
#   From: 2010.05.17/outbox.cif.g08.bks.cpg/sg68_5_cif.got.tgz:8087.got - 2010.06.03 18:57:09.
