data_PCOD9505680
_publ_section_title
;
Structure prediction by ZEFSAII (Michael W. Deem and Ramdas Pophale) SiO2 
 PCOD9505680
Probable space group: C C C A
;
_chemical_formula_sum "Si O2"
_cell_formula_units_Z 68
_cell_length_a 21.962267
_cell_length_b 21.398657
_cell_length_c 5.496927
_cell_angle_alpha 90.000000
_cell_angle_beta 90.000000
_cell_angle_gamma 90.000000
_cell_volume 2583.352405
_symmetry_space_group_name_H-M "C C C A"
_symmetry_group_IT_number 68
_space_group.IT_coordinate_system_code '2'
_symmetry_cell_setting 'orthorhombic'
loop_
_space_group_symop_operation_xyz
x,y,z
-x,1/2-y,z
x,1/2-y,1/2-z
-x,y,1/2-z
-x,-y,-z
x,1/2+y,-z
-x,1/2+y,1/2+z
x,-y,1/2+z
1/2+x,1/2+y,z
1/2-x,-y,z
1/2+x,-y,1/2-z
1/2-x,1/2+y,1/2-z
1/2-x,1/2-y,-z
1/2+x,y,-z
1/2-x,y,1/2+z
1/2+x,1/2-y,1/2+z
loop_
_atom_site_type_symbol
_atom_site_label
_atom_site_fract_x
_atom_site_fract_y
_atom_site_fract_z
Si Si1 0.096253 0.190819 0.573964
Si Si2 0.783451 0.620965 0.545792
Si Si3 0.596001 0.039405 0.968702
Si Si4 0.000000 0.750000 0.750000
Si Si5 0.000000 0.095936 0.750000
Si Si6 0.304299 0.250000 0.750000
O O1 0.098842 0.250000 0.750000
O O2 0.042317 0.205975 0.395830
O O3 0.064236 0.131739 0.695361
O O4 0.156227 0.199898 0.414242
O O5 0.752965 0.601070 0.289031
O O6 0.851052 0.592287 0.547086
O O7 0.781915 0.697455 0.554072
O O8 0.526177 0.062130 0.010838
O O9 0.604857 0.998494 0.216265
#
# Coordination Sequence:
#
# PCOD9505680 Si02
#       6
#    16  16  16   4   8   8
#     4  11  22  39  66 109 159 213 250 317 403 501
#     4  12  29  53  85 117 155 210 267 338 405 479
#     4  12  30  54  81 116 156 211 274 337 400 467
#     4  10  18  32  54 102 144 206 254 294 380 486
#     4  12  25  46  79 112 166 208 272 328 406 480
#     4  11  28  45  80 116 166 199 264 333 412 490
#
# _framework density 26.322386999999999
#
# number of rings (size 3 to 8) (size 9 to 14) (size 15 to 20)
#    0.000    0.471    2.353    4.235   13.176    2.824 
#    0.000    0.000    0.000    0.000    0.000    0.000 
#    0.000    0.000    0.000    0.000    0.000    0.000 
#
# Total GULP energy -189645.424222 kJ/mol
# GULP energy per Si atom -5577.806595 kJ/mol
# Density = 2.626248 g / cm^3
# Si number density = 26.322387 Si / 1000 Ang^3
#
#
#
# Elastic Constant Matrix: (Units=GPa)
#
#
# Indices 1 2 3 4 5 6 
#
# 1 131.5232 55.9248 46.8245 0.0000 0.0000 0.0000
# 2 55.9248 100.2178 43.5939 0.0000 0.0000 0.0000
# 3 46.8245 43.5939 165.8901 0.0000 0.0000 0.0000
# 4 0.0000 0.0000 0.0000 45.7782 0.0000 0.0000
# 5 0.0000 0.0000 0.0000 0.0000 51.4643 0.0000
# 6 0.0000 0.0000 0.0000 0.0000 0.0000 57.9918
#
#
#
# Elastic Compliance Matrix: (Units=1/GPa)
#
#
# Indices 1 2 3 4 5 6 
#
# 1 0.010323 -0.005073 -0.001581 0.000000 0.000000 0.000000
# 2 -0.005073 0.013759 -0.002184 0.000000 0.000000 0.000000
# 3 -0.001581 -0.002184 0.007048 0.000000 0.000000 0.000000
# 4 0.000000 0.000000 0.000000 0.021844 0.000000 0.000000
# 5 0.000000 0.000000 0.000000 0.000000 0.019431 0.000000
# 6 0.000000 0.000000 0.000000 0.000000 0.000000 0.017244
#
#
# Mechanical properties :
#
#
# Convention : Reuss Voigt Hill
#
# Bulk Modulus (GPa) = 74.32021 76.70194 75.51108
# Shear Modulus (GPa) = 44.71885 47.79939 46.25912
#
# Velocity S-wave (km/s) = 4.12623 4.26599 4.19669
# Velocity P-wave (km/s) = 7.14121 7.31215 7.22719
#
# Compressibility (1/GPa) = 0.01345529
#
# Stress axis : x y z
#
# Youngs Moduli (GPa) = 96.87041 72.67904 141.88160
#
# Poissons Ratio (x) = 0.36870 0.22427
# Poissons Ratio (y) = 0.49143 0.30984
# Poissons Ratio (z) = 0.15312 0.15872
#
# Static dielectric constant tensor:
#      x y z
#    x 2.057540 0.000000 0.000000 
#    y 0.000000 2.838100 0.000000 
#    z 0.000000 0.000000 1.980450 
# 
# From -- ./inp_files/2301.got.cif
#   From: 2010.05.17/outbox.cif.g08.bks.cpg/sg68_2_cif.got.tgz:2301.got - 2010.06.03 18:57:09.
