data_PCOD9505266
_publ_section_title
;
Structure prediction by ZEFSAII (Michael W. Deem and Ramdas Pophale) SiO2 
 PCOD9505266
Probable space group: C M M A
;
_chemical_formula_sum "Si O2"
_cell_formula_units_Z 48
_cell_length_a 24.000000
_cell_length_b 18.000000
_cell_length_c 12.000000
_cell_angle_alpha 90.000000
_cell_angle_beta 90.000000
_cell_angle_gamma 90.000000
_cell_volume 5184.000000
_symmetry_space_group_name_H-M "C M M A"
_symmetry_group_IT_number 67
_symmetry_cell_setting 'orthorhombic'
loop_
_space_group_symop_operation_xyz
x,y,z
-x,1/2-y,z
x,-y,-z
-x,1/2+y,-z
-x,-y,-z
x,1/2+y,-z
-x,y,z
x,1/2-y,z
1/2+x,1/2+y,z
1/2-x,-y,z
1/2+x,1/2-y,-z
1/2-x,y,-z
1/2-x,1/2-y,-z
1/2+x,y,-z
1/2-x,1/2+y,z
1/2+x,-y,z
loop_
_atom_site_type_symbol
_atom_site_label
_atom_site_fract_x
_atom_site_fract_y
_atom_site_fract_z
Si Si1 0.149377 0.338376 0.316488
Si Si2 0.156906 0.922611 0.448996
Si Si3 0.932262 0.905264 0.864365
Si Si4 0.065280 0.562210 0.258897
Si Si5 0.775355 0.339584 0.745134
Si Si6 0.874846 0.660782 0.088312
O O1 0.149528 0.250000 0.328412
O O2 0.145533 0.373893 0.440115
O O3 0.098163 0.361953 0.237033
O O4 0.209239 0.358765 0.257786
O O5 0.103152 0.941179 0.370375
O O6 0.197763 0.880759 0.362167
O O7 0.178838 0.000000 0.500000
O O8 0.000000 0.891840 0.876559
O O9 0.925803 0.991232 0.823901
O O10 0.898118 0.880815 0.976554
O O11 0.084390 0.633754 0.187614
O O12 0.000000 0.564400 0.286562
O O13 0.779984 0.250000 0.731203
O O14 0.813232 0.357137 0.856162
O O15 0.876690 0.750000 0.069251
#
# Coordination Sequence:
#
# PCOD9505266 Si02
#       6
#    16  16  16  16  16  16
#     4  11  23  39  60  89 123 160 200 247 307 363
#     4  11  21  38  60  89 116 157 204 247 298 359
#     4  11  23  40  61  88 123 162 204 250 301 358
#     4  10  22  40  61  85 121 163 203 249 303 360
#     4   9  21  40  61  87 121 156 196 250 306 362
#     4  10  21  39  63  91 119 154 204 254 303 361
#
# _framework density 9.2592590000000001
#
# number of rings (size 3 to 8) (size 9 to 14) (size 15 to 20)
#    0.000    1.667    1.667    2.500    0.000    8.667 
#    0.000    2.500    0.000    2.000    0.000    0.000 
#    0.000    0.000    0.000    0.000    0.000    0.000 
#
# Total GULP energy -267729.738017 kJ/mol
# GULP energy per Si atom -5577.702875 kJ/mol
# Density = 0.923818 g / cm^3
# Si number density = 9.259259 Si / 1000 Ang^3
#
#
#
# Elastic Constant Matrix: (Units=GPa)
#
#
# Indices 1 2 3 4 5 6 
#
# 1 108.7777 30.1557 51.8557 0.0000 0.0000 0.0000
# 2 30.1557 59.3518 26.2550 0.0000 0.0000 0.0000
# 3 51.8557 26.2550 125.3465 0.0000 0.0000 0.0000
# 4 0.0000 0.0000 0.0000 40.8335 0.0000 0.0000
# 5 0.0000 0.0000 0.0000 0.0000 30.0873 0.0000
# 6 0.0000 0.0000 0.0000 0.0000 0.0000 28.8341
#
#
#
# Elastic Compliance Matrix: (Units=1/GPa)
#
#
# Indices 1 2 3 4 5 6 
#
# 1 0.012436 -0.004455 -0.004211 0.000000 0.000000 0.000000
# 2 -0.004455 0.020166 -0.002381 0.000000 0.000000 0.000000
# 3 -0.004211 -0.002381 0.010219 0.000000 0.000000 0.000000
# 4 0.000000 0.000000 0.000000 0.024490 0.000000 0.000000
# 5 0.000000 0.000000 0.000000 0.000000 0.033237 0.000000
# 6 0.000000 0.000000 0.000000 0.000000 0.000000 0.034681
#
#
# Mechanical properties :
#
#
# Convention : Reuss Voigt Hill
#
# Bulk Modulus (GPa) = 48.25073 56.66763 52.45918
# Shear Modulus (GPa) = 30.44489 32.29829 31.37159
#
# Velocity S-wave (km/s) = 4.05906 4.18078 4.12037
# Velocity P-wave (km/s) = 6.93396 7.34658 7.14325
#
# Compressibility (1/GPa) = 0.02072507
#
# Stress axis : x y z
#
# Youngs Moduli (GPa) = 80.41252 49.58957 97.85874
#
# Poissons Ratio (x) = 0.22094 0.41213
# Poissons Ratio (y) = 0.35828 0.23297
# Poissons Ratio (z) = 0.33865 0.11806
#
# Static dielectric constant tensor:
#      x y z
#    x 1.657710 0.000000 0.000000 
#    y 0.000000 1.659920 0.000000 
#    z 0.000000 0.000000 1.621890 
# 
# From -- ./inp_files/21932.got.cif
#   From: 2010.05.17/outbox.ucp.g08.bks.cvg/sg67_11_cif.got.tgz:21932.got - 2010.06.11 16:47:20.
