data_PCOD9505150
_publ_section_title
;
Structure prediction by ZEFSAII (Michael W. Deem and Ramdas Pophale) SiO2 
 PCOD9505150
Probable space group: C M M A
;
_chemical_formula_sum "Si O2"
_cell_formula_units_Z 48
_cell_length_a 10.279860
_cell_length_b 14.096668
_cell_length_c 14.645059
_cell_angle_alpha 90.000000
_cell_angle_beta 90.000000
_cell_angle_gamma 90.000000
_cell_volume 2122.241473
_symmetry_space_group_name_H-M "C M M A"
_symmetry_group_IT_number 67
_symmetry_cell_setting 'orthorhombic'
loop_
_space_group_symop_operation_xyz
x,y,z
-x,1/2-y,z
x,-y,-z
-x,1/2+y,-z
-x,-y,-z
x,1/2+y,-z
-x,y,z
x,1/2-y,z
1/2+x,1/2+y,z
1/2-x,-y,z
1/2+x,1/2-y,-z
1/2-x,y,-z
1/2-x,1/2-y,-z
1/2+x,y,-z
1/2-x,1/2+y,z
1/2+x,-y,z
loop_
_atom_site_type_symbol
_atom_site_label
_atom_site_fract_x
_atom_site_fract_y
_atom_site_fract_z
Si Si1 0.848583 0.365377 0.418330
Si Si2 0.351590 0.134961 0.261514
Si Si3 0.361504 0.600036 0.946179
O O1 0.855573 0.250000 0.420924
O O2 0.750000 0.392740 0.500000
O O3 0.767438 0.391420 0.327551
O O4 0.000000 0.398536 0.423304
O O5 0.500000 0.111565 0.294607
O O6 0.348515 0.250000 0.253182
O O7 0.334840 0.091956 0.160986
O O8 0.500000 0.647268 0.953404
O O9 0.372137 0.500000 0.000000
O O10 0.250000 0.651570 0.000000
#
# Coordination Sequence:
#
# PCOD9505150 Si02
#       3
#    16  16  16
#     4   9  16  26  42  66  97 131 163 195 234 282
#     4   9  17  29  45  67  96 128 162 201 241 280
#     4   9  18  32  48  66  90 123 162 201 243 290
#
# _framework density 22.617594
#
# number of rings (size 3 to 8) (size 9 to 14) (size 15 to 20)
#    0.000    3.000    0.000    1.000    0.000    6.000 
#    0.000    0.000    0.000    0.000    0.000    4.667 
#    0.000   34.667    0.000    0.000    0.000    0.333 
#
# Total GULP energy -133752.828641 kJ/mol
# GULP energy per Si atom -5573.034527 kJ/mol
# Density = 2.256612 g / cm^3
# Si number density = 22.617594 Si / 1000 Ang^3
#
#
#
# Elastic Constant Matrix: (Units=GPa)
#
#
# Indices 1 2 3 4 5 6 
#
# 1 282.8139 20.9859 136.7897 0.0000 0.0000 0.0000
# 2 20.9859 99.5534 25.4892 0.0000 0.0000 0.0000
# 3 136.7897 25.4892 167.6852 0.0000 0.0000 0.0000
# 4 0.0000 0.0000 0.0000 23.8541 0.0000 0.0000
# 5 0.0000 0.0000 0.0000 0.0000 34.7046 0.0000
# 6 0.0000 0.0000 0.0000 0.0000 0.0000 138.7887
#
#
#
# Elastic Compliance Matrix: (Units=1/GPa)
#
#
# Indices 1 2 3 4 5 6 
#
# 1 0.005840 -0.000012 -0.004762 0.000000 0.000000 0.000000
# 2 -0.000012 0.010452 -0.001579 0.000000 0.000000 0.000000
# 3 -0.004762 -0.001579 0.010089 0.000000 0.000000 0.000000
# 4 0.000000 0.000000 0.000000 0.041921 0.000000 0.000000
# 5 0.000000 0.000000 0.000000 0.000000 0.028815 0.000000
# 6 0.000000 0.000000 0.000000 0.000000 0.000000 0.007205
#
#
# Mechanical properties :
#
#
# Convention : Reuss Voigt Hill
#
# Bulk Modulus (GPa) = 73.13231 101.84247 87.48739
# Shear Modulus (GPa) = 41.12310 63.92198 52.52254
#
# Velocity S-wave (km/s) = 4.26865 5.32197 4.82415
# Velocity P-wave (km/s) = 7.52992 9.10441 8.35434
#
# Compressibility (1/GPa) = 0.01367385
#
# Stress axis : x y z
#
# Youngs Moduli (GPa) = 171.22690 95.67862 99.12267
#
# Poissons Ratio (x) = 0.00113 0.47206
# Poissons Ratio (y) = 0.00202 0.15653
# Poissons Ratio (z) = 0.81545 0.15109
#
# Static dielectric constant tensor:
#      x y z
#    x 1.755240 0.000000 0.000000 
#    y 0.000000 1.876460 0.000000 
#    z 0.000000 0.000000 1.815410 
# 
# From -- ./inp_files/6269.got.cif
#   From: 2010.05.17/outbox.cif.g08.bks.cpg/sg67_4_cif.got.tgz:6269.got - 2010.06.03 18:28:57.
