data_PCOD9505084
_publ_section_title
;
Structure prediction by ZEFSAII (Michael W. Deem and Ramdas Pophale) SiO2 
 PCOD9505084
Probable space group: C M M A
;
_chemical_formula_sum "Si O2"
_cell_formula_units_Z 116
_cell_length_a 31.189201
_cell_length_b 25.003092
_cell_length_c 7.834923
_cell_angle_alpha 90.000000
_cell_angle_beta 90.000000
_cell_angle_gamma 90.000000
_cell_volume 6109.880283
_symmetry_space_group_name_H-M "C M M A"
_symmetry_group_IT_number 67
_symmetry_cell_setting 'orthorhombic'
loop_
_space_group_symop_operation_xyz
x,y,z
-x,1/2-y,z
x,-y,-z
-x,1/2+y,-z
-x,-y,-z
x,1/2+y,-z
-x,y,z
x,1/2-y,z
1/2+x,1/2+y,z
1/2-x,-y,z
1/2+x,1/2-y,-z
1/2-x,y,-z
1/2-x,1/2-y,-z
1/2+x,y,-z
1/2-x,1/2+y,z
1/2+x,-y,z
loop_
_atom_site_type_symbol
_atom_site_label
_atom_site_fract_x
_atom_site_fract_y
_atom_site_fract_z
Si Si1 0.451618 0.557172 0.786639
Si Si2 0.250000 0.000000 0.500000
Si Si3 0.311221 0.989614 0.189061
Si Si4 0.134604 0.396543 0.289396
Si Si5 0.200678 0.687246 0.208574
Si Si6 0.047678 0.065537 0.196646
Si Si7 0.361151 0.593221 0.680671
Si Si8 0.796434 0.688189 0.796022
O O1 0.500000 0.571018 0.725805
O O2 0.443187 0.494925 0.737667
O O3 0.411034 0.592058 0.732562
O O4 0.452848 0.560359 0.991985
O O5 0.281137 0.026047 0.646845
O O6 0.335492 0.043931 0.237876
O O7 0.344866 0.941595 0.168789
O O8 0.292729 0.000000 0.000000
O O9 0.084630 0.393751 0.247833
O O10 0.138837 0.416489 0.480455
O O11 0.163832 0.344771 0.272453
O O12 0.195026 0.750000 0.256256
O O13 0.164419 0.647493 0.275737
O O14 0.248952 0.669169 0.260671
O O15 0.201255 0.685162 0.002078
O O16 0.000000 0.080623 0.253976
O O17 0.799222 0.750000 0.746702
#
# Coordination Sequence:
#
# PCOD9505084 Si02
#       8
#    16   4  16  16  16  16  16  16
#     4   9  18  34  57  83 111 149 195 239 293 354
#     4  12  26  44  52  86 116 156 214 232 300 364
#     4  12  25  41  58  81 122 161 195 246 292 348
#     4  12  23  36  55  86 122 153 198 239 285 359
#     4   9  20  39  61  83 107 147 202 249 296 348
#     4   9  18  34  57  83 111 149 195 239 293 354
#     4  12  23  36  55  86 122 153 198 239 285 359
#     4   9  20  39  61  83 107 147 202 249 296 348
#
# _framework density 18.985641999999999
#
# number of rings (size 3 to 8) (size 9 to 14) (size 15 to 20)
#    0.000    1.655    2.759    4.345    1.931    1.655 
#    0.000    2.759    0.000    0.828    0.000    5.793 
#    0.000    0.000    0.000    0.000    0.000    0.000 
#
# Total GULP energy -323419.927779 kJ/mol
# GULP energy per Si atom -5576.205651 kJ/mol
# Density = 1.894243 g / cm^3
# Si number density = 18.985642 Si / 1000 Ang^3
#
#
#
# Elastic Constant Matrix: (Units=GPa)
#
#
# Indices 1 2 3 4 5 6 
#
# 1 181.9063 61.5237 27.9549 0.0000 0.0000 0.0000
# 2 61.5237 54.1187 2.9066 0.0000 0.0000 0.0000
# 3 27.9549 2.9066 71.2939 0.0000 0.0000 0.0000
# 4 0.0000 0.0000 0.0000 25.3274 0.0000 0.0000
# 5 0.0000 0.0000 0.0000 0.0000 -1.7823 0.0000
# 6 0.0000 0.0000 0.0000 0.0000 0.0000 25.8688
#
#
#
# Elastic Compliance Matrix: (Units=1/GPa)
#
#
# Indices 1 2 3 4 5 6 
#
# 1 0.009669 -0.010812 -0.003351 0.000000 0.000000 0.000000
# 2 -0.010812 0.030609 0.002992 0.000000 0.000000 0.000000
# 3 -0.003351 0.002992 0.015218 0.000000 0.000000 0.000000
# 4 0.000000 0.000000 0.000000 0.039483 0.000000 0.000000
# 5 0.000000 0.000000 0.000000 0.000000 -0.561073 0.000000
# 6 0.000000 0.000000 0.000000 0.000000 0.000000 0.038657
#
#
# Mechanical properties :
#
#
# Convention : Reuss Voigt Hill
#
# Bulk Modulus (GPa) = 30.16221 54.67659 42.41940
# Shear Modulus (GPa) = -12.68894 24.21168 5.76137
#
# Velocity S-wave (km/s) = -2.58804 3.57496 1.74390
# Velocity P-wave (km/s) = 2.64400 6.77509 5.14260
#
# Compressibility (1/GPa) = 0.03315407
#
# Stress axis : x y z
#
# Youngs Moduli (GPa) = 103.42230 32.67029 65.71062
#
# Poissons Ratio (x) = 0.35324 0.22017
# Poissons Ratio (y) = 1.11822 -0.19658
# Poissons Ratio (z) = 0.34652 -0.09774
#
# Static dielectric constant tensor:
#      x y z
#    x 1.741200 0.000000 0.000000 
#    y 0.000000 1.629040 0.000000 
#    z 0.000000 0.000000 1.687600 
# 
# From -- ./inp_files/14864.got.cif
#   From: 2010.05.17/outbox.cif.g08.bks.cpg/sg67_8_cif.got.tgz:14864.got - 2010.06.03 18:28:57.
