data_PCOD9505151
_publ_section_title
;
Structure prediction by ZEFSAII (Michael W. Deem and Ramdas Pophale) SiO2 
 PCOD9505151
Probable space group: C M M A
;
_chemical_formula_sum "Si O2"
_cell_formula_units_Z 96
_cell_length_a 25.829503
_cell_length_b 17.539927
_cell_length_c 12.330945
_cell_angle_alpha 90.000000
_cell_angle_beta 90.000000
_cell_angle_gamma 90.000000
_cell_volume 5586.505002
_symmetry_space_group_name_H-M "C M M A"
_symmetry_group_IT_number 67
_symmetry_cell_setting 'orthorhombic'
loop_
_space_group_symop_operation_xyz
x,y,z
-x,1/2-y,z
x,-y,-z
-x,1/2+y,-z
-x,-y,-z
x,1/2+y,-z
-x,y,z
x,1/2-y,z
1/2+x,1/2+y,z
1/2-x,-y,z
1/2+x,1/2-y,-z
1/2-x,y,-z
1/2-x,1/2-y,-z
1/2+x,y,-z
1/2-x,1/2+y,z
1/2+x,-y,z
loop_
_atom_site_type_symbol
_atom_site_label
_atom_site_fract_x
_atom_site_fract_y
_atom_site_fract_z
Si Si1 0.442465 0.015031 0.766511
Si Si2 0.334380 0.981727 0.123353
Si Si3 0.896427 0.924406 0.426427
Si Si4 0.714176 0.069626 0.325134
Si Si5 0.694701 0.335777 0.748155
Si Si6 0.914004 0.836880 0.630466
O O1 0.500000 0.005146 0.810458
O O2 0.395751 0.014477 0.851914
O O3 0.439610 0.096121 0.701945
O O4 0.428972 0.948861 0.678971
O O5 0.315906 0.897870 0.159130
O O6 0.306830 0.038302 0.209085
O O7 0.322395 0.000000 0.000000
O O8 0.836837 0.912002 0.392954
O O9 0.918237 0.858840 0.504075
O O10 0.896565 0.000000 0.500000
O O11 0.752317 0.139978 0.309150
O O12 0.750000 0.000000 0.368537
O O13 0.696263 0.250000 0.789190
O O14 0.646640 0.342298 0.664761
O O15 0.931123 0.750000 0.651808
#
# Coordination Sequence:
#
# PCOD9505151 Si02
#       6
#    16  16  16  16  16  16
#     4   9  18  32  49  68  89 114 149 193 232 268
#     4   9  18  33  50  67  89 116 148 189 233 272
#     4   9  17  28  43  65  93 124 155 185 217 257
#     4   9  17  28  43  65  93 124 155 185 218 258
#     4   9  18  31  46  68  96 121 149 184 218 258
#     4   9  18  30  44  67  97 124 150 182 220 262
#
# _framework density 17.184267999999999
#
# number of rings (size 3 to 8) (size 9 to 14) (size 15 to 20)
#    0.000    3.000    0.000    3.000    0.000    9.667 
#    0.000    3.333    0.000    1.000    0.000    0.000 
#    0.000    0.000    0.000    0.000    0.000    0.000 
#
# Total GULP energy -267449.005434 kJ/mol
# GULP energy per Si atom -5571.854280 kJ/mol
# Density = 1.714516 g / cm^3
# Si number density = 17.184268 Si / 1000 Ang^3
#
#
#
# Elastic Constant Matrix: (Units=GPa)
#
#
# Indices 1 2 3 4 5 6 
#
# 1 67.8520 -4.0810 -25.4804 0.0000 0.0000 0.0000
# 2 -4.0810 55.4360 4.9447 0.0000 0.0000 0.0000
# 3 -25.4804 4.9447 31.5589 0.0000 0.0000 0.0000
# 4 0.0000 0.0000 0.0000 12.5509 0.0000 0.0000
# 5 0.0000 0.0000 0.0000 0.0000 -0.4013 0.0000
# 6 0.0000 0.0000 0.0000 0.0000 0.0000 8.3126
#
#
#
# Elastic Compliance Matrix: (Units=1/GPa)
#
#
# Indices 1 2 3 4 5 6 
#
# 1 0.021151 0.000034 0.017072 0.000000 0.000000 0.000000
# 2 0.000034 0.018295 -0.002839 0.000000 0.000000 0.000000
# 3 0.017072 -0.002839 0.045915 0.000000 0.000000 0.000000
# 4 0.000000 0.000000 0.000000 0.079675 0.000000 0.000000
# 5 0.000000 0.000000 0.000000 0.000000 -2.491817 0.000000
# 6 0.000000 0.000000 0.000000 0.000000 0.000000 0.120299
#
#
# Mechanical properties :
#
#
# Convention : Reuss Voigt Hill
#
# Bulk Modulus (GPa) = 8.78000 11.73483 10.25741
# Shear Modulus (GPa) = -2.27578 16.05668 6.89045
#
# Velocity S-wave (km/s) = -1.15205 3.06008 2.00461
# Velocity P-wave (km/s) = 1.83052 4.39649 3.36749
#
# Compressibility (1/GPa) = 0.11389528
#
# Stress axis : x y z
#
# Youngs Moduli (GPa) = 47.27918 54.66103 21.77931
#
# Poissons Ratio (x) = -0.00188 -0.37181
# Poissons Ratio (y) = -0.00162 0.06183
# Poissons Ratio (z) = -0.80714 0.15517
#
# Static dielectric constant tensor:
#      x y z
#    x 1.606030 0.000000 0.000000 
#    y 0.000000 1.581830 0.000000 
#    z 0.000000 0.000000 1.575100 
# 
# From -- ./inp_files/19618.got.cif
#   From: 2010.05.17/outbox.cif.g08.bks.cpg/sg67_10_cif.got.tgz:19618.got - 2010.06.03 18:28:57.
