data_PCOD9505073
_publ_section_title
;
Structure prediction by ZEFSAII (Michael W. Deem and Ramdas Pophale) SiO2 
 PCOD9505073
Probable space group: C M M A
;
_chemical_formula_sum "Si O2"
_cell_formula_units_Z 72
_cell_length_a 10.276273
_cell_length_b 25.494045
_cell_length_c 14.500730
_cell_angle_alpha 90.000000
_cell_angle_beta 90.000000
_cell_angle_gamma 90.000000
_cell_volume 3798.955859
_symmetry_space_group_name_H-M "C M M A"
_symmetry_group_IT_number 67
_symmetry_cell_setting 'orthorhombic'
loop_
_space_group_symop_operation_xyz
x,y,z
-x,1/2-y,z
x,-y,-z
-x,1/2+y,-z
-x,-y,-z
x,1/2+y,-z
-x,y,z
x,1/2-y,z
1/2+x,1/2+y,z
1/2-x,-y,z
1/2+x,1/2-y,-z
1/2-x,y,-z
1/2-x,1/2-y,-z
1/2+x,y,-z
1/2-x,1/2+y,z
1/2+x,-y,z
loop_
_atom_site_type_symbol
_atom_site_label
_atom_site_fract_x
_atom_site_fract_y
_atom_site_fract_z
Si Si1 0.351596 0.750000 0.582300
Si Si2 0.500000 0.188627 0.771245
Si Si3 0.350639 0.456507 0.199641
Si Si4 0.000000 0.805935 0.128985
Si Si5 0.250000 0.430517 0.000000
Si Si6 0.000000 0.129660 0.047955
Si Si7 0.789425 0.839931 0.271007
O O1 0.500000 0.750000 0.549086
O O2 0.250000 0.750000 0.500000
O O3 0.331018 0.696524 0.642390
O O4 0.500000 0.250000 0.751299
O O5 0.500000 0.176633 0.880023
O O6 0.634186 0.164566 0.734919
O O7 0.500000 0.471795 0.214202
O O8 0.250000 0.500000 0.234465
O O9 0.327708 0.400737 0.251792
O O10 0.327821 0.454477 0.087604
O O11 0.870706 0.811550 0.189602
O O12 0.000000 0.750000 0.081464
O O13 0.000000 0.851185 0.056020
O O14 0.364592 0.400938 0.943912
#
# Coordination Sequence:
#
# PCOD9505073 Si02
#       7
#     8   8  16   8   8   8  16
#     4  12  26  46  76 105 129 162 198 259 335 406
#     4  12  23  34  58  96 130 175 220 272 304 367
#     4  12  26  41  62  88 122 176 225 271 324 370
#     4  12  19  38  62  84 122 187 214 256 328 383
#     4  12  21  38  55  78 124 173 232 280 317 354
#     4  12  21  34  55  88 126 178 229 271 308 366
#     4  12  22  43  64  89 137 166 208 263 328 391
#
# _framework density 18.952576000000001
#
# number of rings (size 3 to 8) (size 9 to 14) (size 15 to 20)
#    0.000    0.000   10.000    0.667    4.667    0.889 
#    0.000    3.333    0.000    0.667    0.000    3.111 
#    0.000    0.000    0.000    0.000    0.000    0.000 
#
# Total GULP energy -200654.543800 kJ/mol
# GULP energy per Si atom -5573.737328 kJ/mol
# Density = 1.890944 g / cm^3
# Si number density = 18.952576 Si / 1000 Ang^3
#
#
#
# Elastic Constant Matrix: (Units=GPa)
#
#
# Indices 1 2 3 4 5 6 
#
# 1 184.5307 38.4484 17.1487 0.0000 0.0000 0.0000
# 2 38.4484 105.3480 13.2154 0.0000 0.0000 0.0000
# 3 17.1487 13.2154 55.1836 0.0000 0.0000 0.0000
# 4 0.0000 0.0000 0.0000 8.5047 0.0000 0.0000
# 5 0.0000 0.0000 0.0000 0.0000 58.3731 0.0000
# 6 0.0000 0.0000 0.0000 0.0000 0.0000 31.4963
#
#
#
# Elastic Compliance Matrix: (Units=1/GPa)
#
#
# Indices 1 2 3 4 5 6 
#
# 1 0.005964 -0.002005 -0.001373 0.000000 0.000000 0.000000
# 2 -0.002005 0.010460 -0.001882 0.000000 0.000000 0.000000
# 3 -0.001373 -0.001882 0.018999 0.000000 0.000000 0.000000
# 4 0.000000 0.000000 0.000000 0.117581 0.000000 0.000000
# 5 0.000000 0.000000 0.000000 0.000000 0.017131 0.000000
# 6 0.000000 0.000000 0.000000 0.000000 0.000000 0.031750
#
#
# Mechanical properties :
#
#
# Convention : Reuss Voigt Hill
#
# Bulk Modulus (GPa) = 40.15536 53.63192 46.89364
# Shear Modulus (GPa) = 22.65448 38.09148 30.37298
#
# Velocity S-wave (km/s) = 3.46110 4.48798 4.00756
# Velocity P-wave (km/s) = 6.09963 7.43070 6.79783
#
# Compressibility (1/GPa) = 0.02490327
#
# Stress axis : x y z
#
# Youngs Moduli (GPa) = 167.66018 95.60203 52.63474
#
# Poissons Ratio (x) = 0.19164 0.07229
# Poissons Ratio (y) = 0.33608 0.09906
# Poissons Ratio (z) = 0.23027 0.17993
#
# Static dielectric constant tensor:
#      x y z
#    x 1.589080 0.000000 0.000000 
#    y 0.000000 1.724720 0.000000 
#    z 0.000000 0.000000 1.623090 
# 
# From -- ./inp_files/25159.got.cif
#   From: 2010.05.17/outbox.cif.g08.bks.cpg/sg67_13_cif.got.tgz:25159.got - 2010.06.03 18:28:57.
