data_PCOD9505343
_publ_section_title
;
Structure prediction by ZEFSAII (Michael W. Deem and Ramdas Pophale) SiO2 
 PCOD9505343
Probable space group: C C C A
;
_chemical_formula_sum "Si O2"
_cell_formula_units_Z 88
_cell_length_a 36.383693
_cell_length_b 5.690135
_cell_length_c 17.874703
_cell_angle_alpha 90.000000
_cell_angle_beta 90.000000
_cell_angle_gamma 90.000000
_cell_volume 3700.566246
_symmetry_space_group_name_H-M "C C C A"
_symmetry_group_IT_number 68
_space_group.IT_coordinate_system_code '2'
_symmetry_cell_setting 'orthorhombic'
loop_
_space_group_symop_operation_xyz
x,y,z
-x,1/2-y,z
x,1/2-y,1/2-z
-x,y,1/2-z
-x,-y,-z
x,1/2+y,-z
-x,1/2+y,1/2+z
x,-y,1/2+z
1/2+x,1/2+y,z
1/2-x,-y,z
1/2+x,-y,1/2-z
1/2-x,1/2+y,1/2-z
1/2-x,1/2-y,-z
1/2+x,y,-z
1/2-x,y,1/2+z
1/2+x,1/2-y,1/2+z
loop_
_atom_site_type_symbol
_atom_site_label
_atom_site_fract_x
_atom_site_fract_y
_atom_site_fract_z
Si Si1 0.370477 0.990710 0.168762
Si Si2 0.788406 0.115144 0.833850
Si Si3 0.750000 0.500000 0.375553
Si Si4 0.601691 0.492841 0.338559
Si Si5 0.514082 0.000280 0.162942
Si Si6 0.190045 0.148320 0.496363
O O1 0.381260 0.740149 0.132379
O O2 0.327024 0.004057 0.183983
O O3 0.389453 0.998962 0.249910
O O4 0.382163 0.242392 0.132837
O O5 0.780259 0.387716 0.817628
O O6 0.750000 0.000000 0.818923
O O7 0.789340 0.145134 0.924589
O O8 0.779265 0.366553 0.430914
O O9 0.557905 0.497401 0.343890
O O10 0.500000 0.250000 0.130996
O O11 0.500000 0.000304 0.250000
O O12 0.500000 0.750000 0.131306
O O13 0.169652 0.898126 0.501121
#
# Coordination Sequence:
#
# PCOD9505343 Si02
#       6
#    16  16   8  16  16  16
#     4  10  21  32  50  60  91 133 154 196 241 274
#     4  11  20  31  48  69  85 116 175 204 231 289
#     4  10  18  32  48  68  94 104 148 222 252 276
#     4  10  20  38  44  67 101 124 156 186 236 282
#     4  10  16  26  52  74  85 112 155 187 214 273
#     4  10  17  30  47  67  90 108 132 208 254 280
#
# _framework density 23.780142000000001
#
# number of rings (size 3 to 8) (size 9 to 14) (size 15 to 20)
#    0.000    1.818    2.727    6.545    2.545    0.000 
#    0.000    3.636    0.000    0.000    0.000    0.000 
#    0.000    0.000    0.000    0.000    0.000  887.273 
#
# Total GULP energy -244981.928040 kJ/mol
# GULP energy per Si atom -5567.771092 kJ/mol
# Density = 2.372602 g / cm^3
# Si number density = 23.780142 Si / 1000 Ang^3
#
#
#
# Elastic Constant Matrix: (Units=GPa)
#
#
# Indices 1 2 3 4 5 6 
#
# 1 203.5239 89.8598 14.9995 0.0000 0.0000 0.0000
# 2 89.8598 270.9506 4.8648 0.0000 0.0000 0.0000
# 3 14.9995 4.8648 21.1470 0.0000 0.0000 0.0000
# 4 0.0000 0.0000 0.0000 14.5655 0.0000 0.0000
# 5 0.0000 0.0000 0.0000 0.0000 -10.5359 0.0000
# 6 0.0000 0.0000 0.0000 0.0000 0.0000 28.1764
#
#
#
# Elastic Compliance Matrix: (Units=1/GPa)
#
#
# Indices 1 2 3 4 5 6 
#
# 1 0.006053 -0.001938 -0.003847 0.000000 0.000000 0.000000
# 2 -0.001938 0.004327 0.000379 0.000000 0.000000 0.000000
# 3 -0.003847 0.000379 0.049930 0.000000 0.000000 0.000000
# 4 0.000000 0.000000 0.000000 0.068656 0.000000 0.000000
# 5 0.000000 0.000000 0.000000 0.000000 -0.094914 0.000000
# 6 0.000000 0.000000 0.000000 0.000000 0.000000 0.035491
#
#
# Mechanical properties :
#
#
# Convention : Reuss Voigt Hill
#
# Bulk Modulus (GPa) = 20.20326 79.45218 49.82772
# Shear Modulus (GPa) = 51.62466 32.16769 41.89618
#
# Velocity S-wave (km/s) = 4.66436 3.68191 4.20195
# Velocity P-wave (km/s) = 6.12557 7.18046 6.67389
#
# Compressibility (1/GPa) = 0.04949696
#
# Stress axis : x y z
#
# Youngs Moduli (GPa) = 165.21361 231.12163 20.02814
#
# Poissons Ratio (x) = 0.44798 0.07705
# Poissons Ratio (y) = 0.32023 -0.00760
# Poissons Ratio (z) = 0.63563 -0.08771
#
# Static dielectric constant tensor:
#      x y z
#    x 0.544430 0.000000 0.000000 
#    y 0.000000 2.537960 0.000000 
#    z 0.000000 0.000000 2.014360 
# 
# From -- ./inp_files/47458.got.cif
#   From: 2010.05.17/outbox.cif.g08.bks.cpg/sg68_24_cif.got.tgz:47458.got - 2010.06.03 18:57:09.
