data_PCOD9505663
_publ_section_title
;
Structure prediction by ZEFSAII (Michael W. Deem and Ramdas Pophale) SiO2 
 PCOD9505663
Probable space group: C C C A
;
_chemical_formula_sum "Si O2"
_cell_formula_units_Z 64
_cell_length_a 29.135870
_cell_length_b 4.862553
_cell_length_c 21.095663
_cell_angle_alpha 90.000000
_cell_angle_beta 90.000000
_cell_angle_gamma 90.000000
_cell_volume 2988.721982
_symmetry_space_group_name_H-M "C C C A"
_symmetry_group_IT_number 68
_space_group.IT_coordinate_system_code '2'
_symmetry_cell_setting 'orthorhombic'
loop_
_space_group_symop_operation_xyz
x,y,z
-x,1/2-y,z
x,1/2-y,1/2-z
-x,y,1/2-z
-x,-y,-z
x,1/2+y,-z
-x,1/2+y,1/2+z
x,-y,1/2+z
1/2+x,1/2+y,z
1/2-x,-y,z
1/2+x,-y,1/2-z
1/2-x,1/2+y,1/2-z
1/2-x,1/2-y,-z
1/2+x,y,-z
1/2-x,y,1/2+z
1/2+x,1/2-y,1/2+z
loop_
_atom_site_type_symbol
_atom_site_label
_atom_site_fract_x
_atom_site_fract_y
_atom_site_fract_z
Si Si1 0.198609 0.960164 0.541980
Si Si2 0.391071 0.276382 0.403234
Si Si3 0.433536 0.989162 0.794341
Si Si4 0.952082 0.190288 0.076590
O O1 0.195094 0.141984 0.477224
O O2 0.157222 0.086077 0.581413
O O3 0.250000 0.000000 0.567770
O O4 0.390434 0.133140 0.334081
O O5 0.426632 0.527926 0.406919
O O6 0.414244 0.034609 0.447406
O O7 0.450850 0.750000 0.750000
O O8 0.425056 0.250000 0.750000
O O9 0.464827 0.055463 0.855024
O O10 0.000000 0.250000 0.042130
#
# Coordination Sequence:
#
# PCOD9505663 Si02
#       4
#    16  16  16  16
#     4  10  21  38  63  89 104 126 178 237 291 338
#     4  10  20  34  53  79 112 146 169 233 276 316
#     4  10  18  32  48  79 108 149 187 221 260 315
#     4  10  20  33  50  77 112 152 187 219 261 317
#
# _framework density 21.413834999999999
#
# number of rings (size 3 to 8) (size 9 to 14) (size 15 to 20)
#    1.500    0.500    2.500    2.250    0.000    0.500 
#    4.500    0.000    0.000   15.000    6.500    0.000 
#    0.000    0.000    0.000    0.000    0.000    0.000 
#
# Total GULP energy -178250.723959 kJ/mol
# GULP energy per Si atom -5570.335124 kJ/mol
# Density = 2.136510 g / cm^3
# Si number density = 21.413835 Si / 1000 Ang^3
#
#
#
# Elastic Constant Matrix: (Units=GPa)
#
#
# Indices 1 2 3 4 5 6 
#
# 1 160.8812 36.6030 18.7212 0.0000 0.0000 0.0000
# 2 36.6030 147.9669 15.0968 0.0000 0.0000 0.0000
# 3 18.7212 15.0968 58.8174 0.0000 0.0000 0.0000
# 4 0.0000 0.0000 0.0000 25.0037 0.0000 0.0000
# 5 0.0000 0.0000 0.0000 0.0000 8.4556 0.0000
# 6 0.0000 0.0000 0.0000 0.0000 0.0000 32.4806
#
#
#
# Elastic Compliance Matrix: (Units=1/GPa)
#
#
# Indices 1 2 3 4 5 6 
#
# 1 0.006761 -0.001492 -0.001769 0.000000 0.000000 0.000000
# 2 -0.001492 0.007269 -0.001391 0.000000 0.000000 0.000000
# 3 -0.001769 -0.001391 0.017922 0.000000 0.000000 0.000000
# 4 0.000000 0.000000 0.000000 0.039994 0.000000 0.000000
# 5 0.000000 0.000000 0.000000 0.000000 0.118265 0.000000
# 6 0.000000 0.000000 0.000000 0.000000 0.000000 0.030788
#
#
# Mechanical properties :
#
#
# Convention : Reuss Voigt Hill
#
# Bulk Modulus (GPa) = 44.15355 56.50084 50.32719
# Shear Modulus (GPa) = 21.02147 33.00428 27.01287
#
# Velocity S-wave (km/s) = 3.13657 3.93015 3.55557
# Velocity P-wave (km/s) = 5.81217 6.85837 6.35683
#
# Compressibility (1/GPa) = 0.02264824
#
# Stress axis : x y z
#
# Youngs Moduli (GPa) = 147.90530 137.56548 55.79772
#
# Poissons Ratio (x) = 0.20525 0.09871
# Poissons Ratio (y) = 0.22068 0.07761
# Poissons Ratio (z) = 0.26165 0.19134
#
# Static dielectric constant tensor:
#      x y z
#    x 1.830640 0.000000 0.000000 
#    y 0.000000 1.825690 0.000000 
#    z 0.000000 0.000000 1.879690 
# 
# From -- ./inp_files/47112.got.cif
#   From: 2010.05.17/outbox.cif.g08.bks.cpg/sg68_24_cif.got.tgz:47112.got - 2010.06.03 18:57:09.
