data_PCOD9505146
_publ_section_title
;
Structure prediction by ZEFSAII (Michael W. Deem and Ramdas Pophale) SiO2 
 PCOD9505146
Probable space group: C M M A
;
_chemical_formula_sum "Si O2"
_cell_formula_units_Z 128
_cell_length_a 16.396606
_cell_length_b 14.249458
_cell_length_c 23.414304
_cell_angle_alpha 90.000000
_cell_angle_beta 90.000000
_cell_angle_gamma 90.000000
_cell_volume 5470.582342
_symmetry_space_group_name_H-M "C M M A"
_symmetry_group_IT_number 67
_symmetry_cell_setting 'orthorhombic'
loop_
_space_group_symop_operation_xyz
x,y,z
-x,1/2-y,z
x,-y,-z
-x,1/2+y,-z
-x,-y,-z
x,1/2+y,-z
-x,y,z
x,1/2-y,z
1/2+x,1/2+y,z
1/2-x,-y,z
1/2+x,1/2-y,-z
1/2-x,y,-z
1/2-x,1/2-y,-z
1/2+x,y,-z
1/2-x,1/2+y,z
1/2+x,-y,z
loop_
_atom_site_type_symbol
_atom_site_label
_atom_site_fract_x
_atom_site_fract_y
_atom_site_fract_z
Si Si1 0.188787 0.861985 0.259715
Si Si2 0.759196 0.364095 0.933889
Si Si3 0.913910 0.135916 0.114888
Si Si4 0.089579 0.926422 0.448831
Si Si5 0.765146 0.392340 0.610087
Si Si6 0.587601 0.598892 0.366584
Si Si7 0.874111 0.137265 0.240256
Si Si8 0.093348 0.635163 0.150282
O O1 0.178215 0.750000 0.262294
O O2 0.198050 0.890520 0.325781
O O3 0.278032 0.881997 0.234200
O O4 0.123432 0.896898 0.213507
O O5 0.761058 0.250000 0.931877
O O6 0.673228 0.395735 0.907585
O O7 0.839064 0.392481 0.897283
O O8 0.750000 0.390689 0.000000
O O9 0.912158 0.250000 0.111265
O O10 0.915099 0.111256 0.181497
O O11 0.000000 0.105736 0.087510
O O12 0.084023 0.996412 0.394676
O O13 0.000000 0.882710 0.457717
O O14 0.104238 0.000000 0.500000
O O15 0.165892 0.860293 0.434324
O O16 0.750000 0.500000 0.593407
O O17 0.672715 0.353955 0.613319
O O18 0.500000 0.643665 0.380858
O O19 0.595230 0.592190 0.298420
O O20 0.883842 0.250000 0.248233
O O21 0.093845 0.750000 0.151177
O O22 0.000000 0.606357 0.138638
#
# Coordination Sequence:
#
# PCOD9505146 Si02
#       8
#    16  16  16  16  16  16  16  16
#     4   9  16  28  45  65  93 124 154 191 237 287
#     4   9  16  25  35  50  78 115 153 193 230 269
#     4   9  15  22  34  52  74 106 145 181 225 277
#     4   9  18  33  51  68  88 117 152 189 228 270
#     4   9  18  30  47  71  94 121 155 196 236 277
#     4   9  17  27  41  65  90 113 144 180 220 271
#     4   9  15  25  41  60  86 116 144 179 226 278
#     4   9  16  26  40  58  83 120 160 193 232 282
#
# _framework density 23.397874999999999
#
# number of rings (size 3 to 8) (size 9 to 14) (size 15 to 20)
#    0.000    3.000    1.250    0.375    0.000    4.000 
#    0.000    2.500    0.000    0.750    0.000    7.875 
#    0.000    0.500    0.000    1.125    0.250    1.250 
#
# Total GULP energy -356789.733580 kJ/mol
# GULP energy per Si atom -5574.839587 kJ/mol
# Density = 2.334462 g / cm^3
# Si number density = 23.397875 Si / 1000 Ang^3
#
#
#
# Elastic Constant Matrix: (Units=GPa)
#
#
# Indices 1 2 3 4 5 6 
#
# 1 240.2604 13.9884 82.4653 0.0000 0.0000 0.0000
# 2 13.9884 67.9398 -4.3438 0.0000 0.0000 0.0000
# 3 82.4653 -4.3438 74.2254 0.0000 0.0000 0.0000
# 4 0.0000 0.0000 0.0000 9.4496 0.0000 0.0000
# 5 0.0000 0.0000 0.0000 0.0000 10.0877 0.0000
# 6 0.0000 0.0000 0.0000 0.0000 0.0000 -8.7578
#
#
#
# Elastic Compliance Matrix: (Units=1/GPa)
#
#
# Indices 1 2 3 4 5 6 
#
# 1 0.006973 -0.001938 -0.007861 0.000000 0.000000 0.000000
# 2 -0.001938 0.015313 0.003050 0.000000 0.000000 0.000000
# 3 -0.007861 0.003050 0.022384 0.000000 0.000000 0.000000
# 4 0.000000 0.000000 0.000000 0.105825 0.000000 0.000000
# 5 0.000000 0.000000 0.000000 0.000000 0.099131 0.000000
# 6 0.000000 0.000000 0.000000 0.000000 0.000000 -0.114184
#
#
# Mechanical properties :
#
#
# Convention : Reuss Voigt Hill
#
# Bulk Modulus (GPa) = 32.08042 62.96059 47.52050
# Shear Modulus (GPa) = 31.38128 21.51027 26.44578
#
# Velocity S-wave (km/s) = 3.66622 3.03533 3.36559
# Velocity P-wave (km/s) = 5.62691 6.26509 5.95456
#
# Compressibility (1/GPa) = 0.03117166
#
# Stress axis : x y z
#
# Youngs Moduli (GPa) = 143.41052 65.30415 44.67459
#
# Poissons Ratio (x) = 0.12658 0.35117
# Poissons Ratio (y) = 0.27797 -0.13624
# Poissons Ratio (z) = 1.12728 -0.19915
#
# Static dielectric constant tensor:
#      x y z
#    x 1.982180 0.000000 0.000000 
#    y 0.000000 1.869550 0.000000 
#    z 0.000000 0.000000 1.871880 
# 
# From -- ./inp_files/39164.got.cif
#   From: 2010.05.17/outbox.cif.g08.bks.cpg/sg67_20_cif.got.tgz:39164.got - 2010.06.03 18:28:57.
