data_PCOD9505916
_publ_section_title
;
Structure prediction by ZEFSAII (Michael W. Deem and Ramdas Pophale) SiO2 
 PCOD9505916
Probable space group: C C C A
;
_chemical_formula_sum "Si O2"
_cell_formula_units_Z 68
_cell_length_a 19.959465
_cell_length_b 19.200449
_cell_length_c 8.449123
_cell_angle_alpha 90.000000
_cell_angle_beta 90.000000
_cell_angle_gamma 90.000000
_cell_volume 3237.963235
_symmetry_space_group_name_H-M "C C C A"
_symmetry_group_IT_number 68
_space_group.IT_coordinate_system_code '2'
_symmetry_cell_setting 'orthorhombic'
loop_
_space_group_symop_operation_xyz
x,y,z
-x,1/2-y,z
x,1/2-y,1/2-z
-x,y,1/2-z
-x,-y,-z
x,1/2+y,-z
-x,1/2+y,1/2+z
x,-y,1/2+z
1/2+x,1/2+y,z
1/2-x,-y,z
1/2+x,-y,1/2-z
1/2-x,1/2+y,1/2-z
1/2-x,1/2-y,-z
1/2+x,y,-z
1/2-x,y,1/2+z
1/2+x,1/2-y,1/2+z
loop_
_atom_site_type_symbol
_atom_site_label
_atom_site_fract_x
_atom_site_fract_y
_atom_site_fract_z
Si Si1 0.810158 0.148053 0.167752
Si Si2 0.500000 0.750000 0.250000
Si Si3 0.328873 0.019383 0.026985
Si Si4 0.154129 0.609347 0.165612
Si Si5 0.878029 0.282201 0.041832
O O1 0.835702 0.071870 0.121510
O O2 0.730644 0.137744 0.157905
O O3 0.845122 0.205095 0.051188
O O4 0.828117 0.175187 0.341421
O O5 0.448302 0.787379 0.133275
O O6 0.250000 0.000000 0.053008
O O7 0.360732 0.947082 0.972658
O O8 0.353059 0.065199 0.174541
O O9 0.114794 0.679406 0.124411
#
# Coordination Sequence:
#
# PCOD9505916 Si02
#       5
#    16   4  16  16  16
#     4   9  18  31  49  78 108 137 168 212 269 321
#     4   8  20  40  56  74 100 148 184 218 272 296
#     4  10  19  30  47  76 116 142 164 202 266 332
#     4  11  19  30  50  79 108 140 170 212 264 316
#     4  10  20  35  57  75 106 140 181 222 255 319
#
# _framework density 21.000855999999999
#
# number of rings (size 3 to 8) (size 9 to 14) (size 15 to 20)
#    0.000    2.353    0.000    7.059    0.000    2.824 
#    0.000    0.000    0.000   24.000    0.000    0.000 
#    0.000    0.000    0.000    0.000    0.000    0.000 
#
# Total GULP energy -189317.495380 kJ/mol
# GULP energy per Si atom -5568.161629 kJ/mol
# Density = 2.095306 g / cm^3
# Si number density = 21.000856 Si / 1000 Ang^3
#
#
#
# Elastic Constant Matrix: (Units=GPa)
#
#
# Indices 1 2 3 4 5 6 
#
# 1 48.0727 8.8068 11.2440 0.0000 0.0000 0.0000
# 2 8.8068 105.9182 23.3165 0.0000 0.0000 0.0000
# 3 11.2440 23.3165 49.0758 0.0000 0.0000 0.0000
# 4 0.0000 0.0000 0.0000 59.4235 0.0000 0.0000
# 5 0.0000 0.0000 0.0000 0.0000 -5.8757 0.0000
# 6 0.0000 0.0000 0.0000 0.0000 0.0000 -3.9876
#
#
#
# Elastic Compliance Matrix: (Units=1/GPa)
#
#
# Indices 1 2 3 4 5 6 
#
# 1 0.022041 -0.000805 -0.004667 0.000000 0.000000 0.000000
# 2 -0.000805 0.010573 -0.004839 0.000000 0.000000 0.000000
# 3 -0.004667 -0.004839 0.023745 0.000000 0.000000 0.000000
# 4 0.000000 0.000000 0.000000 0.016828 0.000000 0.000000
# 5 0.000000 0.000000 0.000000 0.000000 -0.170191 0.000000
# 6 0.000000 0.000000 0.000000 0.000000 0.000000 -0.250778
#
#
# Mechanical properties :
#
#
# Convention : Reuss Voigt Hill
#
# Bulk Modulus (GPa) = 27.98275 32.20014 30.09144
# Shear Modulus (GPa) = -15.86061 20.55866 2.34902
#
# Velocity S-wave (km/s) = -2.75114 3.13220 1.05876
# Velocity P-wave (km/s) = 1.80605 5.33357 3.98176
#
# Compressibility (1/GPa) = 0.03573631
#
# Stress axis : x y z
#
# Youngs Moduli (GPa) = 45.36996 94.57640 42.11394
#
# Poissons Ratio (x) = 0.07615 0.19656
# Poissons Ratio (y) = 0.03653 0.20379
# Poissons Ratio (z) = 0.21176 0.45767
#
# Static dielectric constant tensor:
#      x y z
#    x 2.161970 0.000000 0.000000 
#    y 0.000000 1.769840 0.000000 
#    z 0.000000 0.000000 1.865630 
# 
# From -- ./inp_files/5928.got.cif
#   From: 2010.05.17/outbox.cif.g08.bks.cpg/sg68_3_cif.got.tgz:5928.got - 2010.06.03 18:57:09.
