data_PCOD9505127
_publ_section_title
;
Structure prediction by ZEFSAII (Michael W. Deem and Ramdas Pophale) SiO2 
 PCOD9505127
Probable space group: C M M A
;
_chemical_formula_sum "Si O2"
_cell_formula_units_Z 64
_cell_length_a 11.385428
_cell_length_b 23.930051
_cell_length_c 9.641910
_cell_angle_alpha 90.000000
_cell_angle_beta 90.000000
_cell_angle_gamma 90.000000
_cell_volume 2626.975720
_symmetry_space_group_name_H-M "C M M A"
_symmetry_group_IT_number 67
_symmetry_cell_setting 'orthorhombic'
loop_
_space_group_symop_operation_xyz
x,y,z
-x,1/2-y,z
x,-y,-z
-x,1/2+y,-z
-x,-y,-z
x,1/2+y,-z
-x,y,z
x,1/2-y,z
1/2+x,1/2+y,z
1/2-x,-y,z
1/2+x,1/2-y,-z
1/2-x,y,-z
1/2-x,1/2-y,-z
1/2+x,y,-z
1/2-x,1/2+y,z
1/2+x,-y,z
loop_
_atom_site_type_symbol
_atom_site_label
_atom_site_fract_x
_atom_site_fract_y
_atom_site_fract_z
Si Si1 0.627320 0.021085 0.842040
Si Si2 0.126135 0.686982 0.234207
Si Si3 0.872843 0.652381 0.795117
Si Si4 0.874572 0.395396 0.505502
O O1 0.500000 0.003217 0.781704
O O2 0.630046 0.087946 0.842839
O O3 0.750000 0.000000 0.778555
O O4 0.626825 0.000000 0.000000
O O5 0.126897 0.750000 0.291694
O O6 0.250778 0.679498 0.159591
O O7 0.124426 0.640905 0.354992
O O8 0.000000 0.680163 0.158240
O O9 0.871715 0.646535 0.626831
O O10 0.000000 0.677021 0.833198
O O11 0.750000 0.426581 0.500000
O O12 0.000000 0.425638 0.494541
#
# Coordination Sequence:
#
# PCOD9505127 Si02
#       4
#    16  16  16  16
#     4   9  18  33  52  73  94 116 150 201 258 307
#     4   9  17  28  43  67 101 139 172 196 224 270
#     4   9  17  28  44  68  96 125 160 201 241 284
#     4   8  14  24  38  58  88 126 163 193 221 261
#
# _framework density 24.362617
#
# number of rings (size 3 to 8) (size 9 to 14) (size 15 to 20)
#    0.000    3.250    0.000    0.000    0.000    6.000 
#    0.000    5.000    0.000    6.750    0.000   43.750 
#    0.000    2.000    0.000    0.000    0.000    0.000 
#
# Total GULP energy -178228.396932 kJ/mol
# GULP energy per Si atom -5569.637404 kJ/mol
# Density = 2.430717 g / cm^3
# Si number density = 24.362617 Si / 1000 Ang^3
#
#
#
# Elastic Constant Matrix: (Units=GPa)
#
#
# Indices 1 2 3 4 5 6 
#
# 1 377.9986 43.2756 6.4249 0.0000 0.0000 0.0000
# 2 43.2756 40.5683 -1.2934 0.0000 0.0000 0.0000
# 3 6.4249 -1.2934 74.2915 0.0000 0.0000 0.0000
# 4 0.0000 0.0000 0.0000 -27.1208 0.0000 0.0000
# 5 0.0000 0.0000 0.0000 0.0000 -24.0490 0.0000
# 6 0.0000 0.0000 0.0000 0.0000 0.0000 11.7656
#
#
#
# Elastic Compliance Matrix: (Units=1/GPa)
#
#
# Indices 1 2 3 4 5 6 
#
# 1 0.003021 -0.003233 -0.000318 0.000000 0.000000 0.000000
# 2 -0.003233 0.028123 0.000769 0.000000 0.000000 0.000000
# 3 -0.000318 0.000769 0.013501 0.000000 0.000000 0.000000
# 4 0.000000 0.000000 0.000000 -0.036872 0.000000 0.000000
# 5 0.000000 0.000000 0.000000 0.000000 -0.041582 0.000000
# 6 0.000000 0.000000 0.000000 0.000000 0.000000 0.084993
#
#
# Mechanical properties :
#
#
# Convention : Reuss Voigt Hill
#
# Bulk Modulus (GPa) = 25.58661 65.51920 45.55290
# Shear Modulus (GPa) = 71.65929 21.74924 46.70426
#
# Velocity S-wave (km/s) = 5.42932 2.99110 4.38316
# Velocity P-wave (km/s) = 7.05893 6.23543 6.65992
#
# Compressibility (1/GPa) = 0.03908294
#
# Stress axis : x y z
#
# Youngs Moduli (GPa) = 331.01450 35.55829 74.06673
#
# Poissons Ratio (x) = 0.11495 0.02352
# Poissons Ratio (y) = 1.07009 -0.05697
# Poissons Ratio (z) = 0.10511 -0.02735
#
# Static dielectric constant tensor:
#      x y z
#    x 2.088840 0.000000 0.000000 
#    y 0.000000 1.835330 0.000000 
#    z 0.000000 0.000000 1.889910 
# 
# From -- ./inp_files/6719.got.cif
#   From: 2010.05.17/outbox.cif.g08.bks.cpg/sg67_4_cif.got.tgz:6719.got - 2010.06.03 18:28:57.
