data_PCOD9505198
_publ_section_title
;
Structure prediction by ZEFSAII (Michael W. Deem and Ramdas Pophale) SiO2 
 PCOD9505198
Probable space group: C M M A
;
_chemical_formula_sum "Si O2"
_cell_formula_units_Z 36
_cell_length_a 15.000000
_cell_length_b 15.000000
_cell_length_c 18.000000
_cell_angle_alpha 90.000000
_cell_angle_beta 90.000000
_cell_angle_gamma 90.000000
_cell_volume 4050.000000
_symmetry_space_group_name_H-M "C M M A"
_symmetry_group_IT_number 67
_symmetry_cell_setting 'orthorhombic'
loop_
_space_group_symop_operation_xyz
x,y,z
-x,1/2-y,z
x,-y,-z
-x,1/2+y,-z
-x,-y,-z
x,1/2+y,-z
-x,y,z
x,1/2-y,z
1/2+x,1/2+y,z
1/2-x,-y,z
1/2+x,1/2-y,-z
1/2-x,y,-z
1/2-x,1/2-y,-z
1/2+x,y,-z
1/2-x,1/2+y,z
1/2+x,-y,z
loop_
_atom_site_type_symbol
_atom_site_label
_atom_site_fract_x
_atom_site_fract_y
_atom_site_fract_z
Si Si1 0.899531 0.750000 0.876138
Si Si2 0.750000 0.107904 0.378217
Si Si3 0.857116 0.396228 1.000000
Si Si4 0.250000 0.250000 0.248824
Si Si5 0.102777 0.892051 0.500000
Si Si6 0.899531 0.250000 0.876138
O O1 0.885495 0.663151 0.928930
O O2 0.833127 0.750000 0.807314
O O3 0.000000 0.750000 0.849030
O O4 0.750000 0.164143 0.302913
O O5 0.836995 0.131794 0.428279
O O6 0.663005 0.131795 0.428279
O O7 0.750000 0.000000 0.367195
O O8 0.887665 0.500000 0.000000
O O9 0.750000 0.397653 0.000000
O O10 0.885495 0.336849 0.928930
O O11 0.333127 0.250000 0.192686
O O12 0.000000 0.860266 0.500000
O O13 0.099603 0.000000 0.500000
O O14 0.000000 0.250000 0.849029
#
# Coordination Sequence:
#
# PCOD9505198 Si02
#       6
#     8  16  16   8  16   8
#     4  11  23  39  57  82 118 149 182 233 278 324
#     4   9  20  36  55  78 108 145 180 226 278 323
#     4  10  19  38  67  87 105 142 189 236 281 324
#     4  12  24  38  50  80 120 150 184 218 268 344
#     4   8  15  33  59  82 103 134 184 236 275 317
#     4  11  23  39  57  82 118 149 182 233 278 324
#
# _framework density 8.8888890000000007
#
# number of rings (size 3 to 8) (size 9 to 14) (size 15 to 20)
#    0.000    2.222    2.222    3.333    0.000    7.111 
#    0.000    1.111    0.000    0.000    0.000    0.000 
#    0.000    0.000    0.000    0.000    0.000    0.000 
#
# Total GULP energy -200859.891422 kJ/mol
# GULP energy per Si atom -5579.441428 kJ/mol
# Density = 0.886866 g / cm^3
# Si number density = 8.888889 Si / 1000 Ang^3
#
#
#
# Elastic Constant Matrix: (Units=GPa)
#
#
# Indices 1 2 3 4 5 6 
#
# 1 187.1123 40.0977 84.5068 0.0000 0.0000 0.0000
# 2 40.0977 128.7163 65.8084 0.0000 0.0000 0.0000
# 3 84.5068 65.8084 163.7927 0.0000 0.0000 0.0000
# 4 0.0000 0.0000 0.0000 23.8443 0.0000 0.0000
# 5 0.0000 0.0000 0.0000 0.0000 -85.1925 0.0000
# 6 0.0000 0.0000 0.0000 0.0000 0.0000 -42.7056
#
#
#
# Elastic Compliance Matrix: (Units=1/GPa)
#
#
# Indices 1 2 3 4 5 6 
#
# 1 0.006986 -0.000420 -0.003436 0.000000 0.000000 0.000000
# 2 -0.000420 0.009803 -0.003722 0.000000 0.000000 0.000000
# 3 -0.003436 -0.003722 0.009373 0.000000 0.000000 0.000000
# 4 0.000000 0.000000 0.000000 0.041939 0.000000 0.000000
# 5 0.000000 0.000000 0.000000 0.000000 -0.011738 0.000000
# 6 0.000000 0.000000 0.000000 0.000000 0.000000 -0.023416
#
#
# Mechanical properties :
#
#
# Convention : Reuss Voigt Hill
#
# Bulk Modulus (GPa) = 90.84946 95.60521 93.22734
# Shear Modulus (GPa) = 96.58024 -1.53019 47.52502
#
# Velocity S-wave (km/s) = 7.37864 -0.92876 5.17599
# Velocity P-wave (km/s) = 11.12682 7.26254 9.39550
#
# Compressibility (1/GPa) = 0.01100722
#
# Stress axis : x y z
#
# Youngs Moduli (GPa) = 143.14293 102.01282 106.68601
#
# Poissons Ratio (x) = 0.04282 0.36654
# Poissons Ratio (y) = 0.06008 0.39708
# Poissons Ratio (z) = 0.49180 0.37969
#
# Static dielectric constant tensor:
#      x y z
#    x 1.621240 0.000000 0.000000 
#    y 0.000000 1.621750 0.000000 
#    z 0.000000 0.000000 1.568220 
# 
# From -- ./inp_files/33518.got.cif
#   From: 2010.05.17/outbox.ucp.g08.bks.cvg/sg67_17_cif.got.tgz:33518.got - 2010.06.11 16:47:20.
