data_PCOD9505596
_publ_section_title
;
Structure prediction by ZEFSAII (Michael W. Deem and Ramdas Pophale) SiO2 
 PCOD9505596
Probable space group: C C C A
;
_chemical_formula_sum "Si O2"
_cell_formula_units_Z 96
_cell_length_a 15.101113
_cell_length_b 12.449929
_cell_length_c 24.807007
_cell_angle_alpha 90.000000
_cell_angle_beta 90.000000
_cell_angle_gamma 90.000000
_cell_volume 4663.910430
_symmetry_space_group_name_H-M "C C C A"
_symmetry_group_IT_number 68
_space_group.IT_coordinate_system_code '2'
_symmetry_cell_setting 'orthorhombic'
loop_
_space_group_symop_operation_xyz
x,y,z
-x,1/2-y,z
x,1/2-y,1/2-z
-x,y,1/2-z
-x,-y,-z
x,1/2+y,-z
-x,1/2+y,1/2+z
x,-y,1/2+z
1/2+x,1/2+y,z
1/2-x,-y,z
1/2+x,-y,1/2-z
1/2-x,1/2+y,1/2-z
1/2-x,1/2-y,-z
1/2+x,y,-z
1/2-x,y,1/2+z
1/2+x,1/2-y,1/2+z
loop_
_atom_site_type_symbol
_atom_site_label
_atom_site_fract_x
_atom_site_fract_y
_atom_site_fract_z
Si Si1 0.388538 0.617361 0.197113
Si Si2 0.071494 0.414035 0.431960
Si Si3 0.899522 0.627304 0.686751
Si Si4 0.402680 0.199538 0.458070
Si Si5 0.127630 0.462645 0.085405
Si Si6 0.680121 0.089575 0.473152
O O1 0.359044 0.583231 0.257253
O O2 0.495348 0.602987 0.193069
O O3 0.380327 0.745638 0.189754
O O4 0.344824 0.559575 0.146383
O O5 0.120016 0.407398 0.374295
O O6 0.100949 0.332134 0.478354
O O7 0.088312 0.530249 0.458261
O O8 0.967378 0.403837 0.421687
O O9 0.500000 0.250000 0.447120
O O10 0.386058 0.089179 0.426197
O O11 0.329239 0.292297 0.449767
O O12 0.186277 0.411753 0.037921
O O13 0.750000 0.000000 0.453992
#
# Coordination Sequence:
#
# PCOD9505596 Si02
#       6
#    16  16  16  16  16  16
#     4   8  14  25  43  73  97 124 157 214 262 299
#     4  10  18  29  50  73  94 132 170 205 256 323
#     4   8  14  24  44  71 101 121 158 211 263 296
#     4  11  18  31  50  71  99 139 174 210 259 322
#     4  10  18  30  50  72  97 132 172 206 260 326
#     4  11  22  33  46  72 103 131 167 217 266 312
#
# _framework density 20.583584999999999
#
# number of rings (size 3 to 8) (size 9 to 14) (size 15 to 20)
#    0.000    2.333    3.333    3.000    2.333    2.667 
#    0.000    0.000    0.000    2.000    0.000    0.000 
#    0.000    0.000    0.000    0.000    0.000    0.000 
#
# Total GULP energy -267410.238843 kJ/mol
# GULP energy per Si atom -5571.046643 kJ/mol
# Density = 2.053674 g / cm^3
# Si number density = 20.583585 Si / 1000 Ang^3
#
#
#
# Elastic Constant Matrix: (Units=GPa)
#
#
# Indices 1 2 3 4 5 6 
#
# 1 33.6023 2.9878 2.0521 0.0000 0.0000 0.0000
# 2 2.9878 69.8900 13.7765 0.0000 0.0000 0.0000
# 3 2.0521 13.7765 144.1078 0.0000 0.0000 0.0000
# 4 0.0000 0.0000 0.0000 21.5626 0.0000 0.0000
# 5 0.0000 0.0000 0.0000 0.0000 4.6116 0.0000
# 6 0.0000 0.0000 0.0000 0.0000 0.0000 28.7184
#
#
#
# Elastic Compliance Matrix: (Units=1/GPa)
#
#
# Indices 1 2 3 4 5 6 
#
# 1 0.029887 -0.001217 -0.000309 0.000000 0.000000 0.000000
# 2 -0.001217 0.014633 -0.001382 0.000000 0.000000 0.000000
# 3 -0.000309 -0.001382 0.007076 0.000000 0.000000 0.000000
# 4 0.000000 0.000000 0.000000 0.046377 0.000000 0.000000
# 5 0.000000 0.000000 0.000000 0.000000 0.216844 0.000000
# 6 0.000000 0.000000 0.000000 0.000000 0.000000 0.034821
#
#
# Mechanical properties :
#
#
# Convention : Reuss Voigt Hill
#
# Bulk Modulus (GPa) = 21.84351 31.69255 26.76803
# Shear Modulus (GPa) = 13.48755 26.23075 19.85915
#
# Velocity S-wave (km/s) = 2.56258 3.57368 3.10950
# Velocity P-wave (km/s) = 4.40351 5.69725 5.09164
#
# Compressibility (1/GPa) = 0.04578019
#
# Stress axis : x y z
#
# Youngs Moduli (GPa) = 33.45940 68.34086 141.32828
#
# Poissons Ratio (x) = 0.08315 0.04371
# Poissons Ratio (y) = 0.04071 0.19525
# Poissons Ratio (z) = 0.01035 0.09441
#
# Static dielectric constant tensor:
#      x y z
#    x 1.852760 0.000000 0.000000 
#    y 0.000000 1.740280 0.000000 
#    z 0.000000 0.000000 1.790660 
# 
# From -- ./inp_files/45987.got.cif
#   From: 2010.05.17/outbox.cif.g08.bks.cpg/sg68_23_cif.got.tgz:45987.got - 2010.06.03 18:57:09.
