data_PCOD9505420
_publ_section_title
;
Structure prediction by ZEFSAII (Michael W. Deem and Ramdas Pophale) SiO2 
 PCOD9505420
Probable space group: C C C A
;
_chemical_formula_sum "Si O2"
_cell_formula_units_Z 96
_cell_length_a 14.120360
_cell_length_b 17.583341
_cell_length_c 17.825148
_cell_angle_alpha 90.000000
_cell_angle_beta 90.000000
_cell_angle_gamma 90.000000
_cell_volume 4425.683091
_symmetry_space_group_name_H-M "C C C A"
_symmetry_group_IT_number 68
_space_group.IT_coordinate_system_code '2'
_symmetry_cell_setting 'orthorhombic'
loop_
_space_group_symop_operation_xyz
x,y,z
-x,1/2-y,z
x,1/2-y,1/2-z
-x,y,1/2-z
-x,-y,-z
x,1/2+y,-z
-x,1/2+y,1/2+z
x,-y,1/2+z
1/2+x,1/2+y,z
1/2-x,-y,z
1/2+x,-y,1/2-z
1/2-x,1/2+y,1/2-z
1/2-x,1/2-y,-z
1/2+x,y,-z
1/2-x,y,1/2+z
1/2+x,1/2-y,1/2+z
loop_
_atom_site_type_symbol
_atom_site_label
_atom_site_fract_x
_atom_site_fract_y
_atom_site_fract_z
Si Si1 0.000000 0.750000 0.250000
Si Si2 0.393751 0.123891 0.343871
Si Si3 0.750000 0.000000 0.146796
Si Si4 0.851510 0.116973 0.035472
Si Si5 0.000000 0.250000 0.250000
Si Si6 0.112945 0.274723 0.518260
Si Si7 0.448242 0.861534 0.121927
Si Si8 0.053380 0.523498 0.421632
O O1 0.930891 0.690774 0.291551
O O2 0.324076 0.057533 0.313080
O O3 0.352917 0.171700 0.414427
O O4 0.483589 0.078283 0.376812
O O5 0.801443 0.059636 0.092082
O O6 0.830143 0.199271 0.001428
O O7 0.945984 0.137140 0.085557
O O8 0.862111 0.069362 0.958326
O O9 0.054816 0.192096 0.194456
O O10 0.112071 0.325232 0.444023
O O11 0.000000 0.250000 0.534269
O O12 0.423353 0.950135 0.127728
O O13 0.000000 0.500000 0.500000
#
# Coordination Sequence:
#
# PCOD9505420 Si02
#       8
#     4  16   8  16   4  16  16  16
#     4  12  28  44  70  92 124 194 252 248 324 424
#     4  12  22  42  68  98 124 176 222 284 314 402
#     4  12  24  36  64  96 136 158 208 280 358 360
#     4  10  18  35  59  91 120 164 202 264 329 381
#     4  12  20  28  50  92 120 144 216 258 312 368
#     4  10  16  35  65  90 124 153 215 267 306 371
#     4  10  18  31  54  89 120 158 202 263 305 378
#     4  10  16  35  63  88 117 156 213 263 313 382
#
# _framework density 21.691566999999999
#
# number of rings (size 3 to 8) (size 9 to 14) (size 15 to 20)
#    0.000    1.333   11.667    0.000    0.000    1.333 
#    0.000    0.833    0.000    4.000    0.000    0.000 
#    0.000    0.000    0.000    0.000    0.000    0.000 
#
# Total GULP energy -267240.086631 kJ/mol
# GULP energy per Si atom -5567.501805 kJ/mol
# Density = 2.164220 g / cm^3
# Si number density = 21.691567 Si / 1000 Ang^3
#
#
#
# Elastic Constant Matrix: (Units=GPa)
#
#
# Indices 1 2 3 4 5 6 
#
# 1 33.2039 35.2535 14.0806 0.0000 0.0000 0.0000
# 2 35.2535 203.6615 56.8840 0.0000 0.0000 0.0000
# 3 14.0806 56.8840 76.4137 0.0000 0.0000 0.0000
# 4 0.0000 0.0000 0.0000 -166.0079 0.0000 0.0000
# 5 0.0000 0.0000 0.0000 0.0000 -12.8563 0.0000
# 6 0.0000 0.0000 0.0000 0.0000 0.0000 32.9224
#
#
#
# Elastic Compliance Matrix: (Units=1/GPa)
#
#
# Indices 1 2 3 4 5 6 
#
# 1 0.037306 -0.005729 -0.002610 0.000000 0.000000 0.000000
# 2 -0.005729 0.007079 -0.004214 0.000000 0.000000 0.000000
# 3 -0.002610 -0.004214 0.016704 0.000000 0.000000 0.000000
# 4 0.000000 0.000000 0.000000 -0.006024 0.000000 0.000000
# 5 0.000000 0.000000 0.000000 0.000000 -0.077783 0.000000
# 6 0.000000 0.000000 0.000000 0.000000 0.000000 0.030374
#
#
# Mechanical properties :
#
#
# Convention : Reuss Voigt Hill
#
# Bulk Modulus (GPa) = 27.78979 58.41281 43.10130
# Shear Modulus (GPa) = 111.71662 -15.38428 48.16617
#
# Velocity S-wave (km/s) = 7.18430 -2.66602 4.71733
# Velocity P-wave (km/s) = 9.03648 4.18454 7.04160
#
# Compressibility (1/GPa) = 0.03598444
#
# Stress axis : x y z
#
# Youngs Moduli (GPa) = 26.80541 141.26847 59.86417
#
# Poissons Ratio (x) = 0.80928 0.15623
# Poissons Ratio (y) = 0.15356 0.25226
# Poissons Ratio (z) = 0.06995 0.59530
#
# Static dielectric constant tensor:
#      x y z
#    x 1.984250 0.000000 0.000000 
#    y 0.000000 1.860800 0.000000 
#    z 0.000000 0.000000 1.782320 
# 
# From -- ./inp_files/32071.got.cif
#   From: 2010.05.17/outbox.cif.g08.bks.cpg/sg68_17_cif.got.tgz:32071.got - 2010.06.03 18:57:09.
