data_PCOD9505019
_publ_section_title
;
Structure prediction by ZEFSAII (Michael W. Deem and Ramdas Pophale) SiO2 
 PCOD9505019
Probable space group: C M M A
;
_chemical_formula_sum "Si O2"
_cell_formula_units_Z 88
_cell_length_a 22.915811
_cell_length_b 15.364397
_cell_length_c 12.130822
_cell_angle_alpha 90.000000
_cell_angle_beta 90.000000
_cell_angle_gamma 90.000000
_cell_volume 4271.112220
_symmetry_space_group_name_H-M "C M M A"
_symmetry_group_IT_number 67
_symmetry_cell_setting 'orthorhombic'
loop_
_space_group_symop_operation_xyz
x,y,z
-x,1/2-y,z
x,-y,-z
-x,1/2+y,-z
-x,-y,-z
x,1/2+y,-z
-x,y,z
x,1/2-y,z
1/2+x,1/2+y,z
1/2-x,-y,z
1/2+x,1/2-y,-z
1/2-x,y,-z
1/2-x,1/2-y,-z
1/2+x,y,-z
1/2-x,1/2+y,z
1/2+x,-y,z
loop_
_atom_site_type_symbol
_atom_site_label
_atom_site_fract_x
_atom_site_fract_y
_atom_site_fract_z
Si Si1 0.618810 0.609303 0.811467
Si Si2 0.075906 0.750000 0.359349
Si Si3 0.249757 0.149279 0.873463
Si Si4 0.066663 0.098678 0.453835
Si Si5 0.360051 0.085337 0.754527
Si Si6 0.933158 0.352746 0.038407
O O1 0.582514 0.674711 0.736989
O O2 0.683950 0.645709 0.830483
O O3 0.625846 0.516465 0.755532
O O4 0.590502 0.598497 0.931314
O O5 0.070470 0.827502 0.452943
O O6 0.269345 0.250000 0.879420
O O7 0.293086 0.101010 0.789715
O O8 0.250000 0.114806 0.000000
O O9 0.115073 0.118964 0.360961
O O10 0.000000 0.100790 0.407924
O O11 0.075427 0.000000 0.500000
O O12 0.395317 0.127988 0.854881
O O13 0.928947 0.250000 0.012704
O O14 0.000000 0.375363 0.059507
#
# Coordination Sequence:
#
# PCOD9505019 Si02
#       6
#    16   8  16  16  16  16
#     4  12  24  45  70 102 138 180 234 280 354 430
#     4  12  25  48  72  94 139 182 235 292 344 419
#     4  11  23  42  71 102 141 186 227 285 355 426
#     4  11  26  48  73 101 138 189 243 294 351 417
#     4  12  25  43  70 104 138 177 234 293 349 413
#     4  11  24  40  64 101 141 177 220 284 354 420
#
# _framework density 20.603532999999999
#
# number of rings (size 3 to 8) (size 9 to 14) (size 15 to 20)
#    0.000    0.545    5.455    2.455    2.545    4.364 
#    0.000    1.818    0.000    0.000    0.000    0.000 
#    0.000    0.000    0.000    0.000    0.000    0.000 
#
# Total GULP energy -244988.891347 kJ/mol
# GULP energy per Si atom -5567.929349 kJ/mol
# Density = 2.055664 g / cm^3
# Si number density = 20.603533 Si / 1000 Ang^3
#
#
#
# Elastic Constant Matrix: (Units=GPa)
#
#
# Indices 1 2 3 4 5 6 
#
# 1 38.4806 -12.8035 11.2389 0.0000 0.0000 0.0000
# 2 -12.8035 77.4026 3.8834 0.0000 0.0000 0.0000
# 3 11.2389 3.8834 99.8005 0.0000 0.0000 0.0000
# 4 0.0000 0.0000 0.0000 42.9473 0.0000 0.0000
# 5 0.0000 0.0000 0.0000 0.0000 9.0596 0.0000
# 6 0.0000 0.0000 0.0000 0.0000 0.0000 0.2907
#
#
#
# Elastic Compliance Matrix: (Units=1/GPa)
#
#
# Indices 1 2 3 4 5 6 
#
# 1 0.028616 0.004905 -0.003413 0.000000 0.000000 0.000000
# 2 0.004905 0.013785 -0.001089 0.000000 0.000000 0.000000
# 3 -0.003413 -0.001089 0.010447 0.000000 0.000000 0.000000
# 4 0.000000 0.000000 0.000000 0.023284 0.000000 0.000000
# 5 0.000000 0.000000 0.000000 0.000000 0.110381 0.000000
# 6 0.000000 0.000000 0.000000 0.000000 0.000000 3.440146
#
#
# Mechanical properties :
#
#
# Convention : Reuss Voigt Hill
#
# Bulk Modulus (GPa) = 18.63816 24.48014 21.55915
# Shear Modulus (GPa) = 1.37222 24.68385 13.02803
#
# Velocity S-wave (km/s) = 0.81698 3.46503 2.51733
# Velocity P-wave (km/s) = 3.15526 5.28355 4.35152
#
# Compressibility (1/GPa) = 0.05365337
#
# Stress axis : x y z
#
# Youngs Moduli (GPa) = 34.94547 72.54045 95.72355
#
# Poissons Ratio (x) = -0.35579 0.32674
# Poissons Ratio (y) = -0.17140 0.10422
# Poissons Ratio (z) = 0.11928 0.07898
#
# Static dielectric constant tensor:
#      x y z
#    x 1.746720 0.000000 0.000000 
#    y 0.000000 1.787570 0.000000 
#    z 0.000000 0.000000 1.695250 
# 
# From -- ./inp_files/21753.got.cif
#   From: 2010.05.17/outbox.cif.g08.bks.cpg/sg67_11_cif.got.tgz:21753.got - 2010.06.03 18:28:57.
