data_PCOD9505789
_publ_section_title
;
Structure prediction by ZEFSAII (Michael W. Deem and Ramdas Pophale) SiO2 
 PCOD9505789
Probable space group: C C C A
;
_chemical_formula_sum "Si O2"
_cell_formula_units_Z 64
_cell_length_a 9.293311
_cell_length_b 13.608180
_cell_length_c 22.045213
_cell_angle_alpha 90.000000
_cell_angle_beta 90.000000
_cell_angle_gamma 90.000000
_cell_volume 2787.948940
_symmetry_space_group_name_H-M "C C C A"
_symmetry_group_IT_number 68
_space_group.IT_coordinate_system_code '2'
_symmetry_cell_setting 'orthorhombic'
loop_
_space_group_symop_operation_xyz
x,y,z
-x,1/2-y,z
x,1/2-y,1/2-z
-x,y,1/2-z
-x,-y,-z
x,1/2+y,-z
-x,1/2+y,1/2+z
x,-y,1/2+z
1/2+x,1/2+y,z
1/2-x,-y,z
1/2+x,-y,1/2-z
1/2-x,1/2+y,1/2-z
1/2-x,1/2-y,-z
1/2+x,y,-z
1/2-x,y,1/2+z
1/2+x,1/2-y,1/2+z
loop_
_atom_site_type_symbol
_atom_site_label
_atom_site_fract_x
_atom_site_fract_y
_atom_site_fract_z
Si Si1 0.552747 0.892852 0.380248
Si Si2 0.620287 0.676112 0.986290
Si Si3 0.208143 0.234613 0.320210
Si Si4 0.622706 0.571154 0.864276
O O1 0.564993 0.874943 0.452170
O O2 0.691726 0.840260 0.351769
O O3 0.415861 0.831321 0.353525
O O4 0.520176 0.005173 0.363214
O O5 0.500000 0.750000 0.961753
O O6 0.750000 0.750000 0.000000
O O7 0.653266 0.598143 0.934454
O O8 0.176543 0.250000 0.250000
O O9 0.354046 0.173354 0.329624
O O10 0.750000 0.500000 0.841109
#
# Coordination Sequence:
#
# PCOD9505789 Si02
#       4
#    16  16  16  16
#     4  10  18  35  60  96 120 172 228 272 340 415
#     4  12  21  38  65  96 140 175 220 282 357 414
#     4  10  19  37  66  89 124 180 229 274 339 408
#     4  10  21  37  63  93 131 171 221 281 336 414
#
# _framework density 22.955945
#
# number of rings (size 3 to 8) (size 9 to 14) (size 15 to 20)
#    0.000    1.500    5.000    3.750    0.000    0.000 
#    0.000    0.000   27.500    0.000    0.000    0.000 
#    0.000    0.000    0.000    0.000    0.000    0.000 
#
# Total GULP energy -178565.058619 kJ/mol
# GULP energy per Si atom -5580.158082 kJ/mol
# Density = 2.290370 g / cm^3
# Si number density = 22.955945 Si / 1000 Ang^3
#
#
#
# Elastic Constant Matrix: (Units=GPa)
#
#
# Indices 1 2 3 4 5 6 
#
# 1 51.3489 64.1258 -3.3724 0.0000 0.0000 0.0000
# 2 64.1258 124.2242 5.6700 0.0000 0.0000 0.0000
# 3 -3.3724 5.6700 96.5754 0.0000 0.0000 0.0000
# 4 0.0000 0.0000 0.0000 1.8114 0.0000 0.0000
# 5 0.0000 0.0000 0.0000 0.0000 1.8420 0.0000
# 6 0.0000 0.0000 0.0000 0.0000 0.0000 54.0392
#
#
#
# Elastic Compliance Matrix: (Units=1/GPa)
#
#
# Indices 1 2 3 4 5 6 
#
# 1 0.056071 -0.029112 0.003667 0.000000 0.000000 0.000000
# 2 -0.029112 0.023186 -0.002378 0.000000 0.000000 0.000000
# 3 0.003667 -0.002378 0.010622 0.000000 0.000000 0.000000
# 4 0.000000 0.000000 0.000000 0.552044 0.000000 0.000000
# 5 0.000000 0.000000 0.000000 0.000000 0.542902 0.000000
# 6 0.000000 0.000000 0.000000 0.000000 0.000000 0.018505
#
#
# Mechanical properties :
#
#
# Convention : Reuss Voigt Hill
#
# Bulk Modulus (GPa) = 29.21024 44.99947 37.10485
# Shear Modulus (GPa) = 3.93581 25.25353 14.59467
#
# Velocity S-wave (km/s) = 1.31081 3.32035 2.52418
# Velocity P-wave (km/s) = 3.87854 5.86044 4.96930
#
# Compressibility (1/GPa) = 0.03423457
#
# Stress axis : x y z
#
# Youngs Moduli (GPa) = 17.83453 43.12888 94.14184
#
# Poissons Ratio (x) = 1.25556 -0.34523
# Poissons Ratio (y) = 0.51920 0.22386
# Poissons Ratio (z) = -0.06540 0.10255
#
# Static dielectric constant tensor:
#      x y z
#    x 1.958740 0.000000 0.000000 
#    y 0.000000 1.897050 0.000000 
#    z 0.000000 0.000000 1.826220 
# 
# From -- ./inp_files/43864.got.cif
#   From: 2010.05.17/outbox.cif.g08.bks.cpg/sg68_22_cif.got.tgz:43864.got - 2010.06.03 18:57:09.
