data_PCOD9505739
_publ_section_title
;
Structure prediction by ZEFSAII (Michael W. Deem and Ramdas Pophale) SiO2 
 PCOD9505739
Probable space group: C C C A
;
_chemical_formula_sum "Si O2"
_cell_formula_units_Z 68
_cell_length_a 19.074466
_cell_length_b 5.585801
_cell_length_c 24.575285
_cell_angle_alpha 90.000000
_cell_angle_beta 90.000000
_cell_angle_gamma 90.000000
_cell_volume 2618.402524
_symmetry_space_group_name_H-M "C C C A"
_symmetry_group_IT_number 68
_space_group.IT_coordinate_system_code '2'
_symmetry_cell_setting 'orthorhombic'
loop_
_space_group_symop_operation_xyz
x,y,z
-x,1/2-y,z
x,1/2-y,1/2-z
-x,y,1/2-z
-x,-y,-z
x,1/2+y,-z
-x,1/2+y,1/2+z
x,-y,1/2+z
1/2+x,1/2+y,z
1/2-x,-y,z
1/2+x,-y,1/2-z
1/2-x,1/2+y,1/2-z
1/2-x,1/2-y,-z
1/2+x,y,-z
1/2-x,y,1/2+z
1/2+x,1/2-y,1/2+z
loop_
_atom_site_type_symbol
_atom_site_label
_atom_site_fract_x
_atom_site_fract_y
_atom_site_fract_z
Si Si1 0.491237 0.499695 0.910509
Si Si2 0.000000 0.250000 0.750000
Si Si3 0.361182 0.978796 0.352244
Si Si4 0.669828 0.516341 0.478435
Si Si5 0.119322 0.522212 0.321139
O O1 0.500000 0.250000 0.939674
O O2 0.554062 0.496301 0.864468
O O3 0.416889 0.503754 0.880817
O O4 0.500000 0.750000 0.939211
O O5 0.054722 0.076048 0.718968
O O6 0.347180 0.740012 0.317430
O O7 0.331154 0.965862 0.413166
O O8 0.338843 0.227566 0.323919
O O9 0.639026 0.761225 0.502881
O O10 0.750000 0.500000 0.498723
#
# Coordination Sequence:
#
# PCOD9505739 Si02
#       5
#    16   4  16  16  16
#     4   8  14  27  42  65  94 139 161 201 240 308
#     4  12  20  34  52  90 112 146 188 238 244 306
#     4  10  18  34  50  75 109 147 168 218 281 328
#     4  10  21  37  59  84 104 131 185 245 277 319
#     4  10  20  30  51  77 113 145 175 222 259 314
#
# _framework density 25.970030999999999
#
# number of rings (size 3 to 8) (size 9 to 14) (size 15 to 20)
#    0.000    2.353    3.529    1.412    0.000    1.882 
#    0.000    0.000    0.000   38.118    0.000    3.294 
#    0.000    0.000    0.000    0.000    0.000    0.000 
#
# Total GULP energy -189725.196570 kJ/mol
# GULP energy per Si atom -5580.152840 kJ/mol
# Density = 2.591092 g / cm^3
# Si number density = 25.970031 Si / 1000 Ang^3
#
#
#
# Elastic Constant Matrix: (Units=GPa)
#
#
# Indices 1 2 3 4 5 6 
#
# 1 49.9752 5.9371 -3.2600 0.0000 0.0000 0.0000
# 2 5.9371 363.8725 55.6040 0.0000 0.0000 0.0000
# 3 -3.2600 55.6040 81.8872 0.0000 0.0000 0.0000
# 4 0.0000 0.0000 0.0000 34.2985 0.0000 0.0000
# 5 0.0000 0.0000 0.0000 0.0000 10.8893 0.0000
# 6 0.0000 0.0000 0.0000 0.0000 0.0000 -4.7789
#
#
#
# Elastic Compliance Matrix: (Units=1/GPa)
#
#
# Indices 1 2 3 4 5 6 
#
# 1 0.020144 -0.000503 0.001144 0.000000 0.000000 0.000000
# 2 -0.000503 0.003079 -0.002111 0.000000 0.000000 0.000000
# 3 0.001144 -0.002111 0.013691 0.000000 0.000000 0.000000
# 4 0.000000 0.000000 0.000000 0.029156 0.000000 0.000000
# 5 0.000000 0.000000 0.000000 0.000000 0.091833 0.000000
# 6 0.000000 0.000000 0.000000 0.000000 0.000000 -0.209255
#
#
# Mechanical properties :
#
#
# Convention : Reuss Voigt Hill
#
# Bulk Modulus (GPa) = 29.43493 68.03301 48.73397
# Shear Modulus (GPa) = -134.81974 37.24538 -48.78718
#
# Velocity S-wave (km/s) = -7.21292 3.79115 -4.33898
# Velocity P-wave (km/s) = 7.61640 6.73924 2.50921
#
# Compressibility (1/GPa) = 0.03397324
#
# Stress axis : x y z
#
# Youngs Moduli (GPa) = 49.64171 324.78283 73.04210
#
# Poissons Ratio (x) = 0.16352 -0.08355
# Poissons Ratio (y) = 0.02499 0.15417
# Poissons Ratio (z) = -0.05678 0.68554
#
# Static dielectric constant tensor:
#      x y z
#    x 1.948370 0.000000 0.000000 
#    y 0.000000 2.178390 0.000000 
#    z 0.000000 0.000000 2.010250 
# 
# From -- ./inp_files/48307.got.cif
#   From: 2010.05.17/outbox.cif.g08.bks.cpg/sg68_25_cif.got.tgz:48307.got - 2010.06.03 18:57:09.
