data_PCOD9505569
_publ_section_title
;
Structure prediction by ZEFSAII (Michael W. Deem and Ramdas Pophale) SiO2 
 PCOD9505569
Probable space group: C C C A
;
_chemical_formula_sum "Si O2"
_cell_formula_units_Z 112
_cell_length_a 19.416965
_cell_length_b 17.455617
_cell_length_c 18.541009
_cell_angle_alpha 90.000000
_cell_angle_beta 90.000000
_cell_angle_gamma 90.000000
_cell_volume 6284.198820
_symmetry_space_group_name_H-M "C C C A"
_symmetry_group_IT_number 68
_space_group.IT_coordinate_system_code '2'
_symmetry_cell_setting 'orthorhombic'
loop_
_space_group_symop_operation_xyz
x,y,z
-x,1/2-y,z
x,1/2-y,1/2-z
-x,y,1/2-z
-x,-y,-z
x,1/2+y,-z
-x,1/2+y,1/2+z
x,-y,1/2+z
1/2+x,1/2+y,z
1/2-x,-y,z
1/2+x,-y,1/2-z
1/2-x,1/2+y,1/2-z
1/2-x,1/2-y,-z
1/2+x,y,-z
1/2-x,y,1/2+z
1/2+x,1/2-y,1/2+z
loop_
_atom_site_type_symbol
_atom_site_label
_atom_site_fract_x
_atom_site_fract_y
_atom_site_fract_z
Si Si1 0.455248 0.565778 0.880834
Si Si2 0.805931 0.809813 0.088095
Si Si3 0.078971 0.617537 0.544635
Si Si4 0.424486 0.901553 0.085590
Si Si5 0.110480 0.547891 0.079577
Si Si6 0.330457 0.734285 0.426113
Si Si7 0.424221 0.221733 0.169574
O O1 0.424487 0.481335 0.871379
O O2 0.538365 0.562106 0.878839
O O3 0.426083 0.630274 0.829406
O O4 0.435725 0.595755 0.961284
O O5 0.828403 0.896922 0.106101
O O6 0.734233 0.773037 0.113849
O O7 0.867573 0.757199 0.117449
O O8 0.803926 0.802930 0.001169
O O9 0.119334 0.543698 0.576652
O O10 0.119571 0.695781 0.553223
O O11 0.004040 0.624072 0.581315
O O12 0.374135 0.833911 0.110161
O O13 0.405277 0.925299 0.003005
O O14 0.500000 0.250000 0.145105
O O15 0.412459 0.250000 0.250000
#
# Coordination Sequence:
#
# PCOD9505569 Si02
#       7
#    16  16  16  16  16  16  16
#     4   9  15  29  46  67  99 128 161 209 246 287
#     4  10  19  30  42  68 108 128 162 210 247 306
#     4   9  15  25  46  70  98 133 161 192 250 305
#     4   8  16  26  43  70  95 129 167 190 241 310
#     4   8  15  26  42  66  98 133 157 197 253 295
#     4  10  18  27  44  71 101 139 161 192 258 309
#     4  11  21  32  52  75  92 132 173 205 255 302
#
# _framework density 17.822479000000001
#
# number of rings (size 3 to 8) (size 9 to 14) (size 15 to 20)
#    0.000    2.714    2.857    2.143    0.000    0.571 
#    0.000    0.714    0.000    0.000    7.429    0.000 
#    0.000    1.143    0.000    0.000    0.000    0.000 
#
# Total GULP energy -311771.975628 kJ/mol
# GULP energy per Si atom -5567.356708 kJ/mol
# Density = 1.778191 g / cm^3
# Si number density = 17.822479 Si / 1000 Ang^3
#
#
#
# Elastic Constant Matrix: (Units=GPa)
#
#
# Indices 1 2 3 4 5 6 
#
# 1 75.2570 44.8225 6.9804 0.0000 0.0000 0.0000
# 2 44.8225 127.7269 8.4412 0.0000 0.0000 0.0000
# 3 6.9804 8.4412 13.2293 0.0000 0.0000 0.0000
# 4 0.0000 0.0000 0.0000 16.6870 0.0000 0.0000
# 5 0.0000 0.0000 0.0000 0.0000 3.7222 0.0000
# 6 0.0000 0.0000 0.0000 0.0000 0.0000 29.8878
#
#
#
# Elastic Compliance Matrix: (Units=1/GPa)
#
#
# Indices 1 2 3 4 5 6 
#
# 1 0.017166 -0.005664 -0.005444 0.000000 0.000000 0.000000
# 2 -0.005664 0.010043 -0.003419 0.000000 0.000000 0.000000
# 3 -0.005444 -0.003419 0.080644 0.000000 0.000000 0.000000
# 4 0.000000 0.000000 0.000000 0.059927 0.000000 0.000000
# 5 0.000000 0.000000 0.000000 0.000000 0.268659 0.000000
# 6 0.000000 0.000000 0.000000 0.000000 0.000000 0.033458
#
#
# Mechanical properties :
#
#
# Convention : Reuss Voigt Hill
#
# Bulk Modulus (GPa) = 12.69053 37.41127 25.05090
# Shear Modulus (GPa) = 9.51984 20.45734 14.98859
#
# Velocity S-wave (km/s) = 2.31367 3.39165 2.90314
# Velocity P-wave (km/s) = 3.77802 6.03112 5.03229
#
# Compressibility (1/GPa) = 0.07879894
#
# Stress axis : x y z
#
# Youngs Moduli (GPa) = 58.25340 99.57248 12.40016
#
# Poissons Ratio (x) = 0.56401 0.06750
# Poissons Ratio (y) = 0.32997 0.04240
# Poissons Ratio (z) = 0.31711 0.34046
#
# Static dielectric constant tensor:
#      x y z
#    x 1.625930 0.000000 0.000000 
#    y 0.000000 1.649970 0.000000 
#    z 0.000000 0.000000 1.592640 
# 
# From -- ./inp_files/39745.got.cif
#   From: 2010.05.17/outbox.cif.g08.bks.cpg/sg68_20_cif.got.tgz:39745.got - 2010.06.03 18:57:09.
