data_PCOD9505535
_publ_section_title
;
Structure prediction by ZEFSAII (Michael W. Deem and Ramdas Pophale) SiO2 
 PCOD9505535
Probable space group: C C C A
;
_chemical_formula_sum "Si O2"
_cell_formula_units_Z 96
_cell_length_a 20.949609
_cell_length_b 15.731359
_cell_length_c 13.967156
_cell_angle_alpha 90.000000
_cell_angle_beta 90.000000
_cell_angle_gamma 90.000000
_cell_volume 4603.097221
_symmetry_space_group_name_H-M "C C C A"
_symmetry_group_IT_number 68
_space_group.IT_coordinate_system_code '2'
_symmetry_cell_setting 'orthorhombic'
loop_
_space_group_symop_operation_xyz
x,y,z
-x,1/2-y,z
x,1/2-y,1/2-z
-x,y,1/2-z
-x,-y,-z
x,1/2+y,-z
-x,1/2+y,1/2+z
x,-y,1/2+z
1/2+x,1/2+y,z
1/2-x,-y,z
1/2+x,-y,1/2-z
1/2-x,1/2+y,1/2-z
1/2-x,1/2-y,-z
1/2+x,y,-z
1/2-x,y,1/2+z
1/2+x,1/2-y,1/2+z
loop_
_atom_site_type_symbol
_atom_site_label
_atom_site_fract_x
_atom_site_fract_y
_atom_site_fract_z
Si Si1 0.156992 0.559489 0.809357
Si Si2 0.910818 0.250000 0.750000
Si Si3 0.201851 0.400030 0.895511
Si Si4 0.000000 0.750000 0.082208
Si Si5 0.826459 0.629293 0.890970
Si Si6 0.608234 0.305946 0.555361
Si Si7 0.688963 0.697835 0.879572
O O1 0.152822 0.462907 0.843408
O O2 0.228212 0.583986 0.849503
O O3 0.151570 0.570309 0.695623
O O4 0.109688 0.626418 0.859875
O O5 0.808489 0.200308 0.887114
O O6 0.951514 0.211163 0.838256
O O7 0.134802 0.318055 0.698329
O O8 0.190458 0.416150 0.009021
O O9 0.954986 0.802607 0.010199
O O10 0.872956 0.710460 0.909411
O O11 0.758545 0.666370 0.855755
O O12 0.664854 0.332610 0.482267
#
# Coordination Sequence:
#
# PCOD9505535 Si02
#       7
#    16   8  16   8  16  16  16
#     4  11  21  33  53  85 123 157 192 240 306 382
#     4   9  18  32  60  90 114 149 212 250 304 345
#     4  10  21  34  50  86 127 152 190 242 316 372
#     4   9  20  36  55  92 116 158 207 268 285 346
#     4  11  20  36  58  85 118 158 197 243 315 375
#     4  10  19  36  59  81 116 155 202 253 299 354
#     4  10  17  34  59  83 117 148 192 259 304 360
#
# _framework density 20.855523000000002
#
# number of rings (size 3 to 8) (size 9 to 14) (size 15 to 20)
#    0.000    1.833    3.333    2.500    0.000    2.667 
#    6.000    1.667    0.000    9.000    0.000    0.000 
#    0.000    0.000    0.000    0.000    0.000    0.000 
#
# Total GULP energy -267466.755847 kJ/mol
# GULP energy per Si atom -5572.224080 kJ/mol
# Density = 2.080805 g / cm^3
# Si number density = 20.855523 Si / 1000 Ang^3
#
#
#
# Elastic Constant Matrix: (Units=GPa)
#
#
# Indices 1 2 3 4 5 6 
#
# 1 51.8215 10.0008 20.1913 0.0000 0.0000 0.0000
# 2 10.0008 52.4140 35.4095 0.0000 0.0000 0.0000
# 3 20.1913 35.4095 153.2450 0.0000 0.0000 0.0000
# 4 0.0000 0.0000 0.0000 25.4920 0.0000 0.0000
# 5 0.0000 0.0000 0.0000 0.0000 27.7001 0.0000
# 6 0.0000 0.0000 0.0000 0.0000 0.0000 7.3155
#
#
#
# Elastic Compliance Matrix: (Units=1/GPa)
#
#
# Indices 1 2 3 4 5 6 
#
# 1 0.020611 -0.002486 -0.002141 0.000000 0.000000 0.000000
# 2 -0.002486 0.022908 -0.004966 0.000000 0.000000 0.000000
# 3 -0.002141 -0.004966 0.007955 0.000000 0.000000 0.000000
# 4 0.000000 0.000000 0.000000 0.039228 0.000000 0.000000
# 5 0.000000 0.000000 0.000000 0.000000 0.036101 0.000000
# 6 0.000000 0.000000 0.000000 0.000000 0.000000 0.136695
#
#
# Mechanical properties :
#
#
# Convention : Reuss Voigt Hill
#
# Bulk Modulus (GPa) = 30.97124 43.18708 37.07916
# Shear Modulus (GPa) = 17.03886 24.89345 20.96615
#
# Velocity S-wave (km/s) = 2.86141 3.45862 3.17409
# Velocity P-wave (km/s) = 5.07932 6.05823 5.59024
#
# Compressibility (1/GPa) = 0.03228802
#
# Stress axis : x y z
#
# Youngs Moduli (GPa) = 48.51760 43.65308 125.70704
#
# Poissons Ratio (x) = 0.10853 0.26917
# Poissons Ratio (y) = 0.12062 0.62422
# Poissons Ratio (z) = 0.10389 0.21677
#
# Static dielectric constant tensor:
#      x y z
#    x 1.821380 0.000000 0.000000 
#    y 0.000000 1.775570 0.000000 
#    z 0.000000 0.000000 1.825490 
# 
# From -- ./inp_files/16456.got.cif
#   From: 2010.05.17/outbox.cif.g08.bks.cpg/sg68_9_cif.got.tgz:16456.got - 2010.06.03 18:57:09.
