data_PCOD9505422
_publ_section_title
;
Structure prediction by ZEFSAII (Michael W. Deem and Ramdas Pophale) SiO2 
 PCOD9505422
Probable space group: C C C A
;
_chemical_formula_sum "Si O2"
_cell_formula_units_Z 108
_cell_length_a 13.724937
_cell_length_b 22.253487
_cell_length_c 14.016522
_cell_angle_alpha 90.000000
_cell_angle_beta 90.000000
_cell_angle_gamma 90.000000
_cell_volume 4281.034176
_symmetry_space_group_name_H-M "C C C A"
_symmetry_group_IT_number 68
_space_group.IT_coordinate_system_code '2'
_symmetry_cell_setting 'orthorhombic'
loop_
_space_group_symop_operation_xyz
x,y,z
-x,1/2-y,z
x,1/2-y,1/2-z
-x,y,1/2-z
-x,-y,-z
x,1/2+y,-z
-x,1/2+y,1/2+z
x,-y,1/2+z
1/2+x,1/2+y,z
1/2-x,-y,z
1/2+x,-y,1/2-z
1/2-x,1/2+y,1/2-z
1/2-x,1/2-y,-z
1/2+x,y,-z
1/2-x,y,1/2+z
1/2+x,1/2-y,1/2+z
loop_
_atom_site_type_symbol
_atom_site_label
_atom_site_fract_x
_atom_site_fract_y
_atom_site_fract_z
Si Si1 0.500000 0.750000 0.250000
Si Si2 0.599056 0.633302 0.700264
Si Si3 0.990663 0.846712 0.493289
Si Si4 0.210416 0.576715 0.835834
Si Si5 0.352606 0.294948 0.893569
Si Si6 0.348692 0.078748 0.879895
Si Si7 0.208194 0.250000 0.750000
Si Si8 0.359789 0.952586 0.970109
O O1 0.566530 0.708029 0.187737
O O2 0.500000 0.614011 0.750000
O O3 0.573365 0.663470 0.599092
O O4 0.675266 0.578926 0.689540
O O5 0.648474 0.688607 0.755956
O O6 0.915026 0.867321 0.577221
O O7 0.074994 0.797223 0.516212
O O8 0.052758 0.906155 0.469366
O O9 0.197893 0.641194 0.887058
O O10 0.236963 0.576187 0.079877
O O11 0.167244 0.535580 0.918803
O O12 0.273185 0.250417 0.848230
O O13 0.343820 0.077101 0.765339
O O14 0.386459 0.014629 0.918826
#
# Coordination Sequence:
#
# PCOD9505422 Si02
#       8
#     4  16  16  16  16  16   8  16
#     4  10  16  36  58 100 124 148 210 280 324 402
#     4  11  22  42  69  94 140 178 230 281 353 425
#     4  11  22  42  66 100 131 182 230 288 345 417
#     4  10  21  42  66  92 133 186 218 283 354 401
#     4   9  20  37  68  93 130 165 225 277 337 406
#     4  11  22  39  67  95 135 183 232 284 346 415
#     4   9  21  43  67  98 132 182 217 291 347 415
#     4  10  23  40  61  99 140 169 237 290 336 419
#
# _framework density 25.227550000000001
#
# number of rings (size 3 to 8) (size 9 to 14) (size 15 to 20)
#    0.000    1.778    1.481    2.444    0.000    4.148 
#    5.333    0.741    0.000    0.000    0.000    0.000 
#    0.000    0.000    0.000    0.000    0.000    0.000 
#
# Total GULP energy -301540.537035 kJ/mol
# GULP energy per Si atom -5584.084019 kJ/mol
# Density = 2.517013 g / cm^3
# Si number density = 25.227550 Si / 1000 Ang^3
#
#
#
# Elastic Constant Matrix: (Units=GPa)
#
#
# Indices 1 2 3 4 5 6 
#
# 1 91.4103 18.9402 19.4942 0.0000 0.0000 0.0000
# 2 18.9402 42.4802 16.7675 0.0000 0.0000 0.0000
# 3 19.4942 16.7675 147.6714 0.0000 0.0000 0.0000
# 4 0.0000 0.0000 0.0000 26.7408 0.0000 0.0000
# 5 0.0000 0.0000 0.0000 0.0000 48.8229 0.0000
# 6 0.0000 0.0000 0.0000 0.0000 0.0000 26.9839
#
#
#
# Elastic Compliance Matrix: (Units=1/GPa)
#
#
# Indices 1 2 3 4 5 6 
#
# 1 0.012204 -0.005031 -0.001040 0.000000 0.000000 0.000000
# 2 -0.005031 0.026719 -0.002370 0.000000 0.000000 0.000000
# 3 -0.001040 -0.002370 0.007178 0.000000 0.000000 0.000000
# 4 0.000000 0.000000 0.000000 0.037396 0.000000 0.000000
# 5 0.000000 0.000000 0.000000 0.000000 0.020482 0.000000
# 6 0.000000 0.000000 0.000000 0.000000 0.000000 0.037059
#
#
# Mechanical properties :
#
#
# Convention : Reuss Voigt Hill
#
# Bulk Modulus (GPa) = 34.22292 43.55172 38.88732
# Shear Modulus (GPa) = 29.82250 35.60019 32.71135
#
# Velocity S-wave (km/s) = 3.44196 3.76062 3.60481
# Velocity P-wave (km/s) = 5.42137 6.01310 5.72489
#
# Compressibility (1/GPa) = 0.02922018
#
# Stress axis : x y z
#
# Youngs Moduli (GPa) = 81.94165 37.42689 139.31213
#
# Poissons Ratio (x) = 0.18829 0.14486
# Poissons Ratio (y) = 0.41223 0.33013
# Poissons Ratio (z) = 0.08520 0.08869
#
# Static dielectric constant tensor:
#      x y z
#    x 2.158250 0.000000 0.000000 
#    y 0.000000 2.036110 0.000000 
#    z 0.000000 0.000000 2.055960 
# 
# From -- ./inp_files/22826.got.cif
#   From: 2010.05.17/outbox.cif.g08.bks.cpg/sg68_12_cif.got.tgz:22826.got - 2010.06.03 18:57:09.
