data_PCOD9505921
_publ_section_title
;
Structure prediction by ZEFSAII (Michael W. Deem and Ramdas Pophale) SiO2 
 PCOD9505921
Probable space group: C C C A
;
_chemical_formula_sum "Si O2"
_cell_formula_units_Z 96
_cell_length_a 22.763920
_cell_length_b 12.322499
_cell_length_c 17.825343
_cell_angle_alpha 90.000000
_cell_angle_beta 90.000000
_cell_angle_gamma 90.000000
_cell_volume 5000.158113
_symmetry_space_group_name_H-M "C C C A"
_symmetry_group_IT_number 68
_space_group.IT_coordinate_system_code '2'
_symmetry_cell_setting 'orthorhombic'
loop_
_space_group_symop_operation_xyz
x,y,z
-x,1/2-y,z
x,1/2-y,1/2-z
-x,y,1/2-z
-x,-y,-z
x,1/2+y,-z
-x,1/2+y,1/2+z
x,-y,1/2+z
1/2+x,1/2+y,z
1/2-x,-y,z
1/2+x,-y,1/2-z
1/2-x,1/2+y,1/2-z
1/2-x,1/2-y,-z
1/2+x,y,-z
1/2-x,y,1/2+z
1/2+x,1/2-y,1/2+z
loop_
_atom_site_type_symbol
_atom_site_label
_atom_site_fract_x
_atom_site_fract_y
_atom_site_fract_z
Si Si1 0.750000 0.000000 0.766792
Si Si2 0.127028 0.968879 0.160457
Si Si3 0.065587 0.361098 0.716529
Si Si4 0.127709 0.737429 0.088569
Si Si5 0.657595 0.652365 0.070363
Si Si6 0.239314 0.828282 0.863581
Si Si7 0.750000 0.000000 0.514238
O O1 0.695255 0.971149 0.818137
O O2 0.762726 0.897025 0.712625
O O3 0.096622 0.958773 0.241430
O O4 0.114125 0.861689 0.111155
O O5 0.112740 0.078334 0.116515
O O6 0.093641 0.250000 0.750000
O O7 0.080696 0.342749 0.629726
O O8 0.000000 0.362348 0.750000
O O9 0.193131 0.707782 0.120284
O O10 0.130887 0.717287 0.999807
O O11 0.695567 0.728334 0.125363
O O12 0.702601 0.565841 0.032908
O O13 0.221952 0.911470 0.930269
#
# Coordination Sequence:
#
# PCOD9505921 Si02
#       7
#     8  16  16  16  16  16   8
#     4  11  21  32  50  80 116 150 186 226 274 340
#     4  11  21  33  53  80 107 141 185 225 277 340
#     4   9  19  37  59  79 102 139 190 242 277 318
#     4  10  19  35  53  75 110 144 180 228 276 324
#     4  11  20  31  50  78 114 149 177 218 278 339
#     4  10  19  30  48  76 116 146 178 213 270 336
#     4   9  17  30  44  70 108 150 174 202 256 328
#
# _framework density 19.199393000000001
#
# number of rings (size 3 to 8) (size 9 to 14) (size 15 to 20)
#    0.000    1.833    1.667    5.500    0.000    2.000 
#    0.000    0.833    0.000    0.000    0.000    1.167 
#    0.000    0.000    0.000    0.000    0.000    0.000 
#
# Total GULP energy -267617.135201 kJ/mol
# GULP energy per Si atom -5575.356983 kJ/mol
# Density = 1.915569 g / cm^3
# Si number density = 19.199393 Si / 1000 Ang^3
#
#
#
# Elastic Constant Matrix: (Units=GPa)
#
#
# Indices 1 2 3 4 5 6 
#
# 1 46.2343 9.3198 15.9375 0.0000 0.0000 0.0000
# 2 9.3198 83.2088 27.9106 0.0000 0.0000 0.0000
# 3 15.9375 27.9106 87.4864 0.0000 0.0000 0.0000
# 4 0.0000 0.0000 0.0000 10.7892 0.0000 0.0000
# 5 0.0000 0.0000 0.0000 0.0000 15.6823 0.0000
# 6 0.0000 0.0000 0.0000 0.0000 0.0000 13.6821
#
#
#
# Elastic Compliance Matrix: (Units=1/GPa)
#
#
# Indices 1 2 3 4 5 6 
#
# 1 0.023207 -0.001323 -0.003806 0.000000 0.000000 0.000000
# 2 -0.001323 0.013534 -0.004077 0.000000 0.000000 0.000000
# 3 -0.003806 -0.004077 0.013424 0.000000 0.000000 0.000000
# 4 0.000000 0.000000 0.000000 0.092685 0.000000 0.000000
# 5 0.000000 0.000000 0.000000 0.000000 0.063766 0.000000
# 6 0.000000 0.000000 0.000000 0.000000 0.000000 0.073088
#
#
# Mechanical properties :
#
#
# Convention : Reuss Voigt Hill
#
# Bulk Modulus (GPa) = 31.49115 35.91837 33.70476
# Shear Modulus (GPa) = 16.19695 18.94816 17.57255
#
# Velocity S-wave (km/s) = 2.90766 3.14493 3.02862
# Velocity P-wave (km/s) = 5.26407 5.65120 5.46107
#
# Compressibility (1/GPa) = 0.03175496
#
# Stress axis : x y z
#
# Youngs Moduli (GPa) = 43.08957 73.89057 74.49241
#
# Poissons Ratio (x) = 0.09774 0.28350
# Poissons Ratio (y) = 0.05700 0.30368
# Poissons Ratio (z) = 0.16399 0.30122
#
# Static dielectric constant tensor:
#      x y z
#    x 1.738960 0.000000 0.000000 
#    y 0.000000 1.734930 0.000000 
#    z 0.000000 0.000000 1.732660 
# 
# From -- ./inp_files/34094.got.cif
#   From: 2010.05.17/outbox.cif.g08.bks.cpg/sg68_18_cif.got.tgz:34094.got - 2010.06.03 18:57:09.
