data_PCOD9505004
_publ_section_title
;
Structure prediction by ZEFSAII (Michael W. Deem and Ramdas Pophale) SiO2 
 PCOD9505004
Probable space group: C M M A
;
_chemical_formula_sum "Si O2"
_cell_formula_units_Z 56
_cell_length_a 16.483710
_cell_length_b 9.407578
_cell_length_c 16.763677
_cell_angle_alpha 90.000000
_cell_angle_beta 90.000000
_cell_angle_gamma 90.000000
_cell_volume 2599.573358
_symmetry_space_group_name_H-M "C M M A"
_symmetry_group_IT_number 67
_symmetry_cell_setting 'orthorhombic'
loop_
_space_group_symop_operation_xyz
x,y,z
-x,1/2-y,z
x,-y,-z
-x,1/2+y,-z
-x,-y,-z
x,1/2+y,-z
-x,y,z
x,1/2-y,z
1/2+x,1/2+y,z
1/2-x,-y,z
1/2+x,1/2-y,-z
1/2-x,y,-z
1/2-x,1/2-y,-z
1/2+x,y,-z
1/2-x,1/2+y,z
1/2+x,-y,z
loop_
_atom_site_type_symbol
_atom_site_label
_atom_site_fract_x
_atom_site_fract_y
_atom_site_fract_z
Si Si1 0.404180 0.250000 0.953916
Si Si2 0.000000 0.573333 0.413007
Si Si3 0.665616 0.085209 0.644372
Si Si4 0.594101 0.250000 0.131976
Si Si5 0.839451 0.466176 0.172232
O O1 0.500000 0.250000 0.961341
O O2 0.380830 0.118615 0.898534
O O3 0.367429 0.250000 0.042838
O O4 0.000000 0.500000 0.500000
O O5 0.084323 0.506714 0.376355
O O6 0.000000 0.750000 0.412360
O O7 0.663396 0.250000 0.612342
O O8 0.665651 0.100071 0.740645
O O9 0.750000 0.000000 0.623116
O O10 0.500000 0.250000 0.119283
O O11 0.616690 0.385877 0.181543
O O12 0.750000 0.500000 0.143756
#
# Coordination Sequence:
#
# PCOD9505004 Si02
#       5
#     8   8  16   8  16
#     4  11  23  41  59  89 127 178 227 290 356 414
#     4  12  28  50  80 114 149 188 231 277 347 424
#     4  11  25  45  73 109 147 189 241 294 352 419
#     4  11  25  39  59  89 129 174 233 292 352 420
#     4  11  24  39  63  92 128 174 231 285 350 410
#
# _framework density 21.541996999999999
#
# number of rings (size 3 to 8) (size 9 to 14) (size 15 to 20)
#    0.000    0.857    1.429    4.714   12.000    6.286 
#    0.000    2.857    0.000    0.000    0.000    0.000 
#    0.000    0.000    0.000    0.000    0.000    0.000 
#
# Total GULP energy -156132.263665 kJ/mol
# GULP energy per Si atom -5576.152274 kJ/mol
# Density = 2.149297 g / cm^3
# Si number density = 21.541997 Si / 1000 Ang^3
#
#
#
# Elastic Constant Matrix: (Units=GPa)
#
#
# Indices 1 2 3 4 5 6 
#
# 1 159.8056 68.6114 26.4734 0.0000 0.0000 0.0000
# 2 68.6114 197.6373 17.8932 0.0000 0.0000 0.0000
# 3 26.4734 17.8932 35.8363 0.0000 0.0000 0.0000
# 4 0.0000 0.0000 0.0000 30.1902 0.0000 0.0000
# 5 0.0000 0.0000 0.0000 0.0000 64.1652 0.0000
# 6 0.0000 0.0000 0.0000 0.0000 0.0000 25.4949
#
#
#
# Elastic Compliance Matrix: (Units=1/GPa)
#
#
# Indices 1 2 3 4 5 6 
#
# 1 0.008065 -0.002368 -0.004776 0.000000 0.000000 0.000000
# 2 -0.002368 0.005994 -0.001244 0.000000 0.000000 0.000000
# 3 -0.004776 -0.001244 0.032054 0.000000 0.000000 0.000000
# 4 0.000000 0.000000 0.000000 0.033123 0.000000 0.000000
# 5 0.000000 0.000000 0.000000 0.000000 0.015585 0.000000
# 6 0.000000 0.000000 0.000000 0.000000 0.000000 0.039224
#
#
# Mechanical properties :
#
#
# Convention : Reuss Voigt Hill
#
# Bulk Modulus (GPa) = 34.08488 68.80391 51.44440
# Shear Modulus (GPa) = 31.13332 42.65681 36.89507
#
# Velocity S-wave (km/s) = 3.80575 4.45474 4.14297
# Velocity P-wave (km/s) = 5.93031 7.64646 6.84240
#
# Compressibility (1/GPa) = 0.02933853
#
# Stress axis : x y z
#
# Youngs Moduli (GPa) = 123.98847 166.82496 31.19742
#
# Poissons Ratio (x) = 0.39496 0.14900
# Poissons Ratio (y) = 0.29355 0.03881
# Poissons Ratio (z) = 0.59216 0.20753
#
# Static dielectric constant tensor:
#      x y z
#    x 1.783090 0.000000 0.000000 
#    y 0.000000 1.917320 0.000000 
#    z 0.000000 0.000000 1.750010 
# 
# From -- ./inp_files/33942.got.cif
#   From: 2010.05.17/outbox.cif.g08.bks.cpg/sg67_17_cif.got.tgz:33942.got - 2010.06.03 18:28:57.
