data_PCOD9505492
_publ_section_title
;
Structure prediction by ZEFSAII (Michael W. Deem and Ramdas Pophale) SiO2 
 PCOD9505492
Probable space group: C C C A
;
_chemical_formula_sum "Si O2"
_cell_formula_units_Z 96
_cell_length_a 22.229475
_cell_length_b 19.052557
_cell_length_c 13.531383
_cell_angle_alpha 90.000000
_cell_angle_beta 90.000000
_cell_angle_gamma 90.000000
_cell_volume 5730.924173
_symmetry_space_group_name_H-M "C C C A"
_symmetry_group_IT_number 68
_space_group.IT_coordinate_system_code '2'
_symmetry_cell_setting 'orthorhombic'
loop_
_space_group_symop_operation_xyz
x,y,z
-x,1/2-y,z
x,1/2-y,1/2-z
-x,y,1/2-z
-x,-y,-z
x,1/2+y,-z
-x,1/2+y,1/2+z
x,-y,1/2+z
1/2+x,1/2+y,z
1/2-x,-y,z
1/2+x,-y,1/2-z
1/2-x,1/2+y,1/2-z
1/2-x,1/2-y,-z
1/2+x,y,-z
1/2-x,y,1/2+z
1/2+x,1/2-y,1/2+z
loop_
_atom_site_type_symbol
_atom_site_label
_atom_site_fract_x
_atom_site_fract_y
_atom_site_fract_z
Si Si1 0.324695 0.387475 0.902254
Si Si2 0.544203 0.100644 0.998057
Si Si3 0.834619 0.912612 0.673255
Si Si4 0.038909 0.016056 0.347028
Si Si5 0.000000 0.250000 0.035494
Si Si6 0.868203 0.238472 0.132535
Si Si7 0.750000 0.500000 0.469466
O O1 0.393060 0.402645 0.938273
O O2 0.312987 0.403626 0.786404
O O3 0.327801 0.302066 0.911289
O O4 0.281101 0.438136 0.965332
O O5 0.496512 0.063542 0.926050
O O6 0.518597 0.178335 0.019448
O O7 0.551982 0.056368 0.097181
O O8 0.901281 0.943338 0.681797
O O9 0.838478 0.837182 0.620152
O O10 0.797633 0.963981 0.603537
O O11 0.000000 0.004723 0.250000
O O12 0.937678 0.237223 0.095713
O O13 0.871723 0.250000 0.250000
#
# Coordination Sequence:
#
# PCOD9505492 Si02
#       7
#    16  16  16  16   8  16   8
#     4  10  21  37  55  83 109 145 187 230 268 333
#     4  10  20  33  55  86 113 139 179 220 288 329
#     4  11  21  37  56  83 110 151 182 231 278 320
#     4  11  20  34  56  84 114 142 175 232 284 335
#     4  10  17  30  55  84 112 140 172 232 282 338
#     4   9  19  32  55  81 112 138 182 227 286 320
#     4  12  24  38  56  76 116 150 196 220 266 324
#
# _framework density 16.751225000000002
#
# number of rings (size 3 to 8) (size 9 to 14) (size 15 to 20)
#    0.000    1.667    5.000    0.750    0.000    0.667 
#    0.000    0.417    0.000    0.000    0.000    0.000 
#    0.000    0.000    0.000    0.000    0.000    0.000 
#
# Total GULP energy -267262.748139 kJ/mol
# GULP energy per Si atom -5567.973920 kJ/mol
# Density = 1.671310 g / cm^3
# Si number density = 16.751225 Si / 1000 Ang^3
#
#
#
# Elastic Constant Matrix: (Units=GPa)
#
#
# Indices 1 2 3 4 5 6 
#
# 1 44.0144 19.7228 18.8161 0.0000 0.0000 0.0000
# 2 19.7228 111.8405 42.8947 0.0000 0.0000 0.0000
# 3 18.8161 42.8947 64.3391 0.0000 0.0000 0.0000
# 4 0.0000 0.0000 0.0000 27.4144 0.0000 0.0000
# 5 0.0000 0.0000 0.0000 0.0000 -395.5876 0.0000
# 6 0.0000 0.0000 0.0000 0.0000 0.0000 25.9151
#
#
#
# Elastic Compliance Matrix: (Units=1/GPa)
#
#
# Indices 1 2 3 4 5 6 
#
# 1 0.026390 -0.002276 -0.006201 0.000000 0.000000 0.000000
# 2 -0.002276 0.012209 -0.007474 0.000000 0.000000 0.000000
# 3 -0.006201 -0.007474 0.022339 0.000000 0.000000 0.000000
# 4 0.000000 0.000000 0.000000 0.036477 0.000000 0.000000
# 5 0.000000 0.000000 0.000000 0.000000 -0.002528 0.000000
# 6 0.000000 0.000000 0.000000 0.000000 0.000000 0.038588
#
#
# Mechanical properties :
#
#
# Convention : Reuss Voigt Hill
#
# Bulk Modulus (GPa) = 34.43845 42.56234 38.50040
# Shear Modulus (GPa) = 28.56223 -59.20093 -15.31935
#
# Velocity S-wave (km/s) = 4.13374 -5.95130 -3.02739
# Velocity P-wave (km/s) = 6.58690 4.66480 3.28838
#
# Compressibility (1/GPa) = 0.02903731
#
# Stress axis : x y z
#
# Youngs Moduli (GPa) = 37.89263 81.90484 44.76434
#
# Poissons Ratio (x) = 0.18639 0.27757
# Poissons Ratio (y) = 0.08623 0.33459
# Poissons Ratio (z) = 0.23496 0.61219
#
# Static dielectric constant tensor:
#      x y z
#    x 1.543800 0.000000 0.000000 
#    y 0.000000 1.605810 0.000000 
#    z 0.000000 0.000000 1.538890 
# 
# From -- ./inp_files/15616.got.cif
#   From: 2010.05.17/outbox.cif.g08.bks.cpg/sg68_8_cif.got.tgz:15616.got - 2010.06.03 18:57:09.
