data_PCOD9505477
_publ_section_title
;
Structure prediction by ZEFSAII (Michael W. Deem and Ramdas Pophale) SiO2 
 PCOD9505477
Probable space group: C C C A
;
_chemical_formula_sum "Si O2"
_cell_formula_units_Z 116
_cell_length_a 23.496170
_cell_length_b 9.094304
_cell_length_c 30.260597
_cell_angle_alpha 90.000000
_cell_angle_beta 90.000000
_cell_angle_gamma 90.000000
_cell_volume 6466.124094
_symmetry_space_group_name_H-M "C C C A"
_symmetry_group_IT_number 68
_space_group.IT_coordinate_system_code '2'
_symmetry_cell_setting 'orthorhombic'
loop_
_space_group_symop_operation_xyz
x,y,z
-x,1/2-y,z
x,1/2-y,1/2-z
-x,y,1/2-z
-x,-y,-z
x,1/2+y,-z
-x,1/2+y,1/2+z
x,-y,1/2+z
1/2+x,1/2+y,z
1/2-x,-y,z
1/2+x,-y,1/2-z
1/2-x,1/2+y,1/2-z
1/2-x,1/2-y,-z
1/2+x,y,-z
1/2-x,y,1/2+z
1/2+x,1/2-y,1/2+z
loop_
_atom_site_type_symbol
_atom_site_label
_atom_site_fract_x
_atom_site_fract_y
_atom_site_fract_z
Si Si1 0.377625 0.120190 0.442987
Si Si2 0.168930 0.918011 0.017346
Si Si3 0.557695 0.168588 0.910068
Si Si4 0.182457 0.715952 0.940815
Si Si5 0.010883 0.908266 0.390215
Si Si6 0.424945 0.635227 0.172358
Si Si7 0.810028 0.063400 0.132674
Si Si8 0.000000 0.750000 0.750000
O O1 0.356854 0.284390 0.454403
O O2 0.442569 0.116978 0.428048
O O3 0.371347 0.017068 0.485864
O O4 0.339579 0.045517 0.403917
O O5 0.195013 0.047570 0.047381
O O6 0.202846 0.827244 0.979269
O O7 0.500000 0.250000 0.925539
O O8 0.613172 0.217636 0.936567
O O9 0.568593 0.222653 0.859737
O O10 0.543260 0.996711 0.908751
O O11 0.202196 0.786497 0.894876
O O12 0.000000 0.750000 0.370292
O O13 0.040531 0.012263 0.354536
O O14 0.358383 0.592721 0.169463
O O15 0.457141 0.661229 0.217966
O O16 0.750000 0.000000 0.148101
#
# Coordination Sequence:
#
# PCOD9505477 Si02
#       8
#    16  16  16  16  16  16  16   4
#     4   9  18  30  45  65 102 140 180 228 267 303
#     4   9  16  30  41  64  98 133 180 236 268 296
#     4   9  15  29  42  64  94 135 169 210 247 307
#     4   9  17  28  44  60  95 133 177 224 264 297
#     4  10  17  29  46  72 102 138 172 217 259 308
#     4   9  19  31  56  82 107 130 163 209 247 319
#     4   9  18  35  53  75  98 138 180 209 254 310
#     4  12  16  36  62  96 108 124 170 194 268 316
#
# _framework density 17.939648999999999
#
# number of rings (size 3 to 8) (size 9 to 14) (size 15 to 20)
#    0.000    2.759    2.069    3.310    0.000    0.000 
#    0.000   25.862    0.000    0.000    7.172    0.000 
#    0.000    0.000    0.000    0.000    0.000    0.000 
#
# Total GULP energy -322900.520541 kJ/mol
# GULP energy per Si atom -5567.250354 kJ/mol
# Density = 1.789882 g / cm^3
# Si number density = 17.939649 Si / 1000 Ang^3
#
#
#
# Elastic Constant Matrix: (Units=GPa)
#
#
# Indices 1 2 3 4 5 6 
#
# 1 98.8994 16.9513 25.0915 0.0000 0.0000 0.0000
# 2 16.9513 122.0092 24.8659 0.0000 0.0000 0.0000
# 3 25.0915 24.8659 61.2952 0.0000 0.0000 0.0000
# 4 0.0000 0.0000 0.0000 6.9820 0.0000 0.0000
# 5 0.0000 0.0000 0.0000 0.0000 5.1724 0.0000
# 6 0.0000 0.0000 0.0000 0.0000 0.0000 7.4340
#
#
#
# Elastic Compliance Matrix: (Units=1/GPa)
#
#
# Indices 1 2 3 4 5 6 
#
# 1 0.011336 -0.000686 -0.004362 0.000000 0.000000 0.000000
# 2 -0.000686 0.008976 -0.003361 0.000000 0.000000 0.000000
# 3 -0.004362 -0.003361 0.019463 0.000000 0.000000 0.000000
# 4 0.000000 0.000000 0.000000 0.143225 0.000000 0.000000
# 5 0.000000 0.000000 0.000000 0.000000 0.193336 0.000000
# 6 0.000000 0.000000 0.000000 0.000000 0.000000 0.134517
#
#
# Mechanical properties :
#
#
# Convention : Reuss Voigt Hill
#
# Bulk Modulus (GPa) = 43.55758 46.22456 44.89107
# Shear Modulus (GPa) = 9.34017 18.27069 13.80543
#
# Velocity S-wave (km/s) = 2.28424 3.19478 2.77708
# Velocity P-wave (km/s) = 5.59373 6.27945 5.94648
#
# Compressibility (1/GPa) = 0.02295811
#
# Stress axis : x y z
#
# Youngs Moduli (GPa) = 88.21828 111.40432 51.37840
#
# Poissons Ratio (x) = 0.07641 0.22411
# Poissons Ratio (y) = 0.06051 0.17267
# Poissons Ratio (z) = 0.38481 0.37439
#
# Static dielectric constant tensor:
#      x y z
#    x 1.680660 0.000000 0.000000 
#    y 0.000000 1.670740 0.000000 
#    z 0.000000 0.000000 1.597690 
# 
# From -- ./inp_files/56067.got.cif
#   From: 2010.05.17/outbox.cif.g08.bks.cpg/sg68_29_cif.got.tgz:56067.got - 2010.06.03 18:57:09.
