data_PCOD9505488
_publ_section_title
;
Structure prediction by ZEFSAII (Michael W. Deem and Ramdas Pophale) SiO2 
 PCOD9505488
Probable space group: C C C A
;
_chemical_formula_sum "Si O2"
_cell_formula_units_Z 88
_cell_length_a 5.651523
_cell_length_b 19.389938
_cell_length_c 33.972133
_cell_angle_alpha 90.000000
_cell_angle_beta 90.000000
_cell_angle_gamma 90.000000
_cell_volume 3722.757399
_symmetry_space_group_name_H-M "C C C A"
_symmetry_group_IT_number 68
_space_group.IT_coordinate_system_code '2'
_symmetry_cell_setting 'orthorhombic'
loop_
_space_group_symop_operation_xyz
x,y,z
-x,1/2-y,z
x,1/2-y,1/2-z
-x,y,1/2-z
-x,-y,-z
x,1/2+y,-z
-x,1/2+y,1/2+z
x,-y,1/2+z
1/2+x,1/2+y,z
1/2-x,-y,z
1/2+x,-y,1/2-z
1/2-x,1/2+y,1/2-z
1/2-x,1/2-y,-z
1/2+x,y,-z
1/2-x,y,1/2+z
1/2+x,1/2-y,1/2+z
loop_
_atom_site_type_symbol
_atom_site_label
_atom_site_fract_x
_atom_site_fract_y
_atom_site_fract_z
Si Si1 0.831589 0.861686 0.514685
Si Si2 0.002370 0.618255 0.205099
Si Si3 0.000000 0.250000 0.852674
Si Si4 0.595203 0.930938 0.088990
Si Si5 0.999475 0.600760 0.679229
Si Si6 0.750000 0.500000 0.531016
Si Si7 0.000000 0.750000 0.847891
O O1 0.590984 0.831192 0.495683
O O2 0.786292 0.872670 0.561409
O O3 0.862368 0.940979 0.497079
O O4 0.005997 0.681650 0.174376
O O5 0.755423 0.579085 0.196007
O O6 0.000000 0.642392 0.250000
O O7 0.251722 0.579050 0.198493
O O8 0.257084 0.251687 0.872556
O O9 0.523016 0.913035 0.132825
O O10 0.372491 0.950292 0.062910
O O11 0.750000 0.000000 0.090272
O O12 0.997295 0.684125 0.680650
#
# Coordination Sequence:
#
# PCOD9505488 Si02
#       7
#    16  16   8  16  16   8   8
#     4  10  17  30  48  73 104 128 153 205 266 301
#     4  10  19  35  52  75 101 132 173 217 259 303
#     4   8  15  28  54  76  96 123 161 216 267 301
#     4  11  20  32  51  78 108 132 168 210 258 308
#     4  10  22  32  54  78 102 138 167 211 263 303
#     4  10  18  32  50  76 106 128 164 214 266 294
#     4   8  16  34  45  74 110 127 163 200 255 325
#
# _framework density 23.638390999999999
#
# number of rings (size 3 to 8) (size 9 to 14) (size 15 to 20)
#    0.000    2.182    2.727    1.909    2.545    0.000 
#    0.000    5.455    0.000    2.182    0.000    5.091 
#    0.000    0.000    0.000    0.000    0.000    0.000 
#
# Total GULP energy -244976.804473 kJ/mol
# GULP energy per Si atom -5567.654647 kJ/mol
# Density = 2.358459 g / cm^3
# Si number density = 23.638391 Si / 1000 Ang^3
#
#
#
# Elastic Constant Matrix: (Units=GPa)
#
#
# Indices 1 2 3 4 5 6 
#
# 1 218.8970 -6.6459 15.8815 0.0000 0.0000 0.0000
# 2 -6.6459 50.5011 -10.9105 0.0000 0.0000 0.0000
# 3 15.8815 -10.9105 87.1401 0.0000 0.0000 0.0000
# 4 0.0000 0.0000 0.0000 7.2403 0.0000 0.0000
# 5 0.0000 0.0000 0.0000 0.0000 18.8269 0.0000
# 6 0.0000 0.0000 0.0000 0.0000 0.0000 -10.7889
#
#
#
# Elastic Compliance Matrix: (Units=1/GPa)
#
#
# Indices 1 2 3 4 5 6 
#
# 1 0.004639 0.000440 -0.000790 0.000000 0.000000 0.000000
# 2 0.000440 0.020394 0.002473 0.000000 0.000000 0.000000
# 3 -0.000790 0.002473 0.011930 0.000000 0.000000 0.000000
# 4 0.000000 0.000000 0.000000 0.138115 0.000000 0.000000
# 5 0.000000 0.000000 0.000000 0.000000 0.053116 0.000000
# 6 0.000000 0.000000 0.000000 0.000000 0.000000 -0.092688
#
#
# Mechanical properties :
#
#
# Convention : Reuss Voigt Hill
#
# Bulk Modulus (GPa) = 24.26745 39.24317 31.75531
# Shear Modulus (GPa) = 34.48377 26.93654 30.71015
#
# Velocity S-wave (km/s) = 3.82357 3.37935 3.60830
# Velocity P-wave (km/s) = 5.45723 5.64483 5.55182
#
# Compressibility (1/GPa) = 0.04120746
#
# Stress axis : x y z
#
# Youngs Moduli (GPa) = 215.56109 49.03466 83.82580
#
# Poissons Ratio (x) = -0.02156 0.06626
# Poissons Ratio (y) = -0.09479 -0.20732
# Poissons Ratio (z) = 0.17038 -0.12128
#
# Static dielectric constant tensor:
#      x y z
#    x 1.963560 0.000000 0.000000 
#    y 0.000000 1.881620 0.000000 
#    z 0.000000 0.000000 1.819190 
# 
# From -- ./inp_files/53284.got.cif
#   From: 2010.05.17/outbox.cif.g08.bks.cpg/sg68_27_cif.got.tgz:53284.got - 2010.06.03 18:57:09.
