data_PCOD9505838
_publ_section_title
;
Structure prediction by ZEFSAII (Michael W. Deem and Ramdas Pophale) SiO2 
 PCOD9505838
Probable space group: C C C A
;
_chemical_formula_sum "Si O2"
_cell_formula_units_Z 112
_cell_length_a 15.145438
_cell_length_b 25.558040
_cell_length_c 13.783033
_cell_angle_alpha 90.000000
_cell_angle_beta 90.000000
_cell_angle_gamma 90.000000
_cell_volume 5335.242684
_symmetry_space_group_name_H-M "C C C A"
_symmetry_group_IT_number 68
_space_group.IT_coordinate_system_code '2'
_symmetry_cell_setting 'orthorhombic'
loop_
_space_group_symop_operation_xyz
x,y,z
-x,1/2-y,z
x,1/2-y,1/2-z
-x,y,1/2-z
-x,-y,-z
x,1/2+y,-z
-x,1/2+y,1/2+z
x,-y,1/2+z
1/2+x,1/2+y,z
1/2-x,-y,z
1/2+x,-y,1/2-z
1/2-x,1/2+y,1/2-z
1/2-x,1/2-y,-z
1/2+x,y,-z
1/2-x,y,1/2+z
1/2+x,1/2-y,1/2+z
loop_
_atom_site_type_symbol
_atom_site_label
_atom_site_fract_x
_atom_site_fract_y
_atom_site_fract_z
Si Si1 0.161929 0.970683 0.699227
Si Si2 0.347785 0.697854 0.201861
Si Si3 0.888986 0.636743 0.613344
Si Si4 0.256756 0.096567 0.873068
Si Si5 0.692711 0.630902 0.572576
Si Si6 0.099124 0.421185 0.745784
Si Si7 0.540316 0.697866 0.485319
O O1 0.120866 0.925459 0.632283
O O2 0.193371 0.941576 0.797977
O O3 0.250000 0.000000 0.659367
O O4 0.097806 0.017727 0.726413
O O5 0.309460 0.750000 0.250000
O O6 0.400302 0.665237 0.283360
O O7 0.278856 0.656253 0.158094
O O8 0.412986 0.714116 0.115786
O O9 0.790641 0.654335 0.581846
O O10 0.964847 0.655872 0.541875
O O11 0.153214 0.086176 0.854373
O O12 0.294940 0.091684 0.981129
O O13 0.661581 0.605105 0.672516
O O14 0.617328 0.671758 0.546513
O O15 0.000000 0.400103 0.750000
O O16 0.500000 0.750000 0.530274
#
# Coordination Sequence:
#
# PCOD9505838 Si02
#       7
#    16  16  16  16  16  16  16
#     4   9  18  42  63  90 124 169 215 268 325 392
#     4  10  18  37  64  91 120 164 216 275 328 374
#     4  11  21  39  68  89 131 172 214 272 330 387
#     4   9  21  41  63  92 128 171 218 267 330 399
#     4  11  24  43  64  95 136 175 219 271 332 409
#     4  11  23  43  66  93 134 175 218 272 336 396
#     4  11  24  38  62 100 130 163 224 279 331 394
#
# _framework density 20.992484000000001
#
# number of rings (size 3 to 8) (size 9 to 14) (size 15 to 20)
#    0.000    1.714    5.714    0.429    2.000    4.000 
#    7.714    1.429    0.000    0.000    0.000    0.000 
#    0.000    0.000    0.000    0.000    0.000    0.000 
#
# Total GULP energy -312487.007577 kJ/mol
# GULP energy per Si atom -5580.125135 kJ/mol
# Density = 2.094470 g / cm^3
# Si number density = 20.992484 Si / 1000 Ang^3
#
#
#
# Elastic Constant Matrix: (Units=GPa)
#
#
# Indices 1 2 3 4 5 6 
#
# 1 99.1329 5.8164 13.5971 0.0000 0.0000 0.0000
# 2 5.8164 71.0179 11.5197 0.0000 0.0000 0.0000
# 3 13.5971 11.5197 49.2893 0.0000 0.0000 0.0000
# 4 0.0000 0.0000 0.0000 11.2471 0.0000 0.0000
# 5 0.0000 0.0000 0.0000 0.0000 15.8735 0.0000
# 6 0.0000 0.0000 0.0000 0.0000 0.0000 25.8590
#
#
#
# Elastic Compliance Matrix: (Units=1/GPa)
#
#
# Indices 1 2 3 4 5 6 
#
# 1 0.010495 -0.000405 -0.002801 0.000000 0.000000 0.000000
# 2 -0.000405 0.014651 -0.003312 0.000000 0.000000 0.000000
# 3 -0.002801 -0.003312 0.021835 0.000000 0.000000 0.000000
# 4 0.000000 0.000000 0.000000 0.088912 0.000000 0.000000
# 5 0.000000 0.000000 0.000000 0.000000 0.062998 0.000000
# 6 0.000000 0.000000 0.000000 0.000000 0.000000 0.038671
#
#
# Mechanical properties :
#
#
# Convention : Reuss Voigt Hill
#
# Bulk Modulus (GPa) = 29.45917 31.25628 30.35772
# Shear Modulus (GPa) = 19.09017 23.16305 21.12661
#
# Velocity S-wave (km/s) = 3.01887 3.32535 3.17581
# Velocity P-wave (km/s) = 5.12007 5.44660 5.28586
#
# Compressibility (1/GPa) = 0.03394529
#
# Stress axis : x y z
#
# Youngs Moduli (GPa) = 95.28012 68.25254 45.79773
#
# Poissons Ratio (x) = 0.02766 0.12826
# Poissons Ratio (y) = 0.03862 0.15170
# Poissons Ratio (z) = 0.26684 0.22609
#
# Static dielectric constant tensor:
#      x y z
#    x 1.764450 0.000000 0.000000 
#    y 0.000000 1.763660 0.000000 
#    z 0.000000 0.000000 1.794470 
# 
# From -- ./inp_files/22585.got.cif
#   From: 2010.05.17/outbox.cif.g08.bks.cpg/sg68_12_cif.got.tgz:22585.got - 2010.06.03 18:57:09.
