data_PCOD9505730
_publ_section_title
;
Structure prediction by ZEFSAII (Michael W. Deem and Ramdas Pophale) SiO2 
 PCOD9505730
Probable space group: C C C A
;
_chemical_formula_sum "Si O2"
_cell_formula_units_Z 88
_cell_length_a 17.110660
_cell_length_b 16.227034
_cell_length_c 14.833368
_cell_angle_alpha 90.000000
_cell_angle_beta 90.000000
_cell_angle_gamma 90.000000
_cell_volume 4118.562672
_symmetry_space_group_name_H-M "C C C A"
_symmetry_group_IT_number 68
_space_group.IT_coordinate_system_code '2'
_symmetry_cell_setting 'orthorhombic'
loop_
_space_group_symop_operation_xyz
x,y,z
-x,1/2-y,z
x,1/2-y,1/2-z
-x,y,1/2-z
-x,-y,-z
x,1/2+y,-z
-x,1/2+y,1/2+z
x,-y,1/2+z
1/2+x,1/2+y,z
1/2-x,-y,z
1/2+x,-y,1/2-z
1/2-x,1/2+y,1/2-z
1/2-x,1/2-y,-z
1/2+x,y,-z
1/2-x,y,1/2+z
1/2+x,1/2-y,1/2+z
loop_
_atom_site_type_symbol
_atom_site_label
_atom_site_fract_x
_atom_site_fract_y
_atom_site_fract_z
Si Si1 0.118887 0.534461 0.557751
Si Si2 0.115235 0.848458 0.397343
Si Si3 0.277235 0.303333 0.587937
Si Si4 0.943617 0.976295 0.868582
Si Si5 0.420075 0.200027 0.606786
Si Si6 0.500000 0.112343 0.250000
O O1 0.140213 0.444425 0.594575
O O2 0.181278 0.608031 0.566696
O O3 0.099069 0.516249 0.453788
O O4 0.033113 0.547520 0.602784
O O5 0.194571 0.808015 0.362628
O O6 0.088422 0.819859 0.498017
O O7 0.044062 0.840125 0.328543
O O8 0.250000 0.250000 0.500000
O O9 0.346698 0.254321 0.633417
O O10 0.911937 0.887267 0.843649
O O11 0.940936 0.047291 0.795325
O O12 0.500000 0.250000 0.621434
#
# Coordination Sequence:
#
# PCOD9505730 Si02
#       6
#    16  16  16  16  16   8
#     4   9  16  32  58  82 113 146 214 252 275 346
#     4   9  20  34  56  89 113 159 202 247 309 356
#     4  10  19  31  57  88 119 147 193 257 308 343
#     4   9  18  32  57  88 106 159 202 246 286 351
#     4  10  18  33  59  91 114 148 208 255 292 349
#     4  10  20  36  58  82 122 154 210 236 304 382
#
# _framework density 21.366675999999998
#
# number of rings (size 3 to 8) (size 9 to 14) (size 15 to 20)
#    0.000    2.545    1.818    1.636    0.000    0.000 
#    0.000    0.909    0.000   30.545    4.727    0.000 
#    0.000    0.000    0.000    0.000    0.000    0.000 
#
# Total GULP energy -245124.421701 kJ/mol
# GULP energy per Si atom -5571.009584 kJ/mol
# Density = 2.131804 g / cm^3
# Si number density = 21.366676 Si / 1000 Ang^3
#
#
#
# Elastic Constant Matrix: (Units=GPa)
#
#
# Indices 1 2 3 4 5 6 
#
# 1 65.3629 11.1312 7.3766 0.0000 0.0000 0.0000
# 2 11.1312 45.6140 9.0369 0.0000 0.0000 0.0000
# 3 7.3766 9.0369 40.6481 0.0000 0.0000 0.0000
# 4 0.0000 0.0000 0.0000 10.1278 0.0000 0.0000
# 5 0.0000 0.0000 0.0000 0.0000 4.8306 0.0000
# 6 0.0000 0.0000 0.0000 0.0000 0.0000 34.0555
#
#
#
# Elastic Compliance Matrix: (Units=1/GPa)
#
#
# Indices 1 2 3 4 5 6 
#
# 1 0.016140 -0.003513 -0.002148 0.000000 0.000000 0.000000
# 2 -0.003513 0.023698 -0.004631 0.000000 0.000000 0.000000
# 3 -0.002148 -0.004631 0.026021 0.000000 0.000000 0.000000
# 4 0.000000 0.000000 0.000000 0.098738 0.000000 0.000000
# 5 0.000000 0.000000 0.000000 0.000000 0.207012 0.000000
# 6 0.000000 0.000000 0.000000 0.000000 0.000000 0.029364
#
#
# Mechanical properties :
#
#
# Convention : Reuss Voigt Hill
#
# Bulk Modulus (GPa) = 22.08752 22.96828 22.52790
# Shear Modulus (GPa) = 11.45088 18.07481 14.76284
#
# Velocity S-wave (km/s) = 2.31751 2.91165 2.63140
# Velocity P-wave (km/s) = 4.18580 4.69857 4.44958
#
# Compressibility (1/GPa) = 0.04527444
#
# Stress axis : x y z
#
# Youngs Moduli (GPa) = 61.95833 42.19791 38.43085
#
# Poissons Ratio (x) = 0.14824 0.08255
# Poissons Ratio (y) = 0.21766 0.17797
# Poissons Ratio (z) = 0.13308 0.19542
#
# Static dielectric constant tensor:
#      x y z
#    x 1.829730 0.000000 0.000000 
#    y 0.000000 1.862520 0.000000 
#    z 0.000000 0.000000 1.807750 
# 
# From -- ./inp_files/23593.got.cif
#   From: 2010.05.17/outbox.cif.g08.bks.cpg/sg68_12_cif.got.tgz:23593.got - 2010.06.03 18:57:09.
