data_PCOD9505721
_publ_section_title
;
Structure prediction by ZEFSAII (Michael W. Deem and Ramdas Pophale) SiO2 
 PCOD9505721
Probable space group: C C C A
;
_chemical_formula_sum "Si O2"
_cell_formula_units_Z 80
_cell_length_a 14.956291
_cell_length_b 8.291136
_cell_length_c 27.159616
_cell_angle_alpha 90.000000
_cell_angle_beta 90.000000
_cell_angle_gamma 90.000000
_cell_volume 3367.918479
_symmetry_space_group_name_H-M "C C C A"
_symmetry_group_IT_number 68
_space_group.IT_coordinate_system_code '2'
_symmetry_cell_setting 'orthorhombic'
loop_
_space_group_symop_operation_xyz
x,y,z
-x,1/2-y,z
x,1/2-y,1/2-z
-x,y,1/2-z
-x,-y,-z
x,1/2+y,-z
-x,1/2+y,1/2+z
x,-y,1/2+z
1/2+x,1/2+y,z
1/2-x,-y,z
1/2+x,-y,1/2-z
1/2-x,1/2+y,1/2-z
1/2-x,1/2-y,-z
1/2+x,y,-z
1/2-x,y,1/2+z
1/2+x,1/2-y,1/2+z
loop_
_atom_site_type_symbol
_atom_site_label
_atom_site_fract_x
_atom_site_fract_y
_atom_site_fract_z
Si Si1 0.852341 0.067476 0.637793
Si Si2 0.853162 0.944011 0.244397
Si Si3 0.645126 0.953669 0.851813
Si Si4 0.651586 0.567638 0.464845
Si Si5 0.420136 0.119300 0.553038
O O1 0.891450 0.011143 0.690738
O O2 0.858127 0.260992 0.639912
O O3 0.750000 0.000000 0.637399
O O4 0.889245 0.007670 0.585591
O O5 0.855629 0.750000 0.250000
O O6 0.888331 0.002013 0.297116
O O7 0.750000 0.000000 0.243122
O O8 0.750000 0.000000 0.855208
O O9 0.590497 0.043175 0.893735
O O10 0.750000 0.500000 0.471249
O O11 0.593223 0.516149 0.511726
O O12 0.661411 0.757089 0.456221
O O13 0.500000 0.250000 0.548330
#
# Coordination Sequence:
#
# PCOD9505721 Si02
#       5
#    16  16  16  16  16
#     4   9  17  31  54  87 116 146 192 249 299 345
#     4   8  15  27  49  82 116 145 184 239 295 342
#     4  10  18  33  57  85 119 156 195 242 293 355
#     4  11  22  39  61  84 113 153 201 248 292 351
#     4  12  25  40  58  87 122 158 196 243 301 355
#
# _framework density 23.753544999999999
#
# number of rings (size 3 to 8) (size 9 to 14) (size 15 to 20)
#    0.000    2.000    0.000    5.400    0.000    1.600 
#    0.000    0.000    0.000    2.400    0.000    4.200 
#    0.000    0.000    0.000    0.000    0.000    0.000 
#
# Total GULP energy -223320.892716 kJ/mol
# GULP energy per Si atom -5583.022318 kJ/mol
# Density = 2.369948 g / cm^3
# Si number density = 23.753545 Si / 1000 Ang^3
#
#
#
# Elastic Constant Matrix: (Units=GPa)
#
#
# Indices 1 2 3 4 5 6 
#
# 1 59.3321 -9.8493 10.0312 0.0000 0.0000 0.0000
# 2 -9.8493 70.3598 38.2705 0.0000 0.0000 0.0000
# 3 10.0312 38.2705 254.3205 0.0000 0.0000 0.0000
# 4 0.0000 0.0000 0.0000 40.6098 0.0000 0.0000
# 5 0.0000 0.0000 0.0000 0.0000 -26.0420 0.0000
# 6 0.0000 0.0000 0.0000 0.0000 0.0000 16.2304
#
#
#
# Elastic Compliance Matrix: (Units=1/GPa)
#
#
# Indices 1 2 3 4 5 6 
#
# 1 0.017563 0.003088 -0.001157 0.000000 0.000000 0.000000
# 2 0.003088 0.016023 -0.002533 0.000000 0.000000 0.000000
# 3 -0.001157 -0.002533 0.004359 0.000000 0.000000 0.000000
# 4 0.000000 0.000000 0.000000 0.024625 0.000000 0.000000
# 5 0.000000 0.000000 0.000000 0.000000 -0.038400 0.000000
# 6 0.000000 0.000000 0.000000 0.000000 0.000000 0.061613
#
#
# Mechanical properties :
#
#
# Convention : Reuss Voigt Hill
#
# Bulk Modulus (GPa) = 27.21863 51.21301 39.21582
# Shear Modulus (GPa) = 50.38642 29.19698 39.79170
#
# Velocity S-wave (km/s) = 4.61066 3.50975 4.09735
# Velocity P-wave (km/s) = 6.31094 6.16696 6.23936
#
# Compressibility (1/GPa) = 0.03673954
#
# Stress axis : x y z
#
# Youngs Moduli (GPa) = 56.93918 62.41161 229.41805
#
# Poissons Ratio (x) = -0.19273 0.26553
# Poissons Ratio (y) = -0.17583 0.58110
# Poissons Ratio (z) = 0.06590 0.15808
#
# Static dielectric constant tensor:
#      x y z
#    x 2.006890 0.000000 0.000000 
#    y 0.000000 1.906150 0.000000 
#    z 0.000000 0.000000 1.948210 
# 
# From -- ./inp_files/51278.got.cif
#   From: 2010.05.17/outbox.cif.g08.bks.cpg/sg68_26_cif.got.tgz:51278.got - 2010.06.03 18:57:09.
