data_PCOD9505326
_publ_section_title
;
Structure prediction by ZEFSAII (Michael W. Deem and Ramdas Pophale) SiO2 
 PCOD9505326
Probable space group: C C C A
;
_chemical_formula_sum "Si O2"
_cell_formula_units_Z 116
_cell_length_a 13.459825
_cell_length_b 14.799815
_cell_length_c 23.153278
_cell_angle_alpha 90.000000
_cell_angle_beta 90.000000
_cell_angle_gamma 90.000000
_cell_volume 4612.200584
_symmetry_space_group_name_H-M "C C C A"
_symmetry_group_IT_number 68
_space_group.IT_coordinate_system_code '2'
_symmetry_cell_setting 'orthorhombic'
loop_
_space_group_symop_operation_xyz
x,y,z
-x,1/2-y,z
x,1/2-y,1/2-z
-x,y,1/2-z
-x,-y,-z
x,1/2+y,-z
-x,1/2+y,1/2+z
x,-y,1/2+z
1/2+x,1/2+y,z
1/2-x,-y,z
1/2+x,-y,1/2-z
1/2-x,1/2+y,1/2-z
1/2-x,1/2-y,-z
1/2+x,y,-z
1/2-x,y,1/2+z
1/2+x,1/2-y,1/2+z
loop_
_atom_site_type_symbol
_atom_site_label
_atom_site_fract_x
_atom_site_fract_y
_atom_site_fract_z
Si Si1 0.632791 0.202342 0.333976
Si Si2 0.628715 0.712205 0.155256
Si Si3 0.631357 0.992203 0.538334
Si Si4 0.364770 0.395329 0.213350
Si Si5 0.130144 0.349122 0.961029
Si Si6 0.864039 0.076864 0.164564
Si Si7 0.630171 0.824076 0.469359
Si Si8 0.000000 0.750000 0.750000
O O1 0.753543 0.204553 0.338492
O O2 0.619425 0.136792 0.279189
O O3 0.598939 0.305432 0.320967
O O4 0.596571 0.169111 0.396129
O O5 0.604344 0.819442 0.155164
O O6 0.594756 0.664817 0.096315
O O7 0.573568 0.685444 0.213635
O O8 0.603161 0.891132 0.521203
O O9 0.750000 0.000000 0.534376
O O10 0.597732 0.055031 0.485561
O O11 0.616242 0.031237 0.601679
O O12 0.250267 0.407308 0.188890
O O13 0.406487 0.495690 0.203768
O O14 0.250612 0.337568 0.961894
O O15 0.102939 0.274774 0.008553
#
# Coordination Sequence:
#
# PCOD9505326 Si02
#       8
#    16  16  16  16  16  16  16   4
#     4   9  17  30  44  73 107 136 159 199 248 310
#     4  10  20  35  50  68  96 130 183 219 250 286
#     4  10  16  25  43  73 101 135 162 180 241 316
#     4   9  16  25  42  64 102 135 160 188 237 313
#     4   9  16  26  42  69 104 133 160 190 242 314
#     4  10  16  28  46  69  97 135 171 200 243 313
#     4   9  17  28  46  70 100 128 159 208 246 305
#     4  12  24  40  56  64  84 146 192 230 252 282
#
# _framework density 25.150683999999998
#
# number of rings (size 3 to 8) (size 9 to 14) (size 15 to 20)
#    0.000    2.483    2.759    2.483    3.862    0.000 
#   14.897    0.000    0.000    0.828    0.000    0.000 
#    0.000    2.207    0.000    0.000    0.000    0.000 
#
# Total GULP energy -323632.760709 kJ/mol
# GULP energy per Si atom -5579.875185 kJ/mol
# Density = 2.509344 g / cm^3
# Si number density = 25.150684 Si / 1000 Ang^3
#
#
#
# Elastic Constant Matrix: (Units=GPa)
#
#
# Indices 1 2 3 4 5 6 
#
# 1 67.1595 -28.3201 3.6705 0.0000 0.0000 0.0000
# 2 -28.3201 117.0850 41.0519 0.0000 0.0000 0.0000
# 3 3.6705 41.0519 168.9907 0.0000 0.0000 0.0000
# 4 0.0000 0.0000 0.0000 34.5728 0.0000 0.0000
# 5 0.0000 0.0000 0.0000 0.0000 20.0674 0.0000
# 6 0.0000 0.0000 0.0000 0.0000 0.0000 11.4543
#
#
#
# Elastic Compliance Matrix: (Units=1/GPa)
#
#
# Indices 1 2 3 4 5 6 
#
# 1 0.016917 0.004614 -0.001488 0.000000 0.000000 0.000000
# 2 0.004614 0.010594 -0.002674 0.000000 0.000000 0.000000
# 3 -0.001488 -0.002674 0.006599 0.000000 0.000000 0.000000
# 4 0.000000 0.000000 0.000000 0.028924 0.000000 0.000000
# 5 0.000000 0.000000 0.000000 0.000000 0.049832 0.000000
# 6 0.000000 0.000000 0.000000 0.000000 0.000000 0.087304
#
#
# Mechanical properties :
#
#
# Convention : Reuss Voigt Hill
#
# Bulk Modulus (GPa) = 28.56051 42.89331 35.72691
# Shear Modulus (GPa) = 23.70358 35.67442 29.68900
#
# Velocity S-wave (km/s) = 3.07329 3.77029 3.43949
# Velocity P-wave (km/s) = 4.89631 6.00375 5.47809
#
# Compressibility (1/GPa) = 0.03501338
#
# Stress axis : x y z
#
# Youngs Moduli (GPa) = 59.11314 94.39142 151.53043
#
# Poissons Ratio (x) = -0.43548 0.22550
# Poissons Ratio (y) = -0.27272 0.40516
# Poissons Ratio (z) = 0.08797 0.25238
#
# Static dielectric constant tensor:
#      x y z
#    x 2.140430 0.000000 0.000000 
#    y 0.000000 1.940760 0.000000 
#    z 0.000000 0.000000 2.040520 
# 
# From -- ./inp_files/46136.got.cif
#   From: 2010.05.17/outbox.cif.g08.bks.cpg/sg68_24_cif.got.tgz:46136.got - 2010.06.03 18:57:09.
