data_PCOD9505089
_publ_section_title
;
Structure prediction by ZEFSAII (Michael W. Deem and Ramdas Pophale) SiO2 
 PCOD9505089
Probable space group: C M M A
;
_chemical_formula_sum "Si O2"
_cell_formula_units_Z 88
_cell_length_a 31.447117
_cell_length_b 9.012297
_cell_length_c 18.131610
_cell_angle_alpha 90.000000
_cell_angle_beta 90.000000
_cell_angle_gamma 90.000000
_cell_volume 5138.693337
_symmetry_space_group_name_H-M "C M M A"
_symmetry_group_IT_number 67
_symmetry_cell_setting 'orthorhombic'
loop_
_space_group_symop_operation_xyz
x,y,z
-x,1/2-y,z
x,-y,-z
-x,1/2+y,-z
-x,-y,-z
x,1/2+y,-z
-x,y,z
x,1/2-y,z
1/2+x,1/2+y,z
1/2-x,-y,z
1/2+x,1/2-y,-z
1/2-x,y,-z
1/2-x,1/2-y,-z
1/2+x,y,-z
1/2-x,1/2+y,z
1/2+x,-y,z
loop_
_atom_site_type_symbol
_atom_site_label
_atom_site_fract_x
_atom_site_fract_y
_atom_site_fract_z
Si Si1 0.882441 0.573818 0.697810
Si Si2 0.500000 0.575612 0.920794
Si Si3 0.451664 0.070277 0.580662
Si Si4 0.582615 0.575843 0.137417
Si Si5 0.705623 0.930116 0.238720
Si Si6 0.174040 0.927732 0.923982
O O1 0.878213 0.750000 0.683518
O O2 0.914413 0.515999 0.635363
O O3 0.904424 0.559307 0.777453
O O4 0.834364 0.518224 0.711320
O O5 0.500000 0.750000 0.928887
O O6 0.542186 0.521095 0.880302
O O7 0.500000 0.500000 0.000000
O O8 0.500000 0.034597 0.606867
O O9 0.449460 0.250000 0.575772
O O10 0.446588 0.000000 0.500000
O O11 0.573166 0.750000 0.124070
O O12 0.624185 0.536121 0.089535
O O13 0.706912 0.750000 0.240804
O O14 0.696622 0.972100 0.152802
O O15 0.750000 0.000000 0.262051
O O16 0.177561 0.750000 0.929820
O O17 0.189256 0.000000 0.000000
#
# Coordination Sequence:
#
# PCOD9505089 Si02
#       6
#    16   8  16  16  16  16
#     4   8  16  32  54  75  97 129 167 200 236 293
#     4  12  24  34  44  64  93 126 163 206 249 290
#     4   9  17  30  51  79 106 134 163 193 235 287
#     4   9  18  33  51  68  88 122 165 206 244 289
#     4   9  18  33  50  71  96 123 162 206 246 290
#     4   9  18  31  47  67  91 120 157 203 249 292
#
# _framework density 17.124976
#
# number of rings (size 3 to 8) (size 9 to 14) (size 15 to 20)
#    0.000    2.909    0.000    3.545    1.273    3.273 
#    0.000    6.364    0.000    0.545    0.000    3.818 
#    0.000    0.000    0.000    0.000    0.000    0.000 
#
# Total GULP energy -245136.907530 kJ/mol
# GULP energy per Si atom -5571.293353 kJ/mol
# Density = 1.708600 g / cm^3
# Si number density = 17.124976 Si / 1000 Ang^3
#
#
#
# Elastic Constant Matrix: (Units=GPa)
#
#
# Indices 1 2 3 4 5 6 
#
# 1 139.9605 38.7287 52.9435 0.0000 0.0000 0.0000
# 2 38.7287 22.8138 10.3413 0.0000 0.0000 0.0000
# 3 52.9435 10.3413 65.6063 0.0000 0.0000 0.0000
# 4 0.0000 0.0000 0.0000 20.8379 0.0000 0.0000
# 5 0.0000 0.0000 0.0000 0.0000 10.1140 0.0000
# 6 0.0000 0.0000 0.0000 0.0000 0.0000 22.1087
#
#
#
# Elastic Compliance Matrix: (Units=1/GPa)
#
#
# Indices 1 2 3 4 5 6 
#
# 1 0.018637 -0.026730 -0.010826 0.000000 0.000000 0.000000
# 2 -0.026730 0.085545 0.008087 0.000000 0.000000 0.000000
# 3 -0.010826 0.008087 0.022704 0.000000 0.000000 0.000000
# 4 0.000000 0.000000 0.000000 0.047990 0.000000 0.000000
# 5 0.000000 0.000000 0.000000 0.000000 0.098873 0.000000
# 6 0.000000 0.000000 0.000000 0.000000 0.000000 0.045231
#
#
# Mechanical properties :
#
#
# Convention : Reuss Voigt Hill
#
# Bulk Modulus (GPa) = 14.71746 48.04528 31.38137
# Shear Modulus (GPa) = 12.48229 19.03657 15.75943
#
# Velocity S-wave (km/s) = 2.70273 3.33772 3.03687
# Velocity P-wave (km/s) = 4.28398 6.55518 5.53728
#
# Compressibility (1/GPa) = 0.06794651
#
# Stress axis : x y z
#
# Youngs Moduli (GPa) = 53.65752 11.68980 44.04440
#
# Poissons Ratio (x) = 0.31247 0.47683
# Poissons Ratio (y) = 1.43428 -0.35618
# Poissons Ratio (z) = 0.58091 -0.09453
#
# Static dielectric constant tensor:
#      x y z
#    x 1.601400 0.000000 0.000000 
#    y 0.000000 1.572960 0.000000 
#    z 0.000000 0.000000 1.540020 
# 
# From -- ./inp_files/32376.got.cif
#   From: 2010.05.17/outbox.cif.g08.bks.cpg/sg67_17_cif.got.tgz:32376.got - 2010.06.03 18:28:57.
