data_PCOD9505946
_publ_section_title
;
Structure prediction by ZEFSAII (Michael W. Deem and Ramdas Pophale) SiO2 
 PCOD9505946
Probable space group: C C C A
;
_chemical_formula_sum "Si O2"
_cell_formula_units_Z 88
_cell_length_a 29.276841
_cell_length_b 22.252696
_cell_length_c 5.646977
_cell_angle_alpha 90.000000
_cell_angle_beta 90.000000
_cell_angle_gamma 90.000000
_cell_volume 3678.941381
_symmetry_space_group_name_H-M "C C C A"
_symmetry_group_IT_number 68
_space_group.IT_coordinate_system_code '2'
_symmetry_cell_setting 'orthorhombic'
loop_
_space_group_symop_operation_xyz
x,y,z
-x,1/2-y,z
x,1/2-y,1/2-z
-x,y,1/2-z
-x,-y,-z
x,1/2+y,-z
-x,1/2+y,1/2+z
x,-y,1/2+z
1/2+x,1/2+y,z
1/2-x,-y,z
1/2+x,-y,1/2-z
1/2-x,1/2+y,1/2-z
1/2-x,1/2-y,-z
1/2+x,y,-z
1/2-x,y,1/2+z
1/2+x,1/2-y,1/2+z
loop_
_atom_site_type_symbol
_atom_site_label
_atom_site_fract_x
_atom_site_fract_y
_atom_site_fract_z
Si Si1 0.267344 0.817480 0.958813
Si Si2 0.587797 0.936301 0.966419
Si Si3 0.455235 0.350176 0.857162
Si Si4 0.500000 0.064592 0.250000
Si Si5 0.173588 0.019097 0.024394
Si Si6 0.865504 0.645436 0.429998
O O1 0.255681 0.845434 0.220333
O O2 0.250000 0.750000 0.000000
O O3 0.321103 0.814517 0.902401
O O4 0.543463 0.969288 0.854099
O O5 0.613098 0.887797 0.797486
O O6 0.566001 0.896560 0.170608
O O7 0.626061 0.983988 0.024205
O O8 0.500000 0.317907 0.750000
O O9 0.476871 0.390794 0.062398
O O10 0.408776 0.320390 0.954315
O O11 0.158090 0.087911 0.062567
O O12 0.195863 0.008972 0.762455
#
# Coordination Sequence:
#
# PCOD9505946 Si02
#       6
#    16  16  16   8  16  16
#     4  10  24  45  70  98 120 139 197 269 333 399
#     4   9  17  30  48  78 118 173 214 250 293 347
#     4   9  16  30  49  81 124 168 217 250 296 353
#     4   8  16  28  44  70 120 173 220 261 272 332
#     4  10  19  31  48  78 114 167 211 241 288 359
#     4  10  20  34  59  84 121 165 200 262 319 357
#
# _framework density 23.919927000000001
#
# number of rings (size 3 to 8) (size 9 to 14) (size 15 to 20)
#    0.000    2.545    1.818    0.000    2.545    0.000 
#    1.636    3.636    0.000   13.091    0.000    2.545 
#    0.000    0.000    0.000    0.000    0.000    0.000 
#
# Total GULP energy -245091.718108 kJ/mol
# GULP energy per Si atom -5570.266321 kJ/mol
# Density = 2.386548 g / cm^3
# Si number density = 23.919927 Si / 1000 Ang^3
#
#
#
# Elastic Constant Matrix: (Units=GPa)
#
#
# Indices 1 2 3 4 5 6 
#
# 1 192.7397 35.2254 49.4226 0.0000 0.0000 0.0000
# 2 35.2254 48.0658 3.7280 0.0000 0.0000 0.0000
# 3 49.4226 3.7280 138.6457 0.0000 0.0000 0.0000
# 4 0.0000 0.0000 0.0000 0.0301 0.0000 0.0000
# 5 0.0000 0.0000 0.0000 0.0000 3.5387 0.0000
# 6 0.0000 0.0000 0.0000 0.0000 0.0000 27.5904
#
#
#
# Elastic Compliance Matrix: (Units=1/GPa)
#
#
# Indices 1 2 3 4 5 6 
#
# 1 0.006615 -0.004675 -0.002232 0.000000 0.000000 0.000000
# 2 -0.004675 0.024152 0.001017 0.000000 0.000000 0.000000
# 3 -0.002232 0.001017 0.007981 0.000000 0.000000 0.000000
# 4 0.000000 0.000000 0.000000 33.241139 0.000000 0.000000
# 5 0.000000 0.000000 0.000000 0.000000 0.282592 0.000000
# 6 0.000000 0.000000 0.000000 0.000000 0.000000 0.036244
#
#
# Mechanical properties :
#
#
# Convention : Reuss Voigt Hill
#
# Bulk Modulus (GPa) = 37.08138 61.80037 49.44088
# Shear Modulus (GPa) = 0.14872 25.63685 12.89279
#
# Velocity S-wave (km/s) = 0.24962 3.27735 2.32415
# Velocity P-wave (km/s) = 3.95209 6.34144 5.28360
#
# Compressibility (1/GPa) = 0.02696771
#
# Stress axis : x y z
#
# Youngs Moduli (GPa) = 151.16802 41.40460 125.29676
#
# Poissons Ratio (x) = 0.19356 0.27971
# Poissons Ratio (y) = 0.70668 -0.12743
# Poissons Ratio (z) = 0.33747 -0.04211
#
# Static dielectric constant tensor:
#      x y z
#    x 1.858910 0.000000 0.000000 
#    y 0.000000 1.979970 0.000000 
#    z 0.000000 0.000000 2.587160 
# 
# From -- ./inp_files/2788.got.cif
#   From: 2010.05.17/outbox.cif.g08.bks.cpg/sg68_2_cif.got.tgz:2788.got - 2010.06.03 18:57:09.
