data_PCOD9505736
_publ_section_title
;
Structure prediction by ZEFSAII (Michael W. Deem and Ramdas Pophale) SiO2 
 PCOD9505736
Probable space group: C C C A
;
_chemical_formula_sum "Si O2"
_cell_formula_units_Z 48
_cell_length_a 14.301411
_cell_length_b 7.812536
_cell_length_c 17.398265
_cell_angle_alpha 90.000000
_cell_angle_beta 90.000000
_cell_angle_gamma 90.000000
_cell_volume 1943.913164
_symmetry_space_group_name_H-M "C C C A"
_symmetry_group_IT_number 68
_space_group.IT_coordinate_system_code '2'
_symmetry_cell_setting 'orthorhombic'
loop_
_space_group_symop_operation_xyz
x,y,z
-x,1/2-y,z
x,1/2-y,1/2-z
-x,y,1/2-z
-x,-y,-z
x,1/2+y,-z
-x,1/2+y,1/2+z
x,-y,1/2+z
1/2+x,1/2+y,z
1/2-x,-y,z
1/2+x,-y,1/2-z
1/2-x,1/2+y,1/2-z
1/2-x,1/2-y,-z
1/2+x,y,-z
1/2-x,y,1/2+z
1/2+x,1/2-y,1/2+z
loop_
_atom_site_type_symbol
_atom_site_label
_atom_site_fract_x
_atom_site_fract_y
_atom_site_fract_z
Si Si1 0.874115 0.315462 0.836016
Si Si2 0.211864 0.308241 0.416191
Si Si3 0.527091 0.508173 0.088739
O O1 0.888268 0.250000 0.750000
O O2 0.764806 0.313361 0.856311
O O3 0.915725 0.164102 0.889573
O O4 0.935132 0.480823 0.858337
O O5 0.250000 0.500000 0.403985
O O6 0.250000 0.250000 0.500000
O O7 0.100633 0.335030 0.406099
O O8 0.500000 0.500000 0.000000
#
# Coordination Sequence:
#
# PCOD9505736 Si02
#       3
#    16  16  16
#     4  10  21  38  62  90 137 182 228 296 365 413
#     4  10  20  36  60  95 127 170 230 280 342 427
#     4  10  18  33  62  89 125 172 227 279 340 424
#
# _framework density 24.692461000000002
#
# number of rings (size 3 to 8) (size 9 to 14) (size 15 to 20)
#    0.000    2.000    3.333    2.000    0.000    0.000 
#    0.000    5.000    7.333    0.000    0.000    0.000 
#    0.000    0.000    0.000    0.000    0.000    0.000 
#
# Total GULP energy -133983.180930 kJ/mol
# GULP energy per Si atom -5582.632539 kJ/mol
# Density = 2.463626 g / cm^3
# Si number density = 24.692461 Si / 1000 Ang^3
#
#
#
# Elastic Constant Matrix: (Units=GPa)
#
#
# Indices 1 2 3 4 5 6 
#
# 1 245.7387 68.3846 80.0477 0.0000 0.0000 0.0000
# 2 68.3846 135.8507 41.9160 0.0000 0.0000 0.0000
# 3 80.0477 41.9160 170.2773 0.0000 0.0000 0.0000
# 4 0.0000 0.0000 0.0000 34.2267 0.0000 0.0000
# 5 0.0000 0.0000 0.0000 0.0000 29.2828 0.0000
# 6 0.0000 0.0000 0.0000 0.0000 0.0000 50.3390
#
#
#
# Elastic Compliance Matrix: (Units=1/GPa)
#
#
# Indices 1 2 3 4 5 6 
#
# 1 0.005285 -0.002049 -0.001980 0.000000 0.000000 0.000000
# 2 -0.002049 0.008761 -0.001193 0.000000 0.000000 0.000000
# 3 -0.001980 -0.001193 0.007097 0.000000 0.000000 0.000000
# 4 0.000000 0.000000 0.000000 0.029217 0.000000 0.000000
# 5 0.000000 0.000000 0.000000 0.000000 0.034150 0.000000
# 6 0.000000 0.000000 0.000000 0.000000 0.000000 0.019865
#
#
# Mechanical properties :
#
#
# Convention : Reuss Voigt Hill
#
# Bulk Modulus (GPa) = 93.47626 103.61816 98.54721
# Shear Modulus (GPa) = 42.23506 46.87094 44.55300
#
# Velocity S-wave (km/s) = 4.14024 4.36155 4.25233
# Velocity P-wave (km/s) = 7.79704 8.21089 8.00664
#
# Compressibility (1/GPa) = 0.01069790
#
# Stress axis : x y z
#
# Youngs Moduli (GPa) = 189.23082 114.14559 140.90037
#
# Poissons Ratio (x) = 0.23392 0.27896
# Poissons Ratio (y) = 0.38779 0.16812
# Poissons Ratio (z) = 0.37464 0.13620
#
# Static dielectric constant tensor:
#      x y z
#    x 2.215260 0.000000 0.000000 
#    y 0.000000 1.775790 0.000000 
#    z 0.000000 0.000000 1.914010 
# 
# From -- ./inp_files/30225.got.cif
#   From: 2010.05.17/outbox.cif.g08.bks.cpg/sg68_16_cif.got.tgz:30225.got - 2010.06.03 18:57:09.
