data_PCOD9505672
_publ_section_title
;
Structure prediction by ZEFSAII (Michael W. Deem and Ramdas Pophale) SiO2 
 PCOD9505672
Probable space group: C C C A
;
_chemical_formula_sum "Si O2"
_cell_formula_units_Z 104
_cell_length_a 9.095235
_cell_length_b 21.130162
_cell_length_c 23.193770
_cell_angle_alpha 90.000000
_cell_angle_beta 90.000000
_cell_angle_gamma 90.000000
_cell_volume 4457.466599
_symmetry_space_group_name_H-M "C C C A"
_symmetry_group_IT_number 68
_space_group.IT_coordinate_system_code '2'
_symmetry_cell_setting 'orthorhombic'
loop_
_space_group_symop_operation_xyz
x,y,z
-x,1/2-y,z
x,1/2-y,1/2-z
-x,y,1/2-z
-x,-y,-z
x,1/2+y,-z
-x,1/2+y,1/2+z
x,-y,1/2+z
1/2+x,1/2+y,z
1/2-x,-y,z
1/2+x,-y,1/2-z
1/2-x,1/2+y,1/2-z
1/2-x,1/2-y,-z
1/2+x,y,-z
1/2-x,y,1/2+z
1/2+x,1/2-y,1/2+z
loop_
_atom_site_type_symbol
_atom_site_label
_atom_site_fract_x
_atom_site_fract_y
_atom_site_fract_z
Si Si1 0.577884 0.355432 0.966005
Si Si2 0.844929 0.554743 0.479381
Si Si3 0.276585 0.305948 0.812102
Si Si4 0.136367 0.419410 0.639186
Si Si5 0.072708 0.687739 0.409930
Si Si6 0.405331 0.331858 0.662661
Si Si7 0.500000 0.621840 0.750000
O O1 0.736264 0.387661 0.966629
O O2 0.557608 0.321965 0.905212
O O3 0.470003 0.414253 0.981725
O O4 0.579983 0.311032 0.021726
O O5 0.750000 0.500000 0.509222
O O6 0.881112 0.531184 0.413727
O O7 0.224312 0.320968 0.877390
O O8 0.318249 0.230160 0.812336
O O9 0.436886 0.338141 0.806033
O O10 0.137804 0.334101 0.774285
O O11 0.296399 0.392238 0.658131
O O12 0.055144 0.424736 0.699737
O O13 0.039614 0.364895 0.609569
O O14 0.000000 0.750000 0.385225
#
# Coordination Sequence:
#
# PCOD9505672 Si02
#       7
#    16  16  16  16  16  16   8
#     4  10  21  33  55  86 119 150 189 228 284 354
#     4  10  20  38  59  83 113 150 192 244 298 349
#     4  10  21  33  52  75 112 155 194 233 274 331
#     4   9  20  36  54  80 107 144 194 245 285 338
#     4  10  18  32  51  80 116 161 186 214 267 346
#     4  10  20  34  47  83 115 142 191 234 273 332
#     4  10  22  39  58  72 106 154 200 240 289 352
#
# _framework density 23.33164
#
# number of rings (size 3 to 8) (size 9 to 14) (size 15 to 20)
#    0.000    2.154    1.538    1.385    2.154    2.462 
#    0.000    1.538    0.000    3.692    0.000    2.154 
#    0.000    0.000    0.000    0.000    0.000    0.000 
#
# Total GULP energy -289498.774343 kJ/mol
# GULP energy per Si atom -5567.284122 kJ/mol
# Density = 2.327854 g / cm^3
# Si number density = 23.331640 Si / 1000 Ang^3
#
#
#
# Elastic Constant Matrix: (Units=GPa)
#
#
# Indices 1 2 3 4 5 6 
#
# 1 140.4018 9.7985 34.9372 0.0000 0.0000 0.0000
# 2 9.7985 18.1932 5.5915 0.0000 0.0000 0.0000
# 3 34.9372 5.5915 116.2448 0.0000 0.0000 0.0000
# 4 0.0000 0.0000 0.0000 22.3635 0.0000 0.0000
# 5 0.0000 0.0000 0.0000 0.0000 43.7064 0.0000
# 6 0.0000 0.0000 0.0000 0.0000 0.0000 33.7757
#
#
#
# Elastic Compliance Matrix: (Units=1/GPa)
#
#
# Indices 1 2 3 4 5 6 
#
# 1 0.007922 -0.003588 -0.002208 0.000000 0.000000 0.000000
# 2 -0.003588 0.057415 -0.001683 0.000000 0.000000 0.000000
# 3 -0.002208 -0.001683 0.009347 0.000000 0.000000 0.000000
# 4 0.000000 0.000000 0.000000 0.044716 0.000000 0.000000
# 5 0.000000 0.000000 0.000000 0.000000 0.022880 0.000000
# 6 0.000000 0.000000 0.000000 0.000000 0.000000 0.029607
#
#
# Mechanical properties :
#
#
# Convention : Reuss Voigt Hill
#
# Bulk Modulus (GPa) = 16.74333 41.72158 29.23246
# Shear Modulus (GPa) = 24.18309 34.93663 29.55986
#
# Velocity S-wave (km/s) = 3.22295 3.87381 3.56328
# Velocity P-wave (km/s) = 4.58713 6.15868 5.43006
#
# Compressibility (1/GPa) = 0.05972526
#
# Stress axis : x y z
#
# Youngs Moduli (GPa) = 126.22474 17.41691 106.98322
#
# Poissons Ratio (x) = 0.06249 0.23627
# Poissons Ratio (y) = 0.45291 0.18009
# Poissons Ratio (z) = 0.27876 0.02932
#
# Static dielectric constant tensor:
#      x y z
#    x 1.867920 0.000000 0.000000 
#    y 0.000000 1.841720 0.000000 
#    z 0.000000 0.000000 2.054100 
# 
# From -- ./inp_files/49695.got.cif
#   From: 2010.05.17/outbox.cif.g08.bks.cpg/sg68_25_cif.got.tgz:49695.got - 2010.06.03 18:57:09.
