data_PCOD9505121
_publ_section_title
;
Structure prediction by ZEFSAII (Michael W. Deem and Ramdas Pophale) SiO2 
 PCOD9505121
Probable space group: C M M A
;
_chemical_formula_sum "Si O2"
_cell_formula_units_Z 64
_cell_length_a 14.229965
_cell_length_b 23.009614
_cell_length_c 7.300543
_cell_angle_alpha 90.000000
_cell_angle_beta 90.000000
_cell_angle_gamma 90.000000
_cell_volume 2390.387606
_symmetry_space_group_name_H-M "C M M A"
_symmetry_group_IT_number 67
_symmetry_cell_setting 'orthorhombic'
loop_
_space_group_symop_operation_xyz
x,y,z
-x,1/2-y,z
x,-y,-z
-x,1/2+y,-z
-x,-y,-z
x,1/2+y,-z
-x,y,z
x,1/2-y,z
1/2+x,1/2+y,z
1/2-x,-y,z
1/2+x,1/2-y,-z
1/2-x,y,-z
1/2-x,1/2-y,-z
1/2+x,y,-z
1/2-x,1/2+y,z
1/2+x,-y,z
loop_
_atom_site_type_symbol
_atom_site_label
_atom_site_fract_x
_atom_site_fract_y
_atom_site_fract_z
Si Si1 0.609372 0.064294 0.023953
Si Si2 0.612401 0.812243 0.985306
Si Si3 0.861084 0.564295 0.453546
Si Si4 0.639693 0.312032 0.455572
O O1 0.500000 0.061162 0.965692
O O2 0.649264 0.125053 0.944538
O O3 0.617571 0.070702 0.240580
O O4 0.650478 0.000000 0.000000
O O5 0.500000 0.813130 0.013154
O O6 0.648854 0.750000 0.058357
O O7 0.627106 0.811168 0.765038
O O8 0.897423 0.500000 0.500000
O O9 0.750000 0.562667 0.500000
O O10 0.896906 0.626157 0.530717
O O11 0.601545 0.250000 0.523247
O O12 0.750000 0.312121 0.500000
#
# Coordination Sequence:
#
# PCOD9505121 Si02
#       4
#    16  16  16  16
#     4   9  17  29  46  68  93 121 152 187 227 270
#     4   8  13  22  38  61  87 114 145 180 218 262
#     4   9  17  29  44  65  92 119 151 187 225 271
#     4   8  13  22  38  59  82 110 144 182 221 261
#
# _framework density 26.773900999999999
#
# number of rings (size 3 to 8) (size 9 to 14) (size 15 to 20)
#    0.000    3.500    0.000    0.000    0.000    0.500 
#    0.000    2.500    0.000    1.500    0.000    0.000 
#    0.000   44.000    0.000    0.000    0.000    1.000 
#
# Total GULP energy -178349.644336 kJ/mol
# GULP energy per Si atom -5573.426385 kJ/mol
# Density = 2.671296 g / cm^3
# Si number density = 26.773901 Si / 1000 Ang^3
#
#
#
# Elastic Constant Matrix: (Units=GPa)
#
#
# Indices 1 2 3 4 5 6 
#
# 1 151.3712 17.4738 -23.2774 0.0000 0.0000 0.0000
# 2 17.4738 443.7459 13.1128 0.0000 0.0000 0.0000
# 3 -23.2774 13.1128 74.6713 0.0000 0.0000 0.0000
# 4 0.0000 0.0000 0.0000 24.6574 0.0000 0.0000
# 5 0.0000 0.0000 0.0000 0.0000 20.9018 0.0000
# 6 0.0000 0.0000 0.0000 0.0000 0.0000 -35.9221
#
#
#
# Elastic Compliance Matrix: (Units=1/GPa)
#
#
# Indices 1 2 3 4 5 6 
#
# 1 0.006990 -0.000341 0.002239 0.000000 0.000000 0.000000
# 2 -0.000341 0.002282 -0.000507 0.000000 0.000000 0.000000
# 3 0.002239 -0.000507 0.014179 0.000000 0.000000 0.000000
# 4 0.000000 0.000000 0.000000 0.040556 0.000000 0.000000
# 5 0.000000 0.000000 0.000000 0.000000 0.047843 0.000000
# 6 0.000000 0.000000 0.000000 0.000000 0.000000 -0.027838
#
#
# Mechanical properties :
#
#
# Convention : Reuss Voigt Hill
#
# Bulk Modulus (GPa) = 38.12174 76.04520 57.08347
# Shear Modulus (GPa) = 55.57124 46.09271 50.83197
#
# Velocity S-wave (km/s) = 4.56079 4.15366 4.36198
# Velocity P-wave (km/s) = 6.48103 7.17414 6.83637
#
# Compressibility (1/GPa) = 0.02623175
#
# Stress axis : x y z
#
# Youngs Moduli (GPa) = 143.06177 438.21733 70.52668
#
# Poissons Ratio (x) = 0.14961 -0.15791
# Poissons Ratio (y) = 0.04884 0.03577
# Poissons Ratio (z) = -0.32031 0.22225
#
# Static dielectric constant tensor:
#      x y z
#    x 1.996950 0.000000 0.000000 
#    y 0.000000 2.277290 0.000000 
#    z 0.000000 0.000000 2.052450 
# 
# From -- ./inp_files/2735.got.cif
#   From: 2010.05.17/outbox.cif.g08.bks.cpg/sg67_2_cif.got.tgz:2735.got - 2010.06.03 18:28:57.
