data_PCOD9505720
_publ_section_title
;
Structure prediction by ZEFSAII (Michael W. Deem and Ramdas Pophale) SiO2 
 PCOD9505720
Probable space group: C C C A
;
_chemical_formula_sum "Si O2"
_cell_formula_units_Z 80
_cell_length_a 15.547742
_cell_length_b 13.909813
_cell_length_c 13.287139
_cell_angle_alpha 90.000000
_cell_angle_beta 90.000000
_cell_angle_gamma 90.000000
_cell_volume 2873.558845
_symmetry_space_group_name_H-M "C C C A"
_symmetry_group_IT_number 68
_space_group.IT_coordinate_system_code '2'
_symmetry_cell_setting 'orthorhombic'
loop_
_space_group_symop_operation_xyz
x,y,z
-x,1/2-y,z
x,1/2-y,1/2-z
-x,y,1/2-z
-x,-y,-z
x,1/2+y,-z
-x,1/2+y,1/2+z
x,-y,1/2+z
1/2+x,1/2+y,z
1/2-x,-y,z
1/2+x,-y,1/2-z
1/2-x,1/2+y,1/2-z
1/2-x,1/2-y,-z
1/2+x,y,-z
1/2-x,y,1/2+z
1/2+x,1/2-y,1/2+z
loop_
_atom_site_type_symbol
_atom_site_label
_atom_site_fract_x
_atom_site_fract_y
_atom_site_fract_z
Si Si1 0.184975 0.208168 0.350038
Si Si2 0.686491 0.418036 0.599523
Si Si3 0.519487 0.987212 0.881052
Si Si4 0.155189 0.097746 0.865836
Si Si5 0.412030 0.704915 0.948032
O O1 0.139833 0.250000 0.250000
O O2 0.223261 0.310748 0.389475
O O3 0.251539 0.123747 0.319416
O O4 0.135838 0.175067 0.449473
O O5 0.750000 0.500000 0.636660
O O6 0.589552 0.431062 0.642183
O O7 0.675431 0.433751 0.479900
O O8 0.425605 0.968122 0.831146
O O9 0.570461 0.886332 0.878933
O O10 0.500000 0.000000 0.000000
O O11 0.120313 0.206318 0.881388
O O12 0.500000 0.750000 0.989837
#
# Coordination Sequence:
#
# PCOD9505720 Si02
#       5
#    16  16  16  16  16
#     4  11  22  35  53  81 119 157 183 219 291 373
#     4  10  18  33  57  81 104 138 190 243 276 316
#     4   9  17  30  55  83 102 128 183 247 283 310
#     4   9  18  33  55  80 105 141 188 230 277 331
#     4   9  17  33  57  80 104 141 190 237 279 334
#
# _framework density 27.840043000000001
#
# number of rings (size 3 to 8) (size 9 to 14) (size 15 to 20)
#    0.000    2.400    0.000    6.000    0.000    0.400 
#    0.000    5.000    0.000   24.600    0.000    0.000 
#    0.000    0.000    0.000    0.000    0.000    0.000 
#
# Total GULP energy -223346.176332 kJ/mol
# GULP energy per Si atom -5583.654408 kJ/mol
# Density = 2.777668 g / cm^3
# Si number density = 27.840043 Si / 1000 Ang^3
#
#
#
# Elastic Constant Matrix: (Units=GPa)
#
#
# Indices 1 2 3 4 5 6 
#
# 1 117.0197 37.1128 2.6146 0.0000 0.0000 0.0000
# 2 37.1128 110.1890 6.5751 0.0000 0.0000 0.0000
# 3 2.6146 6.5751 101.2284 0.0000 0.0000 0.0000
# 4 0.0000 0.0000 0.0000 40.3289 0.0000 0.0000
# 5 0.0000 0.0000 0.0000 0.0000 -16.8776 0.0000
# 6 0.0000 0.0000 0.0000 0.0000 0.0000 64.3290
#
#
#
# Elastic Compliance Matrix: (Units=1/GPa)
#
#
# Indices 1 2 3 4 5 6 
#
# 1 0.009568 -0.003220 -0.000038 0.000000 0.000000 0.000000
# 2 -0.003220 0.010194 -0.000579 0.000000 0.000000 0.000000
# 3 -0.000038 -0.000579 0.009917 0.000000 0.000000 0.000000
# 4 0.000000 0.000000 0.000000 0.024796 0.000000 0.000000
# 5 0.000000 0.000000 0.000000 0.000000 -0.059250 0.000000
# 6 0.000000 0.000000 0.000000 0.000000 0.000000 0.015545
#
#
# Mechanical properties :
#
#
# Convention : Reuss Voigt Hill
#
# Bulk Modulus (GPa) = 45.44410 46.78246 46.11328
# Shear Modulus (GPa) = 193.94866 36.36502 115.15684
#
# Velocity S-wave (km/s) = 8.35563 3.61808 6.43844
# Velocity P-wave (km/s) = 10.46172 5.85615 8.47768
#
# Compressibility (1/GPa) = 0.02200505
#
# Stress axis : x y z
#
# Youngs Moduli (GPa) = 104.51817 98.09234 100.83448
#
# Poissons Ratio (x) = 0.31588 0.00383
# Poissons Ratio (y) = 0.33657 0.05838
# Poissons Ratio (z) = 0.00397 0.05679
#
# Static dielectric constant tensor:
#      x y z
#    x 2.354180 0.000000 0.000000 
#    y 0.000000 2.109870 0.000000 
#    z 0.000000 0.000000 2.135080 
# 
# From -- ./inp_files/30800.got.cif
#   From: 2010.05.17/outbox.cif.g08.bks.cpg/sg68_16_cif.got.tgz:30800.got - 2010.06.03 18:57:09.
