data_PCOD9505086
_publ_section_title
;
Structure prediction by ZEFSAII (Michael W. Deem and Ramdas Pophale) SiO2 
 PCOD9505086
Probable space group: C M M A
;
_chemical_formula_sum "Si O2"
_cell_formula_units_Z 80
_cell_length_a 18.274965
_cell_length_b 9.853226
_cell_length_c 24.760452
_cell_angle_alpha 90.000000
_cell_angle_beta 90.000000
_cell_angle_gamma 90.000000
_cell_volume 4458.549231
_symmetry_space_group_name_H-M "C M M A"
_symmetry_group_IT_number 67
_symmetry_cell_setting 'orthorhombic'
loop_
_space_group_symop_operation_xyz
x,y,z
-x,1/2-y,z
x,-y,-z
-x,1/2+y,-z
-x,-y,-z
x,1/2+y,-z
-x,y,z
x,1/2-y,z
1/2+x,1/2+y,z
1/2-x,-y,z
1/2+x,1/2-y,-z
1/2-x,y,-z
1/2-x,1/2-y,-z
1/2+x,y,-z
1/2-x,1/2+y,z
1/2+x,-y,z
loop_
_atom_site_type_symbol
_atom_site_label
_atom_site_fract_x
_atom_site_fract_y
_atom_site_fract_z
Si Si1 0.417676 0.912063 0.269959
Si Si2 0.171413 0.250000 0.468119
Si Si3 0.910742 0.907836 0.051063
Si Si4 0.413151 0.250000 0.424132
Si Si5 0.664767 0.516459 0.379076
Si Si6 0.910621 0.592247 0.848271
O O1 0.500000 0.968041 0.276539
O O2 0.423286 0.750000 0.264357
O O3 0.386942 0.955705 0.211593
O O4 0.373053 0.938914 0.323760
O O5 0.250000 0.250000 0.500000
O O6 0.108931 0.250000 0.513059
O O7 0.162618 0.377940 0.428669
O O8 0.886962 0.750000 0.048606
O O9 0.000000 0.905193 0.050826
O O10 0.887930 0.988817 0.104966
O O11 0.888294 0.000000 0.000000
O O12 0.500000 0.250000 0.416521
O O13 0.374961 0.119320 0.398257
O O14 0.750000 0.500000 0.367547
O O15 0.888722 0.750000 0.858369
O O16 0.000000 0.593309 0.847010
#
# Coordination Sequence:
#
# PCOD9505086 Si02
#       6
#    16   8  16   8  16  16
#     4   9  18  34  56  80 104 140 192 237 281 344
#     4  12  24  44  66  88 114 154 197 241 296 363
#     4   9  15  22  35  59  92 134 181 222 271 335
#     4  12  28  42  60  96 126 150 191 247 301 351
#     4  12  23  41  65  85 118 154 192 239 296 359
#     4   8  14  26  43  63  92 129 172 227 280 327
#
# _framework density 17.943057
#
# number of rings (size 3 to 8) (size 9 to 14) (size 15 to 20)
#    0.000    2.000    3.000    3.000    0.000    4.800 
#    1.800    0.000    0.000    0.000    0.000    0.000 
#    0.000    0.800    0.000    6.400    0.000    7.400 
#
# Total GULP energy -222959.089161 kJ/mol
# GULP energy per Si atom -5573.977229 kJ/mol
# Density = 1.790222 g / cm^3
# Si number density = 17.943057 Si / 1000 Ang^3
#
#
#
# Elastic Constant Matrix: (Units=GPa)
#
#
# Indices 1 2 3 4 5 6 
#
# 1 69.6383 35.7975 43.9544 0.0000 0.0000 0.0000
# 2 35.7975 122.9742 81.0567 0.0000 0.0000 0.0000
# 3 43.9544 81.0567 185.9165 0.0000 0.0000 0.0000
# 4 0.0000 0.0000 0.0000 0.1835 0.0000 0.0000
# 5 0.0000 0.0000 0.0000 0.0000 18.0786 0.0000
# 6 0.0000 0.0000 0.0000 0.0000 0.0000 12.7203
#
#
#
# Elastic Compliance Matrix: (Units=1/GPa)
#
#
# Indices 1 2 3 4 5 6 
#
# 1 0.017829 -0.003384 -0.002740 0.000000 0.000000 0.000000
# 2 -0.003384 0.012053 -0.004455 0.000000 0.000000 0.000000
# 3 -0.002740 -0.004455 0.007969 0.000000 0.000000 0.000000
# 4 0.000000 0.000000 0.000000 5.450931 0.000000 0.000000
# 5 0.000000 0.000000 0.000000 0.000000 0.055314 0.000000
# 6 0.000000 0.000000 0.000000 0.000000 0.000000 0.078614
#
#
# Mechanical properties :
#
#
# Convention : Reuss Voigt Hill
#
# Bulk Modulus (GPa) = 59.90412 77.79403 68.84907
# Shear Modulus (GPa) = 0.88504 20.71115 10.79810
#
# Velocity S-wave (km/s) = 0.70308 3.40114 2.45582
# Velocity P-wave (km/s) = 5.84100 7.67293 6.81877
#
# Compressibility (1/GPa) = 0.01669334
#
# Stress axis : x y z
#
# Youngs Moduli (GPa) = 56.08925 82.96451 125.48963
#
# Poissons Ratio (x) = 0.28076 0.34380
# Poissons Ratio (y) = 0.18981 0.55906
# Poissons Ratio (z) = 0.15367 0.36961
#
# Static dielectric constant tensor:
#      x y z
#    x 1.609590 0.000000 0.000000 
#    y 0.000000 1.621060 0.000000 
#    z 0.000000 0.000000 1.639180 
# 
# From -- ./inp_files/42311.got.cif
#   From: 2010.05.17/outbox.cif.g08.bks.cpg/sg67_22_cif.got.tgz:42311.got - 2010.06.03 18:28:57.
