data_PCOD9505014
_publ_section_title
;
Structure prediction by ZEFSAII (Michael W. Deem and Ramdas Pophale) SiO2 
 PCOD9505014
Probable space group: C M M A
;
_chemical_formula_sum "Si O2"
_cell_formula_units_Z 72
_cell_length_a 15.358930
_cell_length_b 8.904891
_cell_length_c 26.118176
_cell_angle_alpha 90.000000
_cell_angle_beta 90.000000
_cell_angle_gamma 90.000000
_cell_volume 3572.172420
_symmetry_space_group_name_H-M "C M M A"
_symmetry_group_IT_number 67
_symmetry_cell_setting 'orthorhombic'
loop_
_space_group_symop_operation_xyz
x,y,z
-x,1/2-y,z
x,-y,-z
-x,1/2+y,-z
-x,-y,-z
x,1/2+y,-z
-x,y,z
x,1/2-y,z
1/2+x,1/2+y,z
1/2-x,-y,z
1/2+x,1/2-y,-z
1/2-x,y,-z
1/2-x,1/2-y,-z
1/2+x,y,-z
1/2-x,1/2+y,z
1/2+x,-y,z
loop_
_atom_site_type_symbol
_atom_site_label
_atom_site_fract_x
_atom_site_fract_y
_atom_site_fract_z
Si Si1 0.394163 0.926892 0.052156
Si Si2 0.159368 0.068692 0.619295
Si Si3 0.105517 0.427700 0.163110
Si Si4 0.897814 0.429394 0.732461
Si Si5 0.000000 0.569230 0.556599
O O1 0.500000 0.942996 0.052079
O O2 0.375891 0.750000 0.050621
O O3 0.363844 0.987168 0.107607
O O4 0.360991 0.000000 0.000000
O O5 0.156434 0.250000 0.615103
O O6 0.146676 0.027752 0.679280
O O7 0.250000 0.000000 0.601438
O O8 0.082819 0.994227 0.587074
O O9 0.122311 0.250000 0.164824
O O10 0.138393 0.501589 0.215160
O O11 0.000000 0.447241 0.163381
O O12 0.894128 0.250000 0.736991
O O13 0.000000 0.472472 0.727811
O O14 0.000000 0.500000 0.500000
O O15 0.000000 0.750000 0.555052
#
# Coordination Sequence:
#
# PCOD9505014 Si02
#       5
#    16  16  16  16   8
#     4   8  13  20  29  45  75 116 163 218 276 334
#     4  11  23  42  65  95 131 166 208 257 303 359
#     4   8  14  23  36  58  88 125 174 228 280 342
#     4   9  17  31  51  75 108 147 186 237 294 347
#     4  12  26  46  72 100 130 170 209 250 303 354
#
# _framework density 20.155802999999999
#
# number of rings (size 3 to 8) (size 9 to 14) (size 15 to 20)
#    0.000    2.667    1.111    3.000    0.000    3.111 
#    0.000    6.667    0.000    0.000    0.000    0.000 
#    0.000    0.889    0.000    9.778    0.000   16.000 
#
# Total GULP energy -200834.613592 kJ/mol
# GULP energy per Si atom -5578.739266 kJ/mol
# Density = 2.010993 g / cm^3
# Si number density = 20.155803 Si / 1000 Ang^3
#
#
#
# Elastic Constant Matrix: (Units=GPa)
#
#
# Indices 1 2 3 4 5 6 
#
# 1 91.6593 39.6616 59.3598 0.0000 0.0000 0.0000
# 2 39.6616 60.1452 71.2734 0.0000 0.0000 0.0000
# 3 59.3598 71.2734 193.7882 0.0000 0.0000 0.0000
# 4 0.0000 0.0000 0.0000 39.4715 0.0000 0.0000
# 5 0.0000 0.0000 0.0000 0.0000 -22.4842 0.0000
# 6 0.0000 0.0000 0.0000 0.0000 0.0000 12.5633
#
#
#
# Elastic Compliance Matrix: (Units=1/GPa)
#
#
# Indices 1 2 3 4 5 6 
#
# 1 0.015599 -0.008196 -0.001763 0.000000 0.000000 0.000000
# 2 -0.008196 0.033778 -0.009913 0.000000 0.000000 0.000000
# 3 -0.001763 -0.009913 0.009346 0.000000 0.000000 0.000000
# 4 0.000000 0.000000 0.000000 0.025335 0.000000 0.000000
# 5 0.000000 0.000000 0.000000 0.000000 -0.044476 0.000000
# 6 0.000000 0.000000 0.000000 0.000000 0.000000 0.079597
#
#
# Mechanical properties :
#
#
# Convention : Reuss Voigt Hill
#
# Bulk Modulus (GPa) = 52.69292 76.24247 64.46769
# Shear Modulus (GPa) = 30.25725 17.59666 23.92696
#
# Velocity S-wave (km/s) = 3.87869 2.95792 3.44917
# Velocity P-wave (km/s) = 6.80137 7.04091 6.92217
#
# Compressibility (1/GPa) = 0.01897788
#
# Stress axis : x y z
#
# Youngs Moduli (GPa) = 64.10792 29.60507 106.99555
#
# Poissons Ratio (x) = 0.24266 0.18869
# Poissons Ratio (y) = 0.52546 1.06060
# Poissons Ratio (z) = 0.11305 0.29346
#
# Static dielectric constant tensor:
#      x y z
#    x 1.837460 0.000000 0.000000 
#    y 0.000000 1.681500 0.000000 
#    z 0.000000 0.000000 1.737000 
# 
# From -- ./inp_files/44247.got.cif
#   From: 2010.05.17/outbox.cif.g08.bks.cpg/sg67_23_cif.got.tgz:44247.got - 2010.06.03 18:28:57.
