data_PCOD9505800
_publ_section_title
;
Structure prediction by ZEFSAII (Michael W. Deem and Ramdas Pophale) SiO2 
 PCOD9505800
Probable space group: C C C A
;
_chemical_formula_sum "Si O2"
_cell_formula_units_Z 120
_cell_length_a 30.161925
_cell_length_b 19.019158
_cell_length_c 8.239254
_cell_angle_alpha 90.000000
_cell_angle_beta 90.000000
_cell_angle_gamma 90.000000
_cell_volume 4726.484451
_symmetry_space_group_name_H-M "C C C A"
_symmetry_group_IT_number 68
_space_group.IT_coordinate_system_code '2'
_symmetry_cell_setting 'orthorhombic'
loop_
_space_group_symop_operation_xyz
x,y,z
-x,1/2-y,z
x,1/2-y,1/2-z
-x,y,1/2-z
-x,-y,-z
x,1/2+y,-z
-x,1/2+y,1/2+z
x,-y,1/2+z
1/2+x,1/2+y,z
1/2-x,-y,z
1/2+x,-y,1/2-z
1/2-x,1/2+y,1/2-z
1/2-x,1/2-y,-z
1/2+x,y,-z
1/2-x,y,1/2+z
1/2+x,1/2-y,1/2+z
loop_
_atom_site_type_symbol
_atom_site_label
_atom_site_fract_x
_atom_site_fract_y
_atom_site_fract_z
Si Si1 0.540287 0.662519 0.052127
Si Si2 0.454663 0.524653 0.654653
Si Si3 0.870760 0.812000 0.018849
Si Si4 0.308883 0.250000 0.250000
Si Si5 0.445537 0.364921 0.570038
Si Si6 0.718360 0.886743 0.911480
Si Si7 0.199877 0.835623 0.728225
Si Si8 0.374445 0.916228 0.677015
O O1 0.551056 0.660870 0.243650
O O2 0.489633 0.673136 0.000983
O O3 0.551472 0.585677 0.978146
O O4 0.578888 0.713150 0.988791
O O5 0.500000 0.541025 0.750000
O O6 0.459243 0.447143 0.586317
O O7 0.410380 0.526393 0.766378
O O8 0.837650 0.754416 0.088269
O O9 0.869120 0.867913 0.164234
O O10 0.849424 0.837747 0.851337
O O11 0.283997 0.178145 0.218043
O O12 0.400825 0.372332 0.463814
O O13 0.771685 0.888706 0.892536
O O14 0.676395 0.936251 0.865972
O O15 0.706782 0.866800 0.094261
O O16 0.207510 0.750000 0.750000
#
# Coordination Sequence:
#
# PCOD9505800 Si02
#       8
#    16  16  16   8  16  16  16  16
#     4  10  20  31  52  85 114 148 192 244 299 348
#     4  11  18  33  56  87 117 150 193 248 298 348
#     4  10  22  35  53  83 115 152 193 242 296 355
#     4  10  18  36  52  79 108 148 188 235 284 344
#     4  11  19  33  56  83 116 150 193 250 296 345
#     4  11  21  35  58  88 119 151 189 242 296 358
#     4  12  21  37  63  91 116 151 198 248 303 345
#     4  10  22  34  53  85 124 153 192 245 302 354
#
# _framework density 25.388850000000001
#
# number of rings (size 3 to 8) (size 9 to 14) (size 15 to 20)
#    0.000    1.333    4.667    4.000    0.000    0.000 
#    0.000    0.000    0.000    6.400    0.000   31.733 
#    0.000    0.000    0.000    0.000    0.000    0.000 
#
# Total GULP energy -334231.579920 kJ/mol
# GULP energy per Si atom -5570.526332 kJ/mol
# Density = 2.533106 g / cm^3
# Si number density = 25.388850 Si / 1000 Ang^3
#
#
#
# Elastic Constant Matrix: (Units=GPa)
#
#
# Indices 1 2 3 4 5 6 
#
# 1 135.9751 6.5768 22.7057 0.0000 0.0000 0.0000
# 2 6.5768 29.3950 7.7525 0.0000 0.0000 0.0000
# 3 22.7057 7.7525 97.9328 0.0000 0.0000 0.0000
# 4 0.0000 0.0000 0.0000 15.9623 0.0000 0.0000
# 5 0.0000 0.0000 0.0000 0.0000 53.0681 0.0000
# 6 0.0000 0.0000 0.0000 0.0000 0.0000 25.6819
#
#
#
# Elastic Compliance Matrix: (Units=1/GPa)
#
#
# Indices 1 2 3 4 5 6 
#
# 1 0.007697 -0.001278 -0.001683 0.000000 0.000000 0.000000
# 2 -0.001278 0.034957 -0.002471 0.000000 0.000000 0.000000
# 3 -0.001683 -0.002471 0.010797 0.000000 0.000000 0.000000
# 4 0.000000 0.000000 0.000000 0.062648 0.000000 0.000000
# 5 0.000000 0.000000 0.000000 0.000000 0.018844 0.000000
# 6 0.000000 0.000000 0.000000 0.000000 0.000000 0.038938
#
#
# Mechanical properties :
#
#
# Convention : Reuss Voigt Hill
#
# Bulk Modulus (GPa) = 23.48181 37.48589 30.48385
# Shear Modulus (GPa) = 25.13307 34.02698 29.58003
#
# Velocity S-wave (km/s) = 3.14972 3.66489 3.41703
# Velocity P-wave (km/s) = 4.74306 5.71886 5.25366
#
# Compressibility (1/GPa) = 0.04258615
#
# Stress axis : x y z
#
# Youngs Moduli (GPa) = 129.91718 28.60658 92.61847
#
# Poissons Ratio (x) = 0.03656 0.15591
# Poissons Ratio (y) = 0.16606 0.22885
# Poissons Ratio (z) = 0.21870 0.07068
#
# Static dielectric constant tensor:
#      x y z
#    x 2.267550 0.000000 0.000000 
#    y 0.000000 2.050220 0.000000 
#    z 0.000000 0.000000 2.037290 
# 
# From -- ./inp_files/9222.got.cif
#   From: 2010.05.17/outbox.cif.g08.bks.cpg/sg68_5_cif.got.tgz:9222.got - 2010.06.03 18:57:09.
