data_PCOD9505557
_publ_section_title
;
Structure prediction by ZEFSAII (Michael W. Deem and Ramdas Pophale) SiO2 
 PCOD9505557
Probable space group: C C C A
;
_chemical_formula_sum "Si O2"
_cell_formula_units_Z 112
_cell_length_a 15.907073
_cell_length_b 30.080159
_cell_length_c 11.239109
_cell_angle_alpha 90.000000
_cell_angle_beta 90.000000
_cell_angle_gamma 90.000000
_cell_volume 5377.770752
_symmetry_space_group_name_H-M "C C C A"
_symmetry_group_IT_number 68
_space_group.IT_coordinate_system_code '2'
_symmetry_cell_setting 'orthorhombic'
loop_
_space_group_symop_operation_xyz
x,y,z
-x,1/2-y,z
x,1/2-y,1/2-z
-x,y,1/2-z
-x,-y,-z
x,1/2+y,-z
-x,1/2+y,1/2+z
x,-y,1/2+z
1/2+x,1/2+y,z
1/2-x,-y,z
1/2+x,-y,1/2-z
1/2-x,1/2+y,1/2-z
1/2-x,1/2-y,-z
1/2+x,y,-z
1/2-x,y,1/2+z
1/2+x,1/2-y,1/2+z
loop_
_atom_site_type_symbol
_atom_site_label
_atom_site_fract_x
_atom_site_fract_y
_atom_site_fract_z
Si Si1 0.989008 0.616681 0.025600
Si Si2 0.799424 0.263737 0.617390
Si Si3 0.165310 0.862491 0.175470
Si Si4 0.430408 0.690202 0.643875
Si Si5 0.244912 0.548944 0.293547
Si Si6 0.921288 0.941774 0.661991
Si Si7 0.072496 0.537732 0.146712
O O1 0.923895 0.618746 0.133736
O O2 0.031570 0.664620 0.031062
O O3 0.052387 0.576535 0.053979
O O4 0.933543 0.601973 0.915232
O O5 0.764259 0.250000 0.750000
O O6 0.750000 0.250000 0.500000
O O7 0.811072 0.316661 0.611711
O O8 0.887649 0.236882 0.616072
O O9 0.143189 0.843161 0.306775
O O10 0.227528 0.903074 0.148129
O O11 0.500000 0.694203 0.750000
O O12 0.250000 0.500000 0.356321
O O13 0.332853 0.555558 0.227443
O O14 0.163638 0.544868 0.206770
O O15 0.000000 0.942016 0.750000
O O16 0.926551 0.988377 0.590508
O O17 0.000000 0.537651 0.250000
#
# Coordination Sequence:
#
# PCOD9505557 Si02
#       7
#    16  16  16  16  16  16  16
#     4  11  19  35  61  89 115 161 217 262 326 377
#     4  10  23  41  65 100 135 170 219 285 350 408
#     4  10  20  37  64  90 117 161 214 275 316 391
#     4   9  19  37  64  94 120 159 220 281 330 392
#     4  10  20  38  58  86 128 172 217 271 328 397
#     4  10  24  37  51  82 131 173 203 260 329 410
#     4  10  17  37  61  83 117 158 221 275 320 369
#
# _framework density 20.826473
#
# number of rings (size 3 to 8) (size 9 to 14) (size 15 to 20)
#    0.000    2.000    2.857    0.857    0.000   10.000 
#    2.571    0.714    0.000    0.000    0.000   10.000 
#    0.000    0.000    0.000    0.000    0.000    0.000 
#
# Total GULP energy -311820.095969 kJ/mol
# GULP energy per Si atom -5568.215999 kJ/mol
# Density = 2.077907 g / cm^3
# Si number density = 20.826473 Si / 1000 Ang^3
#
#
#
# Elastic Constant Matrix: (Units=GPa)
#
#
# Indices 1 2 3 4 5 6 
#
# 1 102.0042 39.5552 19.0112 0.0000 0.0000 0.0000
# 2 39.5552 189.1368 33.9955 0.0000 0.0000 0.0000
# 3 19.0112 33.9955 33.0746 0.0000 0.0000 0.0000
# 4 0.0000 0.0000 0.0000 29.1129 0.0000 0.0000
# 5 0.0000 0.0000 0.0000 0.0000 15.5955 0.0000
# 6 0.0000 0.0000 0.0000 0.0000 0.0000 46.5512
#
#
#
# Elastic Compliance Matrix: (Units=1/GPa)
#
#
# Indices 1 2 3 4 5 6 
#
# 1 0.011302 -0.001467 -0.004989 0.000000 0.000000 0.000000
# 2 -0.001467 0.006676 -0.006018 0.000000 0.000000 0.000000
# 3 -0.004989 -0.006018 0.039288 0.000000 0.000000 0.000000
# 4 0.000000 0.000000 0.000000 0.034349 0.000000 0.000000
# 5 0.000000 0.000000 0.000000 0.000000 0.064121 0.000000
# 6 0.000000 0.000000 0.000000 0.000000 0.000000 0.021482
#
#
# Mechanical properties :
#
#
# Convention : Reuss Voigt Hill
#
# Bulk Modulus (GPa) = 30.94254 56.59327 43.76790
# Shear Modulus (GPa) = 23.48096 33.69549 28.58823
#
# Velocity S-wave (km/s) = 3.36141 4.02670 3.70900
# Velocity P-wave (km/s) = 5.47311 6.98940 6.27721
#
# Compressibility (1/GPa) = 0.03231797
#
# Stress axis : x y z
#
# Youngs Moduli (GPa) = 88.47875 149.79635 25.45308
#
# Poissons Ratio (x) = 0.21976 0.12697
# Poissons Ratio (y) = 0.12980 0.15319
# Poissons Ratio (z) = 0.44138 0.90153
#
# Static dielectric constant tensor:
#      x y z
#    x 1.780620 0.000000 0.000000 
#    y 0.000000 1.844650 0.000000 
#    z 0.000000 0.000000 1.857340 
# 
# From -- ./inp_files/13608.got.cif
#   From: 2010.05.17/outbox.cif.g08.bks.cpg/sg68_7_cif.got.tgz:13608.got - 2010.06.03 18:57:09.
