data_PCOD9505670
_publ_section_title
;
Structure prediction by ZEFSAII (Michael W. Deem and Ramdas Pophale) SiO2 
 PCOD9505670
Probable space group: C C C A
;
_chemical_formula_sum "Si O2"
_cell_formula_units_Z 72
_cell_length_a 28.601509
_cell_length_b 18.720687
_cell_length_c 5.560626
_cell_angle_alpha 90.000000
_cell_angle_beta 90.000000
_cell_angle_gamma 90.000000
_cell_volume 2977.381017
_symmetry_space_group_name_H-M "C C C A"
_symmetry_group_IT_number 68
_space_group.IT_coordinate_system_code '2'
_symmetry_cell_setting 'orthorhombic'
loop_
_space_group_symop_operation_xyz
x,y,z
-x,1/2-y,z
x,1/2-y,1/2-z
-x,y,1/2-z
-x,-y,-z
x,1/2+y,-z
-x,1/2+y,1/2+z
x,-y,1/2+z
1/2+x,1/2+y,z
1/2-x,-y,z
1/2+x,-y,1/2-z
1/2-x,1/2+y,1/2-z
1/2-x,1/2-y,-z
1/2+x,y,-z
1/2-x,y,1/2+z
1/2+x,1/2-y,1/2+z
loop_
_atom_site_type_symbol
_atom_site_label
_atom_site_fract_x
_atom_site_fract_y
_atom_site_fract_z
Si Si1 0.766985 0.830967 0.046237
Si Si2 0.874160 0.351741 0.831630
Si Si3 0.093777 0.635260 0.676872
Si Si4 0.000000 0.954852 0.750000
Si Si5 0.665991 0.006041 0.683690
O O1 0.738248 0.862179 0.274631
O O2 0.819908 0.831224 0.141238
O O3 0.750000 0.750000 0.000000
O O4 0.899130 0.330264 0.584686
O O5 0.871069 0.439286 0.824873
O O6 0.898336 0.324027 0.073420
O O7 0.136147 0.577752 0.681191
O O8 0.045500 0.594159 0.714781
O O9 0.000000 0.000000 0.500000
O O10 0.692425 0.001549 0.433295
#
# Coordination Sequence:
#
# PCOD9505670 Si02
#       5
#    16  16  16   8  16
#     4  10  21  37  57  80 103 126 170 238 296 348
#     4  10  18  32  51  71 103 143 177 221 281 329
#     4  10  19  30  48  74 108 152 187 216 256 316
#     4  12  20  30  48  78 116 155 202 235 252 294
#     4   8  14  25  41  62  90 132 173 198 234 297
#
# _framework density 24.182327000000001
#
# number of rings (size 3 to 8) (size 9 to 14) (size 15 to 20)
#    0.000    2.222    0.000    6.667    0.000    0.000 
#    0.000    0.000    0.000   36.000    0.000    0.000 
#    0.000   53.333    0.000    0.000    0.000    0.000 
#
# Total GULP energy -200886.943965 kJ/mol
# GULP energy per Si atom -5580.192888 kJ/mol
# Density = 2.412729 g / cm^3
# Si number density = 24.182327 Si / 1000 Ang^3
#
#
#
# Elastic Constant Matrix: (Units=GPa)
#
#
# Indices 1 2 3 4 5 6 
#
# 1 145.6054 1.2358 68.5876 0.0000 0.0000 0.0000
# 2 1.2358 44.8358 22.4531 0.0000 0.0000 0.0000
# 3 68.5876 22.4531 351.2835 0.0000 0.0000 0.0000
# 4 0.0000 0.0000 0.0000 20.1194 0.0000 0.0000
# 5 0.0000 0.0000 0.0000 0.0000 32.5843 0.0000
# 6 0.0000 0.0000 0.0000 0.0000 0.0000 -35.1312
#
#
#
# Elastic Compliance Matrix: (Units=1/GPa)
#
#
# Indices 1 2 3 4 5 6 
#
# 1 0.007577 0.000550 -0.001514 0.000000 0.000000 0.000000
# 2 0.000550 0.023081 -0.001583 0.000000 0.000000 0.000000
# 3 -0.001514 -0.001583 0.003244 0.000000 0.000000 0.000000
# 4 0.000000 0.000000 0.000000 0.049703 0.000000 0.000000
# 5 0.000000 0.000000 0.000000 0.000000 0.030690 0.000000
# 6 0.000000 0.000000 0.000000 0.000000 0.000000 -0.028465
#
#
# Mechanical properties :
#
#
# Convention : Reuss Voigt Hill
#
# Bulk Modulus (GPa) = 34.71469 80.69754 57.70612
# Shear Modulus (GPa) = 49.73826 33.47772 41.60799
#
# Velocity S-wave (km/s) = 4.54012 3.72477 4.15251
# Velocity P-wave (km/s) = 6.47071 7.20704 6.84878
#
# Compressibility (1/GPa) = 0.02880624
#
# Stress axis : x y z
#
# Youngs Moduli (GPa) = 131.98546 43.32568 308.30399
#
# Poissons Ratio (x) = -0.02381 0.46691
# Poissons Ratio (y) = -0.07254 0.48792
# Poissons Ratio (z) = 0.19988 0.06857
#
# Static dielectric constant tensor:
#      x y z
#    x 1.855790 0.000000 0.000000 
#    y 0.000000 1.998340 0.000000 
#    z 0.000000 0.000000 2.144060 
# 
# From -- ./inp_files/2331.got.cif
#   From: 2010.05.17/outbox.cif.g08.bks.cpg/sg68_2_cif.got.tgz:2331.got - 2010.06.03 18:57:09.
