data_PCOD9505752
_publ_section_title
;
Structure prediction by ZEFSAII (Michael W. Deem and Ramdas Pophale) SiO2 
 PCOD9505752
Probable space group: C C C A
;
_chemical_formula_sum "Si O2"
_cell_formula_units_Z 112
_cell_length_a 14.018192
_cell_length_b 16.486249
_cell_length_c 25.123942
_cell_angle_alpha 90.000000
_cell_angle_beta 90.000000
_cell_angle_gamma 90.000000
_cell_volume 5806.329010
_symmetry_space_group_name_H-M "C C C A"
_symmetry_group_IT_number 68
_space_group.IT_coordinate_system_code '2'
_symmetry_cell_setting 'orthorhombic'
loop_
_space_group_symop_operation_xyz
x,y,z
-x,1/2-y,z
x,1/2-y,1/2-z
-x,y,1/2-z
-x,-y,-z
x,1/2+y,-z
-x,1/2+y,1/2+z
x,-y,1/2+z
1/2+x,1/2+y,z
1/2-x,-y,z
1/2+x,-y,1/2-z
1/2-x,1/2+y,1/2-z
1/2-x,1/2-y,-z
1/2+x,y,-z
1/2-x,y,1/2+z
1/2+x,1/2-y,1/2+z
loop_
_atom_site_type_symbol
_atom_site_label
_atom_site_fract_x
_atom_site_fract_y
_atom_site_fract_z
Si Si1 0.082716 0.870226 0.582324
Si Si2 0.301346 0.687491 0.916791
Si Si3 0.926885 0.143937 0.297907
Si Si4 0.576871 0.047782 0.294147
Si Si5 0.422050 0.812406 0.966643
Si Si6 0.787671 0.191490 0.796099
Si Si7 0.463134 0.558875 0.915551
O O1 0.196198 0.851660 0.584815
O O2 0.039785 0.846080 0.640267
O O3 0.055821 0.823623 0.528776
O O4 0.057305 0.964773 0.572940
O O5 0.323775 0.766277 0.952986
O O6 0.318975 0.715023 0.855696
O O7 0.373148 0.614704 0.932669
O O8 0.826759 0.189501 0.293694
O O9 0.000000 0.162860 0.250000
O O10 0.904541 0.048048 0.292201
O O11 0.500000 0.069351 0.250000
O O12 0.670537 0.101694 0.287735
O O13 0.533569 0.065509 0.351975
O O14 0.500000 0.750000 0.943060
O O15 0.443426 0.899652 0.940650
O O16 0.824499 0.250000 0.750000
#
# Coordination Sequence:
#
# PCOD9505752 Si02
#       7
#    16  16  16  16  16  16  16
#     4  10  18  34  56  76  97 142 187 214 261 328
#     4   9  19  34  51  76 107 137 173 219 273 320
#     4   9  19  37  54  75 102 143 185 221 256 309
#     4   9  18  32  55  78 105 138 174 217 271 321
#     4  10  20  33  50  77 110 137 169 225 279 314
#     4  10  20  32  51  82 108 138 173 217 267 327
#     4   9  18  32  54  77 102 133 179 224 260 323
#
# _framework density 19.289297000000001
#
# number of rings (size 3 to 8) (size 9 to 14) (size 15 to 20)
#    0.000    2.571    0.000    1.714    2.000    4.000 
#    5.143    0.000    0.000    0.000    0.000    0.000 
#    0.000    0.000    0.000    0.000    0.000    0.000 
#
# Total GULP energy -311840.305109 kJ/mol
# GULP energy per Si atom -5568.576877 kJ/mol
# Density = 1.924539 g / cm^3
# Si number density = 19.289297 Si / 1000 Ang^3
#
#
#
# Elastic Constant Matrix: (Units=GPa)
#
#
# Indices 1 2 3 4 5 6 
#
# 1 35.3772 23.4269 22.7402 0.0000 0.0000 0.0000
# 2 23.4269 104.5737 61.6912 0.0000 0.0000 0.0000
# 3 22.7402 61.6912 90.6485 0.0000 0.0000 0.0000
# 4 0.0000 0.0000 0.0000 26.7048 0.0000 0.0000
# 5 0.0000 0.0000 0.0000 0.0000 24.2319 0.0000
# 6 0.0000 0.0000 0.0000 0.0000 0.0000 15.5729
#
#
#
# Elastic Compliance Matrix: (Units=1/GPa)
#
#
# Indices 1 2 3 4 5 6 
#
# 1 0.034889 -0.004432 -0.005736 0.000000 0.000000 0.000000
# 2 -0.004432 0.016540 -0.010145 0.000000 0.000000 0.000000
# 3 -0.005736 -0.010145 0.019375 0.000000 0.000000 0.000000
# 4 0.000000 0.000000 0.000000 0.037447 0.000000 0.000000
# 5 0.000000 0.000000 0.000000 0.000000 0.041268 0.000000
# 6 0.000000 0.000000 0.000000 0.000000 0.000000 0.064214
#
#
# Mechanical properties :
#
#
# Convention : Reuss Voigt Hill
#
# Bulk Modulus (GPa) = 33.13660 49.59067 41.36363
# Shear Modulus (GPa) = 18.90955 21.48466 20.19711
#
# Velocity S-wave (km/s) = 3.13439 3.34100 3.23935
# Velocity P-wave (km/s) = 5.50593 6.37556 5.95664
#
# Compressibility (1/GPa) = 0.03017811
#
# Stress axis : x y z
#
# Youngs Moduli (GPa) = 28.66251 60.45899 51.61411
#
# Poissons Ratio (x) = 0.26796 0.29606
# Poissons Ratio (y) = 0.12703 0.52361
# Poissons Ratio (z) = 0.16441 0.61333
#
# Static dielectric constant tensor:
#      x y z
#    x 1.701080 0.000000 0.000000 
#    y 0.000000 1.678120 0.000000 
#    z 0.000000 0.000000 1.703160 
# 
# From -- ./inp_files/50972.got.cif
#   From: 2010.05.17/outbox.cif.g08.bks.cpg/sg68_26_cif.got.tgz:50972.got - 2010.06.03 18:57:09.
