data_PCOD9505826
_publ_section_title
;
Structure prediction by ZEFSAII (Michael W. Deem and Ramdas Pophale) SiO2 
 PCOD9505826
Probable space group: C C C A
;
_chemical_formula_sum "Si O2"
_cell_formula_units_Z 96
_cell_length_a 20.177894
_cell_length_b 25.146031
_cell_length_c 8.670946
_cell_angle_alpha 90.000000
_cell_angle_beta 90.000000
_cell_angle_gamma 90.000000
_cell_volume 4399.585524
_symmetry_space_group_name_H-M "C C C A"
_symmetry_group_IT_number 68
_space_group.IT_coordinate_system_code '2'
_symmetry_cell_setting 'orthorhombic'
loop_
_space_group_symop_operation_xyz
x,y,z
-x,1/2-y,z
x,1/2-y,1/2-z
-x,y,1/2-z
-x,-y,-z
x,1/2+y,-z
-x,1/2+y,1/2+z
x,-y,1/2+z
1/2+x,1/2+y,z
1/2-x,-y,z
1/2+x,-y,1/2-z
1/2-x,1/2+y,1/2-z
1/2-x,1/2-y,-z
1/2+x,y,-z
1/2-x,y,1/2+z
1/2+x,1/2-y,1/2+z
loop_
_atom_site_type_symbol
_atom_site_label
_atom_site_fract_x
_atom_site_fract_y
_atom_site_fract_z
Si Si1 0.023910 0.304196 0.427240
Si Si2 0.529414 0.920885 0.019138
Si Si3 0.399202 0.049681 0.655447
Si Si4 0.758141 0.378453 0.385169
Si Si5 0.662671 0.938809 0.856641
Si Si6 0.164602 0.660370 0.886739
O O1 0.102980 0.303235 0.420211
O O2 0.000000 0.250000 0.504294
O O3 0.000000 0.304783 0.250000
O O4 0.996533 0.360148 0.488400
O O5 0.568591 0.934163 0.179574
O O6 0.461658 0.955723 0.037868
O O7 0.584410 0.925396 0.885215
O O8 0.360690 0.099933 0.591280
O O9 0.347197 0.001741 0.668536
O O10 0.704338 0.408559 0.275994
O O11 0.797826 0.421154 0.489146
O O12 0.808655 0.343628 0.284715
O O13 0.723486 0.335832 0.494951
#
# Coordination Sequence:
#
# PCOD9505826 Si02
#       6
#    16  16  16  16  16  16
#     4  10  18  36  69  91 111 154 201 258 315 361
#     4  10  19  40  55  87 121 151 202 268 294 352
#     4  10  20  33  57  81 119 155 203 248 289 343
#     4  10  23  36  58  83 128 166 197 238 291 362
#     4  11  22  37  56  83 119 168 201 236 299 355
#     4  10  20  38  56  90 119 152 204 244 293 361
#
# _framework density 21.820238
#
# number of rings (size 3 to 8) (size 9 to 14) (size 15 to 20)
#    0.000    1.833    5.000    0.500    2.333    4.000 
#    3.000    0.000    0.000   20.000    0.000    3.500 
#    0.000    0.000    0.000    0.000    0.000    0.000 
#
# Total GULP energy -267641.174159 kJ/mol
# GULP energy per Si atom -5575.857795 kJ/mol
# Density = 2.177057 g / cm^3
# Si number density = 21.820238 Si / 1000 Ang^3
#
#
#
# Elastic Constant Matrix: (Units=GPa)
#
#
# Indices 1 2 3 4 5 6 
#
# 1 88.6081 6.6306 20.3467 0.0000 0.0000 0.0000
# 2 6.6306 44.1251 1.8719 0.0000 0.0000 0.0000
# 3 20.3467 1.8719 50.6575 0.0000 0.0000 0.0000
# 4 0.0000 0.0000 0.0000 -6.1170 0.0000 0.0000
# 5 0.0000 0.0000 0.0000 0.0000 8.2540 0.0000
# 6 0.0000 0.0000 0.0000 0.0000 0.0000 43.3871
#
#
#
# Elastic Compliance Matrix: (Units=1/GPa)
#
#
# Indices 1 2 3 4 5 6 
#
# 1 0.012555 -0.001675 -0.004981 0.000000 0.000000 0.000000
# 2 -0.001675 0.022922 -0.000174 0.000000 0.000000 0.000000
# 3 -0.004981 -0.000174 0.021747 0.000000 0.000000 0.000000
# 4 0.000000 0.000000 0.000000 -0.163479 0.000000 0.000000
# 5 0.000000 0.000000 0.000000 0.000000 0.121153 0.000000
# 6 0.000000 0.000000 0.000000 0.000000 0.000000 0.023048
#
#
# Mechanical properties :
#
#
# Convention : Reuss Voigt Hill
#
# Bulk Modulus (GPa) = 22.95488 26.78770 24.87129
# Shear Modulus (GPa) = 75.61070 19.40758 47.50914
#
# Velocity S-wave (km/s) = 5.89295 2.98557 4.67121
# Velocity P-wave (km/s) = 7.53958 4.91813 6.36527
#
# Compressibility (1/GPa) = 0.04356373
#
# Stress axis : x y z
#
# Youngs Moduli (GPa) = 79.65137 43.62630 45.98254
#
# Poissons Ratio (x) = 0.07309 0.22903
# Poissons Ratio (y) = 0.13344 0.00801
# Poissons Ratio (z) = 0.39672 0.00760
#
# Static dielectric constant tensor:
#      x y z
#    x 1.877830 0.000000 0.000000 
#    y 0.000000 1.853020 0.000000 
#    z 0.000000 0.000000 1.851130 
# 
# From -- ./inp_files/7308.got.cif
#   From: 2010.05.17/outbox.cif.g08.bks.cpg/sg68_4_cif.got.tgz:7308.got - 2010.06.03 18:57:09.
