data_PCOD9505435
_publ_section_title
;
Structure prediction by ZEFSAII (Michael W. Deem and Ramdas Pophale) SiO2 
 PCOD9505435
Probable space group: C C C A
;
_chemical_formula_sum "Si O2"
_cell_formula_units_Z 64
_cell_length_a 14.032457
_cell_length_b 32.772842
_cell_length_c 5.419455
_cell_angle_alpha 90.000000
_cell_angle_beta 90.000000
_cell_angle_gamma 90.000000
_cell_volume 2492.317913
_symmetry_space_group_name_H-M "C C C A"
_symmetry_group_IT_number 68
_space_group.IT_coordinate_system_code '2'
_symmetry_cell_setting 'orthorhombic'
loop_
_space_group_symop_operation_xyz
x,y,z
-x,1/2-y,z
x,1/2-y,1/2-z
-x,y,1/2-z
-x,-y,-z
x,1/2+y,-z
-x,1/2+y,1/2+z
x,-y,1/2+z
1/2+x,1/2+y,z
1/2-x,-y,z
1/2+x,-y,1/2-z
1/2-x,1/2+y,1/2-z
1/2-x,1/2-y,-z
1/2+x,y,-z
1/2-x,y,1/2+z
1/2+x,1/2-y,1/2+z
loop_
_atom_site_type_symbol
_atom_site_label
_atom_site_fract_x
_atom_site_fract_y
_atom_site_fract_z
Si Si1 0.141109 0.483287 0.111366
Si Si2 0.886404 0.609693 0.801843
Si Si3 0.891837 0.767397 0.004837
Si Si4 0.891047 0.141026 0.694432
O O1 0.097412 0.496232 0.371148
O O2 0.250000 0.500000 0.122534
O O3 0.135591 0.434788 0.093023
O O4 0.846543 0.613064 0.521030
O O5 0.000000 0.614821 0.750000
O O6 0.853885 0.640678 0.021774
O O7 0.845243 0.750000 0.250000
O O8 0.893734 0.815514 0.054784
O O9 0.000000 0.750000 0.005004
O O10 0.853153 0.750000 0.750000
O O11 0.000000 0.128091 0.750000
#
# Coordination Sequence:
#
# PCOD9505435 Si02
#       4
#    16  16  16  16
#     4  10  21  38  58  77  99 135 180 235 278 333
#     4  10  21  32  50  75 107 143 179 223 281 324
#     4  10  17  24  41  63  95 147 195 205 243 307
#     4  10  18  30  43  69 108 145 187 217 260 319
#
# _framework density 25.678906999999999
#
# number of rings (size 3 to 8) (size 9 to 14) (size 15 to 20)
#    0.000    2.000    2.500    3.000    7.000    1.000 
#    0.000    0.000    0.000    0.000    0.000    0.000 
#    0.000    0.000    0.000  315.000    0.000    0.000 
#
# Total GULP energy -178627.607482 kJ/mol
# GULP energy per Si atom -5582.112734 kJ/mol
# Density = 2.562046 g / cm^3
# Si number density = 25.678907 Si / 1000 Ang^3
#
#
#
# Elastic Constant Matrix: (Units=GPa)
#
#
# Indices 1 2 3 4 5 6 
#
# 1 112.8350 -16.5221 5.6447 0.0000 0.0000 0.0000
# 2 -16.5221 104.9869 40.0709 0.0000 0.0000 0.0000
# 3 5.6447 40.0709 275.3235 0.0000 0.0000 0.0000
# 4 0.0000 0.0000 0.0000 55.0742 0.0000 0.0000
# 5 0.0000 0.0000 0.0000 0.0000 -37.0159 0.0000
# 6 0.0000 0.0000 0.0000 0.0000 0.0000 -174.7784
#
#
#
# Elastic Compliance Matrix: (Units=1/GPa)
#
#
# Indices 1 2 3 4 5 6 
#
# 1 0.009117 0.001595 -0.000419 0.000000 0.000000 0.000000
# 2 0.001595 0.010364 -0.001541 0.000000 0.000000 0.000000
# 3 -0.000419 -0.001541 0.003865 0.000000 0.000000 0.000000
# 4 0.000000 0.000000 0.000000 0.018157 0.000000 0.000000
# 5 0.000000 0.000000 0.000000 0.000000 -0.027015 0.000000
# 6 0.000000 0.000000 0.000000 0.000000 0.000000 -0.005722
#
#
# Mechanical properties :
#
#
# Convention : Reuss Voigt Hill
#
# Bulk Modulus (GPa) = 44.21797 61.28140 52.74968
# Shear Modulus (GPa) = 293.50041 -0.41389 146.54326
#
# Velocity S-wave (km/s) = 10.70254 -0.40191 7.56250
# Velocity P-wave (km/s) = 13.03775 4.86836 9.84083
#
# Compressibility (1/GPa) = 0.02261524
#
# Stress axis : x y z
#
# Youngs Moduli (GPa) = 109.68563 96.48638 258.73385
#
# Poissons Ratio (x) = -0.15387 0.10841
# Poissons Ratio (y) = -0.17491 0.39874
# Poissons Ratio (z) = 0.04596 0.14870
#
# Static dielectric constant tensor:
#      x y z
#    x 1.994540 0.000000 0.000000 
#    y 0.000000 1.708060 0.000000 
#    z 0.000000 0.000000 2.075100 
# 
# From -- ./inp_files/1489.got.cif
#   From: 2010.05.17/outbox.cif.g08.bks.cpg/sg68_1_cif.got.tgz:1489.got - 2010.06.03 18:57:09.
