data_PCOD9505160
_publ_section_title
;
Structure prediction by ZEFSAII (Michael W. Deem and Ramdas Pophale) SiO2 
 PCOD9505160
Probable space group: C M M A
;
_chemical_formula_sum "Si O2"
_cell_formula_units_Z 56
_cell_length_a 30.000000
_cell_length_b 15.000000
_cell_length_c 12.000000
_cell_angle_alpha 90.000000
_cell_angle_beta 90.000000
_cell_angle_gamma 90.000000
_cell_volume 5400.000000
_symmetry_space_group_name_H-M "C M M A"
_symmetry_group_IT_number 67
_symmetry_cell_setting 'orthorhombic'
loop_
_space_group_symop_operation_xyz
x,y,z
-x,1/2-y,z
x,-y,-z
-x,1/2+y,-z
-x,-y,-z
x,1/2+y,-z
-x,y,z
x,1/2-y,z
1/2+x,1/2+y,z
1/2-x,-y,z
1/2+x,1/2-y,-z
1/2-x,y,-z
1/2-x,1/2-y,-z
1/2+x,y,-z
1/2-x,1/2+y,z
1/2+x,-y,z
loop_
_atom_site_type_symbol
_atom_site_label
_atom_site_fract_x
_atom_site_fract_y
_atom_site_fract_z
Si Si1 0.285188 0.859083 0.182097
Si Si2 0.637867 0.644540 0.027994
Si Si3 0.289456 0.149883 0.571186
Si Si4 0.184905 0.644372 0.204186
Si Si5 0.550100 0.857511 0.691933
Si Si6 0.450913 0.640696 0.951263
Si Si7 0.139179 0.414134 0.577837
O O1 0.286139 0.750000 0.170354
O O2 0.323043 0.895970 0.101544
O O3 0.296238 0.888335 0.307162
O O4 0.233920 0.883077 0.163477
O O5 0.635170 0.750000 0.057014
O O6 0.652448 0.639246 0.900089
O O7 0.588196 0.607405 0.031150
O O8 0.273049 0.250000 0.595225
O O9 0.250000 0.105697 0.500000
O O10 0.334186 0.153720 0.500949
O O11 0.186391 0.750000 0.237377
O O12 0.167369 0.588935 0.308132
O O13 0.500000 0.882709 0.656882
O O14 0.553065 0.750000 0.690591
O O15 0.555495 0.884650 0.821620
O O16 0.589222 0.893150 0.614635
O O17 0.500000 0.613465 0.987412
O O18 0.449561 0.750000 0.951476
O O19 0.141142 0.500000 0.500000
#
# Coordination Sequence:
#
# PCOD9505160 Si02
#       7
#    16  16  16  16  16  16  16
#     4   9  17  28  46  73  99 130 173 219 269 320
#     4   9  15  24  45  75 103 126 163 227 280 319
#     4  10  19  34  53  70  98 142 184 221 264 318
#     4  10  17  30  49  72 103 136 175 223 278 327
#     4   9  17  32  54  77 102 137 180 226 279 334
#     4   8  13  22  41  71 103 131 161 208 275 334
#     4  12  23  32  48  75 107 142 182 226 273 321
#
# _framework density 10.370369999999999
#
# number of rings (size 3 to 8) (size 9 to 14) (size 15 to 20)
#    0.000    2.429    2.857    2.571    0.000    2.286 
#    0.000    0.000    0.000    1.714    0.000    6.000 
#    0.000    2.286    0.000    0.000    0.000    2.286 
#
# Total GULP energy -312131.913385 kJ/mol
# GULP energy per Si atom -5573.784168 kJ/mol
# Density = 1.034677 g / cm^3
# Si number density = 10.370370 Si / 1000 Ang^3
#
#
#
# Elastic Constant Matrix: (Units=GPa)
#
#
# Indices 1 2 3 4 5 6 
#
# 1 196.5340 21.2620 64.8431 0.0000 0.0000 0.0000
# 2 21.2620 40.1638 10.9329 0.0000 0.0000 0.0000
# 3 64.8431 10.9329 39.8887 0.0000 0.0000 0.0000
# 4 0.0000 0.0000 0.0000 6.2239 0.0000 0.0000
# 5 0.0000 0.0000 0.0000 0.0000 38.2318 0.0000
# 6 0.0000 0.0000 0.0000 0.0000 0.0000 27.4315
#
#
#
# Elastic Compliance Matrix: (Units=1/GPa)
#
#
# Indices 1 2 3 4 5 6 
#
# 1 0.011014 -0.001034 -0.017620 0.000000 0.000000 0.000000
# 2 -0.001034 0.027002 -0.005720 0.000000 0.000000 0.000000
# 3 -0.017620 -0.005720 0.055281 0.000000 0.000000 0.000000
# 4 0.000000 0.000000 0.000000 0.160672 0.000000 0.000000
# 5 0.000000 0.000000 0.000000 0.000000 0.026156 0.000000
# 6 0.000000 0.000000 0.000000 0.000000 0.000000 0.036454
#
#
# Mechanical properties :
#
#
# Convention : Reuss Voigt Hill
#
# Bulk Modulus (GPa) = 22.44749 52.29585 37.37167
# Shear Modulus (GPa) = 13.15174 26.34733 19.74953
#
# Velocity S-wave (km/s) = 2.52087 3.56802 3.08914
# Velocity P-wave (km/s) = 4.39539 6.49947 5.54809
#
# Compressibility (1/GPa) = 0.04454841
#
# Stress axis : x y z
#
# Youngs Moduli (GPa) = 90.79726 37.03368 18.08939
#
# Poissons Ratio (x) = 0.03829 0.31874
# Poissons Ratio (y) = 0.09389 0.10347
# Poissons Ratio (z) = 1.59987 0.21183
#
# Static dielectric constant tensor:
#      x y z
#    x 1.783770 0.000000 0.000000 
#    y 0.000000 1.815720 0.000000 
#    z 0.000000 0.000000 1.739030 
# 
# From -- ./inp_files/18651.got.cif
#   From: 2010.05.17/outbox.ucp.g08.bks.cvg/sg67_10_cif.got.tgz:18651.got - 2010.06.11 16:47:20.
