data_PCOD9505711
_publ_section_title
;
Structure prediction by ZEFSAII (Michael W. Deem and Ramdas Pophale) SiO2 
 PCOD9505711
Probable space group: C C C A
;
_chemical_formula_sum "Si O2"
_cell_formula_units_Z 96
_cell_length_a 18.830089
_cell_length_b 21.275743
_cell_length_c 11.888388
_cell_angle_alpha 90.000000
_cell_angle_beta 90.000000
_cell_angle_gamma 90.000000
_cell_volume 4762.775150
_symmetry_space_group_name_H-M "C C C A"
_symmetry_group_IT_number 68
_space_group.IT_coordinate_system_code '2'
_symmetry_cell_setting 'orthorhombic'
loop_
_space_group_symop_operation_xyz
x,y,z
-x,1/2-y,z
x,1/2-y,1/2-z
-x,y,1/2-z
-x,-y,-z
x,1/2+y,-z
-x,1/2+y,1/2+z
x,-y,1/2+z
1/2+x,1/2+y,z
1/2-x,-y,z
1/2+x,-y,1/2-z
1/2-x,1/2+y,1/2-z
1/2-x,1/2-y,-z
1/2+x,y,-z
1/2-x,y,1/2+z
1/2+x,1/2-y,1/2+z
loop_
_atom_site_type_symbol
_atom_site_label
_atom_site_fract_x
_atom_site_fract_y
_atom_site_fract_z
Si Si1 0.457691 0.455832 0.351019
Si Si2 0.826841 0.522036 0.297158
Si Si3 0.707455 0.161030 0.215870
Si Si4 0.374477 0.691992 0.169355
Si Si5 0.566859 0.566677 0.404157
Si Si6 0.678104 0.771425 0.936409
O O1 0.500000 0.421597 0.250000
O O2 0.382309 0.476998 0.304181
O O3 0.504055 0.518643 0.372592
O O4 0.447748 0.418514 0.465650
O O5 0.750000 0.500000 0.261098
O O6 0.815571 0.594034 0.331031
O O7 0.862076 0.475971 0.388735
O O8 0.792257 0.173402 0.200363
O O9 0.664360 0.212613 0.144718
O O10 0.691332 0.171716 0.348441
O O11 0.394735 0.750000 0.250000
O O12 0.421199 0.628654 0.170167
O O13 0.373497 0.713731 0.039001
O O14 0.750000 0.750000 0.000000
#
# Coordination Sequence:
#
# PCOD9505711 Si02
#       6
#    16  16  16  16  16  16
#     4   9  21  42  62  85 121 176 208 265 328 392
#     4  11  21  35  58  97 123 154 211 273 323 385
#     4  10  18  33  52  88 130 167 211 261 331 383
#     4  11  19  34  58  92 131 172 212 264 321 396
#     4  10  21  40  61  91 128 174 220 262 333 391
#     4   9  17  32  52  76 127 173 203 253 319 382
#
# _framework density 20.156314999999999
#
# number of rings (size 3 to 8) (size 9 to 14) (size 15 to 20)
#    0.000    2.000    5.000    1.000    0.000    0.667 
#   12.000    0.000    0.000    4.500    0.000   57.167 
#    0.000    0.000    0.000    0.000    0.000    0.000 
#
# Total GULP energy -267399.016423 kJ/mol
# GULP energy per Si atom -5570.812842 kJ/mol
# Density = 2.011044 g / cm^3
# Si number density = 20.156315 Si / 1000 Ang^3
#
#
#
# Elastic Constant Matrix: (Units=GPa)
#
#
# Indices 1 2 3 4 5 6 
#
# 1 85.0446 22.2619 11.8072 0.0000 0.0000 0.0000
# 2 22.2619 118.6075 21.8299 0.0000 0.0000 0.0000
# 3 11.8072 21.8299 107.4112 0.0000 0.0000 0.0000
# 4 0.0000 0.0000 0.0000 8.8635 0.0000 0.0000
# 5 0.0000 0.0000 0.0000 0.0000 4.2951 0.0000
# 6 0.0000 0.0000 0.0000 0.0000 0.0000 1.9336
#
#
#
# Elastic Compliance Matrix: (Units=1/GPa)
#
#
# Indices 1 2 3 4 5 6 
#
# 1 0.012455 -0.002167 -0.000929 0.000000 0.000000 0.000000
# 2 -0.002167 0.009136 -0.001619 0.000000 0.000000 0.000000
# 3 -0.000929 -0.001619 0.009741 0.000000 0.000000 0.000000
# 4 0.000000 0.000000 0.000000 0.112823 0.000000 0.000000
# 5 0.000000 0.000000 0.000000 0.000000 0.232824 0.000000
# 6 0.000000 0.000000 0.000000 0.000000 0.000000 0.517175
#
#
# Mechanical properties :
#
#
# Convention : Reuss Voigt Hill
#
# Bulk Modulus (GPa) = 45.65485 46.98457 46.31971
# Shear Modulus (GPa) = 5.48918 20.02938 12.75928
#
# Velocity S-wave (km/s) = 1.65203 3.15572 2.51871
# Velocity P-wave (km/s) = 5.13211 6.05300 5.61148
#
# Compressibility (1/GPa) = 0.02190348
#
# Stress axis : x y z
#
# Youngs Moduli (GPa) = 80.29127 109.46017 102.65833
#
# Poissons Ratio (x) = 0.23717 0.09534
# Poissons Ratio (y) = 0.17397 0.16616
# Poissons Ratio (z) = 0.07457 0.17717
#
# Static dielectric constant tensor:
#      x y z
#    x 1.717610 0.000000 0.000000 
#    y 0.000000 1.764880 0.000000 
#    z 0.000000 0.000000 1.761400 
# 
# From -- ./inp_files/15582.got.cif
#   From: 2010.05.17/outbox.cif.g08.bks.cpg/sg68_8_cif.got.tgz:15582.got - 2010.06.03 18:57:09.
