data_PCOD9505166
_publ_section_title
;
Structure prediction by ZEFSAII (Michael W. Deem and Ramdas Pophale) SiO2 
 PCOD9505166
Probable space group: C M M A
;
_chemical_formula_sum "Si O2"
_cell_formula_units_Z 64
_cell_length_a 18.000000
_cell_length_b 18.000000
_cell_length_c 24.000000
_cell_angle_alpha 90.000000
_cell_angle_beta 90.000000
_cell_angle_gamma 90.000000
_cell_volume 7776.000000
_symmetry_space_group_name_H-M "C M M A"
_symmetry_group_IT_number 67
_symmetry_cell_setting 'orthorhombic'
loop_
_space_group_symop_operation_xyz
x,y,z
-x,1/2-y,z
x,-y,-z
-x,1/2+y,-z
-x,-y,-z
x,1/2+y,-z
-x,y,z
x,1/2-y,z
1/2+x,1/2+y,z
1/2-x,-y,z
1/2+x,1/2-y,-z
1/2-x,y,-z
1/2-x,1/2-y,-z
1/2+x,y,-z
1/2-x,1/2+y,z
1/2+x,-y,z
loop_
_atom_site_type_symbol
_atom_site_label
_atom_site_fract_x
_atom_site_fract_y
_atom_site_fract_z
Si Si1 0.212266 0.162735 0.823390
Si Si2 0.087296 0.458399 0.824986
Si Si3 0.831612 0.333163 0.474403
Si Si4 0.673435 0.954029 0.376305
Si Si5 0.082284 0.559326 0.449004
Si Si6 0.913127 0.460611 0.058749
Si Si7 0.790341 0.663059 0.941440
Si Si8 0.815145 0.062011 0.248279
O O1 0.199968 0.250000 0.813822
O O2 0.138996 0.113028 0.814001
O O3 0.238060 0.152132 0.887567
O O4 0.278019 0.131168 0.783798
O O5 0.098421 0.484714 0.888911
O O6 0.117826 0.525252 0.786274
O O7 0.000000 0.444849 0.816004
O O8 0.857609 0.250000 0.460740
O O9 0.750000 0.329506 0.500000
O O10 0.830687 0.386742 0.420522
O O11 0.876514 0.371184 0.524453
O O12 0.664949 0.926565 0.313012
O O13 0.750000 0.000000 0.381717
O O14 0.615213 0.015908 0.396610
O O15 0.083140 0.500000 0.500000
O O16 0.000000 0.582154 0.435589
O O17 0.860362 0.390220 0.065073
O O18 0.000000 0.439505 0.058531
O O19 0.896575 0.500000 0.000000
O O20 0.811430 0.750000 0.942705
O O21 0.750000 0.646093 0.000000
O O22 0.750000 0.000000 0.247832
#
# Coordination Sequence:
#
# PCOD9505166 Si02
#       8
#    16  16  16  16  16  16  16  16
#     4  10  20  35  54  78 109 141 178 225 275 325
#     4  10  20  35  54  77 107 142 182 226 274 325
#     4  10  19  31  51  79 110 140 174 214 260 313
#     4  10  18  32  54  78 102 138 179 221 258 305
#     4   9  18  31  50  75 102 135 171 210 258 308
#     4  10  20  33  52  78 105 138 181 230 281 330
#     4  10  20  33  52  78 106 140 180 224 277 335
#     4   9  19  34  54  77 103 139 183 225 263 312
#
# _framework density 8.2304530000000007
#
# number of rings (size 3 to 8) (size 9 to 14) (size 15 to 20)
#    0.000    2.250    2.500    0.750    0.000    3.000 
#    0.000    0.000    0.000    4.875    0.000    3.500 
#    0.000    0.000    0.000    0.000    0.000    0.000 
#
# Total GULP energy -356521.525682 kJ/mol
# GULP energy per Si atom -5570.648839 kJ/mol
# Density = 0.821172 g / cm^3
# Si number density = 8.230453 Si / 1000 Ang^3
#
#
#
# Elastic Constant Matrix: (Units=GPa)
#
#
# Indices 1 2 3 4 5 6 
#
# 1 96.5386 65.4933 38.1671 0.0000 0.0000 0.0000
# 2 65.4933 108.5384 41.7342 0.0000 0.0000 0.0000
# 3 38.1671 41.7342 106.7985 0.0000 0.0000 0.0000
# 4 0.0000 0.0000 0.0000 14.5681 0.0000 0.0000
# 5 0.0000 0.0000 0.0000 0.0000 -39.7541 0.0000
# 6 0.0000 0.0000 0.0000 0.0000 0.0000 263.6791
#
#
#
# Elastic Compliance Matrix: (Units=1/GPa)
#
#
# Indices 1 2 3 4 5 6 
#
# 1 0.018129 -0.009942 -0.002594 0.000000 0.000000 0.000000
# 2 -0.009942 0.016294 -0.002815 0.000000 0.000000 0.000000
# 3 -0.002594 -0.002815 0.011390 0.000000 0.000000 0.000000
# 4 0.000000 0.000000 0.000000 0.068643 0.000000 0.000000
# 5 0.000000 0.000000 0.000000 0.000000 -0.025155 0.000000
# 6 0.000000 0.000000 0.000000 0.000000 0.000000 0.003792
#
#
# Mechanical properties :
#
#
# Convention : Reuss Voigt Hill
#
# Bulk Modulus (GPa) = 66.16679 66.96273 66.56476
# Shear Modulus (GPa) = 38.81015 58.79734 48.80374
#
# Velocity S-wave (km/s) = 4.86090 5.98305 5.45093
# Velocity P-wave (km/s) = 8.47278 9.40731 8.95225
#
# Compressibility (1/GPa) = 0.01511332
#
# Stress axis : x y z
#
# Youngs Moduli (GPa) = 55.16143 61.37043 87.79451
#
# Poissons Ratio (x) = 0.61013 0.22772
# Poissons Ratio (y) = 0.54840 0.24710
# Poissons Ratio (z) = 0.14308 0.17273
#
# Static dielectric constant tensor:
#      x y z
#    x 1.561500 0.000000 0.000000 
#    y 0.000000 1.573940 0.000000 
#    z 0.000000 0.000000 1.548620 
# 
# From -- ./inp_files/42243.got.cif
#   From: 2010.05.17/outbox.ucp.g08.bks.cvg/sg67_22_cif.got.tgz:42243.got - 2010.06.11 16:47:20.
