data_PCOD9505130
_publ_section_title
;
Structure prediction by ZEFSAII (Michael W. Deem and Ramdas Pophale) SiO2 
 PCOD9505130
Probable space group: C M M A
;
_chemical_formula_sum "Si O2"
_cell_formula_units_Z 128
_cell_length_a 14.519715
_cell_length_b 20.802901
_cell_length_c 20.751964
_cell_angle_alpha 90.000000
_cell_angle_beta 90.000000
_cell_angle_gamma 90.000000
_cell_volume 6268.176250
_symmetry_space_group_name_H-M "C M M A"
_symmetry_group_IT_number 67
_symmetry_cell_setting 'orthorhombic'
loop_
_space_group_symop_operation_xyz
x,y,z
-x,1/2-y,z
x,-y,-z
-x,1/2+y,-z
-x,-y,-z
x,1/2+y,-z
-x,y,z
x,1/2-y,z
1/2+x,1/2+y,z
1/2-x,-y,z
1/2+x,1/2-y,-z
1/2-x,y,-z
1/2-x,1/2-y,-z
1/2+x,y,-z
1/2-x,1/2+y,z
1/2+x,-y,z
loop_
_atom_site_type_symbol
_atom_site_label
_atom_site_fract_x
_atom_site_fract_y
_atom_site_fract_z
Si Si1 0.387725 0.931504 0.530790
Si Si2 0.354310 0.928764 0.817858
Si Si3 0.635392 0.823172 0.066689
Si Si4 0.887152 0.677577 0.569273
Si Si5 0.107843 0.404637 0.313103
Si Si6 0.136081 0.425570 0.169492
Si Si7 0.358929 0.322813 0.081121
Si Si8 0.388237 0.050415 0.325857
O O1 0.500000 0.932668 0.531143
O O2 0.359486 0.873163 0.485210
O O3 0.357857 0.923515 0.604839
O O4 0.359560 0.000000 0.500000
O O5 0.246253 0.931137 0.833755
O O6 0.390466 0.874193 0.865958
O O7 0.361296 0.915989 0.741150
O O8 0.395790 0.000117 0.828959
O O9 0.606233 0.750000 0.082649
O O10 0.602496 0.880011 0.112699
O O11 0.746954 0.823203 0.075188
O O12 0.611025 0.836012 0.992278
O O13 0.854359 0.750000 0.559308
O O14 0.855944 0.648334 0.637915
O O15 0.000000 0.679845 0.568778
O O16 0.115258 0.391949 0.237596
O O17 0.146130 0.476416 0.322889
O O18 0.000000 0.410387 0.329241
O O19 0.385868 0.250000 0.098267
O O20 0.500000 0.049883 0.325592
#
# Coordination Sequence:
#
# PCOD9505130 Si02
#       8
#    16  16  16  16  16  16  16  16
#     4   9  14  24  43  63  80 106 146 181 208 246
#     4   9  17  28  42  65  90 111 137 175 219 253
#     4   8  14  25  42  63  84 110 145 178 210 251
#     4   9  16  25  39  63  90 110 136 178 217 245
#     4   9  16  27  42  61  85 114 142 168 208 259
#     4   9  17  27  42  65  90 112 135 176 218 250
#     4   8  14  26  43  61  83 111 145 181 211 251
#     4   9  16  27  45  65  84 110 145 178 208 254
#
# _framework density 20.420611999999998
#
# number of rings (size 3 to 8) (size 9 to 14) (size 15 to 20)
#    0.000    3.250    1.250    0.750    0.000    1.000 
#    0.000    3.125    0.000    2.625    0.000    6.125 
#    0.000    0.000    0.000    0.000    0.000    0.000 
#
# Total GULP energy -356834.107210 kJ/mol
# GULP energy per Si atom -5575.532925 kJ/mol
# Density = 2.037413 g / cm^3
# Si number density = 20.420612 Si / 1000 Ang^3
#
#
#
# Elastic Constant Matrix: (Units=GPa)
#
#
# Indices 1 2 3 4 5 6 
#
# 1 65.3022 7.9312 0.4069 0.0000 0.0000 0.0000
# 2 7.9312 154.5927 134.8604 0.0000 0.0000 0.0000
# 3 0.4069 134.8604 192.7854 0.0000 0.0000 0.0000
# 4 0.0000 0.0000 0.0000 34.6194 0.0000 0.0000
# 5 0.0000 0.0000 0.0000 0.0000 18.7989 0.0000
# 6 0.0000 0.0000 0.0000 0.0000 0.0000 -3.7159
#
#
#
# Elastic Compliance Matrix: (Units=1/GPa)
#
#
# Indices 1 2 3 4 5 6 
#
# 1 0.015545 -0.001973 0.001347 0.000000 0.000000 0.000000
# 2 -0.001973 0.016847 -0.011781 0.000000 0.000000 0.000000
# 3 0.001347 -0.011781 0.013426 0.000000 0.000000 0.000000
# 4 0.000000 0.000000 0.000000 0.028886 0.000000 0.000000
# 5 0.000000 0.000000 0.000000 0.000000 0.053195 0.000000
# 6 0.000000 0.000000 0.000000 0.000000 0.000000 -0.269115
#
#
# Mechanical properties :
#
#
# Convention : Reuss Voigt Hill
#
# Bulk Modulus (GPa) = 47.60967 77.67526 62.64247
# Shear Modulus (GPa) = -45.70253 27.90593 -8.89830
#
# Velocity S-wave (km/s) = -4.73594 3.70071 -2.08973
# Velocity P-wave (km/s) = 2.55743 7.50870 4.99200
#
# Compressibility (1/GPa) = 0.02100413
#
# Stress axis : x y z
#
# Youngs Moduli (GPa) = 64.33098 59.35746 74.48508
#
# Poissons Ratio (x) = 0.11710 -0.10035
# Poissons Ratio (y) = 0.12691 0.87751
# Poissons Ratio (z) = -0.08667 0.69929
#
# Static dielectric constant tensor:
#      x y z
#    x 1.817990 0.000000 0.000000 
#    y 0.000000 1.702370 0.000000 
#    z 0.000000 0.000000 1.714510 
# 
# From -- ./inp_files/35269.got.cif
#   From: 2010.05.17/outbox.cif.g08.bks.cpg/sg67_18_cif.got.tgz:35269.got - 2010.06.03 18:28:57.
