data_PCOD9505870
_publ_section_title
;
Structure prediction by ZEFSAII (Michael W. Deem and Ramdas Pophale) SiO2 
 PCOD9505870
Probable space group: C C C A
;
_chemical_formula_sum "Si O2"
_cell_formula_units_Z 120
_cell_length_a 22.874440
_cell_length_b 11.300206
_cell_length_c 19.492536
_cell_angle_alpha 90.000000
_cell_angle_beta 90.000000
_cell_angle_gamma 90.000000
_cell_volume 5038.545402
_symmetry_space_group_name_H-M "C C C A"
_symmetry_group_IT_number 68
_space_group.IT_coordinate_system_code '2'
_symmetry_cell_setting 'orthorhombic'
loop_
_space_group_symop_operation_xyz
x,y,z
-x,1/2-y,z
x,1/2-y,1/2-z
-x,y,1/2-z
-x,-y,-z
x,1/2+y,-z
-x,1/2+y,1/2+z
x,-y,1/2+z
1/2+x,1/2+y,z
1/2-x,-y,z
1/2+x,-y,1/2-z
1/2-x,1/2+y,1/2-z
1/2-x,1/2-y,-z
1/2+x,y,-z
1/2-x,y,1/2+z
1/2+x,1/2-y,1/2+z
loop_
_atom_site_type_symbol
_atom_site_label
_atom_site_fract_x
_atom_site_fract_y
_atom_site_fract_z
Si Si1 0.306117 0.553605 0.931026
Si Si2 0.594457 0.933707 0.619598
Si Si3 0.693541 0.731888 0.832061
Si Si4 0.142418 0.606541 0.819264
Si Si5 0.418243 0.410646 0.494205
Si Si6 0.318118 0.128087 0.824643
Si Si7 0.028769 0.995738 0.645859
Si Si8 0.500000 0.250000 0.924213
O O1 0.250000 0.500000 0.966395
O O2 0.292776 0.646391 0.871138
O O3 0.336749 0.445725 0.891178
O O4 0.350172 0.610916 0.983617
O O5 0.632917 0.818531 0.636349
O O6 0.575437 0.971957 0.542116
O O7 0.641277 0.035457 0.637439
O O8 0.533521 0.944230 0.661723
O O9 0.687863 0.750000 0.750000
O O10 0.751375 0.652239 0.845794
O O11 0.144993 0.748509 0.826005
O O12 0.184009 0.585531 0.754512
O O13 0.082684 0.533442 0.803685
O O14 0.445836 0.434232 0.419794
O O15 0.448448 0.299603 0.528896
O O16 0.015629 0.862370 0.621109
#
# Coordination Sequence:
#
# PCOD9505870 Si02
#       8
#    16  16  16  16  16  16  16   8
#     4  11  22  40  62  92 129 170 221 270 336 399
#     4  11  24  41  63  98 128 168 222 271 335 392
#     4  12  24  42  67  95 130 179 223 276 334 408
#     4  10  20  40  64  93 122 168 216 269 330 391
#     4  10  24  39  64  93 130 173 216 269 330 401
#     4  11  21  39  66  92 127 167 221 274 329 396
#     4  10  22  40  63  94 131 162 216 269 327 395
#     4  10  18  38  66  87 127 170 212 256 328 386
#
# _framework density 23.816396000000001
#
# number of rings (size 3 to 8) (size 9 to 14) (size 15 to 20)
#    0.000    1.333    2.667    4.400    3.733    1.600 
#    0.000    2.667    0.000    3.200    0.000    0.000 
#    0.000    0.000    0.000    0.000    0.000    0.000 
#
# Total GULP energy -335149.279432 kJ/mol
# GULP energy per Si atom -5585.821324 kJ/mol
# Density = 2.376219 g / cm^3
# Si number density = 23.816396 Si / 1000 Ang^3
#
#
#
# Elastic Constant Matrix: (Units=GPa)
#
#
# Indices 1 2 3 4 5 6 
#
# 1 157.1419 14.8883 3.4255 0.0000 0.0000 0.0000
# 2 14.8883 41.1502 -8.3440 0.0000 0.0000 0.0000
# 3 3.4255 -8.3440 23.7009 0.0000 0.0000 0.0000
# 4 0.0000 0.0000 0.0000 28.4761 0.0000 0.0000
# 5 0.0000 0.0000 0.0000 0.0000 28.2766 0.0000
# 6 0.0000 0.0000 0.0000 0.0000 0.0000 39.5788
#
#
#
# Elastic Compliance Matrix: (Units=1/GPa)
#
#
# Indices 1 2 3 4 5 6 
#
# 1 0.006673 -0.002810 -0.001954 0.000000 0.000000 0.000000
# 2 -0.002810 0.027353 0.010036 0.000000 0.000000 0.000000
# 3 -0.001954 0.010036 0.046008 0.000000 0.000000 0.000000
# 4 0.000000 0.000000 0.000000 0.035117 0.000000 0.000000
# 5 0.000000 0.000000 0.000000 0.000000 0.035365 0.000000
# 6 0.000000 0.000000 0.000000 0.000000 0.000000 0.025266
#
#
# Mechanical properties :
#
#
# Convention : Reuss Voigt Hill
#
# Bulk Modulus (GPa) = 11.04030 26.88141 18.96086
# Shear Modulus (GPa) = 25.58455 33.40117 29.49286
#
# Velocity S-wave (km/s) = 3.28112 3.74899 3.52283
# Velocity P-wave (km/s) = 4.35889 5.48191 4.95234
#
# Compressibility (1/GPa) = 0.09057722
#
# Stress axis : x y z
#
# Youngs Moduli (GPa) = 149.86828 36.55905 21.73534
#
# Poissons Ratio (x) = 0.10274 0.04247
# Poissons Ratio (y) = 0.42118 -0.21813
# Poissons Ratio (z) = 0.29281 -0.36690
#
# Static dielectric constant tensor:
#      x y z
#    x 2.011780 0.000000 0.000000 
#    y 0.000000 1.897920 0.000000 
#    z 0.000000 0.000000 1.946140 
# 
# From -- ./inp_files/46730.got.cif
#   From: 2010.05.17/outbox.cif.g08.bks.cpg/sg68_24_cif.got.tgz:46730.got - 2010.06.03 18:57:09.
