data_PCOD9505715
_publ_section_title
;
Structure prediction by ZEFSAII (Michael W. Deem and Ramdas Pophale) SiO2 
 PCOD9505715
Probable space group: C C C A
;
_chemical_formula_sum "Si O2"
_cell_formula_units_Z 84
_cell_length_a 23.971081
_cell_length_b 9.157596
_cell_length_c 17.663597
_cell_angle_alpha 90.000000
_cell_angle_beta 90.000000
_cell_angle_gamma 90.000000
_cell_volume 3877.468221
_symmetry_space_group_name_H-M "C C C A"
_symmetry_group_IT_number 68
_space_group.IT_coordinate_system_code '2'
_symmetry_cell_setting 'orthorhombic'
loop_
_space_group_symop_operation_xyz
x,y,z
-x,1/2-y,z
x,1/2-y,1/2-z
-x,y,1/2-z
-x,-y,-z
x,1/2+y,-z
-x,1/2+y,1/2+z
x,-y,1/2+z
1/2+x,1/2+y,z
1/2-x,-y,z
1/2+x,-y,1/2-z
1/2-x,1/2+y,1/2-z
1/2-x,1/2-y,-z
1/2+x,y,-z
1/2-x,y,1/2+z
1/2+x,1/2-y,1/2+z
loop_
_atom_site_type_symbol
_atom_site_label
_atom_site_fract_x
_atom_site_fract_y
_atom_site_fract_z
Si Si1 0.420545 0.488586 0.764240
Si Si2 0.229745 0.346528 0.891214
Si Si3 0.438855 0.275613 0.624556
Si Si4 0.171842 0.137361 0.451096
Si Si5 0.191756 0.574944 0.183733
Si Si6 0.000000 0.750000 0.250000
O O1 0.444187 0.402025 0.689534
O O2 0.420204 0.369465 0.830301
O O3 0.358884 0.530214 0.736865
O O4 0.456612 0.631713 0.785651
O O5 0.250000 0.500000 0.862063
O O6 0.283936 0.254519 0.917963
O O7 0.199621 0.245207 0.830954
O O8 0.189803 0.379021 0.962556
O O9 0.500000 0.250000 0.591432
O O10 0.391109 0.313757 0.564889
O O11 0.179671 0.992019 0.400803
O O12 0.250000 0.500000 0.204568
#
# Coordination Sequence:
#
# PCOD9505715 Si02
#       6
#    16  16  16  16  16   4
#     4  10  20  35  58  81 115 151 196 245 297 356
#     4  10  18  33  56  86 119 154 188 233 301 353
#     4  10  18  37  58  82 107 155 204 236 286 357
#     4   9  18  31  58  82 111 151 195 236 285 352
#     4   9  19  36  56  83 113 152 195 245 292 351
#     4  12  20  34  52  80 112 154 184 238 300 356
#
# _framework density 21.663620999999999
#
# number of rings (size 3 to 8) (size 9 to 14) (size 15 to 20)
#    0.000    2.286    1.905    3.429    0.000    1.524 
#    0.000    6.667    2.095    3.429    0.000    0.000 
#    0.000    0.000    0.000    0.000    0.000    0.000 
#
# Total GULP energy -234712.567854 kJ/mol
# GULP energy per Si atom -5588.394473 kJ/mol
# Density = 2.161431 g / cm^3
# Si number density = 21.663621 Si / 1000 Ang^3
#
#
#
# Elastic Constant Matrix: (Units=GPa)
#
#
# Indices 1 2 3 4 5 6 
#
# 1 165.8983 42.1746 50.6244 0.0000 0.0000 0.0000
# 2 42.1746 152.0290 35.4680 0.0000 0.0000 0.0000
# 3 50.6244 35.4680 91.8471 0.0000 0.0000 0.0000
# 4 0.0000 0.0000 0.0000 6.4031 0.0000 0.0000
# 5 0.0000 0.0000 0.0000 0.0000 21.7309 0.0000
# 6 0.0000 0.0000 0.0000 0.0000 0.0000 37.2960
#
#
#
# Elastic Compliance Matrix: (Units=1/GPa)
#
#
# Indices 1 2 3 4 5 6 
#
# 1 0.007446 -0.001218 -0.003634 0.000000 0.000000 0.000000
# 2 -0.001218 0.007428 -0.002197 0.000000 0.000000 0.000000
# 3 -0.003634 -0.002197 0.013739 0.000000 0.000000 0.000000
# 4 0.000000 0.000000 0.000000 0.156173 0.000000 0.000000
# 5 0.000000 0.000000 0.000000 0.000000 0.046017 0.000000
# 6 0.000000 0.000000 0.000000 0.000000 0.000000 0.026813
#
#
# Mechanical properties :
#
#
# Convention : Reuss Voigt Hill
#
# Bulk Modulus (GPa) = 68.89209 74.03428 71.46318
# Shear Modulus (GPa) = 18.07968 31.85318 24.96643
#
# Velocity S-wave (km/s) = 2.89202 3.83868 3.39847
# Velocity P-wave (km/s) = 6.55908 7.34138 6.96123
#
# Compressibility (1/GPa) = 0.01451546
#
# Stress axis : x y z
#
# Youngs Moduli (GPa) = 134.29457 134.62293 72.78492
#
# Poissons Ratio (x) = 0.16396 0.26450
# Poissons Ratio (y) = 0.16356 0.15992
# Poissons Ratio (z) = 0.48802 0.29579
#
# Static dielectric constant tensor:
#      x y z
#    x 1.787810 0.000000 0.000000 
#    y 0.000000 1.803800 0.000000 
#    z 0.000000 0.000000 1.770970 
# 
# From -- ./inp_files/40675.got.cif
#   From: 2010.05.17/outbox.cif.g08.bks.cpg/sg68_21_cif.got.tgz:40675.got - 2010.06.03 18:57:09.
