data_PCOD9505370
_publ_section_title
;
Structure prediction by ZEFSAII (Michael W. Deem and Ramdas Pophale) SiO2 
 PCOD9505370
Probable space group: C C C A
;
_chemical_formula_sum "Si O2"
_cell_formula_units_Z 88
_cell_length_a 34.239915
_cell_length_b 5.289663
_cell_length_c 31.448683
_cell_angle_alpha 90.000000
_cell_angle_beta 90.000000
_cell_angle_gamma 90.000000
_cell_volume 5695.910350
_symmetry_space_group_name_H-M "C C C A"
_symmetry_group_IT_number 68
_space_group.IT_coordinate_system_code '2'
_symmetry_cell_setting 'orthorhombic'
loop_
_space_group_symop_operation_xyz
x,y,z
-x,1/2-y,z
x,1/2-y,1/2-z
-x,y,1/2-z
-x,-y,-z
x,1/2+y,-z
-x,1/2+y,1/2+z
x,-y,1/2+z
1/2+x,1/2+y,z
1/2-x,-y,z
1/2+x,-y,1/2-z
1/2-x,1/2+y,1/2-z
1/2-x,1/2-y,-z
1/2+x,y,-z
1/2-x,y,1/2+z
1/2+x,1/2-y,1/2+z
loop_
_atom_site_type_symbol
_atom_site_label
_atom_site_fract_x
_atom_site_fract_y
_atom_site_fract_z
Si Si1 0.767364 0.752201 0.548222
Si Si2 0.000000 0.750000 0.528735
Si Si3 0.044953 0.782130 0.135290
Si Si4 0.455742 0.990989 0.731086
Si Si5 0.358581 0.783333 0.471567
Si Si6 0.072255 0.720735 0.593032
O O1 0.750000 0.500000 0.568507
O O2 0.750000 0.750000 0.500000
O O3 0.813661 0.771120 0.543692
O O4 0.750000 0.000000 0.569641
O O5 0.962462 0.783754 0.558592
O O6 0.000000 0.500000 0.500000
O O7 0.063692 0.503827 0.127441
O O8 0.000000 0.750000 0.120107
O O9 0.041389 0.916224 0.181722
O O10 0.069155 0.994658 0.110624
O O11 0.438701 0.250000 0.750000
O O12 0.500000 0.994667 0.750000
O O13 0.433923 0.750000 0.750000
O O14 0.365107 0.522449 0.497295
O O15 0.387574 0.813890 0.432052
#
# Coordination Sequence:
#
# PCOD9505370 Si02
#       6
#    16   8  16  16  16  16
#     4  10  16  30  51  76  90 114 151 219 271 300
#     4  12  22  36  46  58  83 122 189 224 246 272
#     4  12  21  38  51  69  98 127 165 214 246 313
#     4  10  19  30  53  78  88 109 155 213 246 283
#     4  12  21  35  52  70  97 124 177 224 253 303
#     4  12  25  35  49  66  94 139 166 210 271 292
#
# _framework density 15.449681
#
# number of rings (size 3 to 8) (size 9 to 14) (size 15 to 20)
#    0.000    0.727    7.273    4.364    2.545    0.000 
#    0.000    0.000    0.000    0.000    0.000    0.000 
#    0.000    0.000    0.000    0.000    0.000   50.909 
#
# Total GULP energy -244982.864683 kJ/mol
# GULP energy per Si atom -5567.792379 kJ/mol
# Density = 1.541452 g / cm^3
# Si number density = 15.449681 Si / 1000 Ang^3
#
#
#
# Elastic Constant Matrix: (Units=GPa)
#
#
# Indices 1 2 3 4 5 6 
#
# 1 85.7750 11.5546 21.8940 0.0000 0.0000 0.0000
# 2 11.5546 151.2300 17.6927 0.0000 0.0000 0.0000
# 3 21.8940 17.6927 45.9102 0.0000 0.0000 0.0000
# 4 0.0000 0.0000 0.0000 29.3370 0.0000 0.0000
# 5 0.0000 0.0000 0.0000 0.0000 -214.8368 0.0000
# 6 0.0000 0.0000 0.0000 0.0000 0.0000 14.0164
#
#
#
# Elastic Compliance Matrix: (Units=1/GPa)
#
#
# Indices 1 2 3 4 5 6 
#
# 1 0.013286 -0.000287 -0.006225 0.000000 0.000000 0.000000
# 2 -0.000287 0.006931 -0.002534 0.000000 0.000000 0.000000
# 3 -0.006225 -0.002534 0.025727 0.000000 0.000000 0.000000
# 4 0.000000 0.000000 0.000000 0.034087 0.000000 0.000000
# 5 0.000000 0.000000 0.000000 0.000000 -0.004655 0.000000
# 6 0.000000 0.000000 0.000000 0.000000 0.000000 0.071345
#
#
# Mechanical properties :
#
#
# Convention : Reuss Voigt Hill
#
# Bulk Modulus (GPa) = 35.90518 42.79976 39.35247
# Shear Modulus (GPa) = 28.71949 -18.84511 4.93719
#
# Velocity S-wave (km/s) = 4.31618 -3.49631 1.78958
# Velocity P-wave (km/s) = 6.93756 3.38583 5.45864
#
# Compressibility (1/GPa) = 0.02785114
#
# Stress axis : x y z
#
# Youngs Moduli (GPa) = 75.26668 144.28262 38.86947
#
# Poissons Ratio (x) = 0.04138 0.24198
# Poissons Ratio (y) = 0.02159 0.09850
# Poissons Ratio (z) = 0.46857 0.36564
#
# Static dielectric constant tensor:
#      x y z
#    x 1.457580 0.000000 0.000000 
#    y 0.000000 1.621600 0.000000 
#    z 0.000000 0.000000 1.531880 
# 
# From -- ./inp_files/56237.got.cif
#   From: 2010.05.17/outbox.cif.g08.bks.cpg/sg68_29_cif.got.tgz:56237.got - 2010.06.03 18:57:09.
