data_PCOD9505476
_publ_section_title
;
Structure prediction by ZEFSAII (Michael W. Deem and Ramdas Pophale) SiO2 
 PCOD9505476
Probable space group: C C C A
;
_chemical_formula_sum "Si O2"
_cell_formula_units_Z 80
_cell_length_a 5.539648
_cell_length_b 18.762825
_cell_length_c 31.925468
_cell_angle_alpha 90.000000
_cell_angle_beta 90.000000
_cell_angle_gamma 90.000000
_cell_volume 3318.315457
_symmetry_space_group_name_H-M "C C C A"
_symmetry_group_IT_number 68
_space_group.IT_coordinate_system_code '2'
_symmetry_cell_setting 'orthorhombic'
loop_
_space_group_symop_operation_xyz
x,y,z
-x,1/2-y,z
x,1/2-y,1/2-z
-x,y,1/2-z
-x,-y,-z
x,1/2+y,-z
-x,1/2+y,1/2+z
x,-y,1/2+z
1/2+x,1/2+y,z
1/2-x,-y,z
1/2+x,-y,1/2-z
1/2-x,1/2+y,1/2-z
1/2-x,1/2-y,-z
1/2+x,y,-z
1/2-x,y,1/2+z
1/2+x,1/2-y,1/2+z
loop_
_atom_site_type_symbol
_atom_site_label
_atom_site_fract_x
_atom_site_fract_y
_atom_site_fract_z
Si Si1 0.244742 0.918884 0.765302
Si Si2 0.535650 0.165278 0.481338
Si Si3 0.588854 0.596978 0.360023
Si Si4 0.918794 0.881646 0.387864
Si Si5 0.000000 0.750000 0.323765
Si Si6 0.000000 0.750000 0.824943
O O1 0.500000 0.887875 0.750000
O O2 0.000000 0.882296 0.750000
O O3 0.189222 0.924914 0.814409
O O4 0.250000 0.000000 0.747047
O O5 0.500000 0.250000 0.488300
O O6 0.765455 0.137154 0.508061
O O7 0.611980 0.151751 0.433486
O O8 0.319900 0.575007 0.373924
O O9 0.536307 0.681962 0.355077
O O10 0.819219 0.580532 0.388599
O O11 0.964642 0.818988 0.353564
O O12 0.748717 0.748474 0.300109
#
# Coordination Sequence:
#
# PCOD9505476 Si02
#       6
#    16  16  16  16   8   8
#     4  10  21  38  58  79 105 133 165 217 282 329
#     4  10  19  28  41  65 102 142 178 213 252 300
#     4  10  19  31  52  74  98 133 174 208 253 312
#     4  10  17  29  45  68  99 132 176 209 246 300
#     4   8  14  24  38  59  89 126 159 200 235 286
#     4   8  16  26  43  67  94 124 161 198 239 292
#
# _framework density 24.108618
#
# number of rings (size 3 to 8) (size 9 to 14) (size 15 to 20)
#    0.000    2.400    1.000    2.400    0.000    0.000 
#    0.000    0.500    0.000    1.200    0.000    0.000 
#    0.000   16.000    0.000    0.000    0.000    0.000 
#
# Total GULP energy -222783.095230 kJ/mol
# GULP energy per Si atom -5569.577381 kJ/mol
# Density = 2.405375 g / cm^3
# Si number density = 24.108618 Si / 1000 Ang^3
#
#
#
# Elastic Constant Matrix: (Units=GPa)
#
#
# Indices 1 2 3 4 5 6 
#
# 1 333.4792 27.2361 46.8529 0.0000 0.0000 0.0000
# 2 27.2361 60.7042 -4.1431 0.0000 0.0000 0.0000
# 3 46.8529 -4.1431 66.4648 0.0000 0.0000 0.0000
# 4 0.0000 0.0000 0.0000 57.3911 0.0000 0.0000
# 5 0.0000 0.0000 0.0000 0.0000 37.3291 0.0000
# 6 0.0000 0.0000 0.0000 0.0000 0.0000 -7.6671
#
#
#
# Elastic Compliance Matrix: (Units=1/GPa)
#
#
# Indices 1 2 3 4 5 6 
#
# 1 0.003504 -0.001748 -0.002579 0.000000 0.000000 0.000000
# 2 -0.001748 0.017416 0.002318 0.000000 0.000000 0.000000
# 3 -0.002579 0.002318 0.017008 0.000000 0.000000 0.000000
# 4 0.000000 0.000000 0.000000 0.017424 0.000000 0.000000
# 5 0.000000 0.000000 0.000000 0.000000 0.026789 0.000000
# 6 0.000000 0.000000 0.000000 0.000000 0.000000 -0.130427
#
#
# Mechanical properties :
#
#
# Convention : Reuss Voigt Hill
#
# Bulk Modulus (GPa) = 29.49031 66.72667 48.10849
# Shear Modulus (GPa) = -151.67381 43.45743 -54.10819
#
# Velocity S-wave (km/s) = -7.94036 4.25027 -4.74260
# Velocity P-wave (km/s) = 8.47389 7.19889 3.16092
#
# Compressibility (1/GPa) = 0.03390945
#
# Stress axis : x y z
#
# Youngs Moduli (GPa) = 285.40596 57.41902 58.79602
#
# Poissons Ratio (x) = 0.10037 0.15163
# Poissons Ratio (y) = 0.49890 -0.13628
# Poissons Ratio (z) = 0.73603 -0.13309
#
# Static dielectric constant tensor:
#      x y z
#    x 2.102020 0.000000 0.000000 
#    y 0.000000 2.037340 0.000000 
#    z 0.000000 0.000000 1.919600 
# 
# From -- ./inp_files/48441.got.cif
#   From: 2010.05.17/outbox.cif.g08.bks.cpg/sg68_25_cif.got.tgz:48441.got - 2010.06.03 18:57:09.
