data_PCOD9505057
_publ_section_title
;
Structure prediction by ZEFSAII (Michael W. Deem and Ramdas Pophale) SiO2 
 PCOD9505057
Probable space group: C M M A
;
_chemical_formula_sum "Si O2"
_cell_formula_units_Z 52
_cell_length_a 13.852070
_cell_length_b 14.808981
_cell_length_c 9.845318
_cell_angle_alpha 90.000000
_cell_angle_beta 90.000000
_cell_angle_gamma 90.000000
_cell_volume 2019.619716
_symmetry_space_group_name_H-M "C M M A"
_symmetry_group_IT_number 67
_symmetry_cell_setting 'orthorhombic'
loop_
_space_group_symop_operation_xyz
x,y,z
-x,1/2-y,z
x,-y,-z
-x,1/2+y,-z
-x,-y,-z
x,1/2+y,-z
-x,y,z
x,1/2-y,z
1/2+x,1/2+y,z
1/2-x,-y,z
1/2+x,1/2-y,-z
1/2-x,y,-z
1/2-x,1/2-y,-z
1/2+x,y,-z
1/2-x,1/2+y,z
1/2+x,-y,z
loop_
_atom_site_type_symbol
_atom_site_label
_atom_site_fract_x
_atom_site_fract_y
_atom_site_fract_z
Si Si1 0.136810 0.897975 0.475154
Si Si2 0.107869 0.360826 0.115687
Si Si3 0.000000 0.750000 0.586488
Si Si4 0.181641 0.141924 0.818840
O O1 0.250000 0.887375 0.500000
O O2 0.122806 0.877757 0.316051
O O3 0.082341 0.828216 0.568948
O O4 0.109020 0.000000 0.500000
O O5 0.103709 0.250000 0.128538
O O6 0.207290 0.393864 0.185791
O O7 0.000000 0.392214 0.154325
O O8 0.128482 0.384517 0.957664
O O9 0.191509 0.250000 0.828646
#
# Coordination Sequence:
#
# PCOD9505057 Si02
#       4
#    16  16   4  16
#     4  11  25  44  66 100 142 183 230 288 342 408
#     4   8  15  28  53  93 132 170 223 277 336 422
#     4  12  24  44  72  98 130 190 244 274 346 410
#     4   9  17  32  58  92 134 182 218 268 348 416
#
# _framework density 25.747423000000001
#
# number of rings (size 3 to 8) (size 9 to 14) (size 15 to 20)
#    0.000    2.462    1.538    2.769    2.154    0.000 
#    2.769    0.000    0.000   14.769    0.000    8.615 
#    0.000    0.000    0.000    0.000    0.000    0.000 
#
# Total GULP energy -145136.719399 kJ/mol
# GULP energy per Si atom -5582.181515 kJ/mol
# Density = 2.568882 g / cm^3
# Si number density = 25.747423 Si / 1000 Ang^3
#
#
#
# Elastic Constant Matrix: (Units=GPa)
#
#
# Indices 1 2 3 4 5 6 
#
# 1 174.4056 43.8160 12.1074 0.0000 0.0000 0.0000
# 2 43.8160 95.3375 -14.4217 0.0000 0.0000 0.0000
# 3 12.1074 -14.4217 97.6820 0.0000 0.0000 0.0000
# 4 0.0000 0.0000 0.0000 44.9126 0.0000 0.0000
# 5 0.0000 0.0000 0.0000 0.0000 -7.7276 0.0000
# 6 0.0000 0.0000 0.0000 0.0000 0.0000 29.0919
#
#
#
# Elastic Compliance Matrix: (Units=1/GPa)
#
#
# Indices 1 2 3 4 5 6 
#
# 1 0.006640 -0.003249 -0.001303 0.000000 0.000000 0.000000
# 2 -0.003249 0.012318 0.002221 0.000000 0.000000 0.000000
# 3 -0.001303 0.002221 0.010727 0.000000 0.000000 0.000000
# 4 0.000000 0.000000 0.000000 0.022265 0.000000 0.000000
# 5 0.000000 0.000000 0.000000 0.000000 -0.129407 0.000000
# 6 0.000000 0.000000 0.000000 0.000000 0.000000 0.034374
#
#
# Mechanical properties :
#
#
# Convention : Reuss Voigt Hill
#
# Bulk Modulus (GPa) = 39.96037 50.04761 45.00399
# Shear Modulus (GPa) = -166.22281 34.98360 -65.61960
#
# Velocity S-wave (km/s) = -8.04358 3.69008 -5.05383
# Velocity P-wave (km/s) = 8.40903 6.13480 4.06669
#
# Compressibility (1/GPa) = 0.02502480
#
# Stress axis : x y z
#
# Youngs Moduli (GPa) = 150.59268 81.18039 93.22504
#
# Poissons Ratio (x) = 0.26375 0.12145
# Poissons Ratio (y) = 0.48927 -0.20709
# Poissons Ratio (z) = 0.19618 -0.18033
#
# Static dielectric constant tensor:
#      x y z
#    x 1.255750 0.000000 0.000000 
#    y 0.000000 1.869690 0.000000 
#    z 0.000000 0.000000 2.099830 
# 
# From -- ./inp_files/17211.got.cif
#   From: 2010.05.17/outbox.cif.g08.bks.cpg/sg67_9_cif.got.tgz:17211.got - 2010.06.03 18:28:57.
