data_PCOD9505357
_publ_section_title
;
Structure prediction by ZEFSAII (Michael W. Deem and Ramdas Pophale) SiO2 
 PCOD9505357
Probable space group: C C C A
;
_chemical_formula_sum "Si O2"
_cell_formula_units_Z 72
_cell_length_a 30.786252
_cell_length_b 21.655489
_cell_length_c 5.366264
_cell_angle_alpha 90.000000
_cell_angle_beta 90.000000
_cell_angle_gamma 90.000000
_cell_volume 3577.641745
_symmetry_space_group_name_H-M "C C C A"
_symmetry_group_IT_number 68
_space_group.IT_coordinate_system_code '2'
_symmetry_cell_setting 'orthorhombic'
loop_
_space_group_symop_operation_xyz
x,y,z
-x,1/2-y,z
x,1/2-y,1/2-z
-x,y,1/2-z
-x,-y,-z
x,1/2+y,-z
-x,1/2+y,1/2+z
x,-y,1/2+z
1/2+x,1/2+y,z
1/2-x,-y,z
1/2+x,-y,1/2-z
1/2-x,1/2+y,1/2-z
1/2-x,1/2-y,-z
1/2+x,y,-z
1/2-x,y,1/2+z
1/2+x,1/2-y,1/2+z
loop_
_atom_site_type_symbol
_atom_site_label
_atom_site_fract_x
_atom_site_fract_y
_atom_site_fract_z
Si Si1 0.000000 0.042171 0.250000
Si Si2 0.799373 0.223645 0.503673
Si Si3 0.095581 0.075767 0.255989
Si Si4 0.630925 0.062853 0.238246
Si Si5 0.777039 0.420175 0.944410
O O1 0.044064 0.081390 0.273559
O O2 0.000000 0.000000 0.500000
O O3 0.819423 0.250000 0.250000
O O4 0.750000 0.250000 0.500000
O O5 0.792355 0.151041 0.537755
O O6 0.821496 0.250000 0.750000
O O7 0.123666 0.095280 0.496057
O O8 0.105069 0.001662 0.234911
O O9 0.111619 0.101022 0.992155
O O10 0.679493 0.046337 0.150889
O O11 0.742714 0.431030 0.719472
#
# Coordination Sequence:
#
# PCOD9505357 Si02
#       5
#     8  16  16  16  16
#     4  12  16  30  58  72  84 120 164 178 232 308
#     4  10  16  30  48  64  85 105 155 207 236 274
#     4  10  19  35  47  69  94 124 152 191 240 271
#     4  10  20  32  46  64  97 121 156 203 232 259
#     4  12  21  32  47  67  87 128 169 192 237 274
#
# _framework density 20.124987999999998
#
# number of rings (size 3 to 8) (size 9 to 14) (size 15 to 20)
#    0.000    1.333    8.889    1.333    0.000    0.000 
#    0.000   13.333    0.000    0.000    0.000    0.000 
#    0.000    0.000    0.000   24.000    0.000    0.222 
#
# Total GULP energy -200635.333022 kJ/mol
# GULP energy per Si atom -5573.203695 kJ/mol
# Density = 2.007918 g / cm^3
# Si number density = 20.124988 Si / 1000 Ang^3
#
#
#
# Elastic Constant Matrix: (Units=GPa)
#
#
# Indices 1 2 3 4 5 6 
#
# 1 79.7126 2.6020 -9.0681 0.0000 0.0000 0.0000
# 2 2.6020 51.6970 5.2125 0.0000 0.0000 0.0000
# 3 -9.0681 5.2125 178.9563 0.0000 0.0000 0.0000
# 4 0.0000 0.0000 0.0000 -0.0988 0.0000 0.0000
# 5 0.0000 0.0000 0.0000 0.0000 24.7020 0.0000
# 6 0.0000 0.0000 0.0000 0.0000 0.0000 1.3432
#
#
#
# Elastic Compliance Matrix: (Units=1/GPa)
#
#
# Indices 1 2 3 4 5 6 
#
# 1 0.012643 -0.000703 0.000661 0.000000 0.000000 0.000000
# 2 -0.000703 0.019440 -0.000602 0.000000 0.000000 0.000000
# 3 0.000661 -0.000602 0.005639 0.000000 0.000000 0.000000
# 4 0.000000 0.000000 0.000000-10.116341 0.000000 0.000000
# 5 0.000000 0.000000 0.000000 0.000000 0.040483 0.000000
# 6 0.000000 0.000000 0.000000 0.000000 0.000000 0.744468
#
#
# Mechanical properties :
#
#
# Convention : Reuss Voigt Hill
#
# Bulk Modulus (GPa) = 27.44664 34.20653 30.82659
# Shear Modulus (GPa) = -0.53878 25.96391 12.71257
#
# Velocity S-wave (km/s) = -0.51797 3.59574 2.51605
# Velocity P-wave (km/s) = 3.64828 5.85432 4.87765
#
# Compressibility (1/GPa) = 0.03643433
#
# Stress axis : x y z
#
# Youngs Moduli (GPa) = 79.09376 51.44152 177.33687
#
# Poissons Ratio (x) = 0.03616 -0.11724
# Poissons Ratio (y) = 0.05560 0.10673
# Poissons Ratio (z) = -0.05229 0.03096
#
# Static dielectric constant tensor:
#      x y z
#    x 1.711560 0.000000 0.000000 
#    y 0.000000 1.791030 0.000000 
#    z 0.000000 0.000000 1.309940 
# 
# From -- ./inp_files/1907.got.cif
#   From: 2010.05.17/outbox.cif.g08.bks.cpg/sg68_1_cif.got.tgz:1907.got - 2010.06.03 18:57:09.
