data_PCOD9505975
_publ_section_title
;
Structure prediction by ZEFSAII (Michael W. Deem and Ramdas Pophale) SiO2 
 PCOD9505975
Probable space group: C C C A
;
_chemical_formula_sum "Si O2"
_cell_formula_units_Z 80
_cell_length_a 9.289832
_cell_length_b 16.495076
_cell_length_c 28.767472
_cell_angle_alpha 90.000000
_cell_angle_beta 90.000000
_cell_angle_gamma 90.000000
_cell_volume 4408.226288
_symmetry_space_group_name_H-M "C C C A"
_symmetry_group_IT_number 68
_space_group.IT_coordinate_system_code '2'
_symmetry_cell_setting 'orthorhombic'
loop_
_space_group_symop_operation_xyz
x,y,z
-x,1/2-y,z
x,1/2-y,1/2-z
-x,y,1/2-z
-x,-y,-z
x,1/2+y,-z
-x,1/2+y,1/2+z
x,-y,1/2+z
1/2+x,1/2+y,z
1/2-x,-y,z
1/2+x,-y,1/2-z
1/2-x,1/2+y,1/2-z
1/2-x,1/2-y,-z
1/2+x,y,-z
1/2-x,y,1/2+z
1/2+x,1/2-y,1/2+z
loop_
_atom_site_type_symbol
_atom_site_label
_atom_site_fract_x
_atom_site_fract_y
_atom_site_fract_z
Si Si1 0.812103 0.910889 0.147120
Si Si2 0.697784 0.590224 0.962727
Si Si3 0.599547 0.669050 0.637803
Si Si4 0.331554 0.756613 0.305418
Si Si5 0.590980 0.832720 0.968705
O O1 0.785105 0.893110 0.092273
O O2 0.732397 0.842118 0.176805
O O3 0.985619 0.900539 0.152354
O O4 0.750000 0.000000 0.157126
O O5 0.750000 0.500000 0.972383
O O6 0.530593 0.598907 0.974234
O O7 0.788463 0.653117 0.993199
O O8 0.500000 0.750000 0.639386
O O9 0.734759 0.687146 0.670303
O O10 0.646953 0.660511 0.584191
O O11 0.500000 0.750000 0.317637
O O12 0.317025 0.750000 0.250000
O O13 0.500000 0.750000 0.972918
#
# Coordination Sequence:
#
# PCOD9505975 Si02
#       5
#    16  16  16  16  16
#     4   9  19  36  56  78 107 141 177 215 260 317
#     4  10  20  33  50  75 108 142 173 213 261 306
#     4   8  17  34  54  76 104 140 177 212 262 322
#     4  10  21  38  57  80 105 132 173 226 273 320
#     4  10  19  32  50  76 104 136 181 217 249 308
#
# _framework density 18.147887999999998
#
# number of rings (size 3 to 8) (size 9 to 14) (size 15 to 20)
#    0.000    2.600    0.000    2.400    0.000    6.000 
#    0.000    5.000    0.000    0.000    0.000    0.000 
#    0.000    0.000    0.000    0.000    0.000    0.000 
#
# Total GULP energy -223024.499561 kJ/mol
# GULP energy per Si atom -5575.612489 kJ/mol
# Density = 1.810658 g / cm^3
# Si number density = 18.147888 Si / 1000 Ang^3
#
#
#
# Elastic Constant Matrix: (Units=GPa)
#
#
# Indices 1 2 3 4 5 6 
#
# 1 116.6569 42.4814 77.2057 0.0000 0.0000 0.0000
# 2 42.4814 73.3820 36.2633 0.0000 0.0000 0.0000
# 3 77.2057 36.2633 77.9885 0.0000 0.0000 0.0000
# 4 0.0000 0.0000 0.0000 18.2913 0.0000 0.0000
# 5 0.0000 0.0000 0.0000 0.0000 25.2341 0.0000
# 6 0.0000 0.0000 0.0000 0.0000 0.0000 31.8478
#
#
#
# Elastic Compliance Matrix: (Units=1/GPa)
#
#
# Indices 1 2 3 4 5 6 
#
# 1 0.025342 -0.002951 -0.023716 0.000000 0.000000 0.000000
# 2 -0.002951 0.018036 -0.005465 0.000000 0.000000 0.000000
# 3 -0.023716 -0.005465 0.038841 0.000000 0.000000 0.000000
# 4 0.000000 0.000000 0.000000 0.054671 0.000000 0.000000
# 5 0.000000 0.000000 0.000000 0.000000 0.039629 0.000000
# 6 0.000000 0.000000 0.000000 0.000000 0.000000 0.031399
#
#
# Mechanical properties :
#
#
# Convention : Reuss Voigt Hill
#
# Bulk Modulus (GPa) = 55.69142 64.43646 60.06394
# Shear Modulus (GPa) = 17.97473 22.54645 20.26059
#
# Velocity S-wave (km/s) = 3.15057 3.52856 3.34491
# Velocity P-wave (km/s) = 6.63242 7.22387 6.93445
#
# Compressibility (1/GPa) = 0.01795609
#
# Stress axis : x y z
#
# Youngs Moduli (GPa) = 39.45960 55.44323 25.74587
#
# Poissons Ratio (x) = 0.16363 0.61058
# Poissons Ratio (y) = 0.11646 0.14070
# Poissons Ratio (z) = 0.93581 0.30300
#
# Static dielectric constant tensor:
#      x y z
#    x 1.628320 0.000000 0.000000 
#    y 0.000000 1.650610 0.000000 
#    z 0.000000 0.000000 1.606750 
# 
# From -- ./inp_files/49099.got.cif
#   From: 2010.05.17/outbox.cif.g08.bks.cpg/sg68_25_cif.got.tgz:49099.got - 2010.06.03 18:57:09.
