data_PCOD9505102
_publ_section_title
;
Structure prediction by ZEFSAII (Michael W. Deem and Ramdas Pophale) SiO2 
 PCOD9505102
Probable space group: C M M A
;
_chemical_formula_sum "Si O2"
_cell_formula_units_Z 112
_cell_length_a 14.200503
_cell_length_b 14.275462
_cell_length_c 24.655351
_cell_angle_alpha 90.000000
_cell_angle_beta 90.000000
_cell_angle_gamma 90.000000
_cell_volume 4998.101713
_symmetry_space_group_name_H-M "C M M A"
_symmetry_group_IT_number 67
_symmetry_cell_setting 'orthorhombic'
loop_
_space_group_symop_operation_xyz
x,y,z
-x,1/2-y,z
x,-y,-z
-x,1/2+y,-z
-x,-y,-z
x,1/2+y,-z
-x,y,z
x,1/2-y,z
1/2+x,1/2+y,z
1/2-x,-y,z
1/2+x,1/2-y,-z
1/2-x,y,-z
1/2-x,1/2-y,-z
1/2+x,y,-z
1/2-x,1/2+y,z
1/2+x,-y,z
loop_
_atom_site_type_symbol
_atom_site_label
_atom_site_fract_x
_atom_site_fract_y
_atom_site_fract_z
Si Si1 0.892030 0.144646 0.905031
Si Si2 0.384889 0.144449 0.531332
Si Si3 0.143487 0.642900 0.980502
Si Si4 0.384875 0.141690 0.306343
Si Si5 0.384926 0.548699 0.581444
Si Si6 0.886206 0.855799 0.858804
Si Si7 0.115533 0.465679 0.801438
O O1 0.851068 0.250000 0.910108
O O2 0.897264 0.098716 0.964709
O O3 0.849435 0.089148 0.855127
O O4 0.000000 0.156010 0.889057
O O5 0.500000 0.145975 0.532751
O O6 0.352646 0.250000 0.543619
O O7 0.358283 0.112108 0.470423
O O8 0.354996 0.058501 0.569953
O O9 0.105669 0.750000 0.976461
O O10 0.250000 0.646027 0.000000
O O11 0.136868 0.606824 0.919528
O O12 0.500000 0.142054 0.306473
O O13 0.355009 0.250000 0.303694
O O14 0.354038 0.092467 0.361944
O O15 0.354357 0.083811 0.253570
O O16 0.500000 0.548073 0.581799
O O17 0.850370 0.750000 0.852757
O O18 0.000000 0.852190 0.857750
O O19 0.856410 0.927358 0.812276
O O20 0.000000 0.465000 0.800832
#
# Coordination Sequence:
#
# PCOD9505102 Si02
#       7
#    16  16  16  16  16  16  16
#     4   9  16  27  43  61  81 104 128 158 200 246
#     4   8  12  18  27  40  61  89 120 154 193 239
#     4   9  17  29  45  64  84 104 128 162 202 243
#     4   9  15  23  35  50  68  89 117 159 205 240
#     4   8  13  19  28  43  62  87 120 156 198 244
#     4   9  17  30  45  58  76 104 133 161 198 245
#     4   9  17  27  39  55  72  93 126 162 195 237
#
# _framework density 22.408508000000001
#
# number of rings (size 3 to 8) (size 9 to 14) (size 15 to 20)
#    0.000    3.286    0.000    2.143    0.000    5.714 
#    0.000    4.286    0.000    4.286    0.000    0.000 
#    0.000    0.000    0.000    0.000    0.000    0.000 
#
# Total GULP energy -312394.442906 kJ/mol
# GULP energy per Si atom -5578.472195 kJ/mol
# Density = 2.235750 g / cm^3
# Si number density = 22.408508 Si / 1000 Ang^3
#
#
#
# Elastic Constant Matrix: (Units=GPa)
#
#
# Indices 1 2 3 4 5 6 
#
# 1 54.2838 5.4789 3.4992 0.0000 0.0000 0.0000
# 2 5.4789 183.2369 116.8019 0.0000 0.0000 0.0000
# 3 3.4992 116.8019 184.9166 0.0000 0.0000 0.0000
# 4 0.0000 0.0000 0.0000 34.6762 0.0000 0.0000
# 5 0.0000 0.0000 0.0000 0.0000 7.5546 0.0000
# 6 0.0000 0.0000 0.0000 0.0000 0.0000 0.7484
#
#
#
# Elastic Compliance Matrix: (Units=1/GPa)
#
#
# Indices 1 2 3 4 5 6 
#
# 1 0.018477 -0.000552 -0.000001 0.000000 0.000000 0.000000
# 2 -0.000552 0.009152 -0.005771 0.000000 0.000000 0.000000
# 3 -0.000001 -0.005771 0.009053 0.000000 0.000000 0.000000
# 4 0.000000 0.000000 0.000000 0.028838 0.000000 0.000000
# 5 0.000000 0.000000 0.000000 0.000000 0.132370 0.000000
# 6 0.000000 0.000000 0.000000 0.000000 0.000000 1.336223
#
#
# Mechanical properties :
#
#
# Convention : Reuss Voigt Hill
#
# Bulk Modulus (GPa) = 41.60489 74.88861 58.24675
# Shear Modulus (GPa) = 3.21590 28.37299 15.79445
#
# Velocity S-wave (km/s) = 1.19927 3.56219 2.65777
# Velocity P-wave (km/s) = 4.53040 7.10008 5.95549
#
# Compressibility (1/GPa) = 0.02403563
#
# Stress axis : x y z
#
# Youngs Moduli (GPa) = 54.11997 109.26243 110.46286
#
# Poissons Ratio (x) = 0.06029 0.00013
# Poissons Ratio (y) = 0.02986 0.63743
# Poissons Ratio (z) = 0.00006 0.63051
#
# Static dielectric constant tensor:
#      x y z
#    x 2.110870 0.000000 0.000000 
#    y 0.000000 1.864070 0.000000 
#    z 0.000000 0.000000 1.793340 
# 
# From -- ./inp_files/41929.got.cif
#   From: 2010.05.17/outbox.cif.g08.bks.cpg/sg67_21_cif.got.tgz:41929.got - 2010.06.03 18:28:57.
