data_PCOD9505773
_publ_section_title
;
Structure prediction by ZEFSAII (Michael W. Deem and Ramdas Pophale) SiO2 
 PCOD9505773
Probable space group: C C C A
;
_chemical_formula_sum "Si O2"
_cell_formula_units_Z 88
_cell_length_a 28.069612
_cell_length_b 5.865072
_cell_length_c 21.828219
_cell_angle_alpha 90.000000
_cell_angle_beta 90.000000
_cell_angle_gamma 90.000000
_cell_volume 3593.586142
_symmetry_space_group_name_H-M "C C C A"
_symmetry_group_IT_number 68
_space_group.IT_coordinate_system_code '2'
_symmetry_cell_setting 'orthorhombic'
loop_
_space_group_symop_operation_xyz
x,y,z
-x,1/2-y,z
x,1/2-y,1/2-z
-x,y,1/2-z
-x,-y,-z
x,1/2+y,-z
-x,1/2+y,1/2+z
x,-y,1/2+z
1/2+x,1/2+y,z
1/2-x,-y,z
1/2+x,-y,1/2-z
1/2-x,1/2+y,1/2-z
1/2-x,1/2-y,-z
1/2+x,y,-z
1/2-x,y,1/2+z
1/2+x,1/2-y,1/2+z
loop_
_atom_site_type_symbol
_atom_site_label
_atom_site_fract_x
_atom_site_fract_y
_atom_site_fract_z
Si Si1 0.842422 0.861025 0.816148
Si Si2 0.810472 0.866410 0.472956
Si Si3 0.407170 0.985273 0.073674
Si Si4 0.617250 0.250000 0.250000
Si Si5 0.250000 0.000000 0.135904
Si Si6 0.000000 0.250000 0.427311
Si Si7 0.546285 0.127737 0.158188
O O1 0.852096 0.750000 0.750000
O O2 0.876254 0.827851 0.876832
O O3 0.850886 0.125186 0.799198
O O4 0.786677 0.833262 0.830324
O O5 0.797419 0.123066 0.497084
O O6 0.867678 0.896459 0.468864
O O7 0.785851 0.858970 0.407109
O O8 0.454027 0.871985 0.041744
O O9 0.429414 0.185402 0.114677
O O10 0.582280 0.081020 0.213112
O O11 0.972864 0.424158 0.382577
O O12 0.500000 0.250000 0.184225
#
# Coordination Sequence:
#
# PCOD9505773 Si02
#       7
#    16  16  16   8   8   8  16
#     4  10  21  39  58  92 132 173 220 262 336 401
#     4  11  25  48  74 101 130 173 230 292 351 408
#     4   9  21  38  60  94 132 173 220 276 335 399
#     4  10  19  34  54  84 128 174 218 267 312 400
#     4  10  24  46  64 102 128 170 228 282 348 406
#     4  10  18  34  63  88 126 176 216 272 339 396
#     4   9  18  32  54  86 126 170 223 265 319 383
#
# _framework density 24.488071999999999
#
# number of rings (size 3 to 8) (size 9 to 14) (size 15 to 20)
#    0.000    2.182    0.000    1.909    3.818    0.000 
#   13.091   11.364    0.000    0.000    0.000    0.000 
#    0.000    0.000    0.000    0.000    0.000    0.000 
#
# Total GULP energy -245157.656363 kJ/mol
# GULP energy per Si atom -5571.764917 kJ/mol
# Density = 2.443234 g / cm^3
# Si number density = 24.488072 Si / 1000 Ang^3
#
#
#
# Elastic Constant Matrix: (Units=GPa)
#
#
# Indices 1 2 3 4 5 6 
#
# 1 144.3352 51.8081 17.2662 0.0000 0.0000 0.0000
# 2 51.8081 77.3277 27.3087 0.0000 0.0000 0.0000
# 3 17.2662 27.3087 43.6768 0.0000 0.0000 0.0000
# 4 0.0000 0.0000 0.0000 -9.2678 0.0000 0.0000
# 5 0.0000 0.0000 0.0000 0.0000 36.9650 0.0000
# 6 0.0000 0.0000 0.0000 0.0000 0.0000 21.8369
#
#
#
# Elastic Compliance Matrix: (Units=1/GPa)
#
#
# Indices 1 2 3 4 5 6 
#
# 1 0.009125 -0.006211 0.000276 0.000000 0.000000 0.000000
# 2 -0.006211 0.020824 -0.010565 0.000000 0.000000 0.000000
# 3 0.000276 -0.010565 0.029392 0.000000 0.000000 0.000000
# 4 0.000000 0.000000 0.000000 -0.107900 0.000000 0.000000
# 5 0.000000 0.000000 0.000000 0.000000 0.027053 0.000000
# 6 0.000000 0.000000 0.000000 0.000000 0.000000 0.045794
#
#
# Mechanical properties :
#
#
# Convention : Reuss Voigt Hill
#
# Bulk Modulus (GPa) = 37.96289 50.90063 44.43176
# Shear Modulus (GPa) = 75.68049 21.17060 48.42555
#
# Velocity S-wave (km/s) = 5.56526 2.94347 4.45175
# Velocity P-wave (km/s) = 7.53873 5.69061 6.67890
#
# Compressibility (1/GPa) = 0.02634152
#
# Stress axis : x y z
#
# Youngs Moduli (GPa) = 109.59356 48.02107 34.02289
#
# Poissons Ratio (x) = 0.29825 -0.00940
# Poissons Ratio (y) = 0.68067 0.35945
# Poissons Ratio (z) = -0.03027 0.50734
#
# Static dielectric constant tensor:
#      x y z
#    x 1.933420 0.000000 0.000000 
#    y 0.000000 2.103890 0.000000 
#    z 0.000000 0.000000 1.963130 
# 
# From -- ./inp_files/42426.got.cif
#   From: 2010.05.17/outbox.cif.g08.bks.cpg/sg68_22_cif.got.tgz:42426.got - 2010.06.03 18:57:09.
