data_PCOD9505837
_publ_section_title
;
Structure prediction by ZEFSAII (Michael W. Deem and Ramdas Pophale) SiO2 
 PCOD9505837
Probable space group: C C C A
;
_chemical_formula_sum "Si O2"
_cell_formula_units_Z 112
_cell_length_a 20.663278
_cell_length_b 23.173487
_cell_length_c 10.553704
_cell_angle_alpha 90.000000
_cell_angle_beta 90.000000
_cell_angle_gamma 90.000000
_cell_volume 5053.537777
_symmetry_space_group_name_H-M "C C C A"
_symmetry_group_IT_number 68
_space_group.IT_coordinate_system_code '2'
_symmetry_cell_setting 'orthorhombic'
loop_
_space_group_symop_operation_xyz
x,y,z
-x,1/2-y,z
x,1/2-y,1/2-z
-x,y,1/2-z
-x,-y,-z
x,1/2+y,-z
-x,1/2+y,1/2+z
x,-y,1/2+z
1/2+x,1/2+y,z
1/2-x,-y,z
1/2+x,-y,1/2-z
1/2-x,1/2+y,1/2-z
1/2-x,1/2-y,-z
1/2+x,y,-z
1/2-x,y,1/2+z
1/2+x,1/2-y,1/2+z
loop_
_atom_site_type_symbol
_atom_site_label
_atom_site_fract_x
_atom_site_fract_y
_atom_site_fract_z
Si Si1 0.636695 0.879462 0.713100
Si Si2 0.068511 0.658376 0.809868
Si Si3 0.062474 0.924868 0.061136
Si Si4 0.141832 0.713463 0.003956
Si Si5 0.913444 0.557808 0.518359
Si Si6 0.253192 0.682546 0.286875
Si Si7 0.850465 0.334692 0.419875
O O1 0.577623 0.897115 0.802874
O O2 0.635320 0.820013 0.634516
O O3 0.634000 0.925989 0.598005
O O4 0.697317 0.865601 0.805750
O O5 0.074751 0.699006 0.931553
O O6 0.107832 0.688299 0.698824
O O7 0.000000 0.646244 0.750000
O O8 0.099186 0.598396 0.860262
O O9 0.986925 0.924683 0.023995
O O10 0.107946 0.888086 0.967620
O O11 0.084933 0.991244 0.055069
O O12 0.198122 0.688866 0.908216
O O13 0.153892 0.781202 0.015451
O O14 0.239670 0.750000 0.250000
O O15 0.284288 0.656765 0.155701
#
# Coordination Sequence:
#
# PCOD9505837 Si02
#       7
#    16  16  16  16  16  16  16
#     4  11  24  40  68  93 136 169 213 278 337 392
#     4  10  18  37  64  89 120 168 211 275 317 378
#     4  11  24  40  69  91 126 175 220 273 340 394
#     4   9  22  39  60 100 134 163 219 269 326 406
#     4  10  24  44  63  94 126 172 230 273 325 406
#     4   9  21  40  68  95 132 178 219 262 322 409
#     4  10  21  38  65  97 125 172 223 260 330 401
#
# _framework density 22.162692
#
# number of rings (size 3 to 8) (size 9 to 14) (size 15 to 20)
#    0.000    2.000    1.429    1.714    6.000    2.286 
#    0.000    0.714    3.143    0.000    0.000    0.000 
#    0.000    0.000    0.000    0.000    0.000    0.000 
#
# Total GULP energy -312040.866853 kJ/mol
# GULP energy per Si atom -5572.158337 kJ/mol
# Density = 2.211225 g / cm^3
# Si number density = 22.162692 Si / 1000 Ang^3
#
#
#
# Elastic Constant Matrix: (Units=GPa)
#
#
# Indices 1 2 3 4 5 6 
#
# 1 50.0842 54.2903 22.9256 0.0000 0.0000 0.0000
# 2 54.2903 112.6680 31.1136 0.0000 0.0000 0.0000
# 3 22.9256 31.1136 80.3432 0.0000 0.0000 0.0000
# 4 0.0000 0.0000 0.0000 21.2447 0.0000 0.0000
# 5 0.0000 0.0000 0.0000 0.0000 34.7176 0.0000
# 6 0.0000 0.0000 0.0000 0.0000 0.0000 29.8908
#
#
#
# Elastic Compliance Matrix: (Units=1/GPa)
#
#
# Indices 1 2 3 4 5 6 
#
# 1 0.043390 -0.019583 -0.004797 0.000000 0.000000 0.000000
# 2 -0.019583 0.018777 -0.001684 0.000000 0.000000 0.000000
# 3 -0.004797 -0.001684 0.014468 0.000000 0.000000 0.000000
# 4 0.000000 0.000000 0.000000 0.047071 0.000000 0.000000
# 5 0.000000 0.000000 0.000000 0.000000 0.028804 0.000000
# 6 0.000000 0.000000 0.000000 0.000000 0.000000 0.033455
#
#
# Mechanical properties :
#
#
# Convention : Reuss Voigt Hill
#
# Bulk Modulus (GPa) = 40.80594 51.08382 45.94488
# Shear Modulus (GPa) = 20.30365 26.15501 23.22933
#
# Velocity S-wave (km/s) = 3.03003 3.43904 3.24099
# Velocity P-wave (km/s) = 5.54016 6.23449 5.89755
#
# Compressibility (1/GPa) = 0.02450623
#
# Stress axis : x y z
#
# Youngs Moduli (GPa) = 23.04669 53.25691 69.12039
#
# Poissons Ratio (x) = 1.04294 0.33160
# Poissons Ratio (y) = 0.45133 0.11637
# Poissons Ratio (z) = 0.11057 0.08966
#
# Static dielectric constant tensor:
#      x y z
#    x 1.952920 0.000000 0.000000 
#    y 0.000000 1.778370 0.000000 
#    z 0.000000 0.000000 1.925340 
# 
# From -- ./inp_files/16562.got.cif
#   From: 2010.05.17/outbox.cif.g08.bks.cpg/sg68_9_cif.got.tgz:16562.got - 2010.06.03 18:57:09.
