data_PCOD9505443
_publ_section_title
;
Structure prediction by ZEFSAII (Michael W. Deem and Ramdas Pophale) SiO2 
 PCOD9505443
Probable space group: C C C A
;
_chemical_formula_sum "Si O2"
_cell_formula_units_Z 56
_cell_length_a 31.052363
_cell_length_b 14.453220
_cell_length_c 5.365955
_cell_angle_alpha 90.000000
_cell_angle_beta 90.000000
_cell_angle_gamma 90.000000
_cell_volume 2408.276202
_symmetry_space_group_name_H-M "C C C A"
_symmetry_group_IT_number 68
_space_group.IT_coordinate_system_code '2'
_symmetry_cell_setting 'orthorhombic'
loop_
_space_group_symop_operation_xyz
x,y,z
-x,1/2-y,z
x,1/2-y,1/2-z
-x,y,1/2-z
-x,-y,-z
x,1/2+y,-z
-x,1/2+y,1/2+z
x,-y,1/2+z
1/2+x,1/2+y,z
1/2-x,-y,z
1/2+x,-y,1/2-z
1/2-x,1/2+y,1/2-z
1/2-x,1/2-y,-z
1/2+x,y,-z
1/2-x,y,1/2+z
1/2+x,1/2-y,1/2+z
loop_
_atom_site_type_symbol
_atom_site_label
_atom_site_fract_x
_atom_site_fract_y
_atom_site_fract_z
Si Si1 0.637904 0.360283 0.257810
Si Si2 0.500000 0.560926 0.250000
Si Si3 0.265400 0.857312 0.951405
Si Si4 0.594170 0.860466 0.245993
O O1 0.629732 0.250000 0.250000
O O2 0.687999 0.367526 0.327230
O O3 0.611200 0.397900 0.491014
O O4 0.621519 0.395241 0.991347
O O5 0.500000 0.500000 0.500000
O O6 0.456225 0.619027 0.230268
O O7 0.265349 0.896050 0.232782
O O8 0.250000 0.750000 0.000000
O O9 0.600674 0.750000 0.250000
#
# Coordination Sequence:
#
# PCOD9505443 Si02
#       4
#    16   8  16  16
#     4  10  18  30  49  80 118 160 181 231 281 355
#     4  12  25  44  65  84 112 150 204 248 293 358
#     4  10  17  24  42  71 118 162 185 213 281 339
#     4  10  22  37  59  85 118 152 190 237 306 348
#
# _framework density 23.253147999999999
#
# number of rings (size 3 to 8) (size 9 to 14) (size 15 to 20)
#    0.000    1.714    2.857    3.857    8.000    0.000 
#    0.000    5.714    0.000    0.000    0.000    0.000 
#    0.000   80.000    0.000    0.000    0.000    0.000 
#
# Total GULP energy -156380.141052 kJ/mol
# GULP energy per Si atom -5585.005038 kJ/mol
# Density = 2.320022 g / cm^3
# Si number density = 23.253148 Si / 1000 Ang^3
#
#
#
# Elastic Constant Matrix: (Units=GPa)
#
#
# Indices 1 2 3 4 5 6 
#
# 1 152.4858 -0.1474 79.5687 0.0000 0.0000 0.0000
# 2 -0.1474 77.7190 13.8739 0.0000 0.0000 0.0000
# 3 79.5687 13.8739 250.6167 0.0000 0.0000 0.0000
# 4 0.0000 0.0000 0.0000 -12.8718 0.0000 0.0000
# 5 0.0000 0.0000 0.0000 0.0000 48.4067 0.0000
# 6 0.0000 0.0000 0.0000 0.0000 0.0000 -15.6458
#
#
#
# Elastic Compliance Matrix: (Units=1/GPa)
#
#
# Indices 1 2 3 4 5 6 
#
# 1 0.007877 0.000466 -0.002527 0.000000 0.000000 0.000000
# 2 0.000466 0.013023 -0.000869 0.000000 0.000000 0.000000
# 3 -0.002527 -0.000869 0.004840 0.000000 0.000000 0.000000
# 4 0.000000 0.000000 0.000000 -0.077689 0.000000 0.000000
# 5 0.000000 0.000000 0.000000 0.000000 0.020658 0.000000
# 6 0.000000 0.000000 0.000000 0.000000 0.000000 -0.063915
#
#
# Mechanical properties :
#
#
# Convention : Reuss Voigt Hill
#
# Bulk Modulus (GPa) = 50.29906 74.15689 62.22798
# Shear Modulus (GPa) = -60.44490 29.81291 -15.31599
#
# Velocity S-wave (km/s) = -5.10399 3.58453 -2.56923
# Velocity P-wave (km/s) = 3.61334 7.00658 4.24476
#
# Compressibility (1/GPa) = 0.01988109
#
# Stress axis : x y z
#
# Youngs Moduli (GPa) = 126.95407 76.78809 206.59268
#
# Poissons Ratio (x) = -0.03578 0.52198
# Poissons Ratio (y) = -0.05916 0.17950
# Poissons Ratio (z) = 0.32077 0.06672
#
# Static dielectric constant tensor:
#      x y z
#    x 1.871900 0.000000 0.000000 
#    y 0.000000 1.977650 0.000000 
#    z 0.000000 0.000000 1.919810 
# 
# From -- ./inp_files/969.got.cif
#   From: 2010.05.17/outbox.cif.g08.bks.cpg/sg68_1_cif.got.tgz:969.got - 2010.06.03 18:57:09.
