data_PCOD9505590
_publ_section_title
;
Structure prediction by ZEFSAII (Michael W. Deem and Ramdas Pophale) SiO2 
 PCOD9505590
Probable space group: C C C A
;
_chemical_formula_sum "Si O2"
_cell_formula_units_Z 96
_cell_length_a 8.812803
_cell_length_b 25.394372
_cell_length_c 22.015544
_cell_angle_alpha 90.000000
_cell_angle_beta 90.000000
_cell_angle_gamma 90.000000
_cell_volume 4926.981829
_symmetry_space_group_name_H-M "C C C A"
_symmetry_group_IT_number 68
_space_group.IT_coordinate_system_code '2'
_symmetry_cell_setting 'orthorhombic'
loop_
_space_group_symop_operation_xyz
x,y,z
-x,1/2-y,z
x,1/2-y,1/2-z
-x,y,1/2-z
-x,-y,-z
x,1/2+y,-z
-x,1/2+y,1/2+z
x,-y,1/2+z
1/2+x,1/2+y,z
1/2-x,-y,z
1/2+x,-y,1/2-z
1/2-x,1/2+y,1/2-z
1/2-x,1/2-y,-z
1/2+x,y,-z
1/2-x,y,1/2+z
1/2+x,1/2-y,1/2+z
loop_
_atom_site_type_symbol
_atom_site_label
_atom_site_fract_x
_atom_site_fract_y
_atom_site_fract_z
Si Si1 0.124314 0.212535 0.469208
Si Si2 0.910760 0.847335 0.067252
Si Si3 0.319486 0.943029 0.126688
Si Si4 0.864387 0.459935 0.988515
Si Si5 0.948513 0.887295 0.318762
Si Si6 0.571388 0.503826 0.315839
O O1 0.250000 0.250000 0.500000
O O2 0.236864 0.173276 0.433864
O O3 0.000000 0.250000 0.436166
O O4 0.022404 0.182652 0.519926
O O5 0.983691 0.846035 0.133751
O O6 0.907466 0.907825 0.046212
O O7 0.299870 0.940120 0.053981
O O8 0.228384 0.898743 0.163968
O O9 0.250000 0.000000 0.144795
O O10 0.496469 0.951714 0.141504
O O11 0.750000 0.500000 0.955874
O O12 0.000000 0.500000 0.000000
O O13 0.000000 0.875349 0.250000
O O14 0.020005 0.944799 0.332323
O O15 0.500000 0.515187 0.250000
O O16 0.750000 0.500000 0.311491
#
# Coordination Sequence:
#
# PCOD9505590 Si02
#       6
#    16  16  16  16  16  16
#     4   9  20  38  61  86 107 134 181 242 299 349
#     4  11  20  35  58  85 114 149 187 232 292 348
#     4   9  18  32  45  65 104 150 193 235 271 314
#     4  11  21  32  49  80 121 155 183 223 279 343
#     4  10  20  34  50  73 108 148 190 232 277 340
#     4  10  18  29  45  65  98 151 205 240 263 307
#
# _framework density 19.484545000000001
#
# number of rings (size 3 to 8) (size 9 to 14) (size 15 to 20)
#    0.000    2.000    0.000    7.500    0.000    4.000 
#    0.000    0.000    0.000    4.500    0.000    5.833 
#    0.000    0.000    0.000    0.000    0.000    0.000 
#
# Total GULP energy -267428.434245 kJ/mol
# GULP energy per Si atom -5571.425713 kJ/mol
# Density = 1.944020 g / cm^3
# Si number density = 19.484545 Si / 1000 Ang^3
#
#
#
# Elastic Constant Matrix: (Units=GPa)
#
#
# Indices 1 2 3 4 5 6 
#
# 1 142.2765 26.3106 33.4626 0.0000 0.0000 0.0000
# 2 26.3106 55.2303 22.3080 0.0000 0.0000 0.0000
# 3 33.4626 22.3080 106.6685 0.0000 0.0000 0.0000
# 4 0.0000 0.0000 0.0000 5.9726 0.0000 0.0000
# 5 0.0000 0.0000 0.0000 0.0000 21.1503 0.0000
# 6 0.0000 0.0000 0.0000 0.0000 0.0000 35.1993
#
#
#
# Elastic Compliance Matrix: (Units=1/GPa)
#
#
# Indices 1 2 3 4 5 6 
#
# 1 0.008038 -0.003070 -0.001880 0.000000 0.000000 0.000000
# 2 -0.003070 0.020949 -0.003418 0.000000 0.000000 0.000000
# 3 -0.001880 -0.003418 0.010679 0.000000 0.000000 0.000000
# 4 0.000000 0.000000 0.000000 0.167431 0.000000 0.000000
# 5 0.000000 0.000000 0.000000 0.000000 0.047281 0.000000
# 6 0.000000 0.000000 0.000000 0.000000 0.000000 0.028410
#
#
# Mechanical properties :
#
#
# Convention : Reuss Voigt Hill
#
# Bulk Modulus (GPa) = 43.60866 52.03753 47.82310
# Shear Modulus (GPa) = 16.27776 27.27073 21.77424
#
# Velocity S-wave (km/s) = 2.89350 3.74519 3.34655
# Velocity P-wave (km/s) = 5.79593 6.74292 6.28728
#
# Compressibility (1/GPa) = 0.02293122
#
# Stress axis : x y z
#
# Youngs Moduli (GPa) = 124.40305 47.73466 93.63891
#
# Poissons Ratio (x) = 0.14655 0.17601
# Poissons Ratio (y) = 0.38193 0.32006
# Poissons Ratio (z) = 0.23383 0.16316
#
# Static dielectric constant tensor:
#      x y z
#    x 1.845240 0.000000 0.000000 
#    y 0.000000 1.691880 0.000000 
#    z 0.000000 0.000000 1.751970 
# 
# From -- ./inp_files/43421.got.cif
#   From: 2010.05.17/outbox.cif.g08.bks.cpg/sg68_22_cif.got.tgz:43421.got - 2010.06.03 18:57:09.
