data_PCOD9505591
_publ_section_title
;
Structure prediction by ZEFSAII (Michael W. Deem and Ramdas Pophale) SiO2 
 PCOD9505591
Probable space group: C C C A
;
_chemical_formula_sum "Si O2"
_cell_formula_units_Z 108
_cell_length_a 19.207106
_cell_length_b 20.016842
_cell_length_c 12.965553
_cell_angle_alpha 90.000000
_cell_angle_beta 90.000000
_cell_angle_gamma 90.000000
_cell_volume 4984.809192
_symmetry_space_group_name_H-M "C C C A"
_symmetry_group_IT_number 68
_space_group.IT_coordinate_system_code '2'
_symmetry_cell_setting 'orthorhombic'
loop_
_space_group_symop_operation_xyz
x,y,z
-x,1/2-y,z
x,1/2-y,1/2-z
-x,y,1/2-z
-x,-y,-z
x,1/2+y,-z
-x,1/2+y,1/2+z
x,-y,1/2+z
1/2+x,1/2+y,z
1/2-x,-y,z
1/2+x,-y,1/2-z
1/2-x,1/2+y,1/2-z
1/2-x,1/2-y,-z
1/2+x,y,-z
1/2-x,y,1/2+z
1/2+x,1/2-y,1/2+z
loop_
_atom_site_type_symbol
_atom_site_label
_atom_site_fract_x
_atom_site_fract_y
_atom_site_fract_z
Si Si1 0.041915 0.994928 0.870468
Si Si2 0.869611 0.909995 0.770323
Si Si3 0.992841 0.614316 0.033211
Si Si4 0.250000 0.000000 0.231664
Si Si5 0.190096 0.549370 0.068075
Si Si6 0.000000 0.750000 0.750000
Si Si7 0.869613 0.673792 0.532310
Si Si8 0.387228 0.184584 0.906028
O O1 0.070806 0.960327 0.767530
O O2 0.999608 0.063998 0.871266
O O3 0.113555 0.015511 0.932834
O O4 0.003923 0.938222 0.937168
O O5 0.808434 0.954900 0.818340
O O6 0.887164 0.856377 0.855538
O O7 0.848934 0.870241 0.665025
O O8 0.057577 0.665195 0.029244
O O9 0.921995 0.651789 0.006645
O O10 0.291108 0.049221 0.310250
O O11 0.250000 0.500000 0.024909
O O12 0.183820 0.623012 0.021505
O O13 0.950245 0.708358 0.828572
O O14 0.848407 0.749420 0.555364
#
# Coordination Sequence:
#
# PCOD9505591 Si02
#       8
#    16  16  16   8  16   4  16  16
#     4   8  16  28  45  62  85 130 159 184 228 288
#     4  10  18  29  46  65  93 121 161 196 243 290
#     4   9  16  28  44  65  96 127 152 178 236 306
#     4   8  18  34  46  56  82 130 158 198 230 278
#     4   8  17  32  44  59  88 122 164 202 235 279
#     4  12  16  28  36  68 104 124 132 174 258 314
#     4  11  18  26  45  73  93 120 152 199 254 295
#     4  11  18  27  42  68 101 123 143 188 251 305
#
# _framework density 21.665824000000001
#
# number of rings (size 3 to 8) (size 9 to 14) (size 15 to 20)
#    0.444    2.074    2.963    0.000    1.037    1.778 
#    0.000    0.741    0.000    0.000    0.000    0.000 
#    0.000    0.000    0.000  353.778    0.000    0.000 
#
# Total GULP energy -300773.732877 kJ/mol
# GULP energy per Si atom -5569.883942 kJ/mol
# Density = 2.161651 g / cm^3
# Si number density = 21.665824 Si / 1000 Ang^3
#
#
#
# Elastic Constant Matrix: (Units=GPa)
#
#
# Indices 1 2 3 4 5 6 
#
# 1 51.4083 15.6336 -7.2681 0.0000 0.0000 0.0000
# 2 15.6336 113.1897 20.6544 0.0000 0.0000 0.0000
# 3 -7.2681 20.6544 37.9699 0.0000 0.0000 0.0000
# 4 0.0000 0.0000 0.0000 31.3525 0.0000 0.0000
# 5 0.0000 0.0000 0.0000 0.0000 12.1959 0.0000
# 6 0.0000 0.0000 0.0000 0.0000 0.0000 31.5801
#
#
#
# Elastic Compliance Matrix: (Units=1/GPa)
#
#
# Indices 1 2 3 4 5 6 
#
# 1 0.021620 -0.004154 0.006398 0.000000 0.000000 0.000000
# 2 -0.004154 0.010606 -0.006565 0.000000 0.000000 0.000000
# 3 0.006398 -0.006565 0.031132 0.000000 0.000000 0.000000
# 4 0.000000 0.000000 0.000000 0.031895 0.000000 0.000000
# 5 0.000000 0.000000 0.000000 0.000000 0.081995 0.000000
# 6 0.000000 0.000000 0.000000 0.000000 0.000000 0.031665
#
#
# Mechanical properties :
#
#
# Convention : Reuss Voigt Hill
#
# Bulk Modulus (GPa) = 18.27566 28.95640 23.61603
# Shear Modulus (GPa) = 21.20501 26.59558 23.90029
#
# Velocity S-wave (km/s) = 3.13186 3.50742 3.32495
# Velocity P-wave (km/s) = 4.64022 5.45864 5.06598
#
# Compressibility (1/GPa) = 0.05471759
#
# Stress axis : x y z
#
# Youngs Moduli (GPa) = 46.25406 94.28384 32.12115
#
# Poissons Ratio (x) = 0.39161 -0.20550
# Poissons Ratio (y) = 0.19212 0.21086
# Poissons Ratio (z) = -0.29592 0.61893
#
# Static dielectric constant tensor:
#      x y z
#    x 1.871390 0.000000 0.000000 
#    y 0.000000 1.819770 0.000000 
#    z 0.000000 0.000000 1.847710 
# 
# From -- ./inp_files/33157.got.cif
#   From: 2010.05.17/outbox.cif.g08.bks.cpg/sg68_17_cif.got.tgz:33157.got - 2010.06.03 18:57:09.
