data_PCOD9505865
_publ_section_title
;
Structure prediction by ZEFSAII (Michael W. Deem and Ramdas Pophale) SiO2 
 PCOD9505865
Probable space group: C C C A
;
_chemical_formula_sum "Si O2"
_cell_formula_units_Z 116
_cell_length_a 30.433633
_cell_length_b 10.752639
_cell_length_c 19.172416
_cell_angle_alpha 90.000000
_cell_angle_beta 90.000000
_cell_angle_gamma 90.000000
_cell_volume 6274.017247
_symmetry_space_group_name_H-M "C C C A"
_symmetry_group_IT_number 68
_space_group.IT_coordinate_system_code '2'
_symmetry_cell_setting 'orthorhombic'
loop_
_space_group_symop_operation_xyz
x,y,z
-x,1/2-y,z
x,1/2-y,1/2-z
-x,y,1/2-z
-x,-y,-z
x,1/2+y,-z
-x,1/2+y,1/2+z
x,-y,1/2+z
1/2+x,1/2+y,z
1/2-x,-y,z
1/2+x,-y,1/2-z
1/2-x,1/2+y,1/2-z
1/2-x,1/2-y,-z
1/2+x,y,-z
1/2-x,y,1/2+z
1/2+x,1/2-y,1/2+z
loop_
_atom_site_type_symbol
_atom_site_label
_atom_site_fract_x
_atom_site_fract_y
_atom_site_fract_z
Si Si1 0.703437 0.567509 0.886193
Si Si2 0.500000 0.250000 0.750000
Si Si3 0.349423 0.520431 0.983615
Si Si4 0.414806 0.642304 0.197895
Si Si5 0.799720 0.152627 0.870546
Si Si6 0.297307 0.822388 0.176936
Si Si7 0.866477 0.749858 0.933731
Si Si8 0.651528 0.043475 0.256375
O O1 0.750000 0.500000 0.888722
O O2 0.705705 0.712246 0.904268
O O3 0.683686 0.557775 0.809000
O O4 0.670358 0.511781 0.941733
O O5 0.532969 0.338651 0.793337
O O6 0.310950 0.553040 0.929501
O O7 0.373612 0.395109 0.955946
O O8 0.369878 0.657064 0.999751
O O9 0.396927 0.750000 0.250000
O O10 0.399279 0.688488 0.122594
O O11 0.393926 0.511888 0.224504
O O12 0.752208 0.135234 0.836760
O O13 0.839162 0.153589 0.812271
O O14 0.294866 0.750000 0.250000
O O15 0.320006 0.753547 0.110590
O O16 0.329404 0.933978 0.195802
#
# Coordination Sequence:
#
# PCOD9505865 Si02
#       8
#    16   4  16  16  16  16  16  16
#     4  12  25  37  52  78 124 171 222 258 293 344
#     4   8  20  36  68 108 110 132 188 254 324 390
#     4  12  25  38  54  81 119 170 214 251 302 356
#     4  10  18  38  64  94 117 140 191 255 320 377
#     4  12  25  35  51  82 119 163 218 261 296 346
#     4  12  20  36  54  77 111 162 213 264 298 335
#     4  12  22  40  59  82 124 162 207 252 309 365
#     4  12  20  36  58  84 114 156 203 261 316 355
#
# _framework density 18.488952000000001
#
# number of rings (size 3 to 8) (size 9 to 14) (size 15 to 20)
#    0.414    0.000    6.897    4.138    1.931    1.103 
#    0.000    0.000    0.000    0.828    0.000    1.931 
#    0.000    0.000    0.000    0.000    0.000    0.000 
#
# Total GULP energy -322872.078597 kJ/mol
# GULP energy per Si atom -5566.759976 kJ/mol
# Density = 1.844687 g / cm^3
# Si number density = 18.488952 Si / 1000 Ang^3
#
#
#
# Elastic Constant Matrix: (Units=GPa)
#
#
# Indices 1 2 3 4 5 6 
#
# 1 73.2138 14.9417 -1.6153 0.0000 0.0000 0.0000
# 2 14.9417 93.3284 7.4894 0.0000 0.0000 0.0000
# 3 -1.6153 7.4894 56.4801 0.0000 0.0000 0.0000
# 4 0.0000 0.0000 0.0000 37.5945 0.0000 0.0000
# 5 0.0000 0.0000 0.0000 0.0000 14.2542 0.0000
# 6 0.0000 0.0000 0.0000 0.0000 0.0000 13.0761
#
#
#
# Elastic Compliance Matrix: (Units=1/GPa)
#
#
# Indices 1 2 3 4 5 6 
#
# 1 0.014148 -0.002322 0.000713 0.000000 0.000000 0.000000
# 2 -0.002322 0.011211 -0.001553 0.000000 0.000000 0.000000
# 3 0.000713 -0.001553 0.017932 0.000000 0.000000 0.000000
# 4 0.000000 0.000000 0.000000 0.026600 0.000000 0.000000
# 5 0.000000 0.000000 0.000000 0.000000 0.070155 0.000000
# 6 0.000000 0.000000 0.000000 0.000000 0.000000 0.076475
#
#
# Mechanical properties :
#
#
# Convention : Reuss Voigt Hill
#
# Bulk Modulus (GPa) = 27.05213 29.40599 28.22906
# Shear Modulus (GPa) = 21.26137 26.46540 23.86338
#
# Velocity S-wave (km/s) = 3.39477 3.78751 3.59651
# Velocity P-wave (km/s) = 5.47989 5.92167 5.70506
#
# Compressibility (1/GPa) = 0.03696567
#
# Stress axis : x y z
#
# Youngs Moduli (GPa) = 70.67991 89.19590 55.76726
#
# Poissons Ratio (x) = 0.20714 -0.03974
# Poissons Ratio (y) = 0.16414 0.08661
# Poissons Ratio (z) = -0.05036 0.13853
#
# Static dielectric constant tensor:
#      x y z
#    x 1.631270 0.000000 0.000000 
#    y 0.000000 1.827490 0.000000 
#    z 0.000000 0.000000 1.704610 
# 
# From -- ./inp_files/34437.got.cif
#   From: 2010.05.17/outbox.cif.g08.bks.cpg/sg68_18_cif.got.tgz:34437.got - 2010.06.03 18:57:09.
