data_PCOD9505391
_publ_section_title
;
Structure prediction by ZEFSAII (Michael W. Deem and Ramdas Pophale) SiO2 
 PCOD9505391
Probable space group: C C C A
;
_chemical_formula_sum "Si O2"
_cell_formula_units_Z 104
_cell_length_a 21.740691
_cell_length_b 16.406890
_cell_length_c 15.723464
_cell_angle_alpha 90.000000
_cell_angle_beta 90.000000
_cell_angle_gamma 90.000000
_cell_volume 5608.514416
_symmetry_space_group_name_H-M "C C C A"
_symmetry_group_IT_number 68
_space_group.IT_coordinate_system_code '2'
_symmetry_cell_setting 'orthorhombic'
loop_
_space_group_symop_operation_xyz
x,y,z
-x,1/2-y,z
x,1/2-y,1/2-z
-x,y,1/2-z
-x,-y,-z
x,1/2+y,-z
-x,1/2+y,1/2+z
x,-y,1/2+z
1/2+x,1/2+y,z
1/2-x,-y,z
1/2+x,-y,1/2-z
1/2-x,1/2+y,1/2-z
1/2-x,1/2-y,-z
1/2+x,y,-z
1/2-x,y,1/2+z
1/2+x,1/2-y,1/2+z
loop_
_atom_site_type_symbol
_atom_site_label
_atom_site_fract_x
_atom_site_fract_y
_atom_site_fract_z
Si Si1 0.184487 0.277691 0.410075
Si Si2 0.750000 0.500000 0.460140
Si Si3 0.000000 0.895735 0.750000
Si Si4 0.649305 0.879271 0.982890
Si Si5 0.175182 0.273978 0.847098
Si Si6 0.046121 0.024076 0.424854
Si Si7 0.902104 0.250000 0.250000
Si Si8 0.851179 0.112571 0.561523
O O1 0.179829 0.198901 0.471239
O O2 0.253681 0.285615 0.375675
O O3 0.140164 0.256770 0.332588
O O4 0.161947 0.356804 0.464186
O O5 0.697804 0.547215 0.512202
O O6 0.788963 0.566440 0.408896
O O7 0.013391 0.948375 0.836408
O O8 0.056871 0.832000 0.746580
O O9 0.640050 0.852313 0.885531
O O10 0.589415 0.904288 0.036240
O O11 0.174642 0.250000 0.750000
O O12 0.143255 0.196687 0.890474
O O13 0.092670 0.947204 0.418941
O O14 0.000000 0.000000 0.500000
#
# Coordination Sequence:
#
# PCOD9505391 Si02
#       8
#    16   8   8  16  16  16   8  16
#     4  11  18  37  59  90 122 157 196 247 310 380
#     4  10  16  32  58  84 116 160 194 242 304 378
#     4  11  24  42  60  90 121 154 222 270 311 368
#     4  10  20  37  60  84 124 161 201 247 316 371
#     4  11  21  36  59  92 127 159 200 246 303 390
#     4  11  24  42  63  86 119 167 209 264 313 365
#     4  11  22  36  64  92 116 150 203 270 312 356
#     4  10  21  36  60  83 123 161 199 245 314 371
#
# _framework density 18.543234000000002
#
# number of rings (size 3 to 8) (size 9 to 14) (size 15 to 20)
#    0.000    1.385    5.385    1.846    0.000    1.231 
#    0.000    0.769    0.000    0.923    0.000    0.000 
#    0.000    0.000    0.000    0.000    0.000    0.000 
#
# Total GULP energy -289543.729910 kJ/mol
# GULP energy per Si atom -5568.148652 kJ/mol
# Density = 1.850103 g / cm^3
# Si number density = 18.543234 Si / 1000 Ang^3
#
#
#
# Elastic Constant Matrix: (Units=GPa)
#
#
# Indices 1 2 3 4 5 6 
#
# 1 76.0494 23.3680 47.5720 0.0000 0.0000 0.0000
# 2 23.3680 73.7926 30.3309 0.0000 0.0000 0.0000
# 3 47.5720 30.3309 136.5455 0.0000 0.0000 0.0000
# 4 0.0000 0.0000 0.0000 21.6039 0.0000 0.0000
# 5 0.0000 0.0000 0.0000 0.0000 31.2287 0.0000
# 6 0.0000 0.0000 0.0000 0.0000 0.0000 19.4168
#
#
#
# Elastic Compliance Matrix: (Units=1/GPa)
#
#
# Indices 1 2 3 4 5 6 
#
# 1 0.017534 -0.003347 -0.005365 0.000000 0.000000 0.000000
# 2 -0.003347 0.015552 -0.002288 0.000000 0.000000 0.000000
# 3 -0.005365 -0.002288 0.009701 0.000000 0.000000 0.000000
# 4 0.000000 0.000000 0.000000 0.046288 0.000000 0.000000
# 5 0.000000 0.000000 0.000000 0.000000 0.032022 0.000000
# 6 0.000000 0.000000 0.000000 0.000000 0.000000 0.051502
#
#
# Mechanical properties :
#
#
# Convention : Reuss Voigt Hill
#
# Bulk Modulus (GPa) = 48.11073 54.32547 51.21810
# Shear Modulus (GPa) = 24.81027 26.79096 25.80061
#
# Velocity S-wave (km/s) = 3.66179 3.80515 3.73416
# Velocity P-wave (km/s) = 6.62418 6.97609 6.80241
#
# Compressibility (1/GPa) = 0.02078538
#
# Stress axis : x y z
#
# Youngs Moduli (GPa) = 57.03175 64.30008 103.08061
#
# Poissons Ratio (x) = 0.21523 0.55306
# Poissons Ratio (y) = 0.19090 0.23589
# Poissons Ratio (z) = 0.30599 0.14715
#
# Static dielectric constant tensor:
#      x y z
#    x 1.648730 0.000000 0.000000 
#    y 0.000000 1.700660 0.000000 
#    z 0.000000 0.000000 1.696230 
# 
# From -- ./inp_files/25587.got.cif
#   From: 2010.05.17/outbox.cif.g08.bks.cpg/sg68_13_cif.got.tgz:25587.got - 2010.06.03 18:57:09.
