data_PCOD9505538
_publ_section_title
;
Structure prediction by ZEFSAII (Michael W. Deem and Ramdas Pophale) SiO2 
 PCOD9505538
Probable space group: C C C A
;
_chemical_formula_sum "Si O2"
_cell_formula_units_Z 72
_cell_length_a 16.911620
_cell_length_b 8.548388
_cell_length_c 19.855065
_cell_angle_alpha 90.000000
_cell_angle_beta 90.000000
_cell_angle_gamma 90.000000
_cell_volume 2870.388958
_symmetry_space_group_name_H-M "C C C A"
_symmetry_group_IT_number 68
_space_group.IT_coordinate_system_code '2'
_symmetry_cell_setting 'orthorhombic'
loop_
_space_group_symop_operation_xyz
x,y,z
-x,1/2-y,z
x,1/2-y,1/2-z
-x,y,1/2-z
-x,-y,-z
x,1/2+y,-z
-x,1/2+y,1/2+z
x,-y,1/2+z
1/2+x,1/2+y,z
1/2-x,-y,z
1/2+x,-y,1/2-z
1/2-x,1/2+y,1/2-z
1/2-x,1/2-y,-z
1/2+x,y,-z
1/2-x,y,1/2+z
1/2+x,1/2-y,1/2+z
loop_
_atom_site_type_symbol
_atom_site_label
_atom_site_fract_x
_atom_site_fract_y
_atom_site_fract_z
Si Si1 0.055950 0.400414 0.559997
Si Si2 0.347106 0.250000 0.250000
Si Si3 0.287864 0.253933 0.395222
Si Si4 0.459093 0.475224 0.813738
Si Si5 0.862312 0.095868 0.424970
O O1 0.148442 0.363960 0.575234
O O2 0.022495 0.474791 0.628979
O O3 0.071367 0.441861 0.481035
O O4 0.000000 0.250000 0.554845
O O5 0.290990 0.219405 0.315002
O O6 0.406659 0.381426 0.281542
O O7 0.203182 0.268859 0.431975
O O8 0.323515 0.427427 0.409450
O O9 0.500000 0.408102 0.750000
O O10 0.403746 0.360572 0.855130
#
# Coordination Sequence:
#
# PCOD9505538 Si02
#       5
#    16   8  16  16  16
#     4  12  20  35  62  88 114 161 201 244 297 367
#     4  10  17  34  62  86 101 152 208 242 287 350
#     4  10  21  38  60  82 124 156 199 249 303 364
#     4  11  19  35  62  90 111 148 211 258 286 357
#     4  10  23  36  55  91 124 150 190 256 311 345
#
# _framework density 25.083708000000001
#
# number of rings (size 3 to 8) (size 9 to 14) (size 15 to 20)
#    0.000    1.333    6.667    1.667    0.000    0.000 
#    0.000    2.222    9.778    0.000    0.000    0.000 
#    0.000    0.000    0.000    0.000    0.000    0.000 
#
# Total GULP energy -200518.926380 kJ/mol
# GULP energy per Si atom -5569.970177 kJ/mol
# Density = 2.502662 g / cm^3
# Si number density = 25.083708 Si / 1000 Ang^3
#
#
#
# Elastic Constant Matrix: (Units=GPa)
#
#
# Indices 1 2 3 4 5 6 
#
# 1 85.5656 9.3202 43.7313 0.0000 0.0000 0.0000
# 2 9.3202 45.6730 18.5513 0.0000 0.0000 0.0000
# 3 43.7313 18.5513 198.0720 0.0000 0.0000 0.0000
# 4 0.0000 0.0000 0.0000 24.4649 0.0000 0.0000
# 5 0.0000 0.0000 0.0000 0.0000 34.9590 0.0000
# 6 0.0000 0.0000 0.0000 0.0000 0.0000 -35.8572
#
#
#
# Elastic Compliance Matrix: (Units=1/GPa)
#
#
# Indices 1 2 3 4 5 6 
#
# 1 0.013282 -0.001579 -0.002785 0.000000 0.000000 0.000000
# 2 -0.001579 0.022948 -0.001801 0.000000 0.000000 0.000000
# 3 -0.002785 -0.001801 0.005832 0.000000 0.000000 0.000000
# 4 0.000000 0.000000 0.000000 0.040875 0.000000 0.000000
# 5 0.000000 0.000000 0.000000 0.000000 0.028605 0.000000
# 6 0.000000 0.000000 0.000000 0.000000 0.000000 -0.027888
#
#
# Mechanical properties :
#
#
# Convention : Reuss Voigt Hill
#
# Bulk Modulus (GPa) = 33.63208 52.50181 43.06694
# Shear Modulus (GPa) = 47.21685 21.89386 34.55536
#
# Velocity S-wave (km/s) = 4.34334 2.95758 3.71563
# Velocity P-wave (km/s) = 6.21207 5.71306 5.96779
#
# Compressibility (1/GPa) = 0.02973352
#
# Stress axis : x y z
#
# Youngs Moduli (GPa) = 75.28912 43.57590 171.46456
#
# Poissons Ratio (x) = 0.06882 0.47746
# Poissons Ratio (y) = 0.11891 0.30875
# Poissons Ratio (z) = 0.20965 0.07846
#
# Static dielectric constant tensor:
#      x y z
#    x 2.070220 0.000000 0.000000 
#    y 0.000000 2.063100 0.000000 
#    z 0.000000 0.000000 2.220170 
# 
# From -- ./inp_files/31649.got.cif
#   From: 2010.05.17/outbox.cif.g08.bks.cpg/sg68_16_cif.got.tgz:31649.got - 2010.06.03 18:57:09.
