data_PCOD9505330
_publ_section_title
;
Structure prediction by ZEFSAII (Michael W. Deem and Ramdas Pophale) SiO2 
 PCOD9505330
Probable space group: C C C A
;
_chemical_formula_sum "Si O2"
_cell_formula_units_Z 56
_cell_length_a 5.498703
_cell_length_b 31.568730
_cell_length_c 13.728861
_cell_angle_alpha 90.000000
_cell_angle_beta 90.000000
_cell_angle_gamma 90.000000
_cell_volume 2383.152760
_symmetry_space_group_name_H-M "C C C A"
_symmetry_group_IT_number 68
_space_group.IT_coordinate_system_code '2'
_symmetry_cell_setting 'orthorhombic'
loop_
_space_group_symop_operation_xyz
x,y,z
-x,1/2-y,z
x,1/2-y,1/2-z
-x,y,1/2-z
-x,-y,-z
x,1/2+y,-z
-x,1/2+y,1/2+z
x,-y,1/2+z
1/2+x,1/2+y,z
1/2-x,-y,z
1/2+x,-y,1/2-z
1/2-x,1/2+y,1/2-z
1/2-x,1/2-y,-z
1/2+x,y,-z
1/2-x,y,1/2+z
1/2+x,1/2-y,1/2+z
loop_
_atom_site_type_symbol
_atom_site_label
_atom_site_fract_x
_atom_site_fract_y
_atom_site_fract_z
Si Si1 0.875805 0.901369 0.619902
Si Si2 0.869641 0.367278 0.602977
Si Si3 0.246149 0.231889 0.608610
Si Si4 0.000000 0.523333 0.750000
O O1 0.886212 0.890345 0.503482
O O2 0.631930 0.876264 0.648826
O O3 0.884466 0.948934 0.660475
O O4 0.138235 0.886217 0.656960
O O5 0.797053 0.318138 0.596965
O O6 0.500000 0.250000 0.649826
O O7 0.250000 0.250000 0.500000
O O8 0.000000 0.250000 0.653468
O O9 0.250000 0.500000 0.785845
#
# Coordination Sequence:
#
# PCOD9505330 Si02
#       4
#    16  16  16   8
#     4  10  20  37  58  80 111 145 184 233 283 343
#     4  10  19  35  57  87 115 148 193 229 269 333
#     4  10  16  25  46  82 119 146 175 226 264 297
#     4  12  26  44  60  82 109 142 187 240 302 364
#
# _framework density 23.498284000000002
#
# number of rings (size 3 to 8) (size 9 to 14) (size 15 to 20)
#    0.000    1.714    0.000   10.286    0.000    0.000 
#    0.000   17.143    0.000    0.000    0.000   48.000 
#    0.000    0.000    0.000    0.000    0.000    0.000 
#
# Total GULP energy -155889.282781 kJ/mol
# GULP energy per Si atom -5567.474385 kJ/mol
# Density = 2.344480 g / cm^3
# Si number density = 23.498284 Si / 1000 Ang^3
#
#
#
# Elastic Constant Matrix: (Units=GPa)
#
#
# Indices 1 2 3 4 5 6 
#
# 1 258.5112 38.0278 35.6443 0.0000 0.0000 0.0000
# 2 38.0278 112.2816 22.7369 0.0000 0.0000 0.0000
# 3 35.6443 22.7369 114.3491 0.0000 0.0000 0.0000
# 4 0.0000 0.0000 0.0000 42.2227 0.0000 0.0000
# 5 0.0000 0.0000 0.0000 0.0000 52.2217 0.0000
# 6 0.0000 0.0000 0.0000 0.0000 0.0000 51.0018
#
#
#
# Elastic Compliance Matrix: (Units=1/GPa)
#
#
# Indices 1 2 3 4 5 6 
#
# 1 0.004193 -0.001204 -0.001068 0.000000 0.000000 0.000000
# 2 -0.001204 0.009625 -0.001539 0.000000 0.000000 0.000000
# 3 -0.001068 -0.001539 0.009384 0.000000 0.000000 0.000000
# 4 0.000000 0.000000 0.000000 0.023684 0.000000 0.000000
# 5 0.000000 0.000000 0.000000 0.000000 0.019149 0.000000
# 6 0.000000 0.000000 0.000000 0.000000 0.000000 0.019607
#
#
# Mechanical properties :
#
#
# Convention : Reuss Voigt Hill
#
# Bulk Modulus (GPa) = 64.17685 75.32888 69.75287
# Shear Modulus (GPa) = 50.78410 55.00478 52.89444
#
# Velocity S-wave (km/s) = 4.65390 4.84343 4.74961
# Velocity P-wave (km/s) = 7.49993 7.96274 7.73480
#
# Compressibility (1/GPa) = 0.01558194
#
# Stress axis : x y z
#
# Youngs Moduli (GPa) = 238.51666 103.89120 106.56597
#
# Poissons Ratio (x) = 0.12506 0.11376
# Poissons Ratio (y) = 0.28712 0.16397
# Poissons Ratio (z) = 0.25462 0.15985
#
# Static dielectric constant tensor:
#      x y z
#    x 1.787580 0.000000 0.000000 
#    y 0.000000 2.076590 0.000000 
#    z 0.000000 0.000000 1.890070 
# 
# From -- ./inp_files/26998.got.cif
#   From: 2010.05.17/outbox.cif.g08.bks.cpg/sg68_14_cif.got.tgz:26998.got - 2010.06.03 18:57:09.
