data_PCOD9505110
_publ_section_title
;
Structure prediction by ZEFSAII (Michael W. Deem and Ramdas Pophale) SiO2 
 PCOD9505110
Probable space group: C M M A
;
_chemical_formula_sum "Si O2"
_cell_formula_units_Z 80
_cell_length_a 14.408985
_cell_length_b 10.796891
_cell_length_c 24.904683
_cell_angle_alpha 90.000000
_cell_angle_beta 90.000000
_cell_angle_gamma 90.000000
_cell_volume 3874.477332
_symmetry_space_group_name_H-M "C M M A"
_symmetry_group_IT_number 67
_symmetry_cell_setting 'orthorhombic'
loop_
_space_group_symop_operation_xyz
x,y,z
-x,1/2-y,z
x,-y,-z
-x,1/2+y,-z
-x,-y,-z
x,1/2+y,-z
-x,y,z
x,1/2-y,z
1/2+x,1/2+y,z
1/2-x,-y,z
1/2+x,1/2-y,-z
1/2-x,y,-z
1/2-x,1/2-y,-z
1/2+x,y,-z
1/2-x,1/2+y,z
1/2+x,-y,z
loop_
_atom_site_type_symbol
_atom_site_label
_atom_site_fract_x
_atom_site_fract_y
_atom_site_fract_z
Si Si1 0.112980 0.993268 0.121998
Si Si2 0.893604 0.899132 0.351727
Si Si3 0.886840 0.250000 0.068631
Si Si4 0.612926 0.250000 0.055495
Si Si5 0.151161 0.112570 0.530116
Si Si6 0.386607 0.606319 0.764538
O O1 0.141296 0.874973 0.086290
O O2 0.141282 0.970918 0.183485
O O3 0.000000 0.993661 0.121306
O O4 0.143254 0.124151 0.097872
O O5 0.896644 0.750000 0.345260
O O6 0.840894 0.921229 0.407129
O O7 0.857542 0.943840 0.293978
O O8 0.000000 0.942150 0.359461
O O9 0.000000 0.250000 0.069169
O O10 0.858382 0.250000 0.006463
O O11 0.500000 0.250000 0.056020
O O12 0.108364 0.250000 0.527486
O O13 0.250000 0.122578 0.500000
O O14 0.102086 0.000000 0.500000
O O15 0.500000 0.607669 0.762846
O O16 0.357747 0.750000 0.771888
#
# Coordination Sequence:
#
# PCOD9505110 Si02
#       6
#    16  16   8   8  16  16
#     4   9  14  20  29  40  56  82 115 154 198 235
#     4   8  14  24  40  61  81 103 135 173 207 240
#     4   9  16  20  24  38  60  84 112 152 200 240
#     4   9  14  20  28  38  54  80 118 158 192 230
#     4   9  17  29  45  64  85 108 133 164 200 245
#     4   8  12  20  34  49  63  85 122 162 196 232
#
# _framework density 20.647946000000001
#
# number of rings (size 3 to 8) (size 9 to 14) (size 15 to 20)
#    0.000    3.400    1.000    1.800    0.000    2.800 
#    0.000    0.000    2.200    0.000    0.000    0.000 
#    0.000    0.000    0.000    0.000    0.000    0.000 
#
# Total GULP energy -222876.210654 kJ/mol
# GULP energy per Si atom -5571.905266 kJ/mol
# Density = 2.060095 g / cm^3
# Si number density = 20.647946 Si / 1000 Ang^3
#
#
#
# Elastic Constant Matrix: (Units=GPa)
#
#
# Indices 1 2 3 4 5 6 
#
# 1 78.4431 13.3062 27.3269 0.0000 0.0000 0.0000
# 2 13.3062 148.5319 97.8233 0.0000 0.0000 0.0000
# 3 27.3269 97.8233 255.5014 0.0000 0.0000 0.0000
# 4 0.0000 0.0000 0.0000 -31.3166 0.0000 0.0000
# 5 0.0000 0.0000 0.0000 0.0000 37.3217 0.0000
# 6 0.0000 0.0000 0.0000 0.0000 0.0000 -16.8429
#
#
#
# Elastic Compliance Matrix: (Units=1/GPa)
#
#
# Indices 1 2 3 4 5 6 
#
# 1 0.013254 -0.000339 -0.001288 0.000000 0.000000 0.000000
# 2 -0.000339 0.009011 -0.003414 0.000000 0.000000 0.000000
# 3 -0.001288 -0.003414 0.005359 0.000000 0.000000 0.000000
# 4 0.000000 0.000000 0.000000 -0.031932 0.000000 0.000000
# 5 0.000000 0.000000 0.000000 0.000000 0.026794 0.000000
# 6 0.000000 0.000000 0.000000 0.000000 0.000000 -0.059372
#
#
# Mechanical properties :
#
#
# Convention : Reuss Voigt Hill
#
# Bulk Modulus (GPa) = 57.00434 84.37657 70.69045
# Shear Modulus (GPa) = -238.58637 20.76711 -108.90963
#
# Velocity S-wave (km/s) = -10.76107 3.17483 -7.27052
# Velocity P-wave (km/s) = 11.25758 7.37513 6.01417
#
# Compressibility (1/GPa) = 0.01754253
#
# Stress axis : x y z
#
# Youngs Moduli (GPa) = 75.44755 110.97147 186.61407
#
# Poissons Ratio (x) = 0.03765 0.24030
# Poissons Ratio (y) = 0.02560 0.63707
# Poissons Ratio (z) = 0.09715 0.37884
#
# Static dielectric constant tensor:
#      x y z
#    x 0.985790 0.000000 0.000000 
#    y 0.000000 1.743670 0.000000 
#    z 0.000000 0.000000 1.747340 
# 
# From -- ./inp_files/42152.got.cif
#   From: 2010.05.17/outbox.cif.g08.bks.cpg/sg67_22_cif.got.tgz:42152.got - 2010.06.03 18:28:57.
