data_PCOD9505149
_publ_section_title
;
Structure prediction by ZEFSAII (Michael W. Deem and Ramdas Pophale) SiO2 
 PCOD9505149
Probable space group: C M M A
;
_chemical_formula_sum "Si O2"
_cell_formula_units_Z 80
_cell_length_a 20.138124
_cell_length_b 9.206965
_cell_length_c 26.258453
_cell_angle_alpha 90.000000
_cell_angle_beta 90.000000
_cell_angle_gamma 90.000000
_cell_volume 4868.606104
_symmetry_space_group_name_H-M "C M M A"
_symmetry_group_IT_number 67
_symmetry_cell_setting 'orthorhombic'
loop_
_space_group_symop_operation_xyz
x,y,z
-x,1/2-y,z
x,-y,-z
-x,1/2+y,-z
-x,-y,-z
x,1/2+y,-z
-x,y,z
x,1/2-y,z
1/2+x,1/2+y,z
1/2-x,-y,z
1/2+x,1/2-y,-z
1/2-x,y,-z
1/2-x,1/2-y,-z
1/2+x,y,-z
1/2-x,1/2+y,z
1/2+x,-y,z
loop_
_atom_site_type_symbol
_atom_site_label
_atom_site_fract_x
_atom_site_fract_y
_atom_site_fract_z
Si Si1 0.320156 0.424620 0.859673
Si Si2 0.422388 0.924401 0.345201
Si Si3 0.320166 0.575526 0.257209
Si Si4 0.080853 0.417115 0.550782
Si Si5 0.922814 0.075477 0.052891
O O1 0.312404 0.250000 0.862352
O O2 0.250000 0.500000 0.870731
O O3 0.338785 0.460979 0.801233
O O4 0.375557 0.467750 0.900570
O O5 0.500000 0.960166 0.335851
O O6 0.418517 0.750000 0.351959
O O7 0.376182 0.966102 0.297854
O O8 0.400396 0.001867 0.397238
O O9 0.312086 0.750000 0.259803
O O10 0.250000 0.500000 0.268372
O O11 0.103506 0.500000 0.500000
O O12 0.102392 0.250000 0.550710
O O13 0.000000 0.418242 0.549639
O O14 0.918696 0.250000 0.047106
O O15 0.000000 0.038728 0.063108
O O16 0.903278 0.000000 0.000000
#
# Coordination Sequence:
#
# PCOD9505149 Si02
#       5
#    16  16  16  16  16
#     4   9  18  32  49  69  92 120 155 192 229 271
#     4   9  17  29  46  69  94 119 151 190 229 271
#     4   9  18  32  49  68  92 123 155 188 229 275
#     4   9  16  26  42  65  93 123 153 187 228 272
#     4   9  18  32  49  69  94 123 154 189 230 275
#
# _framework density 16.431809000000001
#
# number of rings (size 3 to 8) (size 9 to 14) (size 15 to 20)
#    0.000    3.000    0.000    0.600    0.000    5.200 
#    0.000    6.000    0.000    0.600    0.000   15.400 
#    0.000    0.000    0.000    0.000    0.000    0.000 
#
# Total GULP energy -222850.216502 kJ/mol
# GULP energy per Si atom -5571.255413 kJ/mol
# Density = 1.639441 g / cm^3
# Si number density = 16.431809 Si / 1000 Ang^3
#
#
#
# Elastic Constant Matrix: (Units=GPa)
#
#
# Indices 1 2 3 4 5 6 
#
# 1 77.6827 37.5731 102.3867 0.0000 0.0000 0.0000
# 2 37.5731 32.0287 57.6159 0.0000 0.0000 0.0000
# 3 102.3867 57.6159 175.1197 0.0000 0.0000 0.0000
# 4 0.0000 0.0000 0.0000 28.7108 0.0000 0.0000
# 5 0.0000 0.0000 0.0000 0.0000 -4.2071 0.0000
# 6 0.0000 0.0000 0.0000 0.0000 0.0000 22.0154
#
#
#
# Elastic Compliance Matrix: (Units=1/GPa)
#
#
# Indices 1 2 3 4 5 6 
#
# 1 0.060007 -0.017843 -0.029214 0.000000 0.000000 0.000000
# 2 -0.017843 0.081801 -0.016481 0.000000 0.000000 0.000000
# 3 -0.029214 -0.016481 0.028213 0.000000 0.000000 0.000000
# 4 0.000000 0.000000 0.000000 0.034830 0.000000 0.000000
# 5 0.000000 0.000000 0.000000 0.000000 -0.237695 0.000000
# 6 0.000000 0.000000 0.000000 0.000000 0.000000 0.045423
#
#
# Mechanical properties :
#
#
# Convention : Reuss Voigt Hill
#
# Bulk Modulus (GPa) = 23.28503 75.55363 49.41933
# Shear Modulus (GPa) = 32.47392 15.12084 23.79738
#
# Velocity S-wave (km/s) = 4.45036 3.03680 3.80972
# Velocity P-wave (km/s) = 6.37253 7.64043 7.03510
#
# Compressibility (1/GPa) = 0.04294605
#
# Stress axis : x y z
#
# Youngs Moduli (GPa) = 16.66478 12.22476 35.44449
#
# Poissons Ratio (x) = 0.21812 1.03546
# Poissons Ratio (y) = 0.29734 0.58417
# Poissons Ratio (z) = 0.48684 0.20148
#
# Static dielectric constant tensor:
#      x y z
#    x 1.527600 0.000000 0.000000 
#    y 0.000000 1.551430 0.000000 
#    z 0.000000 0.000000 1.543550 
# 
# From -- ./inp_files/41318.got.cif
#   From: 2010.05.17/outbox.cif.g08.bks.cpg/sg67_21_cif.got.tgz:41318.got - 2010.06.03 18:28:57.
