data_PCOD9505510
_publ_section_title
;
Structure prediction by ZEFSAII (Michael W. Deem and Ramdas Pophale) SiO2 
 PCOD9505510
Probable space group: C C C A
;
_chemical_formula_sum "Si O2"
_cell_formula_units_Z 80
_cell_length_a 5.618152
_cell_length_b 25.005001
_cell_length_c 27.304763
_cell_angle_alpha 90.000000
_cell_angle_beta 90.000000
_cell_angle_gamma 90.000000
_cell_volume 3835.824886
_symmetry_space_group_name_H-M "C C C A"
_symmetry_group_IT_number 68
_space_group.IT_coordinate_system_code '2'
_symmetry_cell_setting 'orthorhombic'
loop_
_space_group_symop_operation_xyz
x,y,z
-x,1/2-y,z
x,1/2-y,1/2-z
-x,y,1/2-z
-x,-y,-z
x,1/2+y,-z
-x,1/2+y,1/2+z
x,-y,1/2+z
1/2+x,1/2+y,z
1/2-x,-y,z
1/2+x,-y,1/2-z
1/2-x,1/2+y,1/2-z
1/2-x,1/2-y,-z
1/2+x,y,-z
1/2-x,y,1/2+z
1/2+x,1/2-y,1/2+z
loop_
_atom_site_type_symbol
_atom_site_label
_atom_site_fract_x
_atom_site_fract_y
_atom_site_fract_z
Si Si1 0.883948 0.389533 0.803530
Si Si2 0.746759 0.229314 0.693057
Si Si3 0.150680 0.055447 0.615049
Si Si4 0.231503 0.896691 0.015361
Si Si5 0.750000 0.000000 0.049086
Si Si6 0.750000 0.000000 0.221306
O O1 0.747847 0.334597 0.810725
O O2 0.729082 0.443610 0.806312
O O3 0.000000 0.384455 0.750000
O O4 0.082785 0.402335 0.843757
O O5 0.500000 0.250000 0.670945
O O6 0.746956 0.250000 0.750000
O O7 0.000000 0.250000 0.672620
O O8 0.284781 0.087205 0.571749
O O9 0.932586 0.029811 0.584620
O O10 0.250000 0.000000 0.637561
O O11 0.467826 0.870226 0.991441
O O12 0.173101 0.952441 0.986940
O O13 0.500000 0.004469 0.250000
#
# Coordination Sequence:
#
# PCOD9505510 Si02
#       6
#    16  16  16  16   8   8
#     4  11  24  40  57  89 125 166 204 250 308 373
#     4  10  21  42  67  80  99 152 218 267 298 328
#     4  11  20  34  53  83 121 165 197 235 297 372
#     4  10  17  32  55  75 109 159 199 241 279 341
#     4  10  17  34  51  78 118 162 207 236 285 352
#     4  10  25  40  55  78 120 160 191 226 301 374
#
# _framework density 20.856010999999999
#
# number of rings (size 3 to 8) (size 9 to 14) (size 15 to 20)
#    0.000    1.600    5.000    1.800    8.400    0.000 
#    3.600    0.000    0.000    0.000    0.000    0.000 
#    0.000   19.200    0.000    0.000    0.000    0.000 
#
# Total GULP energy -222765.148407 kJ/mol
# GULP energy per Si atom -5569.128710 kJ/mol
# Density = 2.080854 g / cm^3
# Si number density = 20.856011 Si / 1000 Ang^3
#
#
#
# Elastic Constant Matrix: (Units=GPa)
#
#
# Indices 1 2 3 4 5 6 
#
# 1 118.4981 37.5614 14.6326 0.0000 0.0000 0.0000
# 2 37.5614 137.7731 18.8056 0.0000 0.0000 0.0000
# 3 14.6326 18.8056 86.7119 0.0000 0.0000 0.0000
# 4 0.0000 0.0000 0.0000 -7.8830 0.0000 0.0000
# 5 0.0000 0.0000 0.0000 0.0000 -6.1389 0.0000
# 6 0.0000 0.0000 0.0000 0.0000 0.0000 22.9029
#
#
#
# Elastic Compliance Matrix: (Units=1/GPa)
#
#
# Indices 1 2 3 4 5 6 
#
# 1 0.009330 -0.002400 -0.001054 0.000000 0.000000 0.000000
# 2 -0.002400 0.008097 -0.001351 0.000000 0.000000 0.000000
# 3 -0.001054 -0.001351 0.012003 0.000000 0.000000 0.000000
# 4 0.000000 0.000000 0.000000 -0.126856 0.000000 0.000000
# 5 0.000000 0.000000 0.000000 0.000000 -0.162896 0.000000
# 6 0.000000 0.000000 0.000000 0.000000 0.000000 0.043663
#
#
# Mechanical properties :
#
#
# Convention : Reuss Voigt Hill
#
# Bulk Modulus (GPa) = 50.45274 53.88692 52.16983
# Shear Modulus (GPa) = -24.94478 19.90844 -2.51817
#
# Velocity S-wave (km/s) = -3.46214 3.09296 -1.10001
# Velocity P-wave (km/s) = 2.87430 6.21682 4.84306
#
# Compressibility (1/GPa) = 0.01982053
#
# Stress axis : x y z
#
# Youngs Moduli (GPa) = 107.18387 123.50300 83.31033
#
# Poissons Ratio (x) = 0.29637 0.08781
# Poissons Ratio (y) = 0.25721 0.11256
# Poissons Ratio (z) = 0.11297 0.16686
#
# Static dielectric constant tensor:
#      x y z
#    x 1.937800 0.000000 0.000000 
#    y 0.000000 1.730690 0.000000 
#    z 0.000000 0.000000 1.780360 
# 
# From -- ./inp_files/53209.got.cif
#   From: 2010.05.17/outbox.cif.g08.bks.cpg/sg68_27_cif.got.tgz:53209.got - 2010.06.03 18:57:09.
