data_PCOD9505264
_publ_section_title
;
Structure prediction by ZEFSAII (Michael W. Deem and Ramdas Pophale) SiO2 
 PCOD9505264
Probable space group: C M M A
;
_chemical_formula_sum "Si O2"
_cell_formula_units_Z 56
_cell_length_a 15.000000
_cell_length_b 15.000000
_cell_length_c 24.000000
_cell_angle_alpha 90.000000
_cell_angle_beta 90.000000
_cell_angle_gamma 90.000000
_cell_volume 5400.000000
_symmetry_space_group_name_H-M "C M M A"
_symmetry_group_IT_number 67
_symmetry_cell_setting 'orthorhombic'
loop_
_space_group_symop_operation_xyz
x,y,z
-x,1/2-y,z
x,-y,-z
-x,1/2+y,-z
-x,-y,-z
x,1/2+y,-z
-x,y,z
x,1/2-y,z
1/2+x,1/2+y,z
1/2-x,-y,z
1/2+x,1/2-y,-z
1/2-x,y,-z
1/2-x,1/2-y,-z
1/2+x,y,-z
1/2-x,1/2+y,z
1/2+x,-y,z
loop_
_atom_site_type_symbol
_atom_site_label
_atom_site_fract_x
_atom_site_fract_y
_atom_site_fract_z
Si Si1 0.890915 0.501332 0.605563
Si Si2 0.892297 0.494160 0.263820
Si Si3 0.250051 0.146146 0.433446
Si Si4 0.896507 0.359032 0.936229
Si Si5 0.890561 0.148262 0.815300
Si Si6 0.890904 0.852762 0.824364
Si Si7 0.608131 0.355937 0.945027
O O1 0.872973 0.506565 0.671552
O O2 0.838344 0.588122 0.582085
O O3 0.836589 0.413538 0.584457
O O4 0.000000 0.499589 0.595783
O O5 0.861374 0.583248 0.233106
O O6 0.860080 0.411216 0.227220
O O7 0.000000 0.493169 0.259663
O O8 0.250586 0.250000 0.412765
O O9 0.250000 0.150228 0.500000
O O10 0.897030 0.250000 0.937155
O O11 0.858130 0.382793 0.876282
O O12 0.000000 0.388555 0.935575
O O13 0.857738 0.389473 0.995317
O O14 0.863784 0.250000 0.806244
O O15 0.000000 0.147618 0.817596
O O16 0.862988 0.750000 0.819810
O O17 0.863899 0.891409 0.884898
O O18 0.000000 0.852541 0.824679
O O19 0.500000 0.363052 0.947490
O O20 0.628440 0.250000 0.942898
#
# Coordination Sequence:
#
# PCOD9505264 Si02
#       7
#    16  16  16  16  16  16  16
#     4  10  21  38  62  92 128 169 208 248 296 352
#     4   9  17  27  41  66  98 135 182 227 271 332
#     4  10  23  43  66  95 129 162 201 249 297 348
#     4   7   9  14  25  40  61  99 154 211 268 329
#     4   8  13  21  32  48  77 118 165 221 277 328
#     4   8  13  21  32  48  77 118 165 221 277 328
#     4   7   9  14  25  40  61  99 154 211 268 329
#
# _framework density 10.370369999999999
#
# number of rings (size 3 to 8) (size 9 to 14) (size 15 to 20)
#    0.000    3.571    0.000    3.429    0.000    2.857 
#    0.000    5.000    0.000    4.286    0.000    0.000 
#    0.000    0.000    0.000   10.286    0.000   86.286 
#
# Total GULP energy -312042.652005 kJ/mol
# GULP energy per Si atom -5572.190214 kJ/mol
# Density = 1.034677 g / cm^3
# Si number density = 10.370370 Si / 1000 Ang^3
#
#
#
# Elastic Constant Matrix: (Units=GPa)
#
#
# Indices 1 2 3 4 5 6 
#
# 1 70.3955 15.8168 14.9934 0.0000 0.0000 0.0000
# 2 15.8168 115.5184 57.2414 0.0000 0.0000 0.0000
# 3 14.9934 57.2414 144.6271 0.0000 0.0000 0.0000
# 4 0.0000 0.0000 0.0000 -10.0052 0.0000 0.0000
# 5 0.0000 0.0000 0.0000 0.0000 -132.2208 0.0000
# 6 0.0000 0.0000 0.0000 0.0000 0.0000 -8.1667
#
#
#
# Elastic Compliance Matrix: (Units=1/GPa)
#
#
# Indices 1 2 3 4 5 6 
#
# 1 0.014752 -0.001570 -0.000908 0.000000 0.000000 0.000000
# 2 -0.001570 0.010936 -0.004165 0.000000 0.000000 0.000000
# 3 -0.000908 -0.004165 0.008657 0.000000 0.000000 0.000000
# 4 0.000000 0.000000 0.000000 -0.099948 0.000000 0.000000
# 5 0.000000 0.000000 0.000000 0.000000 -0.007563 0.000000
# 6 0.000000 0.000000 0.000000 0.000000 0.000000 -0.122448
#
#
# Mechanical properties :
#
#
# Convention : Reuss Voigt Hill
#
# Bulk Modulus (GPa) = 47.48843 56.29379 51.89111
# Shear Modulus (GPa) = -28.52116 -13.91259 -21.21688
#
# Velocity S-wave (km/s) = -3.71229 -2.59276 -3.20184
# Velocity P-wave (km/s) = 2.13801 4.27052 3.37701
#
# Compressibility (1/GPa) = 0.02105776
#
# Stress axis : x y z
#
# Youngs Moduli (GPa) = 67.78940 91.44428 115.51248
#
# Poissons Ratio (x) = 0.14356 0.10488
# Poissons Ratio (y) = 0.10642 0.48116
# Poissons Ratio (z) = 0.06155 0.38090
#
# Static dielectric constant tensor:
#      x y z
#    x 1.786300 0.000000 0.000000 
#    y 0.000000 1.762830 0.000000 
#    z 0.000000 0.000000 1.759290 
# 
# From -- ./inp_files/42011.got.cif
#   From: 2010.05.17/outbox.ucp.g08.bks.cvg/sg67_22_cif.got.tgz:42011.got - 2010.06.11 16:47:20.
