data_PCOD9505933
_publ_section_title
;
Structure prediction by ZEFSAII (Michael W. Deem and Ramdas Pophale) SiO2 
 PCOD9505933
Probable space group: C C C A
;
_chemical_formula_sum "Si O2"
_cell_formula_units_Z 120
_cell_length_a 17.701367
_cell_length_b 17.284243
_cell_length_c 20.175714
_cell_angle_alpha 90.000000
_cell_angle_beta 90.000000
_cell_angle_gamma 90.000000
_cell_volume 6172.855102
_symmetry_space_group_name_H-M "C C C A"
_symmetry_group_IT_number 68
_space_group.IT_coordinate_system_code '2'
_symmetry_cell_setting 'orthorhombic'
loop_
_space_group_symop_operation_xyz
x,y,z
-x,1/2-y,z
x,1/2-y,1/2-z
-x,y,1/2-z
-x,-y,-z
x,1/2+y,-z
-x,1/2+y,1/2+z
x,-y,1/2+z
1/2+x,1/2+y,z
1/2-x,-y,z
1/2+x,-y,1/2-z
1/2-x,1/2+y,1/2-z
1/2-x,1/2-y,-z
1/2+x,y,-z
1/2-x,y,1/2+z
1/2+x,1/2-y,1/2+z
loop_
_atom_site_type_symbol
_atom_site_label
_atom_site_fract_x
_atom_site_fract_y
_atom_site_fract_z
Si Si1 0.500000 0.931354 0.750000
Si Si2 0.620097 0.876432 0.076191
Si Si3 0.442084 0.044219 0.392173
Si Si4 0.223687 0.410435 0.622321
Si Si5 0.266885 0.409847 0.770071
Si Si6 0.552745 0.322683 0.058889
Si Si7 0.132317 0.818767 0.196316
Si Si8 0.084939 0.337318 0.227434
O O1 0.531379 0.972716 0.683786
O O2 0.570817 0.879201 0.773911
O O3 0.711473 0.873620 0.078040
O O4 0.594278 0.843861 0.147998
O O5 0.583084 0.962932 0.075757
O O6 0.595415 0.835854 0.009503
O O7 0.364099 0.093288 0.393284
O O8 0.506018 0.098357 0.424218
O O9 0.250000 0.500000 0.623035
O O10 0.236097 0.385307 0.697614
O O11 0.250000 0.500000 0.781329
O O12 0.214149 0.357446 0.815390
O O13 0.355323 0.392779 0.764631
O O14 0.500000 0.250000 0.047875
O O15 0.600816 0.299965 0.123796
O O16 0.135313 0.750000 0.250000
O O17 0.103210 0.250000 0.250000
O O18 0.000000 0.353895 0.250000
#
# Coordination Sequence:
#
# PCOD9505933 Si02
#       8
#     8  16  16  16  16  16  16  16
#     4  10  19  30  60  96 125 152 212 264 319 382
#     4  10  22  40  64  85 126 168 215 258 314 395
#     4  10  19  37  63  93 120 165 210 265 323 384
#     4   8  16  34  60  87 114 156 206 254 311 375
#     4  10  20  37  62  95 124 153 209 277 320 378
#     4  11  25  40  58  92 133 168 205 265 329 391
#     4  11  21  37  62  89 129 161 206 260 331 383
#     4  10  23  40  64  92 125 170 220 266 324 375
#
# _framework density 19.439952000000002
#
# number of rings (size 3 to 8) (size 9 to 14) (size 15 to 20)
#    0.000    2.000    1.333    3.400    2.800    1.067 
#    0.000    4.000    0.000    0.000    0.000    0.000 
#    0.000    0.000    0.000    0.000    0.000    0.000 
#
# Total GULP energy -334551.331206 kJ/mol
# GULP energy per Si atom -5575.855520 kJ/mol
# Density = 1.939571 g / cm^3
# Si number density = 19.439952 Si / 1000 Ang^3
#
#
#
# Elastic Constant Matrix: (Units=GPa)
#
#
# Indices 1 2 3 4 5 6 
#
# 1 103.9061 25.4208 40.8809 0.0000 0.0000 0.0000
# 2 25.4208 67.9212 28.3575 0.0000 0.0000 0.0000
# 3 40.8809 28.3575 88.5339 0.0000 0.0000 0.0000
# 4 0.0000 0.0000 0.0000 23.5096 0.0000 0.0000
# 5 0.0000 0.0000 0.0000 0.0000 18.1067 0.0000
# 6 0.0000 0.0000 0.0000 0.0000 0.0000 22.5329
#
#
#
# Elastic Compliance Matrix: (Units=1/GPa)
#
#
# Indices 1 2 3 4 5 6 
#
# 1 0.012129 -0.002541 -0.004787 0.000000 0.000000 0.000000
# 2 -0.002541 0.017528 -0.004441 0.000000 0.000000 0.000000
# 3 -0.004787 -0.004441 0.014928 0.000000 0.000000 0.000000
# 4 0.000000 0.000000 0.000000 0.042536 0.000000 0.000000
# 5 0.000000 0.000000 0.000000 0.000000 0.055228 0.000000
# 6 0.000000 0.000000 0.000000 0.000000 0.000000 0.044380
#
#
# Mechanical properties :
#
#
# Convention : Reuss Voigt Hill
#
# Bulk Modulus (GPa) = 47.51144 49.96439 48.73792
# Shear Modulus (GPa) = 23.01161 23.87665 23.44413
#
# Velocity S-wave (km/s) = 3.44427 3.50841 3.47648
# Velocity P-wave (km/s) = 6.34905 6.49381 6.42184
#
# Compressibility (1/GPa) = 0.02104756
#
# Stress axis : x y z
#
# Youngs Moduli (GPa) = 82.44674 57.05136 66.98898
#
# Poissons Ratio (x) = 0.14497 0.32066
# Poissons Ratio (y) = 0.20950 0.29749
# Poissons Ratio (z) = 0.39465 0.25336
#
# Static dielectric constant tensor:
#      x y z
#    x 1.717560 0.000000 0.000000 
#    y 0.000000 1.714220 0.000000 
#    z 0.000000 0.000000 1.672190 
# 
# From -- ./inp_files/39782.got.cif
#   From: 2010.05.17/outbox.cif.g08.bks.cpg/sg68_20_cif.got.tgz:39782.got - 2010.06.03 18:57:09.
