data_PCOD9505513
_publ_section_title
;
Structure prediction by ZEFSAII (Michael W. Deem and Ramdas Pophale) SiO2 
 PCOD9505513
Probable space group: C C C A
;
_chemical_formula_sum "Si O2"
_cell_formula_units_Z 120
_cell_length_a 11.099254
_cell_length_b 23.223628
_cell_length_c 23.237751
_cell_angle_alpha 90.000000
_cell_angle_beta 90.000000
_cell_angle_gamma 90.000000
_cell_volume 5989.877631
_symmetry_space_group_name_H-M "C C C A"
_symmetry_group_IT_number 68
_space_group.IT_coordinate_system_code '2'
_symmetry_cell_setting 'orthorhombic'
loop_
_space_group_symop_operation_xyz
x,y,z
-x,1/2-y,z
x,1/2-y,1/2-z
-x,y,1/2-z
-x,-y,-z
x,1/2+y,-z
-x,1/2+y,1/2+z
x,-y,1/2+z
1/2+x,1/2+y,z
1/2-x,-y,z
1/2+x,-y,1/2-z
1/2-x,1/2+y,1/2-z
1/2-x,1/2-y,-z
1/2+x,y,-z
1/2-x,y,1/2+z
1/2+x,1/2-y,1/2+z
loop_
_atom_site_type_symbol
_atom_site_label
_atom_site_fract_x
_atom_site_fract_y
_atom_site_fract_z
Si Si1 0.656447 0.349356 0.150217
Si Si2 0.254953 0.682347 0.734184
Si Si3 0.323123 0.781375 0.887958
Si Si4 0.925685 0.307970 0.446635
Si Si5 0.377351 0.966446 0.014794
Si Si6 0.000000 0.882152 0.750000
Si Si7 0.509351 0.367331 0.446079
Si Si8 0.920916 0.602676 0.627569
O O1 0.656173 0.347351 0.219460
O O2 0.645305 0.283191 0.129896
O O3 0.564555 0.385527 0.110841
O O4 0.791418 0.368537 0.136417
O O5 0.244102 0.750000 0.750000
O O6 0.307543 0.681487 0.670320
O O7 0.121004 0.655488 0.738750
O O8 0.198628 0.785754 0.921541
O O9 0.419275 0.810958 0.927984
O O10 0.000000 0.250000 0.457725
O O11 0.918306 0.347863 0.503392
O O12 0.992460 0.348764 0.400111
O O13 0.396908 0.946038 0.080366
O O14 0.250000 0.000000 0.007808
O O15 0.393518 0.911329 0.972710
O O16 0.500000 0.000000 0.000000
O O17 0.027600 0.914889 0.690104
#
# Coordination Sequence:
#
# PCOD9505513 Si02
#       8
#    16  16  16  16  16   8  16  16
#     4  10  20  37  55  90 126 169 198 240 291 359
#     4   9  19  30  53  83 128 172 205 234 276 352
#     4  11  21  35  56  87 129 166 204 236 291 356
#     4  11  21  33  53  88 125 165 194 242 288 357
#     4  11  26  46  67  88 115 155 207 268 328 382
#     4  10  17  32  56  92 116 150 200 256 297 348
#     4  11  26  37  59  84 120 162 208 250 308 370
#     4  10  21  35  63  88 122 151 199 250 309 358
#
# _framework density 20.033798999999998
#
# number of rings (size 3 to 8) (size 9 to 14) (size 15 to 20)
#    0.000    1.600    2.667    2.200    7.467    1.600 
#    0.000    2.000    0.000    5.600    0.000    0.000 
#    0.000    0.000    0.000    0.000    0.000    0.000 
#
# Total GULP energy -334761.937283 kJ/mol
# GULP energy per Si atom -5579.365621 kJ/mol
# Density = 1.998820 g / cm^3
# Si number density = 20.033799 Si / 1000 Ang^3
#
#
#
# Elastic Constant Matrix: (Units=GPa)
#
#
# Indices 1 2 3 4 5 6 
#
# 1 73.6372 22.4098 51.8464 0.0000 0.0000 0.0000
# 2 22.4098 45.2564 35.8899 0.0000 0.0000 0.0000
# 3 51.8464 35.8899 145.2323 0.0000 0.0000 0.0000
# 4 0.0000 0.0000 0.0000 15.4712 0.0000 0.0000
# 5 0.0000 0.0000 0.0000 0.0000 29.7226 0.0000
# 6 0.0000 0.0000 0.0000 0.0000 0.0000 28.5462
#
#
#
# Elastic Compliance Matrix: (Units=1/GPa)
#
#
# Indices 1 2 3 4 5 6 
#
# 1 0.019012 -0.005015 -0.005548 0.000000 0.000000 0.000000
# 2 -0.005015 0.028805 -0.005328 0.000000 0.000000 0.000000
# 3 -0.005548 -0.005328 0.010183 0.000000 0.000000 0.000000
# 4 0.000000 0.000000 0.000000 0.064636 0.000000 0.000000
# 5 0.000000 0.000000 0.000000 0.000000 0.033644 0.000000
# 6 0.000000 0.000000 0.000000 0.000000 0.000000 0.035031
#
#
# Mechanical properties :
#
#
# Convention : Reuss Voigt Hill
#
# Bulk Modulus (GPa) = 38.14107 53.82424 45.98265
# Shear Modulus (GPa) = 21.56727 25.01331 23.29029
#
# Velocity S-wave (km/s) = 3.28463 3.53732 3.41332
# Velocity P-wave (km/s) = 5.78487 6.60368 6.20779
#
# Compressibility (1/GPa) = 0.02621846
#
# Stress axis : x y z
#
# Youngs Moduli (GPa) = 52.59715 34.71640 98.20514
#
# Poissons Ratio (x) = 0.17409 0.54484
# Poissons Ratio (y) = 0.26376 0.52324
# Poissons Ratio (z) = 0.29181 0.18497
#
# Static dielectric constant tensor:
#      x y z
#    x 1.737000 0.000000 0.000000 
#    y 0.000000 1.729020 0.000000 
#    z 0.000000 0.000000 1.664660 
# 
# From -- ./inp_files/37984.got.cif
#   From: 2010.05.17/outbox.cif.g08.bks.cpg/sg68_19_cif.got.tgz:37984.got - 2010.06.03 18:57:09.
