data_PCOD9505470
_publ_section_title
;
Structure prediction by ZEFSAII (Michael W. Deem and Ramdas Pophale) SiO2 
 PCOD9505470
Probable space group: C C C A
;
_chemical_formula_sum "Si O2"
_cell_formula_units_Z 80
_cell_length_a 18.989618
_cell_length_b 13.277288
_cell_length_c 14.006982
_cell_angle_alpha 90.000000
_cell_angle_beta 90.000000
_cell_angle_gamma 90.000000
_cell_volume 3531.589157
_symmetry_space_group_name_H-M "C C C A"
_symmetry_group_IT_number 68
_space_group.IT_coordinate_system_code '2'
_symmetry_cell_setting 'orthorhombic'
loop_
_space_group_symop_operation_xyz
x,y,z
-x,1/2-y,z
x,1/2-y,1/2-z
-x,y,1/2-z
-x,-y,-z
x,1/2+y,-z
-x,1/2+y,1/2+z
x,-y,1/2+z
1/2+x,1/2+y,z
1/2-x,-y,z
1/2+x,-y,1/2-z
1/2-x,1/2+y,1/2-z
1/2-x,1/2-y,-z
1/2+x,y,-z
1/2-x,y,1/2+z
1/2+x,1/2-y,1/2+z
loop_
_atom_site_type_symbol
_atom_site_label
_atom_site_fract_x
_atom_site_fract_y
_atom_site_fract_z
Si Si1 0.962485 0.609933 0.647115
Si Si2 0.681858 0.286527 0.440123
Si Si3 0.727546 0.616718 0.296367
Si Si4 0.819886 0.434366 0.100313
Si Si5 0.595781 0.174118 0.572510
O O1 0.896856 0.533385 0.638951
O O2 0.928328 0.720491 0.623774
O O3 0.000000 0.608182 0.750000
O O4 0.028066 0.603080 0.574954
O O5 0.750000 0.250000 0.500000
O O6 0.707534 0.319757 0.337585
O O7 0.662250 0.386783 0.498526
O O8 0.623657 0.204369 0.467541
O O9 0.750000 0.500000 0.297417
O O10 0.705951 0.638153 0.187280
O O11 0.660240 0.631582 0.365067
O O12 0.750000 0.500000 0.084859
#
# Coordination Sequence:
#
# PCOD9505470 Si02
#       5
#    16  16  16  16  16
#     4  10  17  28  53  80 106 131 175 241 275 316
#     4   9  19  31  50  74 106 141 185 231 270 324
#     4  10  19  31  48  75 114 151 177 223 285 341
#     4  10  20  32  51  80 109 146 178 222 294 332
#     4   9  17  28  49  78 101 137 172 226 280 307
#
# _framework density 22.652691999999998
#
# number of rings (size 3 to 8) (size 9 to 14) (size 15 to 20)
#    0.000    2.400    2.000    1.800    2.800    2.400 
#    0.000    0.000    0.000   32.400    0.000    0.000 
#    0.000   76.800    0.000    0.000    0.000    0.000 
#
# Total GULP energy -222814.472627 kJ/mol
# GULP energy per Si atom -5570.361816 kJ/mol
# Density = 2.260113 g / cm^3
# Si number density = 22.652692 Si / 1000 Ang^3
#
#
#
# Elastic Constant Matrix: (Units=GPa)
#
#
# Indices 1 2 3 4 5 6 
#
# 1 155.2704 36.8868 32.0665 0.0000 0.0000 0.0000
# 2 36.8868 41.0928 18.5050 0.0000 0.0000 0.0000
# 3 32.0665 18.5050 81.5211 0.0000 0.0000 0.0000
# 4 0.0000 0.0000 0.0000 15.2390 0.0000 0.0000
# 5 0.0000 0.0000 0.0000 0.0000 37.2262 0.0000
# 6 0.0000 0.0000 0.0000 0.0000 0.0000 40.6545
#
#
#
# Elastic Compliance Matrix: (Units=1/GPa)
#
#
# Indices 1 2 3 4 5 6 
#
# 1 0.008411 -0.006750 -0.001776 0.000000 0.000000 0.000000
# 2 -0.006750 0.032523 -0.004728 0.000000 0.000000 0.000000
# 3 -0.001776 -0.004728 0.014039 0.000000 0.000000 0.000000
# 4 0.000000 0.000000 0.000000 0.065621 0.000000 0.000000
# 5 0.000000 0.000000 0.000000 0.000000 0.026863 0.000000
# 6 0.000000 0.000000 0.000000 0.000000 0.000000 0.024598
#
#
# Mechanical properties :
#
#
# Convention : Reuss Voigt Hill
#
# Bulk Modulus (GPa) = 35.13073 50.31119 42.72096
# Shear Modulus (GPa) = 24.03272 31.31902 27.67587
#
# Velocity S-wave (km/s) = 3.26071 3.72233 3.49914
# Velocity P-wave (km/s) = 5.45146 6.38219 5.93510
#
# Compressibility (1/GPa) = 0.02846511
#
# Stress axis : x y z
#
# Youngs Moduli (GPa) = 118.89533 30.74728 71.23245
#
# Poissons Ratio (x) = 0.20755 0.12652
# Poissons Ratio (y) = 0.80255 0.33675
# Poissons Ratio (z) = 0.21118 0.14536
#
# Static dielectric constant tensor:
#      x y z
#    x 1.922330 0.000000 0.000000 
#    y 0.000000 2.046520 0.000000 
#    z 0.000000 0.000000 1.873380 
# 
# From -- ./inp_files/32884.got.cif
#   From: 2010.05.17/outbox.cif.g08.bks.cpg/sg68_17_cif.got.tgz:32884.got - 2010.06.03 18:57:09.
