data_PCOD9505803
_publ_section_title
;
Structure prediction by ZEFSAII (Michael W. Deem and Ramdas Pophale) SiO2 
 PCOD9505803
Probable space group: C C C A
;
_chemical_formula_sum "Si O2"
_cell_formula_units_Z 72
_cell_length_a 11.510637
_cell_length_b 13.913874
_cell_length_c 17.034375
_cell_angle_alpha 90.000000
_cell_angle_beta 90.000000
_cell_angle_gamma 90.000000
_cell_volume 2728.183815
_symmetry_space_group_name_H-M "C C C A"
_symmetry_group_IT_number 68
_space_group.IT_coordinate_system_code '2'
_symmetry_cell_setting 'orthorhombic'
loop_
_space_group_symop_operation_xyz
x,y,z
-x,1/2-y,z
x,1/2-y,1/2-z
-x,y,1/2-z
-x,-y,-z
x,1/2+y,-z
-x,1/2+y,1/2+z
x,-y,1/2+z
1/2+x,1/2+y,z
1/2-x,-y,z
1/2+x,-y,1/2-z
1/2-x,1/2+y,1/2-z
1/2-x,1/2-y,-z
1/2+x,y,-z
1/2-x,y,1/2+z
1/2+x,1/2-y,1/2+z
loop_
_atom_site_type_symbol
_atom_site_label
_atom_site_fract_x
_atom_site_fract_y
_atom_site_fract_z
Si Si1 0.481864 0.858927 0.498714
Si Si2 0.269890 0.646025 0.537845
Si Si3 0.922088 0.389651 0.677434
Si Si4 0.236914 0.384245 0.207623
Si Si5 0.000000 0.920230 0.750000
O O1 0.500000 0.750000 0.469207
O O2 0.614971 0.898643 0.496574
O O3 0.360435 0.899810 0.463918
O O4 0.451106 0.857300 0.591415
O O5 0.250000 0.750000 0.500000
O O6 0.296232 0.656219 0.630237
O O7 0.795256 0.363441 0.708983
O O8 0.000000 0.353372 0.750000
O O9 0.945372 0.505206 0.686074
O O10 0.250000 0.500000 0.197518
O O11 0.102353 0.360959 0.212371
#
# Coordination Sequence:
#
# PCOD9505803 Si02
#       5
#    16  16  16  16   8
#     4  10  20  36  55  79 108 148 182 230 273 331
#     4  10  21  37  55  78 114 150 187 227 280 329
#     4   9  17  33  57  80 104 135 191 222 273 324
#     4  10  18  36  57  81 113 148 180 234 277 332
#     4   8  18  32  55  80 111 138 178 228 280 322
#
# _framework density 26.391183999999999
#
# number of rings (size 3 to 8) (size 9 to 14) (size 15 to 20)
#    0.667    1.778    2.222    0.000    0.000    2.222 
#    0.000    7.778    0.000    0.000    0.000    0.000 
#    0.000    0.000    0.000    0.000    0.000    0.000 
#
# Total GULP energy -200813.710827 kJ/mol
# GULP energy per Si atom -5578.158634 kJ/mol
# Density = 2.633112 g / cm^3
# Si number density = 26.391184 Si / 1000 Ang^3
#
#
#
# Elastic Constant Matrix: (Units=GPa)
#
#
# Indices 1 2 3 4 5 6 
#
# 1 230.3641 -15.8844 24.9307 0.0000 0.0000 0.0000
# 2 -15.8844 75.5791 -5.2779 0.0000 0.0000 0.0000
# 3 24.9307 -5.2779 67.6042 0.0000 0.0000 0.0000
# 4 0.0000 0.0000 0.0000 -5.1478 0.0000 0.0000
# 5 0.0000 0.0000 0.0000 0.0000 40.7864 0.0000
# 6 0.0000 0.0000 0.0000 0.0000 0.0000 -0.2468
#
#
#
# Elastic Compliance Matrix: (Units=1/GPa)
#
#
# Indices 1 2 3 4 5 6 
#
# 1 0.004575 0.000848 -0.001621 0.000000 0.000000 0.000000
# 2 0.000848 0.013461 0.000738 0.000000 0.000000 0.000000
# 3 -0.001621 0.000738 0.015447 0.000000 0.000000 0.000000
# 4 0.000000 0.000000 0.000000 -0.194258 0.000000 0.000000
# 5 0.000000 0.000000 0.000000 0.000000 0.024518 0.000000
# 6 0.000000 0.000000 0.000000 0.000000 0.000000 -4.051587
#
#
# Mechanical properties :
#
#
# Convention : Reuss Voigt Hill
#
# Bulk Modulus (GPa) = 29.92739 42.34270 36.13505
# Shear Modulus (GPa) = -1.19714 31.73030 15.26658
#
# Velocity S-wave (km/s) = -0.67424 3.47119 2.40776
# Velocity P-wave (km/s) = 3.28000 5.66962 4.63158
#
# Compressibility (1/GPa) = 0.03341420
#
# Stress axis : x y z
#
# Youngs Moduli (GPa) = 218.58579 74.28872 64.73612
#
# Poissons Ratio (x) = -0.06302 0.10493
# Poissons Ratio (y) = -0.18543 -0.04778
# Poissons Ratio (z) = 0.35430 -0.05483
#
# Static dielectric constant tensor:
#      x y z
#    x 2.207490 0.000000 0.000000 
#    y 0.000000 2.089210 0.000000 
#    z 0.000000 0.000000 1.992730 
# 
# From -- ./inp_files/29527.got.cif
#   From: 2010.05.17/outbox.cif.g08.bks.cpg/sg68_15_cif.got.tgz:29527.got - 2010.06.03 18:57:09.
