data_PCOD9505272
_publ_section_title
;
Structure prediction by ZEFSAII (Michael W. Deem and Ramdas Pophale) SiO2 
 PCOD9505272
Probable space group: C M M A
;
_chemical_formula_sum "Si O2"
_cell_formula_units_Z 48
_cell_length_a 15.000000
_cell_length_b 15.000000
_cell_length_c 21.000000
_cell_angle_alpha 90.000000
_cell_angle_beta 90.000000
_cell_angle_gamma 90.000000
_cell_volume 4725.000000
_symmetry_space_group_name_H-M "C M M A"
_symmetry_group_IT_number 67
_symmetry_cell_setting 'orthorhombic'
loop_
_space_group_symop_operation_xyz
x,y,z
-x,1/2-y,z
x,-y,-z
-x,1/2+y,-z
-x,-y,-z
x,1/2+y,-z
-x,y,z
x,1/2-y,z
1/2+x,1/2+y,z
1/2-x,-y,z
1/2+x,1/2-y,-z
1/2-x,y,-z
1/2-x,1/2-y,-z
1/2+x,y,-z
1/2-x,1/2+y,z
1/2+x,-y,z
loop_
_atom_site_type_symbol
_atom_site_label
_atom_site_fract_x
_atom_site_fract_y
_atom_site_fract_z
Si Si1 0.500000 0.047900 0.175686
Si Si2 0.000000 0.926720 0.944646
Si Si3 0.500000 0.061266 0.561624
Si Si4 0.206205 0.401326 0.679869
Si Si5 0.695309 0.643806 0.059833
Si Si6 0.189586 0.355180 0.823184
Si Si7 0.308569 0.850675 0.444424
Si Si8 0.500000 0.563208 0.681062
O O1 0.591977 0.102218 0.167398
O O2 0.500000 0.019348 0.249237
O O3 0.500000 0.971357 0.124407
O O4 0.908248 0.874180 0.949243
O O5 0.000000 0.000000 0.000000
O O6 0.406616 0.111256 0.561892
O O7 0.500000 0.000000 0.500000
O O8 0.500000 0.006296 0.625620
O O9 0.250000 0.500000 0.675045
O O10 0.224665 0.370887 0.751826
O O11 0.253922 0.353200 0.621301
O O12 0.097856 0.391055 0.674655
O O13 0.706837 0.750000 0.060892
O O14 0.739740 0.610006 0.125050
O O15 0.750000 0.607319 0.000000
O O16 0.177912 0.250000 0.831548
O O17 0.323617 0.750000 0.464960
O O18 0.250000 0.895646 0.500000
#
# Coordination Sequence:
#
# PCOD9505272 Si02
#       8
#     8   8   8  16  16  16  16   8
#     4  10  23  37  61  89 126 156 198 258 295 358
#     4  12  25  38  59  94 120 156 203 255 307 357
#     4  12  23  39  65  91 122 162 210 249 305 373
#     4  11  22  39  65  91 125 162 205 257 305 368
#     4  10  23  42  63  86 121 163 203 249 308 371
#     4  10  22  40  63  90 121 164 204 248 305 361
#     4  11  25  42  62  92 126 163 205 257 313 368
#     4  10  22  38  58  96 116 160 205 247 303 349
#
# _framework density 10.15873
#
# number of rings (size 3 to 8) (size 9 to 14) (size 15 to 20)
#    0.000    1.333    1.667    3.250    4.667    1.667 
#    0.000    5.417    0.000    4.000    0.000    0.000 
#    0.000    0.000    0.000    0.000    0.000    0.000 
#
# Total GULP energy -267721.581323 kJ/mol
# GULP energy per Si atom -5577.532944 kJ/mol
# Density = 1.013561 g / cm^3
# Si number density = 10.158730 Si / 1000 Ang^3
#
#
#
# Elastic Constant Matrix: (Units=GPa)
#
#
# Indices 1 2 3 4 5 6 
#
# 1 145.1402 5.2624 97.9794 0.0000 0.0000 0.0000
# 2 5.2624 40.4313 33.2928 0.0000 0.0000 0.0000
# 3 97.9794 33.2928 100.2069 0.0000 0.0000 0.0000
# 4 0.0000 0.0000 0.0000 4.1992 0.0000 0.0000
# 5 0.0000 0.0000 0.0000 0.0000 37.2326 0.0000
# 6 0.0000 0.0000 0.0000 0.0000 0.0000 29.6406
#
#
#
# Elastic Compliance Matrix: (Units=1/GPa)
#
#
# Indices 1 2 3 4 5 6 
#
# 1 0.041700 0.038747 -0.053646 0.000000 0.000000 0.000000
# 2 0.038747 0.070052 -0.061160 0.000000 0.000000 0.000000
# 3 -0.053646 -0.061160 0.082753 0.000000 0.000000 0.000000
# 4 0.000000 0.000000 0.000000 0.238143 0.000000 0.000000
# 5 0.000000 0.000000 0.000000 0.000000 0.026858 0.000000
# 6 0.000000 0.000000 0.000000 0.000000 0.000000 0.033738
#
#
# Mechanical properties :
#
#
# Convention : Reuss Voigt Hill
#
# Bulk Modulus (GPa) = 23.59245 62.09416 42.84330
# Shear Modulus (GPa) = 7.58161 24.16405 15.87283
#
# Velocity S-wave (km/s) = 1.93382 3.45240 2.79810
# Velocity P-wave (km/s) = 4.07717 6.82059 5.61889
#
# Compressibility (1/GPa) = 0.04238645
#
# Stress axis : x y z
#
# Youngs Moduli (GPa) = 23.98089 14.27518 12.08416
#
# Poissons Ratio (x) = -0.55312 0.64827
# Poissons Ratio (y) = -0.92919 0.73907
# Poissons Ratio (z) = 1.28649 0.87307
#
# Static dielectric constant tensor:
#      x y z
#    x 1.690660 0.000000 0.000000 
#    y 0.000000 1.755960 0.000000 
#    z 0.000000 0.000000 1.731690 
# 
# From -- ./inp_files/38591.got.cif
#   From: 2010.05.17/outbox.ucp.g08.bks.cvg/sg67_20_cif.got.tgz:38591.got - 2010.06.11 16:47:20.
