data_PCOD9505013
_publ_section_title
;
Structure prediction by ZEFSAII (Michael W. Deem and Ramdas Pophale) SiO2 
 PCOD9505013
Probable space group: C M M A
;
_chemical_formula_sum "Si O2"
_cell_formula_units_Z 44
_cell_length_a 18.777596
_cell_length_b 14.248178
_cell_length_c 7.497789
_cell_angle_alpha 90.000000
_cell_angle_beta 90.000000
_cell_angle_gamma 90.000000
_cell_volume 2006.007431
_symmetry_space_group_name_H-M "C M M A"
_symmetry_group_IT_number 67
_symmetry_cell_setting 'orthorhombic'
loop_
_space_group_symop_operation_xyz
x,y,z
-x,1/2-y,z
x,-y,-z
-x,1/2+y,-z
-x,-y,-z
x,1/2+y,-z
-x,y,z
x,1/2-y,z
1/2+x,1/2+y,z
1/2-x,-y,z
1/2+x,1/2-y,-z
1/2-x,y,-z
1/2-x,1/2-y,-z
1/2+x,y,-z
1/2-x,1/2+y,z
1/2+x,-y,z
loop_
_atom_site_type_symbol
_atom_site_label
_atom_site_fract_x
_atom_site_fract_y
_atom_site_fract_z
Si Si1 0.500000 0.441071 0.676806
Si Si2 0.227978 0.250000 0.290890
Si Si3 0.887797 0.250000 0.841304
Si Si4 0.500000 0.750000 0.527704
Si Si5 0.135603 0.588266 0.897826
O O1 0.500000 0.500000 0.500000
O O2 0.500000 0.336033 0.604914
O O3 0.427984 0.456190 0.784283
O O4 0.250000 0.250000 0.500000
O O5 0.303406 0.250000 0.192078
O O6 0.184643 0.342884 0.224607
O O7 0.932342 0.250000 0.660099
O O8 0.900894 0.158356 0.959785
O O9 0.170679 0.500000 0.000000
#
# Coordination Sequence:
#
# PCOD9505013 Si02
#       5
#     8   8   8   4  16
#     4  12  24  40  64  98 130 166 222 272 319 387
#     4  11  25  44  66  97 133 170 221 273 324 396
#     4  11  23  42  66  95 128 170 220 263 324 406
#     4  12  22  40  68  96 128 170 206 272 334 370
#     4  11  23  42  65  93 130 175 217 268 327 389
#
# _framework density 21.934114999999998
#
# number of rings (size 3 to 8) (size 9 to 14) (size 15 to 20)
#    0.000    0.727    0.000   10.364    0.000    2.909 
#    0.000    1.818    0.000    0.000    0.000    0.000 
#    0.000    0.000    0.000    0.000    0.000    0.000 
#
# Total GULP energy -123049.775190 kJ/mol
# GULP energy per Si atom -5593.171600 kJ/mol
# Density = 2.188419 g / cm^3
# Si number density = 21.934115 Si / 1000 Ang^3
#
#
#
# Elastic Constant Matrix: (Units=GPa)
#
#
# Indices 1 2 3 4 5 6 
#
# 1 144.1378 20.5211 43.4029 0.0000 0.0000 0.0000
# 2 20.5211 153.8668 48.1535 0.0000 0.0000 0.0000
# 3 43.4029 48.1535 113.6288 0.0000 0.0000 0.0000
# 4 0.0000 0.0000 0.0000 51.2160 0.0000 0.0000
# 5 0.0000 0.0000 0.0000 0.0000 53.9954 0.0000
# 6 0.0000 0.0000 0.0000 0.0000 0.0000 -14.2596
#
#
#
# Elastic Compliance Matrix: (Units=1/GPa)
#
#
# Indices 1 2 3 4 5 6 
#
# 1 0.007842 -0.000125 -0.002942 0.000000 0.000000 0.000000
# 2 -0.000125 0.007495 -0.003128 0.000000 0.000000 0.000000
# 3 -0.002942 -0.003128 0.011250 0.000000 0.000000 0.000000
# 4 0.000000 0.000000 0.000000 0.019525 0.000000 0.000000
# 5 0.000000 0.000000 0.000000 0.000000 0.018520 0.000000
# 6 0.000000 0.000000 0.000000 0.000000 0.000000 -0.070128
#
#
# Mechanical properties :
#
#
# Convention : Reuss Voigt Hill
#
# Bulk Modulus (GPa) = 70.44617 70.64314 70.54465
# Shear Modulus (GPa) = 430.04032 38.16074 234.10053
#
# Velocity S-wave (km/s) = 14.01733 4.17560 10.34218
# Velocity P-wave (km/s) = 17.15132 7.45147 13.22294
#
# Compressibility (1/GPa) = 0.01419524
#
# Stress axis : x y z
#
# Youngs Moduli (GPa) = 127.52520 133.42491 88.88727
#
# Poissons Ratio (x) = 0.01668 0.26153
# Poissons Ratio (y) = 0.01594 0.27808
# Poissons Ratio (z) = 0.37521 0.41741
#
# Static dielectric constant tensor:
#      x y z
#    x 1.791840 0.000000 0.000000 
#    y 0.000000 1.800580 0.000000 
#    z 0.000000 0.000000 1.794440 
# 
# From -- ./inp_files/7312.got.cif
#   From: 2010.05.17/outbox.cif.g08.bks.cpg/sg67_4_cif.got.tgz:7312.got - 2010.06.03 18:28:57.
