data_PCOD9505868
_publ_section_title
;
Structure prediction by ZEFSAII (Michael W. Deem and Ramdas Pophale) SiO2 
 PCOD9505868
Probable space group: C C C A
;
_chemical_formula_sum "Si O2"
_cell_formula_units_Z 88
_cell_length_a 30.394517
_cell_length_b 14.717624
_cell_length_c 9.157949
_cell_angle_alpha 90.000000
_cell_angle_beta 90.000000
_cell_angle_gamma 90.000000
_cell_volume 4096.671783
_symmetry_space_group_name_H-M "C C C A"
_symmetry_group_IT_number 68
_space_group.IT_coordinate_system_code '2'
_symmetry_cell_setting 'orthorhombic'
loop_
_space_group_symop_operation_xyz
x,y,z
-x,1/2-y,z
x,1/2-y,1/2-z
-x,y,1/2-z
-x,-y,-z
x,1/2+y,-z
-x,1/2+y,1/2+z
x,-y,1/2+z
1/2+x,1/2+y,z
1/2-x,-y,z
1/2+x,-y,1/2-z
1/2-x,1/2+y,1/2-z
1/2-x,1/2-y,-z
1/2+x,y,-z
1/2-x,y,1/2+z
1/2+x,1/2-y,1/2+z
loop_
_atom_site_type_symbol
_atom_site_label
_atom_site_fract_x
_atom_site_fract_y
_atom_site_fract_z
Si Si1 0.290741 0.932663 0.169129
Si Si2 0.050266 0.109586 0.202129
Si Si3 0.403362 0.420369 0.336430
Si Si4 0.319501 0.750000 0.250000
Si Si5 0.348462 0.023285 0.415313
Si Si6 0.595640 0.728895 0.448568
O O1 0.286232 0.832137 0.226079
O O2 0.250000 0.000000 0.171105
O O3 0.326712 0.967851 0.284705
O O4 0.310607 0.928407 0.007047
O O5 0.077678 0.151516 0.336471
O O6 0.066883 0.179569 0.076912
O O7 0.000000 0.119371 0.250000
O O8 0.061574 0.003868 0.172894
O O9 0.382184 0.415316 0.175365
O O10 0.370852 0.460147 0.462742
O O11 0.412215 0.320084 0.397482
O O12 0.354405 0.754547 0.387399
#
# Coordination Sequence:
#
# PCOD9505868 Si02
#       6
#    16  16  16   8  16  16
#     4  11  22  40  68  95 133 173 218 284 346 397
#     4  10  21  37  62 100 136 172 218 274 343 401
#     4  11  19  38  67  97 128 176 228 275 328 400
#     4  10  20  42  67  94 128 174 224 268 331 410
#     4  10  20  39  63  94 127 171 225 271 324 405
#     4  10  18  38  65  95 124 180 230 259 322 409
#
# _framework density 21.480851000000001
#
# number of rings (size 3 to 8) (size 9 to 14) (size 15 to 20)
#    0.000    1.818    3.636    4.909    0.000    0.727 
#    0.000    7.273    4.000    0.000    0.000    0.000 
#    0.000    0.000    0.000    0.000    0.000    0.000 
#
# Total GULP energy -245054.231348 kJ/mol
# GULP energy per Si atom -5569.414349 kJ/mol
# Density = 2.143196 g / cm^3
# Si number density = 21.480851 Si / 1000 Ang^3
#
#
#
# Elastic Constant Matrix: (Units=GPa)
#
#
# Indices 1 2 3 4 5 6 
#
# 1 78.6187 58.1833 31.7975 0.0000 0.0000 0.0000
# 2 58.1833 131.5525 38.3739 0.0000 0.0000 0.0000
# 3 31.7975 38.3739 106.0710 0.0000 0.0000 0.0000
# 4 0.0000 0.0000 0.0000 96.1333 0.0000 0.0000
# 5 0.0000 0.0000 0.0000 0.0000 2.6221 0.0000
# 6 0.0000 0.0000 0.0000 0.0000 0.0000 4.7859
#
#
#
# Elastic Compliance Matrix: (Units=1/GPa)
#
#
# Indices 1 2 3 4 5 6 
#
# 1 0.019775 -0.007845 -0.003090 0.000000 0.000000 0.000000
# 2 -0.007845 0.011610 -0.001849 0.000000 0.000000 0.000000
# 3 -0.003090 -0.001849 0.011023 0.000000 0.000000 0.000000
# 4 0.000000 0.000000 0.000000 0.010402 0.000000 0.000000
# 5 0.000000 0.000000 0.000000 0.000000 0.381369 0.000000
# 6 0.000000 0.000000 0.000000 0.000000 0.000000 0.208947
#
#
# Mechanical properties :
#
#
# Convention : Reuss Voigt Hill
#
# Bulk Modulus (GPa) = 59.37806 63.66128 61.51967
# Shear Modulus (GPa) = 7.41501 33.23409 20.32455
#
# Velocity S-wave (km/s) = 1.85995 3.93765 3.07933
# Velocity P-wave (km/s) = 5.68462 7.09747 6.42997
#
# Compressibility (1/GPa) = 0.01684124
#
# Stress axis : x y z
#
# Youngs Moduli (GPa) = 50.56867 86.12972 90.72123
#
# Poissons Ratio (x) = 0.67567 0.28033
# Poissons Ratio (y) = 0.39670 0.16771
# Poissons Ratio (z) = 0.15626 0.15923
#
# Static dielectric constant tensor:
#      x y z
#    x 1.819150 0.000000 0.000000 
#    y 0.000000 1.916030 0.000000 
#    z 0.000000 0.000000 1.825650 
# 
# From -- ./inp_files/9508.got.cif
#   From: 2010.05.17/outbox.cif.g08.bks.cpg/sg68_5_cif.got.tgz:9508.got - 2010.06.03 18:57:09.
