data_PCOD9505745
_publ_section_title
;
Structure prediction by ZEFSAII (Michael W. Deem and Ramdas Pophale) SiO2 
 PCOD9505745
Probable space group: C C C A
;
_chemical_formula_sum "Si O2"
_cell_formula_units_Z 116
_cell_length_a 17.948826
_cell_length_b 15.239041
_cell_length_c 21.171189
_cell_angle_alpha 90.000000
_cell_angle_beta 90.000000
_cell_angle_gamma 90.000000
_cell_volume 5790.804913
_symmetry_space_group_name_H-M "C C C A"
_symmetry_group_IT_number 68
_space_group.IT_coordinate_system_code '2'
_symmetry_cell_setting 'orthorhombic'
loop_
_space_group_symop_operation_xyz
x,y,z
-x,1/2-y,z
x,1/2-y,1/2-z
-x,y,1/2-z
-x,-y,-z
x,1/2+y,-z
-x,1/2+y,1/2+z
x,-y,1/2+z
1/2+x,1/2+y,z
1/2-x,-y,z
1/2+x,-y,1/2-z
1/2-x,1/2+y,1/2-z
1/2-x,1/2-y,-z
1/2+x,y,-z
1/2-x,y,1/2+z
1/2+x,1/2-y,1/2+z
loop_
_atom_site_type_symbol
_atom_site_label
_atom_site_fract_x
_atom_site_fract_y
_atom_site_fract_z
Si Si1 0.500000 0.250000 0.250000
Si Si2 0.032018 0.608179 0.155391
Si Si3 0.676401 0.277888 0.959204
Si Si4 0.834171 0.469525 0.514115
Si Si5 0.210622 0.726823 0.142225
Si Si6 0.182629 0.556477 0.205666
Si Si7 0.639846 0.419781 0.157895
Si Si8 0.599917 0.355916 0.462923
O O1 0.546050 0.188914 0.203162
O O2 0.102481 0.545869 0.170428
O O3 0.029170 0.640233 0.082805
O O4 0.948972 0.578032 0.169595
O O5 0.707220 0.266224 0.888481
O O6 0.750000 0.250000 0.000000
O O7 0.655626 0.376059 0.979967
O O8 0.611001 0.212325 0.980632
O O9 0.750000 0.500000 0.501446
O O10 0.843644 0.460264 0.589521
O O11 0.885395 0.546945 0.487973
O O12 0.208104 0.657884 0.198849
O O13 0.172539 0.820561 0.153316
O O14 0.161322 0.675503 0.088959
O O15 0.250000 0.500000 0.177337
O O16 0.172776 0.536260 0.279516
#
# Coordination Sequence:
#
# PCOD9505745 Si02
#       8
#     4  16  16  16  16  16  16  16
#     4  12  20  40  68  88 124 172 204 280 346 384
#     4  11  24  37  62  87 126 165 207 259 332 390
#     4  10  18  34  54  86 113 160 204 247 306 371
#     4  12  21  35  60  85 125 164 204 261 313 371
#     4  10  20  35  60  84 121 155 210 252 310 383
#     4  11  24  37  58  90 120 160 206 260 324 387
#     4  12  22  40  59  92 125 163 207 267 324 387
#     4  10  21  35  55  86 118 163 209 249 314 385
#
# _framework density 20.031758
#
# number of rings (size 3 to 8) (size 9 to 14) (size 15 to 20)
#    0.000    1.103    6.897    2.483    3.862    0.552 
#    0.000    0.000    0.000    0.000    0.000    0.000 
#    0.000    2.759    0.000    0.000    0.000    0.000 
#
# Total GULP energy -323378.976827 kJ/mol
# GULP energy per Si atom -5575.499600 kJ/mol
# Density = 1.998616 g / cm^3
# Si number density = 20.031758 Si / 1000 Ang^3
#
#
#
# Elastic Constant Matrix: (Units=GPa)
#
#
# Indices 1 2 3 4 5 6 
#
# 1 73.4178 18.9108 19.5375 0.0000 0.0000 0.0000
# 2 18.9108 79.7858 0.7690 0.0000 0.0000 0.0000
# 3 19.5375 0.7690 56.1411 0.0000 0.0000 0.0000
# 4 0.0000 0.0000 0.0000 31.7700 0.0000 0.0000
# 5 0.0000 0.0000 0.0000 0.0000 33.5471 0.0000
# 6 0.0000 0.0000 0.0000 0.0000 0.0000 19.6918
#
#
#
# Elastic Compliance Matrix: (Units=1/GPa)
#
#
# Indices 1 2 3 4 5 6 
#
# 1 0.016061 -0.003753 -0.005538 0.000000 0.000000 0.000000
# 2 -0.003753 0.013412 0.001123 0.000000 0.000000 0.000000
# 3 -0.005538 0.001123 0.019724 0.000000 0.000000 0.000000
# 4 0.000000 0.000000 0.000000 0.031476 0.000000 0.000000
# 5 0.000000 0.000000 0.000000 0.000000 0.029809 0.000000
# 6 0.000000 0.000000 0.000000 0.000000 0.000000 0.050783
#
#
# Mechanical properties :
#
#
# Convention : Reuss Voigt Hill
#
# Bulk Modulus (GPa) = 30.43224 31.97546 31.20385
# Shear Modulus (GPa) = 26.51725 28.34360 27.43042
#
# Velocity S-wave (km/s) = 3.64230 3.76564 3.70448
# Velocity P-wave (km/s) = 5.73702 5.90794 5.82311
#
# Compressibility (1/GPa) = 0.03285988
#
# Stress axis : x y z
#
# Youngs Moduli (GPa) = 62.26184 74.55795 50.69928
#
# Poissons Ratio (x) = 0.27985 0.28077
# Poissons Ratio (y) = 0.23370 -0.05691
# Poissons Ratio (z) = 0.34481 -0.08369
#
# Static dielectric constant tensor:
#      x y z
#    x 1.789000 0.000000 0.000000 
#    y 0.000000 1.739690 0.000000 
#    z 0.000000 0.000000 1.788020 
# 
# From -- ./inp_files/46141.got.cif
#   From: 2010.05.17/outbox.cif.g08.bks.cpg/sg68_24_cif.got.tgz:46141.got - 2010.06.03 18:57:09.
