data_PCOD9505919
_publ_section_title
;
Structure prediction by ZEFSAII (Michael W. Deem and Ramdas Pophale) SiO2 
 PCOD9505919
Probable space group: C C C A
;
_chemical_formula_sum "Si O2"
_cell_formula_units_Z 80
_cell_length_a 24.668094
_cell_length_b 4.897231
_cell_length_c 34.842502
_cell_angle_alpha 90.000000
_cell_angle_beta 90.000000
_cell_angle_gamma 90.000000
_cell_volume 4209.160811
_symmetry_space_group_name_H-M "C C C A"
_symmetry_group_IT_number 68
_space_group.IT_coordinate_system_code '2'
_symmetry_cell_setting 'orthorhombic'
loop_
_space_group_symop_operation_xyz
x,y,z
-x,1/2-y,z
x,1/2-y,1/2-z
-x,y,1/2-z
-x,-y,-z
x,1/2+y,-z
-x,1/2+y,1/2+z
x,-y,1/2+z
1/2+x,1/2+y,z
1/2-x,-y,z
1/2+x,-y,1/2-z
1/2-x,1/2+y,1/2-z
1/2-x,1/2-y,-z
1/2+x,y,-z
1/2-x,y,1/2+z
1/2+x,1/2-y,1/2+z
loop_
_atom_site_type_symbol
_atom_site_label
_atom_site_fract_x
_atom_site_fract_y
_atom_site_fract_z
Si Si1 0.804106 0.686293 0.336305
Si Si2 0.936601 0.782828 0.474396
Si Si3 0.059208 0.623938 0.853719
Si Si4 0.107923 0.633680 0.105409
Si Si5 0.646835 0.808645 0.294974
O O1 0.750000 0.500000 0.339016
O O2 0.833414 0.718052 0.377413
O O3 0.842964 0.486106 0.312912
O O4 0.810040 0.971942 0.312882
O O5 0.928257 0.589733 0.511345
O O6 0.899866 0.688199 0.439302
O O7 0.000000 0.750000 0.462991
O O8 0.064874 0.330163 0.873152
O O9 0.089235 0.603225 0.812641
O O10 0.000000 0.750000 0.850672
O O11 0.093584 0.827263 0.881536
O O12 0.650426 0.750000 0.250000
#
# Coordination Sequence:
#
# PCOD9505919 Si02
#       5
#    16  16  16  16  16
#     4  10  21  37  56  75  98 135 177 218 265 309
#     4  10  19  30  48  75 105 135 165 204 257 309
#     4  10  19  32  52  75 103 141 174 205 253 313
#     4  10  20  34  52  75 104 136 176 216 251 309
#     4  10  21  35  52  78 106 131 169 218 265 315
#
# _framework density 19.006162
#
# number of rings (size 3 to 8) (size 9 to 14) (size 15 to 20)
#    0.000    2.000    0.000    4.200    0.000    3.600 
#    0.000    0.000    0.000    8.400    0.000    0.000 
#    0.000    0.000    0.000    0.000    0.000    0.000 
#
# Total GULP energy -222845.118766 kJ/mol
# GULP energy per Si atom -5571.127969 kJ/mol
# Density = 1.896290 g / cm^3
# Si number density = 19.006162 Si / 1000 Ang^3
#
#
#
# Elastic Constant Matrix: (Units=GPa)
#
#
# Indices 1 2 3 4 5 6 
#
# 1 45.8523 -8.6034 17.2919 0.0000 0.0000 0.0000
# 2 -8.6034 88.1302 1.1759 0.0000 0.0000 0.0000
# 3 17.2919 1.1759 99.1050 0.0000 0.0000 0.0000
# 4 0.0000 0.0000 0.0000 15.0222 0.0000 0.0000
# 5 0.0000 0.0000 0.0000 0.0000 3.1947 0.0000
# 6 0.0000 0.0000 0.0000 0.0000 0.0000 24.8573
#
#
#
# Elastic Compliance Matrix: (Units=1/GPa)
#
#
# Indices 1 2 3 4 5 6 
#
# 1 0.023835 0.002383 -0.004187 0.000000 0.000000 0.000000
# 2 0.002383 0.011587 -0.000553 0.000000 0.000000 0.000000
# 3 -0.004187 -0.000553 0.010827 0.000000 0.000000 0.000000
# 4 0.000000 0.000000 0.000000 0.066568 0.000000 0.000000
# 5 0.000000 0.000000 0.000000 0.000000 0.313015 0.000000
# 6 0.000000 0.000000 0.000000 0.000000 0.000000 0.040230
#
#
# Mechanical properties :
#
#
# Convention : Reuss Voigt Hill
#
# Bulk Modulus (GPa) = 24.07646 28.09072 26.08359
# Shear Modulus (GPa) = 10.31732 23.49637 16.90684
#
# Velocity S-wave (km/s) = 2.33242 3.51985 2.98576
# Velocity P-wave (km/s) = 4.46641 5.59741 5.06359
#
# Compressibility (1/GPa) = 0.04153434
#
# Stress axis : x y z
#
# Youngs Moduli (GPa) = 41.95467 86.30488 92.35799
#
# Poissons Ratio (x) = -0.20564 0.38671
# Poissons Ratio (y) = -0.09997 0.05109
# Poissons Ratio (z) = 0.17567 0.04775
#
# Static dielectric constant tensor:
#      x y z
#    x 1.728270 0.000000 0.000000 
#    y 0.000000 1.664060 0.000000 
#    z 0.000000 0.000000 1.684510 
# 
# From -- ./inp_files/53153.got.cif
#   From: 2010.05.17/outbox.cif.g08.bks.cpg/sg68_27_cif.got.tgz:53153.got - 2010.06.03 18:57:09.
