data_PCOD9505029
_publ_section_title
;
Structure prediction by ZEFSAII (Michael W. Deem and Ramdas Pophale) SiO2 
 PCOD9505029
Probable space group: C M M A
;
_chemical_formula_sum "Si O2"
_cell_formula_units_Z 88
_cell_length_a 14.887954
_cell_length_b 24.126016
_cell_length_c 12.196093
_cell_angle_alpha 90.000000
_cell_angle_beta 90.000000
_cell_angle_gamma 90.000000
_cell_volume 4380.678257
_symmetry_space_group_name_H-M "C M M A"
_symmetry_group_IT_number 67
_symmetry_cell_setting 'orthorhombic'
loop_
_space_group_symop_operation_xyz
x,y,z
-x,1/2-y,z
x,-y,-z
-x,1/2+y,-z
-x,-y,-z
x,1/2+y,-z
-x,y,z
x,1/2-y,z
1/2+x,1/2+y,z
1/2-x,-y,z
1/2+x,1/2-y,-z
1/2-x,y,-z
1/2-x,1/2-y,-z
1/2+x,y,-z
1/2-x,1/2+y,z
1/2+x,-y,z
loop_
_atom_site_type_symbol
_atom_site_label
_atom_site_fract_x
_atom_site_fract_y
_atom_site_fract_z
Si Si1 0.500000 0.184588 0.778901
Si Si2 0.500000 0.144569 0.026907
Si Si3 0.647531 0.881947 0.354679
Si Si4 0.142915 0.883133 0.393847
Si Si5 0.394050 0.007654 0.284633
Si Si6 0.653592 0.445295 0.056942
Si Si7 0.000000 0.813298 0.263646
O O1 0.500000 0.250000 0.757640
O O2 0.587527 0.155591 0.724958
O O3 0.500000 0.172930 0.908884
O O4 0.412762 0.105382 0.039272
O O5 0.500000 0.183816 0.132416
O O6 0.754090 0.872217 0.361594
O O7 0.619091 0.870706 0.480335
O O8 0.633024 0.945776 0.317373
O O9 0.122701 0.948438 0.380625
O O10 0.083359 0.847337 0.311943
O O11 0.500000 0.007686 0.256352
O O12 0.341449 0.035657 0.183026
O O13 0.614026 0.500000 0.000000
O O14 0.750000 0.435235 0.000000
O O15 0.000000 0.750000 0.301032
#
# Coordination Sequence:
#
# PCOD9505029 Si02
#       7
#     8   8  16  16  16  16   8
#     4  12  28  46  68  95 131 177 233 291 340 391
#     4  12  24  46  65  95 131 176 228 277 340 406
#     4  11  26  43  70  99 140 180 223 274 338 404
#     4  11  24  45  68 103 137 180 223 273 337 409
#     4  12  22  40  67 105 139 177 222 271 337 412
#     4  11  24  36  62  99 139 182 218 263 330 405
#     4  12  26  46  73  97 131 179 233 291 339 391
#
# _framework density 20.088214000000001
#
# number of rings (size 3 to 8) (size 9 to 14) (size 15 to 20)
#    0.000    0.545    4.545    3.273    7.636    4.364 
#    0.000    1.818    0.000    3.273    0.000    0.000 
#    0.000    0.000    0.000    0.000    0.000    0.000 
#
# Total GULP energy -246032.083362 kJ/mol
# GULP energy per Si atom -5591.638258 kJ/mol
# Density = 2.004249 g / cm^3
# Si number density = 20.088214 Si / 1000 Ang^3
#
#
#
# Elastic Constant Matrix: (Units=GPa)
#
#
# Indices 1 2 3 4 5 6 
#
# 1 125.8046 39.0396 49.5947 0.0000 0.0000 0.0000
# 2 39.0396 132.9840 39.9964 0.0000 0.0000 0.0000
# 3 49.5947 39.9964 139.5789 0.0000 0.0000 0.0000
# 4 0.0000 0.0000 0.0000 7.6646 0.0000 0.0000
# 5 0.0000 0.0000 0.0000 0.0000 50.3299 0.0000
# 6 0.0000 0.0000 0.0000 0.0000 0.0000 -6.9165
#
#
#
# Elastic Compliance Matrix: (Units=1/GPa)
#
#
# Indices 1 2 3 4 5 6 
#
# 1 0.009698 -0.001981 -0.002878 0.000000 0.000000 0.000000
# 2 -0.001981 0.008634 -0.001770 0.000000 0.000000 0.000000
# 3 -0.002878 -0.001770 0.008694 0.000000 0.000000 0.000000
# 4 0.000000 0.000000 0.000000 0.130469 0.000000 0.000000
# 5 0.000000 0.000000 0.000000 0.000000 0.019869 0.000000
# 6 0.000000 0.000000 0.000000 0.000000 0.000000 -0.144581
#
#
# Mechanical properties :
#
#
# Convention : Reuss Voigt Hill
#
# Bulk Modulus (GPa) = 72.63683 72.84766 72.74224
# Shear Modulus (GPa) = 98.75235 28.19806 63.47521
#
# Velocity S-wave (km/s) = 7.01898 3.75068 5.62733
# Velocity P-wave (km/s) = 10.09582 7.42290 8.86073
#
# Compressibility (1/GPa) = 0.01376712
#
# Stress axis : x y z
#
# Youngs Moduli (GPa) = 103.11012 115.82488 115.01842
#
# Poissons Ratio (x) = 0.22950 0.33105
# Poissons Ratio (y) = 0.20431 0.20358
# Poissons Ratio (z) = 0.29677 0.20500
#
# Static dielectric constant tensor:
#      x y z
#    x 1.739220 0.000000 0.000000 
#    y 0.000000 1.657710 0.000000 
#    z 0.000000 0.000000 1.779130 
# 
# From -- ./inp_files/18143.got.cif
#   From: 2010.05.17/outbox.cif.g08.bks.cpg/sg67_10_cif.got.tgz:18143.got - 2010.06.03 18:28:57.
