data_PCOD9505839
_publ_section_title
;
Structure prediction by ZEFSAII (Michael W. Deem and Ramdas Pophale) SiO2 
 PCOD9505839
Probable space group: C C C A
;
_chemical_formula_sum "Si O2"
_cell_formula_units_Z 96
_cell_length_a 22.828913
_cell_length_b 15.019013
_cell_length_c 12.479595
_cell_angle_alpha 90.000000
_cell_angle_beta 90.000000
_cell_angle_gamma 90.000000
_cell_volume 4278.850548
_symmetry_space_group_name_H-M "C C C A"
_symmetry_group_IT_number 68
_space_group.IT_coordinate_system_code '2'
_symmetry_cell_setting 'orthorhombic'
loop_
_space_group_symop_operation_xyz
x,y,z
-x,1/2-y,z
x,1/2-y,1/2-z
-x,y,1/2-z
-x,-y,-z
x,1/2+y,-z
-x,1/2+y,1/2+z
x,-y,1/2+z
1/2+x,1/2+y,z
1/2-x,-y,z
1/2+x,-y,1/2-z
1/2-x,1/2+y,1/2-z
1/2-x,1/2-y,-z
1/2+x,y,-z
1/2-x,y,1/2+z
1/2+x,1/2-y,1/2+z
loop_
_atom_site_type_symbol
_atom_site_label
_atom_site_fract_x
_atom_site_fract_y
_atom_site_fract_z
Si Si1 0.362253 0.882118 0.442598
Si Si2 0.287077 0.250000 0.250000
Si Si3 0.111256 0.535803 0.917299
Si Si4 0.289680 0.413529 0.757125
Si Si5 0.376848 0.203824 0.432880
Si Si6 0.500000 0.750000 0.949108
Si Si7 0.489219 0.899629 0.369810
O O1 0.307732 0.898531 0.366215
O O2 0.366708 0.778566 0.474403
O O3 0.420749 0.919874 0.382796
O O4 0.362630 0.941022 0.549412
O O5 0.246093 0.172170 0.204867
O O6 0.327642 0.210579 0.343485
O O7 0.150593 0.574739 0.822728
O O8 0.042196 0.530251 0.887068
O O9 0.119082 0.606674 0.014042
O O10 0.250000 0.500000 0.768767
O O11 0.440204 0.233679 0.386870
O O12 0.497250 0.668430 0.032612
O O13 0.500000 0.862950 0.250000
#
# Coordination Sequence:
#
# PCOD9505839 Si02
#       7
#    16   8  16  16  16   8  16
#     4  11  23  41  65  93 125 160 204 257 310 364
#     4  12  26  43  62  89 126 168 214 248 302 364
#     4  11  23  41  65  93 125 160 204 257 310 364
#     4  12  26  41  62  91 122 168 214 250 302 362
#     4  10  23  42  65  91 124 159 204 257 309 366
#     4   8  19  35  64  96 120 154 200 246 320 370
#     4  10  18  37  64  94 123 155 197 255 312 370
#
# _framework density 22.435932000000001
#
# number of rings (size 3 to 8) (size 9 to 14) (size 15 to 20)
#    0.000    1.333    1.667    3.750    0.000    6.333 
#    0.000    0.000    0.000    0.000    0.000    0.000 
#    0.000    0.000    0.000    0.000    0.000    0.000 
#
# Total GULP energy -268136.397805 kJ/mol
# GULP energy per Si atom -5586.174954 kJ/mol
# Density = 2.238487 g / cm^3
# Si number density = 22.435932 Si / 1000 Ang^3
#
#
#
# Elastic Constant Matrix: (Units=GPa)
#
#
# Indices 1 2 3 4 5 6 
#
# 1 79.3989 1.0116 18.3665 0.0000 0.0000 0.0000
# 2 1.0116 68.3715 -13.1764 0.0000 0.0000 0.0000
# 3 18.3665 -13.1764 40.2730 0.0000 0.0000 0.0000
# 4 0.0000 0.0000 0.0000 -633.2663 0.0000 0.0000
# 5 0.0000 0.0000 0.0000 0.0000 19.0173 0.0000
# 6 0.0000 0.0000 0.0000 0.0000 0.0000 -18.0933
#
#
#
# Elastic Compliance Matrix: (Units=1/GPa)
#
#
# Indices 1 2 3 4 5 6 
#
# 1 0.014234 -0.001560 -0.007002 0.000000 0.000000 0.000000
# 2 -0.001560 0.015781 0.005875 0.000000 0.000000 0.000000
# 3 -0.007002 0.005875 0.029946 0.000000 0.000000 0.000000
# 4 0.000000 0.000000 0.000000 -0.001579 0.000000 0.000000
# 5 0.000000 0.000000 0.000000 0.000000 0.052584 0.000000
# 6 0.000000 0.000000 0.000000 0.000000 0.000000 -0.055269
#
#
# Mechanical properties :
#
#
# Convention : Reuss Voigt Hill
#
# Bulk Modulus (GPa) = 18.31947 22.27188 20.29567
# Shear Modulus (GPa) = 63.07803 -114.34569 -25.63383
#
# Velocity S-wave (km/s) = 5.30809 -7.14675 -3.38381
# Velocity P-wave (km/s) = 6.76392 7.62581 2.49021
#
# Compressibility (1/GPa) = 0.05458675
#
# Stress axis : x y z
#
# Youngs Moduli (GPa) = 70.25344 63.36654 33.39370
#
# Poissons Ratio (x) = 0.09885 0.23382
# Poissons Ratio (y) = 0.10959 -0.19618
# Poissons Ratio (z) = 0.49191 -0.37226
#
# Static dielectric constant tensor:
#      x y z
#    x 1.838460 0.000000 0.000000 
#    y 0.000000 1.801250 0.000000 
#    z 0.000000 0.000000 1.840430 
# 
# From -- ./inp_files/16466.got.cif
#   From: 2010.05.17/outbox.cif.g08.bks.cpg/sg68_9_cif.got.tgz:16466.got - 2010.06.03 18:57:09.
