data_PCOD9505515
_publ_section_title
;
Structure prediction by ZEFSAII (Michael W. Deem and Ramdas Pophale) SiO2 
 PCOD9505515
Probable space group: C C C A
;
_chemical_formula_sum "Si O2"
_cell_formula_units_Z 104
_cell_length_a 20.016849
_cell_length_b 13.729360
_cell_length_c 19.508696
_cell_angle_alpha 90.000000
_cell_angle_beta 90.000000
_cell_angle_gamma 90.000000
_cell_volume 5361.351079
_symmetry_space_group_name_H-M "C C C A"
_symmetry_group_IT_number 68
_space_group.IT_coordinate_system_code '2'
_symmetry_cell_setting 'orthorhombic'
loop_
_space_group_symop_operation_xyz
x,y,z
-x,1/2-y,z
x,1/2-y,1/2-z
-x,y,1/2-z
-x,-y,-z
x,1/2+y,-z
-x,1/2+y,1/2+z
x,-y,1/2+z
1/2+x,1/2+y,z
1/2-x,-y,z
1/2+x,-y,1/2-z
1/2-x,1/2+y,1/2-z
1/2-x,1/2-y,-z
1/2+x,y,-z
1/2-x,y,1/2+z
1/2+x,1/2-y,1/2+z
loop_
_atom_site_type_symbol
_atom_site_label
_atom_site_fract_x
_atom_site_fract_y
_atom_site_fract_z
Si Si1 0.613927 0.701254 0.815972
Si Si2 0.500000 0.750000 0.584655
Si Si3 0.118235 0.250000 0.250000
Si Si4 0.534414 0.603743 0.157292
Si Si5 0.596960 0.160343 0.979057
Si Si6 0.677231 0.452851 0.414594
Si Si7 0.500000 0.070588 0.250000
Si Si8 0.886866 0.157812 0.115553
O O1 0.648169 0.750000 0.750000
O O2 0.565709 0.767176 0.866427
O O3 0.662502 0.630420 0.858019
O O4 0.558520 0.634323 0.780202
O O5 0.465417 0.672886 0.532185
O O6 0.074355 0.166869 0.213036
O O7 0.151809 0.301538 0.183393
O O8 0.574194 0.601143 0.086971
O O9 0.523762 0.499279 0.189488
O O10 0.463956 0.653042 0.139027
O O11 0.617309 0.266124 0.947526
O O12 0.655769 0.103599 0.016825
O O13 0.750000 0.500000 0.414914
O O14 0.631497 0.547868 0.402673
#
# Coordination Sequence:
#
# PCOD9505515 Si02
#       8
#    16   8   8  16  16  16   8  16
#     4  11  21  38  61  89 123 156 196 258 327 383
#     4  10  17  32  58  89 126 146 178 246 324 387
#     4  10  17  32  58  92 124 148 194 249 322 381
#     4  11  18  30  57  94 125 152 190 256 323 375
#     4  10  22  36  59  92 126 157 204 253 315 379
#     4  11  26  44  59  83 122 174 218 251 297 373
#     4  12  19  31  60 100 124 154 186 255 335 380
#     4  11  19  36  62  87 120 160 204 258 310 369
#
# _framework density 19.398095999999999
#
# number of rings (size 3 to 8) (size 9 to 14) (size 15 to 20)
#    0.000    1.231    6.154    1.846    0.000    2.462 
#    1.385    0.000    0.000    3.692    0.000    0.000 
#    0.000    0.000    0.000    0.000    0.000    0.000 
#
# Total GULP energy -289702.131671 kJ/mol
# GULP energy per Si atom -5571.194840 kJ/mol
# Density = 1.935395 g / cm^3
# Si number density = 19.398096 Si / 1000 Ang^3
#
#
#
# Elastic Constant Matrix: (Units=GPa)
#
#
# Indices 1 2 3 4 5 6 
#
# 1 61.1558 19.8873 37.8878 0.0000 0.0000 0.0000
# 2 19.8873 87.0179 52.4488 0.0000 0.0000 0.0000
# 3 37.8878 52.4488 153.0949 0.0000 0.0000 0.0000
# 4 0.0000 0.0000 0.0000 47.0068 0.0000 0.0000
# 5 0.0000 0.0000 0.0000 0.0000 7.5387 0.0000
# 6 0.0000 0.0000 0.0000 0.0000 0.0000 12.0652
#
#
#
# Elastic Compliance Matrix: (Units=1/GPa)
#
#
# Indices 1 2 3 4 5 6 
#
# 1 0.019574 -0.001958 -0.004173 0.000000 0.000000 0.000000
# 2 -0.001958 0.014678 -0.004544 0.000000 0.000000 0.000000
# 3 -0.004173 -0.004544 0.009121 0.000000 0.000000 0.000000
# 4 0.000000 0.000000 0.000000 0.021274 0.000000 0.000000
# 5 0.000000 0.000000 0.000000 0.000000 0.132649 0.000000
# 6 0.000000 0.000000 0.000000 0.000000 0.000000 0.082883
#
#
# Mechanical properties :
#
#
# Convention : Reuss Voigt Hill
#
# Bulk Modulus (GPa) = 45.40756 57.96849 51.68803
# Shear Modulus (GPa) = 16.18799 26.05846 21.12323
#
# Velocity S-wave (km/s) = 2.89193 3.66915 3.30348
# Velocity P-wave (km/s) = 5.88303 6.92089 6.42296
#
# Compressibility (1/GPa) = 0.02202276
#
# Stress axis : x y z
#
# Youngs Moduli (GPa) = 51.08836 68.12801 109.63161
#
# Poissons Ratio (x) = 0.13340 0.45753
# Poissons Ratio (y) = 0.10003 0.49817
# Poissons Ratio (z) = 0.21321 0.30958
#
# Static dielectric constant tensor:
#      x y z
#    x 1.645770 0.000000 0.000000 
#    y 0.000000 1.711560 0.000000 
#    z 0.000000 0.000000 1.763060 
# 
# From -- ./inp_files/33039.got.cif
#   From: 2010.05.17/outbox.cif.g08.bks.cpg/sg68_17_cif.got.tgz:33039.got - 2010.06.03 18:57:09.
