data_PCOD9505298
_publ_section_title
;
Structure prediction by ZEFSAII (Michael W. Deem and Ramdas Pophale) SiO2 
 PCOD9505298
Probable space group: C C C A
;
_chemical_formula_sum "Si O2"
_cell_formula_units_Z 60
_cell_length_a 17.033061
_cell_length_b 33.925203
_cell_length_c 5.518300
_cell_angle_alpha 90.000000
_cell_angle_beta 90.000000
_cell_angle_gamma 90.000000
_cell_volume 3188.749943
_symmetry_space_group_name_H-M "C C C A"
_symmetry_group_IT_number 68
_space_group.IT_coordinate_system_code '2'
_symmetry_cell_setting 'orthorhombic'
loop_
_space_group_symop_operation_xyz
x,y,z
-x,1/2-y,z
x,1/2-y,1/2-z
-x,y,1/2-z
-x,-y,-z
x,1/2+y,-z
-x,1/2+y,1/2+z
x,-y,1/2+z
1/2+x,1/2+y,z
1/2-x,-y,z
1/2+x,-y,1/2-z
1/2-x,1/2+y,1/2-z
1/2-x,1/2-y,-z
1/2+x,y,-z
1/2-x,y,1/2+z
1/2+x,1/2-y,1/2+z
loop_
_atom_site_type_symbol
_atom_site_label
_atom_site_fract_x
_atom_site_fract_y
_atom_site_fract_z
Si Si1 0.949933 0.894912 0.501513
Si Si2 0.919236 0.189670 0.898642
Si Si3 0.797707 0.750000 0.250000
Si Si4 0.091387 0.984026 0.994179
Si Si5 0.000000 0.750000 0.750000
O O1 0.900691 0.854466 0.484070
O O2 0.907895 0.936910 0.518771
O O3 0.000000 0.897653 0.250000
O O4 0.000000 0.891189 0.750000
O O5 0.852058 0.211062 0.748704
O O6 0.000000 0.186431 0.750000
O O7 0.943116 0.220879 0.103891
O O8 0.750000 0.750000 0.500000
O O9 0.126376 0.998429 0.247988
O O10 0.000000 0.000000 0.000000
#
# Coordination Sequence:
#
# PCOD9505298 Si02
#       5
#    16  16   8  16   4
#     4  11  19  28  46  75 104 146 173 224 269 340
#     4  11  23  36  58  84 112 147 195 238 290 346
#     4  12  26  42  61  81 114 154 196 242 296 348
#     4  10  15  25  40  63 107 142 167 199 275 336
#     4  12  16  36  60  76 116 142 190 238 290 346
#
# _framework density 18.816151000000001
#
# number of rings (size 3 to 8) (size 9 to 14) (size 15 to 20)
#    0.000    1.067    9.333    0.800    0.000    0.000 
#    0.000    0.000    0.000    0.000    0.000    0.000 
#    0.000    6.400    0.000    0.000    0.000    0.000 
#
# Total GULP energy -167190.369200 kJ/mol
# GULP energy per Si atom -5573.012307 kJ/mol
# Density = 1.877332 g / cm^3
# Si number density = 18.816151 Si / 1000 Ang^3
#
#
#
# Elastic Constant Matrix: (Units=GPa)
#
#
# Indices 1 2 3 4 5 6 
#
# 1 41.1150 30.8518 25.4980 0.0000 0.0000 0.0000
# 2 30.8518 219.2366 55.0057 0.0000 0.0000 0.0000
# 3 25.4980 55.0057 150.7170 0.0000 0.0000 0.0000
# 4 0.0000 0.0000 0.0000 51.6212 0.0000 0.0000
# 5 0.0000 0.0000 0.0000 0.0000 24.6003 0.0000
# 6 0.0000 0.0000 0.0000 0.0000 0.0000 -79.7614
#
#
#
# Elastic Compliance Matrix: (Units=1/GPa)
#
#
# Indices 1 2 3 4 5 6 
#
# 1 0.029010 -0.003138 -0.003763 0.000000 0.000000 0.000000
# 2 -0.003138 0.005361 -0.001425 0.000000 0.000000 0.000000
# 3 -0.003763 -0.001425 0.007792 0.000000 0.000000 0.000000
# 4 0.000000 0.000000 0.000000 0.019372 0.000000 0.000000
# 5 0.000000 0.000000 0.000000 0.000000 0.040650 0.000000
# 6 0.000000 0.000000 0.000000 0.000000 0.000000 -0.012537
#
#
# Mechanical properties :
#
#
# Convention : Reuss Voigt Hill
#
# Bulk Modulus (GPa) = 39.20049 70.41997 54.81023
# Shear Modulus (GPa) = 43.55280 19.27289 31.41285
#
# Velocity S-wave (km/s) = 4.81630 3.20390 4.09034
# Velocity P-wave (km/s) = 7.19775 7.15494 7.17638
#
# Compressibility (1/GPa) = 0.02550988
#
# Stress axis : x y z
#
# Youngs Moduli (GPa) = 34.47040 186.54710 128.34148
#
# Poissons Ratio (x) = 0.58547 0.48289
# Poissons Ratio (y) = 0.10818 0.18294
# Poissons Ratio (z) = 0.12970 0.26591
#
# Static dielectric constant tensor:
#      x y z
#    x 1.685300 0.000000 0.000000 
#    y 0.000000 1.687510 0.000000 
#    z 0.000000 0.000000 1.746600 
# 
# From -- ./inp_files/1060.got.cif
#   From: 2010.05.17/outbox.cif.g08.bks.cpg/sg68_1_cif.got.tgz:1060.got - 2010.06.03 18:57:09.
