data_PCOD9505317
_publ_section_title
;
Structure prediction by ZEFSAII (Michael W. Deem and Ramdas Pophale) SiO2 
 PCOD9505317
Probable space group: C C C A
;
_chemical_formula_sum "Si O2"
_cell_formula_units_Z 108
_cell_length_a 14.923249
_cell_length_b 18.559458
_cell_length_c 20.838749
_cell_angle_alpha 90.000000
_cell_angle_beta 90.000000
_cell_angle_gamma 90.000000
_cell_volume 5771.654401
_symmetry_space_group_name_H-M "C C C A"
_symmetry_group_IT_number 68
_space_group.IT_coordinate_system_code '2'
_symmetry_cell_setting 'orthorhombic'
loop_
_space_group_symop_operation_xyz
x,y,z
-x,1/2-y,z
x,1/2-y,1/2-z
-x,y,1/2-z
-x,-y,-z
x,1/2+y,-z
-x,1/2+y,1/2+z
x,-y,1/2+z
1/2+x,1/2+y,z
1/2-x,-y,z
1/2+x,-y,1/2-z
1/2-x,1/2+y,1/2-z
1/2-x,1/2-y,-z
1/2+x,y,-z
1/2-x,y,1/2+z
1/2+x,1/2-y,1/2+z
loop_
_atom_site_type_symbol
_atom_site_label
_atom_site_fract_x
_atom_site_fract_y
_atom_site_fract_z
Si Si1 0.713398 0.750000 0.250000
Si Si2 0.856980 0.337979 0.917396
Si Si3 0.638756 0.688833 0.656434
Si Si4 0.542025 0.079053 0.427754
Si Si5 0.407203 0.714883 0.451804
Si Si6 0.500000 0.750000 0.750000
Si Si7 0.010372 0.081498 0.420101
Si Si8 0.167678 0.343065 0.135283
O O1 0.773264 0.797150 0.300324
O O2 0.663263 0.806744 0.204980
O O3 0.870428 0.259675 0.887000
O O4 0.945990 0.385376 0.909343
O O5 0.767661 0.367457 0.883939
O O6 0.848235 0.321421 0.992989
O O7 0.619719 0.621141 0.610558
O O8 0.559895 0.697552 0.707542
O O9 0.544867 0.085784 0.505438
O O10 0.537004 0.994744 0.412112
O O11 0.500000 0.750000 0.479600
O O12 0.443722 0.648771 0.409445
O O13 0.358010 0.777690 0.413613
O O14 0.095988 0.094720 0.375866
#
# Coordination Sequence:
#
# PCOD9505317 Si02
#       8
#     8  16  16  16  16   4  16  16
#     4   9  22  33  53  76 101 136 182 223 255 306
#     4  10  17  28  53  83 103 132 164 219 269 308
#     4  10  17  30  51  78 106 134 171 214 255 304
#     4  10  18  33  55  82 111 133 170 216 266 321
#     4   9  17  31  52  75 101 130 178 216 256 310
#     4  10  16  24  48  76 102 132 172 196 256 288
#     4   9  20  34  54  81 107 140 171 212 267 322
#     4  10  19  34  52  74 106 135 174 220 261 302
#
# _framework density 18.712139000000001
#
# number of rings (size 3 to 8) (size 9 to 14) (size 15 to 20)
#    0.000    2.370    1.481    3.111    0.000    1.778 
#    0.000    3.333    3.259    8.889    0.000    0.000 
#    0.000    0.000    0.000    0.000    0.000    0.000 
#
# Total GULP energy -300897.292554 kJ/mol
# GULP energy per Si atom -5572.172084 kJ/mol
# Density = 1.866955 g / cm^3
# Si number density = 18.712139 Si / 1000 Ang^3
#
#
#
# Elastic Constant Matrix: (Units=GPa)
#
#
# Indices 1 2 3 4 5 6 
#
# 1 34.3135 4.5997 13.6937 0.0000 0.0000 0.0000
# 2 4.5997 64.1890 -4.5857 0.0000 0.0000 0.0000
# 3 13.6937 -4.5857 46.3829 0.0000 0.0000 0.0000
# 4 0.0000 0.0000 0.0000 25.8459 0.0000 0.0000
# 5 0.0000 0.0000 0.0000 0.0000 24.6209 0.0000
# 6 0.0000 0.0000 0.0000 0.0000 0.0000 9.7652
#
#
#
# Elastic Compliance Matrix: (Units=1/GPa)
#
#
# Indices 1 2 3 4 5 6 
#
# 1 0.033654 -0.003144 -0.010246 0.000000 0.000000 0.000000
# 2 -0.003144 0.015983 0.002508 0.000000 0.000000 0.000000
# 3 -0.010246 0.002508 0.024833 0.000000 0.000000 0.000000
# 4 0.000000 0.000000 0.000000 0.038691 0.000000 0.000000
# 5 0.000000 0.000000 0.000000 0.000000 0.040616 0.000000
# 6 0.000000 0.000000 0.000000 0.000000 0.000000 0.102405
#
#
# Mechanical properties :
#
#
# Convention : Reuss Voigt Hill
#
# Bulk Modulus (GPa) = 18.97303 19.14454 19.05879
# Shear Modulus (GPa) = 16.91971 20.79157 18.85564
#
# Velocity S-wave (km/s) = 3.01027 3.33697 3.17782
# Velocity P-wave (km/s) = 4.71633 5.01004 4.86540
#
# Compressibility (1/GPa) = 0.05270638
#
# Stress axis : x y z
#
# Youngs Moduli (GPa) = 29.71458 62.56478 40.26949
#
# Poissons Ratio (x) = 0.19668 0.41262
# Poissons Ratio (y) = 0.09341 -0.10101
# Poissons Ratio (z) = 0.30447 -0.15693
#
# Static dielectric constant tensor:
#      x y z
#    x 1.736740 0.000000 0.000000 
#    y 0.000000 1.635500 0.000000 
#    z 0.000000 0.000000 1.698380 
# 
# From -- ./inp_files/39767.got.cif
#   From: 2010.05.17/outbox.cif.g08.bks.cpg/sg68_20_cif.got.tgz:39767.got - 2010.06.03 18:57:09.
