data_PCOD9505321
_publ_section_title
;
Structure prediction by ZEFSAII (Michael W. Deem and Ramdas Pophale) SiO2 
 PCOD9505321
Probable space group: C C C A
;
_chemical_formula_sum "Si O2"
_cell_formula_units_Z 64
_cell_length_a 33.422983
_cell_length_b 13.950404
_cell_length_c 5.471835
_cell_angle_alpha 90.000000
_cell_angle_beta 90.000000
_cell_angle_gamma 90.000000
_cell_volume 2551.320308
_symmetry_space_group_name_H-M "C C C A"
_symmetry_group_IT_number 68
_space_group.IT_coordinate_system_code '2'
_symmetry_cell_setting 'orthorhombic'
loop_
_space_group_symop_operation_xyz
x,y,z
-x,1/2-y,z
x,1/2-y,1/2-z
-x,y,1/2-z
-x,-y,-z
x,1/2+y,-z
-x,1/2+y,1/2+z
x,-y,1/2+z
1/2+x,1/2+y,z
1/2-x,-y,z
1/2+x,-y,1/2-z
1/2-x,1/2+y,1/2-z
1/2-x,1/2-y,-z
1/2+x,y,-z
1/2-x,y,1/2+z
1/2+x,1/2-y,1/2+z
loop_
_atom_site_type_symbol
_atom_site_label
_atom_site_fract_x
_atom_site_fract_y
_atom_site_fract_z
Si Si1 0.110625 0.391679 0.108280
Si Si2 0.142277 0.111424 0.886931
Si Si3 0.733243 0.863753 0.706078
Si Si4 0.016881 0.391502 0.002132
O O1 0.119381 0.349316 0.375372
O O2 0.127150 0.500917 0.131752
O O3 0.132916 0.345379 0.878765
O O4 0.064414 0.393756 0.031094
O O5 0.189760 0.117475 0.908770
O O6 0.739145 0.750000 0.750000
O O7 0.762668 0.899538 0.487991
O O8 0.000000 0.350434 0.750000
O O9 0.000000 0.348170 0.250000
O O10 0.000000 0.500000 0.000000
#
# Coordination Sequence:
#
# PCOD9505321 Si02
#       4
#    16  16  16  16
#     4  10  19  30  45  72 104 129 155 191 237 289
#     4  10  18  32  48  67  97 127 152 195 244 284
#     4  10  21  37  54  70  89 119 162 206 243 285
#     4  10  16  25  41  63  96 133 160 182 215 268
#
# _framework density 25.085051
#
# number of rings (size 3 to 8) (size 9 to 14) (size 15 to 20)
#    0.000    2.000    0.000    9.000    0.000    0.000 
#    0.000   15.000    0.000    0.000    0.000    0.000 
#    0.000   48.000    0.000    0.000    0.000    0.000 
#
# Total GULP energy -178808.217196 kJ/mol
# GULP energy per Si atom -5587.756787 kJ/mol
# Density = 2.502796 g / cm^3
# Si number density = 25.085051 Si / 1000 Ang^3
#
#
#
# Elastic Constant Matrix: (Units=GPa)
#
#
# Indices 1 2 3 4 5 6 
#
# 1 94.0779 -27.1063 39.6535 0.0000 0.0000 0.0000
# 2 -27.1063 97.6471 16.5948 0.0000 0.0000 0.0000
# 3 39.6535 16.5948 255.0789 0.0000 0.0000 0.0000
# 4 0.0000 0.0000 0.0000 -11.1348 0.0000 0.0000
# 5 0.0000 0.0000 0.0000 0.0000 56.0982 0.0000
# 6 0.0000 0.0000 0.0000 0.0000 0.0000 -62.8335
#
#
#
# Elastic Compliance Matrix: (Units=1/GPa)
#
#
# Indices 1 2 3 4 5 6 
#
# 1 0.012692 0.003902 -0.002227 0.000000 0.000000 0.000000
# 2 0.003902 0.011555 -0.001358 0.000000 0.000000 0.000000
# 3 -0.002227 -0.001358 0.004355 0.000000 0.000000 0.000000
# 4 0.000000 0.000000 0.000000 -0.089809 0.000000 0.000000
# 5 0.000000 0.000000 0.000000 0.000000 0.017826 0.000000
# 6 0.000000 0.000000 0.000000 0.000000 0.000000 -0.015915
#
#
# Mechanical properties :
#
#
# Convention : Reuss Voigt Hill
#
# Bulk Modulus (GPa) = 34.20524 56.12088 45.16306
# Shear Modulus (GPa) = -99.63395 24.27011 -37.68192
#
# Velocity S-wave (km/s) = -6.30910 3.11386 -3.87998
# Velocity P-wave (km/s) = 6.27755 5.94550 1.42454
#
# Compressibility (1/GPa) = 0.02923529
#
# Stress axis : x y z
#
# Youngs Moduli (GPa) = 78.78765 86.54328 229.62571
#
# Poissons Ratio (x) = -0.33767 0.51136
# Poissons Ratio (y) = -0.30741 0.31190
# Poissons Ratio (z) = 0.17546 0.11755
#
# Static dielectric constant tensor:
#      x y z
#    x 1.957110 0.000000 0.000000 
#    y 0.000000 2.357950 0.000000 
#    z 0.000000 0.000000 2.077750 
# 
# From -- ./inp_files/1490.got.cif
#   From: 2010.05.17/outbox.cif.g08.bks.cpg/sg68_1_cif.got.tgz:1490.got - 2010.06.03 18:57:09.
