data_PCOD9505943
_publ_section_title
;
Structure prediction by ZEFSAII (Michael W. Deem and Ramdas Pophale) SiO2 
 PCOD9505943
Probable space group: C C C A
;
_chemical_formula_sum "Si O2"
_cell_formula_units_Z 96
_cell_length_a 26.555702
_cell_length_b 14.219563
_cell_length_c 13.549587
_cell_angle_alpha 90.000000
_cell_angle_beta 90.000000
_cell_angle_gamma 90.000000
_cell_volume 5116.466018
_symmetry_space_group_name_H-M "C C C A"
_symmetry_group_IT_number 68
_space_group.IT_coordinate_system_code '2'
_symmetry_cell_setting 'orthorhombic'
loop_
_space_group_symop_operation_xyz
x,y,z
-x,1/2-y,z
x,1/2-y,1/2-z
-x,y,1/2-z
-x,-y,-z
x,1/2+y,-z
-x,1/2+y,1/2+z
x,-y,1/2+z
1/2+x,1/2+y,z
1/2-x,-y,z
1/2+x,-y,1/2-z
1/2-x,1/2+y,1/2-z
1/2-x,1/2-y,-z
1/2+x,y,-z
1/2-x,y,1/2+z
1/2+x,1/2-y,1/2+z
loop_
_atom_site_type_symbol
_atom_site_label
_atom_site_fract_x
_atom_site_fract_y
_atom_site_fract_z
Si Si1 0.558401 0.645037 0.220739
Si Si2 0.881256 0.118486 0.470526
Si Si3 0.179682 0.314694 0.026073
Si Si4 0.128860 0.018153 0.354739
Si Si5 0.741362 0.285734 0.154656
Si Si6 0.303418 0.041522 0.678474
O O1 0.577349 0.750000 0.250000
O O2 0.500000 0.641497 0.250000
O O3 0.571812 0.629996 0.105080
O O4 0.586941 0.566930 0.285673
O O5 0.853922 0.219767 0.480489
O O6 0.842898 0.051677 0.409313
O O7 0.888612 0.067618 0.575755
O O8 0.149490 0.398998 0.074827
O O9 0.229523 0.292524 0.091099
O O10 0.202154 0.334422 0.918401
O O11 0.173173 0.995165 0.275979
O O12 0.712863 0.250000 0.250000
O O13 0.786463 0.350426 0.196869
O O14 0.250000 0.000000 0.650319
#
# Coordination Sequence:
#
# PCOD9505943 Si02
#       6
#    16  16  16  16  16  16
#     4  10  21  41  68  87 107 145 190 245 310 365
#     4  10  22  36  57  88 113 148 193 244 295 344
#     4  10  20  34  52  77 113 151 199 236 281 327
#     4  11  21  36  58  83 118 146 188 250 281 340
#     4  10  19  31  48  72 107 162 200 235 264 317
#     4  10  21  32  51  76 117 156 200 226 275 337
#
# _framework density 18.762951000000001
#
# number of rings (size 3 to 8) (size 9 to 14) (size 15 to 20)
#    0.000    1.833    3.333    1.000    2.333    2.667 
#    0.000    0.000    0.000    0.000    0.000    1.167 
#    0.000    0.000    0.000    0.000    0.000    0.000 
#
# Total GULP energy -267483.306012 kJ/mol
# GULP energy per Si atom -5572.568875 kJ/mol
# Density = 1.872025 g / cm^3
# Si number density = 18.762951 Si / 1000 Ang^3
#
#
#
# Elastic Constant Matrix: (Units=GPa)
#
#
# Indices 1 2 3 4 5 6 
#
# 1 60.2373 5.7591 12.9123 0.0000 0.0000 0.0000
# 2 5.7591 46.5329 11.5829 0.0000 0.0000 0.0000
# 3 12.9123 11.5829 89.7070 0.0000 0.0000 0.0000
# 4 0.0000 0.0000 0.0000 34.0863 0.0000 0.0000
# 5 0.0000 0.0000 0.0000 0.0000 24.2677 0.0000
# 6 0.0000 0.0000 0.0000 0.0000 0.0000 12.1843
#
#
#
# Elastic Compliance Matrix: (Units=1/GPa)
#
#
# Indices 1 2 3 4 5 6 
#
# 1 0.017239 -0.001566 -0.002279 0.000000 0.000000 0.000000
# 2 -0.001566 0.022346 -0.002660 0.000000 0.000000 0.000000
# 3 -0.002279 -0.002660 0.011819 0.000000 0.000000 0.000000
# 4 0.000000 0.000000 0.000000 0.029337 0.000000 0.000000
# 5 0.000000 0.000000 0.000000 0.000000 0.041207 0.000000
# 6 0.000000 0.000000 0.000000 0.000000 0.000000 0.082073
#
#
# Mechanical properties :
#
#
# Convention : Reuss Voigt Hill
#
# Bulk Modulus (GPa) = 26.04593 28.55397 27.29995
# Shear Modulus (GPa) = 21.75519 25.18919 23.47219
#
# Velocity S-wave (km/s) = 3.40880 3.66798 3.54077
# Velocity P-wave (km/s) = 5.42263 5.76109 5.59442
#
# Compressibility (1/GPa) = 0.03839372
#
# Stress axis : x y z
#
# Youngs Moduli (GPa) = 58.00698 44.75050 84.61025
#
# Poissons Ratio (x) = 0.07009 0.19284
# Poissons Ratio (y) = 0.09085 0.22505
# Poissons Ratio (z) = 0.13221 0.11903
#
# Static dielectric constant tensor:
#      x y z
#    x 1.641420 0.000000 0.000000 
#    y 0.000000 1.746580 0.000000 
#    z 0.000000 0.000000 1.690090 
# 
# From -- ./inp_files/17160.got.cif
#   From: 2010.05.17/outbox.cif.g08.bks.cpg/sg68_9_cif.got.tgz:17160.got - 2010.06.03 18:57:09.
