data_PCOD9505212
_publ_section_title
;
Structure prediction by ZEFSAII (Michael W. Deem and Ramdas Pophale) SiO2 
 PCOD9505212
Probable space group: C M M A
;
_chemical_formula_sum "Si O2"
_cell_formula_units_Z 48
_cell_length_a 9.000000
_cell_length_b 21.000000
_cell_length_c 27.000000
_cell_angle_alpha 90.000000
_cell_angle_beta 90.000000
_cell_angle_gamma 90.000000
_cell_volume 5103.000000
_symmetry_space_group_name_H-M "C M M A"
_symmetry_group_IT_number 67
_symmetry_cell_setting 'orthorhombic'
loop_
_space_group_symop_operation_xyz
x,y,z
-x,1/2-y,z
x,-y,-z
-x,1/2+y,-z
-x,-y,-z
x,1/2+y,-z
-x,y,z
x,1/2-y,z
1/2+x,1/2+y,z
1/2-x,-y,z
1/2+x,1/2-y,-z
1/2-x,y,-z
1/2-x,1/2-y,-z
1/2+x,y,-z
1/2-x,1/2+y,z
1/2+x,-y,z
loop_
_atom_site_type_symbol
_atom_site_label
_atom_site_fract_x
_atom_site_fract_y
_atom_site_fract_z
Si Si1 0.323432 0.070263 0.707850
Si Si2 0.827276 0.178022 0.105467
Si Si3 0.324171 0.562960 0.945997
Si Si4 0.823769 0.679725 0.776005
Si Si5 0.176465 0.326494 0.381259
Si Si6 0.820867 0.565773 0.445426
O O1 0.500000 0.057762 0.712094
O O2 0.265717 0.112958 0.754212
O O3 0.305420 0.125384 0.665617
O O4 0.250000 0.000000 0.701564
O O5 0.796352 0.250000 0.087966
O O6 0.719752 0.125926 0.083220
O O7 0.814022 0.178273 0.164864
O O8 0.000000 0.163084 0.093262
O O9 0.500000 0.554855 0.950096
O O10 0.250000 0.500000 0.922515
O O11 0.250000 0.568869 0.000000
O O12 0.764389 0.750000 0.759299
O O13 0.000000 0.680739 0.762836
O O14 0.214186 0.250000 0.375180
O O15 0.271307 0.367384 0.420761
O O16 0.000000 0.327673 0.393795
O O17 0.750000 0.500000 0.422234
O O18 0.750000 0.567402 0.500000
O O19 0.000000 0.559714 0.445873
#
# Coordination Sequence:
#
# PCOD9505212 Si02
#       6
#    16  16  16  16  16  16
#     4  10  20  34  54  80 109 142 181 223 267 317
#     4   9  18  34  56  81 109 141 178 220 266 317
#     4  11  22  37  56  77 105 139 178 222 269 321
#     4   8  15  31  55  79 104 138 179 219 260 311
#     4  10  21  37  57  81 110 145 185 228 273 321
#     4  11  22  38  60  84 112 145 182 224 271 323
#
# _framework density 9.4062319999999993
#
# number of rings (size 3 to 8) (size 9 to 14) (size 15 to 20)
#    0.000    2.167    0.000    6.000    0.000    6.000 
#    0.000    2.500    0.000    2.500    0.000    0.000 
#    0.000    0.000    0.000    0.000    0.000    0.000 
#
# Total GULP energy -267290.247098 kJ/mol
# GULP energy per Si atom -5568.546815 kJ/mol
# Density = 0.938482 g / cm^3
# Si number density = 9.406232 Si / 1000 Ang^3
#
#
#
# Elastic Constant Matrix: (Units=GPa)
#
#
# Indices 1 2 3 4 5 6 
#
# 1 112.0397 75.2593 30.0120 0.0000 0.0000 0.0000
# 2 75.2593 195.8115 40.4189 0.0000 0.0000 0.0000
# 3 30.0120 40.4189 31.2750 0.0000 0.0000 0.0000
# 4 0.0000 0.0000 0.0000 36.4180 0.0000 0.0000
# 5 0.0000 0.0000 0.0000 0.0000 13.9307 0.0000
# 6 0.0000 0.0000 0.0000 0.0000 0.0000 37.4233
#
#
#
# Elastic Compliance Matrix: (Units=1/GPa)
#
#
# Indices 1 2 3 4 5 6 
#
# 1 0.013518 -0.003434 -0.008534 0.000000 0.000000 0.000000
# 2 -0.003434 0.007837 -0.006833 0.000000 0.000000 0.000000
# 3 -0.008534 -0.006833 0.048995 0.000000 0.000000 0.000000
# 4 0.000000 0.000000 0.000000 0.027459 0.000000 0.000000
# 5 0.000000 0.000000 0.000000 0.000000 0.071784 0.000000
# 6 0.000000 0.000000 0.000000 0.000000 0.000000 0.026721
#
#
# Mechanical properties :
#
#
# Convention : Reuss Voigt Hill
#
# Bulk Modulus (GPa) = 30.53669 70.05630 50.29649
# Shear Modulus (GPa) = 20.42201 30.45015 25.43608
#
# Velocity S-wave (km/s) = 3.29835 4.02757 3.68106
# Velocity P-wave (km/s) = 5.54733 7.67780 6.69782
#
# Compressibility (1/GPa) = 0.03274750
#
# Stress axis : x y z
#
# Youngs Moduli (GPa) = 73.97443 127.59429 20.41015
#
# Poissons Ratio (x) = 0.43817 0.17418
# Poissons Ratio (y) = 0.25403 0.13947
# Poissons Ratio (z) = 0.63131 0.87190
#
# Static dielectric constant tensor:
#      x y z
#    x 1.639880 0.000000 0.000000 
#    y 0.000000 1.676960 0.000000 
#    z 0.000000 0.000000 1.739210 
# 
# From -- ./inp_files/43521.got.cif
#   From: 2010.05.17/outbox.ucp.g08.bks.cvg/sg67_22_cif.got.tgz:43521.got - 2010.06.11 16:47:20.
