data_PCOD9505074
_publ_section_title
;
Structure prediction by ZEFSAII (Michael W. Deem and Ramdas Pophale) SiO2 
 PCOD9505074
Probable space group: C M M A
;
_chemical_formula_sum "Si O2"
_cell_formula_units_Z 112
_cell_length_a 14.533709
_cell_length_b 33.492730
_cell_length_c 14.745917
_cell_angle_alpha 90.000000
_cell_angle_beta 90.000000
_cell_angle_gamma 90.000000
_cell_volume 7177.922977
_symmetry_space_group_name_H-M "C M M A"
_symmetry_group_IT_number 67
_symmetry_cell_setting 'orthorhombic'
loop_
_space_group_symop_operation_xyz
x,y,z
-x,1/2-y,z
x,-y,-z
-x,1/2+y,-z
-x,-y,-z
x,1/2+y,-z
-x,y,z
x,1/2-y,z
1/2+x,1/2+y,z
1/2-x,-y,z
1/2+x,1/2-y,-z
1/2-x,y,-z
1/2-x,1/2-y,-z
1/2+x,y,-z
1/2-x,1/2+y,z
1/2+x,-y,z
loop_
_atom_site_type_symbol
_atom_site_label
_atom_site_fract_x
_atom_site_fract_y
_atom_site_fract_z
Si Si1 0.896633 0.202184 0.951639
Si Si2 0.106359 0.294563 0.440612
Si Si3 0.752772 0.933047 0.610032
Si Si4 0.894963 0.705271 0.340969
Si Si5 0.103620 0.002357 0.609431
Si Si6 0.202840 0.298110 0.140572
Si Si7 0.224666 0.653438 0.687496
O O1 0.902193 0.250000 0.942181
O O2 0.864061 0.194687 0.055022
O O3 0.000000 0.186292 0.932757
O O4 0.807644 0.191490 0.890947
O O5 0.136905 0.250000 0.412526
O O6 0.107498 0.295475 0.549465
O O7 0.171454 0.326979 0.397193
O O8 0.000000 0.299953 0.412796
O O9 0.750000 0.925242 0.500000
O O10 0.834584 0.964043 0.632549
O O11 0.767774 0.893168 0.667241
O O12 0.659413 0.957380 0.631777
O O13 0.866261 0.750000 0.312074
O O14 0.826416 0.671858 0.309272
O O15 0.000000 0.699569 0.311861
O O16 0.000000 0.001526 0.645152
O O17 0.099384 0.000000 0.500000
O O18 0.198589 0.250000 0.160962
O O19 0.178113 0.327056 0.223738
#
# Coordination Sequence:
#
# PCOD9505074 Si02
#       7
#    16  16  16  16  16  16  16
#     4   8  15  31  50  61  77 110 149 186 219 257
#     4   9  18  30  40  52  78 122 165 186 203 239
#     4   9  18  29  43  66  88 113 150 180 215 265
#     4   9  18  30  40  52  78 122 165 186 203 239
#     4   8  15  31  50  61  77 110 149 186 219 257
#     4   9  18  29  43  66  88 113 150 180 215 265
#     4  12  20  27  42  66  94 113 136 186 234 262
#
# _framework density 15.603400000000001
#
# number of rings (size 3 to 8) (size 9 to 14) (size 15 to 20)
#    0.000    2.857    0.000    5.143    0.000    3.429 
#    0.000    5.714    0.000    0.000    0.000    0.000 
#    0.000    9.143    0.000   10.286    0.000    0.000 
#
# Total GULP energy -311843.532003 kJ/mol
# GULP energy per Si atom -5568.634500 kJ/mol
# Density = 1.556789 g / cm^3
# Si number density = 15.603400 Si / 1000 Ang^3
#
#
#
# Elastic Constant Matrix: (Units=GPa)
#
#
# Indices 1 2 3 4 5 6 
#
# 1 66.3882 24.7432 1.7135 0.0000 0.0000 0.0000
# 2 24.7432 94.1585 22.5397 0.0000 0.0000 0.0000
# 3 1.7135 22.5397 36.7206 0.0000 0.0000 0.0000
# 4 0.0000 0.0000 0.0000 19.9682 0.0000 0.0000
# 5 0.0000 0.0000 0.0000 0.0000 -2.2258 0.0000
# 6 0.0000 0.0000 0.0000 0.0000 0.0000 10.4532
#
#
#
# Elastic Compliance Matrix: (Units=1/GPa)
#
#
# Indices 1 2 3 4 5 6 
#
# 1 0.016858 -0.004972 0.002265 0.000000 0.000000 0.000000
# 2 -0.004972 0.013916 -0.008310 0.000000 0.000000 0.000000
# 3 0.002265 -0.008310 0.032228 0.000000 0.000000 0.000000
# 4 0.000000 0.000000 0.000000 0.050080 0.000000 0.000000
# 5 0.000000 0.000000 0.000000 0.000000 -0.449279 0.000000
# 6 0.000000 0.000000 0.000000 0.000000 0.000000 0.095665
#
#
# Mechanical properties :
#
#
# Convention : Reuss Voigt Hill
#
# Bulk Modulus (GPa) = 24.40930 32.80667 28.60799
# Shear Modulus (GPa) = -24.40891 15.52385 -4.44253
#
# Velocity S-wave (km/s) = -3.95946 3.15763 -1.68918
# Velocity P-wave (km/s) = 2.28594 5.86218 3.81704
#
# Compressibility (1/GPa) = 0.04096799
#
# Stress axis : x y z
#
# Youngs Moduli (GPa) = 59.32042 71.85855 31.02918
#
# Poissons Ratio (x) = 0.35729 -0.07029
# Poissons Ratio (y) = 0.29495 0.25785
# Poissons Ratio (z) = -0.13438 0.59714
#
# Static dielectric constant tensor:
#      x y z
#    x 1.565180 0.000000 0.000000 
#    y 0.000000 1.495530 0.000000 
#    z 0.000000 0.000000 1.549260 
# 
# From -- ./inp_files/27867.got.cif
#   From: 2010.05.17/outbox.cif.g08.bks.cpg/sg67_14_cif.got.tgz:27867.got - 2010.06.03 18:28:57.
