data_PCOD9505709
_publ_section_title
;
Structure prediction by ZEFSAII (Michael W. Deem and Ramdas Pophale) SiO2 
 PCOD9505709
Probable space group: C C C A
;
_chemical_formula_sum "Si O2"
_cell_formula_units_Z 116
_cell_length_a 8.506665
_cell_length_b 25.568569
_cell_length_c 29.440098
_cell_angle_alpha 90.000000
_cell_angle_beta 90.000000
_cell_angle_gamma 90.000000
_cell_volume 6403.317025
_symmetry_space_group_name_H-M "C C C A"
_symmetry_group_IT_number 68
_space_group.IT_coordinate_system_code '2'
_symmetry_cell_setting 'orthorhombic'
loop_
_space_group_symop_operation_xyz
x,y,z
-x,1/2-y,z
x,1/2-y,1/2-z
-x,y,1/2-z
-x,-y,-z
x,1/2+y,-z
-x,1/2+y,1/2+z
x,-y,1/2+z
1/2+x,1/2+y,z
1/2-x,-y,z
1/2+x,-y,1/2-z
1/2-x,1/2+y,1/2-z
1/2-x,1/2-y,-z
1/2+x,y,-z
1/2-x,y,1/2+z
1/2+x,1/2-y,1/2+z
loop_
_atom_site_type_symbol
_atom_site_label
_atom_site_fract_x
_atom_site_fract_y
_atom_site_fract_z
Si Si1 0.988844 0.855113 0.302248
Si Si2 0.147575 0.278472 0.623939
Si Si3 0.000000 0.250000 0.250000
Si Si4 0.103224 0.139349 0.393133
Si Si5 0.326866 0.444412 0.153762
Si Si6 0.608653 0.071349 0.527027
Si Si7 0.959771 0.542541 0.442689
Si Si8 0.165698 0.314273 0.328678
O O1 0.806331 0.854347 0.317008
O O2 0.000000 0.838942 0.250000
O O3 0.074780 0.812801 0.334668
O O4 0.079310 0.909919 0.309751
O O5 0.259518 0.318348 0.597849
O O6 0.256180 0.233295 0.643962
O O7 0.000000 0.250000 0.600313
O O8 0.900885 0.212020 0.282858
O O9 0.186897 0.091514 0.366430
O O10 0.047174 0.118000 0.441668
O O11 0.971056 0.162014 0.359918
O O12 0.250000 0.500000 0.166793
O O13 0.446271 0.451702 0.111127
O O14 0.791087 0.061922 0.538376
O O15 0.583245 0.073929 0.473157
O O16 0.524478 0.018519 0.545097
#
# Coordination Sequence:
#
# PCOD9505709 Si02
#       8
#    16  16   4  16  16  16  16  16
#     4  10  22  36  55  81 109 149 191 229 282 344
#     4   9  18  34  53  78 113 144 179 233 281 342
#     4  12  20  32  58  80 120 144 174 260 296 316
#     4  10  18  33  52  84 110 147 178 229 294 337
#     4  10  19  38  56  72 113 155 185 229 281 336
#     4   9  17  29  54  79 108 133 178 229 277 336
#     4   9  16  32  52  81 104 140 177 228 282 320
#     4  11  21  33  54  86 111 141 187 237 289 333
#
# _framework density 18.11561
#
# number of rings (size 3 to 8) (size 9 to 14) (size 15 to 20)
#    0.000    2.207    4.138    0.828    1.931    3.034 
#    0.000    2.069    0.000    0.000    0.000   68.552 
#    0.000    0.000    0.000    0.000    0.000    0.000 
#
# Total GULP energy -323097.804578 kJ/mol
# GULP energy per Si atom -5570.651803 kJ/mol
# Density = 1.807438 g / cm^3
# Si number density = 18.115610 Si / 1000 Ang^3
#
#
#
# Elastic Constant Matrix: (Units=GPa)
#
#
# Indices 1 2 3 4 5 6 
#
# 1 63.9037 40.9173 19.3777 0.0000 0.0000 0.0000
# 2 40.9173 85.8197 12.2967 0.0000 0.0000 0.0000
# 3 19.3777 12.2967 45.3557 0.0000 0.0000 0.0000
# 4 0.0000 0.0000 0.0000 21.9010 0.0000 0.0000
# 5 0.0000 0.0000 0.0000 0.0000 11.0758 0.0000
# 6 0.0000 0.0000 0.0000 0.0000 0.0000 21.9061
#
#
#
# Elastic Compliance Matrix: (Units=1/GPa)
#
#
# Indices 1 2 3 4 5 6 
#
# 1 0.024872 -0.010754 -0.007711 0.000000 0.000000 0.000000
# 2 -0.010754 0.016773 0.000047 0.000000 0.000000 0.000000
# 3 -0.007711 0.000047 0.025330 0.000000 0.000000 0.000000
# 4 0.000000 0.000000 0.000000 0.045660 0.000000 0.000000
# 5 0.000000 0.000000 0.000000 0.000000 0.090287 0.000000
# 6 0.000000 0.000000 0.000000 0.000000 0.000000 0.045649
#
#
# Mechanical properties :
#
#
# Convention : Reuss Voigt Hill
#
# Bulk Modulus (GPa) = 33.17911 37.80693 35.49302
# Shear Modulus (GPa) = 16.92316 19.14240 18.03278
#
# Velocity S-wave (km/s) = 3.05974 3.25419 3.15846
# Velocity P-wave (km/s) = 5.55317 5.91902 5.73901
#
# Compressibility (1/GPa) = 0.03013945
#
# Stress axis : x y z
#
# Youngs Moduli (GPa) = 40.20528 59.62026 39.47954
#
# Poissons Ratio (x) = 0.64115 0.30442
# Poissons Ratio (y) = 0.43236 -0.00186
# Poissons Ratio (z) = 0.31002 -0.00281
#
# Static dielectric constant tensor:
#      x y z
#    x 1.663110 0.000000 0.000000 
#    y 0.000000 1.644650 0.000000 
#    z 0.000000 0.000000 1.647570 
# 
# From -- ./inp_files/54251.got.cif
#   From: 2010.05.17/outbox.cif.g08.bks.cpg/sg68_28_cif.got.tgz:54251.got - 2010.06.03 18:57:09.
