data_PCOD9505602
_publ_section_title
;
Structure prediction by ZEFSAII (Michael W. Deem and Ramdas Pophale) SiO2 
 PCOD9505602
Probable space group: C C C A
;
_chemical_formula_sum "Si O2"
_cell_formula_units_Z 108
_cell_length_a 13.215004
_cell_length_b 21.886961
_cell_length_c 14.599278
_cell_angle_alpha 90.000000
_cell_angle_beta 90.000000
_cell_angle_gamma 90.000000
_cell_volume 4222.640818
_symmetry_space_group_name_H-M "C C C A"
_symmetry_group_IT_number 68
_space_group.IT_coordinate_system_code '2'
_symmetry_cell_setting 'orthorhombic'
loop_
_space_group_symop_operation_xyz
x,y,z
-x,1/2-y,z
x,1/2-y,1/2-z
-x,y,1/2-z
-x,-y,-z
x,1/2+y,-z
-x,1/2+y,1/2+z
x,-y,1/2+z
1/2+x,1/2+y,z
1/2-x,-y,z
1/2+x,-y,1/2-z
1/2-x,1/2+y,1/2-z
1/2-x,1/2-y,-z
1/2+x,y,-z
1/2-x,y,1/2+z
1/2+x,1/2-y,1/2+z
loop_
_atom_site_type_symbol
_atom_site_label
_atom_site_fract_x
_atom_site_fract_y
_atom_site_fract_z
Si Si1 0.500000 0.750000 0.750000
Si Si2 0.863510 0.517601 0.239029
Si Si3 0.885067 0.114500 0.250152
Si Si4 0.024497 0.558155 0.441500
Si Si5 0.670432 0.154240 0.226560
Si Si6 0.000000 0.750000 0.533027
Si Si7 0.877587 0.359516 0.048618
Si Si8 0.337825 0.336375 0.446832
O O1 0.419333 0.797447 0.800755
O O2 0.750000 0.500000 0.205228
O O3 0.889010 0.454379 0.291357
O O4 0.942000 0.535139 0.158640
O O5 0.854231 0.582660 0.290899
O O6 0.793307 0.155669 0.208734
O O7 0.860299 0.102943 0.358521
O O8 0.000000 0.137424 0.250000
O O9 0.120082 0.597635 0.475426
O O10 0.000000 0.500000 0.500000
O O11 0.934595 0.604942 0.468811
O O12 0.665912 0.163277 0.336894
O O13 0.056552 0.803170 0.584467
O O14 0.085334 0.715167 0.476218
O O15 0.773361 0.331774 0.013514
#
# Coordination Sequence:
#
# PCOD9505602 Si02
#       8
#     4  16  16  16  16   8  16  16
#     4  12  22  40  62  80 116 138 216 256 274 340
#     4   9  18  36  62  83 113 156 194 234 295 358
#     4  10  20  38  60  82 118 156 196 236 293 359
#     4  10  18  29  56  85 111 136 186 228 282 338
#     4   9  21  37  59  87 106 157 197 245 292 337
#     4  10  19  34  57  83 110 149 186 238 286 348
#     4  10  20  35  54  85 113 150 189 232 289 345
#     4   9  19  35  56  78 113 150 185 225 291 354
#
# _framework density 25.576412000000001
#
# number of rings (size 3 to 8) (size 9 to 14) (size 15 to 20)
#    0.000    2.370    1.481    1.778    1.037    0.000 
#    5.333    0.000    9.778    2.667    0.000    0.000 
#    0.000    0.000    0.000    0.000    0.000    0.000 
#
# Total GULP energy -301122.024132 kJ/mol
# GULP energy per Si atom -5576.333780 kJ/mol
# Density = 2.551820 g / cm^3
# Si number density = 25.576412 Si / 1000 Ang^3
#
#
#
# Elastic Constant Matrix: (Units=GPa)
#
#
# Indices 1 2 3 4 5 6 
#
# 1 219.8208 72.0999 20.5556 0.0000 0.0000 0.0000
# 2 72.0999 157.0020 20.8518 0.0000 0.0000 0.0000
# 3 20.5556 20.8518 41.8123 0.0000 0.0000 0.0000
# 4 0.0000 0.0000 0.0000 16.1602 0.0000 0.0000
# 5 0.0000 0.0000 0.0000 0.0000 20.0086 0.0000
# 6 0.0000 0.0000 0.0000 0.0000 0.0000 53.1007
#
#
#
# Elastic Compliance Matrix: (Units=1/GPa)
#
#
# Indices 1 2 3 4 5 6 
#
# 1 0.005446 -0.002298 -0.001532 0.000000 0.000000 0.000000
# 2 -0.002298 0.007790 -0.002756 0.000000 0.000000 0.000000
# 3 -0.001532 -0.002756 0.026044 0.000000 0.000000 0.000000
# 4 0.000000 0.000000 0.000000 0.061880 0.000000 0.000000
# 5 0.000000 0.000000 0.000000 0.000000 0.049979 0.000000
# 6 0.000000 0.000000 0.000000 0.000000 0.000000 0.018832
#
#
# Mechanical properties :
#
#
# Convention : Reuss Voigt Hill
#
# Bulk Modulus (GPa) = 38.29858 71.73883 55.01871
# Shear Modulus (GPa) = 26.06285 38.19574 32.12930
#
# Velocity S-wave (km/s) = 3.19567 3.86864 3.54815
# Velocity P-wave (km/s) = 5.35006 6.93289 6.19225
#
# Compressibility (1/GPa) = 0.02611063
#
# Stress axis : x y z
#
# Youngs Moduli (GPa) = 183.62259 128.36287 38.39720
#
# Poissons Ratio (x) = 0.29492 0.05881
# Poissons Ratio (y) = 0.42188 0.10581
# Poissons Ratio (z) = 0.28123 0.35371
#
# Static dielectric constant tensor:
#      x y z
#    x 2.056650 0.000000 0.000000 
#    y 0.000000 2.044470 0.000000 
#    z 0.000000 0.000000 2.044650 
# 
# From -- ./inp_files/37860.got.cif
#   From: 2010.05.17/outbox.cif.g08.bks.cpg/sg68_19_cif.got.tgz:37860.got - 2010.06.03 18:57:09.
