data_PCOD9505775
_publ_section_title
;
Structure prediction by ZEFSAII (Michael W. Deem and Ramdas Pophale) SiO2 
 PCOD9505775
Probable space group: C C C A
;
_chemical_formula_sum "Si O2"
_cell_formula_units_Z 64
_cell_length_a 11.941916
_cell_length_b 10.171810
_cell_length_c 19.805658
_cell_angle_alpha 90.000000
_cell_angle_beta 90.000000
_cell_angle_gamma 90.000000
_cell_volume 2405.811114
_symmetry_space_group_name_H-M "C C C A"
_symmetry_group_IT_number 68
_space_group.IT_coordinate_system_code '2'
_symmetry_cell_setting 'orthorhombic'
loop_
_space_group_symop_operation_xyz
x,y,z
-x,1/2-y,z
x,1/2-y,1/2-z
-x,y,1/2-z
-x,-y,-z
x,1/2+y,-z
-x,1/2+y,1/2+z
x,-y,1/2+z
1/2+x,1/2+y,z
1/2-x,-y,z
1/2+x,-y,1/2-z
1/2-x,1/2+y,1/2-z
1/2-x,1/2-y,-z
1/2+x,y,-z
1/2-x,y,1/2+z
1/2+x,1/2-y,1/2+z
loop_
_atom_site_type_symbol
_atom_site_label
_atom_site_fract_x
_atom_site_fract_y
_atom_site_fract_z
Si Si1 0.493311 0.488386 0.179363
Si Si2 0.565676 0.386415 0.957345
Si Si3 0.872976 0.815624 0.410541
Si Si4 0.782013 0.150639 0.694507
O O1 0.500000 0.566201 0.250000
O O2 0.425940 0.558236 0.118285
O O3 0.604734 0.434663 0.142556
O O4 0.415859 0.366525 0.201184
O O5 0.500000 0.250000 0.947459
O O6 0.500000 0.500000 0.000000
O O7 0.659250 0.358452 0.014119
O O8 0.780641 0.720198 0.378431
O O9 0.000000 0.750000 0.417157
O O10 0.736206 0.250000 0.750000
O O11 0.750000 0.000000 0.704499
#
# Coordination Sequence:
#
# PCOD9505775 Si02
#       4
#    16  16  16  16
#     4  10  18  34  63  92 117 162 216 258 315 383
#     4   9  18  34  58  93 125 156 205 270 317 367
#     4   8  16  33  62  87 117 160 208 254 310 384
#     4  11  22  39  61  89 128 167 212 267 332 386
#
# _framework density 26.602253000000001
#
# number of rings (size 3 to 8) (size 9 to 14) (size 15 to 20)
#    0.000    2.500    2.500    1.500    0.000    0.500 
#    4.500    1.250    0.000    1.500    0.000    0.000 
#    0.000    0.000    0.000    0.000    0.000    0.000 
#
# Total GULP energy -178214.961400 kJ/mol
# GULP energy per Si atom -5569.217544 kJ/mol
# Density = 2.654171 g / cm^3
# Si number density = 26.602253 Si / 1000 Ang^3
#
#
#
# Elastic Constant Matrix: (Units=GPa)
#
#
# Indices 1 2 3 4 5 6 
#
# 1 33.5244 28.7526 19.0505 0.0000 0.0000 0.0000
# 2 28.7526 163.5716 84.6514 0.0000 0.0000 0.0000
# 3 19.0505 84.6514 305.2781 0.0000 0.0000 0.0000
# 4 0.0000 0.0000 0.0000 49.1100 0.0000 0.0000
# 5 0.0000 0.0000 0.0000 0.0000 12.4003 0.0000
# 6 0.0000 0.0000 0.0000 0.0000 0.0000 50.9116
#
#
#
# Elastic Compliance Matrix: (Units=1/GPa)
#
#
# Indices 1 2 3 4 5 6 
#
# 1 0.035207 -0.005898 -0.000562 0.000000 0.000000 0.000000
# 2 -0.005898 0.008126 -0.001885 0.000000 0.000000 0.000000
# 3 -0.000562 -0.001885 0.003833 0.000000 0.000000 0.000000
# 4 0.000000 0.000000 0.000000 0.020362 0.000000 0.000000
# 5 0.000000 0.000000 0.000000 0.000000 0.080643 0.000000
# 6 0.000000 0.000000 0.000000 0.000000 0.000000 0.019642
#
#
# Mechanical properties :
#
#
# Convention : Reuss Voigt Hill
#
# Bulk Modulus (GPa) = 32.81219 85.25369 59.03294
# Shear Modulus (GPa) = 25.68554 47.14567 36.41561
#
# Velocity S-wave (km/s) = 3.11068 4.21437 3.70387
# Velocity P-wave (km/s) = 5.02623 7.46983 6.36637
#
# Compressibility (1/GPa) = 0.03047648
#
# Stress axis : x y z
#
# Youngs Moduli (GPa) = 28.40381 123.06333 260.85852
#
# Poissons Ratio (x) = 0.72582 0.14649
# Poissons Ratio (y) = 0.16753 0.49177
# Poissons Ratio (z) = 0.01595 0.23200
#
# Static dielectric constant tensor:
#      x y z
#    x 2.208270 0.000000 0.000000 
#    y 0.000000 2.249000 0.000000 
#    z 0.000000 0.000000 2.372160 
# 
# From -- ./inp_files/38229.got.cif
#   From: 2010.05.17/outbox.cif.g08.bks.cpg/sg68_20_cif.got.tgz:38229.got - 2010.06.03 18:57:09.
