data_PCOD9505862
_publ_section_title
;
Structure prediction by ZEFSAII (Michael W. Deem and Ramdas Pophale) SiO2 
 PCOD9505862
Probable space group: C C C A
;
_chemical_formula_sum "Si O2"
_cell_formula_units_Z 80
_cell_length_a 13.314625
_cell_length_b 17.874905
_cell_length_c 17.436830
_cell_angle_alpha 90.000000
_cell_angle_beta 90.000000
_cell_angle_gamma 90.000000
_cell_volume 4149.924685
_symmetry_space_group_name_H-M "C C C A"
_symmetry_group_IT_number 68
_space_group.IT_coordinate_system_code '2'
_symmetry_cell_setting 'orthorhombic'
loop_
_space_group_symop_operation_xyz
x,y,z
-x,1/2-y,z
x,1/2-y,1/2-z
-x,y,1/2-z
-x,-y,-z
x,1/2+y,-z
-x,1/2+y,1/2+z
x,-y,1/2+z
1/2+x,1/2+y,z
1/2-x,-y,z
1/2+x,-y,1/2-z
1/2-x,1/2+y,1/2-z
1/2-x,1/2-y,-z
1/2+x,y,-z
1/2-x,y,1/2+z
1/2+x,1/2-y,1/2+z
loop_
_atom_site_type_symbol
_atom_site_label
_atom_site_fract_x
_atom_site_fract_y
_atom_site_fract_z
Si Si1 0.113488 0.423263 0.867997
Si Si2 0.720013 0.916800 0.237192
Si Si3 0.000000 0.524475 0.750000
Si Si4 0.736403 0.150340 0.081276
Si Si5 0.901291 0.214647 0.972326
Si Si6 0.250000 0.500000 0.991813
O O1 0.209342 0.406354 0.811858
O O2 0.028975 0.468459 0.820466
O O3 0.077041 0.346797 0.906756
O O4 0.160221 0.473479 0.935907
O O5 0.599957 0.924541 0.245940
O O6 0.748390 0.859718 0.171175
O O7 0.750000 0.000000 0.209738
O O8 0.659490 0.216061 0.062935
O O9 0.837268 0.175540 0.038119
O O10 0.713141 0.070050 0.042522
O O11 0.000000 0.250000 0.006704
#
# Coordination Sequence:
#
# PCOD9505862 Si02
#       6
#    16  16   8  16  16   8
#     4  10  21  38  61  89 125 153 200 255 303 353
#     4  10  20  38  60  92 119 151 202 254 297 355
#     4  10  20  36  63  93 114 152 200 252 298 358
#     4  10  22  40  61  87 122 156 203 250 297 359
#     4  10  24  41  59  89 123 163 200 244 305 373
#     4  10  18  38  64  84 118 158 192 254 300 338
#
# _framework density 19.277457999999999
#
# number of rings (size 3 to 8) (size 9 to 14) (size 15 to 20)
#    0.000    2.000    4.000    0.000    5.600    2.400 
#    3.600    4.000    0.000    0.000    0.000    0.000 
#    0.000    0.000    0.000    0.000    0.000    0.000 
#
# Total GULP energy -222992.979274 kJ/mol
# GULP energy per Si atom -5574.824482 kJ/mol
# Density = 1.923358 g / cm^3
# Si number density = 19.277458 Si / 1000 Ang^3
#
#
#
# Elastic Constant Matrix: (Units=GPa)
#
#
# Indices 1 2 3 4 5 6 
#
# 1 50.2136 -13.0384 1.3198 0.0000 0.0000 0.0000
# 2 -13.0384 61.5443 14.6983 0.0000 0.0000 0.0000
# 3 1.3198 14.6983 52.4613 0.0000 0.0000 0.0000
# 4 0.0000 0.0000 0.0000 3.3104 0.0000 0.0000
# 5 0.0000 0.0000 0.0000 0.0000 -21.2068 0.0000
# 6 0.0000 0.0000 0.0000 0.0000 0.0000 6.0577
#
#
#
# Elastic Compliance Matrix: (Units=1/GPa)
#
#
# Indices 1 2 3 4 5 6 
#
# 1 0.021254 0.004963 -0.001925 0.000000 0.000000 0.000000
# 2 0.004963 0.018572 -0.005328 0.000000 0.000000 0.000000
# 3 -0.001925 -0.005328 0.020603 0.000000 0.000000 0.000000
# 4 0.000000 0.000000 0.000000 0.302075 0.000000 0.000000
# 5 0.000000 0.000000 0.000000 0.000000 -0.047155 0.000000
# 6 0.000000 0.000000 0.000000 0.000000 0.000000 0.165080
#
#
# Mechanical properties :
#
#
# Convention : Reuss Voigt Hill
#
# Bulk Modulus (GPa) = 17.90589 18.90874 18.40731
# Shear Modulus (GPa) = 9.92797 8.38155 9.15476
#
# Velocity S-wave (km/s) = 2.27183 2.08741 2.18157
# Velocity P-wave (km/s) = 4.02372 3.95471 3.98936
#
# Compressibility (1/GPa) = 0.05584756
#
# Stress axis : x y z
#
# Youngs Moduli (GPa) = 47.04980 53.84354 48.53667
#
# Poissons Ratio (x) = -0.26720 0.09344
# Poissons Ratio (y) = -0.23349 0.25862
# Poissons Ratio (z) = 0.09057 0.28690
#
# Static dielectric constant tensor:
#      x y z
#    x 1.817690 0.000000 0.000000 
#    y 0.000000 1.661400 0.000000 
#    z 0.000000 0.000000 1.668500 
# 
# From -- ./inp_files/31792.got.cif
#   From: 2010.05.17/outbox.cif.g08.bks.cpg/sg68_16_cif.got.tgz:31792.got - 2010.06.03 18:57:09.
