data_PCOD9505520
_publ_section_title
;
Structure prediction by ZEFSAII (Michael W. Deem and Ramdas Pophale) SiO2 
 PCOD9505520
Probable space group: C C C A
;
_chemical_formula_sum "Si O2"
_cell_formula_units_Z 104
_cell_length_a 13.714148
_cell_length_b 19.795326
_cell_length_c 16.656567
_cell_angle_alpha 90.000000
_cell_angle_beta 90.000000
_cell_angle_gamma 90.000000
_cell_volume 4521.858690
_symmetry_space_group_name_H-M "C C C A"
_symmetry_group_IT_number 68
_space_group.IT_coordinate_system_code '2'
_symmetry_cell_setting 'orthorhombic'
loop_
_space_group_symop_operation_xyz
x,y,z
-x,1/2-y,z
x,1/2-y,1/2-z
-x,y,1/2-z
-x,-y,-z
x,1/2+y,-z
-x,1/2+y,1/2+z
x,-y,1/2+z
1/2+x,1/2+y,z
1/2-x,-y,z
1/2+x,-y,1/2-z
1/2-x,1/2+y,1/2-z
1/2-x,1/2-y,-z
1/2+x,y,-z
1/2-x,y,1/2+z
1/2+x,1/2-y,1/2+z
loop_
_atom_site_type_symbol
_atom_site_label
_atom_site_fract_x
_atom_site_fract_y
_atom_site_fract_z
Si Si1 0.632107 0.313687 0.802836
Si Si2 0.865316 0.810119 0.518697
Si Si3 0.882606 0.555568 0.597896
Si Si4 0.000000 0.927439 0.750000
Si Si5 0.365771 0.658475 0.539088
Si Si6 0.164155 0.096143 0.623137
Si Si7 0.136899 0.824000 0.281173
O O1 0.601266 0.250000 0.750000
O O2 0.592868 0.381336 0.765570
O O3 0.748325 0.313223 0.798908
O O4 0.590781 0.315126 0.892909
O O5 0.753331 0.836779 0.534343
O O6 0.885461 0.732788 0.495530
O O7 0.884936 0.852080 0.438869
O O8 0.905796 0.598770 0.517917
O O9 0.854732 0.477638 0.586690
O O10 0.783542 0.595552 0.626876
O O11 0.968372 0.544290 0.663742
O O12 0.400642 0.654311 0.631231
O O13 0.128306 0.119426 0.711617
O O14 0.103598 0.750000 0.250000
#
# Coordination Sequence:
#
# PCOD9505520 Si02
#       7
#    16  16  16   8  16  16  16
#     4  10  20  31  53  88 121 150 192 242 309 368
#     4   9  17  31  55  79 116 149 189 245 297 347
#     4  10  22  36  56  83 124 161 199 244 310 364
#     4  12  21  38  54  84 121 166 192 238 304 388
#     4   9  17  31  54  86 115 146 192 246 298 353
#     4  10  19  38  56  86 118 159 201 257 299 356
#     4  10  17  32  60  93 115 146 202 263 304 350
#
# _framework density 22.999393000000001
#
# number of rings (size 3 to 8) (size 9 to 14) (size 15 to 20)
#    0.000    2.154    3.077    1.154    4.308    0.000 
#    2.769    2.308    0.000    0.000    0.000    0.538 
#    0.000    0.000    0.000    0.000    0.000    0.000 
#
# Total GULP energy -289523.839749 kJ/mol
# GULP energy per Si atom -5567.766149 kJ/mol
# Density = 2.294705 g / cm^3
# Si number density = 22.999393 Si / 1000 Ang^3
#
#
#
# Elastic Constant Matrix: (Units=GPa)
#
#
# Indices 1 2 3 4 5 6 
#
# 1 68.4596 -6.2424 13.8666 0.0000 0.0000 0.0000
# 2 -6.2424 79.2873 68.4063 0.0000 0.0000 0.0000
# 3 13.8666 68.4063 189.8786 0.0000 0.0000 0.0000
# 4 0.0000 0.0000 0.0000 30.7889 0.0000 0.0000
# 5 0.0000 0.0000 0.0000 0.0000 -16.9811 0.0000
# 6 0.0000 0.0000 0.0000 0.0000 0.0000 -22.0284
#
#
#
# Elastic Compliance Matrix: (Units=1/GPa)
#
#
# Indices 1 2 3 4 5 6 
#
# 1 0.015353 0.003157 -0.002259 0.000000 0.000000 0.000000
# 2 0.003157 0.018950 -0.007058 0.000000 0.000000 0.000000
# 3 -0.002259 -0.007058 0.007974 0.000000 0.000000 0.000000
# 4 0.000000 0.000000 0.000000 0.032479 0.000000 0.000000
# 5 0.000000 0.000000 0.000000 0.000000 -0.058889 0.000000
# 6 0.000000 0.000000 0.000000 0.000000 0.000000 -0.045396
#
#
# Mechanical properties :
#
#
# Convention : Reuss Voigt Hill
#
# Bulk Modulus (GPa) = 33.37900 54.40962 43.89431
# Shear Modulus (GPa) = -692.00109 15.79556 -338.10277
#
# Velocity S-wave (km/s) = -17.36465 2.62349 -12.13772
# Velocity P-wave (km/s) = 19.68494 5.73457 13.31563
#
# Compressibility (1/GPa) = 0.02995895
#
# Stress axis : x y z
#
# Youngs Moduli (GPa) = 65.13569 52.77060 125.40681
#
# Poissons Ratio (x) = -0.16662 0.28325
# Poissons Ratio (y) = -0.20566 0.88507
# Poissons Ratio (z) = 0.14712 0.37243
#
# Static dielectric constant tensor:
#      x y z
#    x 2.021610 0.000000 0.000000 
#    y 0.000000 1.813640 0.000000 
#    z 0.000000 0.000000 1.901610 
# 
# From -- ./inp_files/31113.got.cif
#   From: 2010.05.17/outbox.cif.g08.bks.cpg/sg68_16_cif.got.tgz:31113.got - 2010.06.03 18:57:09.
