data_PCOD9505448
_publ_section_title
;
Structure prediction by ZEFSAII (Michael W. Deem and Ramdas Pophale) SiO2 
 PCOD9505448
Probable space group: C C C A
;
_chemical_formula_sum "Si O2"
_cell_formula_units_Z 108
_cell_length_a 20.939086
_cell_length_b 25.076908
_cell_length_c 11.720113
_cell_angle_alpha 90.000000
_cell_angle_beta 90.000000
_cell_angle_gamma 90.000000
_cell_volume 6154.085224
_symmetry_space_group_name_H-M "C C C A"
_symmetry_group_IT_number 68
_space_group.IT_coordinate_system_code '2'
_symmetry_cell_setting 'orthorhombic'
loop_
_space_group_symop_operation_xyz
x,y,z
-x,1/2-y,z
x,1/2-y,1/2-z
-x,y,1/2-z
-x,-y,-z
x,1/2+y,-z
-x,1/2+y,1/2+z
x,-y,1/2+z
1/2+x,1/2+y,z
1/2-x,-y,z
1/2+x,-y,1/2-z
1/2-x,1/2+y,1/2-z
1/2-x,1/2-y,-z
1/2+x,y,-z
1/2-x,y,1/2+z
1/2+x,1/2-y,1/2+z
loop_
_atom_site_type_symbol
_atom_site_label
_atom_site_fract_x
_atom_site_fract_y
_atom_site_fract_z
Si Si1 0.500000 0.250000 0.750000
Si Si2 0.825462 0.011237 0.643612
Si Si3 0.787205 0.750000 0.750000
Si Si4 0.808905 0.907781 0.343155
Si Si5 0.644052 0.604826 0.409877
Si Si6 0.168165 0.596603 0.951539
Si Si7 0.777949 0.336643 0.859668
Si Si8 0.602261 0.667614 0.213002
O O1 0.453388 0.290942 0.815531
O O2 0.829674 0.043094 0.762636
O O3 0.846170 0.048435 0.537746
O O4 0.750000 0.000000 0.626003
O O5 0.860453 0.954887 0.638385
O O6 0.743761 0.723770 0.846877
O O7 0.833033 0.797083 0.792534
O O8 0.853047 0.898994 0.453387
O O9 0.735529 0.915505 0.387261
O O10 0.807750 0.857084 0.258817
O O11 0.714549 0.627150 0.377312
O O12 0.597601 0.645094 0.342894
O O13 0.114431 0.616049 0.864467
O O14 0.179373 0.647372 0.034366
#
# Coordination Sequence:
#
# PCOD9505448 Si02
#       8
#     4  16   8  16  16  16  16  16
#     4  10  24  44  64  68  86 120 180 250 296 302
#     4  11  18  24  43  74 115 159 168 172 230 296
#     4   9  16  29  44  68 102 129 168 195 256 286
#     4  10  17  27  39  70 115 150 166 186 215 305
#     4  10  19  27  45  72 107 142 174 193 232 298
#     4  10  18  28  44  69 107 135 173 201 232 300
#     4   9  17  27  39  68 104 145 162 193 230 298
#     4  10  20  37  51  74  89 125 178 231 266 302
#
# _framework density 17.549318
#
# number of rings (size 3 to 8) (size 9 to 14) (size 15 to 20)
#    0.000    2.074    7.407    0.000    4.148    0.593 
#    5.333    0.000    0.000    0.889    0.000    7.259 
#    0.000    0.000    0.000    0.000    0.000    0.000 
#
# Total GULP energy -300641.826948 kJ/mol
# GULP energy per Si atom -5567.441240 kJ/mol
# Density = 1.750937 g / cm^3
# Si number density = 17.549318 Si / 1000 Ang^3
#
#
#
# Elastic Constant Matrix: (Units=GPa)
#
#
# Indices 1 2 3 4 5 6 
#
# 1 18.8473 5.8358 12.6395 0.0000 0.0000 0.0000
# 2 5.8358 61.1310 35.8290 0.0000 0.0000 0.0000
# 3 12.6395 35.8290 110.2858 0.0000 0.0000 0.0000
# 4 0.0000 0.0000 0.0000 21.7569 0.0000 0.0000
# 5 0.0000 0.0000 0.0000 0.0000 3.5595 0.0000
# 6 0.0000 0.0000 0.0000 0.0000 0.0000 12.6201
#
#
#
# Elastic Compliance Matrix: (Units=1/GPa)
#
#
# Indices 1 2 3 4 5 6 
#
# 1 0.057676 -0.002016 -0.005955 0.000000 0.000000 0.000000
# 2 -0.002016 0.020276 -0.006356 0.000000 0.000000 0.000000
# 3 -0.005955 -0.006356 0.011815 0.000000 0.000000 0.000000
# 4 0.000000 0.000000 0.000000 0.045962 0.000000 0.000000
# 5 0.000000 0.000000 0.000000 0.000000 0.280935 0.000000
# 6 0.000000 0.000000 0.000000 0.000000 0.000000 0.079238
#
#
# Mechanical properties :
#
#
# Convention : Reuss Voigt Hill
#
# Bulk Modulus (GPa) = 16.36323 33.20808 24.78566
# Shear Modulus (GPa) = 9.17554 16.65131 12.91342
#
# Velocity S-wave (km/s) = 2.28906 3.08365 2.71557
# Velocity P-wave (km/s) = 4.04113 5.62515 4.89761
#
# Compressibility (1/GPa) = 0.06111262
#
# Stress axis : x y z
#
# Youngs Moduli (GPa) = 17.33832 49.31918 84.63956
#
# Poissons Ratio (x) = 0.09941 0.50405
# Poissons Ratio (y) = 0.03495 0.53798
# Poissons Ratio (z) = 0.10325 0.31348
#
# Static dielectric constant tensor:
#      x y z
#    x 1.586620 0.000000 0.000000 
#    y 0.000000 1.629270 0.000000 
#    z 0.000000 0.000000 1.653500 
# 
# From -- ./inp_files/16723.got.cif
#   From: 2010.05.17/outbox.cif.g08.bks.cpg/sg68_9_cif.got.tgz:16723.got - 2010.06.03 18:57:09.
