data_PCOD9505690
_publ_section_title
;
Structure prediction by ZEFSAII (Michael W. Deem and Ramdas Pophale) SiO2 
 PCOD9505690
Probable space group: C C C A
;
_chemical_formula_sum "Si O2"
_cell_formula_units_Z 96
_cell_length_a 8.014237
_cell_length_b 28.245983
_cell_length_c 17.555698
_cell_angle_alpha 90.000000
_cell_angle_beta 90.000000
_cell_angle_gamma 90.000000
_cell_volume 3974.083392
_symmetry_space_group_name_H-M "C C C A"
_symmetry_group_IT_number 68
_space_group.IT_coordinate_system_code '2'
_symmetry_cell_setting 'orthorhombic'
loop_
_space_group_symop_operation_xyz
x,y,z
-x,1/2-y,z
x,1/2-y,1/2-z
-x,y,1/2-z
-x,-y,-z
x,1/2+y,-z
-x,1/2+y,1/2+z
x,-y,1/2+z
1/2+x,1/2+y,z
1/2-x,-y,z
1/2+x,-y,1/2-z
1/2-x,1/2+y,1/2-z
1/2-x,1/2-y,-z
1/2+x,y,-z
1/2-x,y,1/2+z
1/2+x,1/2-y,1/2+z
loop_
_atom_site_type_symbol
_atom_site_label
_atom_site_fract_x
_atom_site_fract_y
_atom_site_fract_z
Si Si1 0.437941 0.886176 0.662805
Si Si2 0.311101 0.452388 0.777570
Si Si3 0.218547 0.053580 0.893983
Si Si4 0.191573 0.731013 0.670112
Si Si5 0.410183 0.852103 0.413537
Si Si6 0.218135 0.311774 0.928718
O O1 0.500000 0.882775 0.750000
O O2 0.256317 0.910086 0.672654
O O3 0.543583 0.917970 0.601847
O O4 0.416564 0.835371 0.626878
O O5 0.500000 0.451220 0.750000
O O6 0.250000 0.500000 0.818322
O O7 0.215705 0.452718 0.697386
O O8 0.360480 0.092482 0.913546
O O9 0.250000 0.000000 0.925013
O O10 0.262999 0.750000 0.750000
O O11 0.177200 0.674608 0.658422
O O12 0.271550 0.757687 0.597934
O O13 0.000000 0.750000 0.669529
O O14 0.602334 0.836581 0.414498
O O15 0.334621 0.826783 0.487573
#
# Coordination Sequence:
#
# PCOD9505690 Si02
#       6
#    16  16  16  16  16  16
#     4  10  22  37  60  91 131 165 222 281 322 395
#     4  10  18  32  55  85 121 165 216 273 331 380
#     4  10  21  39  61  89 129 175 222 275 328 390
#     4   9  21  40  68 102 130 167 221 273 330 405
#     4  11  23  42  68  94 135 180 218 271 337 402
#     4  11  23  42  66  97 134 175 216 271 340 399
#
# _framework density 24.156516
#
# number of rings (size 3 to 8) (size 9 to 14) (size 15 to 20)
#    0.000    1.833    0.000    5.000    4.667    0.000 
#    0.000    6.667    0.000    0.000    0.000    0.000 
#    0.000    0.000    0.000    0.000    0.000    0.000 
#
# Total GULP energy -267708.175449 kJ/mol
# GULP energy per Si atom -5577.253655 kJ/mol
# Density = 2.410153 g / cm^3
# Si number density = 24.156516 Si / 1000 Ang^3
#
#
#
# Elastic Constant Matrix: (Units=GPa)
#
#
# Indices 1 2 3 4 5 6 
#
# 1 83.1783 19.5073 -9.3942 0.0000 0.0000 0.0000
# 2 19.5073 137.7881 21.4704 0.0000 0.0000 0.0000
# 3 -9.3942 21.4704 59.9601 0.0000 0.0000 0.0000
# 4 0.0000 0.0000 0.0000 17.2429 0.0000 0.0000
# 5 0.0000 0.0000 0.0000 0.0000 20.2137 0.0000
# 6 0.0000 0.0000 0.0000 0.0000 0.0000 14.3181
#
#
#
# Elastic Compliance Matrix: (Units=1/GPa)
#
#
# Indices 1 2 3 4 5 6 
#
# 1 0.012872 -0.002263 0.002827 0.000000 0.000000 0.000000
# 2 -0.002263 0.008084 -0.003249 0.000000 0.000000 0.000000
# 3 0.002827 -0.003249 0.018284 0.000000 0.000000 0.000000
# 4 0.000000 0.000000 0.000000 0.057995 0.000000 0.000000
# 5 0.000000 0.000000 0.000000 0.000000 0.049471 0.000000
# 6 0.000000 0.000000 0.000000 0.000000 0.000000 0.069842
#
#
# Mechanical properties :
#
#
# Convention : Reuss Voigt Hill
#
# Bulk Modulus (GPa) = 29.52430 38.23262 33.87846
# Shear Modulus (GPa) = 21.43998 26.97782 24.20890
#
# Velocity S-wave (km/s) = 2.98240 3.34547 3.16914
# Velocity P-wave (km/s) = 4.91001 5.54836 5.23892
#
# Compressibility (1/GPa) = 0.03387040
#
# Stress axis : x y z
#
# Youngs Moduli (GPa) = 77.68587 123.69805 54.69209
#
# Poissons Ratio (x) = 0.27992 -0.15462
# Poissons Ratio (y) = 0.17580 0.17771
# Poissons Ratio (z) = -0.21962 0.40193
#
# Static dielectric constant tensor:
#      x y z
#    x 2.108560 0.000000 0.000000 
#    y 0.000000 2.000370 0.000000 
#    z 0.000000 0.000000 1.909760 
# 
# From -- ./inp_files/36467.got.cif
#   From: 2010.05.17/outbox.cif.g08.bks.cpg/sg68_19_cif.got.tgz:36467.got - 2010.06.03 18:57:09.
