data_PCOD9505825
_publ_section_title
;
Structure prediction by ZEFSAII (Michael W. Deem and Ramdas Pophale) SiO2 
 PCOD9505825
Probable space group: C C C A
;
_chemical_formula_sum "Si O2"
_cell_formula_units_Z 96
_cell_length_a 25.789262
_cell_length_b 7.757132
_cell_length_c 20.916516
_cell_angle_alpha 90.000000
_cell_angle_beta 90.000000
_cell_angle_gamma 90.000000
_cell_volume 4184.363866
_symmetry_space_group_name_H-M "C C C A"
_symmetry_group_IT_number 68
_space_group.IT_coordinate_system_code '2'
_symmetry_cell_setting 'orthorhombic'
loop_
_space_group_symop_operation_xyz
x,y,z
-x,1/2-y,z
x,1/2-y,1/2-z
-x,y,1/2-z
-x,-y,-z
x,1/2+y,-z
-x,1/2+y,1/2+z
x,-y,1/2+z
1/2+x,1/2+y,z
1/2-x,-y,z
1/2+x,-y,1/2-z
1/2-x,1/2+y,1/2-z
1/2-x,1/2-y,-z
1/2+x,y,-z
1/2-x,y,1/2+z
1/2+x,1/2-y,1/2+z
loop_
_atom_site_type_symbol
_atom_site_label
_atom_site_fract_x
_atom_site_fract_y
_atom_site_fract_z
Si Si1 0.833783 0.019772 0.805035
Si Si2 0.192505 0.572355 0.934936
Si Si3 0.558158 0.042251 0.242098
Si Si4 0.406043 0.997524 0.401097
Si Si5 0.803190 0.421261 0.836378
Si Si6 0.620002 0.790165 0.986576
O O1 0.811427 0.893121 0.858795
O O2 0.895258 0.991527 0.790568
O O3 0.816393 0.215800 0.826762
O O4 0.810599 0.000459 0.734456
O O5 0.250000 0.500000 0.947061
O O6 0.174035 0.714160 0.984969
O O7 0.142949 0.444864 0.944869
O O8 0.557983 0.250000 0.250000
O O9 0.500000 0.976464 0.250000
O O10 0.570654 0.995651 0.168841
O O11 0.345264 0.012260 0.385845
O O12 0.414636 0.170265 0.441881
O O13 0.412664 0.845629 0.451413
O O14 0.750000 0.500000 0.860528
#
# Coordination Sequence:
#
# PCOD9505825 Si02
#       6
#    16  16  16  16  16  16
#     4  10  19  37  53  82 116 152 200 259 298 359
#     4  11  21  34  53  80 115 162 206 238 288 357
#     4  10  18  36  68  90 110 151 203 257 311 358
#     4  10  20  38  57  88 117 154 196 243 293 353
#     4  10  19  32  53  77 117 154 194 245 295 345
#     4  10  22  35  55  79 124 158 195 240 289 349
#
# _framework density 22.942556
#
# number of rings (size 3 to 8) (size 9 to 14) (size 15 to 20)
#    0.000    1.833    5.000    1.000    2.333    2.667 
#    0.000    2.500    0.000   20.000    0.000    3.500 
#    0.000    0.000    0.000    0.000    0.000    0.000 
#
# Total GULP energy -267595.633518 kJ/mol
# GULP energy per Si atom -5574.909032 kJ/mol
# Density = 2.289034 g / cm^3
# Si number density = 22.942556 Si / 1000 Ang^3
#
#
#
# Elastic Constant Matrix: (Units=GPa)
#
#
# Indices 1 2 3 4 5 6 
#
# 1 106.0729 9.0113 15.9168 0.0000 0.0000 0.0000
# 2 9.0113 25.8154 13.6889 0.0000 0.0000 0.0000
# 3 15.9168 13.6889 95.4633 0.0000 0.0000 0.0000
# 4 0.0000 0.0000 0.0000 31.8135 0.0000 0.0000
# 5 0.0000 0.0000 0.0000 0.0000 -14.4732 0.0000
# 6 0.0000 0.0000 0.0000 0.0000 0.0000 2.3905
#
#
#
# Elastic Compliance Matrix: (Units=1/GPa)
#
#
# Indices 1 2 3 4 5 6 
#
# 1 0.009850 -0.002779 -0.001244 0.000000 0.000000 0.000000
# 2 -0.002779 0.042708 -0.005661 0.000000 0.000000 0.000000
# 3 -0.001244 -0.005661 0.011494 0.000000 0.000000 0.000000
# 4 0.000000 0.000000 0.000000 0.031433 0.000000 0.000000
# 5 0.000000 0.000000 0.000000 0.000000 -0.069093 0.000000
# 6 0.000000 0.000000 0.000000 0.000000 0.000000 0.418328
#
#
# Mechanical properties :
#
#
# Convention : Reuss Voigt Hill
#
# Bulk Modulus (GPa) = 22.37849 33.84286 28.11067
# Shear Modulus (GPa) = 10.43879 16.52847 13.48363
#
# Velocity S-wave (km/s) = 2.13538 2.68699 2.42691
# Velocity P-wave (km/s) = 3.98185 4.94062 4.48692
#
# Compressibility (1/GPa) = 0.04468577
#
# Stress axis : x y z
#
# Youngs Moduli (GPa) = 101.52081 23.41471 86.99928
#
# Poissons Ratio (x) = 0.06506 0.10822
# Poissons Ratio (y) = 0.28211 0.49249
# Poissons Ratio (z) = 0.12628 0.13255
#
# Static dielectric constant tensor:
#      x y z
#    x 1.863870 0.000000 0.000000 
#    y 0.000000 2.075610 0.000000 
#    z 0.000000 0.000000 1.889720 
# 
# From -- ./inp_files/41232.got.cif
#   From: 2010.05.17/outbox.cif.g08.bks.cpg/sg68_21_cif.got.tgz:41232.got - 2010.06.03 18:57:09.
