data_PCOD9505605
_publ_section_title
;
Structure prediction by ZEFSAII (Michael W. Deem and Ramdas Pophale) SiO2 
 PCOD9505605
Probable space group: C C C A
;
_chemical_formula_sum "Si O2"
_cell_formula_units_Z 96
_cell_length_a 8.063669
_cell_length_b 25.376780
_cell_length_c 26.436574
_cell_angle_alpha 90.000000
_cell_angle_beta 90.000000
_cell_angle_gamma 90.000000
_cell_volume 5409.714927
_symmetry_space_group_name_H-M "C C C A"
_symmetry_group_IT_number 68
_space_group.IT_coordinate_system_code '2'
_symmetry_cell_setting 'orthorhombic'
loop_
_space_group_symop_operation_xyz
x,y,z
-x,1/2-y,z
x,1/2-y,1/2-z
-x,y,1/2-z
-x,-y,-z
x,1/2+y,-z
-x,1/2+y,1/2+z
x,-y,1/2+z
1/2+x,1/2+y,z
1/2-x,-y,z
1/2+x,-y,1/2-z
1/2-x,1/2+y,1/2-z
1/2-x,1/2-y,-z
1/2+x,y,-z
1/2-x,y,1/2+z
1/2+x,1/2-y,1/2+z
loop_
_atom_site_type_symbol
_atom_site_label
_atom_site_fract_x
_atom_site_fract_y
_atom_site_fract_z
Si Si1 0.209083 0.128252 0.974710
Si Si2 0.366461 0.951360 0.708633
Si Si3 0.556660 0.489130 0.882312
Si Si4 0.354813 0.608046 0.362902
Si Si5 0.520237 0.312285 0.565716
Si Si6 0.104221 0.565871 0.447702
O O1 0.340980 0.161285 0.943233
O O2 0.054809 0.104274 0.945078
O O3 0.134737 0.164834 0.019869
O O4 0.308480 0.079006 0.999435
O O5 0.500000 0.934879 0.750000
O O6 0.470466 0.975868 0.661675
O O7 0.244874 0.905493 0.688103
O O8 0.250000 0.000000 0.726996
O O9 0.750000 0.500000 0.885844
O O10 0.515298 0.429484 0.867386
O O11 0.461757 0.508294 0.933211
O O12 0.402747 0.665765 0.381948
O O13 0.234696 0.584450 0.406045
O O14 0.500000 0.250000 0.563640
#
# Coordination Sequence:
#
# PCOD9505605 Si02
#       6
#    16  16  16  16  16  16
#     4   9  18  30  46  66  90 128 176 212 241 280
#     4   9  17  30  49  73 100 122 146 181 232 295
#     4  10  18  30  47  67  98 127 150 187 237 292
#     4   9  19  32  45  68  99 126 157 199 239 287
#     4  10  18  31  47  66  95 131 172 214 250 280
#     4   9  17  31  44  62  93 126 158 198 242 283
#
# _framework density 17.745853
#
# number of rings (size 3 to 8) (size 9 to 14) (size 15 to 20)
#    0.000    2.667    0.000    3.500    0.000    0.000 
#    0.000   20.833    0.000    0.000    0.000    0.000 
#    0.000  113.333    0.000    0.000    0.000    0.000 
#
# Total GULP energy -267559.951176 kJ/mol
# GULP energy per Si atom -5574.165649 kJ/mol
# Density = 1.770546 g / cm^3
# Si number density = 17.745853 Si / 1000 Ang^3
#
#
#
# Elastic Constant Matrix: (Units=GPa)
#
#
# Indices 1 2 3 4 5 6 
#
# 1 101.9393 21.3760 18.7395 0.0000 0.0000 0.0000
# 2 21.3760 74.6603 32.2004 0.0000 0.0000 0.0000
# 3 18.7395 32.2004 37.5444 0.0000 0.0000 0.0000
# 4 0.0000 0.0000 0.0000 11.0752 0.0000 0.0000
# 5 0.0000 0.0000 0.0000 0.0000 25.8754 0.0000
# 6 0.0000 0.0000 0.0000 0.0000 0.0000 20.5558
#
#
#
# Elastic Compliance Matrix: (Units=1/GPa)
#
#
# Indices 1 2 3 4 5 6 
#
# 1 0.010871 -0.001226 -0.004375 0.000000 0.000000 0.000000
# 2 -0.001226 0.021395 -0.017738 0.000000 0.000000 0.000000
# 3 -0.004375 -0.017738 0.044032 0.000000 0.000000 0.000000
# 4 0.000000 0.000000 0.000000 0.090292 0.000000 0.000000
# 5 0.000000 0.000000 0.000000 0.000000 0.038647 0.000000
# 6 0.000000 0.000000 0.000000 0.000000 0.000000 0.048648
#
#
# Mechanical properties :
#
#
# Convention : Reuss Voigt Hill
#
# Bulk Modulus (GPa) = 33.75975 39.86397 36.81186
# Shear Modulus (GPa) = 16.10642 20.95649 18.53146
#
# Velocity S-wave (km/s) = 3.01593 3.44018 3.23502
# Velocity P-wave (km/s) = 5.58508 6.18809 5.89430
#
# Compressibility (1/GPa) = 0.02962107
#
# Stress axis : x y z
#
# Youngs Moduli (GPa) = 91.98789 46.73951 22.71080
#
# Poissons Ratio (x) = 0.05729 0.09936
# Poissons Ratio (y) = 0.11275 0.40284
# Poissons Ratio (z) = 0.40243 0.82907
#
# Static dielectric constant tensor:
#      x y z
#    x 1.622780 0.000000 0.000000 
#    y 0.000000 1.601220 0.000000 
#    z 0.000000 0.000000 1.645190 
# 
# From -- ./inp_files/49543.got.cif
#   From: 2010.05.17/outbox.cif.g08.bks.cpg/sg68_25_cif.got.tgz:49543.got - 2010.06.03 18:57:09.
