data_PCOD9505373
_publ_section_title
;
Structure prediction by ZEFSAII (Michael W. Deem and Ramdas Pophale) SiO2 
 PCOD9505373
Probable space group: C C C A
;
_chemical_formula_sum "Si O2"
_cell_formula_units_Z 64
_cell_length_a 22.952528
_cell_length_b 8.903216
_cell_length_c 13.069231
_cell_angle_alpha 90.000000
_cell_angle_beta 90.000000
_cell_angle_gamma 90.000000
_cell_volume 2670.714535
_symmetry_space_group_name_H-M "C C C A"
_symmetry_group_IT_number 68
_space_group.IT_coordinate_system_code '2'
_symmetry_cell_setting 'orthorhombic'
loop_
_space_group_symop_operation_xyz
x,y,z
-x,1/2-y,z
x,1/2-y,1/2-z
-x,y,1/2-z
-x,-y,-z
x,1/2+y,-z
-x,1/2+y,1/2+z
x,-y,1/2+z
1/2+x,1/2+y,z
1/2-x,-y,z
1/2+x,-y,1/2-z
1/2-x,1/2+y,1/2-z
1/2-x,1/2-y,-z
1/2+x,y,-z
1/2-x,y,1/2+z
1/2+x,1/2-y,1/2+z
loop_
_atom_site_type_symbol
_atom_site_label
_atom_site_fract_x
_atom_site_fract_y
_atom_site_fract_z
Si Si1 0.064035 0.172618 0.149795
Si Si2 0.989461 0.425927 0.888528
Si Si3 0.866885 0.618384 0.440930
Si Si4 0.790305 0.623286 0.052687
O O1 0.090087 0.250000 0.250000
O O2 0.000000 0.250000 0.132946
O O3 0.104707 0.172274 0.050473
O O4 0.041387 0.004823 0.172634
O O5 0.920425 0.444816 0.876461
O O6 0.000000 0.250000 0.887254
O O7 0.000000 0.500000 0.000000
O O8 0.837221 0.767497 0.394296
O O9 0.823399 0.483528 0.470843
O O10 0.750000 0.500000 0.110648
O O11 0.750000 0.750000 0.000000
#
# Coordination Sequence:
#
# PCOD9505373 Si02
#       4
#    16  16  16  16
#     4  10  20  33  49  75 113 151 182 217 269 343
#     4  10  18  30  53  83 107 137 185 230 272 333
#     4  10  16  30  52  75 104 140 176 223 285 327
#     4   9  18  29  48  79 104 125 171 241 285 313
#
# _framework density 23.963625
#
# number of rings (size 3 to 8) (size 9 to 14) (size 15 to 20)
#    0.000    2.250    0.000    7.500    0.000    0.000 
#    0.000    2.500    0.000    4.500    0.000    7.000 
#    0.000    0.000    0.000    0.000    0.000    0.000 
#
# Total GULP energy -178345.864776 kJ/mol
# GULP energy per Si atom -5573.308274 kJ/mol
# Density = 2.390908 g / cm^3
# Si number density = 23.963625 Si / 1000 Ang^3
#
#
#
# Elastic Constant Matrix: (Units=GPa)
#
#
# Indices 1 2 3 4 5 6 
#
# 1 102.2232 49.1777 18.7792 0.0000 0.0000 0.0000
# 2 49.1777 176.2136 17.5603 0.0000 0.0000 0.0000
# 3 18.7792 17.5603 89.3944 0.0000 0.0000 0.0000
# 4 0.0000 0.0000 0.0000 11.4821 0.0000 0.0000
# 5 0.0000 0.0000 0.0000 0.0000 9.2097 0.0000
# 6 0.0000 0.0000 0.0000 0.0000 0.0000 70.9241
#
#
#
# Elastic Compliance Matrix: (Units=1/GPa)
#
#
# Indices 1 2 3 4 5 6 
#
# 1 0.011587 -0.003051 -0.001835 0.000000 0.000000 0.000000
# 2 -0.003051 0.006592 -0.000654 0.000000 0.000000 0.000000
# 3 -0.001835 -0.000654 0.011700 0.000000 0.000000 0.000000
# 4 0.000000 0.000000 0.000000 0.087092 0.000000 0.000000
# 5 0.000000 0.000000 0.000000 0.000000 0.108581 0.000000
# 6 0.000000 0.000000 0.000000 0.000000 0.000000 0.014100
#
#
# Mechanical properties :
#
#
# Convention : Reuss Voigt Hill
#
# Bulk Modulus (GPa) = 53.19213 59.87395 56.53304
# Shear Modulus (GPa) = 19.45541 37.14412 28.29976
#
# Velocity S-wave (km/s) = 2.85243 3.94130 3.44022
# Velocity P-wave (km/s) = 5.75271 6.76398 6.27874
#
# Compressibility (1/GPa) = 0.01879977
#
# Stress axis : x y z
#
# Youngs Moduli (GPa) = 86.30105 151.70932 85.46797
#
# Poissons Ratio (x) = 0.46286 0.15682
# Poissons Ratio (y) = 0.26330 0.05589
# Poissons Ratio (z) = 0.15835 0.09920
#
# Static dielectric constant tensor:
#      x y z
#    x 2.016630 0.000000 0.000000 
#    y 0.000000 2.049330 0.000000 
#    z 0.000000 0.000000 2.122180 
# 
# From -- ./inp_files/24988.got.cif
#   From: 2010.05.17/outbox.cif.g08.bks.cpg/sg68_13_cif.got.tgz:24988.got - 2010.06.03 18:57:09.
