data_PCOD9505956
_publ_section_title
;
Structure prediction by ZEFSAII (Michael W. Deem and Ramdas Pophale) SiO2 
 PCOD9505956
Probable space group: C C C A
;
_chemical_formula_sum "Si O2"
_cell_formula_units_Z 88
_cell_length_a 19.819271
_cell_length_b 7.351895
_cell_length_c 25.419749
_cell_angle_alpha 90.000000
_cell_angle_beta 90.000000
_cell_angle_gamma 90.000000
_cell_volume 3703.891275
_symmetry_space_group_name_H-M "C C C A"
_symmetry_group_IT_number 68
_space_group.IT_coordinate_system_code '2'
_symmetry_cell_setting 'orthorhombic'
loop_
_space_group_symop_operation_xyz
x,y,z
-x,1/2-y,z
x,1/2-y,1/2-z
-x,y,1/2-z
-x,-y,-z
x,1/2+y,-z
-x,1/2+y,1/2+z
x,-y,1/2+z
1/2+x,1/2+y,z
1/2-x,-y,z
1/2+x,-y,1/2-z
1/2-x,1/2+y,1/2-z
1/2-x,1/2-y,-z
1/2+x,y,-z
1/2-x,y,1/2+z
1/2+x,1/2-y,1/2+z
loop_
_atom_site_type_symbol
_atom_site_label
_atom_site_fract_x
_atom_site_fract_y
_atom_site_fract_z
Si Si1 0.559071 0.362599 0.077043
Si Si2 0.500000 0.750000 0.391328
Si Si3 0.245492 0.723569 0.334306
Si Si4 0.213430 0.187764 0.552498
Si Si5 0.393459 0.267514 0.808254
Si Si6 0.600707 0.799643 0.807554
O O1 0.500000 0.250000 0.049109
O O2 0.533641 0.573260 0.080921
O O3 0.632823 0.342059 0.050606
O O4 0.568947 0.263094 0.134751
O O5 0.559163 0.679951 0.352091
O O6 0.250000 0.500000 0.330686
O O7 0.233588 0.789697 0.394100
O O8 0.316151 0.794085 0.312596
O O9 0.176471 0.777866 0.306403
O O10 0.250000 0.250000 0.500000
O O11 0.250000 0.000000 0.562849
O O12 0.420681 0.250000 0.750000
O O13 0.394403 0.483840 0.814952
O O14 0.571382 0.750000 0.750000
#
# Coordination Sequence:
#
# PCOD9505956 Si02
#       6
#    16   8  16  16  16  16
#     4  10  23  43  68  96 135 180 220 277 342 413
#     4  10  21  38  60  90 134 180 218 258 338 405
#     4   8  16  34  57  80 119 163 209 267 333 384
#     4  10  21  45  72  96 127 168 224 285 353 413
#     4  10  19  31  52  84 123 170 216 260 313 394
#     4   9  18  32  55  86 122 170 213 265 316 382
#
# _framework density 23.758797000000001
#
# number of rings (size 3 to 8) (size 9 to 14) (size 15 to 20)
#    0.000    2.545    0.000    4.091    2.545    0.364 
#    6.545    0.909    2.000    0.000    0.000    0.000 
#    0.000    0.000    0.000    0.000    0.000    0.000 
#
# Total GULP energy -245163.352377 kJ/mol
# GULP energy per Si atom -5571.894372 kJ/mol
# Density = 2.370472 g / cm^3
# Si number density = 23.758797 Si / 1000 Ang^3
#
#
#
# Elastic Constant Matrix: (Units=GPa)
#
#
# Indices 1 2 3 4 5 6 
#
# 1 218.1876 34.2410 46.7879 0.0000 0.0000 0.0000
# 2 34.2410 89.4322 10.9120 0.0000 0.0000 0.0000
# 3 46.7879 10.9120 97.5208 0.0000 0.0000 0.0000
# 4 0.0000 0.0000 0.0000 69.7964 0.0000 0.0000
# 5 0.0000 0.0000 0.0000 0.0000 -169.4055 0.0000
# 6 0.0000 0.0000 0.0000 0.0000 0.0000 -9.4167
#
#
#
# Elastic Compliance Matrix: (Units=1/GPa)
#
#
# Indices 1 2 3 4 5 6 
#
# 1 0.005371 -0.001766 -0.002379 0.000000 0.000000 0.000000
# 2 -0.001766 0.011917 -0.000486 0.000000 0.000000 0.000000
# 3 -0.002379 -0.000486 0.011450 0.000000 0.000000 0.000000
# 4 0.000000 0.000000 0.000000 0.014327 0.000000 0.000000
# 5 0.000000 0.000000 0.000000 0.000000 -0.005903 0.000000
# 6 0.000000 0.000000 0.000000 0.000000 0.000000 -0.106194
#
#
# Mechanical properties :
#
#
# Convention : Reuss Voigt Hill
#
# Bulk Modulus (GPa) = 51.34711 65.44692 58.39702
# Shear Modulus (GPa) = -93.84709 -0.92519 -47.38614
#
# Velocity S-wave (km/s) = -6.29172 -0.62470 -4.47079
# Velocity P-wave (km/s) = 5.57872 5.20441 1.42062
#
# Compressibility (1/GPa) = 0.01947529
#
# Stress axis : x y z
#
# Youngs Moduli (GPa) = 186.20227 83.91304 87.33605
#
# Poissons Ratio (x) = 0.14818 0.20778
# Poissons Ratio (y) = 0.32882 0.04246
# Poissons Ratio (z) = 0.44298 0.04080
#
# Static dielectric constant tensor:
#      x y z
#    x 1.895240 0.000000 0.000000 
#    y 0.000000 2.162840 0.000000 
#    z 0.000000 0.000000 -0.877070 
# 
# From -- ./inp_files/46507.got.cif
#   From: 2010.05.17/outbox.cif.g08.bks.cpg/sg68_24_cif.got.tgz:46507.got - 2010.06.03 18:57:09.
