data_PCOD9505225
_publ_section_title
;
Structure prediction by ZEFSAII (Michael W. Deem and Ramdas Pophale) SiO2 
 PCOD9505225
Probable space group: C M M A
;
_chemical_formula_sum "Si O2"
_cell_formula_units_Z 52
_cell_length_a 9.000000
_cell_length_b 27.000000
_cell_length_c 21.000000
_cell_angle_alpha 90.000000
_cell_angle_beta 90.000000
_cell_angle_gamma 90.000000
_cell_volume 5103.000000
_symmetry_space_group_name_H-M "C M M A"
_symmetry_group_IT_number 67
_symmetry_cell_setting 'orthorhombic'
loop_
_space_group_symop_operation_xyz
x,y,z
-x,1/2-y,z
x,-y,-z
-x,1/2+y,-z
-x,-y,-z
x,1/2+y,-z
-x,y,z
x,1/2-y,z
1/2+x,1/2+y,z
1/2-x,-y,z
1/2+x,1/2-y,-z
1/2-x,y,-z
1/2-x,1/2-y,-z
1/2+x,y,-z
1/2-x,1/2+y,z
1/2+x,-y,z
loop_
_atom_site_type_symbol
_atom_site_label
_atom_site_fract_x
_atom_site_fract_y
_atom_site_fract_z
Si Si1 0.824711 0.750000 0.567652
Si Si2 0.324482 0.913233 0.935638
Si Si3 0.669779 0.157134 0.760535
Si Si4 0.179111 0.051230 0.570354
Si Si5 0.323608 0.305251 0.114768
Si Si6 0.829977 0.546394 0.810711
Si Si7 0.673688 0.842932 0.632189
O O1 0.750000 0.750000 0.500000
O O2 0.769003 0.800473 0.599463
O O3 0.000000 0.750000 0.564378
O O4 0.500000 0.920124 0.937163
O O5 0.294245 0.854028 0.927301
O O6 0.255640 0.941192 0.875704
O O7 0.250000 0.930805 0.000000
O O8 0.500000 0.171104 0.743442
O O9 0.723768 0.185956 0.822961
O O10 0.671288 0.098247 0.773949
O O11 0.788701 0.164527 0.705739
O O12 0.250000 0.057651 0.500000
O O13 0.212280 0.101188 0.609824
O O14 0.000000 0.045957 0.566013
O O15 0.250000 0.000000 0.596146
O O16 0.500000 0.307462 0.130982
O O17 0.294977 0.250000 0.088203
O O18 0.750000 0.500000 0.778163
O O19 0.000000 0.533184 0.823800
O O20 0.500000 0.835509 0.618367
#
# Coordination Sequence:
#
# PCOD9505225 Si02
#       7
#     8  16  16  16  16  16  16
#     4  12  26  44  66  92 124 162 203 250 303 358
#     4  10  20  35  55  81 113 147 188 235 286 344
#     4  10  22  38  57  84 115 148 188 237 287 339
#     4  10  21  37  60  87 116 152 192 237 290 345
#     4   9  19  36  57  79 108 148 187 230 284 341
#     4  10  21  38  59  83 113 150 192 238 292 348
#     4  11  24  41  62  89 121 160 202 245 296 355
#
# _framework density 10.190084000000001
#
# number of rings (size 3 to 8) (size 9 to 14) (size 15 to 20)
#    0.000    1.846    0.000    3.923    1.077    7.692 
#    0.000    4.615    0.000    0.000    0.000    0.000 
#    0.000    0.000    0.000    0.000    0.000    0.000 
#
# Total GULP energy -290333.181113 kJ/mol
# GULP energy per Si atom -5583.330406 kJ/mol
# Density = 1.016689 g / cm^3
# Si number density = 10.190084 Si / 1000 Ang^3
#
#
#
# Elastic Constant Matrix: (Units=GPa)
#
#
# Indices 1 2 3 4 5 6 
#
# 1 97.7125 43.6979 29.7300 0.0000 0.0000 0.0000
# 2 43.6979 76.2069 -2.7493 0.0000 0.0000 0.0000
# 3 29.7300 -2.7493 43.2110 0.0000 0.0000 0.0000
# 4 0.0000 0.0000 0.0000 -10.5581 0.0000 0.0000
# 5 0.0000 0.0000 0.0000 0.0000 21.6904 0.0000
# 6 0.0000 0.0000 0.0000 0.0000 0.0000 33.2902
#
#
#
# Elastic Compliance Matrix: (Units=1/GPa)
#
#
# Indices 1 2 3 4 5 6 
#
# 1 0.020031 -0.012011 -0.014546 0.000000 0.000000 0.000000
# 2 -0.012011 0.020354 0.009559 0.000000 0.000000 0.000000
# 3 -0.014546 0.009559 0.033758 0.000000 0.000000 0.000000
# 4 0.000000 0.000000 0.000000 -0.094714 0.000000 0.000000
# 5 0.000000 0.000000 0.000000 0.000000 0.046103 0.000000
# 6 0.000000 0.000000 0.000000 0.000000 0.000000 0.030039
#
#
# Mechanical properties :
#
#
# Convention : Reuss Voigt Hill
#
# Bulk Modulus (GPa) = 24.90818 39.83196 32.37007
# Shear Modulus (GPa) = 48.56691 18.64799 33.60745
#
# Velocity S-wave (km/s) = 4.88694 3.02819 4.06523
# Velocity P-wave (km/s) = 6.64012 5.64034 6.16055
#
# Compressibility (1/GPa) = 0.04014745
#
# Stress axis : x y z
#
# Youngs Moduli (GPa) = 49.92185 49.12982 29.62224
#
# Poissons Ratio (x) = 0.59010 0.43089
# Poissons Ratio (y) = 0.59961 -0.28315
# Poissons Ratio (z) = 0.72617 -0.46962
#
# Static dielectric constant tensor:
#      x y z
#    x 1.686920 0.000000 0.000000 
#    y 0.000000 1.739770 0.000000 
#    z 0.000000 0.000000 1.699510 
# 
# From -- ./inp_files/37322.got.cif
#   From: 2010.05.17/outbox.ucp.g08.bks.cvg/sg67_19_cif.got.tgz:37322.got - 2010.06.11 16:47:20.
