data_PCOD9505015
_publ_section_title
;
Structure prediction by ZEFSAII (Michael W. Deem and Ramdas Pophale) SiO2 
 PCOD9505015
Probable space group: C M M A
;
_chemical_formula_sum "Si O2"
_cell_formula_units_Z 56
_cell_length_a 9.023565
_cell_length_b 15.422102
_cell_length_c 20.183802
_cell_angle_alpha 90.000000
_cell_angle_beta 90.000000
_cell_angle_gamma 90.000000
_cell_volume 2808.825113
_symmetry_space_group_name_H-M "C M M A"
_symmetry_group_IT_number 67
_symmetry_cell_setting 'orthorhombic'
loop_
_space_group_symop_operation_xyz
x,y,z
-x,1/2-y,z
x,-y,-z
-x,1/2+y,-z
-x,-y,-z
x,1/2+y,-z
-x,y,z
x,1/2-y,z
1/2+x,1/2+y,z
1/2-x,-y,z
1/2+x,1/2-y,-z
1/2-x,y,-z
1/2-x,1/2-y,-z
1/2+x,y,-z
1/2-x,1/2+y,z
1/2+x,-y,z
loop_
_atom_site_type_symbol
_atom_site_label
_atom_site_fract_x
_atom_site_fract_y
_atom_site_fract_z
Si Si1 0.320877 0.250000 0.927146
Si Si2 0.829603 0.356055 0.432998
Si Si3 0.324478 0.352665 0.298898
Si Si4 0.178812 0.590136 0.151128
O O1 0.500000 0.250000 0.929282
O O2 0.257329 0.332963 0.888332
O O3 0.250000 0.250000 0.000000
O O4 0.820628 0.250000 0.432505
O O5 0.750000 0.385395 0.500000
O O6 0.757599 0.385525 0.364221
O O7 0.000000 0.380946 0.435145
O O8 0.500000 0.360046 0.310245
O O9 0.290533 0.250000 0.290865
O O10 0.288648 0.397147 0.229416
O O11 0.250000 0.500000 0.129130
O O12 0.000000 0.592940 0.142713
#
# Coordination Sequence:
#
# PCOD9505015 Si02
#       4
#     8  16  16  16
#     4  12  26  46  72 100 131 168 207 254 308 370
#     4   9  16  25  41  70 107 148 198 252 306 366
#     4   9  17  32  54  79 114 158 201 251 308 365
#     4  11  23  42  66  97 132 169 211 258 311 371
#
# _framework density 19.937162000000001
#
# number of rings (size 3 to 8) (size 9 to 14) (size 15 to 20)
#    0.000    2.000    1.429    3.000    0.000    6.286 
#    0.000    2.857    0.000    0.857    0.000    6.000 
#    0.000    0.000    0.000    0.000    0.000    0.000 
#
# Total GULP energy -156461.928162 kJ/mol
# GULP energy per Si atom -5587.926006 kJ/mol
# Density = 1.989178 g / cm^3
# Si number density = 19.937162 Si / 1000 Ang^3
#
#
#
# Elastic Constant Matrix: (Units=GPa)
#
#
# Indices 1 2 3 4 5 6 
#
# 1 112.5065 70.3253 94.8627 0.0000 0.0000 0.0000
# 2 70.3253 111.6331 65.3629 0.0000 0.0000 0.0000
# 3 94.8627 65.3629 150.2574 0.0000 0.0000 0.0000
# 4 0.0000 0.0000 0.0000 -19.4331 0.0000 0.0000
# 5 0.0000 0.0000 0.0000 0.0000 39.6981 0.0000
# 6 0.0000 0.0000 0.0000 0.0000 0.0000 17.9660
#
#
#
# Elastic Compliance Matrix: (Units=1/GPa)
#
#
# Indices 1 2 3 4 5 6 
#
# 1 0.023548 -0.008225 -0.011289 0.000000 0.000000 0.000000
# 2 -0.008225 0.014892 -0.001286 0.000000 0.000000 0.000000
# 3 -0.011289 -0.001286 0.014341 0.000000 0.000000 0.000000
# 4 0.000000 0.000000 0.000000 -0.051459 0.000000 0.000000
# 5 0.000000 0.000000 0.000000 0.000000 0.025190 0.000000
# 6 0.000000 0.000000 0.000000 0.000000 0.000000 0.055661
#
#
# Mechanical properties :
#
#
# Convention : Reuss Voigt Hill
#
# Bulk Modulus (GPa) = 89.41969 92.83319 91.12644
# Shear Modulus (GPa) = 39.21601 17.23596 28.22599
#
# Velocity S-wave (km/s) = 4.43988 2.94345 3.76672
# Velocity P-wave (km/s) = 8.43987 7.62993 8.04510
#
# Compressibility (1/GPa) = 0.01118322
#
# Stress axis : x y z
#
# Youngs Moduli (GPa) = 42.46673 67.15065 69.72774
#
# Poissons Ratio (x) = 0.55229 0.78714
# Poissons Ratio (y) = 0.34927 0.08964
# Poissons Ratio (z) = 0.47940 0.08633
#
# Static dielectric constant tensor:
#      x y z
#    x 1.666390 0.000000 0.000000 
#    y 0.000000 1.757120 0.000000 
#    z 0.000000 0.000000 1.690350 
# 
# From -- ./inp_files/31603.got.cif
#   From: 2010.05.17/outbox.cif.g08.bks.cpg/sg67_16_cif.got.tgz:31603.got - 2010.06.03 18:28:57.
