data_PCOD9505028
_publ_section_title
;
Structure prediction by ZEFSAII (Michael W. Deem and Ramdas Pophale) SiO2 
 PCOD9505028
Probable space group: C M M A
;
_chemical_formula_sum "Si O2"
_cell_formula_units_Z 48
_cell_length_a 11.617649
_cell_length_b 14.050019
_cell_length_c 14.085704
_cell_angle_alpha 90.000000
_cell_angle_beta 90.000000
_cell_angle_gamma 90.000000
_cell_volume 2299.183957
_symmetry_space_group_name_H-M "C M M A"
_symmetry_group_IT_number 67
_symmetry_cell_setting 'orthorhombic'
loop_
_space_group_symop_operation_xyz
x,y,z
-x,1/2-y,z
x,-y,-z
-x,1/2+y,-z
-x,-y,-z
x,1/2+y,-z
-x,y,z
x,1/2-y,z
1/2+x,1/2+y,z
1/2-x,-y,z
1/2+x,1/2-y,-z
1/2-x,y,-z
1/2-x,1/2-y,-z
1/2+x,y,-z
1/2-x,1/2+y,z
1/2+x,-y,z
loop_
_atom_site_type_symbol
_atom_site_label
_atom_site_fract_x
_atom_site_fract_y
_atom_site_fract_z
Si Si1 0.500000 0.579371 0.086359
Si Si2 0.238560 0.887661 0.609297
Si Si3 0.867395 0.250000 0.739409
Si Si4 0.820955 0.750000 0.906709
Si Si5 0.000000 0.641021 0.716797
O O1 0.392307 0.651631 0.083777
O O2 0.500000 0.558960 0.201140
O O3 0.500000 0.500000 0.000000
O O4 0.250000 0.857387 0.500000
O O5 0.336671 0.839369 0.672784
O O6 0.114325 0.863876 0.653843
O O7 0.250000 0.000000 0.612576
O O8 0.769737 0.250000 0.820577
O O9 0.000000 0.250000 0.772039
O O10 0.750000 0.750000 0.000000
O O11 0.000000 0.750000 0.759578
#
# Coordination Sequence:
#
# PCOD9505028 Si02
#       5
#     8  16   8   8   8
#     4  11  23  46  76 102 132 190 238 296 359 428
#     4  11  26  43  69 106 146 192 242 298 358 432
#     4  12  26  46  72 104 147 188 241 301 358 431
#     4  11  25  49  68 102 143 175 236 302 365 422
#     4  12  22  48  76  97 149 194 242 299 363 431
#
# _framework density 20.876971999999999
#
# number of rings (size 3 to 8) (size 9 to 14) (size 15 to 20)
#    0.000    0.667    6.667    0.500    7.000    4.667 
#    0.000    0.000    0.000    0.000    0.000    0.000 
#    0.000    0.000    0.000    0.000    0.000    0.000 
#
# Total GULP energy -133813.026832 kJ/mol
# GULP energy per Si atom -5575.542785 kJ/mol
# Density = 2.082946 g / cm^3
# Si number density = 20.876972 Si / 1000 Ang^3
#
#
#
# Elastic Constant Matrix: (Units=GPa)
#
#
# Indices 1 2 3 4 5 6 
#
# 1 148.8080 40.0767 62.9793 0.0000 0.0000 0.0000
# 2 40.0767 132.5413 59.3838 0.0000 0.0000 0.0000
# 3 62.9793 59.3838 170.6684 0.0000 0.0000 0.0000
# 4 0.0000 0.0000 0.0000 29.2117 0.0000 0.0000
# 5 0.0000 0.0000 0.0000 0.0000 35.5303 0.0000
# 6 0.0000 0.0000 0.0000 0.0000 0.0000 -22.6664
#
#
#
# Elastic Compliance Matrix: (Units=1/GPa)
#
#
# Indices 1 2 3 4 5 6 
#
# 1 0.008155 -0.001324 -0.002549 0.000000 0.000000 0.000000
# 2 -0.001324 0.009153 -0.002696 0.000000 0.000000 0.000000
# 3 -0.002549 -0.002696 0.007738 0.000000 0.000000 0.000000
# 4 0.000000 0.000000 0.000000 0.034233 0.000000 0.000000
# 5 0.000000 0.000000 0.000000 0.000000 0.028145 0.000000
# 6 0.000000 0.000000 0.000000 0.000000 0.000000 -0.044118
#
#
# Mechanical properties :
#
#
# Convention : Reuss Voigt Hill
#
# Bulk Modulus (GPa) = 83.97364 86.32191 85.14777
# Shear Modulus (GPa) = 82.76260 27.72031 55.24146
#
# Velocity S-wave (km/s) = 6.30310 3.64784 5.14955
# Velocity P-wave (km/s) = 9.65829 7.69286 8.73105
#
# Compressibility (1/GPa) = 0.01190850
#
# Stress axis : x y z
#
# Youngs Moduli (GPa) = 122.61886 109.25151 129.23211
#
# Poissons Ratio (x) = 0.14465 0.32938
# Poissons Ratio (y) = 0.16235 0.34844
# Poissons Ratio (z) = 0.31253 0.29457
#
# Static dielectric constant tensor:
#      x y z
#    x 1.733870 0.000000 0.000000 
#    y 0.000000 1.649000 0.000000 
#    z 0.000000 0.000000 1.799330 
# 
# From -- ./inp_files/25509.got.cif
#   From: 2010.05.17/outbox.cif.g08.bks.cpg/sg67_13_cif.got.tgz:25509.got - 2010.06.03 18:28:57.
