data_PCOD9505973
_publ_section_title
;
Structure prediction by ZEFSAII (Michael W. Deem and Ramdas Pophale) SiO2 
 PCOD9505973
Probable space group: C C C A
;
_chemical_formula_sum "Si O2"
_cell_formula_units_Z 64
_cell_length_a 35.548119
_cell_length_b 5.247314
_cell_length_c 14.108728
_cell_angle_alpha 90.000000
_cell_angle_beta 90.000000
_cell_angle_gamma 90.000000
_cell_volume 2631.731262
_symmetry_space_group_name_H-M "C C C A"
_symmetry_group_IT_number 68
_space_group.IT_coordinate_system_code '2'
_symmetry_cell_setting 'orthorhombic'
loop_
_space_group_symop_operation_xyz
x,y,z
-x,1/2-y,z
x,1/2-y,1/2-z
-x,y,1/2-z
-x,-y,-z
x,1/2+y,-z
-x,1/2+y,1/2+z
x,-y,1/2+z
1/2+x,1/2+y,z
1/2-x,-y,z
1/2+x,-y,1/2-z
1/2-x,1/2+y,1/2-z
1/2-x,1/2-y,-z
1/2+x,y,-z
1/2-x,y,1/2+z
1/2+x,1/2-y,1/2+z
loop_
_atom_site_type_symbol
_atom_site_label
_atom_site_fract_x
_atom_site_fract_y
_atom_site_fract_z
Si Si1 0.226917 0.753262 0.365526
Si Si2 0.982642 0.993249 0.894682
Si Si3 0.858656 0.745235 0.365595
Si Si4 0.901830 0.265502 0.135649
O O1 0.224923 0.750000 0.250000
O O2 0.250000 0.500000 0.392096
O O3 0.184020 0.788871 0.398464
O O4 0.250000 0.000000 0.393695
O O5 0.939154 0.913351 0.900257
O O6 0.000000 0.750000 0.845616
O O7 0.000000 0.250000 0.852061
O O8 0.000000 0.000000 0.000000
O O9 0.859218 0.750000 0.250000
O O10 0.888120 0.519107 0.393306
O O11 0.870070 0.031935 0.391290
O O12 0.906118 0.250000 0.250000
#
# Coordination Sequence:
#
# PCOD9505973 Si02
#       4
#    16  16  16  16
#     4   9  15  23  37  59  90 132 174 204 238 291
#     4  10  21  37  55  74  98 133 170 218 272 321
#     4   9  17  28  43  66  98 134 172 211 251 301
#     4  10  19  32  49  71  99 133 171 212 261 315
#
# _framework density 24.31859
#
# number of rings (size 3 to 8) (size 9 to 14) (size 15 to 20)
#    0.000    2.500    0.000    3.000    0.000    6.500 
#    0.000    1.250    0.000    0.000    0.000    0.000 
#    0.000    0.000    0.000  315.000    0.000  140.000 
#
# Total GULP energy -178519.899573 kJ/mol
# GULP energy per Si atom -5578.746862 kJ/mol
# Density = 2.426324 g / cm^3
# Si number density = 24.318590 Si / 1000 Ang^3
#
#
#
# Elastic Constant Matrix: (Units=GPa)
#
#
# Indices 1 2 3 4 5 6 
#
# 1 177.7414 70.9418 14.2471 0.0000 0.0000 0.0000
# 2 70.9418 233.8171 5.2077 0.0000 0.0000 0.0000
# 3 14.2471 5.2077 113.6421 0.0000 0.0000 0.0000
# 4 0.0000 0.0000 0.0000 -50.9650 0.0000 0.0000
# 5 0.0000 0.0000 0.0000 0.0000 11.6983 0.0000
# 6 0.0000 0.0000 0.0000 0.0000 0.0000 53.5978
#
#
#
# Elastic Compliance Matrix: (Units=1/GPa)
#
#
# Indices 1 2 3 4 5 6 
#
# 1 0.006460 -0.001944 -0.000721 0.000000 0.000000 0.000000
# 2 -0.001944 0.004866 0.000021 0.000000 0.000000 0.000000
# 3 -0.000721 0.000021 0.008889 0.000000 0.000000 0.000000
# 4 0.000000 0.000000 0.000000 -0.019621 0.000000 0.000000
# 5 0.000000 0.000000 0.000000 0.000000 0.085482 0.000000
# 6 0.000000 0.000000 0.000000 0.000000 0.000000 0.018657
#
#
# Mechanical properties :
#
#
# Convention : Reuss Voigt Hill
#
# Bulk Modulus (GPa) = 66.99260 78.44375 72.71818
# Shear Modulus (GPa) = 43.47939 31.85315 37.66627
#
# Velocity S-wave (km/s) = 4.23295 3.62308 3.93983
# Velocity P-wave (km/s) = 7.17623 7.05897 7.11784
#
# Compressibility (1/GPa) = 0.01492702
#
# Stress axis : x y z
#
# Youngs Moduli (GPa) = 154.80383 205.50013 112.49901
#
# Poissons Ratio (x) = 0.39947 0.08109
# Poissons Ratio (y) = 0.30092 -0.00233
# Poissons Ratio (z) = 0.11158 -0.00425
#
# Static dielectric constant tensor:
#      x y z
#    x 2.034100 0.000000 0.000000 
#    y 0.000000 1.878340 0.000000 
#    z 0.000000 0.000000 1.946050 
# 
# From -- ./inp_files/41473.got.cif
#   From: 2010.05.17/outbox.cif.g08.bks.cpg/sg68_21_cif.got.tgz:41473.got - 2010.06.03 18:57:09.
