data_PCOD9505335
_publ_section_title
;
Structure prediction by ZEFSAII (Michael W. Deem and Ramdas Pophale) SiO2 
 PCOD9505335
Probable space group: C C C A
;
_chemical_formula_sum "Si O2"
_cell_formula_units_Z 68
_cell_length_a 5.637931
_cell_length_b 36.001221
_cell_length_c 13.990230
_cell_angle_alpha 90.000000
_cell_angle_beta 90.000000
_cell_angle_gamma 90.000000
_cell_volume 2839.630558
_symmetry_space_group_name_H-M "C C C A"
_symmetry_group_IT_number 68
_space_group.IT_coordinate_system_code '2'
_symmetry_cell_setting 'orthorhombic'
loop_
_space_group_symop_operation_xyz
x,y,z
-x,1/2-y,z
x,1/2-y,1/2-z
-x,y,1/2-z
-x,-y,-z
x,1/2+y,-z
-x,1/2+y,1/2+z
x,-y,1/2+z
1/2+x,1/2+y,z
1/2-x,-y,z
1/2+x,-y,1/2-z
1/2-x,1/2+y,1/2-z
1/2-x,1/2-y,-z
1/2+x,y,-z
1/2-x,y,1/2+z
1/2+x,1/2-y,1/2+z
loop_
_atom_site_type_symbol
_atom_site_label
_atom_site_fract_x
_atom_site_fract_y
_atom_site_fract_z
Si Si1 0.417552 0.102193 0.886544
Si Si2 0.086083 0.130171 0.603383
Si Si3 0.998360 0.514667 0.889943
Si Si4 0.890216 0.712405 0.143439
Si Si5 0.000000 0.750000 0.750000
O O1 0.655708 0.122692 0.850067
O O2 0.476287 0.058784 0.879824
O O3 0.155917 0.114229 0.850074
O O4 0.399773 0.111517 0.999417
O O5 0.065137 0.174446 0.590119
O O6 0.750000 0.500000 0.849783
O O7 0.250000 0.500000 0.852131
O O8 0.000000 0.500000 0.000000
O O9 0.627674 0.722700 0.175126
O O10 0.000000 0.750000 0.099656
O O11 0.000000 0.707881 0.250000
#
# Coordination Sequence:
#
# PCOD9505335 Si02
#       5
#    16  16  16  16   4
#     4  10  20  32  47  77 110 136 161 197 257 302
#     4  10  19  33  50  70 107 134 159 207 254 302
#     4  10  16  26  46  67 100 135 169 197 227 287
#     4   9  20  35  55  74  92 128 175 215 254 288
#     4   8  18  36  56  70  92 116 182 224 256 284
#
# _framework density 23.946776
#
# number of rings (size 3 to 8) (size 9 to 14) (size 15 to 20)
#    0.000    2.588    0.000    7.059    6.588    0.000 
#    0.000    4.706    0.000    0.000    0.000    0.000 
#    0.000   69.647    0.000    0.000    0.000    0.000 
#
# Total GULP energy -189600.931141 kJ/mol
# GULP energy per Si atom -5576.497975 kJ/mol
# Density = 2.389227 g / cm^3
# Si number density = 23.946776 Si / 1000 Ang^3
#
#
#
# Elastic Constant Matrix: (Units=GPa)
#
#
# Indices 1 2 3 4 5 6 
#
# 1 232.9051 69.6274 14.2551 0.0000 0.0000 0.0000
# 2 69.6274 214.4324 -13.3998 0.0000 0.0000 0.0000
# 3 14.2551 -13.3998 57.9244 0.0000 0.0000 0.0000
# 4 0.0000 0.0000 0.0000 -103.3678 0.0000 0.0000
# 5 0.0000 0.0000 0.0000 0.0000 -590.7390 0.0000
# 6 0.0000 0.0000 0.0000 0.0000 0.0000 82.0990
#
#
#
# Elastic Compliance Matrix: (Units=1/GPa)
#
#
# Indices 1 2 3 4 5 6 
#
# 1 0.004896 -0.001690 -0.001596 0.000000 0.000000 0.000000
# 2 -0.001690 0.005315 0.001645 0.000000 0.000000 0.000000
# 3 -0.001596 0.001645 0.018037 0.000000 0.000000 0.000000
# 4 0.000000 0.000000 0.000000 -0.009674 0.000000 0.000000
# 5 0.000000 0.000000 0.000000 0.000000 -0.001693 0.000000
# 6 0.000000 0.000000 0.000000 0.000000 0.000000 0.012180
#
#
# Mechanical properties :
#
#
# Convention : Reuss Voigt Hill
#
# Bulk Modulus (GPa) = 40.05085 71.80304 55.92695
# Shear Modulus (GPa) = 122.95591 -93.41629 14.76981
#
# Velocity S-wave (km/s) = 7.17335 -6.25257 2.48619
# Velocity P-wave (km/s) = 9.23962 4.69858 5.62556
#
# Compressibility (1/GPa) = 0.02496826
#
# Stress axis : x y z
#
# Youngs Moduli (GPa) = 204.23254 188.14977 55.44088
#
# Poissons Ratio (x) = 0.31790 0.08848
# Poissons Ratio (y) = 0.34507 -0.09122
# Poissons Ratio (z) = 0.32592 -0.30957
#
# Static dielectric constant tensor:
#      x y z
#    x 1.517310 0.000000 0.000000 
#    y 0.000000 1.815300 0.000000 
#    z 0.000000 0.000000 2.073450 
# 
# From -- ./inp_files/35089.got.cif
#   From: 2010.05.17/outbox.cif.g08.bks.cpg/sg68_18_cif.got.tgz:35089.got - 2010.06.03 18:57:09.
