data_PCOD9505429
_publ_section_title
;
Structure prediction by ZEFSAII (Michael W. Deem and Ramdas Pophale) SiO2 
 PCOD9505429
Probable space group: C C C A
;
_chemical_formula_sum "Si O2"
_cell_formula_units_Z 96
_cell_length_a 8.378329
_cell_length_b 21.976665
_cell_length_c 22.187994
_cell_angle_alpha 90.000000
_cell_angle_beta 90.000000
_cell_angle_gamma 90.000000
_cell_volume 4085.424962
_symmetry_space_group_name_H-M "C C C A"
_symmetry_group_IT_number 68
_space_group.IT_coordinate_system_code '2'
_symmetry_cell_setting 'orthorhombic'
loop_
_space_group_symop_operation_xyz
x,y,z
-x,1/2-y,z
x,1/2-y,1/2-z
-x,y,1/2-z
-x,-y,-z
x,1/2+y,-z
-x,1/2+y,1/2+z
x,-y,1/2+z
1/2+x,1/2+y,z
1/2-x,-y,z
1/2+x,-y,1/2-z
1/2-x,1/2+y,1/2-z
1/2-x,1/2-y,-z
1/2+x,y,-z
1/2-x,y,1/2+z
1/2+x,1/2-y,1/2+z
loop_
_atom_site_type_symbol
_atom_site_label
_atom_site_fract_x
_atom_site_fract_y
_atom_site_fract_z
Si Si1 0.250000 0.000000 0.902114
Si Si2 0.500000 0.250000 0.750000
Si Si3 0.036016 0.443841 0.681629
Si Si4 0.194577 0.117352 0.588995
Si Si5 0.500000 0.250000 0.250000
Si Si6 0.926014 0.067537 0.505581
Si Si7 0.248753 0.172381 0.824727
Si Si8 0.190315 0.750478 0.432021
O O1 0.095895 0.000642 0.859387
O O2 0.216857 0.056463 0.946315
O O3 0.397433 0.202985 0.790751
O O4 0.186344 0.396578 0.681125
O O5 0.000000 0.459637 0.750000
O O6 0.884458 0.413783 0.647444
O O7 0.346861 0.087309 0.556758
O O8 0.236539 0.187244 0.600180
O O9 0.052793 0.111113 0.538468
O O10 0.396390 0.291750 0.206885
O O11 0.000000 0.000000 0.500000
O O12 0.254763 0.193295 0.893879
O O13 0.250000 0.750000 0.500000
O O14 0.000000 0.750000 0.431999
#
# Coordination Sequence:
#
# PCOD9505429 Si02
#       8
#     8   4  16  16   4  16  16  16
#     4  10  24  44  66 100 132 168 236 292 340 398
#     4  10  28  42  70 100 136 182 236 292 324 436
#     4  11  24  47  71  97 138 188 233 290 349 427
#     4  11  23  41  70 100 133 187 229 282 359 417
#     4  10  16  38  78  84 128 182 244 260 320 452
#     4  11  21  43  70  97 133 180 232 284 350 429
#     4  11  22  45  68  99 133 187 233 278 355 420
#     4  12  25  41  64 103 141 177 223 293 350 422
#
# _framework density 23.498166999999999
#
# number of rings (size 3 to 8) (size 9 to 14) (size 15 to 20)
#    0.000    1.000    5.000    1.000    5.833    0.000 
#   10.500    0.000    0.000    0.000    0.000    0.000 
#    0.000    0.000    0.000    0.000    0.000    0.000 
#
# Total GULP energy -268311.945907 kJ/mol
# GULP energy per Si atom -5589.832206 kJ/mol
# Density = 2.344468 g / cm^3
# Si number density = 23.498167 Si / 1000 Ang^3
#
#
#
# Elastic Constant Matrix: (Units=GPa)
#
#
# Indices 1 2 3 4 5 6 
#
# 1 58.7537 12.8714 17.8957 0.0000 0.0000 0.0000
# 2 12.8714 73.0403 -4.5724 0.0000 0.0000 0.0000
# 3 17.8957 -4.5724 125.3713 0.0000 0.0000 0.0000
# 4 0.0000 0.0000 0.0000 21.4665 0.0000 0.0000
# 5 0.0000 0.0000 0.0000 0.0000 33.1953 0.0000
# 6 0.0000 0.0000 0.0000 0.0000 0.0000 23.3517
#
#
#
# Elastic Compliance Matrix: (Units=1/GPa)
#
#
# Indices 1 2 3 4 5 6 
#
# 1 0.018626 -0.003457 -0.002785 0.000000 0.000000 0.000000
# 2 -0.003457 0.014364 0.001017 0.000000 0.000000 0.000000
# 3 -0.002785 0.001017 0.008411 0.000000 0.000000 0.000000
# 4 0.000000 0.000000 0.000000 0.046584 0.000000 0.000000
# 5 0.000000 0.000000 0.000000 0.000000 0.030125 0.000000
# 6 0.000000 0.000000 0.000000 0.000000 0.000000 0.042823
#
#
# Mechanical properties :
#
#
# Convention : Reuss Voigt Hill
#
# Bulk Modulus (GPa) = 32.30774 34.39496 33.35135
# Shear Modulus (GPa) = 27.51812 31.00073 29.25943
#
# Velocity S-wave (km/s) = 3.42581 3.63613 3.53254
# Velocity P-wave (km/s) = 5.42468 5.68311 5.55540
#
# Compressibility (1/GPa) = 0.03095233
#
# Stress axis : x y z
#
# Youngs Moduli (GPa) = 53.68935 69.61906 118.89324
#
# Poissons Ratio (x) = 0.24065 0.33109
# Poissons Ratio (y) = 0.18558 -0.12095
# Poissons Ratio (z) = 0.14951 -0.07082
#
# Static dielectric constant tensor:
#      x y z
#    x 1.780450 0.000000 0.000000 
#    y 0.000000 1.946490 0.000000 
#    z 0.000000 0.000000 1.937610 
# 
# From -- ./inp_files/43355.got.cif
#   From: 2010.05.17/outbox.cif.g08.bks.cpg/sg68_22_cif.got.tgz:43355.got - 2010.06.03 18:57:09.
