data_PCOD9505377
_publ_section_title
;
Structure prediction by ZEFSAII (Michael W. Deem and Ramdas Pophale) SiO2 
 PCOD9505377
Probable space group: C C C A
;
_chemical_formula_sum "Si O2"
_cell_formula_units_Z 96
_cell_length_a 7.712366
_cell_length_b 25.090484
_cell_length_c 17.659919
_cell_angle_alpha 90.000000
_cell_angle_beta 90.000000
_cell_angle_gamma 90.000000
_cell_volume 3417.317870
_symmetry_space_group_name_H-M "C C C A"
_symmetry_group_IT_number 68
_space_group.IT_coordinate_system_code '2'
_symmetry_cell_setting 'orthorhombic'
loop_
_space_group_symop_operation_xyz
x,y,z
-x,1/2-y,z
x,1/2-y,1/2-z
-x,y,1/2-z
-x,-y,-z
x,1/2+y,-z
-x,1/2+y,1/2+z
x,-y,1/2+z
1/2+x,1/2+y,z
1/2-x,-y,z
1/2+x,-y,1/2-z
1/2-x,1/2+y,1/2-z
1/2-x,1/2-y,-z
1/2+x,y,-z
1/2-x,y,1/2+z
1/2+x,1/2-y,1/2+z
loop_
_atom_site_type_symbol
_atom_site_label
_atom_site_fract_x
_atom_site_fract_y
_atom_site_fract_z
Si Si1 0.719227 0.917563 0.758189
Si Si2 0.619981 0.140962 0.971486
Si Si3 0.688891 0.199764 0.709955
Si Si4 0.043734 0.444221 0.130315
Si Si5 0.500000 0.250000 0.930196
Si Si6 0.577278 0.087716 0.408659
Si Si7 0.250000 0.500000 0.513288
O O1 0.722891 0.855652 0.732373
O O2 0.789746 0.944365 0.682986
O O3 0.566155 0.925629 0.819871
O O4 0.877372 0.939096 0.814955
O O5 0.479563 0.109368 0.919292
O O6 0.577460 0.202453 0.979105
O O7 0.796469 0.138674 0.922944
O O8 0.595403 0.107207 0.049062
O O9 0.777572 0.250000 0.750000
O O10 0.500000 0.192697 0.750000
O O11 0.637997 0.220199 0.625995
O O12 0.085357 0.492029 0.070877
O O13 0.704640 0.047356 0.455149
#
# Coordination Sequence:
#
# PCOD9505377 Si02
#       7
#    16  16  16  16   8  16   8
#     4  10  16  31  53  79 108 135 188 252 275 316
#     4  10  20  36  55  85 119 150 184 230 288 348
#     4   9  13  22  46  80 104 127 174 238 275 300
#     4   9  17  32  51  74 102 140 191 244 266 325
#     4  10  17  30  58  86 110 147 188 230 282 331
#     4  10  22  36  56  80 120 151 186 238 292 345
#     4  10  22  36  50  74 112 158 184 228 308 348
#
# _framework density 28.092209
#
# number of rings (size 3 to 8) (size 9 to 14) (size 15 to 20)
#    0.000    2.500    3.333    3.000    0.000    7.333 
#    0.000    1.667    0.000    3.000    0.000    0.000 
#    0.000    0.000    0.000    0.000    0.000    0.000 
#
# Total GULP energy -267799.320660 kJ/mol
# GULP energy per Si atom -5579.152514 kJ/mol
# Density = 2.802827 g / cm^3
# Si number density = 28.092209 Si / 1000 Ang^3
#
#
#
# Elastic Constant Matrix: (Units=GPa)
#
#
# Indices 1 2 3 4 5 6 
#
# 1 82.3869 -5.4975 4.4594 0.0000 0.0000 0.0000
# 2 -5.4975 112.4360 17.6802 0.0000 0.0000 0.0000
# 3 4.4594 17.6802 181.0278 0.0000 0.0000 0.0000
# 4 0.0000 0.0000 0.0000 21.1428 0.0000 0.0000
# 5 0.0000 0.0000 0.0000 0.0000 24.7039 0.0000
# 6 0.0000 0.0000 0.0000 0.0000 0.0000 24.4109
#
#
#
# Elastic Compliance Matrix: (Units=1/GPa)
#
#
# Indices 1 2 3 4 5 6 
#
# 1 0.012201 0.000654 -0.000364 0.000000 0.000000 0.000000
# 2 0.000654 0.009068 -0.000902 0.000000 0.000000 0.000000
# 3 -0.000364 -0.000902 0.005621 0.000000 0.000000 0.000000
# 4 0.000000 0.000000 0.000000 0.047297 0.000000 0.000000
# 5 0.000000 0.000000 0.000000 0.000000 0.040479 0.000000
# 6 0.000000 0.000000 0.000000 0.000000 0.000000 0.040965
#
#
# Mechanical properties :
#
#
# Convention : Reuss Voigt Hill
#
# Bulk Modulus (GPa) = 38.96287 45.45943 42.21115
# Shear Modulus (GPa) = 30.22757 37.99875 34.11316
#
# Velocity S-wave (km/s) = 3.28382 3.68182 3.48850
# Velocity P-wave (km/s) = 5.31768 5.85592 5.59328
#
# Compressibility (1/GPa) = 0.02566546
#
# Stress axis : x y z
#
# Youngs Moduli (GPa) = 81.95907 110.28144 177.90250
#
# Poissons Ratio (x) = -0.07211 0.06483
# Poissons Ratio (y) = -0.05359 0.16042
# Poissons Ratio (z) = 0.02987 0.09944
#
# Static dielectric constant tensor:
#      x y z
#    x 2.451310 0.000000 0.000000 
#    y 0.000000 2.345970 0.000000 
#    z 0.000000 0.000000 2.262560 
# 
# From -- ./inp_files/29945.got.cif
#   From: 2010.05.17/outbox.cif.g08.bks.cpg/sg68_15_cif.got.tgz:29945.got - 2010.06.03 18:57:09.
