data_PCOD9505864
_publ_section_title
;
Structure prediction by ZEFSAII (Michael W. Deem and Ramdas Pophale) SiO2 
 PCOD9505864
Probable space group: C C C A
;
_chemical_formula_sum "Si O2"
_cell_formula_units_Z 64
_cell_length_a 12.833629
_cell_length_b 13.468326
_cell_length_c 16.948640
_cell_angle_alpha 90.000000
_cell_angle_beta 90.000000
_cell_angle_gamma 90.000000
_cell_volume 2929.530038
_symmetry_space_group_name_H-M "C C C A"
_symmetry_group_IT_number 68
_space_group.IT_coordinate_system_code '2'
_symmetry_cell_setting 'orthorhombic'
loop_
_space_group_symop_operation_xyz
x,y,z
-x,1/2-y,z
x,1/2-y,1/2-z
-x,y,1/2-z
-x,-y,-z
x,1/2+y,-z
-x,1/2+y,1/2+z
x,-y,1/2+z
1/2+x,1/2+y,z
1/2-x,-y,z
1/2+x,-y,1/2-z
1/2-x,1/2+y,1/2-z
1/2-x,1/2-y,-z
1/2+x,y,-z
1/2-x,y,1/2+z
1/2+x,1/2-y,1/2+z
loop_
_atom_site_type_symbol
_atom_site_label
_atom_site_fract_x
_atom_site_fract_y
_atom_site_fract_z
Si Si1 0.286619 0.393215 0.780474
Si Si2 0.500000 0.009390 0.750000
Si Si3 0.700624 0.689847 0.571714
Si Si4 0.750000 0.000000 0.516500
Si Si5 0.117962 0.626622 0.140772
O O1 0.250000 0.500000 0.811129
O O2 0.401219 0.417835 0.750772
O O3 0.280211 0.321932 0.855005
O O4 0.202843 0.368996 0.712577
O O5 0.479918 0.932990 0.822823
O O6 0.750000 0.750000 0.500000
O O7 0.685873 0.580599 0.535059
O O8 0.611846 0.761675 0.607158
O O9 0.829556 0.059286 0.572978
#
# Coordination Sequence:
#
# PCOD9505864 Si02
#       5
#    16   8  16   8  16
#     4  10  19  39  66  88 125 168 208 263 317 369
#     4  10  20  38  72  94 124 162 224 265 311 378
#     4  10  21  36  66  89 126 169 209 260 323 385
#     4  10  18  38  64  90 130 174 206 260 340 370
#     4  10  20  39  67  94 123 171 219 262 315 384
#
# _framework density 21.846506999999999
#
# number of rings (size 3 to 8) (size 9 to 14) (size 15 to 20)
#    0.000    2.000    5.000    0.750    0.000    0.000 
#    0.000   17.500   11.000    0.000    0.000    0.000 
#    0.000    0.000    0.000    0.000    0.000    0.000 
#
# Total GULP energy -178227.644161 kJ/mol
# GULP energy per Si atom -5569.613880 kJ/mol
# Density = 2.179678 g / cm^3
# Si number density = 21.846507 Si / 1000 Ang^3
#
#
#
# Elastic Constant Matrix: (Units=GPa)
#
#
# Indices 1 2 3 4 5 6 
#
# 1 62.1513 7.9628 17.2392 0.0000 0.0000 0.0000
# 2 7.9628 122.2434 57.4647 0.0000 0.0000 0.0000
# 3 17.2392 57.4647 119.2019 0.0000 0.0000 0.0000
# 4 0.0000 0.0000 0.0000 56.1718 0.0000 0.0000
# 5 0.0000 0.0000 0.0000 0.0000 14.9214 0.0000
# 6 0.0000 0.0000 0.0000 0.0000 0.0000 7.6685
#
#
#
# Elastic Compliance Matrix: (Units=1/GPa)
#
#
# Indices 1 2 3 4 5 6 
#
# 1 0.016763 0.000062 -0.002454 0.000000 0.000000 0.000000
# 2 0.000062 0.010578 -0.005108 0.000000 0.000000 0.000000
# 3 -0.002454 -0.005108 0.011207 0.000000 0.000000 0.000000
# 4 0.000000 0.000000 0.000000 0.017803 0.000000 0.000000
# 5 0.000000 0.000000 0.000000 0.000000 0.067018 0.000000
# 6 0.000000 0.000000 0.000000 0.000000 0.000000 0.130403
#
#
# Mechanical properties :
#
#
# Convention : Reuss Voigt Hill
#
# Bulk Modulus (GPa) = 42.47036 52.10332 47.28684
# Shear Modulus (GPa) = 18.07534 30.48100 24.27817
#
# Velocity S-wave (km/s) = 2.87954 3.73934 3.33724
# Velocity P-wave (km/s) = 5.52614 6.52265 6.04497
#
# Compressibility (1/GPa) = 0.02354583
#
# Stress axis : x y z
#
# Youngs Moduli (GPa) = 59.65687 94.53880 89.23332
#
# Poissons Ratio (x) = -0.00583 0.21898
# Poissons Ratio (y) = -0.00368 0.45582
# Poissons Ratio (z) = 0.14640 0.48292
#
# Static dielectric constant tensor:
#      x y z
#    x 1.846860 0.000000 0.000000 
#    y 0.000000 1.883440 0.000000 
#    z 0.000000 0.000000 1.803530 
# 
# From -- ./inp_files/29183.got.cif
#   From: 2010.05.17/outbox.cif.g08.bks.cpg/sg68_15_cif.got.tgz:29183.got - 2010.06.03 18:57:09.
