data_PCOD9505625
_publ_section_title
;
Structure prediction by ZEFSAII (Michael W. Deem and Ramdas Pophale) SiO2 
 PCOD9505625
Probable space group: C C C A
;
_chemical_formula_sum "Si O2"
_cell_formula_units_Z 64
_cell_length_a 14.064115
_cell_length_b 5.709580
_cell_length_c 35.704206
_cell_angle_alpha 90.000000
_cell_angle_beta 90.000000
_cell_angle_gamma 90.000000
_cell_volume 2867.054516
_symmetry_space_group_name_H-M "C C C A"
_symmetry_group_IT_number 68
_space_group.IT_coordinate_system_code '2'
_symmetry_cell_setting 'orthorhombic'
loop_
_space_group_symop_operation_xyz
x,y,z
-x,1/2-y,z
x,1/2-y,1/2-z
-x,y,1/2-z
-x,-y,-z
x,1/2+y,-z
-x,1/2+y,1/2+z
x,-y,1/2+z
1/2+x,1/2+y,z
1/2-x,-y,z
1/2+x,-y,1/2-z
1/2-x,1/2+y,1/2-z
1/2-x,1/2-y,-z
1/2+x,y,-z
1/2-x,y,1/2+z
1/2+x,1/2-y,1/2+z
loop_
_atom_site_type_symbol
_atom_site_label
_atom_site_fract_x
_atom_site_fract_y
_atom_site_fract_z
Si Si1 0.500000 0.750000 0.854243
Si Si2 0.647539 0.381743 0.671549
Si Si3 0.388507 0.981358 0.486260
Si Si4 0.098964 0.108928 0.400519
Si Si5 0.192774 0.250000 0.250000
O O1 0.442209 0.556450 0.831447
O O2 0.576939 0.638937 0.881970
O O3 0.750000 0.500000 0.674388
O O4 0.653366 0.241415 0.632497
O O5 0.636934 0.243996 0.710571
O O6 0.352818 0.246360 0.492991
O O7 0.500000 0.000000 0.500000
O O8 0.369829 0.923354 0.442791
O O9 0.000000 0.250000 0.403763
O O10 0.250000 0.500000 0.249382
#
# Coordination Sequence:
#
# PCOD9505625 Si02
#       5
#     8  16  16  16   8
#     4  10  22  40  67 100 134 170 234 282 344 409
#     4  10  24  43  71  97 138 183 227 287 355 420
#     4  10  18  30  55  87 128 177 222 276 342 405
#     4  10  20  35  59  98 131 173 235 282 340 417
#     4  10  24  46  75  97 134 188 232 270 358 435
#
# _framework density 22.322562999999999
#
# number of rings (size 3 to 8) (size 9 to 14) (size 15 to 20)
#    0.000    2.000    2.500    1.500   10.500    0.000 
#    0.000    6.875    0.000    1.500    0.000    0.000 
#    0.000    0.000    0.000    0.000    0.000    0.000 
#
# Total GULP energy -178250.278385 kJ/mol
# GULP energy per Si atom -5570.321200 kJ/mol
# Density = 2.227176 g / cm^3
# Si number density = 22.322563 Si / 1000 Ang^3
#
#
#
# Elastic Constant Matrix: (Units=GPa)
#
#
# Indices 1 2 3 4 5 6 
#
# 1 45.7398 -0.4675 32.8245 0.0000 0.0000 0.0000
# 2 -0.4675 124.1965 62.0971 0.0000 0.0000 0.0000
# 3 32.8245 62.0971 234.0141 0.0000 0.0000 0.0000
# 4 0.0000 0.0000 0.0000 80.5448 0.0000 0.0000
# 5 0.0000 0.0000 0.0000 0.0000 29.1488 0.0000
# 6 0.0000 0.0000 0.0000 0.0000 0.0000 10.9050
#
#
#
# Elastic Compliance Matrix: (Units=1/GPa)
#
#
# Indices 1 2 3 4 5 6 
#
# 1 0.024781 0.002111 -0.004036 0.000000 0.000000 0.000000
# 2 0.002111 0.009463 -0.002807 0.000000 0.000000 0.000000
# 3 -0.004036 -0.002807 0.005584 0.000000 0.000000 0.000000
# 4 0.000000 0.000000 0.000000 0.012415 0.000000 0.000000
# 5 0.000000 0.000000 0.000000 0.000000 0.034307 0.000000
# 6 0.000000 0.000000 0.000000 0.000000 0.000000 0.091701
#
#
# Mechanical properties :
#
#
# Convention : Reuss Voigt Hill
#
# Bulk Modulus (GPa) = 32.93346 65.87316 49.40331
# Shear Modulus (GPa) = 25.27329 44.75282 35.01305
#
# Velocity S-wave (km/s) = 3.36845 4.48238 3.96473
# Velocity P-wave (km/s) = 5.46937 7.50751 6.56798
#
# Compressibility (1/GPa) = 0.03036425
#
# Stress axis : x y z
#
# Youngs Moduli (GPa) = 40.35363 105.67100 179.07246
#
# Poissons Ratio (x) = -0.22311 0.72277
# Poissons Ratio (y) = -0.08520 0.50271
# Poissons Ratio (z) = 0.16288 0.29665
#
# Static dielectric constant tensor:
#      x y z
#    x 1.919180 0.000000 0.000000 
#    y 0.000000 1.897480 0.000000 
#    z 0.000000 0.000000 1.826210 
# 
# From -- ./inp_files/55484.got.cif
#   From: 2010.05.17/outbox.cif.g08.bks.cpg/sg68_28_cif.got.tgz:55484.got - 2010.06.03 18:57:09.
