data_PCOD9505490
_publ_section_title
;
Structure prediction by ZEFSAII (Michael W. Deem and Ramdas Pophale) SiO2 
 PCOD9505490
Probable space group: C C C A
;
_chemical_formula_sum "Si O2"
_cell_formula_units_Z 104
_cell_length_a 16.755126
_cell_length_b 13.043529
_cell_length_c 24.311181
_cell_angle_alpha 90.000000
_cell_angle_beta 90.000000
_cell_angle_gamma 90.000000
_cell_volume 5313.110679
_symmetry_space_group_name_H-M "C C C A"
_symmetry_group_IT_number 68
_space_group.IT_coordinate_system_code '2'
_symmetry_cell_setting 'orthorhombic'
loop_
_space_group_symop_operation_xyz
x,y,z
-x,1/2-y,z
x,1/2-y,1/2-z
-x,y,1/2-z
-x,-y,-z
x,1/2+y,-z
-x,1/2+y,1/2+z
x,-y,1/2+z
1/2+x,1/2+y,z
1/2-x,-y,z
1/2+x,-y,1/2-z
1/2-x,1/2+y,1/2-z
1/2-x,1/2-y,-z
1/2+x,y,-z
1/2-x,y,1/2+z
1/2+x,1/2-y,1/2+z
loop_
_atom_site_type_symbol
_atom_site_label
_atom_site_fract_x
_atom_site_fract_y
_atom_site_fract_z
Si Si1 0.825377 0.428152 0.625298
Si Si2 0.530067 0.035885 0.440724
Si Si3 0.500000 0.750000 0.616711
Si Si4 0.928149 0.523535 0.717622
Si Si5 0.341500 0.226636 0.314860
Si Si6 0.181753 0.349184 0.208710
Si Si7 0.470482 0.144755 0.863367
O O1 0.750000 0.500000 0.630663
O O2 0.873638 0.459203 0.570021
O O3 0.891815 0.453857 0.671067
O O4 0.801757 0.314770 0.645532
O O5 0.510552 0.151538 0.422380
O O6 0.500000 0.000000 0.500000
O O7 0.486738 0.953616 0.400781
O O8 0.574017 0.783121 0.655298
O O9 0.855956 0.559976 0.755343
O O10 0.000000 0.470173 0.750000
O O11 0.972266 0.620843 0.689326
O O12 0.355132 0.250000 0.250000
O O13 0.272333 0.140720 0.311996
O O14 0.180904 0.250000 0.250000
O O15 0.118590 0.340289 0.159099
O O16 0.500000 0.250000 0.890131
#
# Coordination Sequence:
#
# PCOD9505490 Si02
#       7
#    16  16   8  16  16  16  16
#     4  10  20  36  55  84 117 151 206 244 290 348
#     4  10  24  43  65  85 105 157 200 253 312 348
#     4  10  23  46  58  82 122 152 205 238 284 372
#     4   9  18  30  51  81 122 155 185 233 286 348
#     4  10  21  33  57  81 123 168 188 225 276 353
#     4  10  17  30  51  88 126 150 189 230 287 342
#     4  10  19  32  59  89 119 147 186 245 298 348
#
# _framework density 19.574221000000001
#
# number of rings (size 3 to 8) (size 9 to 14) (size 15 to 20)
#    0.000    2.154    1.538    2.077    3.231    4.923 
#    0.000    5.385    0.000    3.692    0.000    0.000 
#    0.000    0.000    0.000    0.000    0.000    0.000 
#
# Total GULP energy -289519.152581 kJ/mol
# GULP energy per Si atom -5567.676011 kJ/mol
# Density = 1.952967 g / cm^3
# Si number density = 19.574221 Si / 1000 Ang^3
#
#
#
# Elastic Constant Matrix: (Units=GPa)
#
#
# Indices 1 2 3 4 5 6 
#
# 1 117.5337 30.7819 46.8439 0.0000 0.0000 0.0000
# 2 30.7819 71.4833 28.2697 0.0000 0.0000 0.0000
# 3 46.8439 28.2697 94.2358 0.0000 0.0000 0.0000
# 4 0.0000 0.0000 0.0000 14.9651 0.0000 0.0000
# 5 0.0000 0.0000 0.0000 0.0000 14.8065 0.0000
# 6 0.0000 0.0000 0.0000 0.0000 0.0000 17.3104
#
#
#
# Elastic Compliance Matrix: (Units=1/GPa)
#
#
# Indices 1 2 3 4 5 6 
#
# 1 0.011135 -0.002957 -0.004648 0.000000 0.000000 0.000000
# 2 -0.002957 0.016657 -0.003527 0.000000 0.000000 0.000000
# 3 -0.004648 -0.003527 0.013980 0.000000 0.000000 0.000000
# 4 0.000000 0.000000 0.000000 0.066822 0.000000 0.000000
# 5 0.000000 0.000000 0.000000 0.000000 0.067538 0.000000
# 6 0.000000 0.000000 0.000000 0.000000 0.000000 0.057769
#
#
# Mechanical properties :
#
#
# Convention : Reuss Voigt Hill
#
# Bulk Modulus (GPa) = 51.25957 55.00487 53.13222
# Shear Modulus (GPa) = 19.03537 21.24023 20.13780
#
# Velocity S-wave (km/s) = 3.12183 3.29768 3.21096
# Velocity P-wave (km/s) = 6.26407 6.53156 6.39921
#
# Compressibility (1/GPa) = 0.01950855
#
# Stress axis : x y z
#
# Youngs Moduli (GPa) = 89.80582 60.03328 71.52867
#
# Poissons Ratio (x) = 0.17750 0.33248
# Poissons Ratio (y) = 0.26553 0.25230
# Poissons Ratio (z) = 0.41744 0.21175
#
# Static dielectric constant tensor:
#      x y z
#    x 1.722300 0.000000 0.000000 
#    y 0.000000 1.741200 0.000000 
#    z 0.000000 0.000000 1.721690 
# 
# From -- ./inp_files/46104.got.cif
#   From: 2010.05.17/outbox.cif.g08.bks.cpg/sg68_24_cif.got.tgz:46104.got - 2010.06.03 18:57:09.
