data_PCOD9505155
_publ_section_title
;
Structure prediction by ZEFSAII (Michael W. Deem and Ramdas Pophale) SiO2 
 PCOD9505155
Probable space group: C M M A
;
_chemical_formula_sum "Si O2"
_cell_formula_units_Z 64
_cell_length_a 11.260359
_cell_length_b 28.325081
_cell_length_c 8.558960
_cell_angle_alpha 90.000000
_cell_angle_beta 90.000000
_cell_angle_gamma 90.000000
_cell_volume 2729.885263
_symmetry_space_group_name_H-M "C M M A"
_symmetry_group_IT_number 67
_symmetry_cell_setting 'orthorhombic'
loop_
_space_group_symop_operation_xyz
x,y,z
-x,1/2-y,z
x,-y,-z
-x,1/2+y,-z
-x,-y,-z
x,1/2+y,-z
-x,y,z
x,1/2-y,z
1/2+x,1/2+y,z
1/2-x,-y,z
1/2+x,1/2-y,-z
1/2-x,y,-z
1/2-x,1/2-y,-z
1/2+x,y,-z
1/2-x,1/2+y,z
1/2+x,-y,z
loop_
_atom_site_type_symbol
_atom_site_label
_atom_site_fract_x
_atom_site_fract_y
_atom_site_fract_z
Si Si1 0.368070 0.693465 0.597977
Si Si2 0.627700 0.432150 0.927778
Si Si3 0.372917 0.445759 0.558560
Si Si4 0.128402 0.674106 0.048965
O O1 0.500000 0.685386 0.525228
O O2 0.362961 0.750000 0.631794
O O3 0.250000 0.682656 0.500000
O O4 0.365075 0.667419 0.764450
O O5 0.500000 0.448368 0.995075
O O6 0.629235 0.443517 0.745160
O O7 0.750000 0.449989 0.000000
O O8 0.628438 0.375884 0.959179
O O9 0.373171 0.500000 0.500000
O O10 0.500000 0.425013 0.504928
O O11 0.250000 0.423911 0.500000
O O12 0.000000 0.696555 0.016333
O O13 0.250000 0.698713 0.000000
#
# Coordination Sequence:
#
# PCOD9505155 Si02
#       4
#    16  16  16  16
#     4   9  18  33  53  78 108 142 181 224 268 315
#     4   9  18  34  55  78 106 140 177 218 266 319
#     4   9  18  34  56  81 107 136 172 214 264 321
#     4   9  18  33  52  76 107 142 180 221 266 316
#
# _framework density 23.444208
#
# number of rings (size 3 to 8) (size 9 to 14) (size 15 to 20)
#    0.000    3.000    0.000    0.000    0.000    2.500 
#    0.000    7.500    0.000   40.500    0.000    0.000 
#    0.000    0.000    0.000    0.000    0.000    0.000 
#
# Total GULP energy -178460.707289 kJ/mol
# GULP energy per Si atom -5576.897103 kJ/mol
# Density = 2.339085 g / cm^3
# Si number density = 23.444208 Si / 1000 Ang^3
#
#
#
# Elastic Constant Matrix: (Units=GPa)
#
#
# Indices 1 2 3 4 5 6 
#
# 1 340.4730 1.8318 66.9968 0.0000 0.0000 0.0000
# 2 1.8318 125.9361 36.2250 0.0000 0.0000 0.0000
# 3 66.9968 36.2250 89.5565 0.0000 0.0000 0.0000
# 4 0.0000 0.0000 0.0000 62.6937 0.0000 0.0000
# 5 0.0000 0.0000 0.0000 0.0000 40.7610 0.0000
# 6 0.0000 0.0000 0.0000 0.0000 0.0000 -62.7177
#
#
#
# Elastic Compliance Matrix: (Units=1/GPa)
#
#
# Indices 1 2 3 4 5 6 
#
# 1 0.003514 0.000798 -0.002951 0.000000 0.000000 0.000000
# 2 0.000798 0.009167 -0.004305 0.000000 0.000000 0.000000
# 3 -0.002951 -0.004305 0.015115 0.000000 0.000000 0.000000
# 4 0.000000 0.000000 0.000000 0.015951 0.000000 0.000000
# 5 0.000000 0.000000 0.000000 0.000000 0.024533 0.000000
# 6 0.000000 0.000000 0.000000 0.000000 0.000000 -0.015944
#
#
# Mechanical properties :
#
#
# Convention : Reuss Voigt Hill
#
# Bulk Modulus (GPa) = 67.20704 85.11919 76.16311
# Shear Modulus (GPa) = 71.21341 38.20822 54.71082
#
# Velocity S-wave (km/s) = 5.51739 4.04140 4.83604
# Velocity P-wave (km/s) = 8.32574 7.62648 7.98377
#
# Compressibility (1/GPa) = 0.01487939
#
# Stress axis : x y z
#
# Youngs Moduli (GPa) = 284.61568 109.08444 66.15874
#
# Poissons Ratio (x) = -0.08702 0.19524
# Poissons Ratio (y) = -0.22706 0.28481
# Poissons Ratio (z) = 0.83994 0.46960
#
# Static dielectric constant tensor:
#      x y z
#    x 1.984000 0.000000 0.000000 
#    y 0.000000 1.888000 0.000000 
#    z 0.000000 0.000000 1.807720 
# 
# From -- ./inp_files/6705.got.cif
#   From: 2010.05.17/outbox.cif.g08.bks.cpg/sg67_4_cif.got.tgz:6705.got - 2010.06.03 18:28:57.
