data_PCOD9505427
_publ_section_title
;
Structure prediction by ZEFSAII (Michael W. Deem and Ramdas Pophale) SiO2 
 PCOD9505427
Probable space group: C C C A
;
_chemical_formula_sum "Si O2"
_cell_formula_units_Z 72
_cell_length_a 10.027017
_cell_length_b 20.705435
_cell_length_c 13.730385
_cell_angle_alpha 90.000000
_cell_angle_beta 90.000000
_cell_angle_gamma 90.000000
_cell_volume 2850.616701
_symmetry_space_group_name_H-M "C C C A"
_symmetry_group_IT_number 68
_space_group.IT_coordinate_system_code '2'
_symmetry_cell_setting 'orthorhombic'
loop_
_space_group_symop_operation_xyz
x,y,z
-x,1/2-y,z
x,1/2-y,1/2-z
-x,y,1/2-z
-x,-y,-z
x,1/2+y,-z
-x,1/2+y,1/2+z
x,-y,1/2+z
1/2+x,1/2+y,z
1/2-x,-y,z
1/2+x,-y,1/2-z
1/2-x,1/2+y,1/2-z
1/2-x,1/2-y,-z
1/2+x,y,-z
1/2-x,y,1/2+z
1/2+x,1/2-y,1/2+z
loop_
_atom_site_type_symbol
_atom_site_label
_atom_site_fract_x
_atom_site_fract_y
_atom_site_fract_z
Si Si1 0.178674 0.810361 0.551392
Si Si2 0.602860 0.482437 0.858584
Si Si3 0.000000 0.401443 0.750000
Si Si4 0.701177 0.639278 0.256494
Si Si5 0.913026 0.135953 0.036691
O O1 0.250000 0.750000 0.500000
O O2 0.151897 0.818031 0.666564
O O3 0.962555 0.676756 0.501156
O O4 0.287900 0.866118 0.533421
O O5 0.750000 0.500000 0.896554
O O6 0.522549 0.546662 0.836479
O O7 0.644140 0.435204 0.765003
O O8 0.534522 0.433826 0.932518
O O9 0.138165 0.362930 0.750102
O O10 0.649237 0.663168 0.361322
#
# Coordination Sequence:
#
# PCOD9505427 Si02
#       5
#    16  16   8  16  16
#     4  12  25  44  69  97 135 187 239 293 353 412
#     4   8  17  37  65  99 136 180 220 280 356 427
#     4  10  16  36  76  99 131 184 232 276 356 436
#     4   9  22  40  70  96 140 180 229 289 355 422
#     4  10  24  44  67 101 144 175 237 295 349 427
#
# _framework density 25.257691000000001
#
# number of rings (size 3 to 8) (size 9 to 14) (size 15 to 20)
#    1.333    0.889    0.000    2.667    3.111    0.889 
#    0.000   10.000    0.000    0.000    0.000    0.000 
#    0.000    0.000    0.000    0.000    0.000    0.000 
#
# Total GULP energy -200740.699970 kJ/mol
# GULP energy per Si atom -5576.130555 kJ/mol
# Density = 2.520020 g / cm^3
# Si number density = 25.257691 Si / 1000 Ang^3
#
#
#
# Elastic Constant Matrix: (Units=GPa)
#
#
# Indices 1 2 3 4 5 6 
#
# 1 185.9856 12.9946 3.4643 0.0000 0.0000 0.0000
# 2 12.9946 67.1298 4.0308 0.0000 0.0000 0.0000
# 3 3.4643 4.0308 87.9447 0.0000 0.0000 0.0000
# 4 0.0000 0.0000 0.0000 32.7048 0.0000 0.0000
# 5 0.0000 0.0000 0.0000 0.0000 23.7187 0.0000
# 6 0.0000 0.0000 0.0000 0.0000 0.0000 35.1828
#
#
#
# Elastic Compliance Matrix: (Units=1/GPa)
#
#
# Indices 1 2 3 4 5 6 
#
# 1 0.005453 -0.001046 -0.000167 0.000000 0.000000 0.000000
# 2 -0.001046 0.015138 -0.000653 0.000000 0.000000 0.000000
# 3 -0.000167 -0.000653 0.011407 0.000000 0.000000 0.000000
# 4 0.000000 0.000000 0.000000 0.030577 0.000000 0.000000
# 5 0.000000 0.000000 0.000000 0.000000 0.042161 0.000000
# 6 0.000000 0.000000 0.000000 0.000000 0.000000 0.028423
#
#
# Mechanical properties :
#
#
# Convention : Reuss Voigt Hill
#
# Bulk Modulus (GPa) = 35.37547 42.44883 38.91215
# Shear Modulus (GPa) = 34.17368 39.69263 36.93315
#
# Velocity S-wave (km/s) = 3.68231 3.96852 3.82809
# Velocity P-wave (km/s) = 5.66705 6.15156 5.91427
#
# Compressibility (1/GPa) = 0.02826818
#
# Stress axis : x y z
#
# Youngs Moduli (GPa) = 183.38806 66.05857 87.66340
#
# Poissons Ratio (x) = 0.06907 0.01463
# Poissons Ratio (y) = 0.19174 0.05721
# Poissons Ratio (z) = 0.03060 0.04311
#
# Static dielectric constant tensor:
#      x y z
#    x 1.995840 0.000000 0.000000 
#    y 0.000000 2.129290 0.000000 
#    z 0.000000 0.000000 2.088680 
# 
# From -- ./inp_files/29897.got.cif
#   From: 2010.05.17/outbox.cif.g08.bks.cpg/sg68_15_cif.got.tgz:29897.got - 2010.06.03 18:57:09.
