data_PCOD9505812
_publ_section_title
;
Structure prediction by ZEFSAII (Michael W. Deem and Ramdas Pophale) SiO2 
 PCOD9505812
Probable space group: C C C A
;
_chemical_formula_sum "Si O2"
_cell_formula_units_Z 104
_cell_length_a 19.117456
_cell_length_b 9.493544
_cell_length_c 28.129273
_cell_angle_alpha 90.000000
_cell_angle_beta 90.000000
_cell_angle_gamma 90.000000
_cell_volume 5105.249540
_symmetry_space_group_name_H-M "C C C A"
_symmetry_group_IT_number 68
_space_group.IT_coordinate_system_code '2'
_symmetry_cell_setting 'orthorhombic'
loop_
_space_group_symop_operation_xyz
x,y,z
-x,1/2-y,z
x,1/2-y,1/2-z
-x,y,1/2-z
-x,-y,-z
x,1/2+y,-z
-x,1/2+y,1/2+z
x,-y,1/2+z
1/2+x,1/2+y,z
1/2-x,-y,z
1/2+x,-y,1/2-z
1/2-x,1/2+y,1/2-z
1/2-x,1/2-y,-z
1/2+x,y,-z
1/2-x,y,1/2+z
1/2+x,1/2-y,1/2+z
loop_
_atom_site_type_symbol
_atom_site_label
_atom_site_fract_x
_atom_site_fract_y
_atom_site_fract_z
Si Si1 0.440890 0.141182 0.550338
Si Si2 0.023275 0.454329 0.305558
Si Si3 0.958189 0.878685 0.057381
Si Si4 0.621802 0.022235 0.143121
Si Si5 0.871498 0.801547 0.298792
Si Si6 0.858691 0.791517 0.858211
Si Si7 0.750000 0.500000 0.688334
O O1 0.500000 0.250000 0.566412
O O2 0.428672 0.166055 0.494317
O O3 0.380089 0.165687 0.588088
O O4 0.480181 0.992765 0.552245
O O5 0.071631 0.589818 0.318253
O O6 0.073847 0.328628 0.324352
O O7 0.000000 0.442234 0.250000
O O8 0.952981 0.480187 0.334415
O O9 0.896080 0.937542 0.089164
O O10 0.000000 0.750000 0.080492
O O11 0.645903 0.165073 0.169532
O O12 0.661825 0.873262 0.145896
O O13 0.904180 0.750000 0.250000
O O14 0.804275 0.897507 0.285220
O O15 0.797103 0.893574 0.841860
#
# Coordination Sequence:
#
# PCOD9505812 Si02
#       7
#    16  16  16  16  16  16   8
#     4  10  18  36  60  93 130 156 191 252 317 374
#     4  11  21  38  61  96 129 156 192 249 326 369
#     4  10  20  31  58 100 128 155 188 240 327 386
#     4  12  22  36  65  96 124 157 201 257 319 366
#     4  11  24  43  63  86 121 163 207 255 294 369
#     4  11  23  42  61  87 128 166 209 257 292 373
#     4  10  28  46  60  80 118 176 222 248 298 340
#
# _framework density 20.371189000000001
#
# number of rings (size 3 to 8) (size 9 to 14) (size 15 to 20)
#    0.000    1.231    4.615    1.846    2.154    3.077 
#    0.000    0.000    0.000    3.692    0.000    0.000 
#    0.000    0.000    0.000    0.000    0.000    0.000 
#
# Total GULP energy -289986.442379 kJ/mol
# GULP energy per Si atom -5576.662353 kJ/mol
# Density = 2.032482 g / cm^3
# Si number density = 20.371189 Si / 1000 Ang^3
#
#
#
# Elastic Constant Matrix: (Units=GPa)
#
#
# Indices 1 2 3 4 5 6 
#
# 1 34.8028 11.0360 -6.0141 0.0000 0.0000 0.0000
# 2 11.0360 137.9339 0.2437 0.0000 0.0000 0.0000
# 3 -6.0141 0.2437 68.1290 0.0000 0.0000 0.0000
# 4 0.0000 0.0000 0.0000 21.0219 0.0000 0.0000
# 5 0.0000 0.0000 0.0000 0.0000 11.6821 0.0000
# 6 0.0000 0.0000 0.0000 0.0000 0.0000 22.7413
#
#
#
# Elastic Compliance Matrix: (Units=1/GPa)
#
#
# Indices 1 2 3 4 5 6 
#
# 1 0.029953 -0.002401 0.002653 0.000000 0.000000 0.000000
# 2 -0.002401 0.007442 -0.000239 0.000000 0.000000 0.000000
# 3 0.002653 -0.000239 0.014913 0.000000 0.000000 0.000000
# 4 0.000000 0.000000 0.000000 0.047570 0.000000 0.000000
# 5 0.000000 0.000000 0.000000 0.000000 0.085601 0.000000
# 6 0.000000 0.000000 0.000000 0.000000 0.000000 0.043973
#
#
# Mechanical properties :
#
#
# Convention : Reuss Voigt Hill
#
# Bulk Modulus (GPa) = 19.10790 27.93298 23.52044
# Shear Modulus (GPa) = 20.25348 26.79573 23.52461
#
# Velocity S-wave (km/s) = 3.15655 3.63074 3.40192
# Velocity P-wave (km/s) = 4.76291 5.59626 5.19632
#
# Compressibility (1/GPa) = 0.05233437
#
# Stress axis : x y z
#
# Youngs Moduli (GPa) = 33.38552 134.36540 67.05531
#
# Poissons Ratio (x) = 0.32264 -0.17788
# Poissons Ratio (y) = 0.08017 0.01600
# Poissons Ratio (z) = -0.08856 0.03206
#
# Static dielectric constant tensor:
#      x y z
#    x 1.744550 0.000000 0.000000 
#    y 0.000000 1.636270 0.000000 
#    z 0.000000 0.000000 1.751550 
# 
# From -- ./inp_files/55806.got.cif
#   From: 2010.05.17/outbox.cif.g08.bks.cpg/sg68_28_cif.got.tgz:55806.got - 2010.06.03 18:57:09.
