data_PCOD9505447
_publ_section_title
;
Structure prediction by ZEFSAII (Michael W. Deem and Ramdas Pophale) SiO2 
 PCOD9505447
Probable space group: C C C A
;
_chemical_formula_sum "Si O2"
_cell_formula_units_Z 96
_cell_length_a 17.515051
_cell_length_b 8.949073
_cell_length_c 27.603130
_cell_angle_alpha 90.000000
_cell_angle_beta 90.000000
_cell_angle_gamma 90.000000
_cell_volume 4326.610379
_symmetry_space_group_name_H-M "C C C A"
_symmetry_group_IT_number 68
_space_group.IT_coordinate_system_code '2'
_symmetry_cell_setting 'orthorhombic'
loop_
_space_group_symop_operation_xyz
x,y,z
-x,1/2-y,z
x,1/2-y,1/2-z
-x,y,1/2-z
-x,-y,-z
x,1/2+y,-z
-x,1/2+y,1/2+z
x,-y,1/2+z
1/2+x,1/2+y,z
1/2-x,-y,z
1/2+x,-y,1/2-z
1/2-x,1/2+y,1/2-z
1/2-x,1/2-y,-z
1/2+x,y,-z
1/2-x,y,1/2+z
1/2+x,1/2-y,1/2+z
loop_
_atom_site_type_symbol
_atom_site_label
_atom_site_fract_x
_atom_site_fract_y
_atom_site_fract_z
Si Si1 0.678189 0.918707 0.764115
Si Si2 0.140466 0.961805 0.932461
Si Si3 0.624021 0.260474 0.487325
Si Si4 0.385739 0.609663 0.176365
Si Si5 0.065796 0.057157 0.170288
Si Si6 0.043561 0.986372 0.560578
O O1 0.695637 0.750000 0.750000
O O2 0.750000 0.000000 0.788508
O O3 0.658154 0.017466 0.716959
O O4 0.606344 0.927786 0.799925
O O5 0.047267 0.968059 0.935830
O O6 0.166715 0.844676 0.973638
O O7 0.152051 0.917940 0.876555
O O8 0.165089 0.126721 0.950024
O O9 0.575311 0.367819 0.522415
O O10 0.572248 0.147495 0.456428
O O11 0.474576 0.556825 0.177060
O O12 0.396290 0.786053 0.186549
O O13 0.077736 0.046488 0.113039
#
# Coordination Sequence:
#
# PCOD9505447 Si02
#       6
#    16  16  16  16  16  16
#     4  12  27  46  67  87 111 151 201 252 307 366
#     4  10  17  27  46  78 121 163 196 232 284 340
#     4  10  17  26  44  76 121 164 199 234 277 338
#     4  10  21  38  61  92 128 161 194 242 301 353
#     4  10  21  38  61  92 128 161 194 242 301 353
#     4  10  17  27  46  78 121 163 196 232 284 340
#
# _framework density 22.188271
#
# number of rings (size 3 to 8) (size 9 to 14) (size 15 to 20)
#    0.000    1.667    1.667    6.000    2.333    2.667 
#    0.000    0.000    0.000    0.000    0.000    7.000 
#    0.000    0.000    0.000    0.000    0.000    0.000 
#
# Total GULP energy -268266.419838 kJ/mol
# GULP energy per Si atom -5588.883747 kJ/mol
# Density = 2.213777 g / cm^3
# Si number density = 22.188271 Si / 1000 Ang^3
#
#
#
# Elastic Constant Matrix: (Units=GPa)
#
#
# Indices 1 2 3 4 5 6 
#
# 1 48.8522 16.9362 1.3524 0.0000 0.0000 0.0000
# 2 16.9362 99.2079 -3.0664 0.0000 0.0000 0.0000
# 3 1.3524 -3.0664 63.0064 0.0000 0.0000 0.0000
# 4 0.0000 0.0000 0.0000 30.7282 0.0000 0.0000
# 5 0.0000 0.0000 0.0000 0.0000 -14.1781 0.0000
# 6 0.0000 0.0000 0.0000 0.0000 0.0000 10.7563
#
#
#
# Elastic Compliance Matrix: (Units=1/GPa)
#
#
# Indices 1 2 3 4 5 6 
#
# 1 0.021784 -0.003739 -0.000650 0.000000 0.000000 0.000000
# 2 -0.003739 0.010737 0.000603 0.000000 0.000000 0.000000
# 3 -0.000650 0.000603 0.015915 0.000000 0.000000 0.000000
# 4 0.000000 0.000000 0.000000 0.032543 0.000000 0.000000
# 5 0.000000 0.000000 0.000000 0.000000 -0.070531 0.000000
# 6 0.000000 0.000000 0.000000 0.000000 0.000000 0.092969
#
#
# Mechanical properties :
#
#
# Convention : Reuss Voigt Hill
#
# Bulk Modulus (GPa) = 24.47131 26.83455 25.65293
# Shear Modulus (GPa) = 40.12558 18.51758 29.32158
#
# Velocity S-wave (km/s) = 4.25716 2.89202 3.63917
# Velocity P-wave (km/s) = 5.93443 4.82410 5.40784
#
# Compressibility (1/GPa) = 0.04086419
#
# Stress axis : x y z
#
# Youngs Moduli (GPa) = 45.90496 93.13795 62.83507
#
# Poissons Ratio (x) = 0.34824 0.04081
# Poissons Ratio (y) = 0.17164 -0.03788
# Poissons Ratio (z) = 0.02982 -0.05614
#
# Static dielectric constant tensor:
#      x y z
#    x 1.826690 0.000000 0.000000 
#    y 0.000000 1.829120 0.000000 
#    z 0.000000 0.000000 1.815350 
# 
# From -- ./inp_files/51754.got.cif
#   From: 2010.05.17/outbox.cif.g08.bks.cpg/sg68_26_cif.got.tgz:51754.got - 2010.06.03 18:57:09.
