data_PCOD9505753
_publ_section_title
;
Structure prediction by ZEFSAII (Michael W. Deem and Ramdas Pophale) SiO2 
 PCOD9505753
Probable space group: C C C A
;
_chemical_formula_sum "Si O2"
_cell_formula_units_Z 112
_cell_length_a 25.101729
_cell_length_b 11.534540
_cell_length_c 17.845730
_cell_angle_alpha 90.000000
_cell_angle_beta 90.000000
_cell_angle_gamma 90.000000
_cell_volume 5166.997293
_symmetry_space_group_name_H-M "C C C A"
_symmetry_group_IT_number 68
_space_group.IT_coordinate_system_code '2'
_symmetry_cell_setting 'orthorhombic'
loop_
_space_group_symop_operation_xyz
x,y,z
-x,1/2-y,z
x,1/2-y,1/2-z
-x,y,1/2-z
-x,-y,-z
x,1/2+y,-z
-x,1/2+y,1/2+z
x,-y,1/2+z
1/2+x,1/2+y,z
1/2-x,-y,z
1/2+x,-y,1/2-z
1/2-x,1/2+y,1/2-z
1/2-x,1/2-y,-z
1/2+x,y,-z
1/2-x,y,1/2+z
1/2+x,1/2-y,1/2+z
loop_
_atom_site_type_symbol
_atom_site_label
_atom_site_fract_x
_atom_site_fract_y
_atom_site_fract_z
Si Si1 0.548202 0.466964 0.395306
Si Si2 0.778862 0.119992 0.217187
Si Si3 0.102920 0.829324 0.813647
Si Si4 0.629321 0.715419 0.923854
Si Si5 0.931517 0.944418 0.436120
Si Si6 0.255195 0.738886 0.910613
Si Si7 0.348827 0.370929 0.914102
O O1 0.563674 0.578081 0.347643
O O2 0.591511 0.368265 0.376163
O O3 0.486165 0.436361 0.389885
O O4 0.556553 0.496428 0.483644
O O5 0.763722 0.250000 0.250000
O O6 0.843106 0.114213 0.221675
O O7 0.765065 0.144415 0.129748
O O8 0.750000 0.000000 0.239676
O O9 0.077631 0.750000 0.750000
O O10 0.124008 0.742009 0.877648
O O11 0.591760 0.818447 0.950926
O O12 0.682888 0.770148 0.889591
O O13 0.649312 0.643801 0.996131
O O14 0.885613 0.020017 0.396333
O O15 0.212993 0.637171 0.889736
O O16 0.250000 0.750000 0.000000
#
# Coordination Sequence:
#
# PCOD9505753 Si02
#       7
#    16  16  16  16  16  16  16
#     4  10  20  34  56  84 114 154 202 241 301 358
#     4  10  21  40  62  89 124 168 212 257 312 379
#     4  10  20  38  61  82 117 155 202 251 291 357
#     4  10  18  34  56  84 116 153 188 247 311 364
#     4  10  20  33  55  83 120 155 189 251 300 359
#     4   9  19  36  56  90 119 157 195 255 315 371
#     4   9  19  35  52  85 117 146 198 241 303 365
#
# _framework density 21.676033
#
# number of rings (size 3 to 8) (size 9 to 14) (size 15 to 20)
#    0.000    2.286    1.429    1.286    0.000    1.143 
#    7.714    1.429    0.000    0.000    0.000    2.000 
#    0.000    0.000    0.000    0.000    0.000    0.000 
#
# Total GULP energy -312084.806163 kJ/mol
# GULP energy per Si atom -5572.942967 kJ/mol
# Density = 2.162670 g / cm^3
# Si number density = 21.676033 Si / 1000 Ang^3
#
#
#
# Elastic Constant Matrix: (Units=GPa)
#
#
# Indices 1 2 3 4 5 6 
#
# 1 143.8635 46.4821 23.0308 0.0000 0.0000 0.0000
# 2 46.4821 69.8254 16.3199 0.0000 0.0000 0.0000
# 3 23.0308 16.3199 31.4756 0.0000 0.0000 0.0000
# 4 0.0000 0.0000 0.0000 32.0426 0.0000 0.0000
# 5 0.0000 0.0000 0.0000 0.0000 6.8674 0.0000
# 6 0.0000 0.0000 0.0000 0.0000 0.0000 -9.4418
#
#
#
# Elastic Compliance Matrix: (Units=1/GPa)
#
#
# Indices 1 2 3 4 5 6 
#
# 1 0.009296 -0.005233 -0.004089 0.000000 0.000000 0.000000
# 2 -0.005233 0.019242 -0.006148 0.000000 0.000000 0.000000
# 3 -0.004089 -0.006148 0.037950 0.000000 0.000000 0.000000
# 4 0.000000 0.000000 0.000000 0.031208 0.000000 0.000000
# 5 0.000000 0.000000 0.000000 0.000000 0.145615 0.000000
# 6 0.000000 0.000000 0.000000 0.000000 0.000000 -0.105912
#
#
# Mechanical properties :
#
#
# Convention : Reuss Voigt Hill
#
# Bulk Modulus (GPa) = 28.13019 46.31445 37.22232
# Shear Modulus (GPa) = 27.74870 16.51576 22.13223
#
# Velocity S-wave (km/s) = 3.58181 2.76331 3.19885
# Velocity P-wave (km/s) = 5.48740 5.62088 5.55454
#
# Compressibility (1/GPa) = 0.03554899
#
# Stress axis : x y z
#
# Youngs Moduli (GPa) = 107.56920 51.97031 26.35033
#
# Poissons Ratio (x) = 0.27195 0.10775
# Poissons Ratio (y) = 0.56289 0.16200
# Poissons Ratio (z) = 0.43985 0.31951
#
# Static dielectric constant tensor:
#      x y z
#    x 1.829080 0.000000 0.000000 
#    y 0.000000 1.782410 0.000000 
#    z 0.000000 0.000000 1.860410 
# 
# From -- ./inp_files/40901.got.cif
#   From: 2010.05.17/outbox.cif.g08.bks.cpg/sg68_21_cif.got.tgz:40901.got - 2010.06.03 18:57:09.
