data_PCOD9505636
_publ_section_title
;
Structure prediction by ZEFSAII (Michael W. Deem and Ramdas Pophale) SiO2 
 PCOD9505636
Probable space group: C C C A
;
_chemical_formula_sum "Si O2"
_cell_formula_units_Z 112
_cell_length_a 28.441212
_cell_length_b 13.431028
_cell_length_c 16.077069
_cell_angle_alpha 90.000000
_cell_angle_beta 90.000000
_cell_angle_gamma 90.000000
_cell_volume 6141.355386
_symmetry_space_group_name_H-M "C C C A"
_symmetry_group_IT_number 68
_space_group.IT_coordinate_system_code '2'
_symmetry_cell_setting 'orthorhombic'
loop_
_space_group_symop_operation_xyz
x,y,z
-x,1/2-y,z
x,1/2-y,1/2-z
-x,y,1/2-z
-x,-y,-z
x,1/2+y,-z
-x,1/2+y,1/2+z
x,-y,1/2+z
1/2+x,1/2+y,z
1/2-x,-y,z
1/2+x,-y,1/2-z
1/2-x,1/2+y,1/2-z
1/2-x,1/2-y,-z
1/2+x,y,-z
1/2-x,y,1/2+z
1/2+x,1/2-y,1/2+z
loop_
_atom_site_type_symbol
_atom_site_label
_atom_site_fract_x
_atom_site_fract_y
_atom_site_fract_z
Si Si1 0.353970 0.327284 0.044551
Si Si2 0.054893 0.629983 0.745943
Si Si3 0.207779 0.922165 0.780480
Si Si4 0.858434 0.902796 0.861209
Si Si5 0.660749 0.597644 0.544169
Si Si6 0.616445 0.485898 0.880611
Si Si7 0.751279 0.851659 0.551632
O O1 0.349708 0.211781 0.068645
O O2 0.389483 0.397783 0.095334
O O3 0.303046 0.378501 0.058752
O O4 0.360955 0.337909 0.945265
O O5 0.058733 0.750000 0.750000
O O6 0.090737 0.597673 0.818500
O O7 0.075808 0.574683 0.665325
O O8 0.000000 0.604871 0.750000
O O9 0.183865 0.869987 0.700589
O O10 0.162084 0.975104 0.821114
O O11 0.227666 0.853521 0.855390
O O12 0.250000 0.000000 0.760568
O O13 0.846098 0.016010 0.885661
O O14 0.627289 0.568186 0.467613
O O15 0.712982 0.587301 0.505755
O O16 0.750000 0.750000 0.500000
#
# Coordination Sequence:
#
# PCOD9505636 Si02
#       7
#    16  16  16  16  16  16  16
#     4  10  18  34  55  78 117 154 192 235 278 340
#     4  10  21  40  62  83 109 138 183 247 307 358
#     4  10  18  31  50  76 114 146 188 232 280 324
#     4  10  22  33  58  84 108 148 192 238 289 344
#     4   9  19  33  53  81 114 151 193 230 274 340
#     4   9  18  33  57  79 106 151 180 233 291 340
#     4   9  18  32  51  73 110 163 197 224 272 334
#
# _framework density 18.237016000000001
#
# number of rings (size 3 to 8) (size 9 to 14) (size 15 to 20)
#    0.000    2.429    1.429    0.857    2.000    1.143 
#    0.000    5.714    0.000    3.429    0.000    0.000 
#    0.000    0.000    0.000    0.000    0.000    0.000 
#
# Total GULP energy -311854.508787 kJ/mol
# GULP energy per Si atom -5568.830514 kJ/mol
# Density = 1.819551 g / cm^3
# Si number density = 18.237016 Si / 1000 Ang^3
#
#
#
# Elastic Constant Matrix: (Units=GPa)
#
#
# Indices 1 2 3 4 5 6 
#
# 1 110.3836 30.3690 42.7609 0.0000 0.0000 0.0000
# 2 30.3690 94.7538 14.8580 0.0000 0.0000 0.0000
# 3 42.7609 14.8580 76.9502 0.0000 0.0000 0.0000
# 4 0.0000 0.0000 0.0000 22.1854 0.0000 0.0000
# 5 0.0000 0.0000 0.0000 0.0000 14.1693 0.0000
# 6 0.0000 0.0000 0.0000 0.0000 0.0000 21.5246
#
#
#
# Elastic Compliance Matrix: (Units=1/GPa)
#
#
# Indices 1 2 3 4 5 6 
#
# 1 0.012300 -0.002960 -0.006264 0.000000 0.000000 0.000000
# 2 -0.002960 0.011596 -0.000594 0.000000 0.000000 0.000000
# 3 -0.006264 -0.000594 0.016591 0.000000 0.000000 0.000000
# 4 0.000000 0.000000 0.000000 0.045075 0.000000 0.000000
# 5 0.000000 0.000000 0.000000 0.000000 0.070575 0.000000
# 6 0.000000 0.000000 0.000000 0.000000 0.000000 0.046459
#
#
# Mechanical properties :
#
#
# Convention : Reuss Voigt Hill
#
# Bulk Modulus (GPa) = 47.95923 50.89594 49.42758
# Shear Modulus (GPa) = 21.81687 24.51583 23.16635
#
# Velocity S-wave (km/s) = 3.46250 3.67043 3.56798
# Velocity P-wave (km/s) = 6.50692 6.77727 6.64347
#
# Compressibility (1/GPa) = 0.02085105
#
# Stress axis : x y z
#
# Youngs Moduli (GPa) = 81.30005 86.24011 60.27451
#
# Poissons Ratio (x) = 0.25528 0.37753
# Poissons Ratio (y) = 0.24065 0.03580
# Poissons Ratio (z) = 0.50923 0.05123
#
# Static dielectric constant tensor:
#      x y z
#    x 1.627320 0.000000 0.000000 
#    y 0.000000 1.688130 0.000000 
#    z 0.000000 0.000000 1.678840 
# 
# From -- ./inp_files/26050.got.cif
#   From: 2010.05.17/outbox.cif.g08.bks.cpg/sg68_14_cif.got.tgz:26050.got - 2010.06.03 18:57:09.
