data_PCOD9505643
_publ_section_title
;
Structure prediction by ZEFSAII (Michael W. Deem and Ramdas Pophale) SiO2 
 PCOD9505643
Probable space group: C C C A
;
_chemical_formula_sum "Si O2"
_cell_formula_units_Z 48
_cell_length_a 5.135778
_cell_length_b 14.125137
_cell_length_c 24.748055
_cell_angle_alpha 90.000000
_cell_angle_beta 90.000000
_cell_angle_gamma 90.000000
_cell_volume 1795.312207
_symmetry_space_group_name_H-M "C C C A"
_symmetry_group_IT_number 68
_space_group.IT_coordinate_system_code '2'
_symmetry_cell_setting 'orthorhombic'
loop_
_space_group_symop_operation_xyz
x,y,z
-x,1/2-y,z
x,1/2-y,1/2-z
-x,y,1/2-z
-x,-y,-z
x,1/2+y,-z
-x,1/2+y,1/2+z
x,-y,1/2+z
1/2+x,1/2+y,z
1/2-x,-y,z
1/2+x,-y,1/2-z
1/2-x,1/2+y,1/2-z
1/2-x,1/2-y,-z
1/2+x,y,-z
1/2-x,y,1/2+z
1/2+x,1/2-y,1/2+z
loop_
_atom_site_type_symbol
_atom_site_label
_atom_site_fract_x
_atom_site_fract_y
_atom_site_fract_z
Si Si1 0.205070 0.613448 0.798077
Si Si2 0.781469 0.613882 0.356475
Si Si3 0.801451 0.144123 0.522282
O O1 0.250000 0.500000 0.792951
O O2 0.500415 0.644873 0.812273
O O3 0.000000 0.638253 0.750000
O O4 0.017279 0.643930 0.847277
O O5 0.750000 0.500000 0.353017
O O6 0.878155 0.641545 0.415472
O O7 0.750000 0.250000 0.500000
O O8 0.519786 0.098786 0.515113
#
# Coordination Sequence:
#
# PCOD9505643 Si02
#       3
#    16  16  16
#     4  10  18  31  51  80 118 151 177 219 280 340
#     4  10  20  32  52  83 115 146 186 232 274 328
#     4  10  21  37  55  77 106 150 196 236 284 333
#
# _framework density 26.736294999999998
#
# number of rings (size 3 to 8) (size 9 to 14) (size 15 to 20)
#    0.000    2.000    0.000    6.000    0.000    1.333 
#    0.000    0.000    0.000    0.000    0.000   70.000 
#    0.000    0.000    0.000    0.000    0.000    1.333 
#
# Total GULP energy -133880.531792 kJ/mol
# GULP energy per Si atom -5578.355491 kJ/mol
# Density = 2.667544 g / cm^3
# Si number density = 26.736295 Si / 1000 Ang^3
#
#
#
# Elastic Constant Matrix: (Units=GPa)
#
#
# Indices 1 2 3 4 5 6 
#
# 1 234.2674 -4.7879 45.3196 0.0000 0.0000 0.0000
# 2 -4.7879 139.6451 -1.8170 0.0000 0.0000 0.0000
# 3 45.3196 -1.8170 142.5146 0.0000 0.0000 0.0000
# 4 0.0000 0.0000 0.0000 38.5111 0.0000 0.0000
# 5 0.0000 0.0000 0.0000 0.0000 46.6558 0.0000
# 6 0.0000 0.0000 0.0000 0.0000 0.0000 -18.8093
#
#
#
# Elastic Compliance Matrix: (Units=1/GPa)
#
#
# Indices 1 2 3 4 5 6 
#
# 1 0.004551 0.000137 -0.001445 0.000000 0.000000 0.000000
# 2 0.000137 0.007166 0.000048 0.000000 0.000000 0.000000
# 3 -0.001445 0.000048 0.007477 0.000000 0.000000 0.000000
# 4 0.000000 0.000000 0.000000 0.025967 0.000000 0.000000
# 5 0.000000 0.000000 0.000000 0.000000 0.021434 0.000000
# 6 0.000000 0.000000 0.000000 0.000000 0.000000 -0.053165
#
#
# Mechanical properties :
#
#
# Convention : Reuss Voigt Hill
#
# Bulk Modulus (GPa) = 59.97560 65.98404 62.97982
# Shear Modulus (GPa) = 232.46838 45.11901 138.79370
#
# Velocity S-wave (km/s) = 9.33474 4.11244 7.21282
# Velocity P-wave (km/s) = 11.77557 6.87625 9.64227
#
# Compressibility (1/GPa) = 0.01667345
#
# Stress axis : x y z
#
# Youngs Moduli (GPa) = 219.72884 139.54129 133.74174
#
# Poissons Ratio (x) = -0.01915 0.19332
# Poissons Ratio (y) = -0.03015 -0.00638
# Poissons Ratio (z) = 0.31761 -0.00666
#
# Static dielectric constant tensor:
#      x y z
#    x 2.168310 0.000000 0.000000 
#    y 0.000000 2.015080 0.000000 
#    z 0.000000 0.000000 2.119720 
# 
# From -- ./inp_files/34759.got.cif
#   From: 2010.05.17/outbox.cif.g08.bks.cpg/sg68_18_cif.got.tgz:34759.got - 2010.06.03 18:57:09.
