data_PCOD9505578
_publ_section_title
;
Structure prediction by ZEFSAII (Michael W. Deem and Ramdas Pophale) SiO2 
 PCOD9505578
Probable space group: C C C A
;
_chemical_formula_sum "Si O2"
_cell_formula_units_Z 128
_cell_length_a 12.536397
_cell_length_b 25.090024
_cell_length_c 24.251880
_cell_angle_alpha 90.000000
_cell_angle_beta 90.000000
_cell_angle_gamma 90.000000
_cell_volume 7628.149996
_symmetry_space_group_name_H-M "C C C A"
_symmetry_group_IT_number 68
_space_group.IT_coordinate_system_code '2'
_symmetry_cell_setting 'orthorhombic'
loop_
_space_group_symop_operation_xyz
x,y,z
-x,1/2-y,z
x,1/2-y,1/2-z
-x,y,1/2-z
-x,-y,-z
x,1/2+y,-z
-x,1/2+y,1/2+z
x,-y,1/2+z
1/2+x,1/2+y,z
1/2-x,-y,z
1/2+x,-y,1/2-z
1/2-x,1/2+y,1/2-z
1/2-x,1/2-y,-z
1/2+x,y,-z
1/2-x,y,1/2+z
1/2+x,1/2-y,1/2+z
loop_
_atom_site_type_symbol
_atom_site_label
_atom_site_fract_x
_atom_site_fract_y
_atom_site_fract_z
Si Si1 0.830778 0.543546 0.867089
Si Si2 0.974250 0.687122 0.463730
Si Si3 0.653001 0.887333 0.932293
Si Si4 0.187639 0.945774 0.637558
Si Si5 0.474177 0.003305 0.063546
Si Si6 0.501386 0.613080 0.189027
Si Si7 0.969227 0.311256 0.414002
Si Si8 0.754164 0.636627 0.946446
O O1 0.750000 0.500000 0.844040
O O2 0.769623 0.584686 0.907828
O O3 0.920859 0.512204 0.902351
O O4 0.896243 0.577782 0.822830
O O5 0.860509 0.665024 0.443705
O O6 0.000000 0.750000 0.463812
O O7 0.071914 0.661529 0.430301
O O8 0.979675 0.669476 0.528212
O O9 0.735227 0.898883 0.883270
O O10 0.575739 0.938565 0.929474
O O11 0.714144 0.880895 0.991036
O O12 0.104137 0.924847 0.682017
O O13 0.250000 0.000000 0.653659
O O14 0.116832 0.962993 0.584503
O O15 0.500000 0.000000 0.000000
O O16 0.500000 0.636735 0.250000
O O17 0.504099 0.654722 0.138659
O O18 0.844047 0.321785 0.425228
O O19 0.000000 0.250000 0.406342
#
# Coordination Sequence:
#
# PCOD9505578 Si02
#       8
#    16  16  16  16  16  16  16  16
#     4  10  20  31  49  75 102 133 166 201 244 293
#     4  10  21  33  48  73 104 139 167 192 244 306
#     4  10  19  29  48  70 103 139 164 197 237 294
#     4   9  20  32  47  74 102 133 168 198 241 296
#     4  10  18  28  46  74 105 134 165 193 237 293
#     4  10  21  37  53  71  96 127 170 219 254 286
#     4   9  20  35  51  73  98 126 167 211 251 298
#     4  10  19  30  48  72 104 136 166 196 235 298
#
# _framework density 16.779952000000002
#
# number of rings (size 3 to 8) (size 9 to 14) (size 15 to 20)
#    0.000    2.250    1.250    1.500    5.250    6.250 
#    0.000    0.000    0.000    0.000    0.000    0.000 
#    0.000    4.000    0.000    0.000    0.000    0.000 
#
# Total GULP energy -356606.843913 kJ/mol
# GULP energy per Si atom -5571.981936 kJ/mol
# Density = 1.674176 g / cm^3
# Si number density = 16.779952 Si / 1000 Ang^3
#
#
#
# Elastic Constant Matrix: (Units=GPa)
#
#
# Indices 1 2 3 4 5 6 
#
# 1 92.5466 44.9745 19.7067 0.0000 0.0000 0.0000
# 2 44.9745 68.9814 11.3593 0.0000 0.0000 0.0000
# 3 19.7067 11.3593 36.6250 0.0000 0.0000 0.0000
# 4 0.0000 0.0000 0.0000 11.7929 0.0000 0.0000
# 5 0.0000 0.0000 0.0000 0.0000 3.8665 0.0000
# 6 0.0000 0.0000 0.0000 0.0000 0.0000 29.4708
#
#
#
# Elastic Compliance Matrix: (Units=1/GPa)
#
#
# Indices 1 2 3 4 5 6 
#
# 1 0.016986 -0.010085 -0.006012 0.000000 0.000000 0.000000
# 2 -0.010085 0.021264 -0.001169 0.000000 0.000000 0.000000
# 3 -0.006012 -0.001169 0.030901 0.000000 0.000000 0.000000
# 4 0.000000 0.000000 0.000000 0.084797 0.000000 0.000000
# 5 0.000000 0.000000 0.000000 0.000000 0.258629 0.000000
# 6 0.000000 0.000000 0.000000 0.000000 0.000000 0.033932
#
#
# Mechanical properties :
#
#
# Convention : Reuss Voigt Hill
#
# Bulk Modulus (GPa) = 28.88461 38.91488 33.89975
# Shear Modulus (GPa) = 10.15060 17.16688 13.65874
#
# Velocity S-wave (km/s) = 2.46219 3.20200 2.85615
# Velocity P-wave (km/s) = 5.03332 6.07553 5.57881
#
# Compressibility (1/GPa) = 0.03462051
#
# Stress axis : x y z
#
# Youngs Moduli (GPa) = 58.87055 47.02729 32.36124
#
# Poissons Ratio (x) = 0.47426 0.19456
# Poissons Ratio (y) = 0.59370 0.03783
# Poissons Ratio (z) = 0.35393 0.05497
#
# Static dielectric constant tensor:
#      x y z
#    x 1.559700 0.000000 0.000000 
#    y 0.000000 1.580380 0.000000 
#    z 0.000000 0.000000 1.541840 
# 
# From -- ./inp_files/44740.got.cif
#   From: 2010.05.17/outbox.cif.g08.bks.cpg/sg68_23_cif.got.tgz:44740.got - 2010.06.03 18:57:09.
