data_PCOD9505288
_publ_section_title
;
Structure prediction by ZEFSAII (Michael W. Deem and Ramdas Pophale) SiO2 
 PCOD9505288
Probable space group: C M M A
;
_chemical_formula_sum "Si O2"
_cell_formula_units_Z 36
_cell_length_a 9.000000
_cell_length_b 15.000000
_cell_length_c 27.000000
_cell_angle_alpha 90.000000
_cell_angle_beta 90.000000
_cell_angle_gamma 90.000000
_cell_volume 3645.000000
_symmetry_space_group_name_H-M "C M M A"
_symmetry_group_IT_number 67
_symmetry_cell_setting 'orthorhombic'
loop_
_space_group_symop_operation_xyz
x,y,z
-x,1/2-y,z
x,-y,-z
-x,1/2+y,-z
-x,-y,-z
x,1/2+y,-z
-x,y,z
x,1/2-y,z
1/2+x,1/2+y,z
1/2-x,-y,z
1/2+x,1/2-y,-z
1/2-x,y,-z
1/2-x,1/2-y,-z
1/2+x,y,-z
1/2-x,1/2+y,z
1/2+x,-y,z
loop_
_atom_site_type_symbol
_atom_site_label
_atom_site_fract_x
_atom_site_fract_y
_atom_site_fract_z
Si Si1 0.835951 0.750000 0.297744
Si Si2 0.670490 0.406477 0.376766
Si Si3 0.169061 0.750000 0.794174
Si Si4 0.676395 0.086061 0.156650
Si Si5 0.322702 0.354943 0.049767
Si Si6 0.181360 0.250000 0.553303
O O1 0.831133 0.660494 0.330121
O O2 0.692721 0.750000 0.263862
O O3 0.000000 0.750000 0.272146
O O4 0.500000 0.427235 0.389162
O O5 0.750000 0.500000 0.369296
O O6 0.731501 0.340287 0.418997
O O7 0.257805 0.667434 0.814682
O O8 0.000000 0.750000 0.810220
O O9 0.500000 0.083524 0.157973
O O10 0.725173 0.097430 0.099596
O O11 0.750000 0.000000 0.178942
O O12 0.500000 0.360504 0.045610
O O13 0.283632 0.250000 0.054852
O O14 0.250000 0.389762 0.000000
O O15 0.250000 0.250000 0.500000
O O16 0.000000 0.250000 0.554612
#
# Coordination Sequence:
#
# PCOD9505288 Si02
#       6
#     8  16   8  16  16   8
#     4   9  20  40  61  80 110 150 185 233 292 344
#     4   9  19  36  58  83 113 150 193 238 287 337
#     4  12  25  41  62  88 115 149 189 234 291 350
#     4  11  23  41  61  85 116 150 189 232 281 339
#     4   9  18  34  56  81 110 146 183 224 275 329
#     4   9  19  35  53  80 118 159 198 235 281 334
#
# _framework density 9.8765429999999999
#
# number of rings (size 3 to 8) (size 9 to 14) (size 15 to 20)
#    0.000    2.222    1.111    3.000    0.000    5.333 
#    0.000    8.889    0.000    0.000    0.000    0.000 
#    0.000    0.000    0.000    0.000    0.000    0.000 
#
# Total GULP energy -200571.376080 kJ/mol
# GULP energy per Si atom -5571.427113 kJ/mol
# Density = 0.985406 g / cm^3
# Si number density = 9.876543 Si / 1000 Ang^3
#
#
#
# Elastic Constant Matrix: (Units=GPa)
#
#
# Indices 1 2 3 4 5 6 
#
# 1 25.1709 46.7767 24.9356 0.0000 0.0000 0.0000
# 2 46.7767 164.5144 33.3058 0.0000 0.0000 0.0000
# 3 24.9356 33.3058 43.1558 0.0000 0.0000 0.0000
# 4 0.0000 0.0000 0.0000 -30.8716 0.0000 0.0000
# 5 0.0000 0.0000 0.0000 0.0000 26.3960 0.0000
# 6 0.0000 0.0000 0.0000 0.0000 0.0000 35.9340
#
#
#
# Elastic Compliance Matrix: (Units=1/GPa)
#
#
# Indices 1 2 3 4 5 6 
#
# 1 0.188606 -0.037409 -0.080106 0.000000 0.000000 0.000000
# 2 -0.037409 0.014624 0.010329 0.000000 0.000000 0.000000
# 3 -0.080106 0.010329 0.061486 0.000000 0.000000 0.000000
# 4 0.000000 0.000000 0.000000 -0.032392 0.000000 0.000000
# 5 0.000000 0.000000 0.000000 0.000000 0.037884 0.000000
# 6 0.000000 0.000000 0.000000 0.000000 0.000000 0.027829
#
#
# Mechanical properties :
#
#
# Convention : Reuss Voigt Hill
#
# Bulk Modulus (GPa) = 19.86375 49.20859 34.53617
# Shear Modulus (GPa) = 9.44837 14.81322 12.13079
#
# Velocity S-wave (km/s) = 2.18943 2.74144 2.48084
# Velocity P-wave (km/s) = 4.05824 5.91494 5.07227
#
# Compressibility (1/GPa) = 0.05034296
#
# Stress axis : x y z
#
# Youngs Moduli (GPa) = 5.30205 68.38050 16.26383
#
# Poissons Ratio (x) = 2.55806 1.30284
# Poissons Ratio (y) = 0.19835 -0.16799
# Poissons Ratio (z) = 0.42473 -0.70630
#
# Static dielectric constant tensor:
#      x y z
#    x 1.668130 0.000000 0.000000 
#    y 0.000000 1.628270 0.000000 
#    z 0.000000 0.000000 1.746490 
# 
# From -- ./inp_files/43160.got.cif
#   From: 2010.05.17/outbox.ucp.g08.bks.cvg/sg67_22_cif.got.tgz:43160.got - 2010.06.11 16:47:20.
