data_PCOD9505589
_publ_section_title
;
Structure prediction by ZEFSAII (Michael W. Deem and Ramdas Pophale) SiO2 
 PCOD9505589
Probable space group: C C C A
;
_chemical_formula_sum "Si O2"
_cell_formula_units_Z 88
_cell_length_a 5.583481
_cell_length_b 37.232047
_cell_length_c 18.142295
_cell_angle_alpha 90.000000
_cell_angle_beta 90.000000
_cell_angle_gamma 90.000000
_cell_volume 3771.500601
_symmetry_space_group_name_H-M "C C C A"
_symmetry_group_IT_number 68
_space_group.IT_coordinate_system_code '2'
_symmetry_cell_setting 'orthorhombic'
loop_
_space_group_symop_operation_xyz
x,y,z
-x,1/2-y,z
x,1/2-y,1/2-z
-x,y,1/2-z
-x,-y,-z
x,1/2+y,-z
-x,1/2+y,1/2+z
x,-y,1/2+z
1/2+x,1/2+y,z
1/2-x,-y,z
1/2+x,-y,1/2-z
1/2-x,1/2+y,1/2-z
1/2-x,1/2-y,-z
1/2+x,y,-z
1/2-x,y,1/2+z
1/2+x,1/2-y,1/2+z
loop_
_atom_site_type_symbol
_atom_site_label
_atom_site_fract_x
_atom_site_fract_y
_atom_site_fract_z
Si Si1 0.917335 0.622107 0.495093
Si Si2 0.000000 0.250000 0.953427
Si Si3 0.612340 0.846786 0.344682
Si Si4 0.400782 0.178213 0.361508
Si Si5 0.746312 0.457397 0.338582
Si Si6 0.237447 0.570766 0.829487
O O1 0.667417 0.601876 0.500134
O O2 0.906592 0.649397 0.565332
O O3 0.912045 0.645679 0.421472
O O4 0.056380 0.215422 0.903328
O O5 0.250000 0.250000 0.000000
O O6 0.358456 0.828880 0.325330
O O7 0.671515 0.887419 0.319812
O O8 0.847983 0.825915 0.320006
O O9 0.750000 0.500000 0.346952
O O10 0.753291 0.447470 0.251255
O O11 0.498523 0.438267 0.363375
O O12 0.001145 0.444098 0.369474
#
# Coordination Sequence:
#
# PCOD9505589 Si02
#       6
#    16   8  16  16  16  16
#     4   8  14  25  38  54  83 116 144 185 222 248
#     4  12  20  30  48  68  92 137 176 195 248 302
#     4  10  18  29  43  65  95 123 159 196 228 282
#     4  10  19  30  43  64  96 127 160 203 235 272
#     4  10  19  33  50  73 103 121 144 189 239 298
#     4  10  18  29  48  70  96 129 151 178 238 296
#
# _framework density 23.332889000000002
#
# number of rings (size 3 to 8) (size 9 to 14) (size 15 to 20)
#    0.000    2.182    0.000    8.182    0.000    0.000 
#    0.000    0.000    0.000    0.000    0.000    0.000 
#    0.000  266.182    0.000    0.000    0.000    0.000 
#
# Total GULP energy -245202.964469 kJ/mol
# GULP energy per Si atom -5572.794647 kJ/mol
# Density = 2.327978 g / cm^3
# Si number density = 23.332889 Si / 1000 Ang^3
#
#
#
# Elastic Constant Matrix: (Units=GPa)
#
#
# Indices 1 2 3 4 5 6 
#
# 1 365.8639 93.0801 39.9036 0.0000 0.0000 0.0000
# 2 93.0801 154.1618 5.1754 0.0000 0.0000 0.0000
# 3 39.9036 5.1754 54.5073 0.0000 0.0000 0.0000
# 4 0.0000 0.0000 0.0000 24.4591 0.0000 0.0000
# 5 0.0000 0.0000 0.0000 0.0000 23.8415 0.0000
# 6 0.0000 0.0000 0.0000 0.0000 0.0000 33.9470
#
#
#
# Elastic Compliance Matrix: (Units=1/GPa)
#
#
# Indices 1 2 3 4 5 6 
#
# 1 0.003512 -0.002040 -0.002377 0.000000 0.000000 0.000000
# 2 -0.002040 0.007693 0.000763 0.000000 0.000000 0.000000
# 3 -0.002377 0.000763 0.020014 0.000000 0.000000 0.000000
# 4 0.000000 0.000000 0.000000 0.040884 0.000000 0.000000
# 5 0.000000 0.000000 0.000000 0.000000 0.041944 0.000000
# 6 0.000000 0.000000 0.000000 0.000000 0.000000 0.029458
#
#
# Mechanical properties :
#
#
# Convention : Reuss Voigt Hill
#
# Bulk Modulus (GPa) = 41.82318 94.53903 68.18110
# Shear Modulus (GPa) = 31.48955 45.54113 38.51534
#
# Velocity S-wave (km/s) = 3.67765 4.42271 4.06727
# Velocity P-wave (km/s) = 5.99974 8.16615 7.16529
#
# Compressibility (1/GPa) = 0.02391019
#
# Stress axis : x y z
#
# Youngs Moduli (GPa) = 284.76809 129.98729 49.96539
#
# Poissons Ratio (x) = 0.26523 0.11877
# Poissons Ratio (y) = 0.58106 -0.03814
# Poissons Ratio (z) = 0.67691 -0.09922
#
# Static dielectric constant tensor:
#      x y z
#    x 2.034430 0.000000 0.000000 
#    y 0.000000 1.868840 0.000000 
#    z 0.000000 0.000000 2.000020 
# 
# From -- ./inp_files/42391.got.cif
#   From: 2010.05.17/outbox.cif.g08.bks.cpg/sg68_22_cif.got.tgz:42391.got - 2010.06.03 18:57:09.
