data_PCOD9505159
_publ_section_title
;
Structure prediction by ZEFSAII (Michael W. Deem and Ramdas Pophale) SiO2 
 PCOD9505159
Probable space group: C M M A
;
_chemical_formula_sum "Si O2"
_cell_formula_units_Z 44
_cell_length_a 21.000000
_cell_length_b 24.000000
_cell_length_c 9.000000
_cell_angle_alpha 90.000000
_cell_angle_beta 90.000000
_cell_angle_gamma 90.000000
_cell_volume 4536.000000
_symmetry_space_group_name_H-M "C M M A"
_symmetry_group_IT_number 67
_symmetry_cell_setting 'orthorhombic'
loop_
_space_group_symop_operation_xyz
x,y,z
-x,1/2-y,z
x,-y,-z
-x,1/2+y,-z
-x,-y,-z
x,1/2+y,-z
-x,y,z
x,1/2-y,z
1/2+x,1/2+y,z
1/2-x,-y,z
1/2+x,1/2-y,-z
1/2-x,y,-z
1/2-x,1/2-y,-z
1/2+x,y,-z
1/2-x,1/2+y,z
1/2+x,-y,z
loop_
_atom_site_type_symbol
_atom_site_label
_atom_site_fract_x
_atom_site_fract_y
_atom_site_fract_z
Si Si1 0.896501 0.865573 0.841167
Si Si2 0.411323 0.750000 0.309437
Si Si3 0.615373 0.366577 0.199006
Si Si4 0.427307 0.250000 0.336664
Si Si5 0.738930 0.250000 0.675167
Si Si6 0.000000 0.062059 0.308255
Si Si7 0.250989 0.365104 0.822601
Si Si8 0.000000 0.430163 0.652339
O O1 0.925654 0.807919 0.774686
O O2 0.939907 0.915063 0.782092
O O3 0.824211 0.877137 0.782512
O O4 0.893866 0.861157 0.020374
O O5 0.429009 0.750000 0.483188
O O6 0.335829 0.750000 0.306249
O O7 0.605160 0.306061 0.275407
O O8 0.685316 0.394005 0.226808
O O9 0.561442 0.404530 0.269544
O O10 0.500000 0.250000 0.282408
O O11 0.750000 0.250000 0.500000
O O12 0.761875 0.196036 0.759545
O O13 0.000000 0.084860 0.477387
O O14 0.000000 0.996086 0.325130
O O15 0.250000 0.365334 0.000000
#
# Coordination Sequence:
#
# PCOD9505159 Si02
#       8
#    16   8  16   8   8   8  16   8
#     4  10  22  38  62  90 116 155 192 238 290 340
#     4  10  21  34  52  84 124 155 189 231 282 339
#     4  11  21  39  61  88 121 151 197 237 283 346
#     4  12  23  34  53  87 127 161 193 232 285 338
#     4  10  17  28  48  80 114 155 192 220 275 332
#     4  11  25  44  63  80 117 145 197 243 292 353
#     4   9  19  35  56  83 117 151 186 233 285 339
#     4  11  25  44  61  84 109 157 189 243 300 337
#
# _framework density 9.7001760000000008
#
# number of rings (size 3 to 8) (size 9 to 14) (size 15 to 20)
#    0.000    1.636    0.909    4.091    1.273    5.818 
#    0.000    0.909    0.000    5.455    0.000    0.000 
#    0.000    0.000    0.000    0.000    0.000    0.000 
#
# Total GULP energy -245156.195108 kJ/mol
# GULP energy per Si atom -5571.731707 kJ/mol
# Density = 0.967810 g / cm^3
# Si number density = 9.700176 Si / 1000 Ang^3
#
#
#
# Elastic Constant Matrix: (Units=GPa)
#
#
# Indices 1 2 3 4 5 6 
#
# 1 185.7515 35.7176 26.1102 0.0000 0.0000 0.0000
# 2 35.7176 53.0811 13.6931 0.0000 0.0000 0.0000
# 3 26.1102 13.6931 20.9614 0.0000 0.0000 0.0000
# 4 0.0000 0.0000 0.0000 63.2795 0.0000 0.0000
# 5 0.0000 0.0000 0.0000 0.0000 16.9493 0.0000
# 6 0.0000 0.0000 0.0000 0.0000 0.0000 -45.7968
#
#
#
# Elastic Compliance Matrix: (Units=1/GPa)
#
#
# Indices 1 2 3 4 5 6 
#
# 1 0.006881 -0.002909 -0.006670 0.000000 0.000000 0.000000
# 2 -0.002909 0.023887 -0.011981 0.000000 0.000000 0.000000
# 3 -0.006670 -0.011981 0.063842 0.000000 0.000000 0.000000
# 4 0.000000 0.000000 0.000000 0.015803 0.000000 0.000000
# 5 0.000000 0.000000 0.000000 0.000000 0.058999 0.000000
# 6 0.000000 0.000000 0.000000 0.000000 0.000000 -0.021836
#
#
# Mechanical properties :
#
#
# Convention : Reuss Voigt Hill
#
# Bulk Modulus (GPa) = 19.42145 45.64843 32.53494
# Shear Modulus (GPa) = 24.05472 19.17130 21.61301
#
# Velocity S-wave (km/s) = 3.52506 3.14696 3.34136
# Velocity P-wave (km/s) = 5.15758 6.06509 5.62965
#
# Compressibility (1/GPa) = 0.05148947
#
# Stress axis : x y z
#
# Youngs Moduli (GPa) = 145.33778 41.86342 15.66372
#
# Poissons Ratio (x) = 0.12179 0.10448
# Poissons Ratio (y) = 0.42281 0.18766
# Poissons Ratio (z) = 0.96943 0.50155
#
# Static dielectric constant tensor:
#      x y z
#    x 1.799000 0.000000 0.000000 
#    y 0.000000 1.661520 0.000000 
#    z 0.000000 0.000000 1.616020 
# 
# From -- ./inp_files/11356.got.cif
#   From: 2010.05.17/outbox.ucp.g08.bks.cvg/sg67_6_cif.got.tgz:11356.got - 2010.06.11 16:47:20.
