data_PCOD9505873
_publ_section_title
;
Structure prediction by ZEFSAII (Michael W. Deem and Ramdas Pophale) SiO2 
 PCOD9505873
Probable space group: C C C A
;
_chemical_formula_sum "Si O2"
_cell_formula_units_Z 64
_cell_length_a 16.577395
_cell_length_b 13.899461
_cell_length_c 12.275008
_cell_angle_alpha 90.000000
_cell_angle_beta 90.000000
_cell_angle_gamma 90.000000
_cell_volume 2828.368742
_symmetry_space_group_name_H-M "C C C A"
_symmetry_group_IT_number 68
_space_group.IT_coordinate_system_code '2'
_symmetry_cell_setting 'orthorhombic'
loop_
_space_group_symop_operation_xyz
x,y,z
-x,1/2-y,z
x,1/2-y,1/2-z
-x,y,1/2-z
-x,-y,-z
x,1/2+y,-z
-x,1/2+y,1/2+z
x,-y,1/2+z
1/2+x,1/2+y,z
1/2-x,-y,z
1/2+x,-y,1/2-z
1/2-x,1/2+y,1/2-z
1/2-x,1/2-y,-z
1/2+x,y,-z
1/2-x,y,1/2+z
1/2+x,1/2-y,1/2+z
loop_
_atom_site_type_symbol
_atom_site_label
_atom_site_fract_x
_atom_site_fract_y
_atom_site_fract_z
Si Si1 0.000000 0.993128 0.250000
Si Si2 0.383149 0.881705 0.624842
Si Si3 0.318868 0.688983 0.561417
Si Si4 0.482230 0.645553 0.439304
Si Si5 0.750000 0.500000 0.486182
O O1 0.999209 0.061937 0.354330
O O2 0.921369 0.927347 0.266978
O O3 0.352324 0.773013 0.637802
O O4 0.457977 0.870498 0.540613
O O5 0.317332 0.950602 0.565668
O O6 0.250000 0.750000 0.500000
O O7 0.391379 0.654678 0.482521
O O8 0.279046 0.587526 0.590531
O O9 0.500000 0.750000 0.389288
#
# Coordination Sequence:
#
# PCOD9505873 Si02
#       5
#     8  16  16  16   8
#     4  12  21  36  65  98 136 170 232 301 343 428
#     4  10  22  38  66  97 132 178 232 292 351 423
#     4   9  19  37  66  94 128 180 228 285 349 421
#     4  10  21  40  65  94 127 180 238 283 358 429
#     4  10  18  38  68  90 134 184 226 276 360 426
#
# _framework density 22.627884000000002
#
# number of rings (size 3 to 8) (size 9 to 14) (size 15 to 20)
#    0.000    2.000    2.500    1.125    0.000    0.000 
#    0.000    6.875    5.500    0.000    0.000    0.000 
#    0.000    0.000    0.000    0.000    0.000    0.000 
#
# Total GULP energy -178595.261105 kJ/mol
# GULP energy per Si atom -5581.101910 kJ/mol
# Density = 2.257638 g / cm^3
# Si number density = 22.627884 Si / 1000 Ang^3
#
#
#
# Elastic Constant Matrix: (Units=GPa)
#
#
# Indices 1 2 3 4 5 6 
#
# 1 132.7583 63.1667 47.0045 0.0000 0.0000 0.0000
# 2 63.1667 249.3713 44.4113 0.0000 0.0000 0.0000
# 3 47.0045 44.4113 71.9206 0.0000 0.0000 0.0000
# 4 0.0000 0.0000 0.0000 30.4290 0.0000 0.0000
# 5 0.0000 0.0000 0.0000 0.0000 19.6187 0.0000
# 6 0.0000 0.0000 0.0000 0.0000 0.0000 56.8207
#
#
#
# Elastic Compliance Matrix: (Units=1/GPa)
#
#
# Indices 1 2 3 4 5 6 
#
# 1 0.010332 -0.001589 -0.005771 0.000000 0.000000 0.000000
# 2 -0.001589 0.004750 -0.001894 0.000000 0.000000 0.000000
# 3 -0.005771 -0.001894 0.018846 0.000000 0.000000 0.000000
# 4 0.000000 0.000000 0.000000 0.032863 0.000000 0.000000
# 5 0.000000 0.000000 0.000000 0.000000 0.050972 0.000000
# 6 0.000000 0.000000 0.000000 0.000000 0.000000 0.017599
#
#
# Mechanical properties :
#
#
# Convention : Reuss Voigt Hill
#
# Bulk Modulus (GPa) = 64.85916 84.80165 74.83041
# Shear Modulus (GPa) = 31.44421 41.33818 36.39120
#
# Velocity S-wave (km/s) = 3.73181 4.27883 4.01464
# Velocity P-wave (km/s) = 6.87707 7.87205 7.39132
#
# Compressibility (1/GPa) = 0.01541802
#
# Stress axis : x y z
#
# Youngs Moduli (GPa) = 96.78618 210.52370 53.06195
#
# Poissons Ratio (x) = 0.33459 0.30623
# Poissons Ratio (y) = 0.15383 0.10052
# Poissons Ratio (z) = 0.55857 0.39883
#
# Static dielectric constant tensor:
#      x y z
#    x 1.899960 0.000000 0.000000 
#    y 0.000000 1.880310 0.000000 
#    z 0.000000 0.000000 1.708720 
# 
# From -- ./inp_files/12877.got.cif
#   From: 2010.05.17/outbox.cif.g08.bks.cpg/sg68_7_cif.got.tgz:12877.got - 2010.06.03 18:57:09.
