data_PCOD9505299
_publ_section_title
;
Structure prediction by ZEFSAII (Michael W. Deem and Ramdas Pophale) SiO2 
 PCOD9505299
Probable space group: C C C A
;
_chemical_formula_sum "Si O2"
_cell_formula_units_Z 68
_cell_length_a 19.054622
_cell_length_b 34.105239
_cell_length_c 5.555732
_cell_angle_alpha 90.000000
_cell_angle_beta 90.000000
_cell_angle_gamma 90.000000
_cell_volume 3610.461539
_symmetry_space_group_name_H-M "C C C A"
_symmetry_group_IT_number 68
_space_group.IT_coordinate_system_code '2'
_symmetry_cell_setting 'orthorhombic'
loop_
_space_group_symop_operation_xyz
x,y,z
-x,1/2-y,z
x,1/2-y,1/2-z
-x,y,1/2-z
-x,-y,-z
x,1/2+y,-z
-x,1/2+y,1/2+z
x,-y,1/2+z
1/2+x,1/2+y,z
1/2-x,-y,z
1/2+x,-y,1/2-z
1/2-x,1/2+y,1/2-z
1/2-x,1/2-y,-z
1/2+x,y,-z
1/2-x,y,1/2+z
1/2+x,1/2-y,1/2+z
loop_
_atom_site_type_symbol
_atom_site_label
_atom_site_fract_x
_atom_site_fract_y
_atom_site_fract_z
Si Si1 0.456056 0.396237 0.498329
Si Si2 0.500000 0.250000 0.250000
Si Si3 0.418108 0.515737 0.999525
Si Si4 0.929173 0.689259 0.903581
Si Si5 0.278877 0.204160 0.736508
O O1 0.500000 0.397348 0.750000
O O2 0.415916 0.437344 0.497912
O O3 0.416616 0.354580 0.498131
O O4 0.500000 0.396481 0.250000
O O5 0.448451 0.278399 0.398976
O O6 0.387391 0.500186 0.249952
O O7 0.500000 0.500000 0.000000
O O8 0.862626 0.701474 0.747887
O O9 0.000000 0.687487 0.750000
O O10 0.257300 0.250000 0.750000
O O11 0.250150 0.186902 0.487568
#
# Coordination Sequence:
#
# PCOD9505299 Si02
#       5
#    16   4  16  16  16
#     4  11  19  31  46  75 107 145 172 220 273 333
#     4  12  22  36  56  78 116 148 188 228 294 332
#     4  10  15  25  45  66 101 141 170 207 264 332
#     4  11  25  37  56  83 117 148 190 234 292 344
#     4  10  23  40  61  80 105 145 197 241 279 333
#
# _framework density 18.834157000000001
#
# number of rings (size 3 to 8) (size 9 to 14) (size 15 to 20)
#    0.000    1.412    5.882    1.765    8.235    0.000 
#    0.000    0.000    0.000    0.000    0.000    0.000 
#    0.000    5.647    0.000    0.000    0.000    0.000 
#
# Total GULP energy -189471.187524 kJ/mol
# GULP energy per Si atom -5572.681986 kJ/mol
# Density = 1.879129 g / cm^3
# Si number density = 18.834157 Si / 1000 Ang^3
#
#
#
# Elastic Constant Matrix: (Units=GPa)
#
#
# Indices 1 2 3 4 5 6 
#
# 1 52.5593 -12.8181 24.4447 0.0000 0.0000 0.0000
# 2 -12.8181 132.8677 36.0347 0.0000 0.0000 0.0000
# 3 24.4447 36.0347 160.0216 0.0000 0.0000 0.0000
# 4 0.0000 0.0000 0.0000 18.8452 0.0000 0.0000
# 5 0.0000 0.0000 0.0000 0.0000 18.6969 0.0000
# 6 0.0000 0.0000 0.0000 0.0000 0.0000 7.6200
#
#
#
# Elastic Compliance Matrix: (Units=1/GPa)
#
#
# Indices 1 2 3 4 5 6 
#
# 1 0.021676 0.003184 -0.004028 0.000000 0.000000 0.000000
# 2 0.003184 0.008483 -0.002397 0.000000 0.000000 0.000000
# 3 -0.004028 -0.002397 0.007404 0.000000 0.000000 0.000000
# 4 0.000000 0.000000 0.000000 0.053064 0.000000 0.000000
# 5 0.000000 0.000000 0.000000 0.000000 0.053485 0.000000
# 6 0.000000 0.000000 0.000000 0.000000 0.000000 0.131234
#
#
# Mechanical properties :
#
#
# Convention : Reuss Voigt Hill
#
# Bulk Modulus (GPa) = 32.17378 48.97456 40.57417
# Shear Modulus (GPa) = 17.11221 28.88490 22.99855
#
# Velocity S-wave (km/s) = 3.01752 3.92043 3.49823
# Velocity P-wave (km/s) = 5.40929 6.82294 6.15682
#
# Compressibility (1/GPa) = 0.03108121
#
# Stress axis : x y z
#
# Youngs Moduli (GPa) = 46.13405 117.87720 135.05887
#
# Poissons Ratio (x) = -0.37527 0.54403
# Poissons Ratio (y) = -0.14687 0.32369
# Poissons Ratio (z) = 0.18583 0.28251
#
# Static dielectric constant tensor:
#      x y z
#    x 1.629500 0.000000 0.000000 
#    y 0.000000 1.684780 0.000000 
#    z 0.000000 0.000000 1.729970 
# 
# From -- ./inp_files/1642.got.cif
#   From: 2010.05.17/outbox.cif.g08.bks.cpg/sg68_1_cif.got.tgz:1642.got - 2010.06.03 18:57:09.
