data_PCOD9505218
_publ_section_title
;
Structure prediction by ZEFSAII (Michael W. Deem and Ramdas Pophale) SiO2 
 PCOD9505218
Probable space group: C M M A
;
_chemical_formula_sum "Si O2"
_cell_formula_units_Z 48
_cell_length_a 27.000000
_cell_length_b 9.000000
_cell_length_c 21.000000
_cell_angle_alpha 90.000000
_cell_angle_beta 90.000000
_cell_angle_gamma 90.000000
_cell_volume 5103.000000
_symmetry_space_group_name_H-M "C M M A"
_symmetry_group_IT_number 67
_symmetry_cell_setting 'orthorhombic'
loop_
_space_group_symop_operation_xyz
x,y,z
-x,1/2-y,z
x,-y,-z
-x,1/2+y,-z
-x,-y,-z
x,1/2+y,-z
-x,y,z
x,1/2-y,z
1/2+x,1/2+y,z
1/2-x,-y,z
1/2+x,1/2-y,-z
1/2-x,y,-z
1/2-x,1/2-y,-z
1/2+x,y,-z
1/2-x,1/2+y,z
1/2+x,-y,z
loop_
_atom_site_type_symbol
_atom_site_label
_atom_site_fract_x
_atom_site_fract_y
_atom_site_fract_z
Si Si1 0.901555 0.424799 0.061642
Si Si2 0.397593 0.072534 0.698236
Si Si3 0.557552 0.427947 0.564659
Si Si4 0.442202 0.915039 0.816296
Si Si5 0.301665 0.577038 0.904240
Si Si6 0.301554 0.577146 0.750751
O O1 0.903814 0.250000 0.055835
O O2 0.924189 0.481556 0.127148
O O3 0.845674 0.483571 0.066206
O O4 0.925747 0.500000 0.000000
O O5 0.402185 0.250000 0.704932
O O6 0.412548 0.029777 0.627162
O O7 0.431792 0.990150 0.749118
O O8 0.343693 0.016333 0.716761
O O9 0.576437 0.500000 0.500000
O O10 0.500000 0.472755 0.573029
O O11 0.558745 0.250000 0.558769
O O12 0.500000 0.898923 0.824096
O O13 0.418503 0.750000 0.819872
O O14 0.303143 0.750000 0.923124
O O15 0.250000 0.500000 0.919945
O O16 0.307896 0.569936 0.827393
O O17 0.302730 0.750000 0.732621
O O18 0.250000 0.500000 0.735824
#
# Coordination Sequence:
#
# PCOD9505218 Si02
#       6
#    16  16  16  16  16  16
#     4  12  25  41  61  82 111 148 188 234 288 343
#     4  11  21  35  59  88 119 152 190 234 284 336
#     4   9  19  35  55  83 119 157 195 234 278 332
#     4  11  24  41  60  84 113 146 189 237 284 337
#     4  10  20  36  58  84 115 146 185 231 282 340
#     4  10  20  34  56  84 117 150 187 232 281 336
#
# _framework density 9.4062319999999993
#
# number of rings (size 3 to 8) (size 9 to 14) (size 15 to 20)
#    0.000    1.500    1.667    4.000    0.000    5.333 
#    0.000    3.333    0.000    0.500    0.000    3.500 
#    0.000    0.000    0.000    0.000    0.000    0.000 
#
# Total GULP energy -268087.071593 kJ/mol
# GULP energy per Si atom -5585.147325 kJ/mol
# Density = 0.938482 g / cm^3
# Si number density = 9.406232 Si / 1000 Ang^3
#
#
#
# Elastic Constant Matrix: (Units=GPa)
#
#
# Indices 1 2 3 4 5 6 
#
# 1 66.5109 27.1977 21.7361 0.0000 0.0000 0.0000
# 2 27.1977 127.9712 56.0023 0.0000 0.0000 0.0000
# 3 21.7361 56.0023 81.4614 0.0000 0.0000 0.0000
# 4 0.0000 0.0000 0.0000 19.1574 0.0000 0.0000
# 5 0.0000 0.0000 0.0000 0.0000 82.4465 0.0000
# 6 0.0000 0.0000 0.0000 0.0000 0.0000 -5.1191
#
#
#
# Elastic Compliance Matrix: (Units=1/GPa)
#
#
# Indices 1 2 3 4 5 6 
#
# 1 0.016940 -0.002320 -0.002925 0.000000 0.000000 0.000000
# 2 -0.002320 0.011495 -0.007283 0.000000 0.000000 0.000000
# 3 -0.002925 -0.007283 0.018063 0.000000 0.000000 0.000000
# 4 0.000000 0.000000 0.000000 0.052199 0.000000 0.000000
# 5 0.000000 0.000000 0.000000 0.000000 0.012129 0.000000
# 6 0.000000 0.000000 0.000000 0.000000 0.000000 -0.195346
#
#
# Mechanical properties :
#
#
# Convention : Reuss Voigt Hill
#
# Bulk Modulus (GPa) = 46.63954 53.97954 50.30954
# Shear Modulus (GPa) = -95.57231 30.69745 -32.43743
#
# Velocity S-wave (km/s) = -7.13533 4.04389 -4.15692
# Velocity P-wave (km/s) = 6.56036 7.11054 1.93927
#
# Compressibility (1/GPa) = 0.02144103
#
# Stress axis : x y z
#
# Youngs Moduli (GPa) = 59.03264 86.99762 55.36150
#
# Poissons Ratio (x) = 0.20185 0.16193
# Poissons Ratio (y) = 0.13697 0.40320
# Poissons Ratio (z) = 0.17266 0.63361
#
# Static dielectric constant tensor:
#      x y z
#    x 2.009210 0.000000 0.000000 
#    y 0.000000 1.641870 0.000000 
#    z 0.000000 0.000000 1.648860 
# 
# From -- ./inp_files/37144.got.cif
#   From: 2010.05.17/outbox.ucp.g08.bks.cvg/sg67_19_cif.got.tgz:37144.got - 2010.06.11 16:47:20.
