data_PCOD9505859
_publ_section_title
;
Structure prediction by ZEFSAII (Michael W. Deem and Ramdas Pophale) SiO2 
 PCOD9505859
Probable space group: C C C A
;
_chemical_formula_sum "Si O2"
_cell_formula_units_Z 116
_cell_length_a 22.001790
_cell_length_b 9.311135
_cell_length_c 28.089521
_cell_angle_alpha 90.000000
_cell_angle_beta 90.000000
_cell_angle_gamma 90.000000
_cell_volume 5754.465253
_symmetry_space_group_name_H-M "C C C A"
_symmetry_group_IT_number 68
_space_group.IT_coordinate_system_code '2'
_symmetry_cell_setting 'orthorhombic'
loop_
_space_group_symop_operation_xyz
x,y,z
-x,1/2-y,z
x,1/2-y,1/2-z
-x,y,1/2-z
-x,-y,-z
x,1/2+y,-z
-x,1/2+y,1/2+z
x,-y,1/2+z
1/2+x,1/2+y,z
1/2-x,-y,z
1/2+x,-y,1/2-z
1/2-x,1/2+y,1/2-z
1/2-x,1/2-y,-z
1/2+x,y,-z
1/2-x,y,1/2+z
1/2+x,1/2-y,1/2+z
loop_
_atom_site_type_symbol
_atom_site_label
_atom_site_fract_x
_atom_site_fract_y
_atom_site_fract_z
Si Si1 0.500000 0.250000 0.250000
Si Si2 0.235835 0.837420 0.873057
Si Si3 0.570750 0.054167 0.039600
Si Si4 0.641524 0.731613 0.599470
Si Si5 0.406036 0.186623 0.890146
Si Si6 0.205188 0.601598 0.228054
Si Si7 0.413903 0.564220 0.681582
Si Si8 0.556465 0.518053 0.072208
O O1 0.538252 0.355355 0.284906
O O2 0.286088 0.733503 0.895744
O O3 0.166039 0.796153 0.879835
O O4 0.254555 0.852020 0.817674
O O5 0.250000 0.000000 0.892036
O O6 0.618967 0.170904 0.055912
O O7 0.590138 0.899293 0.059836
O O8 0.506299 0.072211 0.067556
O O9 0.564942 0.057947 0.983253
O O10 0.613708 0.817763 0.644781
O O11 0.609497 0.580603 0.592724
O O12 0.440982 0.335762 0.897436
O O13 0.430716 0.075436 0.849846
O O14 0.184715 0.750000 0.250000
O O15 0.250000 0.500000 0.257872
O O16 0.144404 0.520625 0.212969
#
# Coordination Sequence:
#
# PCOD9505859 Si02
#       8
#     4  16  16  16  16  16  16  16
#     4  12  24  40  68  98 120 164 230 258 296 404
#     4  10  18  40  62  82 119 165 205 248 316 388
#     4  10  21  40  62  87 127 170 207 252 301 379
#     4  10  21  38  64  89 117 168 209 248 310 384
#     4  11  21  40  65  88 129 167 195 259 329 364
#     4  10  18  38  62  87 115 159 209 254 311 370
#     4  10  22  39  65  88 122 168 206 254 319 376
#     4  11  23  37  61  97 125 156 215 260 303 369
#
# _framework density 20.158259000000001
#
# number of rings (size 3 to 8) (size 9 to 14) (size 15 to 20)
#    0.000    1.655    6.207    1.655    3.862    2.759 
#    4.966    4.138    0.000    0.828    0.000    0.000 
#    0.000    0.000    0.000    0.000    0.000    0.000 
#
# Total GULP energy -323282.273379 kJ/mol
# GULP energy per Si atom -5573.832300 kJ/mol
# Density = 2.011238 g / cm^3
# Si number density = 20.158259 Si / 1000 Ang^3
#
#
#
# Elastic Constant Matrix: (Units=GPa)
#
#
# Indices 1 2 3 4 5 6 
#
# 1 100.6846 22.9920 30.5306 0.0000 0.0000 0.0000
# 2 22.9920 101.1125 18.8221 0.0000 0.0000 0.0000
# 3 30.5306 18.8221 42.5481 0.0000 0.0000 0.0000
# 4 0.0000 0.0000 0.0000 -9.6533 0.0000 0.0000
# 5 0.0000 0.0000 0.0000 0.0000 74.5164 0.0000
# 6 0.0000 0.0000 0.0000 0.0000 0.0000 32.8968
#
#
#
# Elastic Compliance Matrix: (Units=1/GPa)
#
#
# Indices 1 2 3 4 5 6 
#
# 1 0.012852 -0.001314 -0.008641 0.000000 0.000000 0.000000
# 2 -0.001314 0.010912 -0.003884 0.000000 0.000000 0.000000
# 3 -0.008641 -0.003884 0.031421 0.000000 0.000000 0.000000
# 4 0.000000 0.000000 0.000000 -0.103592 0.000000 0.000000
# 5 0.000000 0.000000 0.000000 0.000000 0.013420 0.000000
# 6 0.000000 0.000000 0.000000 0.000000 0.000000 0.030398
#
#
# Mechanical properties :
#
#
# Convention : Reuss Voigt Hill
#
# Bulk Modulus (GPa) = 36.35407 43.22604 39.79006
# Shear Modulus (GPa) = 154.99542 31.01868 93.00705
#
# Velocity S-wave (km/s) = 8.77817 3.92696 6.79990
# Velocity P-wave (km/s) = 10.99159 6.48469 9.02403
#
# Compressibility (1/GPa) = 0.02750724
#
# Stress axis : x y z
#
# Youngs Moduli (GPa) = 77.80741 91.64387 31.82539
#
# Poissons Ratio (x) = 0.12042 0.27500
# Poissons Ratio (y) = 0.10224 0.12362
# Poissons Ratio (z) = 0.67233 0.35597
#
# Static dielectric constant tensor:
#      x y z
#    x 1.764790 0.000000 0.000000 
#    y 0.000000 1.769810 0.000000 
#    z 0.000000 0.000000 1.733820 
# 
# From -- ./inp_files/56082.got.cif
#   From: 2010.05.17/outbox.cif.g08.bks.cpg/sg68_29_cif.got.tgz:56082.got - 2010.06.03 18:57:09.
