data_PCOD9505090
_publ_section_title
;
Structure prediction by ZEFSAII (Michael W. Deem and Ramdas Pophale) SiO2 
 PCOD9505090
Probable space group: C M M A
;
_chemical_formula_sum "Si O2"
_cell_formula_units_Z 112
_cell_length_a 15.959228
_cell_length_b 14.829750
_cell_length_c 24.533664
_cell_angle_alpha 90.000000
_cell_angle_beta 90.000000
_cell_angle_gamma 90.000000
_cell_volume 5806.415660
_symmetry_space_group_name_H-M "C M M A"
_symmetry_group_IT_number 67
_symmetry_cell_setting 'orthorhombic'
loop_
_space_group_symop_operation_xyz
x,y,z
-x,1/2-y,z
x,-y,-z
-x,1/2+y,-z
-x,-y,-z
x,1/2+y,-z
-x,y,z
x,1/2-y,z
1/2+x,1/2+y,z
1/2-x,-y,z
1/2+x,1/2-y,-z
1/2-x,y,-z
1/2-x,1/2-y,-z
1/2+x,y,-z
1/2-x,1/2+y,z
1/2+x,-y,z
loop_
_atom_site_type_symbol
_atom_site_label
_atom_site_fract_x
_atom_site_fract_y
_atom_site_fract_z
Si Si1 0.352367 0.000354 0.937805
Si Si2 0.350870 0.852633 0.852135
Si Si3 0.406420 0.502564 0.360279
Si Si4 0.167046 0.147408 0.433213
Si Si5 0.353630 0.853720 0.151167
Si Si6 0.867324 0.646910 0.447905
Si Si7 0.851264 0.503595 0.237217
O O1 0.378774 0.086766 0.901601
O O2 0.250000 0.000000 0.938461
O O3 0.376819 0.910575 0.904777
O O4 0.381428 0.000000 0.000000
O O5 0.380218 0.750000 0.852059
O O6 0.248577 0.851409 0.850602
O O7 0.376790 0.911708 0.800103
O O8 0.500000 0.538545 0.363335
O O9 0.347892 0.579136 0.384892
O O10 0.399971 0.417274 0.400668
O O11 0.384492 0.484971 0.297848
O O12 0.140727 0.250000 0.421725
O O13 0.120619 0.117323 0.489108
O O14 0.266525 0.148447 0.442616
O O15 0.382710 0.750000 0.151516
O O16 0.377628 0.912995 0.204325
O O17 0.897020 0.750000 0.442472
O O18 0.750000 0.500000 0.239407
#
# Coordination Sequence:
#
# PCOD9505090 Si02
#       7
#    16  16  16  16  16  16  16
#     4   8  13  20  32  57  93 124 148 180 229 292
#     4   8  14  25  41  60  83 116 158 199 236 275
#     4  12  24  34  49  76 107 134 160 200 257 308
#     4   9  19  37  59  79  99 128 167 205 240 288
#     4   8  14  25  41  60  83 116 158 199 236 275
#     4   9  19  37  59  79  99 128 167 205 240 288
#     4   9  18  32  47  63  86 121 168 209 234 273
#
# _framework density 19.289009
#
# number of rings (size 3 to 8) (size 9 to 14) (size 15 to 20)
#    0.000    3.000    0.000    4.286    0.000    4.571 
#    0.000    7.143    0.000    0.000    0.000    0.000 
#    0.000    9.143    0.000   10.286    0.000   11.429 
#
# Total GULP energy -312179.870805 kJ/mol
# GULP energy per Si atom -5574.640550 kJ/mol
# Density = 1.924511 g / cm^3
# Si number density = 19.289009 Si / 1000 Ang^3
#
#
#
# Elastic Constant Matrix: (Units=GPa)
#
#
# Indices 1 2 3 4 5 6 
#
# 1 15.8001 -0.9282 -1.6796 0.0000 0.0000 0.0000
# 2 -0.9282 132.8542 59.3370 0.0000 0.0000 0.0000
# 3 -1.6796 59.3370 135.9418 0.0000 0.0000 0.0000
# 4 0.0000 0.0000 0.0000 -26.6718 0.0000 0.0000
# 5 0.0000 0.0000 0.0000 0.0000 -21.8642 0.0000
# 6 0.0000 0.0000 0.0000 0.0000 0.0000 25.3556
#
#
#
# Elastic Compliance Matrix: (Units=1/GPa)
#
#
# Indices 1 2 3 4 5 6 
#
# 1 0.063376 0.000116 0.000733 0.000000 0.000000 0.000000
# 2 0.000116 0.009350 -0.004080 0.000000 0.000000 0.000000
# 3 0.000733 -0.004080 0.009146 0.000000 0.000000 0.000000
# 4 0.000000 0.000000 0.000000 -0.037493 0.000000 0.000000
# 5 0.000000 0.000000 0.000000 0.000000 -0.045737 0.000000
# 6 0.000000 0.000000 0.000000 0.000000 0.000000 0.039439
#
#
# Mechanical properties :
#
#
# Convention : Reuss Voigt Hill
#
# Bulk Modulus (GPa) = 13.26114 44.22826 28.74470
# Shear Modulus (GPa) = 71.75660 10.55505 41.15583
#
# Velocity S-wave (km/s) = 6.10586 2.34178 4.62415
# Velocity P-wave (km/s) = 7.52320 5.50372 6.59127
#
# Compressibility (1/GPa) = 0.07540829
#
# Stress axis : x y z
#
# Youngs Moduli (GPa) = 15.77896 106.95191 109.33869
#
# Poissons Ratio (x) = -0.01236 -0.08010
# Poissons Ratio (y) = -0.00182 0.44607
# Poissons Ratio (z) = -0.01156 0.43634
#
# Static dielectric constant tensor:
#      x y z
#    x 1.699210 0.000000 0.000000 
#    y 0.000000 1.660430 0.000000 
#    z 0.000000 0.000000 1.655730 
# 
# From -- ./inp_files/41995.got.cif
#   From: 2010.05.17/outbox.cif.g08.bks.cpg/sg67_21_cif.got.tgz:41995.got - 2010.06.03 18:28:57.
