data_PCOD9505668
_publ_section_title
;
Structure prediction by ZEFSAII (Michael W. Deem and Ramdas Pophale) SiO2 
 PCOD9505668
Probable space group: C C C A
;
_chemical_formula_sum "Si O2"
_cell_formula_units_Z 104
_cell_length_a 19.832326
_cell_length_b 18.988975
_cell_length_c 15.467042
_cell_angle_alpha 90.000000
_cell_angle_beta 90.000000
_cell_angle_gamma 90.000000
_cell_volume 5824.819074
_symmetry_space_group_name_H-M "C C C A"
_symmetry_group_IT_number 68
_space_group.IT_coordinate_system_code '2'
_symmetry_cell_setting 'orthorhombic'
loop_
_space_group_symop_operation_xyz
x,y,z
-x,1/2-y,z
x,1/2-y,1/2-z
-x,y,1/2-z
-x,-y,-z
x,1/2+y,-z
-x,1/2+y,1/2+z
x,-y,1/2+z
1/2+x,1/2+y,z
1/2-x,-y,z
1/2+x,-y,1/2-z
1/2-x,1/2+y,1/2-z
1/2-x,1/2-y,-z
1/2+x,y,-z
1/2-x,y,1/2+z
1/2+x,1/2-y,1/2+z
loop_
_atom_site_type_symbol
_atom_site_label
_atom_site_fract_x
_atom_site_fract_y
_atom_site_fract_z
Si Si1 0.922927 0.442492 0.430513
Si Si2 0.317124 0.310580 0.918259
Si Si3 0.803071 0.846998 0.518959
Si Si4 0.265687 0.250000 0.750000
Si Si5 0.917979 0.563435 0.567320
Si Si6 0.730251 0.105648 0.193171
Si Si7 0.858946 0.478994 0.251554
O O1 0.874369 0.384932 0.474337
O O2 0.905883 0.512781 0.485300
O O3 0.905128 0.451499 0.329732
O O4 0.001780 0.425322 0.434138
O O5 0.316861 0.236535 0.969458
O O6 0.314320 0.282323 0.821650
O O7 0.376677 0.364016 0.938471
O O8 0.246120 0.350188 0.937004
O O9 0.758154 0.884921 0.594898
O O10 0.220144 0.186208 0.781680
O O11 0.893367 0.526732 0.657577
O O12 0.792884 0.070989 0.245029
O O13 0.668428 0.055120 0.216407
#
# Coordination Sequence:
#
# PCOD9505668 Si02
#       7
#    16  16  16   8  16  16  16
#     4  10  23  38  54  83 118 151 201 236 285 352
#     4  10  20  35  58  84 115 151 188 239 302 344
#     4   9  20  37  56  81 119 151 184 245 295 343
#     4  10  18  32  50  87 115 132 188 246 278 358
#     4  11  22  36  59  83 113 159 196 239 288 355
#     4   9  18  31  53  81 111 143 189 237 286 346
#     4  10  19  35  54  81 112 153 188 240 291 335
#
# _framework density 17.854631999999999
#
# number of rings (size 3 to 8) (size 9 to 14) (size 15 to 20)
#    0.000    2.154    1.538    1.385    2.154    2.462 
#    0.000    0.000    0.000    0.000    0.000    1.077 
#    0.000    0.000    0.000    0.000    0.000    0.000 
#
# Total GULP energy -289475.283566 kJ/mol
# GULP energy per Si atom -5566.832376 kJ/mol
# Density = 1.781399 g / cm^3
# Si number density = 17.854632 Si / 1000 Ang^3
#
#
#
# Elastic Constant Matrix: (Units=GPa)
#
#
# Indices 1 2 3 4 5 6 
#
# 1 82.2274 43.8075 28.4916 0.0000 0.0000 0.0000
# 2 43.8075 89.6836 11.8616 0.0000 0.0000 0.0000
# 3 28.4916 11.8616 73.7574 0.0000 0.0000 0.0000
# 4 0.0000 0.0000 0.0000 24.9166 0.0000 0.0000
# 5 0.0000 0.0000 0.0000 0.0000 11.4153 0.0000
# 6 0.0000 0.0000 0.0000 0.0000 0.0000 27.0212
#
#
#
# Elastic Compliance Matrix: (Units=1/GPa)
#
#
# Indices 1 2 3 4 5 6 
#
# 1 0.018625 -0.008323 -0.005856 0.000000 0.000000 0.000000
# 2 -0.008323 0.015112 0.000785 0.000000 0.000000 0.000000
# 3 -0.005856 0.000785 0.015694 0.000000 0.000000 0.000000
# 4 0.000000 0.000000 0.000000 0.040134 0.000000 0.000000
# 5 0.000000 0.000000 0.000000 0.000000 0.087602 0.000000
# 6 0.000000 0.000000 0.000000 0.000000 0.000000 0.037008
#
#
# Mechanical properties :
#
#
# Convention : Reuss Voigt Hill
#
# Bulk Modulus (GPa) = 44.16553 45.99888 45.08220
# Shear Modulus (GPa) = 20.11989 23.43778 21.77884
#
# Velocity S-wave (km/s) = 3.36053 3.62705 3.49633
# Velocity P-wave (km/s) = 6.31248 6.58480 6.45008
#
# Compressibility (1/GPa) = 0.02264209
#
# Stress axis : x y z
#
# Youngs Moduli (GPa) = 53.69225 66.17232 63.71924
#
# Poissons Ratio (x) = 0.55075 0.37314
# Poissons Ratio (y) = 0.44688 -0.05001
# Poissons Ratio (z) = 0.31442 -0.05193
#
# Static dielectric constant tensor:
#      x y z
#    x 1.583440 0.000000 0.000000 
#    y 0.000000 1.639790 0.000000 
#    z 0.000000 0.000000 1.671240 
# 
# From -- ./inp_files/24769.got.cif
#   From: 2010.05.17/outbox.cif.g08.bks.cpg/sg68_13_cif.got.tgz:24769.got - 2010.06.03 18:57:09.
