data_PCOD9505579
_publ_section_title
;
Structure prediction by ZEFSAII (Michael W. Deem and Ramdas Pophale) SiO2 
 PCOD9505579
Probable space group: C C C A
;
_chemical_formula_sum "Si O2"
_cell_formula_units_Z 128
_cell_length_a 25.716169
_cell_length_b 24.097512
_cell_length_c 12.072407
_cell_angle_alpha 90.000000
_cell_angle_beta 90.000000
_cell_angle_gamma 90.000000
_cell_volume 7481.218599
_symmetry_space_group_name_H-M "C C C A"
_symmetry_group_IT_number 68
_space_group.IT_coordinate_system_code '2'
_symmetry_cell_setting 'orthorhombic'
loop_
_space_group_symop_operation_xyz
x,y,z
-x,1/2-y,z
x,1/2-y,1/2-z
-x,y,1/2-z
-x,-y,-z
x,1/2+y,-z
-x,1/2+y,1/2+z
x,-y,1/2+z
1/2+x,1/2+y,z
1/2-x,-y,z
1/2+x,-y,1/2-z
1/2-x,1/2+y,1/2-z
1/2-x,1/2-y,-z
1/2+x,y,-z
1/2-x,y,1/2+z
1/2+x,1/2-y,1/2+z
loop_
_atom_site_type_symbol
_atom_site_label
_atom_site_fract_x
_atom_site_fract_y
_atom_site_fract_z
Si Si1 0.635108 0.310900 0.264090
Si Si2 0.938054 0.038031 0.238680
Si Si3 0.612513 0.565084 0.491832
Si Si4 0.799526 0.365494 0.577090
Si Si5 0.940068 0.088661 0.780053
Si Si6 0.742398 0.937927 0.250077
Si Si7 0.144322 0.054091 0.089064
Si Si8 0.705705 0.362001 0.435713
O O1 0.611921 0.250000 0.250000
O O2 0.671399 0.323962 0.158494
O O3 0.594125 0.361144 0.266493
O O4 0.672392 0.317122 0.369992
O O5 0.916076 0.061909 0.124772
O O6 0.909886 0.063440 0.346565
O O7 0.000000 0.042773 0.250000
O O8 0.924511 0.972119 0.235010
O O9 0.658901 0.609650 0.491962
O O10 0.572780 0.583297 0.589286
O O11 0.636796 0.505674 0.529633
O O12 0.781057 0.418308 0.651515
O O13 0.747849 0.340864 0.523481
O O14 0.000000 0.097089 0.750000
O O15 0.686614 0.941006 0.310983
O O16 0.759075 0.896599 0.152287
O O17 0.750000 0.000000 0.207693
O O18 0.165617 0.096994 0.998220
#
# Coordination Sequence:
#
# PCOD9505579 Si02
#       8
#    16  16  16  16  16  16  16  16
#     4  10  21  37  53  71  96 127 171 220 255 289
#     4  10  21  33  49  74 105 140 169 195 245 310
#     4  10  18  31  50  70 105 141 160 200 243 291
#     4   9  19  33  46  75 101 131 170 195 244 300
#     4   9  20  35  51  74  99 126 169 210 250 305
#     4  10  18  28  46  75 105 133 167 195 237 298
#     4  10  20  30  47  72 102 138 172 199 238 304
#     4  10  21  30  50  74 104 136 163 207 246 292
#
# _framework density 17.109511999999999
#
# number of rings (size 3 to 8) (size 9 to 14) (size 15 to 20)
#    0.000    2.250    1.250    1.500    5.250    6.250 
#    0.000    0.000    0.000    0.000    0.000    0.000 
#    0.000    4.000    0.000    0.000    0.000    0.000 
#
# Total GULP energy -356543.358619 kJ/mol
# GULP energy per Si atom -5570.989978 kJ/mol
# Density = 1.707057 g / cm^3
# Si number density = 17.109512 Si / 1000 Ang^3
#
#
#
# Elastic Constant Matrix: (Units=GPa)
#
#
# Indices 1 2 3 4 5 6 
#
# 1 73.9662 28.1143 39.8117 0.0000 0.0000 0.0000
# 2 28.1143 31.3315 9.8174 0.0000 0.0000 0.0000
# 3 39.8117 9.8174 57.9329 0.0000 0.0000 0.0000
# 4 0.0000 0.0000 0.0000 5.0636 0.0000 0.0000
# 5 0.0000 0.0000 0.0000 0.0000 24.8664 0.0000
# 6 0.0000 0.0000 0.0000 0.0000 0.0000 9.8955
#
#
#
# Elastic Compliance Matrix: (Units=1/GPa)
#
#
# Indices 1 2 3 4 5 6 
#
# 1 0.032033 -0.023071 -0.018104 0.000000 0.000000 0.000000
# 2 -0.023071 0.050323 0.007327 0.000000 0.000000 0.000000
# 3 -0.018104 0.007327 0.028461 0.000000 0.000000 0.000000
# 4 0.000000 0.000000 0.000000 0.197490 0.000000 0.000000
# 5 0.000000 0.000000 0.000000 0.000000 0.040215 0.000000
# 6 0.000000 0.000000 0.000000 0.000000 0.000000 0.101056
#
#
# Mechanical properties :
#
#
# Convention : Reuss Voigt Hill
#
# Bulk Modulus (GPa) = 23.19060 35.41303 29.30182
# Shear Modulus (GPa) = 9.40473 13.66423 11.53448
#
# Velocity S-wave (km/s) = 2.34707 2.82908 2.59927
# Velocity P-wave (km/s) = 4.57478 5.60485 5.11581
#
# Compressibility (1/GPa) = 0.04312092
#
# Stress axis : x y z
#
# Youngs Moduli (GPa) = 31.21766 19.87147 35.13633
#
# Poissons Ratio (x) = 0.45846 0.63609
# Poissons Ratio (y) = 0.72024 -0.25744
# Poissons Ratio (z) = 0.56515 -0.14560
#
# Static dielectric constant tensor:
#      x y z
#    x 1.595690 0.000000 0.000000 
#    y 0.000000 1.564830 0.000000 
#    z 0.000000 0.000000 1.606680 
# 
# From -- ./inp_files/16693.got.cif
#   From: 2010.05.17/outbox.cif.g08.bks.cpg/sg68_9_cif.got.tgz:16693.got - 2010.06.03 18:57:09.
