data_PCOD9505823
_publ_section_title
;
Structure prediction by ZEFSAII (Michael W. Deem and Ramdas Pophale) SiO2 
 PCOD9505823
Probable space group: C C C A
;
_chemical_formula_sum "Si O2"
_cell_formula_units_Z 96
_cell_length_a 8.819336
_cell_length_b 26.509866
_cell_length_c 21.741753
_cell_angle_alpha 90.000000
_cell_angle_beta 90.000000
_cell_angle_gamma 90.000000
_cell_volume 5083.209145
_symmetry_space_group_name_H-M "C C C A"
_symmetry_group_IT_number 68
_space_group.IT_coordinate_system_code '2'
_symmetry_cell_setting 'orthorhombic'
loop_
_space_group_symop_operation_xyz
x,y,z
-x,1/2-y,z
x,1/2-y,1/2-z
-x,y,1/2-z
-x,-y,-z
x,1/2+y,-z
-x,1/2+y,1/2+z
x,-y,1/2+z
1/2+x,1/2+y,z
1/2-x,-y,z
1/2+x,-y,1/2-z
1/2-x,1/2+y,1/2-z
1/2-x,1/2-y,-z
1/2+x,y,-z
1/2-x,y,1/2+z
1/2+x,1/2-y,1/2+z
loop_
_atom_site_type_symbol
_atom_site_label
_atom_site_fract_x
_atom_site_fract_y
_atom_site_fract_z
Si Si1 0.672082 0.445779 0.821639
Si Si2 0.462906 0.117070 0.498650
Si Si3 0.296680 0.942703 0.570225
Si Si4 0.514774 0.306848 0.823310
Si Si5 0.725690 0.641426 0.409749
Si Si6 0.660190 0.409315 0.685013
O O1 0.750000 0.500000 0.818107
O O2 0.731616 0.414619 0.880262
O O3 0.696811 0.416017 0.756976
O O4 0.488392 0.444608 0.827305
O O5 0.550317 0.072664 0.463206
O O6 0.332991 0.092237 0.539933
O O7 0.586077 0.143745 0.541964
O O8 0.378177 0.150957 0.447598
O O9 0.294297 0.928299 0.641976
O O10 0.250000 0.000000 0.561724
O O11 0.500000 0.250000 0.847954
O O12 0.500000 0.303467 0.750000
O O13 0.673512 0.325382 0.852027
O O14 0.395738 0.353053 0.834305
#
# Coordination Sequence:
#
# PCOD9505823 Si02
#       6
#    16  16  16  16  16  16
#     4  10  19  32  54  74 113 149 182 230 282 325
#     4  10  22  35  54  75 119 154 192 231 275 327
#     4  11  21  34  53  79 113 159 194 228 274 335
#     4  10  18  36  67  88 104 142 191 243 293 337
#     4  10  20  38  55  82 115 146 193 234 276 336
#     4  10  19  37  52  83 114 141 191 244 276 346
#
# _framework density 18.885708000000001
#
# number of rings (size 3 to 8) (size 9 to 14) (size 15 to 20)
#    0.000    1.833    6.667    1.000    2.333    2.667 
#    0.000    0.833    0.000    0.000    0.000    2.333 
#    0.000    0.000    0.000    0.000    0.000    0.000 
#
# Total GULP energy -267289.067525 kJ/mol
# GULP energy per Si atom -5568.522240 kJ/mol
# Density = 1.884272 g / cm^3
# Si number density = 18.885708 Si / 1000 Ang^3
#
#
#
# Elastic Constant Matrix: (Units=GPa)
#
#
# Indices 1 2 3 4 5 6 
#
# 1 40.9961 17.1742 28.3173 0.0000 0.0000 0.0000
# 2 17.1742 92.3271 4.3356 0.0000 0.0000 0.0000
# 3 28.3173 4.3356 86.4075 0.0000 0.0000 0.0000
# 4 0.0000 0.0000 0.0000 9.0947 0.0000 0.0000
# 5 0.0000 0.0000 0.0000 0.0000 9.7177 0.0000
# 6 0.0000 0.0000 0.0000 0.0000 0.0000 12.2879
#
#
#
# Elastic Compliance Matrix: (Units=1/GPa)
#
#
# Indices 1 2 3 4 5 6 
#
# 1 0.034457 -0.005893 -0.010996 0.000000 0.000000 0.000000
# 2 -0.005893 0.011865 0.001336 0.000000 0.000000 0.000000
# 3 -0.010996 0.001336 0.015110 0.000000 0.000000 0.000000
# 4 0.000000 0.000000 0.000000 0.109954 0.000000 0.000000
# 5 0.000000 0.000000 0.000000 0.000000 0.102905 0.000000
# 6 0.000000 0.000000 0.000000 0.000000 0.000000 0.081381
#
#
# Mechanical properties :
#
#
# Convention : Reuss Voigt Hill
#
# Bulk Modulus (GPa) = 32.97716 35.48720 34.23218
# Shear Modulus (GPa) = 12.59809 17.54699 15.07254
#
# Velocity S-wave (km/s) = 2.58557 3.05145 2.82812
# Velocity P-wave (km/s) = 5.13935 5.58985 5.36933
#
# Compressibility (1/GPa) = 0.03032401
#
# Stress axis : x y z
#
# Youngs Moduli (GPa) = 29.02175 84.28489 66.18239
#
# Poissons Ratio (x) = 0.49670 0.72777
# Poissons Ratio (y) = 0.17103 -0.08842
# Poissons Ratio (z) = 0.31914 -0.11260
#
# Static dielectric constant tensor:
#      x y z
#    x 1.668090 0.000000 0.000000 
#    y 0.000000 1.678220 0.000000 
#    z 0.000000 0.000000 1.721630 
# 
# From -- ./inp_files/41233.got.cif
#   From: 2010.05.17/outbox.cif.g08.bks.cpg/sg68_21_cif.got.tgz:41233.got - 2010.06.03 18:57:09.
