data_PCOD9505098
_publ_section_title
;
Structure prediction by ZEFSAII (Michael W. Deem and Ramdas Pophale) SiO2 
 PCOD9505098
Probable space group: C M M A
;
_chemical_formula_sum "Si O2"
_cell_formula_units_Z 72
_cell_length_a 15.115793
_cell_length_b 9.015413
_cell_length_c 25.731523
_cell_angle_alpha 90.000000
_cell_angle_beta 90.000000
_cell_angle_gamma 90.000000
_cell_volume 3506.566300
_symmetry_space_group_name_H-M "C M M A"
_symmetry_group_IT_number 67
_symmetry_cell_setting 'orthorhombic'
loop_
_space_group_symop_operation_xyz
x,y,z
-x,1/2-y,z
x,-y,-z
-x,1/2+y,-z
-x,-y,-z
x,1/2+y,-z
-x,y,z
x,1/2-y,z
1/2+x,1/2+y,z
1/2-x,-y,z
1/2+x,1/2-y,-z
1/2-x,y,-z
1/2-x,1/2-y,-z
1/2+x,y,-z
1/2-x,1/2+y,z
1/2+x,-y,z
loop_
_atom_site_type_symbol
_atom_site_label
_atom_site_fract_x
_atom_site_fract_y
_atom_site_fract_z
Si Si1 0.658306 0.572629 0.621812
Si Si2 0.392803 0.075702 0.727304
Si Si3 0.391653 0.580787 0.947483
Si Si4 0.500000 0.429075 0.557058
Si Si5 0.892187 0.078178 0.156980
O O1 0.656180 0.750000 0.615856
O O2 0.750000 0.500000 0.604958
O O3 0.643642 0.526505 0.681883
O O4 0.583155 0.492328 0.588585
O O5 0.500000 0.070485 0.725038
O O6 0.368287 0.250000 0.719515
O O7 0.364953 0.027770 0.785374
O O8 0.500000 0.575448 0.947099
O O9 0.364134 0.750000 0.949667
O O10 0.361442 0.509401 0.893440
O O11 0.362980 0.500000 0.000000
O O12 0.500000 0.250000 0.555551
O O13 0.500000 0.500000 0.500000
O O14 0.867400 0.250000 0.151678
O O15 0.000000 0.072443 0.156936
#
# Coordination Sequence:
#
# PCOD9505098 Si02
#       5
#    16  16  16   8  16
#     4  12  25  42  66  98 132 172 216 261 312 368
#     4   9  17  32  55  81 114 155 197 248 308 368
#     4   9  15  21  30  47  77 120 170 227 287 349
#     4  12  26  48  74 102 136 172 213 260 309 366
#     4   8  14  24  39  61  90 130 178 228 289 357
#
# _framework density 20.532907999999999
#
# number of rings (size 3 to 8) (size 9 to 14) (size 15 to 20)
#    0.000    2.222    1.111    5.000    0.000    4.000 
#    0.000    4.444    0.000    0.000    0.000    0.000 
#    0.000    0.889    0.000    9.333    0.000   12.889 
#
# Total GULP energy -201129.880527 kJ/mol
# GULP energy per Si atom -5586.941126 kJ/mol
# Density = 2.048617 g / cm^3
# Si number density = 20.532908 Si / 1000 Ang^3
#
#
#
# Elastic Constant Matrix: (Units=GPa)
#
#
# Indices 1 2 3 4 5 6 
#
# 1 85.4471 53.4976 49.9224 0.0000 0.0000 0.0000
# 2 53.4976 167.9931 106.0229 0.0000 0.0000 0.0000
# 3 49.9224 106.0229 177.3575 0.0000 0.0000 0.0000
# 4 0.0000 0.0000 0.0000 44.5458 0.0000 0.0000
# 5 0.0000 0.0000 0.0000 0.0000 -32.4705 0.0000
# 6 0.0000 0.0000 0.0000 0.0000 0.0000 15.6798
#
#
#
# Elastic Compliance Matrix: (Units=1/GPa)
#
#
# Indices 1 2 3 4 5 6 
#
# 1 0.015141 -0.003424 -0.002215 0.000000 0.000000 0.000000
# 2 -0.003424 0.010333 -0.005213 0.000000 0.000000 0.000000
# 3 -0.002215 -0.005213 0.009378 0.000000 0.000000 0.000000
# 4 0.000000 0.000000 0.000000 0.022449 0.000000 0.000000
# 5 0.000000 0.000000 0.000000 0.000000 -0.030797 0.000000
# 6 0.000000 0.000000 0.000000 0.000000 0.000000 0.063776
#
#
# Mechanical properties :
#
#
# Convention : Reuss Voigt Hill
#
# Bulk Modulus (GPa) = 76.05735 94.40926 85.23330
# Shear Modulus (GPa) = 42.96745 20.30803 31.63774
#
# Velocity S-wave (km/s) = 4.57947 3.14832 3.92960
# Velocity P-wave (km/s) = 8.06748 7.70034 7.88605
#
# Compressibility (1/GPa) = 0.01314797
#
# Stress axis : x y z
#
# Youngs Moduli (GPa) = 66.04644 96.77639 106.62798
#
# Poissons Ratio (x) = 0.33132 0.23621
# Poissons Ratio (y) = 0.22611 0.55589
# Poissons Ratio (z) = 0.14631 0.50453
#
# Static dielectric constant tensor:
#      x y z
#    x 1.090520 0.000000 0.000000 
#    y 0.000000 1.684900 0.000000 
#    z 0.000000 0.000000 1.733090 
# 
# From -- ./inp_files/44260.got.cif
#   From: 2010.05.17/outbox.cif.g08.bks.cpg/sg67_23_cif.got.tgz:44260.got - 2010.06.03 18:28:57.
