data_PCOD9505032
_publ_section_title
;
Structure prediction by ZEFSAII (Michael W. Deem and Ramdas Pophale) SiO2 
 PCOD9505032
Probable space group: C M M A
;
_chemical_formula_sum "Si O2"
_cell_formula_units_Z 112
_cell_length_a 14.145457
_cell_length_b 28.245235
_cell_length_c 15.146350
_cell_angle_alpha 90.000000
_cell_angle_beta 90.000000
_cell_angle_gamma 90.000000
_cell_volume 6051.599293
_symmetry_space_group_name_H-M "C M M A"
_symmetry_group_IT_number 67
_symmetry_cell_setting 'orthorhombic'
loop_
_space_group_symop_operation_xyz
x,y,z
-x,1/2-y,z
x,-y,-z
-x,1/2+y,-z
-x,-y,-z
x,1/2+y,-z
-x,y,z
x,1/2-y,z
1/2+x,1/2+y,z
1/2-x,-y,z
1/2+x,1/2-y,-z
1/2-x,y,-z
1/2-x,1/2-y,-z
1/2+x,y,-z
1/2-x,1/2+y,z
1/2+x,-y,z
loop_
_atom_site_type_symbol
_atom_site_label
_atom_site_fract_x
_atom_site_fract_y
_atom_site_fract_z
Si Si1 0.607683 0.195075 0.174615
Si Si2 0.111968 0.195617 0.171254
Si Si3 0.301583 0.451244 0.251716
Si Si4 0.764448 0.123298 0.902774
Si Si5 0.000000 0.969300 0.352713
Si Si6 0.743512 0.197184 0.666982
Si Si7 0.295087 0.601218 0.412837
Si Si8 0.500000 0.071425 0.549439
O O1 0.500000 0.182573 0.193861
O O2 0.612547 0.250000 0.148490
O O3 0.651935 0.162063 0.100404
O O4 0.671966 0.189977 0.262019
O O5 0.134359 0.250000 0.140362
O O6 0.172313 0.154337 0.124746
O O7 0.149506 0.194369 0.272233
O O8 0.000000 0.188706 0.164517
O O9 0.250000 0.500000 0.227783
O O10 0.294098 0.415594 0.169282
O O11 0.406251 0.459592 0.293464
O O12 0.239522 0.427708 0.328928
O O13 0.750000 0.103335 0.000000
O O14 0.000000 0.938563 0.443666
O O15 0.000000 0.022436 0.393958
O O16 0.751751 0.250000 0.629838
O O17 0.742063 0.154309 0.600152
O O18 0.250000 0.578814 0.500000
O O19 0.406455 0.599246 0.424369
#
# Coordination Sequence:
#
# PCOD9505032 Si02
#       8
#    16  16  16  16   8  16  16   8
#     4   9  18  35  62  92 122 160 206 255 310 366
#     4   9  18  35  60  88 119 155 200 252 305 356
#     4  12  25  44  66  90 123 163 202 255 319 370
#     4  11  24  40  61  89 122 161 206 253 299 369
#     4  11  24  42  66  94 125 157 201 264 324 370
#     4   9  19  36  58  88 125 165 203 243 294 365
#     4  12  23  39  63  94 125 162 203 251 310 371
#     4  11  24  38  65  99 124 152 207 268 314 374
#
# _framework density 18.507504999999998
#
# number of rings (size 3 to 8) (size 9 to 14) (size 15 to 20)
#    0.000    1.571    5.714    1.286    2.000    2.571 
#    2.571    1.429    0.000    0.857    0.000    0.000 
#    0.000    0.000    0.000    0.000    0.000    0.000 
#
# Total GULP energy -312386.988317 kJ/mol
# GULP energy per Si atom -5578.339077 kJ/mol
# Density = 1.846538 g / cm^3
# Si number density = 18.507505 Si / 1000 Ang^3
#
#
#
# Elastic Constant Matrix: (Units=GPa)
#
#
# Indices 1 2 3 4 5 6 
#
# 1 125.7655 21.9977 22.7175 0.0000 0.0000 0.0000
# 2 21.9977 64.3302 29.2364 0.0000 0.0000 0.0000
# 3 22.7175 29.2364 91.1279 0.0000 0.0000 0.0000
# 4 0.0000 0.0000 0.0000 6.5678 0.0000 0.0000
# 5 0.0000 0.0000 0.0000 0.0000 5.5254 0.0000
# 6 0.0000 0.0000 0.0000 0.0000 0.0000 18.0768
#
#
#
# Elastic Compliance Matrix: (Units=1/GPa)
#
#
# Indices 1 2 3 4 5 6 
#
# 1 0.008608 -0.002304 -0.001407 0.000000 0.000000 0.000000
# 2 -0.002304 0.018815 -0.005462 0.000000 0.000000 0.000000
# 3 -0.001407 -0.005462 0.013077 0.000000 0.000000 0.000000
# 4 0.000000 0.000000 0.000000 0.152257 0.000000 0.000000
# 5 0.000000 0.000000 0.000000 0.000000 0.180981 0.000000
# 6 0.000000 0.000000 0.000000 0.000000 0.000000 0.055320
#
#
# Mechanical properties :
#
#
# Convention : Reuss Voigt Hill
#
# Bulk Modulus (GPa) = 45.13834 47.68077 46.40956
# Shear Modulus (GPa) = 10.99413 19.85214 15.42313
#
# Velocity S-wave (km/s) = 2.43993 3.27869 2.88990
# Velocity P-wave (km/s) = 5.69033 6.33656 6.02212
#
# Compressibility (1/GPa) = 0.02215412
#
# Stress axis : x y z
#
# Youngs Moduli (GPa) = 116.16472 53.14882 76.47229
#
# Poissons Ratio (x) = 0.12247 0.10758
# Poissons Ratio (y) = 0.26768 0.41769
# Poissons Ratio (z) = 0.16341 0.29030
#
# Static dielectric constant tensor:
#      x y z
#    x 1.634520 0.000000 0.000000 
#    y 0.000000 1.659620 0.000000 
#    z 0.000000 0.000000 1.645240 
# 
# From -- ./inp_files/27774.got.cif
#   From: 2010.05.17/outbox.cif.g08.bks.cpg/sg67_14_cif.got.tgz:27774.got - 2010.06.03 18:28:57.
