data_PCOD9505758
_publ_section_title
;
Structure prediction by ZEFSAII (Michael W. Deem and Ramdas Pophale) SiO2 
 PCOD9505758
Probable space group: C C C A
;
_chemical_formula_sum "Si O2"
_cell_formula_units_Z 120
_cell_length_a 21.666394
_cell_length_b 15.647250
_cell_length_c 19.682979
_cell_angle_alpha 90.000000
_cell_angle_beta 90.000000
_cell_angle_gamma 90.000000
_cell_volume 6672.913375
_symmetry_space_group_name_H-M "C C C A"
_symmetry_group_IT_number 68
_space_group.IT_coordinate_system_code '2'
_symmetry_cell_setting 'orthorhombic'
loop_
_space_group_symop_operation_xyz
x,y,z
-x,1/2-y,z
x,1/2-y,1/2-z
-x,y,1/2-z
-x,-y,-z
x,1/2+y,-z
-x,1/2+y,1/2+z
x,-y,1/2+z
1/2+x,1/2+y,z
1/2-x,-y,z
1/2+x,-y,1/2-z
1/2-x,1/2+y,1/2-z
1/2-x,1/2-y,-z
1/2+x,y,-z
1/2-x,y,1/2+z
1/2+x,1/2-y,1/2+z
loop_
_atom_site_type_symbol
_atom_site_label
_atom_site_fract_x
_atom_site_fract_y
_atom_site_fract_z
Si Si1 0.797179 0.246778 0.394154
Si Si2 0.132496 0.320060 0.699981
Si Si3 0.250000 0.500000 0.441438
Si Si4 0.057886 0.452768 0.792421
Si Si5 0.167404 0.418509 0.325008
Si Si6 0.315138 0.670297 0.964817
Si Si7 0.056909 0.305095 0.897892
Si Si8 0.259403 0.093222 0.818270
O O1 0.836662 0.178318 0.352327
O O2 0.727293 0.208443 0.403379
O O3 0.814588 0.264919 0.472070
O O4 0.799908 0.337187 0.356810
O O5 0.160909 0.250000 0.750000
O O6 0.093111 0.386950 0.742990
O O7 0.088780 0.266187 0.650785
O O8 0.190902 0.369799 0.673892
O O9 0.198651 0.465683 0.389086
O O10 0.280918 0.419970 0.480369
O O11 0.105358 0.528412 0.810328
O O12 0.038185 0.389530 0.854501
O O13 0.000000 0.486205 0.750000
O O14 0.211863 0.417194 0.258023
O O15 0.386164 0.662604 0.943553
O O16 0.000000 0.250000 0.928501
O O17 0.250000 0.000000 0.848239
#
# Coordination Sequence:
#
# PCOD9505758 Si02
#       8
#    16  16   8  16  16  16  16  16
#     4  10  23  37  56  85 114 157 200 247 298 359
#     4  10  19  30  50  84 123 144 178 235 304 359
#     4  10  18  34  58  88 118 156 192 238 306 364
#     4  11  20  33  54  90 121 156 197 244 301 370
#     4  11  20  35  57  84 119 153 193 241 312 365
#     4  10  21  38  58  83 120 158 199 245 298 364
#     4  11  20  34  59  86 122 160 192 248 305 362
#     4  12  21  33  57  89 117 147 187 252 306 358
#
# _framework density 17.983149000000001
#
# number of rings (size 3 to 8) (size 9 to 14) (size 15 to 20)
#    0.000    1.333    6.000    1.200    4.667    0.000 
#    0.000    0.000    2.933    1.600    0.000    0.000 
#    0.000    0.000    0.000    0.000    0.000    0.000 
#
# Total GULP energy -334033.218083 kJ/mol
# GULP energy per Si atom -5567.220301 kJ/mol
# Density = 1.794222 g / cm^3
# Si number density = 17.983149 Si / 1000 Ang^3
#
#
#
# Elastic Constant Matrix: (Units=GPa)
#
#
# Indices 1 2 3 4 5 6 
#
# 1 69.9083 40.0854 14.7027 0.0000 0.0000 0.0000
# 2 40.0854 127.0250 18.1204 0.0000 0.0000 0.0000
# 3 14.7027 18.1204 24.6609 0.0000 0.0000 0.0000
# 4 0.0000 0.0000 0.0000 22.3909 0.0000 0.0000
# 5 0.0000 0.0000 0.0000 0.0000 13.9257 0.0000
# 6 0.0000 0.0000 0.0000 0.0000 0.0000 15.4412
#
#
#
# Elastic Compliance Matrix: (Units=1/GPa)
#
#
# Indices 1 2 3 4 5 6 
#
# 1 0.018656 -0.004804 -0.007593 0.000000 0.000000 0.000000
# 2 -0.004804 0.010031 -0.004507 0.000000 0.000000 0.000000
# 3 -0.007593 -0.004507 0.048388 0.000000 0.000000 0.000000
# 4 0.000000 0.000000 0.000000 0.044661 0.000000 0.000000
# 5 0.000000 0.000000 0.000000 0.000000 0.071810 0.000000
# 6 0.000000 0.000000 0.000000 0.000000 0.000000 0.064762
#
#
# Mechanical properties :
#
#
# Convention : Reuss Voigt Hill
#
# Bulk Modulus (GPa) = 23.11139 40.82344 31.96741
# Shear Modulus (GPa) = 16.31121 20.26395 18.28758
#
# Velocity S-wave (km/s) = 3.01496 3.36047 3.19239
# Velocity P-wave (km/s) = 4.99995 6.14876 5.60387
#
# Compressibility (1/GPa) = 0.04326871
#
# Stress axis : x y z
#
# Youngs Moduli (GPa) = 53.60213 99.68684 20.66622
#
# Poissons Ratio (x) = 0.47891 0.15691
# Poissons Ratio (y) = 0.25751 0.09314
# Poissons Ratio (z) = 0.40698 0.44926
#
# Static dielectric constant tensor:
#      x y z
#    x 1.668400 0.000000 0.000000 
#    y 0.000000 1.663960 0.000000 
#    z 0.000000 0.000000 1.641420 
# 
# From -- ./inp_files/46746.got.cif
#   From: 2010.05.17/outbox.cif.g08.bks.cpg/sg68_24_cif.got.tgz:46746.got - 2010.06.03 18:57:09.
