data_PCOD9505285
_publ_section_title
;
Structure prediction by ZEFSAII (Michael W. Deem and Ramdas Pophale) SiO2 
 PCOD9505285
Probable space group: C M M A
;
_chemical_formula_sum "Si O2"
_cell_formula_units_Z 56
_cell_length_a 15.000000
_cell_length_b 24.000000
_cell_length_c 15.000000
_cell_angle_alpha 90.000000
_cell_angle_beta 90.000000
_cell_angle_gamma 90.000000
_cell_volume 5400.000000
_symmetry_space_group_name_H-M "C M M A"
_symmetry_group_IT_number 67
_symmetry_cell_setting 'orthorhombic'
loop_
_space_group_symop_operation_xyz
x,y,z
-x,1/2-y,z
x,-y,-z
-x,1/2+y,-z
-x,-y,-z
x,1/2+y,-z
-x,y,z
x,1/2-y,z
1/2+x,1/2+y,z
1/2-x,-y,z
1/2+x,1/2-y,-z
1/2-x,y,-z
1/2-x,1/2-y,-z
1/2+x,y,-z
1/2-x,1/2+y,z
1/2+x,-y,z
loop_
_atom_site_type_symbol
_atom_site_label
_atom_site_fract_x
_atom_site_fract_y
_atom_site_fract_z
Si Si1 0.646827 0.891978 0.093560
Si Si2 0.647296 0.882739 0.888102
Si Si3 0.602911 0.683437 0.715597
Si Si4 0.395871 0.499899 0.798253
Si Si5 0.346749 0.026649 0.592467
Si Si6 0.732680 0.850217 0.399978
Si Si7 0.902633 0.687900 0.748365
O O1 0.748652 0.872165 0.096973
O O2 0.601463 0.854509 0.169468
O O3 0.646117 0.953698 0.136385
O O4 0.612152 0.888635 0.990912
O O5 0.611810 0.836434 0.818836
O O6 0.636796 0.939933 0.831650
O O7 0.500000 0.673574 0.688632
O O8 0.621433 0.750000 0.708107
O O9 0.672253 0.649325 0.652759
O O10 0.500000 0.497991 0.816372
O O11 0.385023 0.486616 0.691891
O O12 0.322441 0.092065 0.584787
O O13 0.387805 0.000000 0.500000
O O14 0.250000 0.000000 0.596974
O O15 0.750000 0.827278 0.500000
O O16 0.670767 0.819426 0.327881
O O17 0.894212 0.750000 0.785707
O O18 0.000000 0.681580 0.705342
#
# Coordination Sequence:
#
# PCOD9505285 Si02
#       7
#    16  16  16  16  16  16  16
#     4  11  23  42  68  96 134 178 228 277 339 401
#     4  11  24  41  66  99 132 180 227 279 335 402
#     4  11  25  45  68  98 137 180 228 279 333 397
#     4  12  24  39  63  95 135 177 221 277 338 404
#     4  11  22  40  65  94 130 170 220 269 331 402
#     4  12  24  44  73  99 131 177 222 275 341 402
#     4  11  25  45  70 101 135 175 227 281 334 396
#
# _framework density 10.370369999999999
#
# number of rings (size 3 to 8) (size 9 to 14) (size 15 to 20)
#    0.000    0.714    4.286    3.857    0.000    6.571 
#    0.000    4.286    0.000    0.429    0.000    0.000 
#    0.000    0.000    0.000    0.000    0.000    0.000 
#
# Total GULP energy -312289.159141 kJ/mol
# GULP energy per Si atom -5576.592128 kJ/mol
# Density = 1.034677 g / cm^3
# Si number density = 10.370370 Si / 1000 Ang^3
#
#
#
# Elastic Constant Matrix: (Units=GPa)
#
#
# Indices 1 2 3 4 5 6 
#
# 1 97.7512 -2.9291 20.5741 0.0000 0.0000 0.0000
# 2 -2.9291 74.2049 15.1237 0.0000 0.0000 0.0000
# 3 20.5741 15.1237 160.9462 0.0000 0.0000 0.0000
# 4 0.0000 0.0000 0.0000 30.2636 0.0000 0.0000
# 5 0.0000 0.0000 0.0000 0.0000 -0.7062 0.0000
# 6 0.0000 0.0000 0.0000 0.0000 0.0000 19.6597
#
#
#
# Elastic Compliance Matrix: (Units=1/GPa)
#
#
# Indices 1 2 3 4 5 6 
#
# 1 0.010549 0.000705 -0.001415 0.000000 0.000000 0.000000
# 2 0.000705 0.013786 -0.001386 0.000000 0.000000 0.000000
# 3 -0.001415 -0.001386 0.006524 0.000000 0.000000 0.000000
# 4 0.000000 0.000000 0.000000 0.033043 0.000000 0.000000
# 5 0.000000 0.000000 0.000000 0.000000 -1.416128 0.000000
# 6 0.000000 0.000000 0.000000 0.000000 0.000000 0.050866
#
#
# Mechanical properties :
#
#
# Convention : Reuss Voigt Hill
#
# Bulk Modulus (GPa) = 37.49735 44.27107 40.88421
# Shear Modulus (GPa) = -3.88115 29.85234 12.98560
#
# Velocity S-wave (km/s) = -1.36943 3.79794 2.50490
# Velocity P-wave (km/s) = 3.95195 6.37368 5.30291
#
# Compressibility (1/GPa) = 0.02666855
#
# Stress axis : x y z
#
# Youngs Moduli (GPa) = 94.79634 72.53525 153.27310
#
# Poissons Ratio (x) = -0.05112 0.21684
# Poissons Ratio (y) = -0.06681 0.21237
# Poissons Ratio (z) = 0.13411 0.10050
#
# Static dielectric constant tensor:
#      x y z
#    x 1.729070 0.000000 0.000000 
#    y 0.000000 1.853220 0.000000 
#    z 0.000000 0.000000 1.744890 
# 
# From -- ./inp_files/27512.got.cif
#   From: 2010.05.17/outbox.ucp.g08.bks.cvg/sg67_14_cif.got.tgz:27512.got - 2010.06.11 16:47:20.
