data_PCOD9505797
_publ_section_title
;
Structure prediction by ZEFSAII (Michael W. Deem and Ramdas Pophale) SiO2 
 PCOD9505797
Probable space group: C C C A
;
_chemical_formula_sum "Si O2"
_cell_formula_units_Z 104
_cell_length_a 16.242414
_cell_length_b 29.804885
_cell_length_c 8.695644
_cell_angle_alpha 90.000000
_cell_angle_beta 90.000000
_cell_angle_gamma 90.000000
_cell_volume 4209.589794
_symmetry_space_group_name_H-M "C C C A"
_symmetry_group_IT_number 68
_space_group.IT_coordinate_system_code '2'
_symmetry_cell_setting 'orthorhombic'
loop_
_space_group_symop_operation_xyz
x,y,z
-x,1/2-y,z
x,1/2-y,1/2-z
-x,y,1/2-z
-x,-y,-z
x,1/2+y,-z
-x,1/2+y,1/2+z
x,-y,1/2+z
1/2+x,1/2+y,z
1/2-x,-y,z
1/2+x,-y,1/2-z
1/2-x,1/2+y,1/2-z
1/2-x,1/2-y,-z
1/2+x,y,-z
1/2-x,y,1/2+z
1/2+x,1/2-y,1/2+z
loop_
_atom_site_type_symbol
_atom_site_label
_atom_site_fract_x
_atom_site_fract_y
_atom_site_fract_z
Si Si1 0.852276 0.936894 0.756681
Si Si2 0.726718 0.367935 0.331519
Si Si3 0.589969 0.018026 0.444520
Si Si4 0.190279 0.307326 0.937307
Si Si5 0.426370 0.130517 0.537830
Si Si6 0.378622 0.228071 0.588734
Si Si7 0.500000 0.415735 0.250000
O O1 0.766393 0.911389 0.741289
O O2 0.872740 0.956814 0.589908
O O3 0.858313 0.976410 0.880837
O O4 0.919039 0.899593 0.810598
O O5 0.798196 0.336969 0.408283
O O6 0.676414 0.339288 0.206783
O O7 0.664686 0.377793 0.467322
O O8 0.573734 0.051345 0.301204
O O9 0.500000 0.000000 0.500000
O O10 0.282036 0.287202 0.907051
O O11 0.125737 0.267558 0.962411
O O12 0.431514 0.183683 0.561319
O O13 0.484445 0.112502 0.403774
O O14 0.400098 0.250000 0.750000
#
# Coordination Sequence:
#
# PCOD9505797 Si02
#       7
#    16  16  16  16  16  16   8
#     4  12  23  45  70 104 137 177 235 296 355 422
#     4  11  22  41  65 107 144 176 225 294 367 419
#     4  12  24  45  76  95 131 186 247 293 345 429
#     4  10  19  34  62  97 141 176 219 272 351 435
#     4  11  25  41  69 104 145 182 242 292 355 431
#     4  10  18  35  64 103 132 183 228 277 343 422
#     4  12  26  48  68 105 132 192 251 294 356 424
#
# _framework density 24.705494000000002
#
# number of rings (size 3 to 8) (size 9 to 14) (size 15 to 20)
#    0.000    0.923    7.692    0.000    2.154    0.000 
#    0.000    6.154    0.000    1.846    0.000    0.000 
#    0.000    0.000    0.000    0.000    0.000    0.000 
#
# Total GULP energy -291159.099747 kJ/mol
# GULP energy per Si atom -5599.213457 kJ/mol
# Density = 2.464926 g / cm^3
# Si number density = 24.705494 Si / 1000 Ang^3
#
#
#
# Elastic Constant Matrix: (Units=GPa)
#
#
# Indices 1 2 3 4 5 6 
#
# 1 37.1258 37.6583 10.9735 0.0000 0.0000 0.0000
# 2 37.6583 168.4977 69.9005 0.0000 0.0000 0.0000
# 3 10.9735 69.9005 121.5269 0.0000 0.0000 0.0000
# 4 0.0000 0.0000 0.0000 61.4807 0.0000 0.0000
# 5 0.0000 0.0000 0.0000 0.0000 29.7214 0.0000
# 6 0.0000 0.0000 0.0000 0.0000 0.0000 -19.5310
#
#
#
# Elastic Compliance Matrix: (Units=1/GPa)
#
#
# Indices 1 2 3 4 5 6 
#
# 1 0.035117 -0.008580 0.001764 0.000000 0.000000 0.000000
# 2 -0.008580 0.009891 -0.004915 0.000000 0.000000 0.000000
# 3 0.001764 -0.004915 0.010896 0.000000 0.000000 0.000000
# 4 0.000000 0.000000 0.000000 0.016265 0.000000 0.000000
# 5 0.000000 0.000000 0.000000 0.000000 0.033646 0.000000
# 6 0.000000 0.000000 0.000000 0.000000 0.000000 -0.051201
#
#
# Mechanical properties :
#
#
# Convention : Reuss Voigt Hill
#
# Bulk Modulus (GPa) = 30.82281 62.69055 46.75668
# Shear Modulus (GPa) = 56.24877 28.24210 42.24544
#
# Velocity S-wave (km/s) = 4.77673 3.38472 4.13965
# Velocity P-wave (km/s) = 6.55180 6.38007 6.46650
#
# Compressibility (1/GPa) = 0.03244351
#
# Stress axis : x y z
#
# Youngs Moduli (GPa) = 28.47587 101.09950 91.77625
#
# Poissons Ratio (x) = 0.86748 -0.16193
# Poissons Ratio (y) = 0.24434 0.45103
# Poissons Ratio (z) = -0.05024 0.49685
#
# Static dielectric constant tensor:
#      x y z
#    x 1.976140 0.000000 0.000000 
#    y 0.000000 2.027470 0.000000 
#    z 0.000000 0.000000 1.990960 
# 
# From -- ./inp_files/7370.got.cif
#   From: 2010.05.17/outbox.cif.g08.bks.cpg/sg68_4_cif.got.tgz:7370.got - 2010.06.03 18:57:09.
