data_PCOD9505936
_publ_section_title
;
Structure prediction by ZEFSAII (Michael W. Deem and Ramdas Pophale) SiO2 
 PCOD9505936
Probable space group: C C C A
;
_chemical_formula_sum "Si O2"
_cell_formula_units_Z 64
_cell_length_a 18.714535
_cell_length_b 9.574441
_cell_length_c 17.540552
_cell_angle_alpha 90.000000
_cell_angle_beta 90.000000
_cell_angle_gamma 90.000000
_cell_volume 3142.937352
_symmetry_space_group_name_H-M "C C C A"
_symmetry_group_IT_number 68
_space_group.IT_coordinate_system_code '2'
_symmetry_cell_setting 'orthorhombic'
loop_
_space_group_symop_operation_xyz
x,y,z
-x,1/2-y,z
x,1/2-y,1/2-z
-x,y,1/2-z
-x,-y,-z
x,1/2+y,-z
-x,1/2+y,1/2+z
x,-y,1/2+z
1/2+x,1/2+y,z
1/2-x,-y,z
1/2+x,-y,1/2-z
1/2-x,1/2+y,1/2-z
1/2-x,1/2-y,-z
1/2+x,y,-z
1/2-x,y,1/2+z
1/2+x,1/2-y,1/2+z
loop_
_atom_site_type_symbol
_atom_site_label
_atom_site_fract_x
_atom_site_fract_y
_atom_site_fract_z
Si Si1 0.492314 0.409319 0.157876
Si Si2 0.643614 0.522874 0.143562
Si Si3 0.246542 0.275683 0.910951
Si Si4 0.157867 0.893989 0.300343
O O1 0.500000 0.250000 0.130681
O O2 0.500000 0.410985 0.250000
O O3 0.559297 0.500298 0.130654
O O4 0.409033 0.441419 0.147733
O O5 0.677233 0.665406 0.115122
O O6 0.687425 0.397219 0.103607
O O7 0.664079 0.505435 0.232910
O O8 0.221129 0.150795 0.856083
O O9 0.250000 0.250000 0.000000
O O10 0.141241 0.750000 0.250000
#
# Coordination Sequence:
#
# PCOD9505936 Si02
#       4
#    16  16  16  16
#     4   9  11  24  51  79  98 124 179 234 263 318
#     4   9  18  31  51  76 101 141 184 225 285 331
#     4  10  19  31  45  74 115 144 174 229 286 335
#     4   9  15  29  54  77 102 137 182 228 271 340
#
# _framework density 20.363116999999999
#
# number of rings (size 3 to 8) (size 9 to 14) (size 15 to 20)
#    0.000    2.750    7.500    0.000    0.000    0.000 
#    0.000   16.250    0.000    0.000    0.000    0.000 
#    0.000   48.000    0.000    0.000    0.000    0.000 
#
# Total GULP energy -178206.703935 kJ/mol
# GULP energy per Si atom -5568.959498 kJ/mol
# Density = 2.031677 g / cm^3
# Si number density = 20.363117 Si / 1000 Ang^3
#
#
#
# Elastic Constant Matrix: (Units=GPa)
#
#
# Indices 1 2 3 4 5 6 
#
# 1 138.7714 52.6099 54.8718 0.0000 0.0000 0.0000
# 2 52.6099 42.7804 36.9928 0.0000 0.0000 0.0000
# 3 54.8718 36.9928 103.8868 0.0000 0.0000 0.0000
# 4 0.0000 0.0000 0.0000 -7.6625 0.0000 0.0000
# 5 0.0000 0.0000 0.0000 0.0000 5.7453 0.0000
# 6 0.0000 0.0000 0.0000 0.0000 0.0000 34.9563
#
#
#
# Elastic Compliance Matrix: (Units=1/GPa)
#
#
# Indices 1 2 3 4 5 6 
#
# 1 0.013727 -0.015332 -0.001791 0.000000 0.000000 0.000000
# 2 -0.015332 0.050901 -0.010027 0.000000 0.000000 0.000000
# 3 -0.001791 -0.010027 0.014142 0.000000 0.000000 0.000000
# 4 0.000000 0.000000 0.000000 -0.130506 0.000000 0.000000
# 5 0.000000 0.000000 0.000000 0.000000 0.174057 0.000000
# 6 0.000000 0.000000 0.000000 0.000000 0.000000 0.028607
#
#
# Mechanical properties :
#
#
# Convention : Reuss Voigt Hill
#
# Bulk Modulus (GPa) = 40.86634 63.82086 52.34360
# Shear Modulus (GPa) = 23.43193 16.00543 19.71868
#
# Velocity S-wave (km/s) = 3.39588 2.80661 3.11521
# Velocity P-wave (km/s) = 5.95721 6.47396 6.22096
#
# Compressibility (1/GPa) = 0.02447002
#
# Stress axis : x y z
#
# Youngs Moduli (GPa) = 72.84991 19.64609 70.71103
#
# Poissons Ratio (x) = 0.30122 0.12662
# Poissons Ratio (y) = 1.11696 0.70900
# Poissons Ratio (z) = 0.13045 0.19699
#
# Static dielectric constant tensor:
#      x y z
#    x 1.699440 0.000000 0.000000 
#    y 0.000000 1.799890 0.000000 
#    z 0.000000 0.000000 1.694840 
# 
# From -- ./inp_files/24200.got.cif
#   From: 2010.05.17/outbox.cif.g08.bks.cpg/sg68_13_cif.got.tgz:24200.got - 2010.06.03 18:57:09.
