data_PCOD9505389
_publ_section_title
;
Structure prediction by ZEFSAII (Michael W. Deem and Ramdas Pophale) SiO2 
 PCOD9505389
Probable space group: C C C A
;
_chemical_formula_sum "Si O2"
_cell_formula_units_Z 76
_cell_length_a 17.660028
_cell_length_b 13.952680
_cell_length_c 16.708954
_cell_angle_alpha 90.000000
_cell_angle_beta 90.000000
_cell_angle_gamma 90.000000
_cell_volume 4117.165123
_symmetry_space_group_name_H-M "C C C A"
_symmetry_group_IT_number 68
_space_group.IT_coordinate_system_code '2'
_symmetry_cell_setting 'orthorhombic'
loop_
_space_group_symop_operation_xyz
x,y,z
-x,1/2-y,z
x,1/2-y,1/2-z
-x,y,1/2-z
-x,-y,-z
x,1/2+y,-z
-x,1/2+y,1/2+z
x,-y,1/2+z
1/2+x,1/2+y,z
1/2-x,-y,z
1/2+x,-y,1/2-z
1/2-x,1/2+y,1/2-z
1/2-x,1/2-y,-z
1/2+x,y,-z
1/2-x,y,1/2+z
1/2+x,1/2-y,1/2+z
loop_
_atom_site_type_symbol
_atom_site_label
_atom_site_fract_x
_atom_site_fract_y
_atom_site_fract_z
Si Si1 0.914966 0.539786 0.995647
Si Si2 0.627010 0.325328 0.140036
Si Si3 0.755786 0.750000 0.750000
Si Si4 0.828283 0.153572 0.523938
Si Si5 0.166799 0.689310 0.595935
Si Si6 0.000000 0.250000 0.750000
O O1 0.863464 0.450007 0.972505
O O2 0.902581 0.622696 0.929255
O O3 0.885951 0.587992 0.078590
O O4 0.000000 0.500000 0.000000
O O5 0.700480 0.319332 0.197799
O O6 0.635227 0.228390 0.086811
O O7 0.554032 0.314107 0.195286
O O8 0.807336 0.806832 0.687080
O O9 0.842444 0.203240 0.438214
O O10 0.739472 0.151461 0.545026
#
# Coordination Sequence:
#
# PCOD9505389 Si02
#       6
#    16  16   8  16  16   4
#     4  11  21  34  56  85 113 146 184 220 269 334
#     4   9  19  33  54  79 108 143 180 227 273 323
#     4   9  18  37  56  77 106 141 186 236 282 315
#     4   9  18  36  56  78 105 140 187 227 264 316
#     4   9  19  35  57  79 105 142 184 230 271 316
#     4  10  16  32  52  76 116 142 168 218 280 330
#
# _framework density 18.459302999999998
#
# number of rings (size 3 to 8) (size 9 to 14) (size 15 to 20)
#    0.000    2.526    0.000    3.158    0.000    2.526 
#    0.000   12.632    0.000    1.263    0.000    0.000 
#    0.000    0.000    0.000    0.000    0.000    0.000 
#
# Total GULP energy -211847.795397 kJ/mol
# GULP energy per Si atom -5574.941984 kJ/mol
# Density = 1.841729 g / cm^3
# Si number density = 18.459303 Si / 1000 Ang^3
#
#
#
# Elastic Constant Matrix: (Units=GPa)
#
#
# Indices 1 2 3 4 5 6 
#
# 1 60.5665 9.6841 30.0220 0.0000 0.0000 0.0000
# 2 9.6841 55.6568 24.8804 0.0000 0.0000 0.0000
# 3 30.0220 24.8804 113.0655 0.0000 0.0000 0.0000
# 4 0.0000 0.0000 0.0000 15.2063 0.0000 0.0000
# 5 0.0000 0.0000 0.0000 0.0000 30.9744 0.0000
# 6 0.0000 0.0000 0.0000 0.0000 0.0000 21.4782
#
#
#
# Elastic Compliance Matrix: (Units=1/GPa)
#
#
# Indices 1 2 3 4 5 6 
#
# 1 0.019082 -0.001170 -0.004809 0.000000 0.000000 0.000000
# 2 -0.001170 0.019999 -0.004090 0.000000 0.000000 0.000000
# 3 -0.004809 -0.004090 0.011021 0.000000 0.000000 0.000000
# 4 0.000000 0.000000 0.000000 0.065762 0.000000 0.000000
# 5 0.000000 0.000000 0.000000 0.000000 0.032285 0.000000
# 6 0.000000 0.000000 0.000000 0.000000 0.000000 0.046559
#
#
# Mechanical properties :
#
#
# Convention : Reuss Voigt Hill
#
# Bulk Modulus (GPa) = 33.37422 39.82906 36.60164
# Shear Modulus (GPa) = 22.23848 24.51193 23.37520
#
# Velocity S-wave (km/s) = 3.47469 3.64798 3.56239
# Velocity P-wave (km/s) = 5.84954 6.27433 6.06565
#
# Compressibility (1/GPa) = 0.02996324
#
# Stress axis : x y z
#
# Youngs Moduli (GPa) = 52.40609 50.00166 90.73209
#
# Poissons Ratio (x) = 0.05852 0.43635
# Poissons Ratio (y) = 0.06133 0.37111
# Poissons Ratio (z) = 0.25203 0.20452
#
# Static dielectric constant tensor:
#      x y z
#    x 1.669900 0.000000 0.000000 
#    y 0.000000 1.617800 0.000000 
#    z 0.000000 0.000000 1.677400 
# 
# From -- ./inp_files/31813.got.cif
#   From: 2010.05.17/outbox.cif.g08.bks.cpg/sg68_16_cif.got.tgz:31813.got - 2010.06.03 18:57:09.
