data_PCOD9505799
_publ_section_title
;
Structure prediction by ZEFSAII (Michael W. Deem and Ramdas Pophale) SiO2 
 PCOD9505799
Probable space group: C C C A
;
_chemical_formula_sum "Si O2"
_cell_formula_units_Z 64
_cell_length_a 13.930935
_cell_length_b 11.462558
_cell_length_c 19.115772
_cell_angle_alpha 90.000000
_cell_angle_beta 90.000000
_cell_angle_gamma 90.000000
_cell_volume 3052.485812
_symmetry_space_group_name_H-M "C C C A"
_symmetry_group_IT_number 68
_space_group.IT_coordinate_system_code '2'
_symmetry_cell_setting 'orthorhombic'
loop_
_space_group_symop_operation_xyz
x,y,z
-x,1/2-y,z
x,1/2-y,1/2-z
-x,y,1/2-z
-x,-y,-z
x,1/2+y,-z
-x,1/2+y,1/2+z
x,-y,1/2+z
1/2+x,1/2+y,z
1/2-x,-y,z
1/2+x,-y,1/2-z
1/2-x,1/2+y,1/2-z
1/2-x,1/2-y,-z
1/2+x,y,-z
1/2-x,y,1/2+z
1/2+x,1/2-y,1/2+z
loop_
_atom_site_type_symbol
_atom_site_label
_atom_site_fract_x
_atom_site_fract_y
_atom_site_fract_z
Si Si1 0.643534 0.375618 0.729870
Si Si2 0.290971 0.625305 0.428010
Si Si3 0.608531 0.296163 0.433880
Si Si4 0.361718 0.875157 0.783227
O O1 0.599855 0.250000 0.750000
O O2 0.659249 0.375380 0.646987
O O3 0.603074 0.503303 0.749570
O O4 0.747462 0.373916 0.768457
O O5 0.250000 0.500000 0.445238
O O6 0.363720 0.656603 0.489868
O O7 0.196111 0.705457 0.421807
O O8 0.500000 0.250000 0.434816
O O9 0.616237 0.377798 0.365623
O O10 0.395060 0.750000 0.750000
#
# Coordination Sequence:
#
# PCOD9505799 Si02
#       4
#    16  16  16  16
#     4  10  18  35  64  96 120 168 222 269 324 399
#     4  11  22  41  65  89 130 181 215 268 339 400
#     4  11  25  40  63 100 132 170 225 278 327 395
#     4  10  18  36  61  93 124 165 213 272 323 388
#
# _framework density 20.966518000000001
#
# number of rings (size 3 to 8) (size 9 to 14) (size 15 to 20)
#    0.000    1.500    7.500    0.000    3.500    1.500 
#    0.000    0.000    0.000    3.750    0.000    0.000 
#    0.000    0.000    0.000    0.000    0.000    0.000 
#
# Total GULP energy -178417.054692 kJ/mol
# GULP energy per Si atom -5575.532959 kJ/mol
# Density = 2.091880 g / cm^3
# Si number density = 20.966518 Si / 1000 Ang^3
#
#
#
# Elastic Constant Matrix: (Units=GPa)
#
#
# Indices 1 2 3 4 5 6 
#
# 1 101.4296 40.7076 94.0120 0.0000 0.0000 0.0000
# 2 40.7076 167.9315 68.7225 0.0000 0.0000 0.0000
# 3 94.0120 68.7225 196.5035 0.0000 0.0000 0.0000
# 4 0.0000 0.0000 0.0000 0.8603 0.0000 0.0000
# 5 0.0000 0.0000 0.0000 0.0000 -35.3657 0.0000
# 6 0.0000 0.0000 0.0000 0.0000 0.0000 0.0488
#
#
#
# Elastic Compliance Matrix: (Units=1/GPa)
#
#
# Indices 1 2 3 4 5 6 
#
# 1 0.017849 -0.000971 -0.008200 0.000000 0.000000 0.000000
# 2 -0.000971 0.007002 -0.001984 0.000000 0.000000 0.000000
# 3 -0.008200 -0.001984 0.009706 0.000000 0.000000 0.000000
# 4 0.000000 0.000000 0.000000 1.162346 0.000000 0.000000
# 5 0.000000 0.000000 0.000000 0.000000 -0.028276 0.000000
# 6 0.000000 0.000000 0.000000 0.000000 0.000000 20.473524
#
#
# Mechanical properties :
#
#
# Convention : Reuss Voigt Hill
#
# Bulk Modulus (GPa) = 81.65405 96.97209 89.31307
# Shear Modulus (GPa) = 0.23075 10.60353 5.41714
#
# Velocity S-wave (km/s) = 0.33211 2.25130 1.60914
# Velocity P-wave (km/s) = 6.25912 7.28760 6.79285
#
# Compressibility (1/GPa) = 0.01224679
#
# Stress axis : x y z
#
# Youngs Moduli (GPa) = 56.02600 142.81167 103.03066
#
# Poissons Ratio (x) = 0.13869 0.84482
# Poissons Ratio (y) = 0.05441 0.20444
# Poissons Ratio (z) = 0.45940 0.28338
#
# Static dielectric constant tensor:
#      x y z
#    x 1.124340 0.000000 0.000000 
#    y 0.000000 1.813370 0.000000 
#    z 0.000000 0.000000 1.668800 
# 
# From -- ./inp_files/29111.got.cif
#   From: 2010.05.17/outbox.cif.g08.bks.cpg/sg68_15_cif.got.tgz:29111.got - 2010.06.03 18:57:09.
