data_PCOD9505528
_publ_section_title
;
Structure prediction by ZEFSAII (Michael W. Deem and Ramdas Pophale) SiO2 
 PCOD9505528
Probable space group: C C C A
;
_chemical_formula_sum "Si O2"
_cell_formula_units_Z 96
_cell_length_a 29.218946
_cell_length_b 8.477415
_cell_length_c 21.581748
_cell_angle_alpha 90.000000
_cell_angle_beta 90.000000
_cell_angle_gamma 90.000000
_cell_volume 5345.823391
_symmetry_space_group_name_H-M "C C C A"
_symmetry_group_IT_number 68
_space_group.IT_coordinate_system_code '2'
_symmetry_cell_setting 'orthorhombic'
loop_
_space_group_symop_operation_xyz
x,y,z
-x,1/2-y,z
x,1/2-y,1/2-z
-x,y,1/2-z
-x,-y,-z
x,1/2+y,-z
-x,1/2+y,1/2+z
x,-y,1/2+z
1/2+x,1/2+y,z
1/2-x,-y,z
1/2+x,-y,1/2-z
1/2-x,1/2+y,1/2-z
1/2-x,1/2-y,-z
1/2+x,y,-z
1/2-x,y,1/2+z
1/2+x,1/2-y,1/2+z
loop_
_atom_site_type_symbol
_atom_site_label
_atom_site_fract_x
_atom_site_fract_y
_atom_site_fract_z
Si Si1 0.197656 0.491011 0.592591
Si Si2 0.613311 0.916962 0.923104
Si Si3 0.972838 0.080791 0.692559
Si Si4 0.632113 0.320536 0.313664
Si Si5 0.338987 0.288906 0.981952
Si Si6 0.991117 0.563883 0.067494
O O1 0.250000 0.500000 0.613141
O O2 0.163819 0.443030 0.648618
O O3 0.183548 0.655105 0.560138
O O4 0.192063 0.360601 0.537410
O O5 0.626426 0.823953 0.861508
O O6 0.561320 0.967035 0.916587
O O7 0.644156 0.065636 0.940790
O O8 0.619490 0.794380 0.980382
O O9 0.918875 0.111528 0.701232
O O10 0.000000 0.250000 0.687386
O O11 0.000000 0.002566 0.750000
O O12 0.979146 0.002447 0.625316
O O13 0.651569 0.250000 0.250000
O O14 0.000000 0.750000 0.062986
O O15 0.000000 0.500000 0.000000
#
# Coordination Sequence:
#
# PCOD9505528 Si02
#       6
#    16  16  16  16  16  16
#     4  10  21  38  60  84 111 147 194 240 298 351
#     4  10  18  33  51  82 112 143 184 230 288 344
#     4  10  17  33  56  78 107 147 200 221 269 347
#     4  11  20  36  58  82 109 152 195 237 273 345
#     4   9  20  34  58  80 112 144 181 236 300 354
#     4  11  20  29  49  81 114 142 182 235 280 330
#
# _framework density 17.957944000000001
#
# number of rings (size 3 to 8) (size 9 to 14) (size 15 to 20)
#    0.000    1.833    5.000    1.500    4.667    0.000 
#    0.000    2.500    0.000    0.500    0.000    1.167 
#    0.000    0.000    0.000    0.000    0.000    0.000 
#
# Total GULP energy -267459.409535 kJ/mol
# GULP energy per Si atom -5572.071032 kJ/mol
# Density = 1.791707 g / cm^3
# Si number density = 17.957944 Si / 1000 Ang^3
#
#
#
# Elastic Constant Matrix: (Units=GPa)
#
#
# Indices 1 2 3 4 5 6 
#
# 1 92.0849 22.6682 33.7616 0.0000 0.0000 0.0000
# 2 22.6682 48.6530 40.7012 0.0000 0.0000 0.0000
# 3 33.7616 40.7012 135.1556 0.0000 0.0000 0.0000
# 4 0.0000 0.0000 0.0000 22.9697 0.0000 0.0000
# 5 0.0000 0.0000 0.0000 0.0000 19.2671 0.0000
# 6 0.0000 0.0000 0.0000 0.0000 0.0000 6.2634
#
#
#
# Elastic Compliance Matrix: (Units=1/GPa)
#
#
# Indices 1 2 3 4 5 6 
#
# 1 0.012601 -0.004328 -0.001844 0.000000 0.000000 0.000000
# 2 -0.004328 0.028962 -0.007641 0.000000 0.000000 0.000000
# 3 -0.001844 -0.007641 0.010160 0.000000 0.000000 0.000000
# 4 0.000000 0.000000 0.000000 0.043536 0.000000 0.000000
# 5 0.000000 0.000000 0.000000 0.000000 0.051902 0.000000
# 6 0.000000 0.000000 0.000000 0.000000 0.000000 0.159658
#
#
# Mechanical properties :
#
#
# Convention : Reuss Voigt Hill
#
# Bulk Modulus (GPa) = 41.49797 52.23951 46.86874
# Shear Modulus (GPa) = 14.59948 21.61753 18.10850
#
# Velocity S-wave (km/s) = 2.85438 3.47333 3.17895
# Velocity P-wave (km/s) = 5.83283 6.72595 6.29525
#
# Compressibility (1/GPa) = 0.02409756
#
# Stress axis : x y z
#
# Youngs Moduli (GPa) = 79.35745 34.52793 98.42037
#
# Poissons Ratio (x) = 0.14944 0.18152
# Poissons Ratio (y) = 0.34347 0.75199
# Poissons Ratio (z) = 0.14636 0.26381
#
# Static dielectric constant tensor:
#      x y z
#    x 1.630290 0.000000 0.000000 
#    y 0.000000 1.632700 0.000000 
#    z 0.000000 0.000000 1.662770 
# 
# From -- ./inp_files/36486.got.cif
#   From: 2010.05.17/outbox.cif.g08.bks.cpg/sg68_19_cif.got.tgz:36486.got - 2010.06.03 18:57:09.
