data_PCOD9505952
_publ_section_title
;
Structure prediction by ZEFSAII (Michael W. Deem and Ramdas Pophale) SiO2 
 PCOD9505952
Probable space group: C C C A
;
_chemical_formula_sum "Si O2"
_cell_formula_units_Z 116
_cell_length_a 23.694586
_cell_length_b 18.350896
_cell_length_c 12.901255
_cell_angle_alpha 90.000000
_cell_angle_beta 90.000000
_cell_angle_gamma 90.000000
_cell_volume 5609.683492
_symmetry_space_group_name_H-M "C C C A"
_symmetry_group_IT_number 68
_space_group.IT_coordinate_system_code '2'
_symmetry_cell_setting 'orthorhombic'
loop_
_space_group_symop_operation_xyz
x,y,z
-x,1/2-y,z
x,1/2-y,1/2-z
-x,y,1/2-z
-x,-y,-z
x,1/2+y,-z
-x,1/2+y,1/2+z
x,-y,1/2+z
1/2+x,1/2+y,z
1/2-x,-y,z
1/2+x,-y,1/2-z
1/2-x,1/2+y,1/2-z
1/2-x,1/2-y,-z
1/2+x,y,-z
1/2-x,y,1/2+z
1/2+x,1/2-y,1/2+z
loop_
_atom_site_type_symbol
_atom_site_label
_atom_site_fract_x
_atom_site_fract_y
_atom_site_fract_z
Si Si1 0.255403 0.420493 0.964233
Si Si2 0.916751 0.299041 0.073310
Si Si3 0.000000 0.250000 0.250000
Si Si4 0.334566 0.808553 0.338155
Si Si5 0.701461 0.671892 0.854399
Si Si6 0.645723 0.403803 0.155142
Si Si7 0.145802 0.927852 0.682608
Si Si8 0.910648 0.737023 0.133910
O O1 0.250000 0.500000 0.013528
O O2 0.192370 0.397027 0.936401
O O3 0.289540 0.426868 0.857287
O O4 0.292399 0.371903 0.039262
O O5 0.961111 0.291991 0.167305
O O6 0.873073 0.229545 0.075892
O O7 0.887443 0.375418 0.102512
O O8 0.938714 0.286277 0.956171
O O9 0.347729 0.750000 0.250000
O O10 0.266910 0.804818 0.345278
O O11 0.353773 0.887021 0.293981
O O12 0.677556 0.623858 0.759658
O O13 0.655265 0.734973 0.863635
O O14 0.628870 0.487884 0.174246
O O15 0.594788 0.350200 0.126179
O O16 0.933058 0.750000 0.250000
#
# Coordination Sequence:
#
# PCOD9505952 Si02
#       8
#    16  16   4  16  16  16  16  16
#     4  10  20  28  43  75 115 165 208 231 285 339
#     4  11  22  41  64  91 115 151 206 268 315 363
#     4  12  24  44  74 100 104 144 214 274 328 362
#     4  10  19  31  51  80 116 157 197 243 300 338
#     4  11  20  30  53  79 125 173 204 237 277 365
#     4  10  21  33  49  81 121 165 205 239 289 370
#     4  10  19  36  51  80 123 156 198 258 305 343
#     4  10  22  38  56  87 124 165 200 235 299 373
#
# _framework density 20.678529000000001
#
# number of rings (size 3 to 8) (size 9 to 14) (size 15 to 20)
#    0.000    1.655    4.828    2.069    3.862    1.103 
#    0.000    0.345    0.000    0.828    0.000    0.000 
#    0.000    0.000    0.000    0.000    0.000    0.000 
#
# Total GULP energy -322890.740586 kJ/mol
# GULP energy per Si atom -5567.081734 kJ/mol
# Density = 2.063146 g / cm^3
# Si number density = 20.678529 Si / 1000 Ang^3
#
#
#
# Elastic Constant Matrix: (Units=GPa)
#
#
# Indices 1 2 3 4 5 6 
#
# 1 47.4400 23.1949 9.9240 0.0000 0.0000 0.0000
# 2 23.1949 123.4747 23.9660 0.0000 0.0000 0.0000
# 3 9.9240 23.9660 95.1179 0.0000 0.0000 0.0000
# 4 0.0000 0.0000 0.0000 21.3590 0.0000 0.0000
# 5 0.0000 0.0000 0.0000 0.0000 20.9106 0.0000
# 6 0.0000 0.0000 0.0000 0.0000 0.0000 9.1033
#
#
#
# Elastic Compliance Matrix: (Units=1/GPa)
#
#
# Indices 1 2 3 4 5 6 
#
# 1 0.023388 -0.004121 -0.001402 0.000000 0.000000 0.000000
# 2 -0.004121 0.009242 -0.001899 0.000000 0.000000 0.000000
# 3 -0.001402 -0.001899 0.011138 0.000000 0.000000 0.000000
# 4 0.000000 0.000000 0.000000 0.046819 0.000000 0.000000
# 5 0.000000 0.000000 0.000000 0.000000 0.047823 0.000000
# 6 0.000000 0.000000 0.000000 0.000000 0.000000 0.109850
#
#
# Mechanical properties :
#
#
# Convention : Reuss Voigt Hill
#
# Bulk Modulus (GPa) = 34.57353 42.24471 38.40912
# Shear Modulus (GPa) = 18.33231 24.20442 21.26837
#
# Velocity S-wave (km/s) = 2.98071 3.42498 3.21054
# Velocity P-wave (km/s) = 5.34808 6.00952 5.68842
#
# Compressibility (1/GPa) = 0.02892386
#
# Stress axis : x y z
#
# Youngs Moduli (GPa) = 42.75782 108.20730 89.78382
#
# Poissons Ratio (x) = 0.44596 0.12585
# Poissons Ratio (y) = 0.17622 0.17046
# Poissons Ratio (z) = 0.05993 0.20543
#
# Static dielectric constant tensor:
#      x y z
#    x 1.818540 0.000000 0.000000 
#    y 0.000000 1.705190 0.000000 
#    z 0.000000 0.000000 1.945150 
# 
# From -- ./inp_files/26139.got.cif
#   From: 2010.05.17/outbox.cif.g08.bks.cpg/sg68_14_cif.got.tgz:26139.got - 2010.06.03 18:57:09.
