data_PCOD9505979
_publ_section_title
;
Structure prediction by ZEFSAII (Michael W. Deem and Ramdas Pophale) SiO2 
 PCOD9505979
Probable space group: C C C A
;
_chemical_formula_sum "Si O2"
_cell_formula_units_Z 80
_cell_length_a 16.577412
_cell_length_b 8.940381
_cell_length_c 29.346705
_cell_angle_alpha 90.000000
_cell_angle_beta 90.000000
_cell_angle_gamma 90.000000
_cell_volume 4349.427585
_symmetry_space_group_name_H-M "C C C A"
_symmetry_group_IT_number 68
_space_group.IT_coordinate_system_code '2'
_symmetry_cell_setting 'orthorhombic'
loop_
_space_group_symop_operation_xyz
x,y,z
-x,1/2-y,z
x,1/2-y,1/2-z
-x,y,1/2-z
-x,-y,-z
x,1/2+y,-z
-x,1/2+y,1/2+z
x,-y,1/2+z
1/2+x,1/2+y,z
1/2-x,-y,z
1/2+x,-y,1/2-z
1/2-x,1/2+y,1/2-z
1/2-x,1/2-y,-z
1/2+x,y,-z
1/2-x,y,1/2+z
1/2+x,1/2-y,1/2+z
loop_
_atom_site_type_symbol
_atom_site_label
_atom_site_fract_x
_atom_site_fract_y
_atom_site_fract_z
Si Si1 0.759124 0.821645 0.300020
Si Si2 0.831027 0.901492 0.533006
Si Si3 0.090202 0.300078 0.538697
Si Si4 0.829165 0.607292 0.863640
Si Si5 0.089750 0.692365 0.145572
O O1 0.757279 0.750000 0.250000
O O2 0.688760 0.742015 0.329643
O O3 0.843232 0.773375 0.323853
O O4 0.750000 0.000000 0.298404
O O5 0.846660 0.784830 0.493357
O O6 0.834968 0.837280 0.584256
O O7 0.750000 0.000000 0.528833
O O8 0.901317 0.024409 0.530528
O O9 0.107168 0.272815 0.592178
O O10 0.000000 0.250000 0.528533
O O11 0.750000 0.500000 0.862182
O O12 0.899057 0.488394 0.850903
O O13 0.000000 0.750000 0.155890
#
# Coordination Sequence:
#
# PCOD9505979 Si02
#       5
#    16  16  16  16  16
#     4  11  22  38  60  82 104 136 177 226 278 330
#     4  10  19  32  51  75 105 142 181 222 259 307
#     4  10  20  33  50  76 111 145 177 216 265 314
#     4   8  17  35  54  76 108 142 178 219 266 323
#     4   9  19  36  56  79 110 146 179 217 268 324
#
# _framework density 18.393225999999999
#
# number of rings (size 3 to 8) (size 9 to 14) (size 15 to 20)
#    0.000    2.400    0.000    4.200    0.000    2.800 
#    0.000    1.000    0.000    1.200    0.000    0.000 
#    0.000    0.000    0.000    0.000    0.000    0.000 
#
# Total GULP energy -223065.403868 kJ/mol
# GULP energy per Si atom -5576.635097 kJ/mol
# Density = 1.835136 g / cm^3
# Si number density = 18.393226 Si / 1000 Ang^3
#
#
#
# Elastic Constant Matrix: (Units=GPa)
#
#
# Indices 1 2 3 4 5 6 
#
# 1 74.6021 43.4123 48.0529 0.0000 0.0000 0.0000
# 2 43.4123 113.1627 85.4896 0.0000 0.0000 0.0000
# 3 48.0529 85.4896 127.4673 0.0000 0.0000 0.0000
# 4 0.0000 0.0000 0.0000 20.3692 0.0000 0.0000
# 5 0.0000 0.0000 0.0000 0.0000 12.2309 0.0000
# 6 0.0000 0.0000 0.0000 0.0000 0.0000 31.2309
#
#
#
# Elastic Compliance Matrix: (Units=1/GPa)
#
#
# Indices 1 2 3 4 5 6 
#
# 1 0.018434 -0.003693 -0.004473 0.000000 0.000000 0.000000
# 2 -0.003693 0.018652 -0.011118 0.000000 0.000000 0.000000
# 3 -0.004473 -0.011118 0.016988 0.000000 0.000000 0.000000
# 4 0.000000 0.000000 0.000000 0.049094 0.000000 0.000000
# 5 0.000000 0.000000 0.000000 0.000000 0.081760 0.000000
# 6 0.000000 0.000000 0.000000 0.000000 0.000000 0.032020
#
#
# Mechanical properties :
#
#
# Convention : Reuss Voigt Hill
#
# Bulk Modulus (GPa) = 64.48313 74.34909 69.41611
# Shear Modulus (GPa) = 19.18034 21.98469 20.58251
#
# Velocity S-wave (km/s) = 3.23273 3.46100 3.34881
# Velocity P-wave (km/s) = 7.00488 7.51539 7.26462
#
# Compressibility (1/GPa) = 0.01550793
#
# Stress axis : x y z
#
# Youngs Moduli (GPa) = 54.24643 53.61226 58.86672
#
# Poissons Ratio (x) = 0.19800 0.26328
# Poissons Ratio (y) = 0.20034 0.65445
# Poissons Ratio (z) = 0.24262 0.59604
#
# Static dielectric constant tensor:
#      x y z
#    x 1.664390 0.000000 0.000000 
#    y 0.000000 1.634950 0.000000 
#    z 0.000000 0.000000 1.638220 
# 
# From -- ./inp_files/49098.got.cif
#   From: 2010.05.17/outbox.cif.g08.bks.cpg/sg68_25_cif.got.tgz:49098.got - 2010.06.03 18:57:09.
