data_PCOD9505842
_publ_section_title
;
Structure prediction by ZEFSAII (Michael W. Deem and Ramdas Pophale) SiO2 
 PCOD9505842
Probable space group: C C C A
;
_chemical_formula_sum "Si O2"
_cell_formula_units_Z 64
_cell_length_a 22.691950
_cell_length_b 13.503817
_cell_length_c 9.793276
_cell_angle_alpha 90.000000
_cell_angle_beta 90.000000
_cell_angle_gamma 90.000000
_cell_volume 3000.933392
_symmetry_space_group_name_H-M "C C C A"
_symmetry_group_IT_number 68
_space_group.IT_coordinate_system_code '2'
_symmetry_cell_setting 'orthorhombic'
loop_
_space_group_symop_operation_xyz
x,y,z
-x,1/2-y,z
x,1/2-y,1/2-z
-x,y,1/2-z
-x,-y,-z
x,1/2+y,-z
-x,1/2+y,1/2+z
x,-y,1/2+z
1/2+x,1/2+y,z
1/2-x,-y,z
1/2+x,-y,1/2-z
1/2-x,1/2+y,1/2-z
1/2-x,1/2-y,-z
1/2+x,y,-z
1/2-x,y,1/2+z
1/2+x,1/2-y,1/2+z
loop_
_atom_site_type_symbol
_atom_site_label
_atom_site_fract_x
_atom_site_fract_y
_atom_site_fract_z
Si Si1 0.639585 0.605579 0.665790
Si Si2 0.538222 0.554346 0.113981
Si Si3 0.120212 0.187501 0.972057
Si Si4 0.764771 0.323623 0.122476
O O1 0.595075 0.516027 0.641123
O O2 0.629227 0.638499 0.822958
O O3 0.623338 0.695955 0.562595
O O4 0.710910 0.600029 0.645516
O O5 0.500000 0.566919 0.250000
O O6 0.500000 0.500000 0.000000
O O7 0.560792 0.655345 0.045641
O O8 0.170964 0.145444 0.073160
O O9 0.768064 0.250000 0.250000
O O10 0.750000 0.250000 0.000000
#
# Coordination Sequence:
#
# PCOD9505842 Si02
#       4
#    16  16  16  16
#     4  10  21  44  70  95 137 179 210 273 351 391
#     4  12  26  45  66  99 136 174 238 279 312 398
#     4  10  22  43  70  98 133 180 214 270 345 397
#     4  10  18  37  68 103 130 162 219 270 327 410
#
# _framework density 21.326699000000001
#
# number of rings (size 3 to 8) (size 9 to 14) (size 15 to 20)
#    0.000    1.500    7.500    0.000    0.000    6.000 
#    0.000    3.750    0.000    0.000    0.000    0.000 
#    0.000    0.000    0.000    0.000    0.000    0.000 
#
# Total GULP energy -178403.680447 kJ/mol
# GULP energy per Si atom -5575.115014 kJ/mol
# Density = 2.127816 g / cm^3
# Si number density = 21.326699 Si / 1000 Ang^3
#
#
#
# Elastic Constant Matrix: (Units=GPa)
#
#
# Indices 1 2 3 4 5 6 
#
# 1 126.4555 59.3528 64.0568 0.0000 0.0000 0.0000
# 2 59.3528 69.5420 32.7156 0.0000 0.0000 0.0000
# 3 64.0568 32.7156 148.6192 0.0000 0.0000 0.0000
# 4 0.0000 0.0000 0.0000 15.8887 0.0000 0.0000
# 5 0.0000 0.0000 0.0000 0.0000 51.5167 0.0000
# 6 0.0000 0.0000 0.0000 0.0000 0.0000 39.9871
#
#
#
# Elastic Compliance Matrix: (Units=1/GPa)
#
#
# Indices 1 2 3 4 5 6 
#
# 1 0.015152 -0.010999 -0.004110 0.000000 0.000000 0.000000
# 2 -0.010999 0.024025 -0.000548 0.000000 0.000000 0.000000
# 3 -0.004110 -0.000548 0.008621 0.000000 0.000000 0.000000
# 4 0.000000 0.000000 0.000000 0.062938 0.000000 0.000000
# 5 0.000000 0.000000 0.000000 0.000000 0.019411 0.000000
# 6 0.000000 0.000000 0.000000 0.000000 0.000000 0.025008
#
#
# Mechanical properties :
#
#
# Convention : Reuss Voigt Hill
#
# Bulk Modulus (GPa) = 60.66193 72.98524 66.82359
# Shear Modulus (GPa) = 26.04691 34.04458 30.04575
#
# Velocity S-wave (km/s) = 3.49854 3.99975 3.75751
# Velocity P-wave (km/s) = 6.69519 7.45838 7.08707
#
# Compressibility (1/GPa) = 0.01648480
#
# Stress axis : x y z
#
# Youngs Moduli (GPa) = 65.99841 41.62387 116.00236
#
# Poissons Ratio (x) = 0.45780 0.47672
# Poissons Ratio (y) = 0.72589 0.06358
# Poissons Ratio (z) = 0.27122 0.02281
#
# Static dielectric constant tensor:
#      x y z
#    x 1.903750 0.000000 0.000000 
#    y 0.000000 1.659030 0.000000 
#    z 0.000000 0.000000 1.689550 
# 
# From -- ./inp_files/7751.got.cif
#   From: 2010.05.17/outbox.cif.g08.bks.cpg/sg68_4_cif.got.tgz:7751.got - 2010.06.03 18:57:09.
