data_PCOD9505331
_publ_section_title
;
Structure prediction by ZEFSAII (Michael W. Deem and Ramdas Pophale) SiO2 
 PCOD9505331
Probable space group: C C C A
;
_chemical_formula_sum "Si O2"
_cell_formula_units_Z 56
_cell_length_a 14.254268
_cell_length_b 5.208744
_cell_length_c 30.935983
_cell_angle_alpha 90.000000
_cell_angle_beta 90.000000
_cell_angle_gamma 90.000000
_cell_volume 2296.898761
_symmetry_space_group_name_H-M "C C C A"
_symmetry_group_IT_number 68
_space_group.IT_coordinate_system_code '2'
_symmetry_cell_setting 'orthorhombic'
loop_
_space_group_symop_operation_xyz
x,y,z
-x,1/2-y,z
x,1/2-y,1/2-z
-x,y,1/2-z
-x,-y,-z
x,1/2+y,-z
-x,1/2+y,1/2+z
x,-y,1/2+z
1/2+x,1/2+y,z
1/2-x,-y,z
1/2+x,-y,1/2-z
1/2-x,1/2+y,1/2-z
1/2-x,1/2-y,-z
1/2+x,y,-z
1/2-x,y,1/2+z
1/2+x,1/2-y,1/2+z
loop_
_atom_site_type_symbol
_atom_site_label
_atom_site_fract_x
_atom_site_fract_y
_atom_site_fract_z
Si Si1 0.605092 0.036488 0.481814
Si Si2 0.863509 0.515617 0.116238
Si Si3 0.636432 0.517238 0.336661
Si Si4 0.315335 0.750000 0.250000
O O1 0.649914 0.760894 0.490140
O O2 0.500000 0.000000 0.500000
O O3 0.605280 0.095532 0.431397
O O4 0.750000 0.500000 0.115813
O O5 0.895663 0.231664 0.129433
O O6 0.894199 0.732235 0.150569
O O7 0.750000 0.500000 0.339071
O O8 0.623479 0.636888 0.289183
O O9 0.250000 0.500000 0.263398
#
# Coordination Sequence:
#
# PCOD9505331 Si02
#       4
#    16  16  16   8
#     4  10  21  36  52  70  96 129 173 219 261 310
#     4  10  19  31  48  72 102 134 169 211 256 297
#     4   9  17  28  44  70 103 138 169 200 245 298
#     4  10  16  26  44  68 104 145 174 197 240 302
#
# _framework density 24.380700999999998
#
# number of rings (size 3 to 8) (size 9 to 14) (size 15 to 20)
#    0.000    2.286    0.000    6.000    0.000    1.143 
#    0.000    0.000    0.000    0.000    0.000    0.000 
#    0.000   68.571    0.000    6.857    0.000    0.000 
#
# Total GULP energy -156394.333434 kJ/mol
# GULP energy per Si atom -5585.511908 kJ/mol
# Density = 2.432521 g / cm^3
# Si number density = 24.380701 Si / 1000 Ang^3
#
#
#
# Elastic Constant Matrix: (Units=GPa)
#
#
# Indices 1 2 3 4 5 6 
#
# 1 102.2146 -13.8536 -3.4843 0.0000 0.0000 0.0000
# 2 -13.8536 164.0637 31.0905 0.0000 0.0000 0.0000
# 3 -3.4843 31.0905 133.2659 0.0000 0.0000 0.0000
# 4 0.0000 0.0000 0.0000 57.6502 0.0000 0.0000
# 5 0.0000 0.0000 0.0000 0.0000 45.7561 0.0000
# 6 0.0000 0.0000 0.0000 0.0000 0.0000 -15.9446
#
#
#
# Elastic Compliance Matrix: (Units=1/GPa)
#
#
# Indices 1 2 3 4 5 6 
#
# 1 0.009897 0.000823 0.000067 0.000000 0.000000 0.000000
# 2 0.000823 0.006446 -0.001482 0.000000 0.000000 0.000000
# 3 0.000067 -0.001482 0.007851 0.000000 0.000000 0.000000
# 4 0.000000 0.000000 0.000000 0.017346 0.000000 0.000000
# 5 0.000000 0.000000 0.000000 0.000000 0.021855 0.000000
# 6 0.000000 0.000000 0.000000 0.000000 0.000000 -0.062717
#
#
# Mechanical properties :
#
#
# Convention : Reuss Voigt Hill
#
# Bulk Modulus (GPa) = 43.46070 47.44993 45.45532
# Shear Modulus (GPa) = 524.53383 43.21179 283.87281
#
# Velocity S-wave (km/s) = 14.68367 4.21453 10.80214
# Velocity P-wave (km/s) = 17.47412 6.57171 13.20099
#
# Compressibility (1/GPa) = 0.02300929
#
# Stress axis : x y z
#
# Youngs Moduli (GPa) = 101.03902 155.14520 127.36687
#
# Poissons Ratio (x) = -0.12770 -0.00850
# Poissons Ratio (y) = -0.08316 0.18878
# Poissons Ratio (z) = -0.00674 0.22996
#
# Static dielectric constant tensor:
#      x y z
#    x 1.962130 0.000000 0.000000 
#    y 0.000000 2.007800 0.000000 
#    z 0.000000 0.000000 1.912100 
# 
# From -- ./inp_files/47982.got.cif
#   From: 2010.05.17/outbox.cif.g08.bks.cpg/sg68_24_cif.got.tgz:47982.got - 2010.06.03 18:57:09.
