data_PCOD9505287
_publ_section_title
;
Structure prediction by ZEFSAII (Michael W. Deem and Ramdas Pophale) SiO2 
 PCOD9505287
Probable space group: C M M A
;
_chemical_formula_sum "Si O2"
_cell_formula_units_Z 32
_cell_length_a 15.000000
_cell_length_b 18.000000
_cell_length_c 12.000000
_cell_angle_alpha 90.000000
_cell_angle_beta 90.000000
_cell_angle_gamma 90.000000
_cell_volume 3240.000000
_symmetry_space_group_name_H-M "C M M A"
_symmetry_group_IT_number 67
_symmetry_cell_setting 'orthorhombic'
loop_
_space_group_symop_operation_xyz
x,y,z
-x,1/2-y,z
x,-y,-z
-x,1/2+y,-z
-x,-y,-z
x,1/2+y,-z
-x,y,z
x,1/2-y,z
1/2+x,1/2+y,z
1/2-x,-y,z
1/2+x,1/2-y,-z
1/2-x,y,-z
1/2-x,1/2-y,-z
1/2+x,y,-z
1/2-x,1/2+y,z
1/2+x,-y,z
loop_
_atom_site_type_symbol
_atom_site_label
_atom_site_fract_x
_atom_site_fract_y
_atom_site_fract_z
Si Si1 0.604124 0.164246 0.984240
Si Si2 0.500000 0.080096 0.562690
Si Si3 0.342870 0.586729 0.799530
Si Si4 0.000000 0.337097 0.664967
Si Si5 0.858973 0.083107 0.242492
O O1 0.500000 0.157625 0.016707
O O2 0.630479 0.250000 0.991806
O O3 0.612191 0.136473 0.857900
O O4 0.658400 0.117444 0.074872
O O5 0.500000 0.138659 0.463314
O O6 0.584298 0.089323 0.645112
O O7 0.500000 0.000000 0.500000
O O8 0.414312 0.630140 0.726976
O O9 0.246400 0.593740 0.743422
O O10 0.370763 0.500909 0.801037
O O11 0.000000 0.250000 0.676866
#
# Coordination Sequence:
#
# PCOD9505287 Si02
#       5
#    16   8  16   8  16
#     4  11  23  39  65  99 140 181 217 273 348 416
#     4  12  24  47  69  94 131 184 230 284 337 396
#     4  11  23  42  68 103 130 174 226 280 338 415
#     4  12  26  45  69  97 133 180 228 282 347 407
#     4  11  24  42  70  99 132 174 230 282 337 403
#
# _framework density 9.8765429999999999
#
# number of rings (size 3 to 8) (size 9 to 14) (size 15 to 20)
#    0.000    0.750    5.000    2.250    0.000    8.000 
#    0.000    1.250    0.000    0.000    0.000    0.000 
#    0.000    0.000    0.000    0.000    0.000    0.000 
#
# Total GULP energy -178940.737713 kJ/mol
# GULP energy per Si atom -5591.898054 kJ/mol
# Density = 0.985406 g / cm^3
# Si number density = 9.876543 Si / 1000 Ang^3
#
#
#
# Elastic Constant Matrix: (Units=GPa)
#
#
# Indices 1 2 3 4 5 6 
#
# 1 64.5854 47.3399 35.9165 0.0000 0.0000 0.0000
# 2 47.3399 95.8476 30.3743 0.0000 0.0000 0.0000
# 3 35.9165 30.3743 122.8118 0.0000 0.0000 0.0000
# 4 0.0000 0.0000 0.0000 50.3272 0.0000 0.0000
# 5 0.0000 0.0000 0.0000 0.0000 21.0185 0.0000
# 6 0.0000 0.0000 0.0000 0.0000 0.0000 -43.9490
#
#
#
# Elastic Compliance Matrix: (Units=1/GPa)
#
#
# Indices 1 2 3 4 5 6 
#
# 1 0.026781 -0.011659 -0.004949 0.000000 0.000000 0.000000
# 2 -0.011659 0.016396 -0.000645 0.000000 0.000000 0.000000
# 3 -0.004949 -0.000645 0.009749 0.000000 0.000000 0.000000
# 4 0.000000 0.000000 0.000000 0.019870 0.000000 0.000000
# 5 0.000000 0.000000 0.000000 0.000000 0.047577 0.000000
# 6 0.000000 0.000000 0.000000 0.000000 0.000000 -0.022754
#
#
# Mechanical properties :
#
#
# Convention : Reuss Voigt Hill
#
# Bulk Modulus (GPa) = 54.28753 56.72292 55.50522
# Shear Modulus (GPa) = 36.16172 16.78693 26.47433
#
# Velocity S-wave (km/s) = 4.28329 2.91836 3.66493
# Velocity P-wave (km/s) = 7.21144 6.33515 6.78745
#
# Compressibility (1/GPa) = 0.01842044
#
# Stress axis : x y z
#
# Youngs Moduli (GPa) = 37.33927 60.98899 102.57032
#
# Poissons Ratio (x) = 0.71109 0.50759
# Poissons Ratio (y) = 0.43535 0.06620
# Poissons Ratio (z) = 0.18478 0.03936
#
# Static dielectric constant tensor:
#      x y z
#    x 1.735950 0.000000 0.000000 
#    y 0.000000 1.681020 0.000000 
#    z 0.000000 0.000000 1.632210 
# 
# From -- ./inp_files/17537.got.cif
#   From: 2010.05.17/outbox.ucp.g08.bks.cvg/sg67_9_cif.got.tgz:17537.got - 2010.06.11 16:47:20.
