data_PCOD9505857
_publ_section_title
;
Structure prediction by ZEFSAII (Michael W. Deem and Ramdas Pophale) SiO2 
 PCOD9505857
Probable space group: C C C A
;
_chemical_formula_sum "Si O2"
_cell_formula_units_Z 120
_cell_length_a 17.213947
_cell_length_b 18.028478
_cell_length_c 20.486389
_cell_angle_alpha 90.000000
_cell_angle_beta 90.000000
_cell_angle_gamma 90.000000
_cell_volume 6357.771873
_symmetry_space_group_name_H-M "C C C A"
_symmetry_group_IT_number 68
_space_group.IT_coordinate_system_code '2'
_symmetry_cell_setting 'orthorhombic'
loop_
_space_group_symop_operation_xyz
x,y,z
-x,1/2-y,z
x,1/2-y,1/2-z
-x,y,1/2-z
-x,-y,-z
x,1/2+y,-z
-x,1/2+y,1/2+z
x,-y,1/2+z
1/2+x,1/2+y,z
1/2-x,-y,z
1/2+x,-y,1/2-z
1/2-x,1/2+y,1/2-z
1/2-x,1/2-y,-z
1/2+x,y,-z
1/2-x,y,1/2+z
1/2+x,1/2-y,1/2+z
loop_
_atom_site_type_symbol
_atom_site_label
_atom_site_fract_x
_atom_site_fract_y
_atom_site_fract_z
Si Si1 0.080440 0.163107 0.473844
Si Si2 0.909513 0.904137 0.980144
Si Si3 0.181046 0.059517 0.289509
Si Si4 0.257789 0.773349 0.318025
Si Si5 0.323212 0.269295 0.045951
Si Si6 0.883161 0.861675 0.832147
Si Si7 0.660777 0.525538 0.430501
Si Si8 0.500000 0.750000 0.135558
O O1 0.109304 0.208884 0.535195
O O2 0.149284 0.108988 0.454006
O O3 0.065234 0.219717 0.414207
O O4 0.999543 0.120225 0.482278
O O5 0.884005 0.898921 0.904052
O O6 0.859046 0.844655 0.019426
O O7 0.891346 0.978481 0.019677
O O8 0.210583 0.142296 0.310492
O O9 0.133362 0.078848 0.224276
O O10 0.138289 0.026241 0.353684
O O11 0.250000 0.000000 0.275663
O O12 0.218097 0.750000 0.250000
O O13 0.203890 0.772620 0.380465
O O14 0.321596 0.706922 0.326739
O O15 0.250000 0.250000 0.000000
O O16 0.965019 0.818383 0.825420
O O17 0.750000 0.500000 0.434137
#
# Coordination Sequence:
#
# PCOD9505857 Si02
#       8
#    16  16  16  16  16  16  16   8
#     4  11  21  38  60  90 127 151 199 262 318 360
#     4  11  22  38  59  94 125 159 201 261 317 372
#     4  10  21  39  56  85 129 165 198 254 313 373
#     4  10  21  37  59  90 122 158 210 262 305 360
#     4  12  18  34  65  90 115 156 206 250 301 370
#     4  10  20  37  62  92 125 160 204 261 319 370
#     4  11  23  38  60  87 118 168 205 244 306 376
#     4  10  18  38  61  96 123 152 202 260 320 378
#
# _framework density 18.874538000000001
#
# number of rings (size 3 to 8) (size 9 to 14) (size 15 to 20)
#    0.000    1.333    4.000    4.400    0.000    0.533 
#    2.400   14.333    0.000    1.600    0.000    0.000 
#    0.000    0.000    0.000    0.000    0.000    0.000 
#
# Total GULP energy -334692.676228 kJ/mol
# GULP energy per Si atom -5578.211270 kJ/mol
# Density = 1.883158 g / cm^3
# Si number density = 18.874538 Si / 1000 Ang^3
#
#
#
# Elastic Constant Matrix: (Units=GPa)
#
#
# Indices 1 2 3 4 5 6 
#
# 1 40.2296 17.8200 38.4843 0.0000 0.0000 0.0000
# 2 17.8200 76.9144 48.1241 0.0000 0.0000 0.0000
# 3 38.4843 48.1241 170.2418 0.0000 0.0000 0.0000
# 4 0.0000 0.0000 0.0000 5.2606 0.0000 0.0000
# 5 0.0000 0.0000 0.0000 0.0000 5.5690 0.0000
# 6 0.0000 0.0000 0.0000 0.0000 0.0000 31.0139
#
#
#
# Elastic Compliance Matrix: (Units=1/GPa)
#
#
# Indices 1 2 3 4 5 6 
#
# 1 0.032500 -0.003563 -0.006340 0.000000 0.000000 0.000000
# 2 -0.003563 0.016186 -0.003770 0.000000 0.000000 0.000000
# 3 -0.006340 -0.003770 0.008373 0.000000 0.000000 0.000000
# 4 0.000000 0.000000 0.000000 0.190093 0.000000 0.000000
# 5 0.000000 0.000000 0.000000 0.000000 0.179565 0.000000
# 6 0.000000 0.000000 0.000000 0.000000 0.000000 0.032244
#
#
# Mechanical properties :
#
#
# Convention : Reuss Voigt Hill
#
# Bulk Modulus (GPa) = 33.65499 55.13808 44.39653
# Shear Modulus (GPa) = 10.07637 20.56586 15.32111
#
# Velocity S-wave (km/s) = 2.31305 3.30450 2.85219
# Velocity P-wave (km/s) = 5.00032 6.62088 5.86682
#
# Compressibility (1/GPa) = 0.02971328
#
# Stress axis : x y z
#
# Youngs Moduli (GPa) = 30.76892 61.78254 119.43429
#
# Poissons Ratio (x) = 0.22015 0.75717
# Poissons Ratio (y) = 0.10964 0.45026
# Poissons Ratio (z) = 0.19506 0.23292
#
# Static dielectric constant tensor:
#      x y z
#    x 1.699260 0.000000 0.000000 
#    y 0.000000 2.136850 0.000000 
#    z 0.000000 0.000000 1.664320 
# 
# From -- ./inp_files/39788.got.cif
#   From: 2010.05.17/outbox.cif.g08.bks.cpg/sg68_20_cif.got.tgz:39788.got - 2010.06.03 18:57:09.
