data_PCOD9505819
_publ_section_title
;
Structure prediction by ZEFSAII (Michael W. Deem and Ramdas Pophale) SiO2 
 PCOD9505819
Probable space group: C C C A
;
_chemical_formula_sum "Si O2"
_cell_formula_units_Z 96
_cell_length_a 18.630534
_cell_length_b 20.411608
_cell_length_c 11.557684
_cell_angle_alpha 90.000000
_cell_angle_beta 90.000000
_cell_angle_gamma 90.000000
_cell_volume 4395.146327
_symmetry_space_group_name_H-M "C C C A"
_symmetry_group_IT_number 68
_space_group.IT_coordinate_system_code '2'
_symmetry_cell_setting 'orthorhombic'
loop_
_space_group_symop_operation_xyz
x,y,z
-x,1/2-y,z
x,1/2-y,1/2-z
-x,y,1/2-z
-x,-y,-z
x,1/2+y,-z
-x,1/2+y,1/2+z
x,-y,1/2+z
1/2+x,1/2+y,z
1/2-x,-y,z
1/2+x,-y,1/2-z
1/2-x,1/2+y,1/2-z
1/2-x,1/2-y,-z
1/2+x,y,-z
1/2-x,y,1/2+z
1/2+x,1/2-y,1/2+z
loop_
_atom_site_type_symbol
_atom_site_label
_atom_site_fract_x
_atom_site_fract_y
_atom_site_fract_z
Si Si1 0.813563 0.250000 0.250000
Si Si2 0.122206 0.775672 0.998830
Si Si3 0.522062 0.886804 0.012090
Si Si4 0.255284 0.867795 0.607681
Si Si5 0.377834 0.445350 0.316868
Si Si6 0.369578 0.368519 0.078481
Si Si7 0.500000 0.547952 0.250000
O O1 0.859397 0.237605 0.134930
O O2 0.772380 0.181851 0.288924
O O3 0.047240 0.812681 0.004875
O O4 0.184798 0.823023 0.045180
O O5 0.125278 0.709919 0.072750
O O6 0.524313 0.908136 0.143296
O O7 0.575390 0.925105 0.928195
O O8 0.441245 0.898076 0.975391
O O9 0.294988 0.935074 0.644381
O O10 0.195140 0.883196 0.510765
O O11 0.373299 0.395089 0.208394
O O12 0.427335 0.505662 0.274661
#
# Coordination Sequence:
#
# PCOD9505819 Si02
#       7
#     8  16  16  16  16  16   8
#     4  10  18  36  63  95 146 180 206 276 362 427
#     4  10  22  37  62 102 136 176 217 273 355 427
#     4  11  25  42  68  98 131 182 233 282 349 402
#     4  10  21  37  65  98 136 175 219 277 355 420
#     4  11  23  45  72  95 131 183 239 283 342 408
#     4  11  21  41  69 103 137 169 221 290 352 416
#     4  12  26  46  71  89 136 188 240 294 330 404
#
# _framework density 21.842275000000001
#
# number of rings (size 3 to 8) (size 9 to 14) (size 15 to 20)
#    0.000    1.333    1.667    5.000    4.667    2.000 
#    0.000    4.167    0.000    0.000    0.000    0.000 
#    0.000    0.000    0.000    0.000    0.000    0.000 
#
# Total GULP energy -267509.951277 kJ/mol
# GULP energy per Si atom -5573.123985 kJ/mol
# Density = 2.179256 g / cm^3
# Si number density = 21.842275 Si / 1000 Ang^3
#
#
#
# Elastic Constant Matrix: (Units=GPa)
#
#
# Indices 1 2 3 4 5 6 
#
# 1 -69.6764 23.0274 94.0780 0.0000 0.0000 0.0000
# 2 23.0274 15.0481 -0.6602 0.0000 0.0000 0.0000
# 3 94.0780 -0.6602 66.8766 0.0000 0.0000 0.0000
# 4 0.0000 0.0000 0.0000 -92.7190 0.0000 0.0000
# 5 0.0000 0.0000 0.0000 0.0000 33.5700 0.0000
# 6 0.0000 0.0000 0.0000 0.0000 0.0000 -10.7310
#
#
#
# Elastic Compliance Matrix: (Units=1/GPa)
#
#
# Indices 1 2 3 4 5 6 
#
# 1 -0.004164 0.006631 0.005923 0.000000 0.000000 0.000000
# 2 0.006631 0.055921 -0.008776 0.000000 0.000000 0.000000
# 3 0.005923 -0.008776 0.006535 0.000000 0.000000 0.000000
# 4 0.000000 0.000000 0.000000 -0.010785 0.000000 0.000000
# 5 0.000000 0.000000 0.000000 0.000000 0.029788 0.000000
# 6 0.000000 0.000000 0.000000 0.000000 0.000000 -0.093188
#
#
# Mechanical properties :
#
#
# Convention : Reuss Voigt Hill
#
# Bulk Modulus (GPa) = 15.18671 27.23763 21.21217
# Shear Modulus (GPa) = -3336.37586 -20.92245 -1678.64915
#
# Velocity S-wave (km/s) = -39.12546 -3.09833 -27.75249
# Velocity P-wave (km/s) = 45.10101 0.54986 31.89360
#
# Compressibility (1/GPa) = 0.06584704
#
# Stress axis : x y z
#
# Youngs Moduli (GPa) = -240.17394 17.88235 153.03031
#
# Poissons Ratio (x) = -0.11858 -0.90634
# Poissons Ratio (y) = 1.59267 1.34306
# Poissons Ratio (z) = 1.42246 0.15694
#
# Static dielectric constant tensor:
#      x y z
#    x 1.811170 0.000000 0.000000 
#    y 0.000000 1.865410 0.000000 
#    z 0.000000 0.000000 1.874920 
# 
# From -- ./inp_files/14668.got.cif
#   From: 2010.05.17/outbox.cif.g08.bks.cpg/sg68_8_cif.got.tgz:14668.got - 2010.06.03 18:57:09.
