data_PCOD9505080
_publ_section_title
;
Structure prediction by ZEFSAII (Michael W. Deem and Ramdas Pophale) SiO2 
 PCOD9505080
Probable space group: C M M A
;
_chemical_formula_sum "Si O2"
_cell_formula_units_Z 72
_cell_length_a 10.061831
_cell_length_b 27.186029
_cell_length_c 13.724718
_cell_angle_alpha 90.000000
_cell_angle_beta 90.000000
_cell_angle_gamma 90.000000
_cell_volume 3754.276234
_symmetry_space_group_name_H-M "C M M A"
_symmetry_group_IT_number 67
_symmetry_cell_setting 'orthorhombic'
loop_
_space_group_symop_operation_xyz
x,y,z
-x,1/2-y,z
x,-y,-z
-x,1/2+y,-z
-x,-y,-z
x,1/2+y,-z
-x,y,z
x,1/2-y,z
1/2+x,1/2+y,z
1/2-x,-y,z
1/2+x,1/2-y,-z
1/2-x,y,-z
1/2-x,1/2-y,-z
1/2+x,y,-z
1/2-x,1/2+y,z
1/2+x,-y,z
loop_
_atom_site_type_symbol
_atom_site_label
_atom_site_fract_x
_atom_site_fract_y
_atom_site_fract_z
Si Si1 0.348016 0.750000 0.093302
Si Si2 0.000000 0.906272 0.906744
Si Si3 0.000000 0.122027 0.880570
Si Si4 0.000000 0.989234 0.172657
Si Si5 0.719963 0.849456 0.205036
Si Si6 0.339384 0.602988 0.407223
Si Si7 0.250000 0.000000 0.313836
O O1 0.500000 0.750000 0.058064
O O2 0.324695 0.702522 0.161299
O O3 0.250000 0.750000 0.000000
O O4 0.869600 0.890450 0.848004
O O5 0.000000 0.872484 0.003137
O O6 0.000000 0.965301 0.902184
O O7 0.870832 0.142436 0.827483
O O8 0.000000 0.063230 0.876501
O O9 0.126138 0.990807 0.243458
O O10 0.693424 0.859832 0.318406
O O11 0.500000 0.601924 0.423350
O O12 0.250000 0.616801 0.500000
O O13 0.288870 0.548409 0.375308
#
# Coordination Sequence:
#
# PCOD9505080 Si02
#       7
#     8   8   8   8  16  16   8
#     4  12  26  46  75 104 134 179 224 279 343 395
#     4  12  21  43  62  97 135 187 224 269 332 407
#     4  12  25  37  68  99 135 185 226 269 332 407
#     4  12  21  38  63  94 140 180 223 268 333 398
#     4  12  25  45  67  97 141 172 224 288 333 398
#     4  12  26  44  68  96 130 177 227 279 344 400
#     4  12  21  40  63  92 132 180 223 282 333 396
#
# _framework density 19.178131
#
# number of rings (size 3 to 8) (size 9 to 14) (size 15 to 20)
#    0.000    0.000    7.778    2.667    4.667    0.889 
#    0.000    3.889    0.000    0.000    0.000    0.000 
#    0.000    0.000    0.000    0.000    0.000    0.000 
#
# Total GULP energy -201202.413931 kJ/mol
# GULP energy per Si atom -5588.955943 kJ/mol
# Density = 1.913448 g / cm^3
# Si number density = 19.178131 Si / 1000 Ang^3
#
#
#
# Elastic Constant Matrix: (Units=GPa)
#
#
# Indices 1 2 3 4 5 6 
#
# 1 196.0623 22.2383 67.8236 0.0000 0.0000 0.0000
# 2 22.2383 102.6286 30.0706 0.0000 0.0000 0.0000
# 3 67.8236 30.0706 137.3163 0.0000 0.0000 0.0000
# 4 0.0000 0.0000 0.0000 18.7097 0.0000 0.0000
# 5 0.0000 0.0000 0.0000 0.0000 33.5238 0.0000
# 6 0.0000 0.0000 0.0000 0.0000 0.0000 30.0801
#
#
#
# Elastic Compliance Matrix: (Units=1/GPa)
#
#
# Indices 1 2 3 4 5 6 
#
# 1 0.006173 -0.000475 -0.002945 0.000000 0.000000 0.000000
# 2 -0.000475 0.010448 -0.002054 0.000000 0.000000 0.000000
# 3 -0.002945 -0.002054 0.009187 0.000000 0.000000 0.000000
# 4 0.000000 0.000000 0.000000 0.053448 0.000000 0.000000
# 5 0.000000 0.000000 0.000000 0.000000 0.029830 0.000000
# 6 0.000000 0.000000 0.000000 0.000000 0.000000 0.033245
#
#
# Mechanical properties :
#
#
# Convention : Reuss Voigt Hill
#
# Bulk Modulus (GPa) = 67.28771 75.14133 71.21452
# Shear Modulus (GPa) = 31.59936 37.52105 34.56020
#
# Velocity S-wave (km/s) = 4.06356 4.42798 4.24968
# Velocity P-wave (km/s) = 7.56165 8.08755 7.82901
#
# Compressibility (1/GPa) = 0.01486156
#
# Stress axis : x y z
#
# Youngs Moduli (GPa) = 161.99472 95.70792 108.85185
#
# Poissons Ratio (x) = 0.04543 0.32057
# Poissons Ratio (y) = 0.07690 0.22354
# Poissons Ratio (z) = 0.47708 0.19655
#
# Static dielectric constant tensor:
#      x y z
#    x 1.659430 0.000000 0.000000 
#    y 0.000000 1.681750 0.000000 
#    z 0.000000 0.000000 1.688510 
# 
# From -- ./inp_files/25158.got.cif
#   From: 2010.05.17/outbox.cif.g08.bks.cpg/sg67_13_cif.got.tgz:25158.got - 2010.06.03 18:28:57.
