data_PCOD9505222
_publ_section_title
;
Structure prediction by ZEFSAII (Michael W. Deem and Ramdas Pophale) SiO2 
 PCOD9505222
Probable space group: C M M A
;
_chemical_formula_sum "Si O2"
_cell_formula_units_Z 32
_cell_length_a 9.000000
_cell_length_b 21.000000
_cell_length_c 18.000000
_cell_angle_alpha 90.000000
_cell_angle_beta 90.000000
_cell_angle_gamma 90.000000
_cell_volume 3402.000000
_symmetry_space_group_name_H-M "C M M A"
_symmetry_group_IT_number 67
_symmetry_cell_setting 'orthorhombic'
loop_
_space_group_symop_operation_xyz
x,y,z
-x,1/2-y,z
x,-y,-z
-x,1/2+y,-z
-x,-y,-z
x,1/2+y,-z
-x,y,z
x,1/2-y,z
1/2+x,1/2+y,z
1/2-x,-y,z
1/2+x,1/2-y,-z
1/2-x,y,-z
1/2-x,1/2-y,-z
1/2+x,y,-z
1/2-x,1/2+y,z
1/2+x,-y,z
loop_
_atom_site_type_symbol
_atom_site_label
_atom_site_fract_x
_atom_site_fract_y
_atom_site_fract_z
Si Si1 0.324484 0.679365 0.919580
Si Si2 0.322464 0.819460 0.579727
Si Si3 0.678487 0.938776 0.677458
Si Si4 0.676987 0.437352 0.839481
O O1 0.500000 0.664282 0.924402
O O2 0.311564 0.750000 0.885415
O O3 0.235327 0.626042 0.876919
O O4 0.250000 0.682147 0.000000
O O5 0.500000 0.820595 0.570931
O O6 0.279101 0.750000 0.609222
O O7 0.250000 0.827811 0.500000
O O8 0.282330 0.875693 0.633771
O O9 0.500000 0.944785 0.684844
O O10 0.756328 0.935201 0.756936
O O11 0.750000 0.000000 0.638351
O O12 0.500000 0.442512 0.839215
O O13 0.750000 0.500000 0.876134
#
# Coordination Sequence:
#
# PCOD9505222 Si02
#       4
#    16  16  16  16
#     4  10  21  38  59  83 112 144 179 221 268 318
#     4   9  19  35  54  76 103 136 174 216 262 313
#     4  10  20  35  54  77 106 139 176 218 266 317
#     4  11  22  37  57  81 110 143 182 224 269 320
#
# _framework density 9.4062319999999993
#
# number of rings (size 3 to 8) (size 9 to 14) (size 15 to 20)
#    0.000    2.000    0.000    5.250    0.000    5.500 
#    0.000    7.500    0.000    0.000    0.000    0.000 
#    0.000    0.000    0.000    0.000    0.000    0.000 
#
# Total GULP energy -178378.819542 kJ/mol
# GULP energy per Si atom -5574.338111 kJ/mol
# Density = 0.938482 g / cm^3
# Si number density = 9.406232 Si / 1000 Ang^3
#
#
#
# Elastic Constant Matrix: (Units=GPa)
#
#
# Indices 1 2 3 4 5 6 
#
# 1 93.5324 87.3627 25.5103 0.0000 0.0000 0.0000
# 2 87.3627 167.6584 83.5833 0.0000 0.0000 0.0000
# 3 25.5103 83.5833 35.8493 0.0000 0.0000 0.0000
# 4 0.0000 0.0000 0.0000 71.0758 0.0000 0.0000
# 5 0.0000 0.0000 0.0000 0.0000 27.9817 0.0000
# 6 0.0000 0.0000 0.0000 0.0000 0.0000 38.0802
#
#
#
# Elastic Compliance Matrix: (Units=1/GPa)
#
#
# Indices 1 2 3 4 5 6 
#
# 1 0.009620 0.009856 -0.029825 0.000000 0.000000 0.000000
# 2 0.009856 -0.026643 0.055105 0.000000 0.000000 0.000000
# 3 -0.029825 0.055105 -0.079361 0.000000 0.000000 0.000000
# 4 0.000000 0.000000 0.000000 0.014069 0.000000 0.000000
# 5 0.000000 0.000000 0.000000 0.000000 0.035738 0.000000
# 6 0.000000 0.000000 0.000000 0.000000 0.000000 0.026260
#
#
# Mechanical properties :
#
#
# Convention : Reuss Voigt Hill
#
# Bulk Modulus (GPa) = -38.29723 76.66142 19.18210
# Shear Modulus (GPa) = -50.35670 34.13313 -8.11178
#
# Velocity S-wave (km/s) = -5.17937 4.26419 -2.07877
# Velocity P-wave (km/s) = 7.49462 8.06741 2.11114
#
# Compressibility (1/GPa) = -0.02611155
#
# Stress axis : x y z
#
# Youngs Moduli (GPa) = 103.94786 -37.53335 -12.60071
#
# Poissons Ratio (x) = 0.36993 -0.37582
# Poissons Ratio (y) = -1.02451 0.69436
# Poissons Ratio (z) = 3.10027 2.06828
#
# Static dielectric constant tensor:
#      x y z
#    x 1.615160 0.000000 0.000000 
#    y 0.000000 1.767760 0.000000 
#    z 0.000000 0.000000 1.633730 
# 
# From -- ./inp_files/24810.got.cif
#   From: 2010.05.17/outbox.ucp.g08.bks.cvg/sg67_13_cif.got.tgz:24810.got - 2010.06.11 16:47:20.
