data_PCOD9505503
_publ_section_title
;
Structure prediction by ZEFSAII (Michael W. Deem and Ramdas Pophale) SiO2 
 PCOD9505503
Probable space group: C C C A
;
_chemical_formula_sum "Si O2"
_cell_formula_units_Z 88
_cell_length_a 13.337438
_cell_length_b 12.918304
_cell_length_c 23.873154
_cell_angle_alpha 90.000000
_cell_angle_beta 90.000000
_cell_angle_gamma 90.000000
_cell_volume 4113.274693
_symmetry_space_group_name_H-M "C C C A"
_symmetry_group_IT_number 68
_space_group.IT_coordinate_system_code '2'
_symmetry_cell_setting 'orthorhombic'
loop_
_space_group_symop_operation_xyz
x,y,z
-x,1/2-y,z
x,1/2-y,1/2-z
-x,y,1/2-z
-x,-y,-z
x,1/2+y,-z
-x,1/2+y,1/2+z
x,-y,1/2+z
1/2+x,1/2+y,z
1/2-x,-y,z
1/2+x,-y,1/2-z
1/2-x,1/2+y,1/2-z
1/2-x,1/2-y,-z
1/2+x,y,-z
1/2-x,y,1/2+z
1/2+x,1/2-y,1/2+z
loop_
_atom_site_type_symbol
_atom_site_label
_atom_site_fract_x
_atom_site_fract_y
_atom_site_fract_z
Si Si1 0.000000 0.750000 0.520595
Si Si2 0.681186 0.792820 0.950517
Si Si3 0.360839 0.124241 0.605361
Si Si4 0.999906 0.512348 0.814465
Si Si5 0.817576 0.090929 0.625615
Si Si6 0.846585 0.191808 0.192696
O O1 0.923819 0.813575 0.480700
O O2 0.940742 0.664489 0.558347
O O3 0.749305 0.880787 0.921486
O O4 0.667555 0.694311 0.909889
O O5 0.750000 0.750000 0.000000
O O6 0.401884 0.035792 0.647716
O O7 0.353263 0.225697 0.643934
O O8 0.923720 0.448291 0.852827
O O9 0.945690 0.623222 0.807401
O O10 0.000000 0.470970 0.750000
O O11 0.747786 0.119921 0.678566
O O12 0.750000 0.000000 0.596543
O O13 0.833094 0.250000 0.250000
#
# Coordination Sequence:
#
# PCOD9505503 Si02
#       6
#     8  16  16  16  16  16
#     4  10  18  34  59  82 109 148 210 248 292 338
#     4   9  20  37  59  80 110 160 204 245 295 360
#     4  10  18  31  58  89 112 145 207 258 277 355
#     4  11  19  31  57  90 122 148 187 253 319 353
#     4   9  21  36  54  84 123 151 186 249 313 354
#     4  10  17  31  56  86 111 153 197 242 291 364
#
# _framework density 21.394145000000002
#
# number of rings (size 3 to 8) (size 9 to 14) (size 15 to 20)
#    0.000    2.182    3.636    0.000    2.545    0.000 
#    0.000    7.273    0.000    0.000    0.000    0.000 
#    0.000    0.000    0.000    0.000    0.000    0.000 
#
# Total GULP energy -245238.369217 kJ/mol
# GULP energy per Si atom -5573.599300 kJ/mol
# Density = 2.134545 g / cm^3
# Si number density = 21.394145 Si / 1000 Ang^3
#
#
#
# Elastic Constant Matrix: (Units=GPa)
#
#
# Indices 1 2 3 4 5 6 
#
# 1 102.2756 22.9975 52.4498 0.0000 0.0000 0.0000
# 2 22.9975 54.8284 31.0883 0.0000 0.0000 0.0000
# 3 52.4498 31.0883 105.0407 0.0000 0.0000 0.0000
# 4 0.0000 0.0000 0.0000 2.2880 0.0000 0.0000
# 5 0.0000 0.0000 0.0000 0.0000 34.0294 0.0000
# 6 0.0000 0.0000 0.0000 0.0000 0.0000 41.1274
#
#
#
# Elastic Compliance Matrix: (Units=1/GPa)
#
#
# Indices 1 2 3 4 5 6 
#
# 1 0.013358 -0.002188 -0.006022 0.000000 0.000000 0.000000
# 2 -0.002188 0.022275 -0.005500 0.000000 0.000000 0.000000
# 3 -0.006022 -0.005500 0.014155 0.000000 0.000000 0.000000
# 4 0.000000 0.000000 0.000000 0.437060 0.000000 0.000000
# 5 0.000000 0.000000 0.000000 0.000000 0.029386 0.000000
# 6 0.000000 0.000000 0.000000 0.000000 0.000000 0.024315
#
#
# Mechanical properties :
#
#
# Convention : Reuss Voigt Hill
#
# Bulk Modulus (GPa) = 44.70873 52.80176 48.75524
# Shear Modulus (GPa) = 8.68921 25.86291 17.27606
#
# Velocity S-wave (km/s) = 2.01750 3.48066 2.84476
# Velocity P-wave (km/s) = 5.13518 6.39433 5.79903
#
# Compressibility (1/GPa) = 0.02236700
#
# Stress axis : x y z
#
# Youngs Moduli (GPa) = 74.86161 44.89315 70.64606
#
# Poissons Ratio (x) = 0.09823 0.42546
# Poissons Ratio (y) = 0.16381 0.38855
# Poissons Ratio (z) = 0.45085 0.24691
#
# Static dielectric constant tensor:
#      x y z
#    x 1.853600 0.000000 0.000000 
#    y 0.000000 1.786010 0.000000 
#    z 0.000000 0.000000 1.801460 
# 
# From -- ./inp_files/44260.got.cif
#   From: 2010.05.17/outbox.cif.g08.bks.cpg/sg68_23_cif.got.tgz:44260.got - 2010.06.03 18:57:09.
