data_PCOD9505860
_publ_section_title
;
Structure prediction by ZEFSAII (Michael W. Deem and Ramdas Pophale) SiO2 
 PCOD9505860
Probable space group: C C C A
;
_chemical_formula_sum "Si O2"
_cell_formula_units_Z 88
_cell_length_a 14.452546
_cell_length_b 19.900713
_cell_length_c 14.723674
_cell_angle_alpha 90.000000
_cell_angle_beta 90.000000
_cell_angle_gamma 90.000000
_cell_volume 4234.763780
_symmetry_space_group_name_H-M "C C C A"
_symmetry_group_IT_number 68
_space_group.IT_coordinate_system_code '2'
_symmetry_cell_setting 'orthorhombic'
loop_
_space_group_symop_operation_xyz
x,y,z
-x,1/2-y,z
x,1/2-y,1/2-z
-x,y,1/2-z
-x,-y,-z
x,1/2+y,-z
-x,1/2+y,1/2+z
x,-y,1/2+z
1/2+x,1/2+y,z
1/2-x,-y,z
1/2+x,-y,1/2-z
1/2-x,1/2+y,1/2-z
1/2-x,1/2-y,-z
1/2+x,y,-z
1/2-x,y,1/2+z
1/2+x,1/2-y,1/2+z
loop_
_atom_site_type_symbol
_atom_site_label
_atom_site_fract_x
_atom_site_fract_y
_atom_site_fract_z
Si Si1 0.250000 0.500000 0.854090
Si Si2 0.758929 0.178550 0.789815
Si Si3 0.530180 0.577314 0.988461
Si Si4 0.328281 0.123230 0.031842
Si Si5 0.788025 0.422677 0.867426
Si Si6 0.590964 0.095931 0.809006
O O1 0.292510 0.555170 0.920554
O O2 0.336466 0.466148 0.802215
O O3 0.782886 0.250000 0.750000
O O4 0.790062 0.176124 0.894970
O O5 0.799633 0.117532 0.727672
O O6 0.649916 0.161391 0.783618
O O7 0.567134 0.600464 0.085632
O O8 0.500000 0.500000 0.000000
O O9 0.438776 0.620105 0.967569
O O10 0.612897 0.578723 0.916710
O O11 0.283763 0.119577 0.931583
O O12 0.750000 0.500000 0.865152
O O13 0.500000 0.085733 0.750000
#
# Coordination Sequence:
#
# PCOD9505860 Si02
#       6
#     8  16  16  16  16  16
#     4  10  18  38  62  98 142 170 212 290 348 412
#     4  11  28  47  68  95 143 194 234 287 353 425
#     4  12  21  37  68 104 139 172 222 294 356 415
#     4  11  21  43  64  99 142 170 233 281 352 414
#     4  12  23  40  72 104 133 180 228 291 361 410
#     4  11  23  40  66 102 138 180 236 287 343 420
#
# _framework density 20.780380000000001
#
# number of rings (size 3 to 8) (size 9 to 14) (size 15 to 20)
#    0.000    0.727    8.182    1.091    5.091    1.818 
#    0.000    1.818    0.000    0.000    0.000    0.000 
#    0.000    0.000    0.000    0.000    0.000    0.000 
#
# Total GULP energy -245681.669411 kJ/mol
# GULP energy per Si atom -5583.674305 kJ/mol
# Density = 2.073308 g / cm^3
# Si number density = 20.780380 Si / 1000 Ang^3
#
#
#
# Elastic Constant Matrix: (Units=GPa)
#
#
# Indices 1 2 3 4 5 6 
#
# 1 135.4607 -5.3292 21.5756 0.0000 0.0000 0.0000
# 2 -5.3292 51.6367 3.3023 0.0000 0.0000 0.0000
# 3 21.5756 3.3023 92.0606 0.0000 0.0000 0.0000
# 4 0.0000 0.0000 0.0000 19.3386 0.0000 0.0000
# 5 0.0000 0.0000 0.0000 0.0000 49.8370 0.0000
# 6 0.0000 0.0000 0.0000 0.0000 0.0000 13.2583
#
#
#
# Elastic Compliance Matrix: (Units=1/GPa)
#
#
# Indices 1 2 3 4 5 6 
#
# 1 0.007711 0.000914 -0.001840 0.000000 0.000000 0.000000
# 2 0.000914 0.019519 -0.000914 0.000000 0.000000 0.000000
# 3 -0.001840 -0.000914 0.011326 0.000000 0.000000 0.000000
# 4 0.000000 0.000000 0.000000 0.051710 0.000000 0.000000
# 5 0.000000 0.000000 0.000000 0.000000 0.020065 0.000000
# 6 0.000000 0.000000 0.000000 0.000000 0.000000 0.075425
#
#
# Mechanical properties :
#
#
# Convention : Reuss Voigt Hill
#
# Bulk Modulus (GPa) = 28.67382 35.36170 32.01776
# Shear Modulus (GPa) = 24.86782 33.79406 29.33094
#
# Velocity S-wave (km/s) = 3.46308 4.03705 3.76103
# Velocity P-wave (km/s) = 5.46068 6.22770 5.85676
#
# Compressibility (1/GPa) = 0.03487502
#
# Stress axis : x y z
#
# Youngs Moduli (GPa) = 129.68120 51.23260 88.28903
#
# Poissons Ratio (x) = -0.04680 0.16245
# Poissons Ratio (y) = -0.11847 0.08072
# Poissons Ratio (z) = 0.23861 0.04684
#
# Static dielectric constant tensor:
#      x y z
#    x 1.425700 0.000000 0.000000 
#    y 0.000000 1.770740 0.000000 
#    z 0.000000 0.000000 1.811920 
# 
# From -- ./inp_files/22279.got.cif
#   From: 2010.05.17/outbox.cif.g08.bks.cpg/sg68_12_cif.got.tgz:22279.got - 2010.06.03 18:57:09.
